=
 OpenBabel11062418143D

 59 65  0  0  1  0  0  0  0  0999 V2000
  189.1290  177.8250  143.0350 C   0  0  0  0  0  0  0  0  0  0  0  0
  188.0430  175.6900  143.4430 C   0  0  0  0  0  3  0  0  0  0  0  0
  190.4470  175.6190  142.8640 C   0  0  0  0  0  2  0  0  0  0  0  0
  190.3020  178.6960  142.6590 C   0  0  0  0  0  2  0  0  0  0  0  0
  192.0950  177.0470  141.9410 C   0  0  0  0  0  2  0  0  0  0  0  0
  186.7400  177.7290  143.4990 C   0  0  0  0  0  0  0  0  0  0  0  0
  186.8190  176.3410  143.6130 C   0  0  0  0  0  3  0  0  0  0  0  0
  191.6560  176.3710  143.1610 N   0  0  0  0  0  2  0  0  0  0  0  0
  187.8990  178.4660  143.2240 C   0  0  0  0  0  3  0  0  0  0  0  0
  189.2070  176.4150  143.1620 C   0  0  0  0  0  0  0  0  0  0  0  0
  191.1260  178.1500  141.4780 C   0  0  1  0  0  3  0  0  0  0  0  0
  192.4570  176.7600  139.1990 C   0  0  0  0  0  2  0  0  0  0  0  0
  192.3470  175.9110  136.9030 N   0  0  0  0  0  0  0  0  0  0  0  0
  191.0030  177.1670  139.0740 C   0  0  0  0  0  0  0  0  0  0  0  0
  189.3050  178.7230  139.8790 N   0  0  0  0  0  2  0  0  0  0  0  0
  195.0270  174.9030  136.9590 C   0  0  0  0  0  1  0  0  0  0  0  0
  191.0010  176.3710  136.7720 C   0  0  0  0  0  0  0  0  0  0  0  0
  187.6130  177.0930  139.7000 O   0  0  0  0  0  1  0  0  0  0  0  0
  194.3790  175.5890  138.0680 N   0  0  0  0  0  2  0  0  0  0  0  0
  188.2950  178.1070  139.0200 C   0  0  2  0  0  3  0  0  0  0  0  0
  188.9230  177.5690  137.7260 C   0  0  2  0  0  3  0  0  0  0  0  0
  190.2570  177.6880  140.2850 C   0  0  2  0  0  3  0  0  0  0  0  0
  193.0340  176.0640  137.9950 C   0  0  0  0  0  0  0  0  0  0  0  0
  190.3320  177.0280  137.9100 C   0  0  0  0  0  0  0  0  0  0  0  0
  190.3890  176.1920  135.6860 O   0  0  0  0  0  0  0  0  0  0  0  0
  188.9310  178.5870  136.7660 O   0  0  0  0  0  0  0  0  0  0  0  0
  187.5830  178.7930  136.4470 C   0  0  0  0  0  2  0  0  0  0  0  0
  187.1820  177.9250  135.2660 C   0  0  0  0  0  2  0  0  0  0  0  0
  185.8890  177.1990  135.5590 C   0  0  0  0  0  2  0  0  0  0  0  0
  185.1380  174.8820  136.2150 N   0  0  0  0  0  2  0  0  0  0  0  0
  187.2090  175.2500  135.1980 O   0  0  0  0  0  0  0  0  0  0  0  0
  186.1340  175.7340  135.6460 C   0  0  0  0  0  0  0  0  0  0  0  0
  184.5490  173.0410  137.4770 C   0  0  0  0  0  2  0  0  0  0  0  0
  183.5860  171.9920  135.5840 C   0  0  0  0  0  2  0  0  0  0  0  0
  183.7890  171.8060  137.0610 C   0  0  0  0  0  2  0  0  0  0  0  0
  185.3300  173.4970  136.3300 N   0  0  0  0  0  0  0  0  0  0  0  0
  184.7270  172.8910  135.1450 C   0  0  0  0  0  2  0  0  0  0  0  0
  185.4080  178.4030  143.6690 C   0  0  2  0  0  3  0  0  0  0  0  0
  185.6780  179.6720  141.6660 O   0  0  0  0  0  0  0  0  0  0  0  0
  184.9010  178.9860  142.3780 C   0  0  0  0  0  0  0  0  0  0  0  0
  182.5800  178.9530  142.7780 O   0  0  0  0  0  0  0  0  0  0  0  0
  183.1420  178.1910  140.6670 N   0  0  0  0  0  2  0  0  0  0  0  0
  183.5070  178.7170  141.9570 C   0  0  0  0  0  0  0  0  0  0  0  0
  184.4420  178.9510  138.7100 C   0  0  0  0  0  1  0  0  0  0  0  0
  183.3650  176.6710  138.7340 C   0  0  0  0  0  1  0  0  0  0  0  0
  184.0040  177.7720  139.5630 C   0  0  0  0  0  3  0  0  0  0  0  0
  185.4160  179.4390  144.7910 C   0  0  0  0  0  2  0  0  0  0  0  0
  184.6130  178.9680  145.9610 C   0  0  0  0  0  0  0  0  0  0  0  0
  185.2480  178.5980  147.1860 N   0  0  0  0  0  2  0  0  0  0  0  0
  183.3600  178.8810  145.8630 O   0  0  0  0  0  0  0  0  0  0  0  0
  186.6790  178.7470  147.4080 C   0  0  0  0  0  2  0  0  0  0  0  0
  189.4710  179.5490  148.1800 F   0  0  0  0  0  0  0  0  0  0  0  0
  189.4290  178.1930  148.4660 C   0  0  2  0  0  3  0  0  0  0  0  0
  189.8860  176.6770  146.5780 C   0  0  0  0  0  2  0  0  0  0  0  0
  187.4240  177.6020  146.7450 C   0  0  2  0  0  3  0  0  0  0  0  0
  190.7950  177.6860  148.5990 N   0  0  0  0  0  2  0  0  0  0  0  0
  187.7270  176.5180  147.7690 C   0  0  0  0  0  2  0  0  0  0  0  0
  188.8340  177.4430  147.3060 C   0  0  2  0  0  0  0  0  0  0  0  0
  191.1610  177.0770  147.3150 C   0  0  0  0  0  2  0  0  0  0  0  0
  1 10  2  0  0  0  0
  1  9  1  0  0  0  0
  2  7  2  0  0  0  0
  3  8  1  0  0  0  0
  3 10  1  0  0  0  0
  4  1  1  0  0  0  0
  5  8  1  0  0  0  0
  6  7  1  0  0  0  0
  6 38  1  0  0  0  0
  9  6  2  0  0  0  0
 10  2  1  0  0  0  0
 11  5  1  1  0  0  0
 11  4  1  0  0  0  0
 13 23  2  0  0  0  0
 14 12  1  0  0  0  0
 15 22  1  0  0  0  0
 16 19  1  0  0  0  0
 17 13  1  0  0  0  0
 17 24  1  0  0  0  0
 20 18  1  1  0  0  0
 20 15  1  0  0  0  0
 21 26  1  6  0  0  0
 21 24  1  0  0  0  0
 21 20  1  0  0  0  0
 22 14  1  6  0  0  0
 22 11  1  0  0  0  0
 23 19  1  0  0  0  0
 23 12  1  0  0  0  0
 24 14  2  0  0  0  0
 25 17  2  0  0  0  0
 27 26  1  0  0  0  0
 28 29  1  0  0  0  0
 28 27  1  0  0  0  0
 29 32  1  0  0  0  0
 30 36  1  0  0  0  0
 31 32  2  0  0  0  0
 32 30  1  0  0  0  0
 34 35  1  0  0  0  0
 35 33  1  0  0  0  0
 36 33  1  0  0  0  0
 37 34  1  0  0  0  0
 37 36  1  0  0  0  0
 38 47  1  1  0  0  0
 39 40  2  0  0  0  0
 40 38  1  0  0  0  0
 42 43  1  0  0  0  0
 43 40  1  0  0  0  0
 43 41  2  0  0  0  0
 44 46  1  0  0  0  0
 45 46  1  0  0  0  0
 46 42  1  0  0  0  0
 47 48  1  0  0  0  0
 48 49  1  0  0  0  0
 49 51  1  0  0  0  0
 50 48  2  0  0  0  0
 53 52  1  6  0  0  0
 53 56  1  0  0  0  0
 54 59  1  0  0  0  0
 55 58  1  0  0  0  0
 55 51  1  1  0  0  0
 55 57  1  0  0  0  0
 58 54  1  6  0  0  0
 58 57  1  0  0  0  0
 58 53  1  0  0  0  0
 59 56  1  0  0  0  0
M  END
>  <MODEL>
1

>  <REMARK>
 VINA RESULT:      -7.3      0.000      0.000
  Name = 
  15 active torsions:
  status: ('A' for Active; 'I' for Inactive)
    1  A    between atoms: C_6  and  C_34
    2  A    between atoms: C_12  and  C_18
    3  A    between atoms: C_12  and  C_32
    4  A    between atoms: C_18  and  C_57
    5  A    between atoms: O_21  and  C_32
    6  A    between atoms: O_21  and  C_39
    7  A    between atoms: N_24  and  C_28
    8  A    between atoms: N_26  and  N_29
    9  A    between atoms: N_27  and  C_40
   10  A    between atoms: C_34  and  C_47
   11  A    between atoms: C_35  and  C_47
   12  A    between atoms: C_40  and  C_43
   13  A    between atoms: C_45  and  C_49
   14  A    between atoms: C_47  and  C_49
   15  A    between atoms: C_51  and  C_56
                            x       y       z     vdW  Elec       q    Type
                         _______ _______ _______ _____ _____    ______ ____

>  <TORSDO>
F 15

$$$$
=
 OpenBabel11062418143D

 59 65  0  0  1  0  0  0  0  0999 V2000
  189.3690  177.7790  143.4750 C   0  0  0  0  0  0  0  0  0  0  0  0
  188.0860  175.7500  143.8500 C   0  0  0  0  0  3  0  0  0  0  0  0
  190.4090  175.4610  143.0530 C   0  0  0  0  0  2  0  0  0  0  0  0
  190.5980  178.5420  143.0480 C   0  0  0  0  0  2  0  0  0  0  0  0
  192.1260  176.7640  142.0730 C   0  0  0  0  0  2  0  0  0  0  0  0
  187.0310  177.9090  144.1450 C   0  0  0  0  0  0  0  0  0  0  0  0
  186.9610  176.5150  144.1670 C   0  0  0  0  0  3  0  0  0  0  0  0
  191.7170  176.0550  143.2850 N   0  0  0  0  0  2  0  0  0  0  0  0
  188.2390  178.5330  143.8110 C   0  0  0  0  0  3  0  0  0  0  0  0
  189.2960  176.3630  143.5090 C   0  0  0  0  0  0  0  0  0  0  0  0
  191.2540  177.9950  141.7670 C   0  0  1  0  0  3  0  0  0  0  0  0
  192.2610  176.8090  139.2210 C   0  0  0  0  0  2  0  0  0  0  0  0
  191.8690  176.2330  136.8720 N   0  0  0  0  0  0  0  0  0  0  0  0
  190.8300  177.2970  139.2980 C   0  0  0  0  0  0  0  0  0  0  0  0
  189.3180  178.8320  140.4430 N   0  0  0  0  0  2  0  0  0  0  0  0
  194.4760  175.0970  136.5320 C   0  0  0  0  0  1  0  0  0  0  0  0
  190.5470  176.7690  136.9370 C   0  0  0  0  0  0  0  0  0  0  0  0
  187.5220  177.3170  140.2720 O   0  0  0  0  0  1  0  0  0  0  0  0
  193.9860  175.6830  137.7710 N   0  0  0  0  0  2  0  0  0  0  0  0
  188.1910  178.3670  139.6360 C   0  0  2  0  0  3  0  0  0  0  0  0
  188.6520  177.9500  138.2320 C   0  0  2  0  0  3  0  0  0  0  0  0
  190.2420  177.7140  140.6310 C   0  0  2  0  0  3  0  0  0  0  0  0
  192.6710  176.2270  137.8940 C   0  0  0  0  0  0  0  0  0  0  0  0
  190.0370  177.3240  138.2040 C   0  0  0  0  0  0  0  0  0  0  0  0
  189.8190  176.7440  135.9100 O   0  0  0  0  0  0  0  0  0  0  0  0
  188.6230  179.0690  137.3930 O   0  0  0  0  0  0  0  0  0  0  0  0
  187.3020  179.1430  136.9350 C   0  0  0  0  0  2  0  0  0  0  0  0
  186.7420  177.7480  136.7110 C   0  0  0  0  0  2  0  0  0  0  0  0
  185.3480  177.6400  137.2880 C   0  0  0  0  0  2  0  0  0  0  0  0
  185.1200  175.2270  136.5910 N   0  0  0  0  0  2  0  0  0  0  0  0
  183.4880  176.8100  136.0550 O   0  0  0  0  0  0  0  0  0  0  0  0
  184.5950  176.5550  136.6030 C   0  0  0  0  0  0  0  0  0  0  0  0
  185.4650  173.2170  135.5090 C   0  0  0  0  0  2  0  0  0  0  0  0
  184.1480  172.0730  137.1120 C   0  0  0  0  0  2  0  0  0  0  0  0
  184.9970  171.8350  135.8950 C   0  0  0  0  0  2  0  0  0  0  0  0
  184.4520  174.1740  135.9470 N   0  0  0  0  0  0  0  0  0  0  0  0
  183.6520  173.5000  136.9670 C   0  0  0  0  0  2  0  0  0  0  0  0
  185.8020  178.7090  144.4740 C   0  0  2  0  0  3  0  0  0  0  0  0
  184.4140  177.8290  146.2040 O   0  0  0  0  0  0  0  0  0  0  0  0
  185.3980  178.5560  145.9150 C   0  0  0  0  0  0  0  0  0  0  0  0
  185.8410  180.4070  147.3030 O   0  0  0  0  0  0  0  0  0  0  0  0
  187.3260  178.6620  147.6240 N   0  0  0  0  0  2  0  0  0  0  0  0
  186.1840  179.2420  146.9660 C   0  0  0  0  0  0  0  0  0  0  0  0
  187.7390  176.4050  148.5370 C   0  0  0  0  0  1  0  0  0  0  0  0
  189.4490  177.5320  147.0650 C   0  0  0  0  0  1  0  0  0  0  0  0
  187.9730  177.3730  147.3880 C   0  0  0  0  0  3  0  0  0  0  0  0
  184.6410  178.4130  143.5270 C   0  0  0  0  0  2  0  0  0  0  0  0
  184.8550  179.0630  142.1970 C   0  0  0  0  0  0  0  0  0  0  0  0
  184.0080  178.7600  141.0880 N   0  0  0  0  0  2  0  0  0  0  0  0
  185.8030  179.8790  142.0480 O   0  0  0  0  0  0  0  0  0  0  0  0
  182.8440  177.8940  141.1980 C   0  0  0  0  0  2  0  0  0  0  0  0
  182.9060  175.5200  139.3550 F   0  0  0  0  0  0  0  0  0  0  0  0
  181.5530  175.7270  139.5760 C   0  0  2  0  0  3  0  0  0  0  0  0
  180.4700  177.4070  138.1340 C   0  0  0  0  0  2  0  0  0  0  0  0
  181.7710  178.3470  140.2250 C   0  0  2  0  0  3  0  0  0  0  0  0
  180.7850  175.0280  138.5460 N   0  0  0  0  0  2  0  0  0  0  0  0
  180.4370  177.7080  140.5870 C   0  0  0  0  0  2  0  0  0  0  0  0
  181.2240  177.1850  139.4010 C   0  0  2  0  0  0  0  0  0  0  0  0
  180.4400  176.0120  137.5140 C   0  0  0  0  0  2  0  0  0  0  0  0
  1 10  2  0  0  0  0
  1  9  1  0  0  0  0
  2  7  2  0  0  0  0
  3  8  1  0  0  0  0
  3 10  1  0  0  0  0
  4  1  1  0  0  0  0
  5  8  1  0  0  0  0
  6  7  1  0  0  0  0
  6 38  1  0  0  0  0
  9  6  2  0  0  0  0
 10  2  1  0  0  0  0
 11  5  1  1  0  0  0
 11  4  1  0  0  0  0
 12 14  1  0  0  0  0
 13 17  1  0  0  0  0
 13 23  2  0  0  0  0
 15 22  1  0  0  0  0
 16 19  1  0  0  0  0
 17 24  1  0  0  0  0
 19 23  1  0  0  0  0
 20 18  1  1  0  0  0
 20 15  1  0  0  0  0
 21 26  1  6  0  0  0
 21 20  1  0  0  0  0
 22 14  1  6  0  0  0
 22 11  1  0  0  0  0
 23 12  1  0  0  0  0
 24 21  1  0  0  0  0
 24 14  2  0  0  0  0
 25 17  2  0  0  0  0
 27 26  1  0  0  0  0
 28 27  1  0  0  0  0
 28 29  1  0  0  0  0
 30 32  1  0  0  0  0
 31 32  2  0  0  0  0
 32 29  1  0  0  0  0
 33 35  1  0  0  0  0
 33 36  1  0  0  0  0
 35 34  1  0  0  0  0
 36 30  1  0  0  0  0
 36 37  1  0  0  0  0
 37 34  1  0  0  0  0
 38 47  1  6  0  0  0
 38 40  1  0  0  0  0
 40 39  2  0  0  0  0
 40 43  1  0  0  0  0
 43 41  2  0  0  0  0
 43 42  1  0  0  0  0
 45 46  1  0  0  0  0
 46 42  1  0  0  0  0
 46 44  1  0  0  0  0
 48 47  1  0  0  0  0
 49 51  1  0  0  0  0
 49 48  1  0  0  0  0
 50 48  2  0  0  0  0
 53 52  1  6  0  0  0
 55 57  1  0  0  0  0
 55 51  1  1  0  0  0
 56 53  1  0  0  0  0
 58 54  1  6  0  0  0
 58 53  1  0  0  0  0
 58 55  1  0  0  0  0
 58 57  1  0  0  0  0
 59 54  1  0  0  0  0
 59 56  1  0  0  0  0
M  END
>  <MODEL>
2

>  <REMARK>
 VINA RESULT:      -6.5      2.138      5.554
  Name = 
  15 active torsions:
  status: ('A' for Active; 'I' for Inactive)
    1  A    between atoms: C_6  and  C_34
    2  A    between atoms: C_12  and  C_18
    3  A    between atoms: C_12  and  C_32
    4  A    between atoms: C_18  and  C_57
    5  A    between atoms: O_21  and  C_32
    6  A    between atoms: O_21  and  C_39
    7  A    between atoms: N_24  and  C_28
    8  A    between atoms: N_26  and  N_29
    9  A    between atoms: N_27  and  C_40
   10  A    between atoms: C_34  and  C_47
   11  A    between atoms: C_35  and  C_47
   12  A    between atoms: C_40  and  C_43
   13  A    between atoms: C_45  and  C_49
   14  A    between atoms: C_47  and  C_49
   15  A    between atoms: C_51  and  C_56
                            x       y       z     vdW  Elec       q    Type
                         _______ _______ _______ _____ _____    ______ ____

>  <TORSDO>
F 15

$$$$
=
 OpenBabel11062418143D

 59 65  0  0  1  0  0  0  0  0999 V2000
  189.0670  178.1050  142.6300 C   0  0  0  0  0  0  0  0  0  0  0  0
  187.6890  176.1880  143.2020 C   0  0  0  0  0  3  0  0  0  0  0  0
  190.1180  175.7790  142.9760 C   0  0  0  0  0  2  0  0  0  0  0  0
  190.3740  178.7790  142.2930 C   0  0  0  0  0  2  0  0  0  0  0  0
  192.0260  176.8620  142.0850 C   0  0  0  0  0  2  0  0  0  0  0  0
  186.6460  178.3290  142.7700 C   0  0  0  0  0  0  0  0  0  0  0  0
  186.5410  176.9780  143.1010 C   0  0  0  0  0  3  0  0  0  0  0  0
  191.3650  176.4440  143.3210 N   0  0  0  0  0  2  0  0  0  0  0  0
  187.9110  178.8890  142.5490 C   0  0  0  0  0  3  0  0  0  0  0  0
  188.9570  176.7350  142.9780 C   0  0  0  0  0  0  0  0  0  0  0  0
  191.2610  177.9650  141.3330 C   0  0  1  0  0  3  0  0  0  0  0  0
  192.7940  176.5140  139.2240 C   0  0  0  0  0  2  0  0  0  0  0  0
  192.8700  175.5400  136.9770 N   0  0  0  0  0  0  0  0  0  0  0  0
  191.3370  176.8500  138.9840 C   0  0  0  0  0  0  0  0  0  0  0  0
  189.5290  178.3720  139.5900 N   0  0  0  0  0  2  0  0  0  0  0  0
  195.5790  174.6540  137.2610 C   0  0  0  0  0  1  0  0  0  0  0  0
  191.5180  175.9330  136.7350 C   0  0  0  0  0  0  0  0  0  0  0  0
  187.9190  176.6630  139.3960 O   0  0  0  0  0  1  0  0  0  0  0  0
  194.8320  175.3690  138.2860 N   0  0  0  0  0  2  0  0  0  0  0  0
  188.6030  177.6680  138.7050 C   0  0  2  0  0  3  0  0  0  0  0  0
  189.3360  177.0900  137.4860 C   0  0  2  0  0  3  0  0  0  0  0  0
  190.4920  177.4030  140.1140 C   0  0  2  0  0  3  0  0  0  0  0  0
  193.4770  175.7810  138.1010 C   0  0  0  0  0  0  0  0  0  0  0  0
  190.7500  176.6200  137.7890 C   0  0  0  0  0  0  0  0  0  0  0  0
  190.9880  175.6700  135.6240 O   0  0  0  0  0  0  0  0  0  0  0  0
  189.3670  178.0540  136.4730 O   0  0  0  0  0  0  0  0  0  0  0  0
  188.0550  178.5390  136.3960 C   0  0  0  0  0  2  0  0  0  0  0  0
  187.3280  177.9080  135.2200 C   0  0  0  0  0  2  0  0  0  0  0  0
  186.0640  177.2220  135.6870 C   0  0  0  0  0  2  0  0  0  0  0  0
  185.2510  174.9000  136.2440 N   0  0  0  0  0  2  0  0  0  0  0  0
  187.2700  175.2480  135.1200 O   0  0  0  0  0  0  0  0  0  0  0  0
  186.2480  175.7460  135.6660 C   0  0  0  0  0  0  0  0  0  0  0  0
  184.7660  173.0180  137.4890 C   0  0  0  0  0  2  0  0  0  0  0  0
  183.4740  172.1200  135.7180 C   0  0  0  0  0  2  0  0  0  0  0  0
  183.8890  171.8420  137.1350 C   0  0  0  0  0  2  0  0  0  0  0  0
  185.3870  173.5030  136.2590 N   0  0  0  0  0  0  0  0  0  0  0  0
  184.5800  172.9930  135.1530 C   0  0  0  0  0  2  0  0  0  0  0  0
  185.3950  179.1530  142.6500 C   0  0  2  0  0  3  0  0  0  0  0  0
  185.0370  180.9170  144.2170 O   0  0  0  0  0  0  0  0  0  0  0  0
  184.9400  179.6850  143.9820 C   0  0  0  0  0  0  0  0  0  0  0  0
  183.1690  178.3770  144.8180 O   0  0  0  0  0  0  0  0  0  0  0  0
  185.0750  178.2560  146.1240 N   0  0  0  0  0  2  0  0  0  0  0  0
  184.3610  178.7540  144.9770 C   0  0  0  0  0  0  0  0  0  0  0  0
  187.2910  177.3290  146.6970 C   0  0  0  0  0  1  0  0  0  0  0  0
  186.4120  179.3830  147.8680 C   0  0  0  0  0  1  0  0  0  0  0  0
  186.4260  178.5740  146.5820 C   0  0  0  0  0  3  0  0  0  0  0  0
  184.2730  178.4110  141.9260 C   0  0  0  0  0  2  0  0  0  0  0  0
  184.2840  178.7200  140.4630 C   0  0  0  0  0  0  0  0  0  0  0  0
  183.6110  177.8750  139.5290 N   0  0  0  0  0  2  0  0  0  0  0  0
  184.9070  179.7320  140.0450 O   0  0  0  0  0  0  0  0  0  0  0  0
  182.8020  176.7360  139.9380 C   0  0  0  0  0  2  0  0  0  0  0  0
  180.1010  175.5870  140.5880 F   0  0  0  0  0  0  0  0  0  0  0  0
  180.0400  175.8130  139.2210 C   0  0  2  0  0  3  0  0  0  0  0  0
  180.9700  174.0350  137.7910 C   0  0  0  0  0  2  0  0  0  0  0  0
  182.7140  175.7330  138.8020 C   0  0  2  0  0  3  0  0  0  0  0  0
  178.9310  175.0460  138.6550 N   0  0  0  0  0  2  0  0  0  0  0  0
  181.9050  176.3190  137.6530 C   0  0  0  0  0  2  0  0  0  0  0  0
  181.2790  175.2760  138.5580 C   0  0  2  0  0  0  0  0  0  0  0  0
  179.4930  173.8090  138.1000 C   0  0  0  0  0  2  0  0  0  0  0  0
  1 10  1  0  0  0  0
  3 10  1  0  0  0  0
  3  8  1  0  0  0  0
  4  1  1  0  0  0  0
  5  8  1  0  0  0  0
  6  7  2  0  0  0  0
  7  2  1  0  0  0  0
  9  1  2  0  0  0  0
  9  6  1  0  0  0  0
 10  2  2  0  0  0  0
 11  5  1  1  0  0  0
 11  4  1  0  0  0  0
 13 23  2  0  0  0  0
 14 12  1  0  0  0  0
 15 22  1  0  0  0  0
 16 19  1  0  0  0  0
 17 13  1  0  0  0  0
 17 24  1  0  0  0  0
 20 18  1  1  0  0  0
 20 15  1  0  0  0  0
 21 26  1  6  0  0  0
 21 24  1  0  0  0  0
 21 20  1  0  0  0  0
 22 14  1  6  0  0  0
 22 11  1  0  0  0  0
 23 19  1  0  0  0  0
 23 12  1  0  0  0  0
 24 14  2  0  0  0  0
 25 17  2  0  0  0  0
 27 26  1  0  0  0  0
 28 29  1  0  0  0  0
 28 27  1  0  0  0  0
 30 36  1  0  0  0  0
 31 32  2  0  0  0  0
 32 29  1  0  0  0  0
 32 30  1  0  0  0  0
 34 35  1  0  0  0  0
 35 33  1  0  0  0  0
 36 33  1  0  0  0  0
 37 34  1  0  0  0  0
 37 36  1  0  0  0  0
 38 47  1  1  0  0  0
 38  6  1  0  0  0  0
 38 40  1  0  0  0  0
 40 39  2  0  0  0  0
 40 43  1  0  0  0  0
 41 43  2  0  0  0  0
 42 46  1  0  0  0  0
 43 42  1  0  0  0  0
 46 44  1  0  0  0  0
 46 45  1  0  0  0  0
 48 47  1  0  0  0  0
 49 51  1  0  0  0  0
 49 48  1  0  0  0  0
 50 48  2  0  0  0  0
 53 52  1  1  0  0  0
 54 59  1  0  0  0  0
 54 58  1  0  0  0  0
 55 51  1  1  0  0  0
 56 53  1  0  0  0  0
 57 55  1  0  0  0  0
 58 57  1  6  0  0  0
 58 55  1  0  0  0  0
 58 53  1  0  0  0  0
 59 56  1  0  0  0  0
M  END
>  <MODEL>
3

>  <REMARK>
 VINA RESULT:      -6.4      2.205      5.618
  Name = 
  15 active torsions:
  status: ('A' for Active; 'I' for Inactive)
    1  A    between atoms: C_6  and  C_34
    2  A    between atoms: C_12  and  C_18
    3  A    between atoms: C_12  and  C_32
    4  A    between atoms: C_18  and  C_57
    5  A    between atoms: O_21  and  C_32
    6  A    between atoms: O_21  and  C_39
    7  A    between atoms: N_24  and  C_28
    8  A    between atoms: N_26  and  N_29
    9  A    between atoms: N_27  and  C_40
   10  A    between atoms: C_34  and  C_47
   11  A    between atoms: C_35  and  C_47
   12  A    between atoms: C_40  and  C_43
   13  A    between atoms: C_45  and  C_49
   14  A    between atoms: C_47  and  C_49
   15  A    between atoms: C_51  and  C_56
                            x       y       z     vdW  Elec       q    Type
                         _______ _______ _______ _____ _____    ______ ____

>  <TORSDO>
F 15

$$$$
=
 OpenBabel11062418143D

 59 65  0  0  1  0  0  0  0  0999 V2000
  188.3300  175.9670  135.6320 C   0  0  0  0  0  0  0  0  0  0  0  0
  188.7030  173.8970  136.8480 C   0  0  0  0  0  3  0  0  0  0  0  0
  186.4690  174.1960  135.8280 C   0  0  0  0  0  2  0  0  0  0  0  0
  187.4890  176.9380  134.8410 C   0  0  0  0  0  2  0  0  0  0  0  0
  185.1560  175.9380  134.9080 C   0  0  0  0  0  2  0  0  0  0  0  0
  190.4380  175.5840  136.7900 C   0  0  0  0  0  0  0  0  0  0  0  0
  189.9780  174.3360  137.2120 C   0  0  0  0  0  3  0  0  0  0  0  0
  185.9030  174.7210  134.5950 N   0  0  0  0  0  2  0  0  0  0  0  0
  189.6150  176.3880  135.9900 C   0  0  0  0  0  3  0  0  0  0  0  0
  187.8700  174.6940  136.0550 C   0  0  0  0  0  0  0  0  0  0  0  0
  186.0540  177.0970  135.3770 C   0  0  1  0  0  3  0  0  0  0  0  0
  183.6020  176.2070  136.8250 C   0  0  0  0  0  2  0  0  0  0  0  0
  182.2590  176.1990  138.8740 N   0  0  0  0  0  0  0  0  0  0  0  0
  184.6550  177.0040  137.5670 C   0  0  0  0  0  0  0  0  0  0  0  0
  186.4700  178.6120  137.3090 N   0  0  0  0  0  2  0  0  0  0  0  0
  180.2110  174.5530  137.7360 C   0  0  0  0  0  1  0  0  0  0  0  0
  183.2240  177.0160  139.5380 C   0  0  0  0  0  0  0  0  0  0  0  0
  187.6920  177.6360  139.0710 O   0  0  0  0  0  1  0  0  0  0  0  0
  181.4040  174.9940  137.0280 N   0  0  0  0  0  2  0  0  0  0  0  0
  186.7270  178.5950  138.7480 C   0  0  2  0  0  3  0  0  0  0  0  0
  185.4320  178.3530  139.5370 C   0  0  2  0  0  3  0  0  0  0  0  0
  185.9910  177.2890  136.9110 C   0  0  2  0  0  3  0  0  0  0  0  0
  182.4040  175.8060  137.6440 C   0  0  0  0  0  0  0  0  0  0  0  0
  184.4520  177.4280  138.8340 C   0  0  0  0  0  0  0  0  0  0  0  0
  183.0240  177.3630  140.7320 O   0  0  0  0  0  0  0  0  0  0  0  0
  184.8180  179.5830  139.7930 O   0  0  0  0  0  0  0  0  0  0  0  0
  184.0040  179.8190  138.6780 C   0  0  0  0  0  2  0  0  0  0  0  0
  182.8060  180.6690  139.0710 C   0  0  0  0  0  2  0  0  0  0  0  0
  181.5240  180.0250  138.5920 C   0  0  0  0  0  2  0  0  0  0  0  0
  180.8450  181.9260  137.0790 N   0  0  0  0  0  2  0  0  0  0  0  0
  179.4560  181.1870  138.8070 O   0  0  0  0  0  0  0  0  0  0  0  0
  180.5490  181.0730  138.1870 C   0  0  0  0  0  0  0  0  0  0  0  0
  180.2110  184.1030  137.5100 C   0  0  0  0  0  2  0  0  0  0  0  0
  180.7950  184.7580  135.3090 C   0  0  0  0  0  2  0  0  0  0  0  0
  180.2940  185.3140  136.6120 C   0  0  0  0  0  2  0  0  0  0  0  0
  179.9620  182.9360  136.6680 N   0  0  0  0  0  0  0  0  0  0  0  0
  180.3540  183.3060  135.3100 C   0  0  0  0  0  2  0  0  0  0  0  0
  191.8060  176.0410  137.2100 C   0  0  2  0  0  3  0  0  0  0  0  0
  192.6350  174.4740  135.6120 O   0  0  0  0  0  0  0  0  0  0  0  0
  192.8860  175.4790  136.3250 C   0  0  0  0  0  0  0  0  0  0  0  0
  194.2850  177.3050  135.8220 O   0  0  0  0  0  0  0  0  0  0  0  0
  195.4290  175.5220  136.7510 N   0  0  0  0  0  2  0  0  0  0  0  0
  194.2110  176.1370  136.2900 C   0  0  0  0  0  0  0  0  0  0  0  0
  195.3720  174.0960  138.7660 C   0  0  0  0  0  1  0  0  0  0  0  0
  197.0180  173.6380  136.9110 C   0  0  0  0  0  1  0  0  0  0  0  0
  195.6420  174.1730  137.2730 C   0  0  0  0  0  3  0  0  0  0  0  0
  192.0870  175.7660  138.6860 C   0  0  0  0  0  2  0  0  0  0  0  0
  192.5820  176.9970  139.3750 C   0  0  0  0  0  0  0  0  0  0  0  0
  191.8460  177.5830  140.4500 N   0  0  0  0  0  2  0  0  0  0  0  0
  193.6560  177.5350  138.9950 O   0  0  0  0  0  0  0  0  0  0  0  0
  190.6430  176.9800  141.0020 C   0  0  0  0  0  2  0  0  0  0  0  0
  188.2180  178.4720  141.9660 F   0  0  0  0  0  0  0  0  0  0  0  0
  188.1740  177.2820  142.6780 C   0  0  2  0  0  3  0  0  0  0  0  0
  189.5230  177.2090  144.7380 C   0  0  0  0  0  2  0  0  0  0  0  0
  190.8220  176.7450  142.4910 C   0  0  2  0  0  3  0  0  0  0  0  0
  187.2790  177.4400  143.8240 N   0  0  0  0  0  2  0  0  0  0  0  0
  189.9620  175.5720  142.9390 C   0  0  0  0  0  2  0  0  0  0  0  0
  189.5280  176.9880  143.2640 C   0  0  2  0  0  0  0  0  0  0  0  0
  188.1140  177.7360  144.9930 C   0  0  0  0  0  2  0  0  0  0  0  0
  1  9  2  0  0  0  0
  1 10  1  0  0  0  0
  2  7  1  0  0  0  0
  3 10  1  0  0  0  0
  4  1  1  0  0  0  0
  5 11  1  0  0  0  0
  6 38  1  0  0  0  0
  6  7  2  0  0  0  0
  8  5  1  0  0  0  0
  8  3  1  0  0  0  0
  9  6  1  0  0  0  0
 10  2  2  0  0  0  0
 11  4  1  1  0  0  0
 11 22  1  0  0  0  0
 12 14  1  0  0  0  0
 12 23  1  0  0  0  0
 13 17  1  0  0  0  0
 14 24  2  0  0  0  0
 15 20  1  0  0  0  0
 17 25  2  0  0  0  0
 19 23  1  0  0  0  0
 19 16  1  0  0  0  0
 20 18  1  6  0  0  0
 20 21  1  0  0  0  0
 21 26  1  6  0  0  0
 22 15  1  6  0  0  0
 22 14  1  0  0  0  0
 23 13  2  0  0  0  0
 24 21  1  0  0  0  0
 24 17  1  0  0  0  0
 27 28  1  0  0  0  0
 27 26  1  0  0  0  0
 29 28  1  0  0  0  0
 30 32  1  0  0  0  0
 32 29  1  0  0  0  0
 32 31  2  0  0  0  0
 34 37  1  0  0  0  0
 34 35  1  0  0  0  0
 35 33  1  0  0  0  0
 36 30  1  0  0  0  0
 36 33  1  0  0  0  0
 37 36  1  0  0  0  0
 38 47  1  1  0  0  0
 39 40  2  0  0  0  0
 40 38  1  0  0  0  0
 41 43  2  0  0  0  0
 42 46  1  0  0  0  0
 43 40  1  0  0  0  0
 43 42  1  0  0  0  0
 45 46  1  0  0  0  0
 46 44  1  0  0  0  0
 47 48  1  0  0  0  0
 48 49  1  0  0  0  0
 49 51  1  0  0  0  0
 50 48  2  0  0  0  0
 53 52  1  1  0  0  0
 53 58  1  0  0  0  0
 53 56  1  0  0  0  0
 54 59  1  0  0  0  0
 55 51  1  6  0  0  0
 55 57  1  0  0  0  0
 55 58  1  0  0  0  0
 56 59  1  0  0  0  0
 58 57  1  1  0  0  0
 58 54  1  0  0  0  0
M  END
>  <MODEL>
4

>  <REMARK>
 VINA RESULT:      -5.9      3.266      9.111
  Name = 
  15 active torsions:
  status: ('A' for Active; 'I' for Inactive)
    1  A    between atoms: C_6  and  C_34
    2  A    between atoms: C_12  and  C_18
    3  A    between atoms: C_12  and  C_32
    4  A    between atoms: C_18  and  C_57
    5  A    between atoms: O_21  and  C_32
    6  A    between atoms: O_21  and  C_39
    7  A    between atoms: N_24  and  C_28
    8  A    between atoms: N_26  and  N_29
    9  A    between atoms: N_27  and  C_40
   10  A    between atoms: C_34  and  C_47
   11  A    between atoms: C_35  and  C_47
   12  A    between atoms: C_40  and  C_43
   13  A    between atoms: C_45  and  C_49
   14  A    between atoms: C_47  and  C_49
   15  A    between atoms: C_51  and  C_56
                            x       y       z     vdW  Elec       q    Type
                         _______ _______ _______ _____ _____    ______ ____

>  <TORSDO>
F 15

$$$$
=
 OpenBabel11062418143D

 59 65  0  0  1  0  0  0  0  0999 V2000
  188.1890  176.1710  135.6410 C   0  0  0  0  0  0  0  0  0  0  0  0
  188.5780  173.9820  136.6210 C   0  0  0  0  0  3  0  0  0  0  0  0
  186.3070  174.4140  135.7400 C   0  0  0  0  0  2  0  0  0  0  0  0
  187.3320  177.2290  134.9930 C   0  0  0  0  0  2  0  0  0  0  0  0
  184.9860  176.2590  135.0650 C   0  0  0  0  0  2  0  0  0  0  0  0
  190.3390  175.6430  136.6550 C   0  0  0  0  0  0  0  0  0  0  0  0
  189.8760  174.3650  136.9690 C   0  0  0  0  0  3  0  0  0  0  0  0
  185.6960  175.0710  134.5950 N   0  0  0  0  0  2  0  0  0  0  0  0
  189.4970  176.5350  135.9810 C   0  0  0  0  0  3  0  0  0  0  0  0
  187.7260  174.8670  135.9520 C   0  0  0  0  0  0  0  0  0  0  0  0
  185.9250  177.3510  135.6080 C   0  0  1  0  0  3  0  0  0  0  0  0
  183.3770  176.8020  137.0600 C   0  0  0  0  0  2  0  0  0  0  0  0
  182.1030  176.8330  139.1530 N   0  0  0  0  0  0  0  0  0  0  0  0
  184.5820  177.2950  137.8340 C   0  0  0  0  0  0  0  0  0  0  0  0
  186.6730  178.5400  137.6640 N   0  0  0  0  0  2  0  0  0  0  0  0
  179.7470  175.7460  137.9400 C   0  0  0  0  0  1  0  0  0  0  0  0
  183.2240  177.3710  139.8550 C   0  0  0  0  0  0  0  0  0  0  0  0
  187.7160  177.1620  139.2660 O   0  0  0  0  0  1  0  0  0  0  0  0
  180.9880  176.0220  137.2320 N   0  0  0  0  0  2  0  0  0  0  0  0
  186.9520  178.3180  139.0820 C   0  0  2  0  0  3  0  0  0  0  0  0
  185.6520  178.2480  139.8970 C   0  0  2  0  0  3  0  0  0  0  0  0
  185.9330  177.3850  137.1540 C   0  0  2  0  0  3  0  0  0  0  0  0
  182.1420  176.5540  137.8840 C   0  0  0  0  0  0  0  0  0  0  0  0
  184.4940  177.6110  139.1450 C   0  0  0  0  0  0  0  0  0  0  0  0
  183.1220  177.6190  141.0850 O   0  0  0  0  0  0  0  0  0  0  0  0
  185.2980  179.5390  140.3020 O   0  0  0  0  0  0  0  0  0  0  0  0
  185.9110  179.7080  141.5490 C   0  0  0  0  0  2  0  0  0  0  0  0
  185.2650  178.7990  142.5820 C   0  0  0  0  0  2  0  0  0  0  0  0
  184.1740  179.5370  143.3250 C   0  0  0  0  0  2  0  0  0  0  0  0
  185.3910  179.0710  145.4850 N   0  0  0  0  0  2  0  0  0  0  0  0
  183.0700  178.8500  145.3210 O   0  0  0  0  0  0  0  0  0  0  0  0
  184.1640  179.1260  144.7550 C   0  0  0  0  0  0  0  0  0  0  0  0
  186.1740  177.4210  146.8960 C   0  0  0  0  0  2  0  0  0  0  0  0
  187.4700  178.9980  148.0990 C   0  0  0  0  0  2  0  0  0  0  0  0
  187.1700  177.5270  148.0250 C   0  0  0  0  0  2  0  0  0  0  0  0
  185.4320  178.6770  146.8310 N   0  0  0  0  0  0  0  0  0  0  0  0
  186.2340  179.6750  147.5350 C   0  0  0  0  0  2  0  0  0  0  0  0
  191.7330  176.0350  137.0560 C   0  0  2  0  0  3  0  0  0  0  0  0
  193.3150  176.0790  135.2700 O   0  0  0  0  0  0  0  0  0  0  0  0
  192.7740  175.3970  136.1770 C   0  0  0  0  0  0  0  0  0  0  0  0
  192.3320  173.0840  136.1320 O   0  0  0  0  0  0  0  0  0  0  0  0
  194.4310  173.5850  136.9660 N   0  0  0  0  0  2  0  0  0  0  0  0
  193.1620  173.9890  136.4170 C   0  0  0  0  0  0  0  0  0  0  0  0
  196.8020  174.1860  136.6240 C   0  0  0  0  0  1  0  0  0  0  0  0
  195.7790  174.2390  138.9290 C   0  0  0  0  0  1  0  0  0  0  0  0
  195.5390  174.4130  137.4390 C   0  0  0  0  0  3  0  0  0  0  0  0
  192.0100  175.7800  138.5360 C   0  0  0  0  0  2  0  0  0  0  0  0
  192.8990  176.8380  139.1060 C   0  0  0  0  0  0  0  0  0  0  0  0
  192.5700  177.4920  140.3320 N   0  0  0  0  0  2  0  0  0  0  0  0
  193.9470  177.1700  138.4890 O   0  0  0  0  0  0  0  0  0  0  0  0
  191.4240  177.1120  141.1450 C   0  0  0  0  0  2  0  0  0  0  0  0
  188.5530  177.4350  141.9760 F   0  0  0  0  0  0  0  0  0  0  0  0
  189.1130  176.7020  143.0110 C   0  0  2  0  0  3  0  0  0  0  0  0
  190.2540  178.0060  144.7630 C   0  0  0  0  0  2  0  0  0  0  0  0
  191.6610  177.5160  142.5880 C   0  0  2  0  0  3  0  0  0  0  0  0
  188.2370  176.7730  144.1800 N   0  0  0  0  0  2  0  0  0  0  0  0
  191.5200  176.3030  143.4970 C   0  0  0  0  0  2  0  0  0  0  0  0
  190.4090  177.3330  143.4420 C   0  0  2  0  0  0  0  0  0  0  0  0
  188.7690  177.8190  145.0610 C   0  0  0  0  0  2  0  0  0  0  0  0
  1 10  2  0  0  0  0
  1  9  1  0  0  0  0
  2  7  2  0  0  0  0
  3 10  1  0  0  0  0
  4  1  1  0  0  0  0
  5 11  1  0  0  0  0
  6  7  1  0  0  0  0
  6 38  1  0  0  0  0
  8  5  1  0  0  0  0
  8  3  1  0  0  0  0
  9  6  2  0  0  0  0
 10  2  1  0  0  0  0
 11  4  1  1  0  0  0
 11 22  1  0  0  0  0
 12 14  1  0  0  0  0
 12 23  1  0  0  0  0
 13 17  1  0  0  0  0
 14 24  2  0  0  0  0
 15 20  1  0  0  0  0
 17 25  2  0  0  0  0
 19 23  1  0  0  0  0
 19 16  1  0  0  0  0
 20 18  1  6  0  0  0
 20 21  1  0  0  0  0
 21 26  1  6  0  0  0
 22 15  1  6  0  0  0
 22 14  1  0  0  0  0
 23 13  2  0  0  0  0
 24 17  1  0  0  0  0
 24 21  1  0  0  0  0
 26 27  1  0  0  0  0
 27 28  1  0  0  0  0
 28 29  1  0  0  0  0
 29 32  1  0  0  0  0
 30 36  1  0  0  0  0
 32 31  2  0  0  0  0
 32 30  1  0  0  0  0
 33 35  1  0  0  0  0
 35 34  1  0  0  0  0
 36 33  1  0  0  0  0
 36 37  1  0  0  0  0
 37 34  1  0  0  0  0
 38 47  1  1  0  0  0
 39 40  2  0  0  0  0
 40 43  1  0  0  0  0
 40 38  1  0  0  0  0
 41 43  2  0  0  0  0
 42 46  1  0  0  0  0
 43 42  1  0  0  0  0
 44 46  1  0  0  0  0
 46 45  1  0  0  0  0
 47 48  1  0  0  0  0
 48 49  1  0  0  0  0
 49 51  1  0  0  0  0
 50 48  2  0  0  0  0
 53 52  1  6  0  0  0
 53 58  1  0  0  0  0
 53 56  1  0  0  0  0
 54 59  1  0  0  0  0
 55 51  1  6  0  0  0
 55 58  1  0  0  0  0
 55 57  1  0  0  0  0
 56 59  1  0  0  0  0
 58 57  1  1  0  0  0
 58 54  1  0  0  0  0
M  END
>  <MODEL>
5

>  <REMARK>
 VINA RESULT:      -5.9      2.244      9.364
  Name = 
  15 active torsions:
  status: ('A' for Active; 'I' for Inactive)
    1  A    between atoms: C_6  and  C_34
    2  A    between atoms: C_12  and  C_18
    3  A    between atoms: C_12  and  C_32
    4  A    between atoms: C_18  and  C_57
    5  A    between atoms: O_21  and  C_32
    6  A    between atoms: O_21  and  C_39
    7  A    between atoms: N_24  and  C_28
    8  A    between atoms: N_26  and  N_29
    9  A    between atoms: N_27  and  C_40
   10  A    between atoms: C_34  and  C_47
   11  A    between atoms: C_35  and  C_47
   12  A    between atoms: C_40  and  C_43
   13  A    between atoms: C_45  and  C_49
   14  A    between atoms: C_47  and  C_49
   15  A    between atoms: C_51  and  C_56
                            x       y       z     vdW  Elec       q    Type
                         _______ _______ _______ _____ _____    ______ ____

>  <TORSDO>
F 15

$$$$
=
 OpenBabel11062418143D

 59 65  0  0  1  0  0  0  0  0999 V2000
  189.7580  176.5670  140.9940 C   0  0  0  0  0  0  0  0  0  0  0  0
  190.4440  178.6500  139.9500 C   0  0  0  0  0  3  0  0  0  0  0  0
  191.2270  178.2600  142.2630 C   0  0  0  0  0  2  0  0  0  0  0  0
  189.6810  175.5900  142.1410 C   0  0  0  0  0  2  0  0  0  0  0  0
  190.7330  176.8350  144.0890 C   0  0  0  0  0  2  0  0  0  0  0  0
  188.9670  177.1430  138.7640 C   0  0  0  0  0  0  0  0  0  0  0  0
  189.6870  178.3370  138.8180 C   0  0  0  0  0  3  0  0  0  0  0  0
  191.7280  177.1550  143.0660 N   0  0  0  0  0  2  0  0  0  0  0  0
  189.0170  176.2580  139.8480 C   0  0  0  0  0  3  0  0  0  0  0  0
  190.4970  177.7760  141.0410 C   0  0  0  0  0  0  0  0  0  0  0  0
  189.4310  176.2560  143.5070 C   0  0  1  0  0  3  0  0  0  0  0  0
  188.2930  177.1970  146.0990 C   0  0  0  0  0  2  0  0  0  0  0  0
  186.5360  178.4030  147.3080 N   0  0  0  0  0  0  0  0  0  0  0  0
  187.6240  177.6040  144.8030 C   0  0  0  0  0  0  0  0  0  0  0  0
  187.2890  176.9860  142.4670 N   0  0  0  0  0  2  0  0  0  0  0  0
  187.7110  177.9030  149.8710 C   0  0  0  0  0  1  0  0  0  0  0  0
  185.8730  178.7140  146.0810 C   0  0  0  0  0  0  0  0  0  0  0  0
  187.2500  179.2440  141.7930 O   0  0  0  0  0  1  0  0  0  0  0  0
  188.2600  177.4380  148.6070 N   0  0  0  0  0  2  0  0  0  0  0  0
  186.4690  178.1750  142.2420 C   0  0  2  0  0  3  0  0  0  0  0  0
  185.6940  178.5600  143.5110 C   0  0  2  0  0  3  0  0  0  0  0  0
  188.2970  177.3070  143.4780 C   0  0  2  0  0  3  0  0  0  0  0  0
  187.6430  177.7240  147.3510 C   0  0  0  0  0  0  0  0  0  0  0  0
  186.4530  178.2780  144.7980 C   0  0  0  0  0  0  0  0  0  0  0  0
  184.8030  179.3770  146.1080 O   0  0  0  0  0  0  0  0  0  0  0  0
  184.4730  177.8780  143.5240 O   0  0  0  0  0  0  0  0  0  0  0  0
  183.6190  178.6520  142.7290 C   0  0  0  0  0  2  0  0  0  0  0  0
  182.5320  179.2840  143.5830 C   0  0  0  0  0  2  0  0  0  0  0  0
  181.1710  178.7700  143.1710 C   0  0  0  0  0  2  0  0  0  0  0  0
  180.6800  179.2890  140.7520 N   0  0  0  0  0  2  0  0  0  0  0  0
  179.9890  180.7150  142.4700 O   0  0  0  0  0  0  0  0  0  0  0  0
  180.5850  179.6570  142.1300 C   0  0  0  0  0  0  0  0  0  0  0  0
  181.2580  180.8800  139.1820 C   0  0  0  0  0  2  0  0  0  0  0  0
  180.5150  179.4810  137.4210 C   0  0  0  0  0  2  0  0  0  0  0  0
  181.1720  180.8070  137.6780 C   0  0  0  0  0  2  0  0  0  0  0  0
  180.1540  180.0990  139.7340 N   0  0  0  0  0  0  0  0  0  0  0  0
  179.7050  179.2000  138.6740 C   0  0  0  0  0  2  0  0  0  0  0  0
  188.1460  176.8380  137.5430 C   0  0  2  0  0  3  0  0  0  0  0  0
  186.7490  178.6300  138.2720 O   0  0  0  0  0  0  0  0  0  0  0  0
  186.8820  177.6510  137.4930 C   0  0  0  0  0  0  0  0  0  0  0  0
  186.1080  177.3980  135.2830 O   0  0  0  0  0  0  0  0  0  0  0  0
  184.5070  176.8660  136.8660 N   0  0  0  0  0  2  0  0  0  0  0  0
  185.8320  177.3020  136.5090 C   0  0  0  0  0  0  0  0  0  0  0  0
  182.6790  175.8310  138.1640 C   0  0  0  0  0  1  0  0  0  0  0  0
  183.6100  178.0810  138.8200 C   0  0  0  0  0  1  0  0  0  0  0  0
  183.9040  176.7300  138.1900 C   0  0  0  0  0  3  0  0  0  0  0  0
  187.8630  175.3450  137.3880 C   0  0  0  0  0  2  0  0  0  0  0  0
  188.6340  174.7700  136.2420 C   0  0  0  0  0  0  0  0  0  0  0  0
  188.6540  173.3610  136.0040 N   0  0  0  0  0  2  0  0  0  0  0  0
  189.2870  175.5350  135.4840 O   0  0  0  0  0  0  0  0  0  0  0  0
  187.8620  172.4200  136.7820 C   0  0  0  0  0  2  0  0  0  0  0  0
  185.3030  172.6280  138.3440 F   0  0  0  0  0  0  0  0  0  0  0  0
  184.9130  172.8980  137.0410 C   0  0  2  0  0  3  0  0  0  0  0  0
  184.4380  170.9350  135.6300 C   0  0  0  0  0  2  0  0  0  0  0  0
  186.9770  171.6050  135.8570 C   0  0  2  0  0  3  0  0  0  0  0  0
  183.4630  172.7470  136.9310 N   0  0  0  0  0  2  0  0  0  0  0  0
  186.1930  172.5310  134.9390 C   0  0  0  0  0  2  0  0  0  0  0  0
  185.4960  171.8690  136.1100 C   0  0  2  0  0  0  0  0  0  0  0  0
  183.2030  171.4070  136.3910 C   0  0  0  0  0  2  0  0  0  0  0  0
  1 10  1  0  0  0  0
  1  4  1  0  0  0  0
  2 10  2  0  0  0  0
  3  8  1  0  0  0  0
  6  7  2  0  0  0  0
  6  9  1  0  0  0  0
  7  2  1  0  0  0  0
  8  5  1  0  0  0  0
  9  1  2  0  0  0  0
 10  3  1  0  0  0  0
 11  4  1  6  0  0  0
 11  5  1  0  0  0  0
 12 23  1  0  0  0  0
 13 23  2  0  0  0  0
 14 12  1  0  0  0  0
 17 25  2  0  0  0  0
 17 13  1  0  0  0  0
 19 16  1  0  0  0  0
 20 18  1  1  0  0  0
 20 15  1  0  0  0  0
 20 21  1  0  0  0  0
 21 26  1  1  0  0  0
 21 24  1  0  0  0  0
 22 15  1  6  0  0  0
 22 11  1  0  0  0  0
 22 14  1  0  0  0  0
 23 19  1  0  0  0  0
 24 14  2  0  0  0  0
 24 17  1  0  0  0  0
 27 26  1  0  0  0  0
 27 28  1  0  0  0  0
 29 28  1  0  0  0  0
 30 32  1  0  0  0  0
 32 31  2  0  0  0  0
 32 29  1  0  0  0  0
 33 36  1  0  0  0  0
 34 35  1  0  0  0  0
 34 37  1  0  0  0  0
 35 33  1  0  0  0  0
 36 30  1  0  0  0  0
 37 36  1  0  0  0  0
 38 47  1  1  0  0  0
 38  6  1  0  0  0  0
 40 38  1  0  0  0  0
 40 39  2  0  0  0  0
 41 43  2  0  0  0  0
 42 46  1  0  0  0  0
 43 42  1  0  0  0  0
 43 40  1  0  0  0  0
 44 46  1  0  0  0  0
 46 45  1  0  0  0  0
 48 47  1  0  0  0  0
 49 48  1  0  0  0  0
 49 51  1  0  0  0  0
 50 48  2  0  0  0  0
 53 52  1  1  0  0  0
 54 58  1  0  0  0  0
 54 59  1  0  0  0  0
 55 58  1  0  0  0  0
 55 51  1  1  0  0  0
 56 53  1  0  0  0  0
 57 55  1  0  0  0  0
 58 57  1  6  0  0  0
 58 53  1  0  0  0  0
 59 56  1  0  0  0  0
M  END
>  <MODEL>
6

>  <REMARK>
 VINA RESULT:      -5.4      2.708      8.912
  Name = 
  15 active torsions:
  status: ('A' for Active; 'I' for Inactive)
    1  A    between atoms: C_6  and  C_34
    2  A    between atoms: C_12  and  C_18
    3  A    between atoms: C_12  and  C_32
    4  A    between atoms: C_18  and  C_57
    5  A    between atoms: O_21  and  C_32
    6  A    between atoms: O_21  and  C_39
    7  A    between atoms: N_24  and  C_28
    8  A    between atoms: N_26  and  N_29
    9  A    between atoms: N_27  and  C_40
   10  A    between atoms: C_34  and  C_47
   11  A    between atoms: C_35  and  C_47
   12  A    between atoms: C_40  and  C_43
   13  A    between atoms: C_45  and  C_49
   14  A    between atoms: C_47  and  C_49
   15  A    between atoms: C_51  and  C_56
                            x       y       z     vdW  Elec       q    Type
                         _______ _______ _______ _____ _____    ______ ____

>  <TORSDO>
F 15

$$$$
=
 OpenBabel11062418143D

 59 65  0  0  1  0  0  0  0  0999 V2000
  189.7620  176.5580  140.8800 C   0  0  0  0  0  0  0  0  0  0  0  0
  190.4020  178.6290  139.7830 C   0  0  0  0  0  3  0  0  0  0  0  0
  191.2580  178.2790  142.0780 C   0  0  0  0  0  2  0  0  0  0  0  0
  189.7260  175.5980  142.0430 C   0  0  0  0  0  2  0  0  0  0  0  0
  190.8290  176.8790  143.9390 C   0  0  0  0  0  2  0  0  0  0  0  0
  188.8990  177.0960  138.6670 C   0  0  0  0  0  0  0  0  0  0  0  0
  189.6130  178.2940  138.6810 C   0  0  0  0  0  3  0  0  0  0  0  0
  191.7900  177.1890  142.8810 N   0  0  0  0  0  2  0  0  0  0  0  0
  188.9880  176.2270  139.7620 C   0  0  0  0  0  3  0  0  0  0  0  0
  190.4940  177.7720  140.8860 C   0  0  0  0  0  0  0  0  0  0  0  0
  189.5140  176.2830  143.4060 C   0  0  1  0  0  3  0  0  0  0  0  0
  188.4300  177.2360  146.0170 C   0  0  0  0  0  2  0  0  0  0  0  0
  186.6940  178.4410  147.2580 N   0  0  0  0  0  0  0  0  0  0  0  0
  187.7280  177.6300  144.7340 C   0  0  0  0  0  0  0  0  0  0  0  0
  187.3440  176.9930  142.4110 N   0  0  0  0  0  2  0  0  0  0  0  0
  187.9310  177.9660  149.7970 C   0  0  0  0  0  1  0  0  0  0  0  0
  186.0000  178.7380  146.0450 C   0  0  0  0  0  0  0  0  0  0  0  0
  187.2750  179.2460  141.7220 O   0  0  0  0  0  1  0  0  0  0  0  0
  188.4540  177.4950  148.5230 N   0  0  0  0  0  2  0  0  0  0  0  0
  186.5110  178.1760  142.1960 C   0  0  2  0  0  3  0  0  0  0  0  0
  185.7640  178.5650  143.4810 C   0  0  2  0  0  3  0  0  0  0  0  0
  188.3720  177.3270  143.3960 C   0  0  2  0  0  3  0  0  0  0  0  0
  187.8060  177.7680  147.2800 C   0  0  0  0  0  0  0  0  0  0  0  0
  186.5530  178.2960  144.7510 C   0  0  0  0  0  0  0  0  0  0  0  0
  184.9270  179.3950  146.0920 O   0  0  0  0  0  0  0  0  0  0  0  0
  184.5470  177.8760  143.5260 O   0  0  0  0  0  0  0  0  0  0  0  0
  183.6750  178.6300  142.7320 C   0  0  0  0  0  2  0  0  0  0  0  0
  182.6130  179.2900  143.5970 C   0  0  0  0  0  2  0  0  0  0  0  0
  181.2490  178.7140  143.2900 C   0  0  0  0  0  2  0  0  0  0  0  0
  180.6600  178.8860  140.8440 N   0  0  0  0  0  2  0  0  0  0  0  0
  180.0570  180.5550  142.3630 O   0  0  0  0  0  0  0  0  0  0  0  0
  180.6280  179.4490  142.1560 C   0  0  0  0  0  0  0  0  0  0  0  0
  181.0460  180.5780  139.3220 C   0  0  0  0  0  2  0  0  0  0  0  0
  180.9140  179.0490  137.5160 C   0  0  0  0  0  2  0  0  0  0  0  0
  181.1880  180.4940  137.8220 C   0  0  0  0  0  2  0  0  0  0  0  0
  180.0990  179.5480  139.7410 N   0  0  0  0  0  0  0  0  0  0  0  0
  180.0320  178.5720  138.6560 C   0  0  0  0  0  2  0  0  0  0  0  0
  188.0430  176.7670  137.4760 C   0  0  2  0  0  3  0  0  0  0  0  0
  186.4010  178.1180  138.5580 O   0  0  0  0  0  0  0  0  0  0  0  0
  186.6710  177.3730  137.5820 C   0  0  0  0  0  0  0  0  0  0  0  0
  185.7940  177.7110  135.4220 O   0  0  0  0  0  0  0  0  0  0  0  0
  184.5680  176.1940  136.6660 N   0  0  0  0  0  2  0  0  0  0  0  0
  185.6740  177.1030  136.5200 C   0  0  0  0  0  0  0  0  0  0  0  0
  184.1930  173.9220  137.5600 C   0  0  0  0  0  1  0  0  0  0  0  0
  182.8100  175.8700  138.3700 C   0  0  0  0  0  1  0  0  0  0  0  0
  184.1580  175.4170  137.8340 C   0  0  0  0  0  3  0  0  0  0  0  0
  187.9780  175.2660  137.2000 C   0  0  0  0  0  2  0  0  0  0  0  0
  188.5480  174.9430  135.8560 C   0  0  0  0  0  0  0  0  0  0  0  0
  189.7890  174.2460  135.7330 N   0  0  0  0  0  2  0  0  0  0  0  0
  187.9340  175.3010  134.8160 O   0  0  0  0  0  0  0  0  0  0  0  0
  190.5180  173.7270  136.8800 C   0  0  0  0  0  2  0  0  0  0  0  0
  193.1460  172.2670  136.8170 F   0  0  0  0  0  0  0  0  0  0  0  0
  193.4540  173.5190  136.3040 C   0  0  2  0  0  3  0  0  0  0  0  0
  193.9380  175.2740  137.9640 C   0  0  0  0  0  2  0  0  0  0  0  0
  191.3880  174.8190  137.4750 C   0  0  2  0  0  3  0  0  0  0  0  0
  194.9020  173.7170  136.3600 N   0  0  0  0  0  2  0  0  0  0  0  0
  192.0820  175.5930  136.3630 C   0  0  0  0  0  2  0  0  0  0  0  0
  192.8680  174.5890  137.1840 C   0  0  2  0  0  0  0  0  0  0  0  0
  195.1900  174.4960  137.5690 C   0  0  0  0  0  2  0  0  0  0  0  0
  1 10  1  0  0  0  0
  1  4  1  0  0  0  0
  2 10  2  0  0  0  0
  3  8  1  0  0  0  0
  6  7  2  0  0  0  0
  6  9  1  0  0  0  0
  7  2  1  0  0  0  0
  8  5  1  0  0  0  0
  9  1  2  0  0  0  0
 10  3  1  0  0  0  0
 11  4  1  6  0  0  0
 11  5  1  0  0  0  0
 12 23  1  0  0  0  0
 13 23  2  0  0  0  0
 14 24  2  0  0  0  0
 14 12  1  0  0  0  0
 17 25  2  0  0  0  0
 17 13  1  0  0  0  0
 19 16  1  0  0  0  0
 20 18  1  1  0  0  0
 20 15  1  0  0  0  0
 20 21  1  0  0  0  0
 21 26  1  1  0  0  0
 21 24  1  0  0  0  0
 22 15  1  6  0  0  0
 22 11  1  0  0  0  0
 22 14  1  0  0  0  0
 23 19  1  0  0  0  0
 24 17  1  0  0  0  0
 27 26  1  0  0  0  0
 27 28  1  0  0  0  0
 29 28  1  0  0  0  0
 30 32  1  0  0  0  0
 32 31  2  0  0  0  0
 32 29  1  0  0  0  0
 33 36  1  0  0  0  0
 34 35  1  0  0  0  0
 34 37  1  0  0  0  0
 35 33  1  0  0  0  0
 36 30  1  0  0  0  0
 37 36  1  0  0  0  0
 38 47  1  1  0  0  0
 38 40  1  0  0  0  0
 38  6  1  0  0  0  0
 40 39  2  0  0  0  0
 41 43  2  0  0  0  0
 42 46  1  0  0  0  0
 43 42  1  0  0  0  0
 43 40  1  0  0  0  0
 44 46  1  0  0  0  0
 46 45  1  0  0  0  0
 48 47  1  0  0  0  0
 49 48  1  0  0  0  0
 49 51  1  0  0  0  0
 50 48  2  0  0  0  0
 53 56  1  0  0  0  0
 53 52  1  1  0  0  0
 53 58  1  0  0  0  0
 55 51  1  6  0  0  0
 56 59  1  0  0  0  0
 57 55  1  0  0  0  0
 58 57  1  6  0  0  0
 58 55  1  0  0  0  0
 58 54  1  0  0  0  0
 59 54  1  0  0  0  0
M  END
>  <MODEL>
7

>  <REMARK>
 VINA RESULT:      -5.3      2.736      8.591
  Name = 
  15 active torsions:
  status: ('A' for Active; 'I' for Inactive)
    1  A    between atoms: C_6  and  C_34
    2  A    between atoms: C_12  and  C_18
    3  A    between atoms: C_12  and  C_32
    4  A    between atoms: C_18  and  C_57
    5  A    between atoms: O_21  and  C_32
    6  A    between atoms: O_21  and  C_39
    7  A    between atoms: N_24  and  C_28
    8  A    between atoms: N_26  and  N_29
    9  A    between atoms: N_27  and  C_40
   10  A    between atoms: C_34  and  C_47
   11  A    between atoms: C_35  and  C_47
   12  A    between atoms: C_40  and  C_43
   13  A    between atoms: C_45  and  C_49
   14  A    between atoms: C_47  and  C_49
   15  A    between atoms: C_51  and  C_56
                            x       y       z     vdW  Elec       q    Type
                         _______ _______ _______ _____ _____    ______ ____

>  <TORSDO>
F 15

$$$$
=
 OpenBabel11062418143D

 59 65  0  0  1  0  0  0  0  0999 V2000
  189.8290  176.5610  140.7870 C   0  0  0  0  0  0  0  0  0  0  0  0
  190.4700  178.6090  139.6460 C   0  0  0  0  0  3  0  0  0  0  0  0
  191.3140  178.3140  141.9520 C   0  0  0  0  0  2  0  0  0  0  0  0
  189.7910  175.6290  141.9710 C   0  0  0  0  0  2  0  0  0  0  0  0
  190.8790  176.9560  143.8430 C   0  0  0  0  0  2  0  0  0  0  0  0
  188.9770  177.0450  138.5570 C   0  0  0  0  0  0  0  0  0  0  0  0
  189.6870  178.2460  138.5470 C   0  0  0  0  0  3  0  0  0  0  0  0
  191.8450  177.2450  142.7830 N   0  0  0  0  0  2  0  0  0  0  0  0
  189.0630  176.2020  139.6720 C   0  0  0  0  0  3  0  0  0  0  0  0
  190.5580  177.7780  140.7680 C   0  0  0  0  0  0  0  0  0  0  0  0
  189.5690  176.3440  143.3170 C   0  0  1  0  0  3  0  0  0  0  0  0
  188.3600  177.2350  145.8950 C   0  0  0  0  0  2  0  0  0  0  0  0
  186.5630  178.4050  147.0800 N   0  0  0  0  0  0  0  0  0  0  0  0
  187.7170  177.6540  144.5900 C   0  0  0  0  0  0  0  0  0  0  0  0
  187.4440  177.0680  142.2380 N   0  0  0  0  0  2  0  0  0  0  0  0
  187.6830  177.8790  149.6630 C   0  0  0  0  0  1  0  0  0  0  0  0
  185.9250  178.7270  145.8430 C   0  0  0  0  0  0  0  0  0  0  0  0
  187.3970  179.3350  141.5960 O   0  0  0  0  0  1  0  0  0  0  0  0
  188.2660  177.4380  148.4050 N   0  0  0  0  0  2  0  0  0  0  0  0
  186.6170  178.2520  142.0110 C   0  0  2  0  0  3  0  0  0  0  0  0
  185.8090  178.6100  143.2670 C   0  0  2  0  0  3  0  0  0  0  0  0
  188.4240  177.3840  143.2770 C   0  0  2  0  0  3  0  0  0  0  0  0
  187.6760  177.7360  147.1390 C   0  0  0  0  0  0  0  0  0  0  0  0
  186.5400  178.3160  144.5670 C   0  0  0  0  0  0  0  0  0  0  0  0
  184.8480  179.3790  145.8540 O   0  0  0  0  0  0  0  0  0  0  0  0
  184.5950  177.9150  143.2410 O   0  0  0  0  0  0  0  0  0  0  0  0
  183.7190  178.7450  142.5310 C   0  0  0  0  0  2  0  0  0  0  0  0
  183.2400  178.0490  141.2680 C   0  0  0  0  0  2  0  0  0  0  0  0
  183.4650  178.9310  140.0610 C   0  0  0  0  0  2  0  0  0  0  0  0
  182.1450  180.3820  138.4750 N   0  0  0  0  0  2  0  0  0  0  0  0
  181.0880  179.0730  140.0960 O   0  0  0  0  0  0  0  0  0  0  0  0
  182.1650  179.4590  139.5660 C   0  0  0  0  0  0  0  0  0  0  0  0
  181.1250  182.3610  137.8670 C   0  0  0  0  0  2  0  0  0  0  0  0
  180.8060  181.5740  135.6560 C   0  0  0  0  0  2  0  0  0  0  0  0
  180.6050  182.7890  136.5170 C   0  0  0  0  0  2  0  0  0  0  0  0
  180.9450  180.9170  137.9820 N   0  0  0  0  0  0  0  0  0  0  0  0
  180.7860  180.4040  136.6230 C   0  0  0  0  0  2  0  0  0  0  0  0
  188.1290  176.6860  137.3700 C   0  0  2  0  0  3  0  0  0  0  0  0
  186.5550  178.2310  138.2800 O   0  0  0  0  0  0  0  0  0  0  0  0
  186.8780  177.5180  137.2960 C   0  0  0  0  0  0  0  0  0  0  0  0
  186.6030  177.9060  134.9900 O   0  0  0  0  0  0  0  0  0  0  0  0
  184.6980  177.0630  135.9960 N   0  0  0  0  0  2  0  0  0  0  0  0
  186.0670  177.5030  136.0570 C   0  0  0  0  0  0  0  0  0  0  0  0
  184.0000  175.1310  137.3670 C   0  0  0  0  0  1  0  0  0  0  0  0
  182.3700  176.9750  136.8160 C   0  0  0  0  0  1  0  0  0  0  0  0
  183.8230  176.6120  137.0760 C   0  0  0  0  0  3  0  0  0  0  0  0
  187.8180  175.1920  137.3040 C   0  0  0  0  0  2  0  0  0  0  0  0
  188.1820  174.6270  135.9690 C   0  0  0  0  0  0  0  0  0  0  0  0
  189.4860  174.0940  135.7270 N   0  0  0  0  0  2  0  0  0  0  0  0
  187.3340  174.6320  135.0370 O   0  0  0  0  0  0  0  0  0  0  0  0
  190.4940  173.9760  136.7700 C   0  0  0  0  0  2  0  0  0  0  0  0
  191.6300  176.7500  136.5440 F   0  0  0  0  0  0  0  0  0  0  0  0
  192.6730  176.0120  137.0840 C   0  0  2  0  0  3  0  0  0  0  0  0
  194.0840  174.7990  135.4690 C   0  0  0  0  0  2  0  0  0  0  0  0
  191.8320  173.6120  136.1530 C   0  0  2  0  0  3  0  0  0  0  0  0
  193.9240  176.7510  136.9150 N   0  0  0  0  0  2  0  0  0  0  0  0
  192.9000  173.5390  137.2350 C   0  0  0  0  0  2  0  0  0  0  0  0
  192.8520  174.7360  136.3070 C   0  0  2  0  0  0  0  0  0  0  0  0
  194.5890  176.2160  135.7210 C   0  0  0  0  0  2  0  0  0  0  0  0
  1  4  1  0  0  0  0
  2 10  2  0  0  0  0
  3  8  1  0  0  0  0
  6  9  1  0  0  0  0
  7  6  2  0  0  0  0
  7  2  1  0  0  0  0
  8  5  1  0  0  0  0
  9  1  2  0  0  0  0
 10  1  1  0  0  0  0
 10  3  1  0  0  0  0
 11  4  1  6  0  0  0
 11  5  1  0  0  0  0
 12 23  1  0  0  0  0
 13 23  2  0  0  0  0
 14 12  1  0  0  0  0
 17 25  2  0  0  0  0
 17 13  1  0  0  0  0
 19 16  1  0  0  0  0
 20 18  1  1  0  0  0
 20 15  1  0  0  0  0
 20 21  1  0  0  0  0
 21 26  1  1  0  0  0
 21 24  1  0  0  0  0
 22 15  1  6  0  0  0
 22 11  1  0  0  0  0
 22 14  1  0  0  0  0
 23 19  1  0  0  0  0
 24 14  2  0  0  0  0
 24 17  1  0  0  0  0
 27 26  1  0  0  0  0
 28 27  1  0  0  0  0
 29 28  1  0  0  0  0
 30 32  1  0  0  0  0
 32 29  1  0  0  0  0
 32 31  2  0  0  0  0
 33 36  1  0  0  0  0
 34 35  1  0  0  0  0
 34 37  1  0  0  0  0
 35 33  1  0  0  0  0
 36 30  1  0  0  0  0
 37 36  1  0  0  0  0
 38 47  1  1  0  0  0
 38  6  1  0  0  0  0
 40 38  1  0  0  0  0
 40 39  2  0  0  0  0
 41 43  2  0  0  0  0
 42 43  1  0  0  0  0
 42 46  1  0  0  0  0
 43 40  1  0  0  0  0
 45 46  1  0  0  0  0
 46 44  1  0  0  0  0
 48 47  1  0  0  0  0
 49 48  1  0  0  0  0
 49 51  1  0  0  0  0
 50 48  2  0  0  0  0
 53 52  1  6  0  0  0
 54 59  1  0  0  0  0
 55 58  1  0  0  0  0
 55 51  1  1  0  0  0
 55 57  1  0  0  0  0
 56 53  1  0  0  0  0
 58 54  1  6  0  0  0
 58 53  1  0  0  0  0
 58 57  1  0  0  0  0
 59 56  1  0  0  0  0
M  END
>  <MODEL>
8

>  <REMARK>
 VINA RESULT:      -5.3      2.795      8.505
  Name = 
  15 active torsions:
  status: ('A' for Active; 'I' for Inactive)
    1  A    between atoms: C_6  and  C_34
    2  A    between atoms: C_12  and  C_18
    3  A    between atoms: C_12  and  C_32
    4  A    between atoms: C_18  and  C_57
    5  A    between atoms: O_21  and  C_32
    6  A    between atoms: O_21  and  C_39
    7  A    between atoms: N_24  and  C_28
    8  A    between atoms: N_26  and  N_29
    9  A    between atoms: N_27  and  C_40
   10  A    between atoms: C_34  and  C_47
   11  A    between atoms: C_35  and  C_47
   12  A    between atoms: C_40  and  C_43
   13  A    between atoms: C_45  and  C_49
   14  A    between atoms: C_47  and  C_49
   15  A    between atoms: C_51  and  C_56
                            x       y       z     vdW  Elec       q    Type
                         _______ _______ _______ _____ _____    ______ ____

>  <TORSDO>
F 15

$$$$
=
 OpenBabel11062418143D

 59 65  0  0  1  0  0  0  0  0999 V2000
  189.8020  176.5750  140.9420 C   0  0  0  0  0  0  0  0  0  0  0  0
  190.5270  178.6270  139.8630 C   0  0  0  0  0  3  0  0  0  0  0  0
  191.3000  178.2620  142.1840 C   0  0  0  0  0  2  0  0  0  0  0  0
  189.7060  175.6190  142.1050 C   0  0  0  0  0  2  0  0  0  0  0  0
  190.7770  176.8780  144.0330 C   0  0  0  0  0  2  0  0  0  0  0  0
  189.0240  177.1270  138.7010 C   0  0  0  0  0  0  0  0  0  0  0  0
  189.7660  178.3080  138.7360 C   0  0  0  0  0  3  0  0  0  0  0  0
  191.7790  177.1620  143.0060 N   0  0  0  0  0  2  0  0  0  0  0  0
  189.0570  176.2600  139.8000 C   0  0  0  0  0  3  0  0  0  0  0  0
  190.5630  177.7710  140.9690 C   0  0  0  0  0  0  0  0  0  0  0  0
  189.4660  176.3130  143.4590 C   0  0  1  0  0  3  0  0  0  0  0  0
  188.2550  177.2280  146.0270 C   0  0  0  0  0  2  0  0  0  0  0  0
  186.4780  178.4440  147.1970 N   0  0  0  0  0  0  0  0  0  0  0  0
  187.6380  177.6690  144.7160 C   0  0  0  0  0  0  0  0  0  0  0  0
  187.3740  177.0980  142.3600 N   0  0  0  0  0  2  0  0  0  0  0  0
  187.5550  177.8790  149.7890 C   0  0  0  0  0  1  0  0  0  0  0  0
  185.8630  178.7870  145.9540 C   0  0  0  0  0  0  0  0  0  0  0  0
  187.3960  179.3670  141.7260 O   0  0  0  0  0  1  0  0  0  0  0  0
  188.1400  177.4260  148.5360 N   0  0  0  0  0  2  0  0  0  0  0  0
  186.5810  178.3050  142.1280 C   0  0  2  0  0  3  0  0  0  0  0  0
  185.7700  178.6810  143.3770 C   0  0  2  0  0  3  0  0  0  0  0  0
  188.3510  177.3840  143.4100 C   0  0  2  0  0  3  0  0  0  0  0  0
  187.5710  177.7440  147.2650 C   0  0  0  0  0  0  0  0  0  0  0  0
  186.4790  178.3630  144.6840 C   0  0  0  0  0  0  0  0  0  0  0  0
  184.8040  179.4680  145.9560 O   0  0  0  0  0  0  0  0  0  0  0  0
  184.5380  178.0200  143.3360 O   0  0  0  0  0  0  0  0  0  0  0  0
  183.6130  179.0050  142.9680 C   0  0  0  0  0  2  0  0  0  0  0  0
  182.6420  178.4560  141.9350 C   0  0  0  0  0  2  0  0  0  0  0  0
  181.2520  178.9990  142.1770 C   0  0  0  0  0  2  0  0  0  0  0  0
  180.3660  177.4740  140.3740 N   0  0  0  0  0  2  0  0  0  0  0  0
  179.2730  177.6970  142.4280 O   0  0  0  0  0  0  0  0  0  0  0  0
  180.2340  178.0330  141.6820 C   0  0  0  0  0  0  0  0  0  0  0  0
  179.4850  176.6570  138.4030 C   0  0  0  0  0  2  0  0  0  0  0  0
  180.1830  174.4590  138.9460 C   0  0  0  0  0  2  0  0  0  0  0  0
  179.5220  175.2510  137.8540 C   0  0  0  0  0  2  0  0  0  0  0  0
  179.4240  176.5690  139.8600 N   0  0  0  0  0  0  0  0  0  0  0  0
  179.8900  175.2310  140.2190 C   0  0  0  0  0  2  0  0  0  0  0  0
  188.2000  176.8160  137.4840 C   0  0  2  0  0  3  0  0  0  0  0  0
  186.5170  178.1190  138.5620 O   0  0  0  0  0  0  0  0  0  0  0  0
  186.8300  177.4330  137.5560 C   0  0  0  0  0  0  0  0  0  0  0  0
  186.1070  177.8780  135.3580 O   0  0  0  0  0  0  0  0  0  0  0  0
  184.7320  176.3910  136.4770 N   0  0  0  0  0  2  0  0  0  0  0  0
  185.8900  177.2470  136.4270 C   0  0  0  0  0  0  0  0  0  0  0  0
  183.5470  174.3220  137.1190 C   0  0  0  0  0  1  0  0  0  0  0  0
  183.3000  176.4260  138.4880 C   0  0  0  0  0  1  0  0  0  0  0  0
  184.2120  175.6040  137.5930 C   0  0  0  0  0  3  0  0  0  0  0  0
  188.1300  175.3180  137.1940 C   0  0  0  0  0  2  0  0  0  0  0  0
  188.8020  174.9900  135.8990 C   0  0  0  0  0  0  0  0  0  0  0  0
  190.0610  174.3160  135.8750 N   0  0  0  0  0  2  0  0  0  0  0  0
  188.2580  175.3250  134.8120 O   0  0  0  0  0  0  0  0  0  0  0  0
  190.7140  173.8240  137.0780 C   0  0  0  0  0  2  0  0  0  0  0  0
  193.2880  172.2920  136.8280 F   0  0  0  0  0  0  0  0  0  0  0  0
  193.5980  173.5400  136.3090 C   0  0  2  0  0  3  0  0  0  0  0  0
  194.2400  175.2610  137.9510 C   0  0  0  0  0  2  0  0  0  0  0  0
  191.6510  174.8850  137.6260 C   0  0  2  0  0  3  0  0  0  0  0  0
  195.0520  173.6970  136.2710 N   0  0  0  0  0  2  0  0  0  0  0  0
  192.2940  175.6520  136.4790 C   0  0  0  0  0  2  0  0  0  0  0  0
  193.1020  174.6160  137.2360 C   0  0  2  0  0  0  0  0  0  0  0  0
  195.4410  174.4530  137.4670 C   0  0  0  0  0  2  0  0  0  0  0  0
  1 10  1  0  0  0  0
  1  4  1  0  0  0  0
  2 10  2  0  0  0  0
  3  8  1  0  0  0  0
  6  7  2  0  0  0  0
  6  9  1  0  0  0  0
  7  2  1  0  0  0  0
  8  5  1  0  0  0  0
  9  1  2  0  0  0  0
 10  3  1  0  0  0  0
 11  4  1  6  0  0  0
 11  5  1  0  0  0  0
 12 23  1  0  0  0  0
 13 23  2  0  0  0  0
 14 12  1  0  0  0  0
 17 25  2  0  0  0  0
 17 13  1  0  0  0  0
 19 16  1  0  0  0  0
 20 18  1  1  0  0  0
 20 15  1  0  0  0  0
 20 21  1  0  0  0  0
 21 26  1  1  0  0  0
 21 24  1  0  0  0  0
 22 15  1  6  0  0  0
 22 11  1  0  0  0  0
 22 14  1  0  0  0  0
 23 19  1  0  0  0  0
 24 14  2  0  0  0  0
 24 17  1  0  0  0  0
 27 26  1  0  0  0  0
 28 29  1  0  0  0  0
 28 27  1  0  0  0  0
 30 32  1  0  0  0  0
 32 29  1  0  0  0  0
 32 31  2  0  0  0  0
 33 36  1  0  0  0  0
 34 37  1  0  0  0  0
 35 33  1  0  0  0  0
 35 34  1  0  0  0  0
 36 37  1  0  0  0  0
 36 30  1  0  0  0  0
 38 47  1  1  0  0  0
 38 40  1  0  0  0  0
 38  6  1  0  0  0  0
 40 39  2  0  0  0  0
 41 43  2  0  0  0  0
 42 46  1  0  0  0  0
 43 42  1  0  0  0  0
 43 40  1  0  0  0  0
 44 46  1  0  0  0  0
 46 45  1  0  0  0  0
 48 47  1  0  0  0  0
 49 48  1  0  0  0  0
 49 51  1  0  0  0  0
 50 48  2  0  0  0  0
 53 52  1  1  0  0  0
 53 58  1  0  0  0  0
 55 51  1  6  0  0  0
 56 53  1  0  0  0  0
 56 59  1  0  0  0  0
 57 55  1  0  0  0  0
 58 57  1  6  0  0  0
 58 55  1  0  0  0  0
 58 54  1  0  0  0  0
 59 54  1  0  0  0  0
M  END
>  <MODEL>
9

>  <REMARK>
 VINA RESULT:      -5.1      2.790      8.398
  Name = 
  15 active torsions:
  status: ('A' for Active; 'I' for Inactive)
    1  A    between atoms: C_6  and  C_34
    2  A    between atoms: C_12  and  C_18
    3  A    between atoms: C_12  and  C_32
    4  A    between atoms: C_18  and  C_57
    5  A    between atoms: O_21  and  C_32
    6  A    between atoms: O_21  and  C_39
    7  A    between atoms: N_24  and  C_28
    8  A    between atoms: N_26  and  N_29
    9  A    between atoms: N_27  and  C_40
   10  A    between atoms: C_34  and  C_47
   11  A    between atoms: C_35  and  C_47
   12  A    between atoms: C_40  and  C_43
   13  A    between atoms: C_45  and  C_49
   14  A    between atoms: C_47  and  C_49
   15  A    between atoms: C_51  and  C_56
                            x       y       z     vdW  Elec       q    Type
                         _______ _______ _______ _____ _____    ______ ____

>  <TORSDO>
F 15

$$$$
