=
 OpenBabel11062417153D

 26 28  0  0  1  0  0  0  0  0999 V2000
  188.9010  177.2090  141.6920 C   0  0  1  0  0  3  0  0  0  0  0  0
  189.0300  176.5060  143.8620 C   0  0  0  0  0  2  0  0  0  0  0  0
  189.7460  176.3180  142.5670 C   0  0  2  0  0  3  0  0  0  0  0  0
  188.3170  177.7810  143.7690 N   0  0  1  0  0  0  0  0  0  0  0  0
  188.4480  178.2690  142.4940 O   0  0  0  0  0  0  0  0  0  0  0  0
  186.0880  178.2930  143.1320 O   0  0  0  0  0  0  0  0  0  0  0  0
  185.2310  178.5100  145.2390 C   0  0  0  0  0  0  0  0  0  0  0  0
  184.4320  178.8740  146.1420 O   0  0  0  0  0  0  0  0  0  0  0  0
  186.5360  177.9170  145.4710 C   0  0  0  0  0  2  0  0  0  0  0  0
  186.8960  177.5350  144.0260 C   0  0  2  0  0  3  0  0  0  0  0  0
  184.9830  178.6160  143.8550 N   0  0  0  0  0  0  0  0  0  0  0  0
  181.2730  178.9800  143.3960 C   0  0  0  0  0  3  0  0  0  0  0  0
  182.3070  178.6040  141.2410 C   0  0  0  0  0  3  0  0  0  0  0  0
  181.1630  178.8270  142.0110 C   0  0  0  0  0  3  0  0  0  0  0  0
  183.5610  178.5350  141.8540 C   0  0  0  0  0  3  0  0  0  0  0  0
  182.5270  178.9100  144.0080 C   0  0  0  0  0  3  0  0  0  0  0  0
  183.6830  178.6850  143.2430 C   0  0  0  0  0  0  0  0  0  0  0  0
  191.6550  176.6600  144.1420 C   0  0  0  0  0  1  0  0  0  0  0  0
  191.1760  176.8370  142.7140 C   0  0  0  0  0  2  0  0  0  0  0  0
  189.5920  177.7160  140.4180 C   0  0  2  0  0  3  0  0  0  0  0  0
  188.6390  178.4900  139.5610 C   0  0  0  0  0  0  0  0  0  0  0  0
  189.0610  179.2060  138.6140 O   0  0  0  0  0  0  0  0  0  0  0  0
  187.2760  178.4210  139.8160 O   0  0  0  0  0  1  0  0  0  0  0  0
  190.1850  176.5540  139.6280 C   0  0  0  0  0  2  0  0  0  0  0  0
  191.4580  176.8880  139.1670 O   0  0  0  0  0  0  0  0  0  0  0  0
  191.4410  176.5450  137.8150 C   0  0  0  0  0  1  0  0  0  0  0  0
  1 20  1  6  0  0  0
  1  5  1  0  0  0  0
  1  3  1  0  0  0  0
  3 19  1  1  0  0  0
  3  2  1  0  0  0  0
  4  2  1  6  0  0  0
  4 10  1  0  0  0  0
  5  4  1  0  0  0  0
  6 11  1  0  0  0  0
  6 10  1  0  0  0  0
  7  9  1  0  0  0  0
  7  8  2  0  0  0  0
 10  9  1  1  0  0  0
 11  7  1  0  0  0  0
 12 16  1  0  0  0  0
 13 15  2  0  0  0  0
 13 14  1  0  0  0  0
 14 12  2  0  0  0  0
 15 17  1  0  0  0  0
 17 11  1  0  0  0  0
 17 16  2  0  0  0  0
 19 18  1  0  0  0  0
 20 24  1  6  0  0  0
 21 23  1  0  0  0  0
 21 20  1  0  0  0  0
 22 21  2  0  0  0  0
 25 24  1  0  0  0  0
 26 25  1  0  0  0  0
M  END
>  <MODEL>
1

>  <REMARK>
 VINA RESULT:      -7.9      0.000      0.000
  Name = 
  7 active torsions:
  status: ('A' for Active; 'I' for Inactive)
    1  A    between atoms: O_3  and  C_9
    2  A    between atoms: C_4  and  C_26
    3  A    between atoms: C_9  and  C_26
    4  A    between atoms: C_12  and  C_25
    5  A    between atoms: N_13  and  C_20
    6  A    between atoms: C_15  and  C_26
    7  A    between atoms: N_22  and  C_24
                            x       y       z     vdW  Elec       q    Type
                         _______ _______ _______ _____ _____    ______ ____

>  <TORSDO>
F 7

$$$$
=
 OpenBabel11062417153D

 26 28  0  0  1  0  0  0  0  0999 V2000
  188.7340  177.5110  145.3960 C   0  0  1  0  0  3  0  0  0  0  0  0
  186.9320  177.4430  146.7980 C   0  0  0  0  0  2  0  0  0  0  0  0
  188.3790  177.0800  146.7970 C   0  0  2  0  0  3  0  0  0  0  0  0
  186.7530  178.4680  145.7700 N   0  0  1  0  0  0  0  0  0  0  0  0
  187.9330  178.6230  145.0880 O   0  0  0  0  0  0  0  0  0  0  0  0
  186.0020  178.4930  143.5180 O   0  0  0  0  0  0  0  0  0  0  0  0
  183.7810  178.7980  143.9600 C   0  0  0  0  0  0  0  0  0  0  0  0
  182.5810  179.1150  143.7460 O   0  0  0  0  0  0  0  0  0  0  0  0
  184.3390  178.4800  145.2630 C   0  0  0  0  0  2  0  0  0  0  0  0
  185.7320  178.0030  144.8270 C   0  0  2  0  0  3  0  0  0  0  0  0
  184.7760  178.6950  142.9660 N   0  0  0  0  0  0  0  0  0  0  0  0
  185.1650  178.6940  139.2300 C   0  0  0  0  0  3  0  0  0  0  0  0
  183.1660  177.4650  139.8210 C   0  0  0  0  0  3  0  0  0  0  0  0
  184.0420  177.9560  138.8480 C   0  0  0  0  0  3  0  0  0  0  0  0
  183.4130  177.7130  141.1740 C   0  0  0  0  0  3  0  0  0  0  0  0
  185.4110  178.9420  140.5830 C   0  0  0  0  0  3  0  0  0  0  0  0
  184.5360  178.4560  141.5680 C   0  0  0  0  0  0  0  0  0  0  0  0
  188.1860  178.1450  149.0490 C   0  0  0  0  0  1  0  0  0  0  0  0
  189.0980  177.9110  147.8590 C   0  0  0  0  0  2  0  0  0  0  0  0
  190.2240  177.8030  145.1620 C   0  0  2  0  0  3  0  0  0  0  0  0
  190.4500  178.3880  143.8030 C   0  0  0  0  0  0  0  0  0  0  0  0
  190.9860  179.5210  143.6710 O   0  0  0  0  0  1  0  0  0  0  0  0
  190.0610  177.6760  142.6770 O   0  0  0  0  0  0  0  0  0  0  0  0
  191.0540  176.5360  145.3340 C   0  0  0  0  0  2  0  0  0  0  0  0
  192.0870  176.7600  146.2440 O   0  0  0  0  0  0  0  0  0  0  0  0
  192.0950  175.6220  147.0510 C   0  0  0  0  0  1  0  0  0  0  0  0
  1 20  1  1  0  0  0
  1  3  1  0  0  0  0
  3  2  1  0  0  0  0
  3 19  1  1  0  0  0
  4  2  1  1  0  0  0
  5  1  1  0  0  0  0
  5  4  1  0  0  0  0
  6 10  1  0  0  0  0
  7  9  1  0  0  0  0
  8  7  2  0  0  0  0
 10  9  1  1  0  0  0
 10  4  1  0  0  0  0
 11  6  1  0  0  0  0
 11  7  1  0  0  0  0
 12 16  1  0  0  0  0
 13 15  2  0  0  0  0
 14 12  2  0  0  0  0
 14 13  1  0  0  0  0
 15 17  1  0  0  0  0
 16 17  2  0  0  0  0
 17 11  1  0  0  0  0
 19 18  1  0  0  0  0
 20 24  1  6  0  0  0
 21 20  1  0  0  0  0
 22 21  1  0  0  0  0
 23 21  2  0  0  0  0
 24 25  1  0  0  0  0
 25 26  1  0  0  0  0
M  END
>  <MODEL>
2

>  <REMARK>
 VINA RESULT:      -7.9      2.790      4.363
  Name = 
  7 active torsions:
  status: ('A' for Active; 'I' for Inactive)
    1  A    between atoms: O_3  and  C_9
    2  A    between atoms: C_4  and  C_26
    3  A    between atoms: C_9  and  C_26
    4  A    between atoms: C_12  and  C_25
    5  A    between atoms: N_13  and  C_20
    6  A    between atoms: C_15  and  C_26
    7  A    between atoms: N_22  and  C_24
                            x       y       z     vdW  Elec       q    Type
                         _______ _______ _______ _____ _____    ______ ____

>  <TORSDO>
F 7

$$$$
=
 OpenBabel11062417153D

 26 28  0  0  1  0  0  0  0  0999 V2000
  187.0520  177.6770  138.8500 C   0  0  1  0  0  3  0  0  0  0  0  0
  189.3040  177.4910  139.1850 C   0  0  0  0  0  2  0  0  0  0  0  0
  188.3180  177.4400  138.0670 C   0  0  2  0  0  3  0  0  0  0  0  0
  188.6780  178.2560  140.2650 N   0  0  1  0  0  0  0  0  0  0  0  0
  187.3780  178.5260  139.9200 O   0  0  0  0  0  0  0  0  0  0  0  0
  188.5190  178.2410  142.6330 O   0  0  0  0  0  0  0  0  0  0  0  0
  190.1950  176.7370  143.0230 C   0  0  0  0  0  0  0  0  0  0  0  0
  191.0900  176.1270  143.6660 O   0  0  0  0  0  0  0  0  0  0  0  0
  189.9840  176.6360  141.5890 C   0  0  0  0  0  2  0  0  0  0  0  0
  188.6730  177.4290  141.4740 C   0  0  2  0  0  3  0  0  0  0  0  0
  189.2490  177.6130  143.5930 N   0  0  0  0  0  0  0  0  0  0  0  0
  189.3220  177.5890  147.3490 C   0  0  0  0  0  3  0  0  0  0  0  0
  187.0210  177.6020  146.5990 C   0  0  0  0  0  3  0  0  0  0  0  0
  187.9540  177.5930  147.6390 C   0  0  0  0  0  3  0  0  0  0  0  0
  187.4540  177.6070  145.2700 C   0  0  0  0  0  3  0  0  0  0  0  0
  189.7540  177.5940  146.0200 C   0  0  0  0  0  3  0  0  0  0  0  0
  188.8240  177.6010  144.9680 C   0  0  0  0  0  0  0  0  0  0  0  0
  189.0740  178.0180  135.7570 C   0  0  0  0  0  1  0  0  0  0  0  0
  188.6180  178.5770  137.0920 C   0  0  0  0  0  2  0  0  0  0  0  0
  185.8720  178.2220  138.0320 C   0  0  2  0  0  3  0  0  0  0  0  0
  184.8060  178.7730  138.9270 C   0  0  0  0  0  0  0  0  0  0  0  0
  184.0700  178.0020  139.6000 O   0  0  0  0  0  1  0  0  0  0  0  0
  184.6230  180.1460  139.0120 O   0  0  0  0  0  0  0  0  0  0  0  0
  185.2930  177.1370  137.1320 C   0  0  0  0  0  2  0  0  0  0  0  0
  185.5640  177.4280  135.7950 O   0  0  0  0  0  0  0  0  0  0  0  0
  185.8550  176.1900  135.2200 C   0  0  0  0  0  1  0  0  0  0  0  0
  1 20  1  6  0  0  0
  1  5  1  0  0  0  0
  3 19  1  6  0  0  0
  3  1  1  0  0  0  0
  3  2  1  0  0  0  0
  4  2  1  6  0  0  0
  4 10  1  0  0  0  0
  5  4  1  0  0  0  0
  6 11  1  0  0  0  0
  7 11  1  0  0  0  0
  7  8  2  0  0  0  0
  9  7  1  0  0  0  0
 10  9  1  1  0  0  0
 10  6  1  0  0  0  0
 11 17  1  0  0  0  0
 12 14  1  0  0  0  0
 13 14  2  0  0  0  0
 15 13  1  0  0  0  0
 16 12  2  0  0  0  0
 17 15  2  0  0  0  0
 17 16  1  0  0  0  0
 18 19  1  0  0  0  0
 20 24  1  1  0  0  0
 20 21  1  0  0  0  0
 21 23  2  0  0  0  0
 21 22  1  0  0  0  0
 25 24  1  0  0  0  0
 26 25  1  0  0  0  0
M  END
>  <MODEL>
3

>  <REMARK>
 VINA RESULT:      -7.8      2.995      5.787
  Name = 
  7 active torsions:
  status: ('A' for Active; 'I' for Inactive)
    1  A    between atoms: O_3  and  C_9
    2  A    between atoms: C_4  and  C_26
    3  A    between atoms: C_9  and  C_26
    4  A    between atoms: C_12  and  C_25
    5  A    between atoms: N_13  and  C_20
    6  A    between atoms: C_15  and  C_26
    7  A    between atoms: N_22  and  C_24
                            x       y       z     vdW  Elec       q    Type
                         _______ _______ _______ _____ _____    ______ ____

>  <TORSDO>
F 7

$$$$
=
 OpenBabel11062417153D

 26 28  0  0  1  0  0  0  0  0999 V2000
  189.1510  176.8950  138.8240 C   0  0  1  0  0  3  0  0  0  0  0  0
  190.5450  176.5380  140.5990 C   0  0  0  0  0  2  0  0  0  0  0  0
  190.5090  176.3130  139.1240 C   0  0  2  0  0  3  0  0  0  0  0  0
  189.6100  177.6270  140.8820 N   0  0  1  0  0  0  0  0  0  0  0  0
  188.9430  177.9490  139.7270 O   0  0  0  0  0  0  0  0  0  0  0  0
  187.7610  178.2090  142.2530 O   0  0  0  0  0  0  0  0  0  0  0  0
  188.4400  177.1050  144.1340 C   0  0  0  0  0  0  0  0  0  0  0  0
  188.5030  176.8130  145.3580 O   0  0  0  0  0  0  0  0  0  0  0  0
  189.3420  176.6050  143.1110 C   0  0  0  0  0  2  0  0  0  0  0  0
  188.6310  177.1520  141.8640 C   0  0  2  0  0  3  0  0  0  0  0  0
  187.4790  177.9610  143.5590 N   0  0  0  0  0  0  0  0  0  0  0  0
  184.7330  178.6980  146.0140 C   0  0  0  0  0  3  0  0  0  0  0  0
  183.8120  178.6730  143.7760 C   0  0  0  0  0  3  0  0  0  0  0  0
  183.6390  178.8290  145.1530 C   0  0  0  0  0  3  0  0  0  0  0  0
  185.0780  178.3870  143.2580 C   0  0  0  0  0  3  0  0  0  0  0  0
  185.9980  178.4100  145.4950 C   0  0  0  0  0  3  0  0  0  0  0  0
  186.1830  178.2500  144.1120 C   0  0  0  0  0  0  0  0  0  0  0  0
  192.8030  176.1970  138.1410 C   0  0  0  0  0  1  0  0  0  0  0  0
  191.6390  177.1110  138.4750 C   0  0  0  0  0  2  0  0  0  0  0  0
  188.9420  177.3430  137.3700 C   0  0  2  0  0  3  0  0  0  0  0  0
  188.3090  178.6990  137.3110 C   0  0  0  0  0  0  0  0  0  0  0  0
  189.0190  179.7380  137.2600 O   0  0  0  0  0  0  0  0  0  0  0  0
  186.9250  178.8100  137.3190 O   0  0  0  0  0  1  0  0  0  0  0  0
  188.0890  176.3310  136.6130 C   0  0  0  0  0  2  0  0  0  0  0  0
  187.3920  175.5230  137.5110 O   0  0  0  0  0  0  0  0  0  0  0  0
  186.4620  174.8460  136.7220 C   0  0  0  0  0  1  0  0  0  0  0  0
  1 20  1  6  0  0  0
  1  3  1  0  0  0  0
  1  5  1  0  0  0  0
  3 19  1  6  0  0  0
  3  2  1  0  0  0  0
  4  2  1  6  0  0  0
  4 10  1  0  0  0  0
  5  4  1  0  0  0  0
  6 11  1  0  0  0  0
  7  8  2  0  0  0  0
  9  7  1  0  0  0  0
 10  6  1  0  0  0  0
 10  9  1  1  0  0  0
 11 17  1  0  0  0  0
 11  7  1  0  0  0  0
 13 14  1  0  0  0  0
 14 12  2  0  0  0  0
 15 13  2  0  0  0  0
 15 17  1  0  0  0  0
 16 12  1  0  0  0  0
 17 16  2  0  0  0  0
 18 19  1  0  0  0  0
 20 24  1  6  0  0  0
 21 23  1  0  0  0  0
 21 20  1  0  0  0  0
 22 21  2  0  0  0  0
 24 25  1  0  0  0  0
 26 25  1  0  0  0  0
M  END
>  <MODEL>
4

>  <REMARK>
 VINA RESULT:      -7.6      2.067      3.577
  Name = 
  7 active torsions:
  status: ('A' for Active; 'I' for Inactive)
    1  A    between atoms: O_3  and  C_9
    2  A    between atoms: C_4  and  C_26
    3  A    between atoms: C_9  and  C_26
    4  A    between atoms: C_12  and  C_25
    5  A    between atoms: N_13  and  C_20
    6  A    between atoms: C_15  and  C_26
    7  A    between atoms: N_22  and  C_24
                            x       y       z     vdW  Elec       q    Type
                         _______ _______ _______ _____ _____    ______ ____

>  <TORSDO>
F 7

$$$$
=
 OpenBabel11062417153D

 26 28  0  0  1  0  0  0  0  0999 V2000
  188.2840  177.6960  145.0070 C   0  0  1  0  0  3  0  0  0  0  0  0
  188.5350  177.8250  142.7400 C   0  0  0  0  0  2  0  0  0  0  0  0
  189.3770  177.7490  143.9690 C   0  0  2  0  0  3  0  0  0  0  0  0
  187.2280  177.2670  143.0880 N   0  0  1  0  0  0  0  0  0  0  0  0
  187.2010  177.0080  144.4350 O   0  0  0  0  0  0  0  0  0  0  0  0
  184.9140  177.6700  142.7450 O   0  0  0  0  0  0  0  0  0  0  0  0
  185.1280  179.0520  140.9390 C   0  0  0  0  0  0  0  0  0  0  0  0
  184.7890  179.6690  139.8940 O   0  0  0  0  0  0  0  0  0  0  0  0
  186.4880  178.9460  141.4390 C   0  0  0  0  0  2  0  0  0  0  0  0
  186.2030  178.2710  142.7900 C   0  0  2  0  0  3  0  0  0  0  0  0
  184.2390  178.3690  141.7950 N   0  0  0  0  0  0  0  0  0  0  0  0
  180.5950  178.7580  140.9710 C   0  0  0  0  0  3  0  0  0  0  0  0
  180.9430  179.2930  143.3050 C   0  0  0  0  0  3  0  0  0  0  0  0
  180.0860  179.1560  142.2100 C   0  0  0  0  0  3  0  0  0  0  0  0
  182.3090  179.0340  143.1610 C   0  0  0  0  0  3  0  0  0  0  0  0
  181.9610  178.5000  140.8280 C   0  0  0  0  0  3  0  0  0  0  0  0
  182.8320  178.6370  141.9210 C   0  0  0  0  0  0  0  0  0  0  0  0
  191.5110  176.6990  143.2020 C   0  0  0  0  0  1  0  0  0  0  0  0
  190.1980  176.4620  143.9260 C   0  0  0  0  0  2  0  0  0  0  0  0
  188.6950  177.0860  146.3550 C   0  0  2  0  0  3  0  0  0  0  0  0
  187.8140  177.5800  147.4600 C   0  0  0  0  0  0  0  0  0  0  0  0
  188.1890  177.5140  148.6610 O   0  0  0  0  0  1  0  0  0  0  0  0
  186.5680  178.1130  147.1570 O   0  0  0  0  0  0  0  0  0  0  0  0
  190.1540  177.4010  146.6660 C   0  0  0  0  0  2  0  0  0  0  0  0
  190.6960  176.4060  147.4800 O   0  0  0  0  0  0  0  0  0  0  0  0
  191.9640  176.1720  146.9470 C   0  0  0  0  0  1  0  0  0  0  0  0
  1 20  1  1  0  0  0
  2  3  1  0  0  0  0
  3 19  1  6  0  0  0
  3  1  1  0  0  0  0
  4  2  1  1  0  0  0
  4  5  1  0  0  0  0
  5  1  1  0  0  0  0
  6 10  1  0  0  0  0
  7  9  1  0  0  0  0
  7 11  1  0  0  0  0
  8  7  2  0  0  0  0
 10  9  1  6  0  0  0
 10  4  1  0  0  0  0
 11 17  1  0  0  0  0
 11  6  1  0  0  0  0
 12 14  1  0  0  0  0
 14 13  2  0  0  0  0
 15 13  1  0  0  0  0
 16 12  2  0  0  0  0
 16 17  1  0  0  0  0
 17 15  2  0  0  0  0
 18 19  1  0  0  0  0
 20 24  1  1  0  0  0
 20 21  1  0  0  0  0
 21 22  1  0  0  0  0
 23 21  2  0  0  0  0
 24 25  1  0  0  0  0
 26 25  1  0  0  0  0
M  END
>  <MODEL>
5

>  <REMARK>
 VINA RESULT:      -7.6      2.615      4.847
  Name = 
  7 active torsions:
  status: ('A' for Active; 'I' for Inactive)
    1  A    between atoms: O_3  and  C_9
    2  A    between atoms: C_4  and  C_26
    3  A    between atoms: C_9  and  C_26
    4  A    between atoms: C_12  and  C_25
    5  A    between atoms: N_13  and  C_20
    6  A    between atoms: C_15  and  C_26
    7  A    between atoms: N_22  and  C_24
                            x       y       z     vdW  Elec       q    Type
                         _______ _______ _______ _____ _____    ______ ____

>  <TORSDO>
F 7

$$$$
=
 OpenBabel11062417153D

 26 28  0  0  1  0  0  0  0  0999 V2000
  189.3580  177.4380  144.6360 C   0  0  1  0  0  3  0  0  0  0  0  0
  187.0810  177.4130  144.8180 C   0  0  0  0  0  2  0  0  0  0  0  0
  188.2850  177.0760  145.6310 C   0  0  2  0  0  3  0  0  0  0  0  0
  187.5120  178.3790  143.8060 N   0  0  1  0  0  0  0  0  0  0  0  0
  188.8750  178.5180  143.8790 O   0  0  0  0  0  0  0  0  0  0  0  0
  188.2180  178.1090  141.5560 O   0  0  0  0  0  0  0  0  0  0  0  0
  186.2260  178.6320  140.5660 C   0  0  0  0  0  0  0  0  0  0  0  0
  185.4350  178.9960  139.6560 O   0  0  0  0  0  0  0  0  0  0  0  0
  185.8720  178.4800  141.9670 C   0  0  0  0  0  2  0  0  0  0  0  0
  187.1720  177.8460  142.4840 C   0  0  2  0  0  3  0  0  0  0  0  0
  187.5850  178.3090  140.3700 N   0  0  0  0  0  0  0  0  0  0  0  0
  187.9510  177.1180  136.8260 C   0  0  0  0  0  3  0  0  0  0  0  0
  190.1480  177.3910  137.8040 C   0  0  0  0  0  3  0  0  0  0  0  0
  189.3430  177.0480  136.7150 C   0  0  0  0  0  3  0  0  0  0  0  0
  189.5620  177.8040  139.0040 C   0  0  0  0  0  3  0  0  0  0  0  0
  187.3670  177.5300  138.0270 C   0  0  0  0  0  3  0  0  0  0  0  0
  188.1670  177.8750  139.1280 C   0  0  0  0  0  0  0  0  0  0  0  0
  188.3030  177.1310  148.1290 C   0  0  0  0  0  1  0  0  0  0  0  0
  188.3130  177.9740  146.8670 C   0  0  0  0  0  2  0  0  0  0  0  0
  190.7350  177.7430  145.2450 C   0  0  2  0  0  3  0  0  0  0  0  0
  191.6700  178.2920  144.2120 C   0  0  0  0  0  0  0  0  0  0  0  0
  192.1070  179.4700  144.3020 O   0  0  0  0  0  1  0  0  0  0  0  0
  192.0530  177.4960  143.1410 O   0  0  0  0  0  0  0  0  0  0  0  0
  191.3310  176.4930  145.8810 C   0  0  0  0  0  2  0  0  0  0  0  0
  191.6510  176.7400  147.2150 O   0  0  0  0  0  0  0  0  0  0  0  0
  192.4090  175.6350  147.6030 C   0  0  0  0  0  1  0  0  0  0  0  0
  1 20  1  1  0  0  0
  1  3  1  0  0  0  0
  2  3  1  0  0  0  0
  3 19  1  1  0  0  0
  4  5  1  0  0  0  0
  4  2  1  1  0  0  0
  5  1  1  0  0  0  0
  6 10  1  0  0  0  0
  7  9  1  0  0  0  0
  8  7  2  0  0  0  0
 10  9  1  6  0  0  0
 10  4  1  0  0  0  0
 11  7  1  0  0  0  0
 11  6  1  0  0  0  0
 12 16  1  0  0  0  0
 13 15  2  0  0  0  0
 14 12  2  0  0  0  0
 14 13  1  0  0  0  0
 15 17  1  0  0  0  0
 16 17  2  0  0  0  0
 17 11  1  0  0  0  0
 19 18  1  0  0  0  0
 20 24  1  6  0  0  0
 21 22  1  0  0  0  0
 21 20  1  0  0  0  0
 23 21  2  0  0  0  0
 24 25  1  0  0  0  0
 25 26  1  0  0  0  0
M  END
>  <MODEL>
6

>  <REMARK>
 VINA RESULT:      -7.4      2.705      5.993
  Name = 
  7 active torsions:
  status: ('A' for Active; 'I' for Inactive)
    1  A    between atoms: O_3  and  C_9
    2  A    between atoms: C_4  and  C_26
    3  A    between atoms: C_9  and  C_26
    4  A    between atoms: C_12  and  C_25
    5  A    between atoms: N_13  and  C_20
    6  A    between atoms: C_15  and  C_26
    7  A    between atoms: N_22  and  C_24
                            x       y       z     vdW  Elec       q    Type
                         _______ _______ _______ _____ _____    ______ ____

>  <TORSDO>
F 7

$$$$
=
 OpenBabel11062417153D

 26 28  0  0  1  0  0  0  0  0999 V2000
  183.5530  179.0230  140.8830 C   0  0  1  0  0  3  0  0  0  0  0  0
  182.7860  178.6640  143.0040 C   0  0  0  0  0  2  0  0  0  0  0  0
  182.2750  179.1140  141.6770 C   0  0  2  0  0  3  0  0  0  0  0  0
  183.9930  177.8780  142.7470 N   0  0  1  0  0  0  0  0  0  0  0  0
  184.2950  177.9540  141.4120 O   0  0  0  0  0  0  0  0  0  0  0  0
  185.9900  177.4560  143.9600 O   0  0  0  0  0  0  0  0  0  0  0  0
  185.5800  178.8860  145.6940 C   0  0  0  0  0  0  0  0  0  0  0  0
  185.6800  179.3790  146.8490 O   0  0  0  0  0  0  0  0  0  0  0  0
  184.5650  179.2450  144.7200 C   0  0  0  0  0  2  0  0  0  0  0  0
  185.0990  178.4690  143.5060 C   0  0  2  0  0  3  0  0  0  0  0  0
  186.4430  177.9060  145.1590 N   0  0  0  0  0  0  0  0  0  0  0  0
  189.4100  177.1460  147.3340 C   0  0  0  0  0  3  0  0  0  0  0  0
  190.1520  177.4350  145.0490 C   0  0  0  0  0  3  0  0  0  0  0  0
  190.4410  177.1690  146.3900 C   0  0  0  0  0  3  0  0  0  0  0  0
  188.8350  177.6780  144.6520 C   0  0  0  0  0  3  0  0  0  0  0  0
  188.0930  177.3900  146.9350 C   0  0  0  0  0  3  0  0  0  0  0  0
  187.7930  177.6600  145.5900 C   0  0  0  0  0  0  0  0  0  0  0  0
  179.9170  178.3320  141.9420 C   0  0  0  0  0  1  0  0  0  0  0  0
  181.2190  178.1220  141.1920 C   0  0  0  0  0  2  0  0  0  0  0  0
  183.3690  178.8890  139.3640 C   0  0  2  0  0  3  0  0  0  0  0  0
  184.6100  178.3600  138.7160 C   0  0  0  0  0  0  0  0  0  0  0  0
  185.6910  179.0050  138.7720 O   0  0  0  0  0  1  0  0  0  0  0  0
  184.5680  177.1470  138.0410 O   0  0  0  0  0  0  0  0  0  0  0  0
  182.9860  180.2300  138.7480 C   0  0  0  0  0  2  0  0  0  0  0  0
  181.7310  180.1400  138.1460 O   0  0  0  0  0  0  0  0  0  0  0  0
  180.9820  181.1530  138.7450 C   0  0  0  0  0  1  0  0  0  0  0  0
  1 20  1  6  0  0  0
  1  5  1  0  0  0  0
  1  3  1  0  0  0  0
  3 19  1  6  0  0  0
  3  2  1  0  0  0  0
  4  2  1  6  0  0  0
  4 10  1  0  0  0  0
  5  4  1  0  0  0  0
  6 11  1  0  0  0  0
  7  8  2  0  0  0  0
  9  7  1  0  0  0  0
 10  6  1  0  0  0  0
 10  9  1  1  0  0  0
 11 17  1  0  0  0  0
 11  7  1  0  0  0  0
 13 14  1  0  0  0  0
 14 12  2  0  0  0  0
 15 13  2  0  0  0  0
 15 17  1  0  0  0  0
 16 12  1  0  0  0  0
 17 16  2  0  0  0  0
 19 18  1  0  0  0  0
 20 24  1  6  0  0  0
 21 22  1  0  0  0  0
 21 20  1  0  0  0  0
 23 21  2  0  0  0  0
 25 26  1  0  0  0  0
 25 24  1  0  0  0  0
M  END
>  <MODEL>
7

>  <REMARK>
 VINA RESULT:      -7.3      2.974      6.808
  Name = 
  7 active torsions:
  status: ('A' for Active; 'I' for Inactive)
    1  A    between atoms: O_3  and  C_9
    2  A    between atoms: C_4  and  C_26
    3  A    between atoms: C_9  and  C_26
    4  A    between atoms: C_12  and  C_25
    5  A    between atoms: N_13  and  C_20
    6  A    between atoms: C_15  and  C_26
    7  A    between atoms: N_22  and  C_24
                            x       y       z     vdW  Elec       q    Type
                         _______ _______ _______ _____ _____    ______ ____

>  <TORSDO>
F 7

$$$$
=
 OpenBabel11062417153D

 26 28  0  0  1  0  0  0  0  0999 V2000
  189.0330  177.2150  144.1740 C   0  0  1  0  0  3  0  0  0  0  0  0
  187.0770  177.5030  143.0300 C   0  0  0  0  0  2  0  0  0  0  0  0
  187.5440  177.1650  144.4060 C   0  0  2  0  0  3  0  0  0  0  0  0
  188.1730  178.2190  142.3760 N   0  0  1  0  0  0  0  0  0  0  0  0
  189.2680  178.2000  143.2010 O   0  0  0  0  0  0  0  0  0  0  0  0
  189.9250  177.4140  140.9920 O   0  0  0  0  0  0  0  0  0  0  0  0
  189.0380  178.0740  138.9930 C   0  0  0  0  0  0  0  0  0  0  0  0
  189.0140  178.3890  137.7740 O   0  0  0  0  0  0  0  0  0  0  0  0
  187.9350  178.2520  139.9210 C   0  0  0  0  0  2  0  0  0  0  0  0
  188.5120  177.5130  141.1380 C   0  0  2  0  0  3  0  0  0  0  0  0
  190.1400  177.4920  139.6530 N   0  0  0  0  0  0  0  0  0  0  0  0
  191.9340  174.9090  137.5980 C   0  0  0  0  0  3  0  0  0  0  0  0
  193.5570  176.4110  138.5810 C   0  0  0  0  0  3  0  0  0  0  0  0
  193.2630  175.3020  137.7820 C   0  0  0  0  0  3  0  0  0  0  0  0
  192.5250  177.1260  139.1940 C   0  0  0  0  0  3  0  0  0  0  0  0
  190.9020  175.6250  138.2120 C   0  0  0  0  0  3  0  0  0  0  0  0
  191.1880  176.7380  139.0180 C   0  0  0  0  0  0  0  0  0  0  0  0
  185.5540  178.3070  145.3940 C   0  0  0  0  0  1  0  0  0  0  0  0
  187.0700  178.2510  145.3690 C   0  0  0  0  0  2  0  0  0  0  0  0
  189.8810  177.4480  145.4330 C   0  0  2  0  0  3  0  0  0  0  0  0
  191.2070  176.7610  145.3240 C   0  0  0  0  0  0  0  0  0  0  0  0
  191.5590  176.2100  144.2470 O   0  0  0  0  0  0  0  0  0  0  0  0
  192.0540  176.7270  146.4230 O   0  0  0  0  0  1  0  0  0  0  0  0
  189.1410  176.9670  146.6770 C   0  0  0  0  0  2  0  0  0  0  0  0
  189.5140  177.7310  147.7820 O   0  0  0  0  0  0  0  0  0  0  0  0
  188.3430  177.8580  148.5300 C   0  0  0  0  0  1  0  0  0  0  0  0
  1  3  1  0  0  0  0
  1 20  1  1  0  0  0
  2  3  1  0  0  0  0
  3 19  1  1  0  0  0
  4  2  1  1  0  0  0
  4  5  1  0  0  0  0
  5  1  1  0  0  0  0
  6 10  1  0  0  0  0
  7 11  1  0  0  0  0
  7  9  1  0  0  0  0
  8  7  2  0  0  0  0
 10  9  1  6  0  0  0
 10  4  1  0  0  0  0
 11  6  1  0  0  0  0
 12 14  2  0  0  0  0
 12 16  1  0  0  0  0
 13 15  2  0  0  0  0
 14 13  1  0  0  0  0
 16 17  2  0  0  0  0
 17 15  1  0  0  0  0
 17 11  1  0  0  0  0
 19 18  1  0  0  0  0
 20 24  1  1  0  0  0
 21 20  1  0  0  0  0
 21 23  1  0  0  0  0
 22 21  2  0  0  0  0
 24 25  1  0  0  0  0
 25 26  1  0  0  0  0
M  END
>  <MODEL>
8

>  <REMARK>
 VINA RESULT:      -7.3      2.812      7.713
  Name = 
  7 active torsions:
  status: ('A' for Active; 'I' for Inactive)
    1  A    between atoms: O_3  and  C_9
    2  A    between atoms: C_4  and  C_26
    3  A    between atoms: C_9  and  C_26
    4  A    between atoms: C_12  and  C_25
    5  A    between atoms: N_13  and  C_20
    6  A    between atoms: C_15  and  C_26
    7  A    between atoms: N_22  and  C_24
                            x       y       z     vdW  Elec       q    Type
                         _______ _______ _______ _____ _____    ______ ____

>  <TORSDO>
F 7

$$$$
=
 OpenBabel11062417153D

 26 28  0  0  1  0  0  0  0  0999 V2000
  188.9320  176.5570  138.2420 C   0  0  1  0  0  3  0  0  0  0  0  0
  191.1110  176.0670  138.7220 C   0  0  0  0  0  2  0  0  0  0  0  0
  190.1060  175.8210  137.6480 C   0  0  2  0  0  3  0  0  0  0  0  0
  190.6770  177.2670  139.4400 N   0  0  1  0  0  0  0  0  0  0  0  0
  189.4480  177.6460  138.9650 O   0  0  0  0  0  0  0  0  0  0  0  0
  189.3690  177.5290  141.4040 O   0  0  0  0  0  0  0  0  0  0  0  0
  191.0990  177.8790  142.8550 C   0  0  0  0  0  0  0  0  0  0  0  0
  191.6840  178.2620  143.9030 O   0  0  0  0  0  0  0  0  0  0  0  0
  191.7650  177.4200  141.6490 C   0  0  0  0  0  2  0  0  0  0  0  0
  190.5400  176.9310  140.8600 C   0  0  2  0  0  3  0  0  0  0  0  0
  189.6990  177.8290  142.6870 N   0  0  0  0  0  0  0  0  0  0  0  0
  186.4410  177.5030  144.5290 C   0  0  0  0  0  3  0  0  0  0  0  0
  188.2490  177.6480  146.1310 C   0  0  0  0  0  3  0  0  0  0  0  0
  186.8850  177.5250  145.8550 C   0  0  0  0  0  3  0  0  0  0  0  0
  189.1690  177.7480  145.0840 C   0  0  0  0  0  3  0  0  0  0  0  0
  187.3620  177.6050  143.4830 C   0  0  0  0  0  3  0  0  0  0  0  0
  188.7350  177.7310  143.7510 C   0  0  0  0  0  0  0  0  0  0  0  0
  192.0100  176.0020  136.0400 C   0  0  0  0  0  1  0  0  0  0  0  0
  190.5990  176.4660  136.3530 C   0  0  0  0  0  2  0  0  0  0  0  0
  187.8630  177.0010  137.2340 C   0  0  2  0  0  3  0  0  0  0  0  0
  187.3380  178.3630  137.5700 C   0  0  0  0  0  0  0  0  0  0  0  0
  187.7330  179.3790  136.9380 O   0  0  0  0  0  0  0  0  0  0  0  0
  186.4110  178.5060  138.5930 O   0  0  0  0  0  1  0  0  0  0  0  0
  186.7190  175.9950  137.1840 C   0  0  0  0  0  2  0  0  0  0  0  0
  186.0830  176.0520  135.9440 O   0  0  0  0  0  0  0  0  0  0  0  0
  187.0790  175.7170  135.0260 C   0  0  0  0  0  1  0  0  0  0  0  0
  1 20  1  6  0  0  0
  1  5  1  0  0  0  0
  3 19  1  6  0  0  0
  3  1  1  0  0  0  0
  3  2  1  0  0  0  0
  4  2  1  6  0  0  0
  4 10  1  0  0  0  0
  5  4  1  0  0  0  0
  6 11  1  0  0  0  0
  7  8  2  0  0  0  0
  9  7  1  0  0  0  0
 10  6  1  0  0  0  0
 10  9  1  1  0  0  0
 11  7  1  0  0  0  0
 11 17  1  0  0  0  0
 12 14  1  0  0  0  0
 14 13  2  0  0  0  0
 15 13  1  0  0  0  0
 16 17  1  0  0  0  0
 16 12  2  0  0  0  0
 17 15  2  0  0  0  0
 18 19  1  0  0  0  0
 20 24  1  1  0  0  0
 20 21  1  0  0  0  0
 21 23  1  0  0  0  0
 22 21  2  0  0  0  0
 25 24  1  0  0  0  0
 26 25  1  0  0  0  0
M  END
>  <MODEL>
9

>  <REMARK>
 VINA RESULT:      -7.2      3.223      5.415
  Name = 
  7 active torsions:
  status: ('A' for Active; 'I' for Inactive)
    1  A    between atoms: O_3  and  C_9
    2  A    between atoms: C_4  and  C_26
    3  A    between atoms: C_9  and  C_26
    4  A    between atoms: C_12  and  C_25
    5  A    between atoms: N_13  and  C_20
    6  A    between atoms: C_15  and  C_26
    7  A    between atoms: N_22  and  C_24
                            x       y       z     vdW  Elec       q    Type
                         _______ _______ _______ _____ _____    ______ ____

>  <TORSDO>
F 7

$$$$
