=
 OpenBabel11062415233D

 48 53  0  0  1  0  0  0  0  0999 V2000
  187.2360  177.7640  138.7910 C   0  0  2  0  0  3  0  0  0  0  0  0
  181.8970  178.0930  135.3690 C   0  0  0  0  0  2  0  0  0  0  0  0
  186.3810  178.6920  140.9420 C   0  0  0  0  0  3  0  0  0  0  0  0
  187.1930  175.1160  136.8940 C   0  0  0  0  0  2  0  0  0  0  0  0
  183.5420  178.8520  138.5240 C   0  0  1  0  0  3  0  0  0  0  0  0
  188.6860  178.1370  135.9670 O   0  0  0  0  0  0  0  0  0  0  0  0
  182.2510  178.9270  139.3470 C   0  0  1  0  0  3  0  0  0  0  0  0
  184.2490  176.4290  136.8520 C   0  0  2  0  0  3  0  0  0  0  0  0
  181.2720  177.7530  136.7140 C   0  0  0  0  0  2  0  0  0  0  0  0
  188.6900  175.3710  137.0270 C   0  0  0  0  0  2  0  0  0  0  0  0
  185.1830  178.9240  140.4050 C   0  0  0  0  0  3  0  0  0  0  0  0
  189.0590  178.3590  137.2930 C   0  0  0  0  0  0  0  0  0  0  0  0
  183.9340  180.1320  138.1220 O   0  0  0  0  0  1  0  0  0  0  0  0
  189.1700  177.0900  135.2260 O   0  0  0  0  0  0  0  0  0  0  0  0
  184.2290  177.1430  135.4920 C   0  0  0  0  0  2  0  0  0  0  0  0
  185.8140  177.7700  138.1810 C   0  0  1  0  0  3  0  0  0  0  0  0
  185.5710  176.4740  137.5110 N   0  0  2  0  0  0  0  0  0  0  0  0
  189.8750  174.9170  135.0170 O   0  0  0  0  0  0  0  0  0  0  0  0
  183.3810  178.4080  135.5080 C   0  0  0  0  0  2  0  0  0  0  0  0
  186.5320  176.3030  136.5590 O   0  0  0  0  0  0  0  0  0  0  0  0
  187.2520  177.6440  140.3240 C   0  0  2  0  0  3  0  0  0  0  0  0
  184.6980  178.1250  139.2150 C   0  0  2  0  0  3  0  0  0  0  0  0
  180.6520  178.9540  137.3590 C   0  0  0  0  0  0  0  0  0  0  0  0
  190.1940  178.0050  137.7060 O   0  0  0  0  0  0  0  0  0  0  0  0
  189.2950  175.7850  135.7200 C   0  0  0  0  0  0  0  0  0  0  0  0
  188.0660  178.9200  138.2480 C   0  0  0  0  0  2  0  0  0  0  0  0
  181.0910  179.4460  138.5280 C   0  0  0  0  0  3  0  0  0  0  0  0
  181.0250  177.9290  141.2730 C   0  0  0  0  0  0  0  0  0  0  0  0
  180.2740  174.8120  140.5240 C   0  0  0  0  0  1  0  0  0  0  0  0
  181.2010  178.7750  142.1890 O   0  0  0  0  0  0  0  0  0  0  0  0
  180.1320  176.2550  140.0750 C   0  0  0  0  0  0  0  0  0  0  0  0
  179.9570  177.0910  141.2040 O   0  0  0  0  0  0  0  0  0  0  0  0
  178.9310  176.3760  139.1580 C   0  0  0  0  0  1  0  0  0  0  0  0
  181.9410  177.6590  140.1630 C   0  0  1  0  0  3  0  0  0  0  0  0
  181.3110  176.6580  139.3830 O   0  0  0  0  0  0  0  0  0  0  0  0
  191.1640  177.4370  142.1040 C   0  0  0  0  0  3  0  0  0  0  0  0
  189.6320  176.7660  140.3540 C   0  0  0  0  0  3  0  0  0  0  0  0
  190.8930  176.6970  140.9490 C   0  0  0  0  0  3  0  0  0  0  0  0
  190.5060  179.1670  144.1110 Cl  0  0  0  0  0  0  0  0  0  0  0  0
  188.6330  177.5830  140.9080 C   0  0  0  0  0  0  0  0  0  0  0  0
  190.1700  178.2440  142.6650 C   0  0  0  0  0  0  0  0  0  0  0  0
  188.9070  178.3130  142.0700 C   0  0  0  0  0  3  0  0  0  0  0  0
  184.0350  174.2370  137.9040 C   0  0  2  0  0  3  0  0  0  0  0  0
  183.8280  174.9790  136.6660 C   0  0  1  0  0  3  0  0  0  0  0  0
  184.1740  172.8800  137.6120 O   0  0  0  0  0  1  0  0  0  0  0  0
  182.6820  174.6760  137.5360 N   0  0  0  0  0  2  0  0  0  0  0  0
  179.5930  180.8090  136.1950 O   0  0  0  0  0  1  0  0  0  0  0  0
  179.5270  179.5600  136.7160 N   0  0  0  0  0  2  0  0  0  0  0  0
  1 26  1  1  0  0  0
  1 21  1  0  0  0  0
  2 19  1  0  0  0  0
  2  9  1  0  0  0  0
  4 10  1  0  0  0  0
  5 13  1  1  0  0  0
  5 22  1  0  0  0  0
  5  7  1  0  0  0  0
  6 12  1  0  0  0  0
  7 27  1  6  0  0  0
  7 34  1  0  0  0  0
  8 15  1  6  0  0  0
  8 17  1  0  0  0  0
  9 23  1  0  0  0  0
 11  3  2  0  0  0  0
 12 24  2  0  0  0  0
 12 26  1  0  0  0  0
 14 25  1  0  0  0  0
 14  6  1  0  0  0  0
 15 19  1  0  0  0  0
 16  1  1  0  0  0  0
 16 22  1  0  0  0  0
 17 16  1  0  0  0  0
 18 25  2  0  0  0  0
 20  4  1  0  0  0  0
 20 17  1  0  0  0  0
 21 40  1  0  0  0  0
 21  3  1  0  0  0  0
 22 11  1  0  0  0  0
 23 27  2  0  0  0  0
 25 10  1  0  0  0  0
 28 30  2  0  0  0  0
 31 29  1  0  0  0  0
 31 32  1  0  0  0  0
 32 28  1  0  0  0  0
 33 31  1  0  0  0  0
 34 28  1  0  0  0  0
 35 31  1  0  0  0  0
 35 34  1  0  0  0  0
 36 41  1  0  0  0  0
 37 40  2  0  0  0  0
 37 38  1  0  0  0  0
 38 36  2  0  0  0  0
 40 42  1  0  0  0  0
 41 39  1  0  0  0  0
 42 41  2  0  0  0  0
 44  8  1  0  0  0  0
 44 46  1  0  0  0  0
 44 43  1  0  0  0  0
 45 43  1  0  0  0  0
 46 43  1  0  0  0  0
 47 48  1  0  0  0  0
 48 23  1  0  0  0  0
M  END
>  <MODEL>
1

>  <REMARK>
 VINA RESULT:      -5.3      0.000      0.000
  Name = 
  4 active torsions:
  status: ('A' for Active; 'I' for Inactive)
    1  A    between atoms: CA_16  and  C_19
    2  A    between atoms: C_18  and  C_34
    3  A    between atoms: N_27  and  C_40
    4  A    between atoms: C_30  and  C_37
                            x       y       z     vdW  Elec       q    Type
                         _______ _______ _______ _____ _____    ______ ____

>  <TORSDO>
F 4

$$$$
=
 OpenBabel11062415233D

 48 53  0  0  1  0  0  0  0  0999 V2000
  187.8040  177.6110  139.3390 C   0  0  2  0  0  3  0  0  0  0  0  0
  183.4140  177.6260  134.7520 C   0  0  0  0  0  2  0  0  0  0  0  0
  186.4460  178.5920  141.1860 C   0  0  0  0  0  3  0  0  0  0  0  0
  188.2720  174.8910  137.6080 C   0  0  0  0  0  2  0  0  0  0  0  0
  184.2520  178.5620  138.1660 C   0  0  1  0  0  3  0  0  0  0  0  0
  189.8690  177.9220  136.9180 O   0  0  0  0  0  0  0  0  0  0  0  0
  182.8020  178.6250  138.6590 C   0  0  1  0  0  3  0  0  0  0  0  0
  185.3900  176.1020  136.8180 C   0  0  2  0  0  3  0  0  0  0  0  0
  182.4980  177.3170  135.9270 C   0  0  0  0  0  2  0  0  0  0  0  0
  189.6890  175.2020  138.0750 C   0  0  0  0  0  2  0  0  0  0  0  0
  185.4020  178.7620  140.3730 C   0  0  0  0  0  3  0  0  0  0  0  0
  189.9140  178.2090  138.2840 C   0  0  0  0  0  0  0  0  0  0  0  0
  184.6970  179.8380  137.8080 O   0  0  0  0  0  1  0  0  0  0  0  0
  190.5380  176.8650  136.3600 O   0  0  0  0  0  0  0  0  0  0  0  0
  185.6730  176.7600  135.4590 C   0  0  0  0  0  2  0  0  0  0  0  0
  186.5660  177.5450  138.4130 C   0  0  1  0  0  3  0  0  0  0  0  0
  186.5180  176.2170  137.7650 N   0  0  2  0  0  0  0  0  0  0  0  0
  191.3240  174.7100  136.4210 O   0  0  0  0  0  0  0  0  0  0  0  0
  184.8150  177.9960  135.2190 C   0  0  0  0  0  2  0  0  0  0  0  0
  187.6800  176.0420  137.0730 O   0  0  0  0  0  0  0  0  0  0  0  0
  187.4620  177.5510  140.8370 C   0  0  2  0  0  3  0  0  0  0  0  0
  185.2300  177.9020  139.1400 C   0  0  2  0  0  3  0  0  0  0  0  0
  181.7160  178.5210  136.3530 C   0  0  0  0  0  0  0  0  0  0  0  0
  190.9280  177.9100  138.9670 O   0  0  0  0  0  0  0  0  0  0  0  0
  190.5750  175.5850  136.9290 C   0  0  0  0  0  0  0  0  0  0  0  0
  188.7110  178.7720  138.9520 C   0  0  0  0  0  2  0  0  0  0  0  0
  181.8550  179.0730  137.5690 C   0  0  0  0  0  3  0  0  0  0  0  0
  181.6200  177.7330  140.6640 C   0  0  0  0  0  0  0  0  0  0  0  0
  180.1940  174.8810  139.8440 C   0  0  0  0  0  1  0  0  0  0  0  0
  182.0580  178.4580  141.5960 O   0  0  0  0  0  0  0  0  0  0  0  0
  180.2910  176.3540  139.4940 C   0  0  0  0  0  0  0  0  0  0  0  0
  180.4080  177.1200  140.6790 O   0  0  0  0  0  0  0  0  0  0  0  0
  179.0450  176.7710  138.7370 C   0  0  0  0  0  1  0  0  0  0  0  0
  182.3400  177.3800  139.4370 C   0  0  1  0  0  3  0  0  0  0  0  0
  181.4440  176.5790  138.6870 O   0  0  0  0  0  0  0  0  0  0  0  0
  190.9780  177.5070  143.3170 C   0  0  0  0  0  3  0  0  0  0  0  0
  189.2910  178.7580  142.1140 C   0  0  0  0  0  3  0  0  0  0  0  0
  190.4400  178.7300  142.9080 C   0  0  0  0  0  3  0  0  0  0  0  0
  191.0400  174.7800  143.4390 Cl  0  0  0  0  0  0  0  0  0  0  0  0
  188.6690  177.5600  141.7300 C   0  0  0  0  0  0  0  0  0  0  0  0
  190.3670  176.3110  142.9300 C   0  0  0  0  0  0  0  0  0  0  0  0
  189.2180  176.3380  142.1340 C   0  0  0  0  0  3  0  0  0  0  0  0
  184.6760  174.0180  137.8720 C   0  0  2  0  0  3  0  0  0  0  0  0
  185.0590  174.6310  136.6050 C   0  0  1  0  0  3  0  0  0  0  0  0
  184.8970  172.6430  137.8040 O   0  0  0  0  0  1  0  0  0  0  0  0
  183.6380  174.3920  136.9000 N   0  0  0  0  0  2  0  0  0  0  0  0
  181.0050  180.1990  134.7420 O   0  0  0  0  0  1  0  0  0  0  0  0
  180.7590  179.0630  135.4380 N   0  0  0  0  0  2  0  0  0  0  0  0
  1 26  1  1  0  0  0
  1 21  1  0  0  0  0
  2 19  1  0  0  0  0
  2  9  1  0  0  0  0
  4 10  1  0  0  0  0
  5 13  1  1  0  0  0
  5  7  1  0  0  0  0
  5 22  1  0  0  0  0
  6 12  1  0  0  0  0
  7 27  1  6  0  0  0
  7 34  1  0  0  0  0
  8 15  1  6  0  0  0
  8 17  1  0  0  0  0
  9 23  1  0  0  0  0
 11  3  2  0  0  0  0
 12 26  1  0  0  0  0
 12 24  2  0  0  0  0
 14  6  1  0  0  0  0
 14 25  1  0  0  0  0
 16 22  1  0  0  0  0
 16  1  1  0  0  0  0
 17 16  1  0  0  0  0
 18 25  2  0  0  0  0
 19 15  1  0  0  0  0
 20  4  1  0  0  0  0
 20 17  1  0  0  0  0
 21  3  1  0  0  0  0
 21 40  1  0  0  0  0
 22 11  1  0  0  0  0
 23 27  2  0  0  0  0
 25 10  1  0  0  0  0
 28 32  1  0  0  0  0
 28 30  2  0  0  0  0
 31 29  1  0  0  0  0
 31 32  1  0  0  0  0
 33 31  1  0  0  0  0
 34 28  1  0  0  0  0
 35 34  1  0  0  0  0
 35 31  1  0  0  0  0
 37 38  1  0  0  0  0
 38 36  2  0  0  0  0
 40 37  2  0  0  0  0
 40 42  1  0  0  0  0
 41 36  1  0  0  0  0
 41 39  1  0  0  0  0
 42 41  2  0  0  0  0
 44  8  1  0  0  0  0
 44 46  1  0  0  0  0
 44 43  1  0  0  0  0
 45 43  1  0  0  0  0
 46 43  1  0  0  0  0
 47 48  1  0  0  0  0
 48 23  1  0  0  0  0
M  END
>  <MODEL>
2

>  <REMARK>
 VINA RESULT:      -4.1      1.306      1.486
  Name = 
  4 active torsions:
  status: ('A' for Active; 'I' for Inactive)
    1  A    between atoms: CA_16  and  C_19
    2  A    between atoms: C_18  and  C_34
    3  A    between atoms: N_27  and  C_40
    4  A    between atoms: C_30  and  C_37
                            x       y       z     vdW  Elec       q    Type
                         _______ _______ _______ _____ _____    ______ ____

>  <TORSDO>
F 4

$$$$
=
 OpenBabel11062415233D

 48 53  0  0  1  0  0  0  0  0999 V2000
  186.6350  177.8280  138.7280 C   0  0  2  0  0  3  0  0  0  0  0  0
  180.6040  178.7180  136.9520 C   0  0  0  0  0  2  0  0  0  0  0  0
  186.5710  178.9920  140.9320 C   0  0  0  0  0  3  0  0  0  0  0  0
  185.7170  175.1080  137.1890 C   0  0  0  0  0  2  0  0  0  0  0  0
  183.1850  179.4160  139.4190 C   0  0  1  0  0  3  0  0  0  0  0  0
  187.2210  177.8240  135.5850 O   0  0  0  0  0  0  0  0  0  0  0  0
  182.2130  179.7230  140.5630 C   0  0  1  0  0  3  0  0  0  0  0  0
  183.0710  176.8240  137.8590 C   0  0  2  0  0  3  0  0  0  0  0  0
  180.3670  178.5500  138.4460 C   0  0  0  0  0  2  0  0  0  0  0  0
  187.2050  175.1530  136.8650 C   0  0  0  0  0  2  0  0  0  0  0  0
  185.3040  179.3620  140.7390 C   0  0  0  0  0  3  0  0  0  0  0  0
  187.9920  178.0680  136.7230 C   0  0  0  0  0  0  0  0  0  0  0  0
  183.5910  180.6010  138.7990 O   0  0  0  0  0  1  0  0  0  0  0  0
  187.3350  176.6780  134.8430 O   0  0  0  0  0  0  0  0  0  0  0  0
  182.7360  177.4520  136.4980 C   0  0  0  0  0  2  0  0  0  0  0  0
  185.1080  178.0020  138.5500 C   0  0  1  0  0  3  0  0  0  0  0  0
  184.5240  176.7180  138.1070 N   0  0  2  0  0  0  0  0  0  0  0  0
  187.6800  174.4180  134.6550 O   0  0  0  0  0  0  0  0  0  0  0  0
  182.0880  178.8250  136.6320 C   0  0  0  0  0  2  0  0  0  0  0  0
  185.1330  176.3560  136.9420 O   0  0  0  0  0  0  0  0  0  0  0  0
  187.0880  177.7960  140.1960 C   0  0  2  0  0  3  0  0  0  0  0  0
  184.3970  178.5720  139.8190 C   0  0  2  0  0  3  0  0  0  0  0  0
  180.1140  179.8630  139.1200 C   0  0  0  0  0  0  0  0  0  0  0  0
  189.1480  177.5800  136.8280 O   0  0  0  0  0  0  0  0  0  0  0  0
  187.4430  175.3990  135.4060 C   0  0  0  0  0  0  0  0  0  0  0  0
  187.3990  178.8200  137.8610 C   0  0  0  0  0  2  0  0  0  0  0  0
  180.9340  180.3540  140.0620 C   0  0  0  0  0  3  0  0  0  0  0  0
  182.4890  178.8930  142.8970 C   0  0  0  0  0  0  0  0  0  0  0  0
  180.0240  176.8130  143.5580 C   0  0  0  0  0  1  0  0  0  0  0  0
  183.6530  179.2690  143.1950 O   0  0  0  0  0  0  0  0  0  0  0  0
  180.3570  178.2230  143.1070 C   0  0  0  0  0  0  0  0  0  0  0  0
  181.4970  178.6900  143.8040 O   0  0  0  0  0  0  0  0  0  0  0  0
  179.1770  179.1300  143.3910 C   0  0  0  0  0  1  0  0  0  0  0  0
  182.0090  178.5620  141.5530 C   0  0  1  0  0  3  0  0  0  0  0  0
  180.6420  178.2230  141.7100 O   0  0  0  0  0  0  0  0  0  0  0  0
  191.2930  177.1020  140.7890 C   0  0  0  0  0  3  0  0  0  0  0  0
  189.3130  176.8590  139.4180 C   0  0  0  0  0  3  0  0  0  0  0  0
  190.6740  176.6280  139.6290 C   0  0  0  0  0  3  0  0  0  0  0  0
  191.3200  178.3960  143.1940 Cl  0  0  0  0  0  0  0  0  0  0  0  0
  188.5630  177.5730  140.3660 C   0  0  0  0  0  0  0  0  0  0  0  0
  190.5480  177.8050  141.7410 C   0  0  0  0  0  0  0  0  0  0  0  0
  189.1850  178.0360  141.5310 C   0  0  0  0  0  3  0  0  0  0  0  0
  181.0780  175.4810  137.4320 C   0  0  2  0  0  3  0  0  0  0  0  0
  182.4430  175.4400  137.9430 C   0  0  1  0  0  3  0  0  0  0  0  0
  180.3480  174.4260  137.9800 O   0  0  0  0  0  1  0  0  0  0  0  0
  182.1550  174.9410  136.5900 N   0  0  0  0  0  2  0  0  0  0  0  0
  178.9650  181.9070  138.4750 O   0  0  0  0  0  1  0  0  0  0  0  0
  178.9310  180.5850  138.7690 N   0  0  0  0  0  2  0  0  0  0  0  0
  1 26  1  6  0  0  0
  1 21  1  0  0  0  0
  2  9  1  0  0  0  0
  5 13  1  1  0  0  0
  5 22  1  0  0  0  0
  5  7  1  0  0  0  0
  6 12  1  0  0  0  0
  7 27  1  6  0  0  0
  7 34  1  0  0  0  0
  8 15  1  6  0  0  0
  8 44  1  0  0  0  0
  8 17  1  0  0  0  0
  9 23  1  0  0  0  0
 10  4  1  0  0  0  0
 11  3  2  0  0  0  0
 12 24  2  0  0  0  0
 12 26  1  0  0  0  0
 14 25  1  0  0  0  0
 14  6  1  0  0  0  0
 15 19  1  0  0  0  0
 16  1  1  0  0  0  0
 16 22  1  0  0  0  0
 17 16  1  0  0  0  0
 18 25  2  0  0  0  0
 19  2  1  0  0  0  0
 20  4  1  0  0  0  0
 20 17  1  0  0  0  0
 21 40  1  0  0  0  0
 21  3  1  0  0  0  0
 22 11  1  0  0  0  0
 23 27  2  0  0  0  0
 25 10  1  0  0  0  0
 28 30  2  0  0  0  0
 28 32  1  0  0  0  0
 31 33  1  0  0  0  0
 31 29  1  0  0  0  0
 31 32  1  0  0  0  0
 34 35  1  0  0  0  0
 34 28  1  0  0  0  0
 35 31  1  0  0  0  0
 36 41  1  0  0  0  0
 37 38  1  0  0  0  0
 37 40  2  0  0  0  0
 38 36  2  0  0  0  0
 40 42  1  0  0  0  0
 41 39  1  0  0  0  0
 42 41  2  0  0  0  0
 43 44  1  0  0  0  0
 43 45  1  0  0  0  0
 46 43  1  0  0  0  0
 46 44  1  0  0  0  0
 47 48  1  0  0  0  0
 48 23  1  0  0  0  0
M  END
>  <MODEL>
3

>  <REMARK>
 VINA RESULT:      -3.8      1.604      2.044
  Name = 
  4 active torsions:
  status: ('A' for Active; 'I' for Inactive)
    1  A    between atoms: CA_16  and  C_19
    2  A    between atoms: C_18  and  C_34
    3  A    between atoms: N_27  and  C_40
    4  A    between atoms: C_30  and  C_37
                            x       y       z     vdW  Elec       q    Type
                         _______ _______ _______ _____ _____    ______ ____

>  <TORSDO>
F 4

$$$$
=
 OpenBabel11062415233D

 48 53  0  0  1  0  0  0  0  0999 V2000
  187.4270  176.0170  137.1970 C   0  0  2  0  0  3  0  0  0  0  0  0
  181.6070  175.1210  134.8210 C   0  0  0  0  0  2  0  0  0  0  0  0
  187.0260  178.1530  138.4220 C   0  0  0  0  0  3  0  0  0  0  0  0
  186.8730  172.8090  137.3020 C   0  0  0  0  0  2  0  0  0  0  0  0
  183.8260  177.3130  136.6940 C   0  0  1  0  0  3  0  0  0  0  0  0
  188.3830  174.4240  134.5960 O   0  0  0  0  0  0  0  0  0  0  0  0
  182.7060  178.0610  137.4270 C   0  0  1  0  0  3  0  0  0  0  0  0
  184.0630  174.2960  136.7670 C   0  0  2  0  0  3  0  0  0  0  0  0
  181.2040  175.7390  136.1520 C   0  0  0  0  0  2  0  0  0  0  0  0
  188.3840  172.8510  137.1050 C   0  0  0  0  0  2  0  0  0  0  0  0
  185.7710  178.2120  137.9760 C   0  0  0  0  0  3  0  0  0  0  0  0
  188.9960  175.3200  135.4730 C   0  0  0  0  0  0  0  0  0  0  0  0
  184.2270  178.0300  135.5640 O   0  0  0  0  0  1  0  0  0  0  0  0
  188.6580  173.0820  134.5950 O   0  0  0  0  0  0  0  0  0  0  0  0
  183.8540  174.0670  135.2620 C   0  0  0  0  0  2  0  0  0  0  0  0
  185.9240  175.8900  136.8520 C   0  0  1  0  0  3  0  0  0  0  0  0
  185.4800  174.5070  137.1290 N   0  0  2  0  0  0  0  0  0  0  0  0
  189.1650  171.1210  135.6730 O   0  0  0  0  0  0  0  0  0  0  0  0
  183.1090  175.2160  134.5940 C   0  0  0  0  0  2  0  0  0  0  0  0
  186.2450  173.6600  136.3850 O   0  0  0  0  0  0  0  0  0  0  0  0
  187.7020  176.8190  138.4800 C   0  0  2  0  0  3  0  0  0  0  0  0
  185.0320  176.9570  137.5650 C   0  0  2  0  0  3  0  0  0  0  0  0
  180.7900  177.1700  135.9970 C   0  0  0  0  0  0  0  0  0  0  0  0
  190.1590  175.1010  135.9010 O   0  0  0  0  0  0  0  0  0  0  0  0
  188.7780  172.3160  135.7620 C   0  0  0  0  0  0  0  0  0  0  0  0
  188.2250  176.4830  135.9870 C   0  0  0  0  0  2  0  0  0  0  0  0
  181.4590  178.1770  136.5800 C   0  0  0  0  0  3  0  0  0  0  0  0
  182.3620  178.7000  139.8110 C   0  0  0  0  0  0  0  0  0  0  0  0
  180.3850  176.4700  141.2090 C   0  0  0  0  0  1  0  0  0  0  0  0
  183.2330  179.5920  139.9930 O   0  0  0  0  0  0  0  0  0  0  0  0
  180.5090  177.4620  140.0680 C   0  0  0  0  0  0  0  0  0  0  0  0
  181.2000  178.6150  140.5100 O   0  0  0  0  0  0  0  0  0  0  0  0
  179.1230  177.8480  139.5900 C   0  0  0  0  0  1  0  0  0  0  0  0
  182.4590  177.5830  138.8690 C   0  0  1  0  0  3  0  0  0  0  0  0
  181.2410  176.8700  138.9980 O   0  0  0  0  0  0  0  0  0  0  0  0
  191.8560  176.9440  139.5960 C   0  0  0  0  0  3  0  0  0  0  0  0
  190.1650  176.7270  137.8780 C   0  0  0  0  0  3  0  0  0  0  0  0
  191.5090  176.7550  138.2550 C   0  0  0  0  0  3  0  0  0  0  0  0
  191.2880  177.3340  142.2390 Cl  0  0  0  0  0  0  0  0  0  0  0  0
  189.1570  176.8930  138.8420 C   0  0  0  0  0  0  0  0  0  0  0  0
  190.8560  177.1000  140.5610 C   0  0  0  0  0  0  0  0  0  0  0  0
  189.5100  177.0710  140.1840 C   0  0  0  0  0  3  0  0  0  0  0  0
  182.3580  172.5510  136.8480 C   0  0  2  0  0  3  0  0  0  0  0  0
  183.5180  173.1020  137.5380 C   0  0  1  0  0  3  0  0  0  0  0  0
  181.5630  171.8590  137.7620 O   0  0  0  0  0  1  0  0  0  0  0  0
  183.6600  171.8800  136.7320 N   0  0  0  0  0  2  0  0  0  0  0  0
  179.4410  178.6420  134.6080 O   0  0  0  0  0  1  0  0  0  0  0  0
  179.6140  177.4530  135.2340 N   0  0  0  0  0  2  0  0  0  0  0  0
  1 26  1  6  0  0  0
  1 21  1  0  0  0  0
  2  9  1  0  0  0  0
  3 21  1  0  0  0  0
  5 13  1  6  0  0  0
  5  7  1  0  0  0  0
  5 22  1  0  0  0  0
  6 12  1  0  0  0  0
  7 27  1  6  0  0  0
  7 34  1  0  0  0  0
  8 15  1  6  0  0  0
  8 17  1  0  0  0  0
  8 44  1  0  0  0  0
 10  4  1  0  0  0  0
 11  3  2  0  0  0  0
 12 24  2  0  0  0  0
 12 26  1  0  0  0  0
 14  6  1  0  0  0  0
 14 25  1  0  0  0  0
 16 17  1  0  0  0  0
 16  1  1  0  0  0  0
 16 22  1  0  0  0  0
 18 25  2  0  0  0  0
 19  2  1  0  0  0  0
 19 15  1  0  0  0  0
 20 17  1  0  0  0  0
 20  4  1  0  0  0  0
 21 40  1  0  0  0  0
 22 11  1  0  0  0  0
 23  9  1  0  0  0  0
 23 27  2  0  0  0  0
 25 10  1  0  0  0  0
 28 30  2  0  0  0  0
 28 32  1  0  0  0  0
 31 32  1  0  0  0  0
 31 29  1  0  0  0  0
 33 31  1  0  0  0  0
 34 35  1  0  0  0  0
 34 28  1  0  0  0  0
 35 31  1  0  0  0  0
 36 41  1  0  0  0  0
 37 38  1  0  0  0  0
 37 40  2  0  0  0  0
 38 36  2  0  0  0  0
 40 42  1  0  0  0  0
 41 39  1  0  0  0  0
 42 41  2  0  0  0  0
 43 44  1  0  0  0  0
 43 45  1  0  0  0  0
 46 43  1  0  0  0  0
 46 44  1  0  0  0  0
 47 48  1  0  0  0  0
 48 23  1  0  0  0  0
M  END
>  <MODEL>
4

>  <REMARK>
 VINA RESULT:      -2.6      1.939      2.655
  Name = 
  4 active torsions:
  status: ('A' for Active; 'I' for Inactive)
    1  A    between atoms: CA_16  and  C_19
    2  A    between atoms: C_18  and  C_34
    3  A    between atoms: N_27  and  C_40
    4  A    between atoms: C_30  and  C_37
                            x       y       z     vdW  Elec       q    Type
                         _______ _______ _______ _____ _____    ______ ____

>  <TORSDO>
F 4

$$$$
