=
 OpenBabel11062413373D

 42 48  0  0  1  0  0  0  0  0999 V2000
  187.9130  177.6990  137.9970 C   0  0  2  0  0  0  0  0  0  0  0  0
  189.2400  177.1670  135.8880 C   0  0  0  0  0  0  0  0  0  0  0  0
  186.4940  177.4290  137.7010 N   0  0  0  0  0  0  0  0  0  0  0  0
  188.2440  176.7110  135.0800 O   0  0  0  0  0  0  0  0  0  0  0  0
  189.2900  179.4340  136.8390 F   0  0  0  0  0  0  0  0  0  0  0  0
  187.2400  178.1940  136.6970 C   0  0  1  0  0  0  0  0  0  0  0  0
  190.4390  176.7890  135.7950 O   0  0  0  0  0  0  0  0  0  0  0  0
  188.7510  178.1560  136.8520 C   0  0  2  0  0  0  0  0  0  0  0  0
  187.0220  177.3260  135.4280 C   0  0  0  0  0  2  0  0  0  0  0  0
  185.5660  178.3670  138.3350 C   0  0  0  0  0  2  0  0  0  0  0  0
  183.1200  178.6590  138.8180 C   0  0  2  0  0  3  0  0  0  0  0  0
  183.2750  179.9440  139.1130 C   0  0  0  0  0  3  0  0  0  0  0  0
  181.4540  179.8100  137.7610 C   0  0  0  0  0  2  0  0  0  0  0  0
  184.2110  177.6990  138.5160 C   0  0  1  0  0  3  0  0  0  0  0  0
  183.8190  177.0630  137.2530 N   0  0  0  0  0  2  0  0  0  0  0  0
  182.1800  180.6640  138.4770 C   0  0  0  0  0  3  0  0  0  0  0  0
  182.6130  177.7640  136.7720 C   0  0  2  0  0  3  0  0  0  0  0  0
  181.9580  178.4220  137.9730 C   0  0  1  0  0  3  0  0  0  0  0  0
  181.6570  176.7980  136.0710 C   0  0  0  0  0  2  0  0  0  0  0  0
  181.0600  174.5600  136.9530 C   0  0  0  0  0  1  0  0  0  0  0  0
  180.7810  176.0420  137.0570 C   0  0  0  0  0  2  0  0  0  0  0  0
  188.0290  178.6850  138.9930 O   0  0  0  0  0  0  0  0  0  0  0  0
  189.2660  178.4590  139.6070 C   0  0  0  0  0  2  0  0  0  0  0  0
  190.0810  176.7880  141.2830 C   0  0  0  0  0  3  0  0  0  0  0  0
  189.2970  177.1000  140.2440 C   0  0  0  0  0  3  0  0  0  0  0  0
  191.0070  177.7720  141.9210 C   0  0  0  0  0  2  0  0  0  0  0  0
  191.8890  178.4990  144.0110 O   0  0  0  0  0  1  0  0  0  0  0  0
  190.9150  177.6830  143.4350 C   0  0  1  0  0  3  0  0  0  0  0  0
  189.5370  178.1340  143.8940 C   0  0  0  0  0  2  0  0  0  0  0  0
  185.2440  179.2030  142.1590 C   0  0  0  0  0  2  0  0  0  0  0  0
  188.3960  177.4090  146.0390 C   0  0  0  0  0  2  0  0  0  0  0  0
  186.3440  178.1450  142.3140 C   0  0  0  0  0  2  0  0  0  0  0  0
  186.0890  177.0920  146.6390 O   0  0  0  0  0  1  0  0  0  0  0  0
  187.5940  176.5300  143.7880 C   0  0  0  0  0  2  0  0  0  0  0  0
  183.9660  178.8600  144.4270 C   0  0  0  0  0  2  0  0  0  0  0  0
  185.2360  179.4690  145.0320 C   0  0  0  0  0  2  0  0  0  0  0  0
  186.4480  177.5550  143.7260 C   0  0  1  0  0  3  0  0  0  0  0  0
  186.5170  178.6330  144.8370 C   0  0  2  0  0  3  0  0  0  0  0  0
  188.7980  177.0030  144.6090 C   0  0  1  0  0  3  0  0  0  0  0  0
  187.0000  178.0440  146.1650 C   0  0  2  0  0  3  0  0  0  0  0  0
  183.0020  178.4890  142.3080 O   0  0  0  0  0  0  0  0  0  0  0  0
  183.9960  178.8410  142.9200 C   0  0  0  0  0  0  0  0  0  0  0  0
  1 22  1  1  0  0  0
  2  8  1  0  0  0  0
  3  1  1  0  0  0  0
  3 10  1  0  0  0  0
  4  9  1  0  0  0  0
  4  2  1  0  0  0  0
  6  9  1  6  0  0  0
  6  8  1  0  0  0  0
  6  3  1  0  0  0  0
  6  1  1  0  0  0  0
  7  2  2  0  0  0  0
  8  5  1  1  0  0  0
  8  1  1  0  0  0  0
 11 12  1  6  0  0  0
 13 16  1  0  0  0  0
 14 10  1  6  0  0  0
 14 11  1  0  0  0  0
 15 14  1  0  0  0  0
 16 12  2  0  0  0  0
 17 19  1  1  0  0  0
 17 15  1  0  0  0  0
 17 18  1  0  0  0  0
 18 13  1  6  0  0  0
 18 11  1  0  0  0  0
 19 21  1  0  0  0  0
 20 21  1  0  0  0  0
 22 23  1  0  0  0  0
 23 25  1  0  0  0  0
 24 26  1  0  0  0  0
 25 24  2  0  0  0  0
 26 28  1  0  0  0  0
 28 29  1  0  0  0  0
 28 27  1  1  0  0  0
 30 32  1  0  0  0  0
 30 42  1  0  0  0  0
 31 40  1  0  0  0  0
 34 39  1  0  0  0  0
 35 36  1  0  0  0  0
 37 32  1  6  0  0  0
 37 34  1  0  0  0  0
 37 38  1  0  0  0  0
 38 36  1  1  0  0  0
 38 40  1  0  0  0  0
 39 29  1  6  0  0  0
 39 31  1  0  0  0  0
 40 33  1  6  0  0  0
 41 42  2  0  0  0  0
 42 35  1  0  0  0  0
M  END
>  <MODEL>
1

>  <REMARK>
 VINA RESULT:      -8.4      0.000      0.000
  Name = 
  11 active torsions:
  status: ('A' for Active; 'I' for Inactive)
    1  A    between atoms: C_2  and  O_41
    2  A    between atoms: C_4  and  C_9
    3  A    between atoms: C_7  and  N_16
    4  A    between atoms: C_7  and  C_31
    5  A    between atoms: C_9  and  C_23
    6  A    between atoms: C_10  and  C_14
    7  A    between atoms: C_14  and  O_41
    8  A    between atoms: C_15  and  C_34
    9  A    between atoms: C_15  and  C_42
   10  A    between atoms: C_20  and  C_23
   11  A    between atoms: C_20  and  C_24
                            x       y       z     vdW  Elec       q    Type
                         _______ _______ _______ _____ _____    ______ ____

>  <TORSDO>
F 11

$$$$
=
 OpenBabel11062413373D

 42 48  0  0  1  0  0  0  0  0999 V2000
  182.4800  178.9240  141.5270 C   0  0  2  0  0  0  0  0  0  0  0  0
  180.2350  179.9530  142.1600 C   0  0  0  0  0  0  0  0  0  0  0  0
  182.3840  178.5000  140.1190 N   0  0  0  0  0  0  0  0  0  0  0  0
  179.5840  179.8750  140.9680 O   0  0  0  0  0  0  0  0  0  0  0  0
  181.0820  177.9910  143.3790 F   0  0  0  0  0  0  0  0  0  0  0  0
  181.2610  178.1390  140.9900 C   0  0  1  0  0  0  0  0  0  0  0  0
  180.0000  180.8390  143.0250 O   0  0  0  0  0  0  0  0  0  0  0  0
  181.2160  178.8750  142.3190 C   0  0  2  0  0  0  0  0  0  0  0  0
  180.0670  178.7750  140.2260 C   0  0  0  0  0  2  0  0  0  0  0  0
  183.0980  177.2560  139.8240 C   0  0  0  0  0  2  0  0  0  0  0  0
  184.0020  177.2070  137.4830 C   0  0  2  0  0  3  0  0  0  0  0  0
  185.0510  177.9510  137.8120 C   0  0  0  0  0  3  0  0  0  0  0  0
  185.8480  176.2390  136.5490 C   0  0  0  0  0  2  0  0  0  0  0  0
  182.8630  176.8670  138.3720 C   0  0  1  0  0  3  0  0  0  0  0  0
  182.7340  175.4080  138.2830 N   0  0  0  0  0  2  0  0  0  0  0  0
  186.2160  177.3550  137.1720 C   0  0  0  0  0  3  0  0  0  0  0  0
  183.8750  174.9200  137.4860 C   0  0  2  0  0  3  0  0  0  0  0  0
  184.3670  176.0780  136.6370 C   0  0  1  0  0  3  0  0  0  0  0  0
  183.4730  173.7240  136.6220 C   0  0  0  0  0  2  0  0  0  0  0  0
  185.4300  172.8450  137.8650 C   0  0  0  0  0  1  0  0  0  0  0  0
  184.4720  172.5820  136.7250 C   0  0  0  0  0  2  0  0  0  0  0  0
  183.4120  178.1300  142.2190 O   0  0  0  0  0  0  0  0  0  0  0  0
  184.4870  178.9780  142.5120 C   0  0  0  0  0  2  0  0  0  0  0  0
  185.1510  178.8550  144.9230 C   0  0  0  0  0  3  0  0  0  0  0  0
  184.4310  179.4210  143.9460 C   0  0  0  0  0  3  0  0  0  0  0  0
  186.0920  177.7200  144.6790 C   0  0  0  0  0  2  0  0  0  0  0  0
  187.2320  177.8000  146.7700 O   0  0  0  0  0  1  0  0  0  0  0  0
  187.4100  177.9610  145.3960 C   0  0  1  0  0  3  0  0  0  0  0  0
  188.4540  176.9720  144.8990 C   0  0  0  0  0  2  0  0  0  0  0  0
  187.8350  178.2280  140.3580 C   0  0  0  0  0  2  0  0  0  0  0  0
  190.9110  176.6230  144.3790 C   0  0  0  0  0  2  0  0  0  0  0  0
  188.1400  178.6840  141.7900 C   0  0  0  0  0  2  0  0  0  0  0  0
  192.2650  177.1300  142.4580 O   0  0  0  0  0  1  0  0  0  0  0  0
  189.7480  178.7920  143.7260 C   0  0  0  0  0  2  0  0  0  0  0  0
  190.2480  177.5460  139.5790 C   0  0  0  0  0  2  0  0  0  0  0  0
  190.0550  176.3980  140.5770 C   0  0  0  0  0  2  0  0  0  0  0  0
  189.5490  178.3210  142.2740 C   0  0  1  0  0  3  0  0  0  0  0  0
  189.9090  176.8310  142.0500 C   0  0  2  0  0  3  0  0  0  0  0  0
  189.8170  177.6460  144.7400 C   0  0  1  0  0  3  0  0  0  0  0  0
  191.1330  176.4160  142.8700 C   0  0  2  0  0  3  0  0  0  0  0  0
  188.9950  179.2840  138.5980 O   0  0  0  0  0  0  0  0  0  0  0  0
  189.0170  178.4050  139.4420 C   0  0  0  0  0  0  0  0  0  0  0  0
  1 22  1  1  0  0  0
  1  8  1  0  0  0  0
  2  8  1  0  0  0  0
  2  7  2  0  0  0  0
  3  6  1  0  0  0  0
  3  1  1  0  0  0  0
  4  2  1  0  0  0  0
  6  9  1  6  0  0  0
  6  1  1  0  0  0  0
  6  8  1  0  0  0  0
  8  5  1  1  0  0  0
  9  4  1  0  0  0  0
 10  3  1  0  0  0  0
 11 12  1  1  0  0  0
 11 14  1  0  0  0  0
 13 16  1  0  0  0  0
 14 10  1  1  0  0  0
 15 14  1  0  0  0  0
 16 12  2  0  0  0  0
 17 19  1  6  0  0  0
 17 15  1  0  0  0  0
 18 13  1  1  0  0  0
 18 11  1  0  0  0  0
 18 17  1  0  0  0  0
 19 21  1  0  0  0  0
 21 20  1  0  0  0  0
 22 23  1  0  0  0  0
 23 25  1  0  0  0  0
 25 24  2  0  0  0  0
 26 24  1  0  0  0  0
 26 28  1  0  0  0  0
 28 27  1  1  0  0  0
 29 28  1  0  0  0  0
 30 32  1  0  0  0  0
 31 39  1  0  0  0  0
 34 39  1  0  0  0  0
 35 36  1  0  0  0  0
 37 32  1  1  0  0  0
 37 34  1  0  0  0  0
 38 36  1  6  0  0  0
 38 37  1  0  0  0  0
 38 40  1  0  0  0  0
 39 29  1  6  0  0  0
 40 33  1  6  0  0  0
 40 31  1  0  0  0  0
 41 42  2  0  0  0  0
 42 35  1  0  0  0  0
 42 30  1  0  0  0  0
M  END
>  <MODEL>
2

>  <REMARK>
 VINA RESULT:      -8.2      2.705      6.151
  Name = 
  11 active torsions:
  status: ('A' for Active; 'I' for Inactive)
    1  A    between atoms: C_2  and  O_41
    2  A    between atoms: C_4  and  C_9
    3  A    between atoms: C_7  and  N_16
    4  A    between atoms: C_7  and  C_31
    5  A    between atoms: C_9  and  C_23
    6  A    between atoms: C_10  and  C_14
    7  A    between atoms: C_14  and  O_41
    8  A    between atoms: C_15  and  C_34
    9  A    between atoms: C_15  and  C_42
   10  A    between atoms: C_20  and  C_23
   11  A    between atoms: C_20  and  C_24
                            x       y       z     vdW  Elec       q    Type
                         _______ _______ _______ _____ _____    ______ ____

>  <TORSDO>
F 11

$$$$
=
 OpenBabel11062413373D

 42 48  0  0  1  0  0  0  0  0999 V2000
  187.8610  177.5700  138.0790 C   0  0  2  0  0  0  0  0  0  0  0  0
  189.4220  177.0060  136.1450 C   0  0  0  0  0  0  0  0  0  0  0  0
  186.5160  177.0950  137.7080 N   0  0  0  0  0  0  0  0  0  0  0  0
  188.5620  176.3500  135.3180 O   0  0  0  0  0  0  0  0  0  0  0  0
  189.1200  179.3430  136.8470 F   0  0  0  0  0  0  0  0  0  0  0  0
  187.2510  177.8460  136.6860 C   0  0  1  0  0  0  0  0  0  0  0  0
  190.6600  176.7760  136.1840 O   0  0  0  0  0  0  0  0  0  0  0  0
  188.7370  178.0150  136.9570 C   0  0  2  0  0  0  0  0  0  0  0  0
  187.2490  176.8370  135.5050 C   0  0  0  0  0  2  0  0  0  0  0  0
  185.4320  177.9660  138.1660 C   0  0  0  0  0  2  0  0  0  0  0  0
  183.2250  177.3870  139.2130 C   0  0  2  0  0  3  0  0  0  0  0  0
  183.5800  177.9070  140.3820 C   0  0  0  0  0  3  0  0  0  0  0  0
  181.4780  178.6550  139.9580 C   0  0  0  0  0  2  0  0  0  0  0  0
  184.1020  177.2400  138.0250 C   0  0  1  0  0  3  0  0  0  0  0  0
  183.3450  177.8370  136.9180 N   0  0  0  0  0  2  0  0  0  0  0  0
  182.4430  178.6740  140.8720 C   0  0  0  0  0  3  0  0  0  0  0  0
  182.1370  178.4490  137.5010 C   0  0  2  0  0  3  0  0  0  0  0  0
  181.8720  177.7630  138.8290 C   0  0  1  0  0  3  0  0  0  0  0  0
  180.9430  178.3230  136.5560 C   0  0  0  0  0  2  0  0  0  0  0  0
  180.6190  180.7730  136.3720 C   0  0  0  0  0  1  0  0  0  0  0  0
  180.8450  179.4970  135.5950 C   0  0  0  0  0  2  0  0  0  0  0  0
  187.7720  178.6560  138.9690 O   0  0  0  0  0  0  0  0  0  0  0  0
  188.8950  178.5580  139.7980 C   0  0  0  0  0  2  0  0  0  0  0  0
  189.9440  176.8160  141.2580 C   0  0  0  0  0  3  0  0  0  0  0  0
  188.9960  177.1800  140.3870 C   0  0  0  0  0  3  0  0  0  0  0  0
  191.0030  177.7550  141.7400 C   0  0  0  0  0  2  0  0  0  0  0  0
  191.7410  178.9520  143.6630 O   0  0  0  0  0  1  0  0  0  0  0  0
  190.9590  177.8710  143.2540 C   0  0  1  0  0  3  0  0  0  0  0  0
  189.5240  178.0780  143.7140 C   0  0  0  0  0  2  0  0  0  0  0  0
  184.9230  179.2540  143.5550 C   0  0  0  0  0  2  0  0  0  0  0  0
  189.1260  177.1790  146.0500 C   0  0  0  0  0  2  0  0  0  0  0  0
  185.9920  178.1940  143.2620 C   0  0  0  0  0  2  0  0  0  0  0  0
  187.1330  176.8010  147.3410 O   0  0  0  0  0  1  0  0  0  0  0  0
  187.6200  176.4750  144.1220 C   0  0  0  0  0  2  0  0  0  0  0  0
  184.4420  178.7250  146.0820 C   0  0  0  0  0  2  0  0  0  0  0  0
  185.8520  179.2920  146.2860 C   0  0  0  0  0  2  0  0  0  0  0  0
  186.5360  177.4950  144.5150 C   0  0  1  0  0  3  0  0  0  0  0  0
  186.9840  178.4820  145.6210 C   0  0  2  0  0  3  0  0  0  0  0  0
  189.0340  176.8900  144.5400 C   0  0  1  0  0  3  0  0  0  0  0  0
  187.8590  177.7940  146.6710 C   0  0  2  0  0  3  0  0  0  0  0  0
  182.8370  178.5170  144.3690 O   0  0  0  0  0  0  0  0  0  0  0  0
  183.9820  178.8260  144.6500 C   0  0  0  0  0  0  0  0  0  0  0  0
  1 22  1  1  0  0  0
  2  7  2  0  0  0  0
  2  8  1  0  0  0  0
  3  1  1  0  0  0  0
  3 10  1  0  0  0  0
  4  9  1  0  0  0  0
  4  2  1  0  0  0  0
  6  9  1  6  0  0  0
  6  8  1  0  0  0  0
  6  3  1  0  0  0  0
  6  1  1  0  0  0  0
  8  5  1  1  0  0  0
  8  1  1  0  0  0  0
 11 12  1  1  0  0  0
 12 16  2  0  0  0  0
 13 16  1  0  0  0  0
 14 10  1  1  0  0  0
 14 11  1  0  0  0  0
 15 17  1  0  0  0  0
 15 14  1  0  0  0  0
 17 19  1  6  0  0  0
 17 18  1  0  0  0  0
 18 11  1  0  0  0  0
 18 13  1  1  0  0  0
 21 20  1  0  0  0  0
 21 19  1  0  0  0  0
 22 23  1  0  0  0  0
 23 25  1  0  0  0  0
 24 26  1  0  0  0  0
 25 24  2  0  0  0  0
 26 28  1  0  0  0  0
 28 27  1  6  0  0  0
 28 29  1  0  0  0  0
 30 42  1  0  0  0  0
 31 40  1  0  0  0  0
 32 30  1  0  0  0  0
 34 37  1  0  0  0  0
 34 39  1  0  0  0  0
 35 36  1  0  0  0  0
 37 32  1  6  0  0  0
 37 38  1  0  0  0  0
 38 36  1  1  0  0  0
 38 40  1  0  0  0  0
 39 29  1  6  0  0  0
 39 31  1  0  0  0  0
 40 33  1  6  0  0  0
 41 42  2  0  0  0  0
 42 35  1  0  0  0  0
M  END
>  <MODEL>
3

>  <REMARK>
 VINA RESULT:      -8.2      1.183      1.591
  Name = 
  11 active torsions:
  status: ('A' for Active; 'I' for Inactive)
    1  A    between atoms: C_2  and  O_41
    2  A    between atoms: C_4  and  C_9
    3  A    between atoms: C_7  and  N_16
    4  A    between atoms: C_7  and  C_31
    5  A    between atoms: C_9  and  C_23
    6  A    between atoms: C_10  and  C_14
    7  A    between atoms: C_14  and  O_41
    8  A    between atoms: C_15  and  C_34
    9  A    between atoms: C_15  and  C_42
   10  A    between atoms: C_20  and  C_23
   11  A    between atoms: C_20  and  C_24
                            x       y       z     vdW  Elec       q    Type
                         _______ _______ _______ _____ _____    ______ ____

>  <TORSDO>
F 11

$$$$
=
 OpenBabel11062413373D

 42 48  0  0  1  0  0  0  0  0999 V2000
  190.5170  177.2030  138.7030 C   0  0  2  0  0  0  0  0  0  0  0  0
  188.6900  178.3060  137.3100 C   0  0  0  0  0  0  0  0  0  0  0  0
  191.5450  176.7140  137.7660 N   0  0  0  0  0  0  0  0  0  0  0  0
  189.2240  178.1840  136.0640 O   0  0  0  0  0  0  0  0  0  0  0  0
  188.1550  176.3880  138.7540 F   0  0  0  0  0  0  0  0  0  0  0  0
  190.1510  176.4180  137.4220 C   0  0  1  0  0  0  0  0  0  0  0  0
  187.9090  179.2370  137.6440 O   0  0  0  0  0  0  0  0  0  0  0  0
  189.1150  177.2180  138.1950 C   0  0  2  0  0  0  0  0  0  0  0  0
  190.0490  177.0400  136.0020 C   0  0  0  0  0  2  0  0  0  0  0  0
  192.1550  175.4430  138.1640 C   0  0  0  0  0  2  0  0  0  0  0  0
  194.4270  174.6180  137.4870 C   0  0  2  0  0  3  0  0  0  0  0  0
  194.9490  174.9180  138.6700 C   0  0  0  0  0  3  0  0  0  0  0  0
  195.6930  172.8360  138.1480 C   0  0  0  0  0  2  0  0  0  0  0  0
  193.0460  174.9330  137.0420 C   0  0  1  0  0  3  0  0  0  0  0  0
  192.5090  173.6620  136.5440 N   0  0  0  0  0  2  0  0  0  0  0  0
  195.7950  173.7980  139.0610 C   0  0  0  0  0  3  0  0  0  0  0  0
  193.5080  172.6200  136.8490 C   0  0  2  0  0  3  0  0  0  0  0  0
  194.8500  173.3090  137.0110 C   0  0  1  0  0  3  0  0  0  0  0  0
  193.5510  171.5580  135.7510 C   0  0  0  0  0  2  0  0  0  0  0  0
  195.2860  169.7880  135.8050 C   0  0  0  0  0  1  0  0  0  0  0  0
  193.9120  170.1850  136.2950 C   0  0  0  0  0  2  0  0  0  0  0  0
  190.5080  176.4240  139.8740 O   0  0  0  0  0  0  0  0  0  0  0  0
  190.4150  177.3350  140.9330 C   0  0  0  0  0  2  0  0  0  0  0  0
  191.5340  177.5570  143.1610 C   0  0  0  0  0  3  0  0  0  0  0  0
  191.5600  177.1510  141.8860 C   0  0  0  0  0  3  0  0  0  0  0  0
  190.3490  178.2370  143.7680 C   0  0  0  0  0  2  0  0  0  0  0  0
  190.9790  177.1450  145.7900 O   0  0  0  0  0  1  0  0  0  0  0  0
  189.8790  177.4830  145.0010 C   0  0  1  0  0  3  0  0  0  0  0  0
  188.9240  178.3540  145.8040 C   0  0  0  0  0  2  0  0  0  0  0  0
  185.8960  178.5760  142.1490 C   0  0  0  0  0  2  0  0  0  0  0  0
  186.9200  178.3710  147.3560 C   0  0  0  0  0  2  0  0  0  0  0  0
  186.7030  177.6840  143.1000 C   0  0  0  0  0  2  0  0  0  0  0  0
  184.5530  178.1860  146.9750 O   0  0  0  0  0  1  0  0  0  0  0  0
  187.0330  176.7330  145.4090 C   0  0  0  0  0  2  0  0  0  0  0  0
  183.7590  178.9880  143.6190 C   0  0  0  0  0  2  0  0  0  0  0  0
  184.7240  179.8210  144.4730 C   0  0  0  0  0  2  0  0  0  0  0  0
  186.1410  177.6250  144.5270 C   0  0  1  0  0  3  0  0  0  0  0  0
  185.8650  179.0230  145.1350 C   0  0  2  0  0  3  0  0  0  0  0  0
  187.8320  177.5110  146.4600 C   0  0  1  0  0  3  0  0  0  0  0  0
  185.6810  178.9520  146.6520 C   0  0  2  0  0  3  0  0  0  0  0  0
  183.7300  177.8650  141.5470 O   0  0  0  0  0  0  0  0  0  0  0  0
  184.4120  178.4480  142.3720 C   0  0  0  0  0  0  0  0  0  0  0  0
  1 22  1  1  0  0  0
  2  7  2  0  0  0  0
  2  8  1  0  0  0  0
  3 10  1  0  0  0  0
  3  1  1  0  0  0  0
  4  2  1  0  0  0  0
  6  9  1  6  0  0  0
  6  3  1  0  0  0  0
  6  8  1  0  0  0  0
  6  1  1  0  0  0  0
  8  1  1  0  0  0  0
  8  5  1  1  0  0  0
  9  4  1  0  0  0  0
 11 12  1  1  0  0  0
 12 16  2  0  0  0  0
 13 16  1  0  0  0  0
 14 11  1  0  0  0  0
 14 10  1  1  0  0  0
 15 17  1  0  0  0  0
 15 14  1  0  0  0  0
 17 19  1  6  0  0  0
 17 18  1  0  0  0  0
 18 11  1  0  0  0  0
 18 13  1  1  0  0  0
 19 21  1  0  0  0  0
 20 21  1  0  0  0  0
 22 23  1  0  0  0  0
 23 25  1  0  0  0  0
 24 26  1  0  0  0  0
 25 24  2  0  0  0  0
 26 28  1  0  0  0  0
 28 27  1  1  0  0  0
 28 29  1  0  0  0  0
 30 42  1  0  0  0  0
 30 32  1  0  0  0  0
 34 39  1  0  0  0  0
 35 36  1  0  0  0  0
 37 32  1  6  0  0  0
 37 38  1  0  0  0  0
 37 34  1  0  0  0  0
 38 36  1  6  0  0  0
 38 40  1  0  0  0  0
 39 29  1  6  0  0  0
 39 31  1  0  0  0  0
 40 33  1  6  0  0  0
 40 31  1  0  0  0  0
 41 42  2  0  0  0  0
 42 35  1  0  0  0  0
M  END
>  <MODEL>
4

>  <REMARK>
 VINA RESULT:      -8.0      3.952      7.122
  Name = 
  11 active torsions:
  status: ('A' for Active; 'I' for Inactive)
    1  A    between atoms: C_2  and  O_41
    2  A    between atoms: C_4  and  C_9
    3  A    between atoms: C_7  and  N_16
    4  A    between atoms: C_7  and  C_31
    5  A    between atoms: C_9  and  C_23
    6  A    between atoms: C_10  and  C_14
    7  A    between atoms: C_14  and  O_41
    8  A    between atoms: C_15  and  C_34
    9  A    between atoms: C_15  and  C_42
   10  A    between atoms: C_20  and  C_23
   11  A    between atoms: C_20  and  C_24
                            x       y       z     vdW  Elec       q    Type
                         _______ _______ _______ _____ _____    ______ ____

>  <TORSDO>
F 11

$$$$
=
 OpenBabel11062413373D

 42 48  0  0  1  0  0  0  0  0999 V2000
  188.3770  176.5100  137.7080 C   0  0  2  0  0  0  0  0  0  0  0  0
  190.0690  174.6780  137.1820 C   0  0  0  0  0  0  0  0  0  0  0  0
  187.0350  175.9450  137.4770 N   0  0  0  0  0  0  0  0  0  0  0  0
  189.2310  173.6460  136.8890 O   0  0  0  0  0  0  0  0  0  0  0  0
  190.1120  176.7940  135.9300 F   0  0  0  0  0  0  0  0  0  0  0  0
  188.0390  175.6960  136.4380 C   0  0  1  0  0  0  0  0  0  0  0  0
  191.2230  174.5210  137.6630 O   0  0  0  0  0  0  0  0  0  0  0  0
  189.4750  175.9760  136.8500 C   0  0  2  0  0  0  0  0  0  0  0  0
  188.0200  174.1440  136.3610 C   0  0  0  0  0  2  0  0  0  0  0  0
  186.0790  176.8990  136.9120 C   0  0  0  0  0  2  0  0  0  0  0  0
  184.1530  177.5180  138.3970 C   0  0  2  0  0  3  0  0  0  0  0  0
  184.8520  178.4710  139.0020 C   0  0  0  0  0  3  0  0  0  0  0  0
  182.8210  179.3700  138.5250 C   0  0  0  0  0  2  0  0  0  0  0  0
  184.6770  176.5580  137.3940 C   0  0  1  0  0  3  0  0  0  0  0  0
  183.7470  176.6460  136.2620 N   0  0  0  0  0  2  0  0  0  0  0  0
  183.9800  179.6310  139.1230 C   0  0  0  0  0  3  0  0  0  0  0  0
  182.8110  177.7470  136.5560 C   0  0  2  0  0  3  0  0  0  0  0  0
  182.8040  177.9530  138.0600 C   0  0  1  0  0  3  0  0  0  0  0  0
  181.4100  177.4380  136.0260 C   0  0  0  0  0  2  0  0  0  0  0  0
  179.1360  177.0110  136.9160 C   0  0  0  0  0  1  0  0  0  0  0  0
  180.5930  176.6180  137.0110 C   0  0  0  0  0  2  0  0  0  0  0  0
  188.3650  177.9030  137.5140 O   0  0  0  0  0  0  0  0  0  0  0  0
  189.1580  178.4340  138.5380 C   0  0  0  0  0  2  0  0  0  0  0  0
  188.8170  178.1610  141.0030 C   0  0  0  0  0  3  0  0  0  0  0  0
  188.3660  178.5580  139.8070 C   0  0  0  0  0  3  0  0  0  0  0  0
  190.1700  177.5540  141.1950 C   0  0  0  0  0  2  0  0  0  0  0  0
  191.6270  178.2630  142.9420 O   0  0  0  0  0  1  0  0  0  0  0  0
  190.5090  177.4720  142.6740 C   0  0  1  0  0  3  0  0  0  0  0  0
  189.3290  177.9610  143.5000 C   0  0  0  0  0  2  0  0  0  0  0  0
  184.7610  179.1870  143.0450 C   0  0  0  0  0  2  0  0  0  0  0  0
  188.8140  177.2500  145.8780 C   0  0  0  0  0  2  0  0  0  0  0  0
  185.8230  178.0930  142.8820 C   0  0  0  0  0  2  0  0  0  0  0  0
  186.7600  177.0010  147.1030 O   0  0  0  0  0  1  0  0  0  0  0  0
  187.3810  176.4220  143.9430 C   0  0  0  0  0  2  0  0  0  0  0  0
  184.1610  178.8610  145.5810 C   0  0  0  0  0  2  0  0  0  0  0  0
  185.5710  179.4220  145.8040 C   0  0  0  0  0  2  0  0  0  0  0  0
  186.3000  177.4850  144.2080 C   0  0  1  0  0  3  0  0  0  0  0  0
  186.7160  178.5470  145.2550 C   0  0  2  0  0  3  0  0  0  0  0  0
  188.7830  176.8470  144.3920 C   0  0  1  0  0  3  0  0  0  0  0  0
  187.5320  177.9290  146.3930 C   0  0  2  0  0  3  0  0  0  0  0  0
  182.6290  178.5450  143.8180 O   0  0  0  0  0  0  0  0  0  0  0  0
  183.7660  178.8570  144.1260 C   0  0  0  0  0  0  0  0  0  0  0  0
  1 22  1  6  0  0  0
  2  7  2  0  0  0  0
  3  1  1  0  0  0  0
  4  2  1  0  0  0  0
  6  9  1  1  0  0  0
  6  8  1  0  0  0  0
  6  3  1  0  0  0  0
  6  1  1  0  0  0  0
  8  5  1  6  0  0  0
  8  2  1  0  0  0  0
  8  1  1  0  0  0  0
  9  4  1  0  0  0  0
 10  3  1  0  0  0  0
 11 12  1  6  0  0  0
 12 16  2  0  0  0  0
 13 16  1  0  0  0  0
 14 10  1  6  0  0  0
 14 11  1  0  0  0  0
 15 17  1  0  0  0  0
 15 14  1  0  0  0  0
 17 19  1  1  0  0  0
 17 18  1  0  0  0  0
 18 11  1  0  0  0  0
 18 13  1  6  0  0  0
 19 21  1  0  0  0  0
 20 21  1  0  0  0  0
 22 23  1  0  0  0  0
 23 25  1  0  0  0  0
 24 26  1  0  0  0  0
 25 24  2  0  0  0  0
 26 28  1  0  0  0  0
 28 27  1  6  0  0  0
 28 29  1  0  0  0  0
 30 42  1  0  0  0  0
 31 40  1  0  0  0  0
 32 30  1  0  0  0  0
 34 37  1  0  0  0  0
 34 39  1  0  0  0  0
 35 36  1  0  0  0  0
 37 32  1  6  0  0  0
 37 38  1  0  0  0  0
 38 36  1  1  0  0  0
 38 40  1  0  0  0  0
 39 29  1  6  0  0  0
 39 31  1  0  0  0  0
 40 33  1  6  0  0  0
 41 42  2  0  0  0  0
 42 35  1  0  0  0  0
M  END
>  <MODEL>
5

>  <REMARK>
 VINA RESULT:      -8.0      1.485      1.738
  Name = 
  11 active torsions:
  status: ('A' for Active; 'I' for Inactive)
    1  A    between atoms: C_2  and  O_41
    2  A    between atoms: C_4  and  C_9
    3  A    between atoms: C_7  and  N_16
    4  A    between atoms: C_7  and  C_31
    5  A    between atoms: C_9  and  C_23
    6  A    between atoms: C_10  and  C_14
    7  A    between atoms: C_14  and  O_41
    8  A    between atoms: C_15  and  C_34
    9  A    between atoms: C_15  and  C_42
   10  A    between atoms: C_20  and  C_23
   11  A    between atoms: C_20  and  C_24
                            x       y       z     vdW  Elec       q    Type
                         _______ _______ _______ _____ _____    ______ ____

>  <TORSDO>
F 11

$$$$
=
 OpenBabel11062413373D

 42 48  0  0  1  0  0  0  0  0999 V2000
  185.1180  178.1800  143.1300 C   0  0  2  0  0  0  0  0  0  0  0  0
  183.7350  179.0200  145.0990 C   0  0  0  0  0  0  0  0  0  0  0  0
  186.1620  177.2930  143.6760 N   0  0  0  0  0  0  0  0  0  0  0  0
  184.3270  178.3440  146.1210 O   0  0  0  0  0  0  0  0  0  0  0  0
  184.9230  180.6170  143.6540 F   0  0  0  0  0  0  0  0  0  0  0  0
  185.9640  178.5740  144.3630 C   0  0  1  0  0  0  0  0  0  0  0  0
  182.5250  179.3740  145.1080 O   0  0  0  0  0  0  0  0  0  0  0  0
  184.6760  179.3000  144.0110 C   0  0  2  0  0  0  0  0  0  0  0  0
  185.6840  178.1000  145.8160 C   0  0  0  0  0  2  0  0  0  0  0  0
  187.4460  177.3880  142.9790 C   0  0  0  0  0  2  0  0  0  0  0  0
  189.7580  176.4130  142.9330 C   0  0  2  0  0  3  0  0  0  0  0  0
  190.0210  176.9510  141.7480 C   0  0  0  0  0  3  0  0  0  0  0  0
  191.8400  177.3450  143.0500 C   0  0  0  0  0  2  0  0  0  0  0  0
  188.4500  176.4530  143.6340 C   0  0  1  0  0  3  0  0  0  0  0  0
  188.7570  176.9460  144.9820 N   0  0  0  0  0  2  0  0  0  0  0  0
  191.3700  177.4980  141.8160 C   0  0  0  0  0  3  0  0  0  0  0  0
  190.1820  177.3280  144.9890 C   0  0  2  0  0  3  0  0  0  0  0  0
  190.8650  176.5660  143.8680 C   0  0  1  0  0  3  0  0  0  0  0  0
  190.8260  177.0290  146.3430 C   0  0  0  0  0  2  0  0  0  0  0  0
  192.4270  175.6280  147.6160 C   0  0  0  0  0  1  0  0  0  0  0  0
  191.9380  175.9980  146.2340 C   0  0  0  0  0  2  0  0  0  0  0  0
  185.5510  178.7680  141.9280 O   0  0  0  0  0  0  0  0  0  0  0  0
  184.3990  178.9300  141.1500 C   0  0  0  0  0  2  0  0  0  0  0  0
  183.1890  177.1640  139.8520 C   0  0  0  0  0  3  0  0  0  0  0  0
  183.6690  177.6240  141.0130 C   0  0  0  0  0  3  0  0  0  0  0  0
  183.3370  177.9090  138.5640 C   0  0  0  0  0  2  0  0  0  0  0  0
  183.4070  177.5010  136.2180 O   0  0  0  0  0  1  0  0  0  0  0  0
  183.7740  176.9680  137.4540 C   0  0  1  0  0  3  0  0  0  0  0  0
  185.2840  176.7840  137.5010 C   0  0  0  0  0  2  0  0  0  0  0  0
  189.2180  175.1970  135.3610 C   0  0  0  0  0  2  0  0  0  0  0  0
  186.7450  178.3910  138.8090 C   0  0  0  0  0  2  0  0  0  0  0  0
  188.0480  176.1870  135.3330 C   0  0  0  0  0  2  0  0  0  0  0  0
  189.0650  179.0000  138.6410 O   0  0  0  0  0  1  0  0  0  0  0  0
  186.9360  178.2430  136.2740 C   0  0  0  0  0  2  0  0  0  0  0  0
  190.8890  176.5150  136.9000 C   0  0  0  0  0  2  0  0  0  0  0  0
  189.8640  176.1890  137.9920 C   0  0  0  0  0  2  0  0  0  0  0  0
  188.1670  177.3220  136.3590 C   0  0  1  0  0  3  0  0  0  0  0  0
  188.4730  176.8240  137.7930 C   0  0  2  0  0  3  0  0  0  0  0  0
  186.0030  178.1330  137.4850 C   0  0  1  0  0  3  0  0  0  0  0  0
  188.2070  177.9110  138.8370 C   0  0  2  0  0  3  0  0  0  0  0  0
  191.3290  175.9690  134.6490 O   0  0  0  0  0  0  0  0  0  0  0  0
  190.5400  175.8850  135.5750 C   0  0  0  0  0  0  0  0  0  0  0  0
  1 22  1  6  0  0  0
  1  3  1  0  0  0  0
  1  8  1  0  0  0  0
  1  6  1  0  0  0  0
  2  7  2  0  0  0  0
  2  4  1  0  0  0  0
  3  6  1  0  0  0  0
  6  9  1  1  0  0  0
  8  5  1  6  0  0  0
  8  6  1  0  0  0  0
  8  2  1  0  0  0  0
  9  4  1  0  0  0  0
 10  3  1  0  0  0  0
 11 12  1  6  0  0  0
 11 14  1  0  0  0  0
 11 18  1  0  0  0  0
 12 16  2  0  0  0  0
 14 10  1  6  0  0  0
 14 15  1  0  0  0  0
 15 17  1  0  0  0  0
 16 13  1  0  0  0  0
 17 19  1  1  0  0  0
 18 13  1  6  0  0  0
 18 17  1  0  0  0  0
 21 19  1  0  0  0  0
 21 20  1  0  0  0  0
 23 22  1  0  0  0  0
 24 25  2  0  0  0  0
 25 23  1  0  0  0  0
 26 24  1  0  0  0  0
 28 27  1  6  0  0  0
 28 29  1  0  0  0  0
 28 26  1  0  0  0  0
 30 42  1  0  0  0  0
 31 40  1  0  0  0  0
 32 30  1  0  0  0  0
 34 37  1  0  0  0  0
 34 39  1  0  0  0  0
 35 36  1  0  0  0  0
 37 32  1  6  0  0  0
 37 38  1  0  0  0  0
 38 36  1  6  0  0  0
 38 40  1  0  0  0  0
 39 29  1  1  0  0  0
 39 31  1  0  0  0  0
 40 33  1  6  0  0  0
 41 42  2  0  0  0  0
 42 35  1  0  0  0  0
M  END
>  <MODEL>
6

>  <REMARK>
 VINA RESULT:      -7.9      2.709      9.347
  Name = 
  11 active torsions:
  status: ('A' for Active; 'I' for Inactive)
    1  A    between atoms: C_2  and  O_41
    2  A    between atoms: C_4  and  C_9
    3  A    between atoms: C_7  and  N_16
    4  A    between atoms: C_7  and  C_31
    5  A    between atoms: C_9  and  C_23
    6  A    between atoms: C_10  and  C_14
    7  A    between atoms: C_14  and  O_41
    8  A    between atoms: C_15  and  C_34
    9  A    between atoms: C_15  and  C_42
   10  A    between atoms: C_20  and  C_23
   11  A    between atoms: C_20  and  C_24
                            x       y       z     vdW  Elec       q    Type
                         _______ _______ _______ _____ _____    ______ ____

>  <TORSDO>
F 11

$$$$
=
 OpenBabel11062413373D

 42 48  0  0  1  0  0  0  0  0999 V2000
  185.2370  177.9400  143.4330 C   0  0  2  0  0  0  0  0  0  0  0  0
  183.9660  178.9940  145.3740 C   0  0  0  0  0  0  0  0  0  0  0  0
  186.4070  177.2470  144.0010 N   0  0  0  0  0  0  0  0  0  0  0  0
  184.7110  178.5540  146.4240 O   0  0  0  0  0  0  0  0  0  0  0  0
  184.8570  180.4070  143.5690 F   0  0  0  0  0  0  0  0  0  0  0  0
  186.1500  178.6060  144.4870 C   0  0  1  0  0  0  0  0  0  0  0  0
  182.7340  179.2470  145.4530 O   0  0  0  0  0  0  0  0  0  0  0  0
  184.7720  179.1560  144.1610 C   0  0  2  0  0  0  0  0  0  0  0  0
  186.0510  178.3700  146.0190 C   0  0  0  0  0  2  0  0  0  0  0  0
  187.6060  177.3220  143.1650 C   0  0  0  0  0  2  0  0  0  0  0  0
  189.9400  176.4240  142.9510 C   0  0  2  0  0  3  0  0  0  0  0  0
  190.0710  176.9020  141.7190 C   0  0  0  0  0  3  0  0  0  0  0  0
  191.9870  177.4300  142.8200 C   0  0  0  0  0  2  0  0  0  0  0  0
  188.7030  176.4590  143.7710 C   0  0  1  0  0  3  0  0  0  0  0  0
  189.1150  177.0380  145.0550 N   0  0  0  0  0  2  0  0  0  0  0  0
  191.3980  177.4970  141.6300 C   0  0  0  0  0  3  0  0  0  0  0  0
  190.5180  177.4670  144.9060 C   0  0  2  0  0  3  0  0  0  0  0  0
  191.1220  176.6660  143.7670 C   0  0  1  0  0  3  0  0  0  0  0  0
  191.2970  177.2670  146.2070 C   0  0  0  0  0  2  0  0  0  0  0  0
  192.4310  175.6280  147.6810 C   0  0  0  0  0  1  0  0  0  0  0  0
  191.9700  175.9050  146.2680 C   0  0  0  0  0  2  0  0  0  0  0  0
  185.4990  178.3450  142.1110 O   0  0  0  0  0  0  0  0  0  0  0  0
  184.4140  177.8880  141.3540 C   0  0  0  0  0  2  0  0  0  0  0  0
  184.2390  179.2340  139.2510 C   0  0  0  0  0  3  0  0  0  0  0  0
  183.8560  178.9980  140.5110 C   0  0  0  0  0  3  0  0  0  0  0  0
  185.2670  178.4050  138.5500 C   0  0  0  0  0  2  0  0  0  0  0  0
  183.3420  177.8710  137.2530 O   0  0  0  0  0  1  0  0  0  0  0  0
  184.5990  177.3980  137.6300 C   0  0  1  0  0  3  0  0  0  0  0  0
  185.4550  177.1860  136.3900 C   0  0  0  0  0  2  0  0  0  0  0  0
  189.8760  177.5410  138.0950 C   0  0  0  0  0  2  0  0  0  0  0  0
  186.3070  175.4200  134.7830 C   0  0  0  0  0  2  0  0  0  0  0  0
  188.5040  176.8660  138.2060 C   0  0  0  0  0  2  0  0  0  0  0  0
  188.4010  174.2530  134.5940 O   0  0  0  0  0  1  0  0  0  0  0  0
  186.8100  175.2510  137.2740 C   0  0  0  0  0  2  0  0  0  0  0  0
  190.9760  176.0260  136.2530 C   0  0  0  0  0  2  0  0  0  0  0  0
  189.9520  176.7040  135.3350 C   0  0  0  0  0  2  0  0  0  0  0  0
  188.2160  175.8490  137.0930 C   0  0  1  0  0  3  0  0  0  0  0  0
  188.4770  176.4070  135.6720 C   0  0  2  0  0  3  0  0  0  0  0  0
  185.8060  175.7090  136.2100 C   0  0  1  0  0  3  0  0  0  0  0  0
  187.8300  175.5330  134.5950 C   0  0  2  0  0  3  0  0  0  0  0  0
  191.7880  176.2100  138.4580 O   0  0  0  0  0  0  0  0  0  0  0  0
  190.9490  176.5790  137.6560 C   0  0  0  0  0  0  0  0  0  0  0  0
  1 22  1  6  0  0  0
  1  3  1  0  0  0  0
  1  8  1  0  0  0  0
  1  6  1  0  0  0  0
  2  7  2  0  0  0  0
  2  4  1  0  0  0  0
  3  6  1  0  0  0  0
  6  9  1  1  0  0  0
  8  5  1  6  0  0  0
  8  6  1  0  0  0  0
  8  2  1  0  0  0  0
  9  4  1  0  0  0  0
 10  3  1  0  0  0  0
 11 12  1  6  0  0  0
 11 18  1  0  0  0  0
 11 14  1  0  0  0  0
 14 10  1  6  0  0  0
 14 15  1  0  0  0  0
 16 12  2  0  0  0  0
 16 13  1  0  0  0  0
 17 15  1  0  0  0  0
 17 19  1  1  0  0  0
 18 13  1  6  0  0  0
 18 17  1  0  0  0  0
 19 21  1  0  0  0  0
 21 20  1  0  0  0  0
 23 22  1  0  0  0  0
 24 25  2  0  0  0  0
 25 23  1  0  0  0  0
 26 24  1  0  0  0  0
 28 27  1  6  0  0  0
 28 26  1  0  0  0  0
 29 28  1  0  0  0  0
 30 32  1  0  0  0  0
 31 39  1  0  0  0  0
 35 42  1  0  0  0  0
 36 35  1  0  0  0  0
 37 34  1  6  0  0  0
 37 32  1  0  0  0  0
 38 36  1  6  0  0  0
 38 37  1  0  0  0  0
 39 29  1  6  0  0  0
 39 34  1  0  0  0  0
 40 33  1  1  0  0  0
 40 31  1  0  0  0  0
 40 38  1  0  0  0  0
 42 30  1  0  0  0  0
 42 41  2  0  0  0  0
M  END
>  <MODEL>
7

>  <REMARK>
 VINA RESULT:      -7.9      2.939      9.617
  Name = 
  11 active torsions:
  status: ('A' for Active; 'I' for Inactive)
    1  A    between atoms: C_2  and  O_41
    2  A    between atoms: C_4  and  C_9
    3  A    between atoms: C_7  and  N_16
    4  A    between atoms: C_7  and  C_31
    5  A    between atoms: C_9  and  C_23
    6  A    between atoms: C_10  and  C_14
    7  A    between atoms: C_14  and  O_41
    8  A    between atoms: C_15  and  C_34
    9  A    between atoms: C_15  and  C_42
   10  A    between atoms: C_20  and  C_23
   11  A    between atoms: C_20  and  C_24
                            x       y       z     vdW  Elec       q    Type
                         _______ _______ _______ _____ _____    ______ ____

>  <TORSDO>
F 11

$$$$
=
 OpenBabel11062413373D

 42 48  0  0  1  0  0  0  0  0999 V2000
  182.2620  179.0060  141.1000 C   0  0  2  0  0  0  0  0  0  0  0  0
  179.9660  179.9710  141.6410 C   0  0  0  0  0  0  0  0  0  0  0  0
  182.2100  178.5070  139.7140 N   0  0  0  0  0  0  0  0  0  0  0  0
  179.3420  179.8070  140.4430 O   0  0  0  0  0  0  0  0  0  0  0  0
  180.8680  178.1110  142.9730 F   0  0  0  0  0  0  0  0  0  0  0  0
  181.0860  178.1450  140.5830 C   0  0  1  0  0  0  0  0  0  0  0  0
  179.6780  180.8900  142.4550 O   0  0  0  0  0  0  0  0  0  0  0  0
  180.9860  178.9450  141.8710 C   0  0  2  0  0  0  0  0  0  0  0  0
  179.8820  178.6910  139.7680 C   0  0  0  0  0  2  0  0  0  0  0  0
  182.9800  177.2810  139.4960 C   0  0  0  0  0  2  0  0  0  0  0  0
  184.1770  177.2020  137.2910 C   0  0  2  0  0  3  0  0  0  0  0  0
  185.1980  177.9110  137.7570 C   0  0  0  0  0  3  0  0  0  0  0  0
  186.0960  176.1740  136.6000 C   0  0  0  0  0  2  0  0  0  0  0  0
  182.9220  176.9000  138.0240 C   0  0  1  0  0  3  0  0  0  0  0  0
  182.7580  175.4460  137.9120 N   0  0  0  0  0  2  0  0  0  0  0  0
  186.4160  177.2770  137.2700 C   0  0  0  0  0  3  0  0  0  0  0  0
  183.9760  174.9210  137.2670 C   0  0  2  0  0  3  0  0  0  0  0  0
  184.6120  176.0620  136.4950 C   0  0  1  0  0  3  0  0  0  0  0  0
  183.6510  173.7390  136.3530 C   0  0  0  0  0  2  0  0  0  0  0  0
  185.4870  172.6290  137.5960 C   0  0  0  0  0  1  0  0  0  0  0  0
  184.1490  172.4200  136.9230 C   0  0  0  0  0  2  0  0  0  0  0  0
  183.2120  178.2870  141.8480 O   0  0  0  0  0  0  0  0  0  0  0  0
  183.9290  179.2470  142.5710 C   0  0  0  0  0  2  0  0  0  0  0  0
  186.2630  178.3440  142.5880 C   0  0  0  0  0  3  0  0  0  0  0  0
  185.1240  178.6230  143.2320 C   0  0  0  0  0  3  0  0  0  0  0  0
  186.4610  178.6320  141.1340 C   0  0  0  0  0  2  0  0  0  0  0  0
  188.3170  179.0020  139.6880 O   0  0  0  0  0  1  0  0  0  0  0  0
  187.8290  178.1510  140.6800 C   0  0  1  0  0  3  0  0  0  0  0  0
  188.7890  178.1410  141.8600 C   0  0  0  0  0  2  0  0  0  0  0  0
  187.9530  177.9650  146.5340 C   0  0  0  0  0  2  0  0  0  0  0  0
  190.9120  176.8200  142.2760 C   0  0  0  0  0  2  0  0  0  0  0  0
  187.7420  177.3120  145.1630 C   0  0  0  0  0  2  0  0  0  0  0  0
  191.7880  175.6970  144.2130 O   0  0  0  0  0  1  0  0  0  0  0  0
  188.6870  176.0190  143.2190 C   0  0  0  0  0  2  0  0  0  0  0  0
  190.2870  176.9420  147.1670 C   0  0  0  0  0  2  0  0  0  0  0  0
  190.7930  177.8500  146.0390 C   0  0  0  0  0  2  0  0  0  0  0  0
  188.9890  176.6150  144.6050 C   0  0  1  0  0  3  0  0  0  0  0  0
  190.2550  177.5070  144.6350 C   0  0  2  0  0  3  0  0  0  0  0  0
  189.3880  176.7500  142.0690 C   0  0  1  0  0  3  0  0  0  0  0  0
  191.3630  176.9460  143.7420 C   0  0  2  0  0  3  0  0  0  0  0  0
  188.3070  176.5480  148.3850 O   0  0  0  0  0  0  0  0  0  0  0  0
  188.8150  177.1240  147.4380 C   0  0  0  0  0  0  0  0  0  0  0  0
  1 22  1  1  0  0  0
  1  8  1  0  0  0  0
  2  8  1  0  0  0  0
  2  7  2  0  0  0  0
  3  6  1  0  0  0  0
  3  1  1  0  0  0  0
  4  2  1  0  0  0  0
  6  9  1  6  0  0  0
  6  1  1  0  0  0  0
  6  8  1  0  0  0  0
  8  5  1  1  0  0  0
  9  4  1  0  0  0  0
 10  3  1  0  0  0  0
 11 12  1  1  0  0  0
 11 14  1  0  0  0  0
 13 16  1  0  0  0  0
 14 10  1  1  0  0  0
 15 14  1  0  0  0  0
 16 12  2  0  0  0  0
 17 19  1  6  0  0  0
 17 15  1  0  0  0  0
 18 13  1  1  0  0  0
 18 17  1  0  0  0  0
 18 11  1  0  0  0  0
 19 21  1  0  0  0  0
 21 20  1  0  0  0  0
 22 23  1  0  0  0  0
 23 25  1  0  0  0  0
 24 25  2  0  0  0  0
 26 24  1  0  0  0  0
 28 27  1  6  0  0  0
 28 26  1  0  0  0  0
 28 29  1  0  0  0  0
 30 42  1  0  0  0  0
 31 40  1  0  0  0  0
 32 30  1  0  0  0  0
 35 42  1  0  0  0  0
 36 35  1  0  0  0  0
 37 34  1  6  0  0  0
 37 38  1  0  0  0  0
 37 32  1  0  0  0  0
 38 36  1  1  0  0  0
 39 29  1  1  0  0  0
 39 31  1  0  0  0  0
 39 34  1  0  0  0  0
 40 33  1  1  0  0  0
 40 38  1  0  0  0  0
 42 41  2  0  0  0  0
M  END
>  <MODEL>
8

>  <REMARK>
 VINA RESULT:      -7.8      2.805      6.067
  Name = 
  11 active torsions:
  status: ('A' for Active; 'I' for Inactive)
    1  A    between atoms: C_2  and  O_41
    2  A    between atoms: C_4  and  C_9
    3  A    between atoms: C_7  and  N_16
    4  A    between atoms: C_7  and  C_31
    5  A    between atoms: C_9  and  C_23
    6  A    between atoms: C_10  and  C_14
    7  A    between atoms: C_14  and  O_41
    8  A    between atoms: C_15  and  C_34
    9  A    between atoms: C_15  and  C_42
   10  A    between atoms: C_20  and  C_23
   11  A    between atoms: C_20  and  C_24
                            x       y       z     vdW  Elec       q    Type
                         _______ _______ _______ _____ _____    ______ ____

>  <TORSDO>
F 11

$$$$
=
 OpenBabel11062413373D

 42 48  0  0  1  0  0  0  0  0999 V2000
  190.0630  177.4420  138.6200 C   0  0  2  0  0  0  0  0  0  0  0  0
  192.5390  176.8680  138.8010 C   0  0  0  0  0  0  0  0  0  0  0  0
  189.6760  178.1070  139.8780 N   0  0  0  0  0  0  0  0  0  0  0  0
  192.8290  177.4080  140.0160 O   0  0  0  0  0  0  0  0  0  0  0  0
  190.8790  175.0840  138.4650 F   0  0  0  0  0  0  0  0  0  0  0  0
  190.4740  176.8830  140.0010 C   0  0  1  0  0  0  0  0  0  0  0  0
  193.3830  176.7530  137.8710 O   0  0  0  0  0  0  0  0  0  0  0  0
  191.1460  176.4210  138.7190 C   0  0  2  0  0  0  0  0  0  0  0  0
  191.6810  177.3900  140.8370 C   0  0  0  0  0  2  0  0  0  0  0  0
  188.3260  177.7730  140.3350 C   0  0  0  0  0  2  0  0  0  0  0  0
  186.5760  178.9520  141.6930 C   0  0  2  0  0  3  0  0  0  0  0  0
  185.6680  178.8330  140.7310 C   0  0  0  0  0  3  0  0  0  0  0  0
  184.6320  178.2530  142.6670 C   0  0  0  0  0  2  0  0  0  0  0  0
  188.0050  178.5640  141.5940 C   0  0  1  0  0  3  0  0  0  0  0  0
  188.2510  177.7170  142.7670 N   0  0  0  0  0  2  0  0  0  0  0  0
  184.4200  178.4350  141.3670 C   0  0  0  0  0  3  0  0  0  0  0  0
  186.9490  177.5030  143.4260 C   0  0  2  0  0  3  0  0  0  0  0  0
  186.0320  178.6380  143.0080 C   0  0  1  0  0  3  0  0  0  0  0  0
  187.1040  177.4390  144.9460 C   0  0  0  0  0  2  0  0  0  0  0  0
  188.7340  177.2300  146.8020 C   0  0  0  0  0  1  0  0  0  0  0  0
  188.5290  177.7280  145.3900 C   0  0  0  0  0  2  0  0  0  0  0  0
  188.9560  176.7920  138.0460 O   0  0  0  0  0  0  0  0  0  0  0  0
  188.7820  177.3820  136.7880 C   0  0  0  0  0  2  0  0  0  0  0  0
  186.4160  178.1630  137.0300 C   0  0  0  0  0  3  0  0  0  0  0  0
  187.7130  178.4350  136.8440 C   0  0  0  0  0  3  0  0  0  0  0  0
  185.9000  176.7710  137.2080 C   0  0  0  0  0  2  0  0  0  0  0  0
  184.0890  175.5410  136.2670 O   0  0  0  0  0  1  0  0  0  0  0  0
  184.4050  176.7220  136.9400 C   0  0  1  0  0  3  0  0  0  0  0  0
  183.6450  176.7760  138.2570 C   0  0  0  0  0  2  0  0  0  0  0  0
  181.7660  181.1160  138.7190 C   0  0  0  0  0  2  0  0  0  0  0  0
  181.5790  175.8520  139.4000 C   0  0  0  0  0  2  0  0  0  0  0  0
  181.9170  179.8640  137.8450 C   0  0  0  0  0  2  0  0  0  0  0  0
  179.4810  176.8390  140.0360 O   0  0  0  0  0  1  0  0  0  0  0  0
  181.3600  177.4440  137.4250 C   0  0  0  0  0  2  0  0  0  0  0  0
  179.7670  180.3610  140.2460 C   0  0  0  0  0  2  0  0  0  0  0  0
  180.8090  179.4010  140.8330 C   0  0  0  0  0  2  0  0  0  0  0  0
  181.1200  178.6530  138.3470 C   0  0  1  0  0  3  0  0  0  0  0  0
  181.3520  178.3460  139.8480 C   0  0  2  0  0  3  0  0  0  0  0  0
  182.1940  176.3330  138.0730 C   0  0  1  0  0  3  0  0  0  0  0  0
  180.8660  176.9430  140.2180 C   0  0  2  0  0  3  0  0  0  0  0  0
  179.6650  182.1840  138.7550 O   0  0  0  0  0  0  0  0  0  0  0  0
  180.3560  181.2930  139.2180 C   0  0  0  0  0  0  0  0  0  0  0  0
  1 22  1  6  0  0  0
  1  8  1  0  0  0  0
  1  3  1  0  0  0  0
  1  6  1  0  0  0  0
  2  4  1  0  0  0  0
  3  6  1  0  0  0  0
  3 10  1  0  0  0  0
  4  9  1  0  0  0  0
  6  9  1  6  0  0  0
  7  2  2  0  0  0  0
  8  5  1  6  0  0  0
  8  2  1  0  0  0  0
  8  6  1  0  0  0  0
 11 12  1  6  0  0  0
 11 18  1  0  0  0  0
 12 16  2  0  0  0  0
 14 10  1  6  0  0  0
 14 11  1  0  0  0  0
 14 15  1  0  0  0  0
 15 17  1  0  0  0  0
 16 13  1  0  0  0  0
 17 19  1  1  0  0  0
 18 13  1  6  0  0  0
 18 17  1  0  0  0  0
 19 21  1  0  0  0  0
 21 20  1  0  0  0  0
 23 25  1  0  0  0  0
 23 22  1  0  0  0  0
 24 26  1  0  0  0  0
 25 24  2  0  0  0  0
 28 27  1  1  0  0  0
 28 26  1  0  0  0  0
 28 29  1  0  0  0  0
 30 42  1  0  0  0  0
 31 40  1  0  0  0  0
 32 37  1  0  0  0  0
 32 30  1  0  0  0  0
 34 39  1  0  0  0  0
 35 36  1  0  0  0  0
 37 34  1  6  0  0  0
 37 38  1  0  0  0  0
 38 40  1  0  0  0  0
 38 36  1  1  0  0  0
 39 29  1  1  0  0  0
 39 31  1  0  0  0  0
 40 33  1  6  0  0  0
 41 42  2  0  0  0  0
 42 35  1  0  0  0  0
M  END
>  <MODEL>
9

>  <REMARK>
 VINA RESULT:      -7.8      2.646      6.959
  Name = 
  11 active torsions:
  status: ('A' for Active; 'I' for Inactive)
    1  A    between atoms: C_2  and  O_41
    2  A    between atoms: C_4  and  C_9
    3  A    between atoms: C_7  and  N_16
    4  A    between atoms: C_7  and  C_31
    5  A    between atoms: C_9  and  C_23
    6  A    between atoms: C_10  and  C_14
    7  A    between atoms: C_14  and  O_41
    8  A    between atoms: C_15  and  C_34
    9  A    between atoms: C_15  and  C_42
   10  A    between atoms: C_20  and  C_23
   11  A    between atoms: C_20  and  C_24
                            x       y       z     vdW  Elec       q    Type
                         _______ _______ _______ _____ _____    ______ ____

>  <TORSDO>
F 11

$$$$
