=
 OpenBabel11062416123D

 67 71  0  0  1  0  0  0  0  0999 V2000
  184.8180  178.3810  138.8400 C   0  0  0  0  0  3  0  0  0  0  0  0
  184.2240  178.0060  139.9970 C   0  0  0  0  0  0  0  0  0  0  0  0
  183.3370  175.7760  138.5230 N   0  0  0  0  0  0  0  0  0  0  0  0
  179.7090  176.8430  139.4500 C   0  0  0  0  0  3  0  0  0  0  0  0
  181.9210  178.4470  140.8330 C   0  0  0  0  0  3  0  0  0  0  0  0
  181.6840  174.3360  137.6430 N   0  0  0  0  0  0  0  0  0  0  0  0
  183.0470  174.7460  137.7970 C   0  0  0  0  0  3  0  0  0  0  0  0
  180.6780  175.1150  138.2460 N   0  0  0  0  0  0  0  0  0  0  0  0
  180.6090  178.5480  140.9790 C   0  0  0  0  0  3  0  0  0  0  0  0
  179.6050  177.8320  140.2710 N   0  0  0  0  0  0  0  0  0  0  0  0
  182.3420  176.5720  139.1940 C   0  0  0  0  0  0  0  0  0  0  0  0
  180.9180  176.1500  138.9960 C   0  0  0  0  0  0  0  0  0  0  0  0
  182.7720  177.6150  139.9580 C   0  0  0  0  0  0  0  0  0  0  0  0
  181.3270  173.3730  136.5850 C   0  0  2  0  0  0  0  0  0  0  0  0
  179.9430  173.4100  136.4190 O   0  0  0  0  0  1  0  0  0  0  0  0
  181.7120  171.9290  136.9880 C   0  0  1  0  0  3  0  0  0  0  0  0
  180.8220  171.3940  137.9300 O   0  0  0  0  0  1  0  0  0  0  0  0
  183.0950  170.0160  136.1950 C   0  0  0  0  0  1  0  0  0  0  0  0
  180.7470  170.1640  135.4240 C   0  0  0  0  0  1  0  0  0  0  0  0
  181.9750  170.9640  135.8240 C   0  0  0  0  0  3  0  0  0  0  0  0
  181.3130  174.8590  134.6640 O   0  0  0  0  0  1  0  0  0  0  0  0
  181.9590  173.7650  135.2410 C   0  0  0  0  0  2  0  0  0  0  0  0
  186.1820  178.6370  138.6230 O   0  0  0  0  0  0  0  0  0  0  0  0
  187.0840  177.7520  137.9680 C   0  0  0  0  0  2  0  0  0  0  0  0
  186.8300  177.7420  136.4690 C   0  0  2  0  0  3  0  0  0  0  0  0
  186.7560  176.3080  135.9570 C   0  0  0  0  0  2  0  0  0  0  0  0
  186.6310  175.4020  137.0160 O   0  0  0  0  0  0  0  0  0  0  0  0
  186.2930  174.1940  136.4060 C   0  0  0  0  0  2  0  0  0  0  0  0
  188.6590  173.2060  136.6960 C   0  0  0  0  0  1  0  0  0  0  0  0
  187.5770  173.3560  134.6160 O   0  0  0  0  0  0  0  0  0  0  0  0
  187.5120  173.5650  135.8180 C   0  0  0  0  0  0  0  0  0  0  0  0
  187.9400  178.4940  135.7530 C   0  0  0  0  0  2  0  0  0  0  0  0
  189.4930  177.0300  134.6930 O   0  0  0  0  0  0  0  0  0  0  0  0
  189.1970  177.6970  135.7180 C   0  0  0  0  0  0  0  0  0  0  0  0
  190.0370  177.6520  136.8700 N   0  0  0  0  0  0  0  0  0  0  0  0
  191.0890  176.7320  136.9500 N   0  0  0  0  0  0  0  0  0  0  0  0
  191.9040  176.6360  138.1160 C   0  0  0  0  0  0  0  0  0  0  0  0
  191.2060  176.8390  139.5880 S   0  0  0  0  0  0  0  0  0  0  0  0
  193.2920  176.3000  137.9910 N   0  0  0  0  0  2  0  0  0  0  0  0
  193.7800  174.9330  138.0170 C   0  0  0  0  0  2  0  0  0  0  0  0
  193.0180  173.2190  136.4210 C   0  0  0  0  0  2  0  0  0  0  0  0
  193.9220  174.4220  136.5980 C   0  0  0  0  0  3  0  0  0  0  0  0
  194.5020  173.0200  136.6320 C   0  0  0  0  0  2  0  0  0  0  0  0
  185.0010  177.8470  141.2770 C   0  0  0  0  0  2  0  0  0  0  0  0
  184.7510  179.0090  142.2410 C   0  0  0  0  0  2  0  0  0  0  0  0
  184.6180  178.5890  143.7040 C   0  0  2  0  0  3  0  0  0  0  0  0
  184.6160  179.3060  146.6010 C   0  0  0  0  0  2  0  0  0  0  0  0
  185.5980  178.1260  146.6400 C   0  0  1  0  0  3  0  0  0  0  0  0
  183.4970  179.0030  145.8100 O   0  0  0  0  0  0  0  0  0  0  0  0
  183.7650  179.5550  144.5470 C   0  0  0  0  0  2  0  0  0  0  0  0
  185.7400  177.4570  145.2660 C   0  0  0  0  0  2  0  0  0  0  0  0
  185.8940  178.4250  144.2630 O   0  0  0  0  0  0  0  0  0  0  0  0
  186.9490  178.6240  147.1400 C   0  0  0  0  0  2  0  0  0  0  0  0
  187.8270  177.4780  147.6280 C   0  0  0  0  0  2  0  0  0  0  0  0
  189.2610  177.6630  147.2350 C   0  0  0  0  0  0  0  0  0  0  0  0
  189.9300  178.5270  147.7790 O   0  0  0  0  0  0  0  0  0  0  0  0
  189.9110  176.7660  146.2110 C   0  0  1  0  0  3  0  0  0  0  0  0
  188.4970  178.4480  141.6250 S   0  0  0  0  0  0  0  0  0  0  0  0
  188.9910  177.2250  143.9810 N   0  0  0  0  0  0  0  0  0  0  0  0
  190.6220  178.7400  143.2580 N   0  0  0  0  0  0  0  0  0  0  0  0
  189.9500  177.3800  144.8380 C   0  0  0  0  0  0  0  0  0  0  0  0
  190.9440  178.3170  144.4110 N   0  0  0  0  0  0  0  0  0  0  0  0
  189.4180  178.0720  142.9250 C   0  0  0  0  0  0  0  0  0  0  0  0
  192.0370  177.2330  147.1900 F   0  0  0  0  0  0  0  0  0  0  0  0
  191.2620  176.2080  146.6780 C   0  0  0  0  0  0  0  0  0  0  0  0
  191.0810  175.2340  147.6620 O   0  0  0  0  0  1  0  0  0  0  0  0
  191.9270  175.6460  145.6030 F   0  0  0  0  0  0  0  0  0  0  0  0
  1  2  2  0  0  0  0
  2 44  1  0  0  0  0
  3 11  1  0  0  0  0
  4 10  2  0  0  0  0
  5  9  2  0  0  0  0
  6  7  1  0  0  0  0
  6  8  1  0  0  0  0
  7  3  2  0  0  0  0
  8 12  2  0  0  0  0
 10  9  1  0  0  0  0
 11 13  2  0  0  0  0
 12 11  1  0  0  0  0
 12  4  1  0  0  0  0
 13  2  1  0  0  0  0
 13  5  1  0  0  0  0
 14 15  1  6  0  0  0
 14 16  1  0  0  0  0
 14  6  1  0  0  0  0
 16 17  1  6  0  0  0
 19 20  1  0  0  0  0
 20 18  1  0  0  0  0
 20 16  1  0  0  0  0
 21 22  1  0  0  0  0
 22 14  1  0  0  0  0
 23  1  1  0  0  0  0
 24 23  1  0  0  0  0
 25 32  1  6  0  0  0
 25 24  1  0  0  0  0
 26 25  1  0  0  0  0
 26 27  1  0  0  0  0
 28 27  1  0  0  0  0
 30 31  2  0  0  0  0
 31 28  1  0  0  0  0
 31 29  1  0  0  0  0
 33 34  2  0  0  0  0
 34 32  1  0  0  0  0
 34 35  1  0  0  0  0
 35 36  2  0  0  0  0
 36 37  1  0  0  0  0
 37 38  2  0  0  0  0
 39 40  1  0  0  0  0
 39 37  1  0  0  0  0
 41 42  1  0  0  0  0
 41 43  1  0  0  0  0
 42 43  1  0  0  0  0
 42 40  1  0  0  0  0
 44 45  1  0  0  0  0
 46 45  1  6  0  0  0
 46 52  1  0  0  0  0
 46 50  1  0  0  0  0
 47 48  1  0  0  0  0
 48 53  1  6  0  0  0
 49 47  1  0  0  0  0
 50 49  1  0  0  0  0
 51 48  1  0  0  0  0
 52 51  1  0  0  0  0
 53 54  1  0  0  0  0
 55 54  1  0  0  0  0
 55 56  2  0  0  0  0
 57 65  1  0  0  0  0
 57 55  1  1  0  0  0
 58 63  2  0  0  0  0
 59 61  2  0  0  0  0
 60 62  2  0  0  0  0
 61 57  1  0  0  0  0
 62 61  1  0  0  0  0
 63 60  1  0  0  0  0
 63 59  1  0  0  0  0
 65 64  1  0  0  0  0
 65 66  1  0  0  0  0
 67 65  1  0  0  0  0
M  END
>  <MODEL>
1

>  <REMARK>
 VINA RESULT:      -5.8      0.000      0.000
  Name = 
  28 active torsions:
  status: ('A' for Active; 'I' for Inactive)
    1  A    between atoms: C_1  and  C_46
    2  A    between atoms: C_3  and  N_42
    3  A    between atoms: C_3  and  N_50
    4  A    between atoms: C_6  and  C_45
    5  A    between atoms: C_8  and  C_45
    6  A    between atoms: C_8  and  C_64
    7  A    between atoms: C_8  and  C_65
    8  A    between atoms: C_12  and  C_62
    9  A    between atoms: C_13  and  C_48
   10  A    between atoms: C_14  and  O_52
   11  A    between atoms: C_16  and  C_51
   12  A    between atoms: N_17  and  C_62
   13  A    between atoms: C_21  and  C_63
   14  A    between atoms: C_22  and  C_54
   15  A    between atoms: C_22  and  C_62
   16  A    between atoms: C_26  and  C_46
   17  A    between atoms: C_26  and  C_57
   18  A    between atoms: C_30  and  C_51
   19  A    between atoms: C_30  and  C_61
   20  A    between atoms: C_34  and  O_38
   21  A    between atoms: C_34  and  C_56
   22  A    between atoms: O_38  and  C_65
   23  A    between atoms: N_42  and  N_67
   24  A    between atoms: C_47  and  C_51
   25  A    between atoms: C_48  and  N_50
   26  A    between atoms: O_52  and  C_64
   27  A    between atoms: C_57  and  C_60
   28  A    between atoms: C_61  and  C_63
                            x       y       z     vdW  Elec       q    Type
                         _______ _______ _______ _____ _____    ______ ____

>  <TORSDO>
F 28

$$$$
=
 OpenBabel11062416123D

 67 71  0  0  1  0  0  0  0  0999 V2000
  187.9910  177.7520  142.3840 C   0  0  0  0  0  3  0  0  0  0  0  0
  186.8240  178.1770  141.8490 C   0  0  0  0  0  0  0  0  0  0  0  0
  184.1830  178.1300  140.8720 N   0  0  0  0  0  0  0  0  0  0  0  0
  183.0340  179.0730  144.4700 C   0  0  0  0  0  3  0  0  0  0  0  0
  186.0180  178.4460  144.1890 C   0  0  0  0  0  3  0  0  0  0  0  0
  181.8390  178.3360  141.0820 N   0  0  0  0  0  0  0  0  0  0  0  0
  183.0200  178.1100  140.3060 C   0  0  0  0  0  3  0  0  0  0  0  0
  181.9840  178.6390  142.4500 N   0  0  0  0  0  0  0  0  0  0  0  0
  185.3350  178.7520  145.2810 C   0  0  0  0  0  3  0  0  0  0  0  0
  183.9610  179.1030  145.3670 N   0  0  0  0  0  0  0  0  0  0  0  0
  184.3710  178.3900  142.2760 C   0  0  0  0  0  0  0  0  0  0  0  0
  183.1280  178.6580  143.0680 C   0  0  0  0  0  0  0  0  0  0  0  0
  185.6420  178.3530  142.7630 C   0  0  0  0  0  0  0  0  0  0  0  0
  180.5620  178.6210  140.4020 C   0  0  2  0  0  0  0  0  0  0  0  0
  179.9190  177.4060  140.1670 O   0  0  0  0  0  1  0  0  0  0  0  0
  180.7970  179.2980  139.0300 C   0  0  1  0  0  3  0  0  0  0  0  0
  180.0640  178.6780  138.0080 O   0  0  0  0  0  1  0  0  0  0  0  0
  181.9550  181.4580  138.5850 C   0  0  0  0  0  1  0  0  0  0  0  0
  179.5330  181.3020  138.0930 C   0  0  0  0  0  1  0  0  0  0  0  0
  180.6470  180.8250  139.0100 C   0  0  0  0  0  3  0  0  0  0  0  0
  180.2730  180.6110  141.7630 O   0  0  0  0  0  1  0  0  0  0  0  0
  179.6350  179.4640  141.2900 C   0  0  0  0  0  2  0  0  0  0  0  0
  189.2420  177.6650  141.7490 O   0  0  0  0  0  0  0  0  0  0  0  0
  189.9190  176.4510  141.4450 C   0  0  0  0  0  2  0  0  0  0  0  0
  191.4250  176.6380  141.5450 C   0  0  2  0  0  3  0  0  0  0  0  0
  191.7990  177.1580  142.9290 C   0  0  0  0  0  2  0  0  0  0  0  0
  191.4130  176.2560  143.9270 O   0  0  0  0  0  0  0  0  0  0  0  0
  191.4740  176.9920  145.1090 C   0  0  0  0  0  2  0  0  0  0  0  0
  189.0430  177.1150  145.9650 C   0  0  0  0  0  1  0  0  0  0  0  0
  190.1160  178.9060  144.8860 O   0  0  0  0  0  0  0  0  0  0  0  0
  190.2070  177.7580  145.2950 C   0  0  0  0  0  0  0  0  0  0  0  0
  191.8940  177.6140  140.4780 C   0  0  0  0  0  2  0  0  0  0  0  0
  191.1730  176.8770  138.3300 O   0  0  0  0  0  0  0  0  0  0  0  0
  192.1050  176.9280  139.1740 C   0  0  0  0  0  0  0  0  0  0  0  0
  193.3500  176.2870  138.9070 N   0  0  0  0  0  2  0  0  0  0  0  0
  193.4930  175.4390  137.8020 N   0  0  0  0  0  2  0  0  0  0  0  0
  194.7270  175.3450  137.0940 C   0  0  0  0  0  0  0  0  0  0  0  0
  194.8000  175.9000  135.5510 S   0  0  0  0  0  0  0  0  0  0  0  0
  195.8930  174.8350  137.7560 N   0  0  0  0  0  2  0  0  0  0  0  0
  196.3730  173.4760  137.5770 C   0  0  0  0  0  2  0  0  0  0  0  0
  195.6810  171.1240  137.8100 C   0  0  0  0  0  2  0  0  0  0  0  0
  195.1920  172.5290  137.5200 C   0  0  0  0  0  3  0  0  0  0  0  0
  195.4010  171.5440  136.3850 C   0  0  0  0  0  2  0  0  0  0  0  0
  186.7140  178.5990  140.4070 C   0  0  0  0  0  2  0  0  0  0  0  0
  188.0120  178.3400  139.6390 C   0  0  0  0  0  2  0  0  0  0  0  0
  187.8030  177.8390  138.2100 C   0  0  2  0  0  3  0  0  0  0  0  0
  185.9620  177.0140  136.0120 C   0  0  0  0  0  2  0  0  0  0  0  0
  186.9150  175.8100  136.0000 C   0  0  1  0  0  3  0  0  0  0  0  0
  186.6760  178.2190  136.1020 O   0  0  0  0  0  0  0  0  0  0  0  0
  186.6680  178.5630  137.4630 C   0  0  0  0  0  2  0  0  0  0  0  0
  188.0720  175.9890  136.9930 C   0  0  0  0  0  2  0  0  0  0  0  0
  187.5920  176.4520  138.2260 O   0  0  0  0  0  0  0  0  0  0  0  0
  186.1210  174.5480  136.3190 C   0  0  0  0  0  2  0  0  0  0  0  0
  184.7220  174.5950  135.7160 C   0  0  0  0  0  2  0  0  0  0  0  0
  183.7050  173.9520  136.6080 C   0  0  0  0  0  0  0  0  0  0  0  0
  184.0630  173.1380  137.4450 O   0  0  0  0  0  0  0  0  0  0  0  0
  182.2470  174.3300  136.5280 C   0  0  1  0  0  3  0  0  0  0  0  0
  179.9410  169.9390  135.4050 S   0  0  0  0  0  0  0  0  0  0  0  0
  181.1510  172.3460  135.5820 N   0  0  0  0  0  0  0  0  0  0  0  0
  180.1150  171.5800  137.5360 N   0  0  0  0  0  0  0  0  0  0  0  0
  181.3310  173.1370  136.5910 C   0  0  0  0  0  0  0  0  0  0  0  0
  180.7130  172.6690  137.7950 N   0  0  0  0  0  0  0  0  0  0  0  0
  180.3340  171.3380  136.1580 C   0  0  0  0  0  0  0  0  0  0  0  0
  182.3310  175.1520  138.7660 F   0  0  0  0  0  0  0  0  0  0  0  0
  181.8660  175.4550  137.4990 C   0  0  0  0  0  0  0  0  0  0  0  0
  182.4160  176.6710  137.0870 O   0  0  0  0  0  1  0  0  0  0  0  0
  180.4890  175.5770  137.5500 F   0  0  0  0  0  0  0  0  0  0  0  0
  2  1  2  0  0  0  0
  2 13  1  0  0  0  0
  3 11  1  0  0  0  0
  4 10  2  0  0  0  0
  5  9  2  0  0  0  0
  6  8  1  0  0  0  0
  7  3  2  0  0  0  0
  7  6  1  0  0  0  0
  8 12  2  0  0  0  0
  9 10  1  0  0  0  0
 11 13  2  0  0  0  0
 11 12  1  0  0  0  0
 12  4  1  0  0  0  0
 13  5  1  0  0  0  0
 14 15  1  6  0  0  0
 14  6  1  0  0  0  0
 14 22  1  0  0  0  0
 16 17  1  6  0  0  0
 16 14  1  0  0  0  0
 18 20  1  0  0  0  0
 19 20  1  0  0  0  0
 20 16  1  0  0  0  0
 22 21  1  0  0  0  0
 23  1  1  0  0  0  0
 24 25  1  0  0  0  0
 24 23  1  0  0  0  0
 25 32  1  6  0  0  0
 25 26  1  0  0  0  0
 26 27  1  0  0  0  0
 27 28  1  0  0  0  0
 28 31  1  0  0  0  0
 30 31  2  0  0  0  0
 31 29  1  0  0  0  0
 33 34  2  0  0  0  0
 34 32  1  0  0  0  0
 35 34  1  0  0  0  0
 36 35  1  0  0  0  0
 37 39  1  0  0  0  0
 37 36  1  0  0  0  0
 38 37  2  0  0  0  0
 40 39  1  0  0  0  0
 42 40  1  0  0  0  0
 42 41  1  0  0  0  0
 43 42  1  0  0  0  0
 43 41  1  0  0  0  0
 44  2  1  0  0  0  0
 45 44  1  0  0  0  0
 46 52  1  0  0  0  0
 46 45  1  1  0  0  0
 47 49  1  0  0  0  0
 48 47  1  0  0  0  0
 48 53  1  1  0  0  0
 48 51  1  0  0  0  0
 49 50  1  0  0  0  0
 50 46  1  0  0  0  0
 51 52  1  0  0  0  0
 54 53  1  0  0  0  0
 54 55  1  0  0  0  0
 55 56  2  0  0  0  0
 57 61  1  0  0  0  0
 57 55  1  1  0  0  0
 57 65  1  0  0  0  0
 58 63  2  0  0  0  0
 59 63  1  0  0  0  0
 59 61  2  0  0  0  0
 60 62  2  0  0  0  0
 61 62  1  0  0  0  0
 63 60  1  0  0  0  0
 65 67  1  0  0  0  0
 65 64  1  0  0  0  0
 66 65  1  0  0  0  0
M  END
>  <MODEL>
2

>  <REMARK>
 VINA RESULT:      -5.8      3.777      8.721
  Name = 
  28 active torsions:
  status: ('A' for Active; 'I' for Inactive)
    1  A    between atoms: C_1  and  C_46
    2  A    between atoms: C_3  and  N_42
    3  A    between atoms: C_3  and  N_50
    4  A    between atoms: C_6  and  C_45
    5  A    between atoms: C_8  and  C_45
    6  A    between atoms: C_8  and  C_64
    7  A    between atoms: C_8  and  C_65
    8  A    between atoms: C_12  and  C_62
    9  A    between atoms: C_13  and  C_48
   10  A    between atoms: C_14  and  O_52
   11  A    between atoms: C_16  and  C_51
   12  A    between atoms: N_17  and  C_62
   13  A    between atoms: C_21  and  C_63
   14  A    between atoms: C_22  and  C_54
   15  A    between atoms: C_22  and  C_62
   16  A    between atoms: C_26  and  C_46
   17  A    between atoms: C_26  and  C_57
   18  A    between atoms: C_30  and  C_51
   19  A    between atoms: C_30  and  C_61
   20  A    between atoms: C_34  and  O_38
   21  A    between atoms: C_34  and  C_56
   22  A    between atoms: O_38  and  C_65
   23  A    between atoms: N_42  and  N_67
   24  A    between atoms: C_47  and  C_51
   25  A    between atoms: C_48  and  N_50
   26  A    between atoms: O_52  and  C_64
   27  A    between atoms: C_57  and  C_60
   28  A    between atoms: C_61  and  C_63
                            x       y       z     vdW  Elec       q    Type
                         _______ _______ _______ _____ _____    ______ ____

>  <TORSDO>
F 28

$$$$
=
 OpenBabel11062416123D

 67 71  0  0  1  0  0  0  0  0999 V2000
  183.7390  178.6460  140.7190 C   0  0  0  0  0  3  0  0  0  0  0  0
  184.0120  178.2940  139.4410 C   0  0  0  0  0  0  0  0  0  0  0  0
  183.3150  175.7280  138.5150 N   0  0  0  0  0  0  0  0  0  0  0  0
  180.6990  177.4720  136.2190 C   0  0  0  0  0  3  0  0  0  0  0  0
  182.1080  179.3220  138.2110 C   0  0  0  0  0  3  0  0  0  0  0  0
  182.0710  174.2140  137.1940 N   0  0  0  0  0  0  0  0  0  0  0  0
  183.1020  174.5070  138.1430 C   0  0  0  0  0  3  0  0  0  0  0  0
  181.3470  175.2870  136.6390 N   0  0  0  0  0  0  0  0  0  0  0  0
  181.1520  179.6140  137.3420 C   0  0  0  0  0  3  0  0  0  0  0  0
  180.5650  178.7450  136.3830 N   0  0  0  0  0  0  0  0  0  0  0  0
  182.5660  176.8470  138.0060 C   0  0  0  0  0  0  0  0  0  0  0  0
  181.5130  176.5280  136.9900 C   0  0  0  0  0  0  0  0  0  0  0  0
  182.8600  178.0840  138.4980 C   0  0  0  0  0  0  0  0  0  0  0  0
  182.0340  172.8920  136.5430 C   0  0  2  0  0  0  0  0  0  0  0  0
  181.2620  172.0430  137.3360 O   0  0  0  0  0  1  0  0  0  0  0  0
  183.4500  172.2770  136.4420 C   0  0  1  0  0  3  0  0  0  0  0  0
  183.4910  170.9700  136.9470 O   0  0  0  0  0  1  0  0  0  0  0  0
  185.0570  173.5840  135.0590 C   0  0  0  0  0  1  0  0  0  0  0  0
  184.9000  171.1430  134.6800 C   0  0  0  0  0  1  0  0  0  0  0  0
  184.1260  172.3910  135.0680 C   0  0  0  0  0  3  0  0  0  0  0  0
  180.0030  172.6460  135.2340 O   0  0  0  0  0  1  0  0  0  0  0  0
  181.3580  172.9700  135.1660 C   0  0  0  0  0  2  0  0  0  0  0  0
  184.6530  179.0340  141.7130 O   0  0  0  0  0  0  0  0  0  0  0  0
  184.3050  179.3850  143.0480 C   0  0  0  0  0  2  0  0  0  0  0  0
  185.3810  178.9270  144.0190 C   0  0  2  0  0  3  0  0  0  0  0  0
  186.0240  177.6370  143.5220 C   0  0  0  0  0  2  0  0  0  0  0  0
  187.4010  177.6320  143.7740 O   0  0  0  0  0  0  0  0  0  0  0  0
  187.9750  177.1910  142.5830 C   0  0  0  0  0  2  0  0  0  0  0  0
  190.3680  176.7250  141.7340 C   0  0  0  0  0  1  0  0  0  0  0  0
  189.8550  178.4480  143.2470 O   0  0  0  0  0  0  0  0  0  0  0  0
  189.4300  177.5270  142.5670 C   0  0  0  0  0  0  0  0  0  0  0  0
  184.7730  178.7080  145.3950 C   0  0  0  0  0  2  0  0  0  0  0  0
  185.8400  180.3280  146.7790 O   0  0  0  0  0  0  0  0  0  0  0  0
  185.7170  179.1140  146.4730 C   0  0  0  0  0  0  0  0  0  0  0  0
  186.5140  178.1260  147.1220 N   0  0  0  0  0  0  0  0  0  0  0  0
  187.5700  178.5000  147.9620 N   0  0  0  0  0  0  0  0  0  0  0  0
  188.5850  177.5720  148.3360 C   0  0  0  0  0  0  0  0  0  0  0  0
  188.2520  175.9660  148.2700 S   0  0  0  0  0  0  0  0  0  0  0  0
  189.8900  178.0470  148.6950 N   0  0  0  0  0  2  0  0  0  0  0  0
  191.1000  177.6200  148.0160 C   0  0  0  0  0  2  0  0  0  0  0  0
  191.9110  175.7130  146.6850 C   0  0  0  0  0  2  0  0  0  0  0  0
  190.7410  176.6490  146.9100 C   0  0  0  0  0  3  0  0  0  0  0  0
  191.6780  176.8670  145.7360 C   0  0  0  0  0  2  0  0  0  0  0  0
  185.4220  178.2370  138.9140 C   0  0  0  0  0  2  0  0  0  0  0  0
  185.4790  178.5370  137.4150 C   0  0  0  0  0  2  0  0  0  0  0  0
  186.7180  177.9800  136.7130 C   0  0  2  0  0  3  0  0  0  0  0  0
  187.9990  175.8720  135.0340 C   0  0  0  0  0  2  0  0  0  0  0  0
  189.0130  175.9180  136.1860 C   0  0  1  0  0  3  0  0  0  0  0  0
  187.6400  177.1660  134.6280 O   0  0  0  0  0  0  0  0  0  0  0  0
  186.4370  177.4520  135.2940 C   0  0  0  0  0  2  0  0  0  0  0  0
  188.6700  177.0160  137.2030 C   0  0  0  0  0  2  0  0  0  0  0  0
  187.3030  176.9860  137.5130 O   0  0  0  0  0  0  0  0  0  0  0  0
  189.0570  174.5520  136.8620 C   0  0  0  0  0  2  0  0  0  0  0  0
  190.3520  174.3490  137.6380 C   0  0  0  0  0  2  0  0  0  0  0  0
  191.4880  173.9560  136.7430 C   0  0  0  0  0  0  0  0  0  0  0  0
  191.2660  173.2910  135.7430 O   0  0  0  0  0  0  0  0  0  0  0  0
  192.8980  174.4090  137.0270 C   0  0  1  0  0  3  0  0  0  0  0  0
  195.8890  170.5190  135.6920 S   0  0  0  0  0  0  0  0  0  0  0  0
  194.3750  172.4600  136.8010 N   0  0  0  0  0  0  0  0  0  0  0  0
  195.1570  172.8890  134.6370 N   0  0  0  0  0  0  0  0  0  0  0  0
  193.9320  173.5760  136.3170 C   0  0  0  0  0  0  0  0  0  0  0  0
  194.3930  173.8400  134.9880 N   0  0  0  0  0  0  0  0  0  0  0  0
  195.2040  172.0050  135.7420 C   0  0  0  0  0  0  0  0  0  0  0  0
  191.9810  176.5910  137.3310 F   0  0  0  0  0  0  0  0  0  0  0  0
  193.0880  175.9200  136.8440 C   0  0  0  0  0  0  0  0  0  0  0  0
  194.2260  176.3610  137.5230 O   0  0  0  0  0  1  0  0  0  0  0  0
  193.2240  176.2110  135.4990 F   0  0  0  0  0  0  0  0  0  0  0  0
  1 23  1  0  0  0  0
  2  1  2  0  0  0  0
  4 10  2  0  0  0  0
  4 12  1  0  0  0  0
  5 13  1  0  0  0  0
  6  7  1  0  0  0  0
  7  3  2  0  0  0  0
  8 12  2  0  0  0  0
  8  6  1  0  0  0  0
  9  5  2  0  0  0  0
 10  9  1  0  0  0  0
 11 13  2  0  0  0  0
 11  3  1  0  0  0  0
 12 11  1  0  0  0  0
 13  2  1  0  0  0  0
 14  6  1  0  0  0  0
 14 15  1  1  0  0  0
 16 14  1  0  0  0  0
 16 17  1  6  0  0  0
 18 20  1  0  0  0  0
 19 20  1  0  0  0  0
 20 16  1  0  0  0  0
 22 21  1  0  0  0  0
 22 14  1  0  0  0  0
 23 24  1  0  0  0  0
 25 24  1  6  0  0  0
 25 32  1  0  0  0  0
 26 27  1  0  0  0  0
 26 25  1  0  0  0  0
 28 27  1  0  0  0  0
 29 31  1  0  0  0  0
 31 28  1  0  0  0  0
 31 30  2  0  0  0  0
 32 34  1  0  0  0  0
 34 33  2  0  0  0  0
 34 35  1  0  0  0  0
 35 36  2  0  0  0  0
 36 37  1  0  0  0  0
 37 39  1  0  0  0  0
 38 37  2  0  0  0  0
 40 39  1  0  0  0  0
 41 42  1  0  0  0  0
 42 40  1  0  0  0  0
 43 41  1  0  0  0  0
 43 42  1  0  0  0  0
 44  2  1  0  0  0  0
 45 44  1  0  0  0  0
 46 45  1  1  0  0  0
 46 52  1  0  0  0  0
 47 48  1  0  0  0  0
 48 53  1  1  0  0  0
 48 51  1  0  0  0  0
 49 47  1  0  0  0  0
 49 50  1  0  0  0  0
 50 46  1  0  0  0  0
 51 52  1  0  0  0  0
 53 54  1  0  0  0  0
 55 54  1  0  0  0  0
 56 55  2  0  0  0  0
 57 55  1  6  0  0  0
 58 63  2  0  0  0  0
 60 62  2  0  0  0  0
 60 63  1  0  0  0  0
 61 59  2  0  0  0  0
 61 57  1  0  0  0  0
 62 61  1  0  0  0  0
 63 59  1  0  0  0  0
 65 57  1  0  0  0  0
 65 64  1  0  0  0  0
 65 66  1  0  0  0  0
 67 65  1  0  0  0  0
M  END
>  <MODEL>
3

>  <REMARK>
 VINA RESULT:      -5.0      3.139      8.271
  Name = 
  28 active torsions:
  status: ('A' for Active; 'I' for Inactive)
    1  A    between atoms: C_1  and  C_46
    2  A    between atoms: C_3  and  N_42
    3  A    between atoms: C_3  and  N_50
    4  A    between atoms: C_6  and  C_45
    5  A    between atoms: C_8  and  C_45
    6  A    between atoms: C_8  and  C_64
    7  A    between atoms: C_8  and  C_65
    8  A    between atoms: C_12  and  C_62
    9  A    between atoms: C_13  and  C_48
   10  A    between atoms: C_14  and  O_52
   11  A    between atoms: C_16  and  C_51
   12  A    between atoms: N_17  and  C_62
   13  A    between atoms: C_21  and  C_63
   14  A    between atoms: C_22  and  C_54
   15  A    between atoms: C_22  and  C_62
   16  A    between atoms: C_26  and  C_46
   17  A    between atoms: C_26  and  C_57
   18  A    between atoms: C_30  and  C_51
   19  A    between atoms: C_30  and  C_61
   20  A    between atoms: C_34  and  O_38
   21  A    between atoms: C_34  and  C_56
   22  A    between atoms: O_38  and  C_65
   23  A    between atoms: N_42  and  N_67
   24  A    between atoms: C_47  and  C_51
   25  A    between atoms: C_48  and  N_50
   26  A    between atoms: O_52  and  C_64
   27  A    between atoms: C_57  and  C_60
   28  A    between atoms: C_61  and  C_63
                            x       y       z     vdW  Elec       q    Type
                         _______ _______ _______ _____ _____    ______ ____

>  <TORSDO>
F 28

$$$$
=
 OpenBabel11062416123D

 67 71  0  0  1  0  0  0  0  0999 V2000
  189.7440  176.5060  138.3560 C   0  0  0  0  0  3  0  0  0  0  0  0
  188.9930  175.7550  137.5190 C   0  0  0  0  0  0  0  0  0  0  0  0
  191.7820  175.3650  137.5300 N   0  0  0  0  0  0  0  0  0  0  0  0
  191.1630  172.2220  135.3160 C   0  0  0  0  0  3  0  0  0  0  0  0
  188.6300  173.5640  136.3930 C   0  0  0  0  0  3  0  0  0  0  0  0
  193.7670  174.2190  136.9550 N   0  0  0  0  0  0  0  0  0  0  0  0
  193.0740  175.3050  137.5790 C   0  0  0  0  0  3  0  0  0  0  0  0
  193.0140  173.2640  136.2430 N   0  0  0  0  0  0  0  0  0  0  0  0
  188.7390  172.4680  135.6580 C   0  0  0  0  0  3  0  0  0  0  0  0
  189.9280  171.9080  135.1180 N   0  0  0  0  0  0  0  0  0  0  0  0
  190.9740  174.3850  136.8520 C   0  0  0  0  0  0  0  0  0  0  0  0
  191.7150  173.2730  136.1760 C   0  0  0  0  0  0  0  0  0  0  0  0
  189.6210  174.5370  136.8970 C   0  0  0  0  0  0  0  0  0  0  0  0
  195.2220  174.3100  136.7410 C   0  0  2  0  0  0  0  0  0  0  0  0
  195.6210  173.1890  136.0140 O   0  0  0  0  0  1  0  0  0  0  0  0
  195.9890  174.2900  138.0860 C   0  0  1  0  0  3  0  0  0  0  0  0
  195.7450  173.1170  138.8110 O   0  0  0  0  0  1  0  0  0  0  0  0
  197.9640  175.1600  139.3310 C   0  0  0  0  0  1  0  0  0  0  0  0
  198.3370  173.4250  137.6050 C   0  0  0  0  0  1  0  0  0  0  0  0
  197.4860  174.6200  138.0000 C   0  0  0  0  0  3  0  0  0  0  0  0
  194.8350  176.6630  136.2830 O   0  0  0  0  0  1  0  0  0  0  0  0
  195.5850  175.5480  135.9090 C   0  0  0  0  0  2  0  0  0  0  0  0
  189.3200  177.5840  139.1520 O   0  0  0  0  0  0  0  0  0  0  0  0
  189.8420  177.9030  140.4370 C   0  0  0  0  0  2  0  0  0  0  0  0
  188.7510  177.8200  141.4930 C   0  0  2  0  0  3  0  0  0  0  0  0
  188.8330  176.4880  142.2300 C   0  0  0  0  0  2  0  0  0  0  0  0
  189.3750  176.6540  143.5100 O   0  0  0  0  0  0  0  0  0  0  0  0
  189.8520  177.9650  143.5220 C   0  0  0  0  0  2  0  0  0  0  0  0
  191.9000  179.2670  144.4010 C   0  0  0  0  0  1  0  0  0  0  0  0
  191.9220  176.9500  144.0130 O   0  0  0  0  0  0  0  0  0  0  0  0
  191.2710  177.9830  143.9860 C   0  0  0  0  0  0  0  0  0  0  0  0
  187.3870  177.9690  140.8380 C   0  0  0  0  0  2  0  0  0  0  0  0
  185.9020  179.7310  141.4430 O   0  0  0  0  0  0  0  0  0  0  0  0
  186.4160  178.6250  141.7550 C   0  0  0  0  0  0  0  0  0  0  0  0
  186.1100  178.0210  143.0100 N   0  0  0  0  0  2  0  0  0  0  0  0
  185.3930  178.7240  143.9850 N   0  0  0  0  0  2  0  0  0  0  0  0
  185.6720  178.5600  145.3730 C   0  0  0  0  0  0  0  0  0  0  0  0
  184.4300  178.2340  146.3970 S   0  0  0  0  0  0  0  0  0  0  0  0
  187.0260  178.6120  145.8420 N   0  0  0  0  0  2  0  0  0  0  0  0
  187.5600  177.6840  146.8220 C   0  0  0  0  0  2  0  0  0  0  0  0
  189.6020  176.4830  147.4950 C   0  0  0  0  0  2  0  0  0  0  0  0
  189.0730  177.6940  146.7520 C   0  0  0  0  0  3  0  0  0  0  0  0
  189.6330  177.8430  148.1550 C   0  0  0  0  0  2  0  0  0  0  0  0
  187.5280  176.0270  137.3000 C   0  0  0  0  0  2  0  0  0  0  0  0
  187.2540  177.5150  137.0760 C   0  0  0  0  0  2  0  0  0  0  0  0
  185.7830  177.9070  137.2120 C   0  0  2  0  0  3  0  0  0  0  0  0
  183.3930  178.3840  138.9340 C   0  0  0  0  0  2  0  0  0  0  0  0
  182.7610  177.4550  137.8870 C   0  0  1  0  0  3  0  0  0  0  0  0
  184.1950  179.3590  138.3210 O   0  0  0  0  0  0  0  0  0  0  0  0
  185.5070  178.8660  138.3860 C   0  0  0  0  0  2  0  0  0  0  0  0
  183.7520  177.0980  136.7700 C   0  0  0  0  0  2  0  0  0  0  0  0
  184.9970  176.7500  137.3120 O   0  0  0  0  0  0  0  0  0  0  0  0
  182.2570  176.1960  138.5840 C   0  0  0  0  0  2  0  0  0  0  0  0
  181.1880  176.5160  139.6220 C   0  0  0  0  0  2  0  0  0  0  0  0
  179.9140  176.9840  138.9880 C   0  0  0  0  0  0  0  0  0  0  0  0
  179.2510  176.2070  138.3180 O   0  0  0  0  0  0  0  0  0  0  0  0
  179.4050  178.3870  139.2040 C   0  0  1  0  0  3  0  0  0  0  0  0
  181.6290  179.0160  143.7330 S   0  0  0  0  0  0  0  0  0  0  0  0
  180.4660  178.2650  141.4150 N   0  0  0  0  0  0  0  0  0  0  0  0
  180.0400  180.4620  142.1050 N   0  0  0  0  0  0  0  0  0  0  0  0
  179.7600  178.9350  140.5600 C   0  0  0  0  0  0  0  0  0  0  0  0
  179.5080  180.2840  140.9660 N   0  0  0  0  0  0  0  0  0  0  0  0
  180.6350  179.2230  142.4490 C   0  0  0  0  0  0  0  0  0  0  0  0
  181.0660  179.7420  138.1550 F   0  0  0  0  0  0  0  0  0  0  0  0
  179.7500  179.3320  138.0450 C   0  0  0  0  0  0  0  0  0  0  0  0
  179.5700  178.6930  136.8160 O   0  0  0  0  0  1  0  0  0  0  0  0
  178.9330  180.4470  138.0980 F   0  0  0  0  0  0  0  0  0  0  0  0
  1 23  1  0  0  0  0
  2  1  2  0  0  0  0
  3  7  2  0  0  0  0
  4 12  1  0  0  0  0
  5 13  1  0  0  0  0
  6  7  1  0  0  0  0
  8  6  1  0  0  0  0
  9  5  2  0  0  0  0
 10  4  2  0  0  0  0
 10  9  1  0  0  0  0
 11 13  2  0  0  0  0
 11  3  1  0  0  0  0
 12  8  2  0  0  0  0
 12 11  1  0  0  0  0
 13  2  1  0  0  0  0
 14 15  1  6  0  0  0
 14  6  1  0  0  0  0
 14 16  1  0  0  0  0
 16 17  1  6  0  0  0
 19 20  1  0  0  0  0
 20 16  1  0  0  0  0
 20 18  1  0  0  0  0
 22 21  1  0  0  0  0
 22 14  1  0  0  0  0
 23 24  1  0  0  0  0
 25 24  1  6  0  0  0
 25 26  1  0  0  0  0
 26 27  1  0  0  0  0
 27 28  1  0  0  0  0
 28 31  1  0  0  0  0
 31 30  2  0  0  0  0
 31 29  1  0  0  0  0
 32 25  1  0  0  0  0
 32 34  1  0  0  0  0
 33 34  2  0  0  0  0
 34 35  1  0  0  0  0
 35 36  1  0  0  0  0
 36 37  1  0  0  0  0
 37 39  1  0  0  0  0
 37 38  2  0  0  0  0
 39 40  1  0  0  0  0
 41 43  1  0  0  0  0
 42 40  1  0  0  0  0
 42 41  1  0  0  0  0
 42 43  1  0  0  0  0
 44  2  1  0  0  0  0
 45 44  1  0  0  0  0
 46 45  1  1  0  0  0
 46 52  1  0  0  0  0
 46 50  1  0  0  0  0
 48 53  1  1  0  0  0
 48 47  1  0  0  0  0
 49 50  1  0  0  0  0
 49 47  1  0  0  0  0
 51 52  1  0  0  0  0
 51 48  1  0  0  0  0
 53 54  1  0  0  0  0
 55 54  1  0  0  0  0
 56 55  2  0  0  0  0
 57 55  1  6  0  0  0
 57 61  1  0  0  0  0
 59 63  1  0  0  0  0
 60 63  1  0  0  0  0
 61 62  1  0  0  0  0
 61 59  2  0  0  0  0
 62 60  2  0  0  0  0
 63 58  2  0  0  0  0
 65 67  1  0  0  0  0
 65 64  1  0  0  0  0
 65 57  1  0  0  0  0
 66 65  1  0  0  0  0
M  END
>  <MODEL>
4

>  <REMARK>
 VINA RESULT:      -4.6      4.059     10.885
  Name = 
  28 active torsions:
  status: ('A' for Active; 'I' for Inactive)
    1  A    between atoms: C_1  and  C_46
    2  A    between atoms: C_3  and  N_42
    3  A    between atoms: C_3  and  N_50
    4  A    between atoms: C_6  and  C_45
    5  A    between atoms: C_8  and  C_45
    6  A    between atoms: C_8  and  C_64
    7  A    between atoms: C_8  and  C_65
    8  A    between atoms: C_12  and  C_62
    9  A    between atoms: C_13  and  C_48
   10  A    between atoms: C_14  and  O_52
   11  A    between atoms: C_16  and  C_51
   12  A    between atoms: N_17  and  C_62
   13  A    between atoms: C_21  and  C_63
   14  A    between atoms: C_22  and  C_54
   15  A    between atoms: C_22  and  C_62
   16  A    between atoms: C_26  and  C_46
   17  A    between atoms: C_26  and  C_57
   18  A    between atoms: C_30  and  C_51
   19  A    between atoms: C_30  and  C_61
   20  A    between atoms: C_34  and  O_38
   21  A    between atoms: C_34  and  C_56
   22  A    between atoms: O_38  and  C_65
   23  A    between atoms: N_42  and  N_67
   24  A    between atoms: C_47  and  C_51
   25  A    between atoms: C_48  and  N_50
   26  A    between atoms: O_52  and  C_64
   27  A    between atoms: C_57  and  C_60
   28  A    between atoms: C_61  and  C_63
                            x       y       z     vdW  Elec       q    Type
                         _______ _______ _______ _____ _____    ______ ____

>  <TORSDO>
F 28

$$$$
=
 OpenBabel11062416123D

 67 71  0  0  1  0  0  0  0  0999 V2000
  185.7680  177.5890  137.1910 C   0  0  0  0  0  3  0  0  0  0  0  0
  187.0750  177.3510  136.9340 C   0  0  0  0  0  0  0  0  0  0  0  0
  185.1430  175.3830  136.3640 N   0  0  0  0  0  0  0  0  0  0  0  0
  188.0970  173.0050  135.4840 C   0  0  0  0  0  3  0  0  0  0  0  0
  188.8970  175.9080  136.0430 C   0  0  0  0  0  3  0  0  0  0  0  0
  184.4420  173.2330  135.6800 N   0  0  0  0  0  0  0  0  0  0  0  0
  184.1710  174.5530  136.1640 C   0  0  0  0  0  3  0  0  0  0  0  0
  185.7850  172.8510  135.4930 N   0  0  0  0  0  0  0  0  0  0  0  0
  189.6650  174.8920  135.6810 C   0  0  0  0  0  3  0  0  0  0  0  0
  189.2720  173.5390  135.4930 N   0  0  0  0  0  0  0  0  0  0  0  0
  186.5250  175.0460  136.1410 C   0  0  0  0  0  0  0  0  0  0  0  0
  186.7950  173.6510  135.6670 C   0  0  0  0  0  0  0  0  0  0  0  0
  187.4570  176.0160  136.3570 C   0  0  0  0  0  0  0  0  0  0  0  0
  183.3910  172.2020  135.7480 C   0  0  2  0  0  0  0  0  0  0  0  0
  183.4760  171.4240  134.5940 O   0  0  0  0  0  1  0  0  0  0  0  0
  181.9810  172.8400  135.7790 C   0  0  1  0  0  3  0  0  0  0  0  0
  181.7000  173.5470  134.6020 O   0  0  0  0  0  1  0  0  0  0  0  0
  179.8020  172.6660  136.9740 C   0  0  0  0  0  1  0  0  0  0  0  0
  180.1670  171.2340  134.9880 C   0  0  0  0  0  1  0  0  0  0  0  0
  180.8370  171.8980  136.1790 C   0  0  0  0  0  3  0  0  0  0  0  0
  183.2720  171.8810  138.1520 O   0  0  0  0  0  1  0  0  0  0  0  0
  183.6070  171.2650  136.9460 C   0  0  0  0  0  2  0  0  0  0  0  0
  185.1790  178.8020  137.5830 O   0  0  0  0  0  0  0  0  0  0  0  0
  183.7890  179.0960  137.5060 C   0  0  0  0  0  2  0  0  0  0  0  0
  183.1950  179.2420  138.8980 C   0  0  2  0  0  3  0  0  0  0  0  0
  182.6200  180.6420  139.0820 C   0  0  0  0  0  2  0  0  0  0  0  0
  181.2230  180.6260  139.0070 O   0  0  0  0  0  0  0  0  0  0  0  0
  180.8860  181.8620  138.4570 C   0  0  0  0  0  2  0  0  0  0  0  0
  179.9470  180.2920  136.6360 C   0  0  0  0  0  1  0  0  0  0  0  0
  180.0330  182.6280  136.3960 O   0  0  0  0  0  0  0  0  0  0  0  0
  180.2660  181.6660  137.1130 C   0  0  0  0  0  0  0  0  0  0  0  0
  184.2650  178.9770  139.9450 C   0  0  0  0  0  2  0  0  0  0  0  0
  184.4100  178.6600  142.3020 O   0  0  0  0  0  0  0  0  0  0  0  0
  183.6840  178.9480  141.3160 C   0  0  0  0  0  0  0  0  0  0  0  0
  182.2930  179.1980  141.4980 N   0  0  0  0  0  2  0  0  0  0  0  0
  181.6780  178.9450  142.7300 N   0  0  0  0  0  2  0  0  0  0  0  0
  180.2820  178.6710  142.8210 C   0  0  0  0  0  0  0  0  0  0  0  0
  179.5880  178.5790  144.3060 S   0  0  0  0  0  0  0  0  0  0  0  0
  179.4980  178.5510  141.6260 N   0  0  0  0  0  2  0  0  0  0  0  0
  179.2010  177.2740  141.0010 C   0  0  0  0  0  2  0  0  0  0  0  0
  179.6880  177.2370  138.5870 C   0  0  0  0  0  2  0  0  0  0  0  0
  180.2600  176.9630  139.9640 C   0  0  0  0  0  3  0  0  0  0  0  0
  179.7790  175.8150  139.0950 C   0  0  0  0  0  2  0  0  0  0  0  0
  188.1240  178.4210  137.0860 C   0  0  0  0  0  2  0  0  0  0  0  0
  189.3770  177.8930  137.7850 C   0  0  0  0  0  2  0  0  0  0  0  0
  189.1700  177.5410  139.2580 C   0  0  2  0  0  3  0  0  0  0  0  0
  188.7040  178.4100  142.0740 C   0  0  0  0  0  2  0  0  0  0  0  0
  189.8930  177.4650  142.3020 C   0  0  1  0  0  3  0  0  0  0  0  0
  187.7640  177.8350  141.2060 O   0  0  0  0  0  0  0  0  0  0  0  0
  188.0520  178.3560  139.9350 C   0  0  0  0  0  2  0  0  0  0  0  0
  190.3170  176.7610  141.0050 C   0  0  0  0  0  2  0  0  0  0  0  0
  190.3830  177.6790  139.9480 O   0  0  0  0  0  0  0  0  0  0  0  0
  191.0530  178.2620  142.8880 C   0  0  0  0  0  2  0  0  0  0  0  0
  190.7060  178.8410  144.2540 C   0  0  0  0  0  2  0  0  0  0  0  0
  190.3410  177.7730  145.2400 C   0  0  0  0  0  0  0  0  0  0  0  0
  190.8650  176.6720  145.1590 O   0  0  0  0  0  0  0  0  0  0  0  0
  189.3740  178.0460  146.3640 C   0  0  1  0  0  3  0  0  0  0  0  0
  184.4230  178.8840  145.5640 S   0  0  0  0  0  0  0  0  0  0  0  0
  186.9920  178.6450  146.3570 N   0  0  0  0  0  0  0  0  0  0  0  0
  186.2660  177.0830  144.7720 N   0  0  0  0  0  0  0  0  0  0  0  0
  187.9380  177.8540  145.9580 C   0  0  0  0  0  0  0  0  0  0  0  0
  187.5060  176.9060  144.9770 N   0  0  0  0  0  0  0  0  0  0  0  0
  185.8830  178.1450  145.6260 C   0  0  0  0  0  0  0  0  0  0  0  0
  191.1180  177.1170  147.7030 F   0  0  0  0  0  0  0  0  0  0  0  0
  189.7510  177.3240  147.6650 C   0  0  0  0  0  0  0  0  0  0  0  0
  189.3710  178.0790  148.7770 O   0  0  0  0  0  1  0  0  0  0  0  0
  189.1160  176.0970  147.7140 F   0  0  0  0  0  0  0  0  0  0  0  0
  1 23  1  0  0  0  0
  2 44  1  0  0  0  0
  2  1  2  0  0  0  0
  4 10  2  0  0  0  0
  4 12  1  0  0  0  0
  5 13  1  0  0  0  0
  6 14  1  0  0  0  0
  6  7  1  0  0  0  0
  7  3  2  0  0  0  0
  8 12  2  0  0  0  0
  8  6  1  0  0  0  0
  9  5  2  0  0  0  0
 10  9  1  0  0  0  0
 11 13  2  0  0  0  0
 11  3  1  0  0  0  0
 12 11  1  0  0  0  0
 13  2  1  0  0  0  0
 14 15  1  6  0  0  0
 14 16  1  0  0  0  0
 14 22  1  0  0  0  0
 16 17  1  6  0  0  0
 16 20  1  0  0  0  0
 19 20  1  0  0  0  0
 20 18  1  0  0  0  0
 22 21  1  0  0  0  0
 24 23  1  0  0  0  0
 25 24  1  6  0  0  0
 25 26  1  0  0  0  0
 25 32  1  0  0  0  0
 27 26  1  0  0  0  0
 28 27  1  0  0  0  0
 29 31  1  0  0  0  0
 30 31  2  0  0  0  0
 31 28  1  0  0  0  0
 32 34  1  0  0  0  0
 34 35  1  0  0  0  0
 34 33  2  0  0  0  0
 35 36  1  0  0  0  0
 36 37  1  0  0  0  0
 37 38  2  0  0  0  0
 39 37  1  0  0  0  0
 40 39  1  0  0  0  0
 41 43  1  0  0  0  0
 41 42  1  0  0  0  0
 42 40  1  0  0  0  0
 43 42  1  0  0  0  0
 44 45  1  0  0  0  0
 46 45  1  6  0  0  0
 46 50  1  0  0  0  0
 46 52  1  0  0  0  0
 47 48  1  0  0  0  0
 48 53  1  6  0  0  0
 49 47  1  0  0  0  0
 50 49  1  0  0  0  0
 51 48  1  0  0  0  0
 52 51  1  0  0  0  0
 53 54  1  0  0  0  0
 54 55  1  0  0  0  0
 56 55  2  0  0  0  0
 57 55  1  6  0  0  0
 57 65  1  0  0  0  0
 58 63  2  0  0  0  0
 60 62  2  0  0  0  0
 60 63  1  0  0  0  0
 61 59  2  0  0  0  0
 61 57  1  0  0  0  0
 62 61  1  0  0  0  0
 63 59  1  0  0  0  0
 65 64  1  0  0  0  0
 65 67  1  0  0  0  0
 65 66  1  0  0  0  0
M  END
>  <MODEL>
5

>  <REMARK>
 VINA RESULT:      -4.2      2.884      7.447
  Name = 
  28 active torsions:
  status: ('A' for Active; 'I' for Inactive)
    1  A    between atoms: C_1  and  C_46
    2  A    between atoms: C_3  and  N_42
    3  A    between atoms: C_3  and  N_50
    4  A    between atoms: C_6  and  C_45
    5  A    between atoms: C_8  and  C_45
    6  A    between atoms: C_8  and  C_64
    7  A    between atoms: C_8  and  C_65
    8  A    between atoms: C_12  and  C_62
    9  A    between atoms: C_13  and  C_48
   10  A    between atoms: C_14  and  O_52
   11  A    between atoms: C_16  and  C_51
   12  A    between atoms: N_17  and  C_62
   13  A    between atoms: C_21  and  C_63
   14  A    between atoms: C_22  and  C_54
   15  A    between atoms: C_22  and  C_62
   16  A    between atoms: C_26  and  C_46
   17  A    between atoms: C_26  and  C_57
   18  A    between atoms: C_30  and  C_51
   19  A    between atoms: C_30  and  C_61
   20  A    between atoms: C_34  and  O_38
   21  A    between atoms: C_34  and  C_56
   22  A    between atoms: O_38  and  C_65
   23  A    between atoms: N_42  and  N_67
   24  A    between atoms: C_47  and  C_51
   25  A    between atoms: C_48  and  N_50
   26  A    between atoms: O_52  and  C_64
   27  A    between atoms: C_57  and  C_60
   28  A    between atoms: C_61  and  C_63
                            x       y       z     vdW  Elec       q    Type
                         _______ _______ _______ _____ _____    ______ ____

>  <TORSDO>
F 28

$$$$
=
 OpenBabel11062416123D

 67 71  0  0  1  0  0  0  0  0999 V2000
  191.2630  176.5630  140.1330 C   0  0  0  0  0  3  0  0  0  0  0  0
  190.1130  176.9630  140.7240 C   0  0  0  0  0  0  0  0  0  0  0  0
  187.7390  177.4860  142.1450 N   0  0  0  0  0  0  0  0  0  0  0  0
  189.9730  178.1320  145.2680 C   0  0  0  0  0  3  0  0  0  0  0  0
  191.4590  177.0570  142.8160 C   0  0  0  0  0  3  0  0  0  0  0  0
  186.5040  178.0520  144.0790 N   0  0  0  0  0  0  0  0  0  0  0  0
  186.5900  177.7340  142.6850 C   0  0  0  0  0  3  0  0  0  0  0  0
  187.6990  178.1470  144.8190 N   0  0  0  0  0  0  0  0  0  0  0  0
  191.9360  177.3280  144.0210 C   0  0  0  0  0  3  0  0  0  0  0  0
  191.2310  177.8910  145.1200 N   0  0  0  0  0  0  0  0  0  0  0  0
  188.9780  177.5260  142.8770 C   0  0  0  0  0  0  0  0  0  0  0  0
  188.8760  177.8930  144.3260 C   0  0  0  0  0  0  0  0  0  0  0  0
  190.1220  177.2140  142.2070 C   0  0  0  0  0  0  0  0  0  0  0  0
  185.2620  178.6320  144.6190 C   0  0  2  0  0  0  0  0  0  0  0  0
  184.4760  177.5890  145.1080 O   0  0  0  0  0  1  0  0  0  0  0  0
  184.4500  179.3490  143.5130 C   0  0  1  0  0  3  0  0  0  0  0  0
  185.2670  180.1370  142.6910 O   0  0  0  0  0  1  0  0  0  0  0  0
  182.0960  179.0180  142.7680 C   0  0  0  0  0  1  0  0  0  0  0  0
  183.9180  178.3050  141.2500 C   0  0  0  0  0  1  0  0  0  0  0  0
  183.5000  178.4550  142.7030 C   0  0  0  0  0  3  0  0  0  0  0  0
  185.2620  178.9770  147.0230 O   0  0  0  0  0  1  0  0  0  0  0  0
  185.5540  179.5740  145.7960 C   0  0  0  0  0  2  0  0  0  0  0  0
  191.5140  176.4200  138.7590 O   0  0  0  0  0  0  0  0  0  0  0  0
  191.4530  175.1920  138.0430 C   0  0  0  0  0  2  0  0  0  0  0  0
  192.5880  175.1020  137.0350 C   0  0  2  0  0  3  0  0  0  0  0  0
  193.3970  176.3950  137.0380 C   0  0  0  0  0  2  0  0  0  0  0  0
  194.6690  176.1930  136.4910 O   0  0  0  0  0  0  0  0  0  0  0  0
  195.2250  175.1710  137.2590 C   0  0  0  0  0  2  0  0  0  0  0  0
  196.9550  174.6360  135.4200 C   0  0  0  0  0  1  0  0  0  0  0  0
  197.5380  174.9780  137.6710 O   0  0  0  0  0  0  0  0  0  0  0  0
  196.6390  174.9370  136.8440 C   0  0  0  0  0  0  0  0  0  0  0  0
  192.0260  174.8440  135.6470 C   0  0  0  0  0  2  0  0  0  0  0  0
  191.0690  172.6620  135.6230 O   0  0  0  0  0  0  0  0  0  0  0  0
  192.0470  173.3930  135.3170 C   0  0  0  0  0  0  0  0  0  0  0  0
  193.1990  172.8260  134.6980 N   0  0  0  0  0  2  0  0  0  0  0  0
  193.3430  171.4370  134.5940 N   0  0  0  0  0  2  0  0  0  0  0  0
  194.4020  170.7500  135.2550 C   0  0  0  0  0  0  0  0  0  0  0  0
  194.1210  170.1000  136.7370 S   0  0  0  0  0  0  0  0  0  0  0  0
  195.6630  170.5770  134.5950 N   0  0  0  0  0  2  0  0  0  0  0  0
  196.8760  170.1910  135.2950 C   0  0  0  0  0  2  0  0  0  0  0  0
  198.5050  171.6280  136.4550 C   0  0  0  0  0  2  0  0  0  0  0  0
  197.0830  171.1050  136.4850 C   0  0  0  0  0  3  0  0  0  0  0  0
  198.1370  170.5030  137.3950 C   0  0  0  0  0  2  0  0  0  0  0  0
  188.8770  177.2860  139.9250 C   0  0  0  0  0  2  0  0  0  0  0  0
  189.1250  178.4210  138.9300 C   0  0  0  0  0  2  0  0  0  0  0  0
  188.6650  178.1150  137.5050 C   0  0  2  0  0  3  0  0  0  0  0  0
  186.4760  177.4310  135.5950 C   0  0  0  0  0  2  0  0  0  0  0  0
  187.4910  176.3480  135.2040 C   0  0  1  0  0  3  0  0  0  0  0  0
  187.1040  178.6780  135.7430 O   0  0  0  0  0  0  0  0  0  0  0  0
  187.3500  178.8180  137.1180 C   0  0  0  0  0  2  0  0  0  0  0  0
  188.8110  176.5000  135.9730 C   0  0  0  0  0  2  0  0  0  0  0  0
  188.5620  176.7260  137.3340 O   0  0  0  0  0  0  0  0  0  0  0  0
  186.8740  174.9770  135.4580 C   0  0  0  0  0  2  0  0  0  0  0  0
  186.6060  174.7460  136.9400 C   0  0  0  0  0  2  0  0  0  0  0  0
  185.8680  173.4650  137.1840 C   0  0  0  0  0  0  0  0  0  0  0  0
  186.4780  172.4800  137.5700 O   0  0  0  0  0  0  0  0  0  0  0  0
  184.3720  173.3820  137.0090 C   0  0  1  0  0  3  0  0  0  0  0  0
  180.8300  177.0290  136.9620 S   0  0  0  0  0  0  0  0  0  0  0  0
  182.5200  174.9510  136.6330 N   0  0  0  0  0  0  0  0  0  0  0  0
  183.3310  176.7300  137.9200 N   0  0  0  0  0  0  0  0  0  0  0  0
  183.6950  174.7210  137.1290 C   0  0  0  0  0  0  0  0  0  0  0  0
  184.1920  175.7970  137.9300 N   0  0  0  0  0  0  0  0  0  0  0  0
  182.2710  176.2660  137.1040 C   0  0  0  0  0  0  0  0  0  0  0  0
  183.9440  173.4270  134.6620 F   0  0  0  0  0  0  0  0  0  0  0  0
  183.9600  172.5890  135.7620 C   0  0  0  0  0  0  0  0  0  0  0  0
  184.8510  171.5400  135.5260 O   0  0  0  0  0  1  0  0  0  0  0  0
  182.6900  172.0710  135.9410 F   0  0  0  0  0  0  0  0  0  0  0  0
  1  2  2  0  0  0  0
  2 13  1  0  0  0  0
  3  7  2  0  0  0  0
  3 11  1  0  0  0  0
  5  9  2  0  0  0  0
  6 14  1  0  0  0  0
  6  8  1  0  0  0  0
  7  6  1  0  0  0  0
  9 10  1  0  0  0  0
 10  4  2  0  0  0  0
 11 12  1  0  0  0  0
 12  8  2  0  0  0  0
 12  4  1  0  0  0  0
 13  5  1  0  0  0  0
 13 11  2  0  0  0  0
 14 15  1  1  0  0  0
 14 22  1  0  0  0  0
 16 17  1  6  0  0  0
 16 14  1  0  0  0  0
 19 20  1  0  0  0  0
 20 18  1  0  0  0  0
 20 16  1  0  0  0  0
 22 21  1  0  0  0  0
 23  1  1  0  0  0  0
 24 23  1  0  0  0  0
 25 32  1  6  0  0  0
 25 26  1  0  0  0  0
 25 24  1  0  0  0  0
 27 26  1  0  0  0  0
 27 28  1  0  0  0  0
 29 31  1  0  0  0  0
 31 28  1  0  0  0  0
 31 30  2  0  0  0  0
 34 33  2  0  0  0  0
 34 32  1  0  0  0  0
 35 34  1  0  0  0  0
 36 35  1  0  0  0  0
 36 37  1  0  0  0  0
 37 38  2  0  0  0  0
 39 37  1  0  0  0  0
 39 40  1  0  0  0  0
 40 42  1  0  0  0  0
 41 42  1  0  0  0  0
 41 43  1  0  0  0  0
 42 43  1  0  0  0  0
 44  2  1  0  0  0  0
 45 44  1  0  0  0  0
 46 45  1  1  0  0  0
 47 49  1  0  0  0  0
 48 53  1  1  0  0  0
 48 47  1  0  0  0  0
 48 51  1  0  0  0  0
 49 50  1  0  0  0  0
 50 46  1  0  0  0  0
 51 52  1  0  0  0  0
 52 46  1  0  0  0  0
 53 54  1  0  0  0  0
 54 55  1  0  0  0  0
 55 56  2  0  0  0  0
 57 61  1  0  0  0  0
 57 55  1  6  0  0  0
 58 63  2  0  0  0  0
 59 63  1  0  0  0  0
 59 61  2  0  0  0  0
 60 62  2  0  0  0  0
 61 62  1  0  0  0  0
 63 60  1  0  0  0  0
 64 65  1  0  0  0  0
 65 67  1  0  0  0  0
 65 57  1  0  0  0  0
 66 65  1  0  0  0  0
M  END
>  <MODEL>
6

>  <REMARK>
 VINA RESULT:      -4.1      3.952      9.442
  Name = 
  28 active torsions:
  status: ('A' for Active; 'I' for Inactive)
    1  A    between atoms: C_1  and  C_46
    2  A    between atoms: C_3  and  N_42
    3  A    between atoms: C_3  and  N_50
    4  A    between atoms: C_6  and  C_45
    5  A    between atoms: C_8  and  C_45
    6  A    between atoms: C_8  and  C_64
    7  A    between atoms: C_8  and  C_65
    8  A    between atoms: C_12  and  C_62
    9  A    between atoms: C_13  and  C_48
   10  A    between atoms: C_14  and  O_52
   11  A    between atoms: C_16  and  C_51
   12  A    between atoms: N_17  and  C_62
   13  A    between atoms: C_21  and  C_63
   14  A    between atoms: C_22  and  C_54
   15  A    between atoms: C_22  and  C_62
   16  A    between atoms: C_26  and  C_46
   17  A    between atoms: C_26  and  C_57
   18  A    between atoms: C_30  and  C_51
   19  A    between atoms: C_30  and  C_61
   20  A    between atoms: C_34  and  O_38
   21  A    between atoms: C_34  and  C_56
   22  A    between atoms: O_38  and  C_65
   23  A    between atoms: N_42  and  N_67
   24  A    between atoms: C_47  and  C_51
   25  A    between atoms: C_48  and  N_50
   26  A    between atoms: O_52  and  C_64
   27  A    between atoms: C_57  and  C_60
   28  A    between atoms: C_61  and  C_63
                            x       y       z     vdW  Elec       q    Type
                         _______ _______ _______ _____ _____    ______ ____

>  <TORSDO>
F 28

$$$$
=
 OpenBabel11062416123D

 67 71  0  0  1  0  0  0  0  0999 V2000
  184.1030  178.1570  141.7490 C   0  0  0  0  0  3  0  0  0  0  0  0
  184.0340  178.3330  140.4090 C   0  0  0  0  0  0  0  0  0  0  0  0
  182.8680  176.1010  139.1480 N   0  0  0  0  0  0  0  0  0  0  0  0
  179.9840  178.4690  138.0400 C   0  0  0  0  0  3  0  0  0  0  0  0
  182.0130  179.7160  139.9650 C   0  0  0  0  0  3  0  0  0  0  0  0
  181.1940  175.0110  137.8870 N   0  0  0  0  0  0  0  0  0  0  0  0
  182.4460  175.0170  138.5820 C   0  0  0  0  0  3  0  0  0  0  0  0
  180.4770  176.2190  137.7860 N   0  0  0  0  0  0  0  0  0  0  0  0
  180.9150  180.2540  139.4550 C   0  0  0  0  0  3  0  0  0  0  0  0
  180.0280  179.6700  138.5100 N   0  0  0  0  0  0  0  0  0  0  0  0
  182.1440  177.3450  139.1070 C   0  0  0  0  0  0  0  0  0  0  0  0
  180.8520  177.3300  138.3490 C   0  0  0  0  0  0  0  0  0  0  0  0
  182.6750  178.4110  139.7690 C   0  0  0  0  0  0  0  0  0  0  0  0
  180.8630  173.8880  136.9910 C   0  0  2  0  0  0  0  0  0  0  0  0
  179.5610  173.4790  137.2770 O   0  0  0  0  0  1  0  0  0  0  0  0
  181.7970  172.6790  137.2400 C   0  0  1  0  0  3  0  0  0  0  0  0
  181.1210  171.6090  137.8420 O   0  0  0  0  0  1  0  0  0  0  0  0
  183.6120  173.3280  135.6610 C   0  0  0  0  0  1  0  0  0  0  0  0
  183.3990  170.9420  136.2860 C   0  0  0  0  0  1  0  0  0  0  0  0
  182.6370  172.2320  136.0350 C   0  0  0  0  0  3  0  0  0  0  0  0
  181.9830  175.1500  135.2450 O   0  0  0  0  0  1  0  0  0  0  0  0
  180.8930  174.3240  135.5190 C   0  0  0  0  0  2  0  0  0  0  0  0
  185.2480  178.2060  142.5610 O   0  0  0  0  0  0  0  0  0  0  0  0
  185.2770  177.8920  143.9490 C   0  0  0  0  0  2  0  0  0  0  0  0
  186.7020  177.6180  144.4050 C   0  0  2  0  0  3  0  0  0  0  0  0
  187.3200  176.5090  143.5610 C   0  0  0  0  0  2  0  0  0  0  0  0
  188.5110  176.9370  142.9630 O   0  0  0  0  0  0  0  0  0  0  0  0
  188.1680  177.1830  141.6340 C   0  0  0  0  0  2  0  0  0  0  0  0
  190.6850  177.2230  141.0640 C   0  0  0  0  0  1  0  0  0  0  0  0
  189.1560  178.8000  140.2320 O   0  0  0  0  0  0  0  0  0  0  0  0
  189.3220  177.8060  140.9210 C   0  0  0  0  0  0  0  0  0  0  0  0
  186.7040  177.2180  145.8720 C   0  0  0  0  0  2  0  0  0  0  0  0
  188.2300  178.8880  146.6210 O   0  0  0  0  0  0  0  0  0  0  0  0
  187.9530  177.6630  146.5500 C   0  0  0  0  0  0  0  0  0  0  0  0
  188.8550  176.6910  147.0750 N   0  0  0  0  0  2  0  0  0  0  0  0
  190.1360  177.0640  147.5000 N   0  0  0  0  0  2  0  0  0  0  0  0
  191.3030  176.6340  146.8040 C   0  0  0  0  0  0  0  0  0  0  0  0
  191.1870  176.2830  145.2040 S   0  0  0  0  0  0  0  0  0  0  0  0
  192.5640  176.5820  147.4850 N   0  0  0  0  0  2  0  0  0  0  0  0
  192.8100  175.7180  148.6260 C   0  0  0  0  0  2  0  0  0  0  0  0
  193.4510  176.3650  150.9140 C   0  0  0  0  0  2  0  0  0  0  0  0
  193.9180  176.3080  149.4740 C   0  0  0  0  0  3  0  0  0  0  0  0
  193.4410  177.6190  150.0700 C   0  0  0  0  0  2  0  0  0  0  0  0
  185.2620  178.5820  139.5740 C   0  0  0  0  0  2  0  0  0  0  0  0
  184.9140  178.7840  138.0990 C   0  0  0  0  0  2  0  0  0  0  0  0
  185.8580  178.0700  137.1310 C   0  0  2  0  0  3  0  0  0  0  0  0
  186.9130  175.5370  135.9580 C   0  0  0  0  0  2  0  0  0  0  0  0
  188.2430  176.2130  136.3190 C   0  0  1  0  0  3  0  0  0  0  0  0
  186.0370  176.4460  135.3450 O   0  0  0  0  0  0  0  0  0  0  0  0
  185.1940  176.9080  136.3670 C   0  0  0  0  0  2  0  0  0  0  0  0
  188.0300  177.6280  136.8760 C   0  0  0  0  0  2  0  0  0  0  0  0
  186.9960  177.6310  137.8230 O   0  0  0  0  0  0  0  0  0  0  0  0
  188.9820  175.3420  137.3290 C   0  0  0  0  0  2  0  0  0  0  0  0
  190.3230  175.9500  137.7220 C   0  0  0  0  0  2  0  0  0  0  0  0
  191.4450  175.4250  136.8790 C   0  0  0  0  0  0  0  0  0  0  0  0
  191.3360  175.4200  135.6630 O   0  0  0  0  0  0  0  0  0  0  0  0
  192.7330  174.9470  137.5030 C   0  0  1  0  0  3  0  0  0  0  0  0
  194.4070  170.2270  136.6240 S   0  0  0  0  0  0  0  0  0  0  0  0
  193.7120  172.6950  137.4680 N   0  0  0  0  0  0  0  0  0  0  0  0
  193.7140  172.3740  135.1500 N   0  0  0  0  0  0  0  0  0  0  0  0
  193.3000  173.7350  136.8150 C   0  0  0  0  0  0  0  0  0  0  0  0
  193.2830  173.5420  135.3960 N   0  0  0  0  0  0  0  0  0  0  0  0
  194.0220  171.8030  136.4080 C   0  0  0  0  0  0  0  0  0  0  0  0
  194.7010  175.6810  138.6350 F   0  0  0  0  0  0  0  0  0  0  0  0
  193.7520  176.0750  137.7090 C   0  0  0  0  0  0  0  0  0  0  0  0
  194.3880  176.3920  136.5070 O   0  0  0  0  0  1  0  0  0  0  0  0
  193.1070  177.2000  138.1890 F   0  0  0  0  0  0  0  0  0  0  0  0
  1 23  1  0  0  0  0
  2  1  2  0  0  0  0
  4 12  1  0  0  0  0
  4 10  2  0  0  0  0
  6  7  1  0  0  0  0
  7  3  2  0  0  0  0
  8  6  1  0  0  0  0
  8 12  2  0  0  0  0
  9  5  2  0  0  0  0
 10  9  1  0  0  0  0
 11  3  1  0  0  0  0
 11 13  2  0  0  0  0
 12 11  1  0  0  0  0
 13  5  1  0  0  0  0
 13  2  1  0  0  0  0
 14 16  1  0  0  0  0
 14 15  1  1  0  0  0
 14  6  1  0  0  0  0
 16 17  1  6  0  0  0
 18 20  1  0  0  0  0
 20 19  1  0  0  0  0
 20 16  1  0  0  0  0
 21 22  1  0  0  0  0
 22 14  1  0  0  0  0
 23 24  1  0  0  0  0
 24 25  1  0  0  0  0
 25 26  1  6  0  0  0
 25 32  1  0  0  0  0
 27 26  1  0  0  0  0
 28 27  1  0  0  0  0
 30 31  2  0  0  0  0
 31 29  1  0  0  0  0
 31 28  1  0  0  0  0
 32 34  1  0  0  0  0
 34 33  2  0  0  0  0
 34 35  1  0  0  0  0
 35 36  1  0  0  0  0
 37 39  1  0  0  0  0
 37 36  1  0  0  0  0
 38 37  2  0  0  0  0
 39 40  1  0  0  0  0
 40 42  1  0  0  0  0
 42 43  1  0  0  0  0
 42 41  1  0  0  0  0
 43 41  1  0  0  0  0
 44  2  1  0  0  0  0
 45 44  1  0  0  0  0
 46 52  1  0  0  0  0
 46 45  1  1  0  0  0
 47 48  1  0  0  0  0
 48 51  1  0  0  0  0
 48 53  1  1  0  0  0
 49 47  1  0  0  0  0
 49 50  1  0  0  0  0
 50 46  1  0  0  0  0
 51 52  1  0  0  0  0
 53 54  1  0  0  0  0
 55 54  1  0  0  0  0
 56 55  2  0  0  0  0
 57 55  1  6  0  0  0
 57 65  1  0  0  0  0
 60 62  2  0  0  0  0
 60 63  1  0  0  0  0
 61 59  2  0  0  0  0
 61 57  1  0  0  0  0
 62 61  1  0  0  0  0
 63 58  2  0  0  0  0
 63 59  1  0  0  0  0
 65 67  1  0  0  0  0
 65 64  1  0  0  0  0
 66 65  1  0  0  0  0
M  END
>  <MODEL>
7

>  <REMARK>
 VINA RESULT:      -3.6      2.771      7.893
  Name = 
  28 active torsions:
  status: ('A' for Active; 'I' for Inactive)
    1  A    between atoms: C_1  and  C_46
    2  A    between atoms: C_3  and  N_42
    3  A    between atoms: C_3  and  N_50
    4  A    between atoms: C_6  and  C_45
    5  A    between atoms: C_8  and  C_45
    6  A    between atoms: C_8  and  C_64
    7  A    between atoms: C_8  and  C_65
    8  A    between atoms: C_12  and  C_62
    9  A    between atoms: C_13  and  C_48
   10  A    between atoms: C_14  and  O_52
   11  A    between atoms: C_16  and  C_51
   12  A    between atoms: N_17  and  C_62
   13  A    between atoms: C_21  and  C_63
   14  A    between atoms: C_22  and  C_54
   15  A    between atoms: C_22  and  C_62
   16  A    between atoms: C_26  and  C_46
   17  A    between atoms: C_26  and  C_57
   18  A    between atoms: C_30  and  C_51
   19  A    between atoms: C_30  and  C_61
   20  A    between atoms: C_34  and  O_38
   21  A    between atoms: C_34  and  C_56
   22  A    between atoms: O_38  and  C_65
   23  A    between atoms: N_42  and  N_67
   24  A    between atoms: C_47  and  C_51
   25  A    between atoms: C_48  and  N_50
   26  A    between atoms: O_52  and  C_64
   27  A    between atoms: C_57  and  C_60
   28  A    between atoms: C_61  and  C_63
                            x       y       z     vdW  Elec       q    Type
                         _______ _______ _______ _____ _____    ______ ____

>  <TORSDO>
F 28

$$$$
=
 OpenBabel11062416123D

 67 71  0  0  1  0  0  0  0  0999 V2000
  190.9300  176.2790  140.4290 C   0  0  0  0  0  3  0  0  0  0  0  0
  189.8410  176.7860  141.0520 C   0  0  0  0  0  0  0  0  0  0  0  0
  187.5380  177.5070  142.5030 N   0  0  0  0  0  0  0  0  0  0  0  0
  189.7510  177.4050  145.7050 C   0  0  0  0  0  3  0  0  0  0  0  0
  191.1220  176.4100  143.1530 C   0  0  0  0  0  3  0  0  0  0  0  0
  186.3510  178.0260  144.4790 N   0  0  0  0  0  0  0  0  0  0  0  0
  186.4270  177.8700  143.0580 C   0  0  0  0  0  3  0  0  0  0  0  0
  187.5230  177.8380  145.2370 N   0  0  0  0  0  0  0  0  0  0  0  0
  191.5990  176.4530  144.3880 C   0  0  0  0  0  3  0  0  0  0  0  0
  190.9600  176.9840  145.5400 N   0  0  0  0  0  0  0  0  0  0  0  0
  188.7460  177.2600  143.2470 C   0  0  0  0  0  0  0  0  0  0  0  0
  188.6590  177.4600  144.7290 C   0  0  0  0  0  0  0  0  0  0  0  0
  189.8450  176.8510  142.5550 C   0  0  0  0  0  0  0  0  0  0  0  0
  185.2000  178.7290  145.0750 C   0  0  2  0  0  0  0  0  0  0  0  0
  184.2100  177.7830  145.3420 O   0  0  0  0  0  1  0  0  0  0  0  0
  184.6030  179.7630  144.0890 C   0  0  1  0  0  3  0  0  0  0  0  0
  185.5840  180.3210  143.2580 O   0  0  0  0  0  1  0  0  0  0  0  0
  183.7840  178.2450  142.2920 C   0  0  0  0  0  1  0  0  0  0  0  0
  182.2750  178.7330  144.1920 C   0  0  0  0  0  1  0  0  0  0  0  0
  183.3710  179.2940  143.3020 C   0  0  0  0  0  3  0  0  0  0  0  0
  186.0250  178.4450  147.3410 O   0  0  0  0  0  1  0  0  0  0  0  0
  185.5790  179.3840  146.4110 C   0  0  0  0  0  2  0  0  0  0  0  0
  191.1960  176.2640  139.0500 O   0  0  0  0  0  0  0  0  0  0  0  0
  191.0010  175.1440  138.1940 C   0  0  0  0  0  2  0  0  0  0  0  0
  192.1520  175.0170  137.2080 C   0  0  2  0  0  3  0  0  0  0  0  0
  192.8680  176.3550  137.0600 C   0  0  0  0  0  2  0  0  0  0  0  0
  194.1880  176.1740  136.6330 O   0  0  0  0  0  0  0  0  0  0  0  0
  194.2400  176.7840  135.3800 C   0  0  0  0  0  2  0  0  0  0  0  0
  196.7110  176.4780  134.7030 C   0  0  0  0  0  1  0  0  0  0  0  0
  195.8050  178.5470  135.3480 O   0  0  0  0  0  0  0  0  0  0  0  0
  195.5980  177.3590  135.1530 C   0  0  0  0  0  0  0  0  0  0  0  0
  191.6250  174.5570  135.8580 C   0  0  0  0  0  2  0  0  0  0  0  0
  191.4410  172.1950  135.6030 O   0  0  0  0  0  0  0  0  0  0  0  0
  192.1660  173.2180  135.4950 C   0  0  0  0  0  0  0  0  0  0  0  0
  193.5220  173.0950  135.0730 N   0  0  0  0  0  2  0  0  0  0  0  0
  194.1220  171.8360  134.9560 N   0  0  0  0  0  2  0  0  0  0  0  0
  195.3440  171.5300  135.6240 C   0  0  0  0  0  0  0  0  0  0  0  0
  195.7840  169.9570  135.7890 S   0  0  0  0  0  0  0  0  0  0  0  0
  196.1960  172.5920  136.0750 N   0  0  0  0  0  2  0  0  0  0  0  0
  197.3310  173.0740  135.3090 C   0  0  0  0  0  2  0  0  0  0  0  0
  198.3210  172.7400  137.5390 C   0  0  0  0  0  2  0  0  0  0  0  0
  198.4150  173.5430  136.2570 C   0  0  0  0  0  3  0  0  0  0  0  0
  197.7680  174.1460  137.4900 C   0  0  0  0  0  2  0  0  0  0  0  0
  188.6980  177.3990  140.2870 C   0  0  0  0  0  2  0  0  0  0  0  0
  189.1790  178.1190  139.0260 C   0  0  0  0  0  2  0  0  0  0  0  0
  188.5220  177.6280  137.7360 C   0  0  2  0  0  3  0  0  0  0  0  0
  186.2350  177.7000  135.8210 C   0  0  0  0  0  2  0  0  0  0  0  0
  186.3450  176.1800  136.0160 C   0  0  1  0  0  3  0  0  0  0  0  0
  187.5020  178.2760  135.6390 O   0  0  0  0  0  0  0  0  0  0  0  0
  187.8850  178.7550  136.9020 C   0  0  0  0  0  2  0  0  0  0  0  0
  187.5370  175.8060  136.9080 C   0  0  0  0  0  2  0  0  0  0  0  0
  187.5810  176.6320  138.0390 O   0  0  0  0  0  0  0  0  0  0  0  0
  185.0410  175.6630  136.6120 C   0  0  0  0  0  2  0  0  0  0  0  0
  184.5080  176.5940  137.6940 C   0  0  0  0  0  2  0  0  0  0  0  0
  183.2240  176.0940  138.2820 C   0  0  0  0  0  0  0  0  0  0  0  0
  182.8830  174.9370  138.0920 O   0  0  0  0  0  0  0  0  0  0  0  0
  182.3640  176.9810  139.1480 C   0  0  1  0  0  3  0  0  0  0  0  0
  181.4510  181.9000  138.2380 S   0  0  0  0  0  0  0  0  0  0  0  0
  181.6020  179.2140  138.4670 N   0  0  0  0  0  0  0  0  0  0  0  0
  183.5740  180.3890  138.9250 N   0  0  0  0  0  0  0  0  0  0  0  0
  182.5660  178.4460  138.8640 C   0  0  0  0  0  0  0  0  0  0  0  0
  183.7720  179.1570  139.1620 N   0  0  0  0  0  0  0  0  0  0  0  0
  182.2380  180.4830  138.4650 C   0  0  0  0  0  0  0  0  0  0  0  0
  180.4310  176.4120  137.8700 F   0  0  0  0  0  0  0  0  0  0  0  0
  180.8910  176.5520  139.1670 C   0  0  0  0  0  0  0  0  0  0  0  0
  180.7400  175.3380  139.8410 O   0  0  0  0  0  1  0  0  0  0  0  0
  180.1350  177.5190  139.8040 F   0  0  0  0  0  0  0  0  0  0  0  0
  1  2  2  0  0  0  0
  2 13  1  0  0  0  0
  3  7  2  0  0  0  0
  3 11  1  0  0  0  0
  5  9  2  0  0  0  0
  6 14  1  0  0  0  0
  6  8  1  0  0  0  0
  7  6  1  0  0  0  0
  9 10  1  0  0  0  0
 10  4  2  0  0  0  0
 11 12  1  0  0  0  0
 12  8  2  0  0  0  0
 12  4  1  0  0  0  0
 13  5  1  0  0  0  0
 13 11  2  0  0  0  0
 14 15  1  1  0  0  0
 14 22  1  0  0  0  0
 16 17  1  6  0  0  0
 16 14  1  0  0  0  0
 18 20  1  0  0  0  0
 20 16  1  0  0  0  0
 20 19  1  0  0  0  0
 22 21  1  0  0  0  0
 23  1  1  0  0  0  0
 24 23  1  0  0  0  0
 25 32  1  6  0  0  0
 25 24  1  0  0  0  0
 26 25  1  0  0  0  0
 27 26  1  0  0  0  0
 28 27  1  0  0  0  0
 29 31  1  0  0  0  0
 31 30  2  0  0  0  0
 31 28  1  0  0  0  0
 34 33  2  0  0  0  0
 34 32  1  0  0  0  0
 35 34  1  0  0  0  0
 36 35  1  0  0  0  0
 36 37  1  0  0  0  0
 37 38  2  0  0  0  0
 37 39  1  0  0  0  0
 40 39  1  0  0  0  0
 40 42  1  0  0  0  0
 42 43  1  0  0  0  0
 42 41  1  0  0  0  0
 43 41  1  0  0  0  0
 44  2  1  0  0  0  0
 45 44  1  0  0  0  0
 46 52  1  0  0  0  0
 46 45  1  1  0  0  0
 47 48  1  0  0  0  0
 48 53  1  1  0  0  0
 48 51  1  0  0  0  0
 49 47  1  0  0  0  0
 49 50  1  0  0  0  0
 50 46  1  0  0  0  0
 51 52  1  0  0  0  0
 53 54  1  0  0  0  0
 54 55  1  0  0  0  0
 56 55  2  0  0  0  0
 57 55  1  6  0  0  0
 57 65  1  0  0  0  0
 58 63  2  0  0  0  0
 59 61  2  0  0  0  0
 60 62  2  0  0  0  0
 61 57  1  0  0  0  0
 61 62  1  0  0  0  0
 63 59  1  0  0  0  0
 63 60  1  0  0  0  0
 64 65  1  0  0  0  0
 65 67  1  0  0  0  0
 65 66  1  0  0  0  0
M  END
>  <MODEL>
8

>  <REMARK>
 VINA RESULT:      -3.5      4.029      9.234
  Name = 
  28 active torsions:
  status: ('A' for Active; 'I' for Inactive)
    1  A    between atoms: C_1  and  C_46
    2  A    between atoms: C_3  and  N_42
    3  A    between atoms: C_3  and  N_50
    4  A    between atoms: C_6  and  C_45
    5  A    between atoms: C_8  and  C_45
    6  A    between atoms: C_8  and  C_64
    7  A    between atoms: C_8  and  C_65
    8  A    between atoms: C_12  and  C_62
    9  A    between atoms: C_13  and  C_48
   10  A    between atoms: C_14  and  O_52
   11  A    between atoms: C_16  and  C_51
   12  A    between atoms: N_17  and  C_62
   13  A    between atoms: C_21  and  C_63
   14  A    between atoms: C_22  and  C_54
   15  A    between atoms: C_22  and  C_62
   16  A    between atoms: C_26  and  C_46
   17  A    between atoms: C_26  and  C_57
   18  A    between atoms: C_30  and  C_51
   19  A    between atoms: C_30  and  C_61
   20  A    between atoms: C_34  and  O_38
   21  A    between atoms: C_34  and  C_56
   22  A    between atoms: O_38  and  C_65
   23  A    between atoms: N_42  and  N_67
   24  A    between atoms: C_47  and  C_51
   25  A    between atoms: C_48  and  N_50
   26  A    between atoms: O_52  and  C_64
   27  A    between atoms: C_57  and  C_60
   28  A    between atoms: C_61  and  C_63
                            x       y       z     vdW  Elec       q    Type
                         _______ _______ _______ _____ _____    ______ ____

>  <TORSDO>
F 28

$$$$
=
 OpenBabel11062416123D

 67 71  0  0  1  0  0  0  0  0999 V2000
  190.9290  176.3010  140.4100 C   0  0  0  0  0  3  0  0  0  0  0  0
  189.8930  176.8950  141.0460 C   0  0  0  0  0  0  0  0  0  0  0  0
  187.6050  177.5570  142.5480 N   0  0  0  0  0  0  0  0  0  0  0  0
  189.9030  177.5800  145.6910 C   0  0  0  0  0  3  0  0  0  0  0  0
  191.2400  176.5940  143.1180 C   0  0  0  0  0  3  0  0  0  0  0  0
  186.4520  178.0650  144.5470 N   0  0  0  0  0  0  0  0  0  0  0  0
  186.4960  177.8900  143.1270 C   0  0  0  0  0  3  0  0  0  0  0  0
  187.6490  177.9280  145.2770 N   0  0  0  0  0  0  0  0  0  0  0  0
  191.7480  176.6730  144.3390 C   0  0  0  0  0  3  0  0  0  0  0  0
  191.1210  177.1990  145.5000 N   0  0  0  0  0  0  0  0  0  0  0  0
  188.8390  177.3630  143.2630 C   0  0  0  0  0  0  0  0  0  0  0  0
  188.7840  177.5830  144.7440 C   0  0  0  0  0  0  0  0  0  0  0  0
  189.9340  176.9820  142.5480 C   0  0  0  0  0  0  0  0  0  0  0  0
  185.2930  178.7360  145.1630 C   0  0  2  0  0  0  0  0  0  0  0  0
  185.5820  180.0980  145.2520 O   0  0  0  0  0  1  0  0  0  0  0  0
  185.0430  178.2170  146.6000 C   0  0  1  0  0  3  0  0  0  0  0  0
  185.2470  176.8340  146.7010 O   0  0  0  0  0  1  0  0  0  0  0  0
  187.0500  178.2930  148.0740 C   0  0  0  0  0  1  0  0  0  0  0  0
  186.0480  180.4370  147.3470 C   0  0  0  0  0  1  0  0  0  0  0  0
  185.7560  178.9930  147.7170 C   0  0  0  0  0  3  0  0  0  0  0  0
  183.5100  179.8310  143.9320 O   0  0  0  0  0  1  0  0  0  0  0  0
  184.0380  178.5910  144.2910 C   0  0  0  0  0  2  0  0  0  0  0  0
  191.1640  176.2450  139.0260 O   0  0  0  0  0  0  0  0  0  0  0  0
  190.9740  175.0930  138.2130 C   0  0  0  0  0  2  0  0  0  0  0  0
  192.1170  174.9450  137.2200 C   0  0  2  0  0  3  0  0  0  0  0  0
  192.7250  176.3080  136.9110 C   0  0  0  0  0  2  0  0  0  0  0  0
  194.0930  176.1970  136.6370 O   0  0  0  0  0  0  0  0  0  0  0  0
  194.2280  176.6540  135.3270 C   0  0  0  0  0  2  0  0  0  0  0  0
  196.7510  176.7290  134.7890 C   0  0  0  0  0  1  0  0  0  0  0  0
  195.5150  178.6270  135.4130 O   0  0  0  0  0  0  0  0  0  0  0  0
  195.4980  177.4260  135.1870 C   0  0  0  0  0  0  0  0  0  0  0  0
  191.6070  174.3000  135.9410 C   0  0  0  0  0  2  0  0  0  0  0  0
  191.7290  171.9660  135.4790 O   0  0  0  0  0  0  0  0  0  0  0  0
  192.3520  173.0480  135.6340 C   0  0  0  0  0  0  0  0  0  0  0  0
  193.7760  173.0730  135.5640 N   0  0  0  0  0  2  0  0  0  0  0  0
  194.5080  171.8810  135.5140 N   0  0  0  0  0  2  0  0  0  0  0  0
  195.4870  171.5700  136.5030 C   0  0  0  0  0  0  0  0  0  0  0  0
  195.3040  170.2030  137.3950 S   0  0  0  0  0  0  0  0  0  0  0  0
  196.6400  172.4070  136.6550 N   0  0  0  0  0  2  0  0  0  0  0  0
  196.6590  173.5790  137.5130 C   0  0  0  0  0  2  0  0  0  0  0  0
  199.1170  173.4900  137.3940 C   0  0  0  0  0  2  0  0  0  0  0  0
  197.9080  174.3890  137.2310 C   0  0  0  0  0  3  0  0  0  0  0  0
  198.7470  174.4590  138.4940 C   0  0  0  0  0  2  0  0  0  0  0  0
  188.7810  177.5770  140.2940 C   0  0  0  0  0  2  0  0  0  0  0  0
  189.3000  178.3190  139.0620 C   0  0  0  0  0  2  0  0  0  0  0  0
  188.8020  177.7500  137.7340 C   0  0  2  0  0  3  0  0  0  0  0  0
  186.7700  177.7080  135.5490 C   0  0  0  0  0  2  0  0  0  0  0  0
  186.8380  176.2040  135.8490 C   0  0  1  0  0  3  0  0  0  0  0  0
  188.0560  178.2680  135.4900 O   0  0  0  0  0  0  0  0  0  0  0  0
  188.2850  178.8240  136.7580 C   0  0  0  0  0  2  0  0  0  0  0  0
  187.9070  175.8820  136.9040 C   0  0  0  0  0  2  0  0  0  0  0  0
  187.8200  176.7790  137.9790 O   0  0  0  0  0  0  0  0  0  0  0  0
  185.4650  175.7300  136.3110 C   0  0  0  0  0  2  0  0  0  0  0  0
  184.5660  176.8970  136.6980 C   0  0  0  0  0  2  0  0  0  0  0  0
  183.3990  176.4560  137.5280 C   0  0  0  0  0  0  0  0  0  0  0  0
  183.5080  176.4030  138.7430 O   0  0  0  0  0  0  0  0  0  0  0  0
  182.0720  176.1230  136.8930 C   0  0  1  0  0  3  0  0  0  0  0  0
  180.5520  180.7940  135.5770 S   0  0  0  0  0  0  0  0  0  0  0  0
  181.7130  178.5050  136.4150 N   0  0  0  0  0  0  0  0  0  0  0  0
  179.3810  178.4550  136.2260 N   0  0  0  0  0  0  0  0  0  0  0  0
  181.2120  177.3370  136.6670 C   0  0  0  0  0  0  0  0  0  0  0  0
  179.7870  177.2930  136.5380 N   0  0  0  0  0  0  0  0  0  0  0  0
  180.5410  179.2630  136.1580 C   0  0  0  0  0  0  0  0  0  0  0  0
  182.8000  175.9330  134.6280 F   0  0  0  0  0  0  0  0  0  0  0  0
  182.2090  175.2230  135.6580 C   0  0  0  0  0  0  0  0  0  0  0  0
  182.9900  174.1020  135.9480 O   0  0  0  0  0  1  0  0  0  0  0  0
  180.9560  174.8070  135.2470 F   0  0  0  0  0  0  0  0  0  0  0  0
  1  2  2  0  0  0  0
  2 13  1  0  0  0  0
  3  7  2  0  0  0  0
  3 11  1  0  0  0  0
  5  9  2  0  0  0  0
  6 14  1  0  0  0  0
  6  8  1  0  0  0  0
  7  6  1  0  0  0  0
  9 10  1  0  0  0  0
 10  4  2  0  0  0  0
 11 12  1  0  0  0  0
 12  8  2  0  0  0  0
 12  4  1  0  0  0  0
 13  5  1  0  0  0  0
 13 11  2  0  0  0  0
 14 15  1  1  0  0  0
 14 16  1  0  0  0  0
 16 17  1  6  0  0  0
 16 20  1  0  0  0  0
 19 20  1  0  0  0  0
 20 18  1  0  0  0  0
 21 22  1  0  0  0  0
 22 14  1  0  0  0  0
 23  1  1  0  0  0  0
 24 23  1  0  0  0  0
 25 32  1  6  0  0  0
 25 24  1  0  0  0  0
 26 25  1  0  0  0  0
 27 26  1  0  0  0  0
 28 27  1  0  0  0  0
 29 31  1  0  0  0  0
 31 28  1  0  0  0  0
 31 30  2  0  0  0  0
 33 34  2  0  0  0  0
 34 32  1  0  0  0  0
 35 34  1  0  0  0  0
 36 35  1  0  0  0  0
 36 37  1  0  0  0  0
 37 39  1  0  0  0  0
 37 38  2  0  0  0  0
 39 40  1  0  0  0  0
 41 43  1  0  0  0  0
 42 41  1  0  0  0  0
 42 40  1  0  0  0  0
 42 43  1  0  0  0  0
 44  2  1  0  0  0  0
 45 44  1  0  0  0  0
 46 52  1  0  0  0  0
 46 45  1  1  0  0  0
 47 48  1  0  0  0  0
 48 53  1  1  0  0  0
 48 51  1  0  0  0  0
 49 47  1  0  0  0  0
 49 50  1  0  0  0  0
 50 46  1  0  0  0  0
 51 52  1  0  0  0  0
 53 54  1  0  0  0  0
 54 55  1  0  0  0  0
 55 56  2  0  0  0  0
 57 55  1  6  0  0  0
 58 63  2  0  0  0  0
 59 61  2  0  0  0  0
 60 62  2  0  0  0  0
 61 57  1  0  0  0  0
 62 61  1  0  0  0  0
 63 60  1  0  0  0  0
 63 59  1  0  0  0  0
 64 65  1  0  0  0  0
 65 66  1  0  0  0  0
 65 57  1  0  0  0  0
 67 65  1  0  0  0  0
M  END
>  <MODEL>
9

>  <REMARK>
 VINA RESULT:      -3.1      4.132      9.904
  Name = 
  28 active torsions:
  status: ('A' for Active; 'I' for Inactive)
    1  A    between atoms: C_1  and  C_46
    2  A    between atoms: C_3  and  N_42
    3  A    between atoms: C_3  and  N_50
    4  A    between atoms: C_6  and  C_45
    5  A    between atoms: C_8  and  C_45
    6  A    between atoms: C_8  and  C_64
    7  A    between atoms: C_8  and  C_65
    8  A    between atoms: C_12  and  C_62
    9  A    between atoms: C_13  and  C_48
   10  A    between atoms: C_14  and  O_52
   11  A    between atoms: C_16  and  C_51
   12  A    between atoms: N_17  and  C_62
   13  A    between atoms: C_21  and  C_63
   14  A    between atoms: C_22  and  C_54
   15  A    between atoms: C_22  and  C_62
   16  A    between atoms: C_26  and  C_46
   17  A    between atoms: C_26  and  C_57
   18  A    between atoms: C_30  and  C_51
   19  A    between atoms: C_30  and  C_61
   20  A    between atoms: C_34  and  O_38
   21  A    between atoms: C_34  and  C_56
   22  A    between atoms: O_38  and  C_65
   23  A    between atoms: N_42  and  N_67
   24  A    between atoms: C_47  and  C_51
   25  A    between atoms: C_48  and  N_50
   26  A    between atoms: O_52  and  C_64
   27  A    between atoms: C_57  and  C_60
   28  A    between atoms: C_61  and  C_63
                            x       y       z     vdW  Elec       q    Type
                         _______ _______ _______ _____ _____    ______ ____

>  <TORSDO>
F 28

$$$$
