=
 OpenBabel11062411023D

 49 52  0  0  1  0  0  0  0  0999 V2000
  185.8930  178.8600  143.7230 C   0  0  2  0  0  3  0  0  0  0  0  0
  185.5440  178.4040  140.4190 C   0  0  0  0  0  2  0  0  0  0  0  0
  184.2230  179.0700  140.8260 C   0  0  2  0  0  3  0  0  0  0  0  0
  186.7130  178.8040  141.3120 C   0  0  0  0  0  2  0  0  0  0  0  0
  184.6070  179.5490  143.2400 C   0  0  0  0  0  2  0  0  0  0  0  0
  183.8010  178.7160  142.2530 C   0  0  0  0  0  2  0  0  0  0  0  0
  186.6190  178.0520  142.6340 C   0  0  0  0  0  2  0  0  0  0  0  0
  185.6130  178.0110  144.9690 C   0  0  2  0  0  3  0  0  0  0  0  0
  185.0080  178.8770  146.0570 C   0  0  2  0  0  3  0  0  0  0  0  0
  186.0770  179.3250  146.9450 N   0  0  0  0  0  2  0  0  0  0  0  0
  186.8890  177.4990  145.5910 C   0  0  0  0  0  2  0  0  0  0  0  0
  187.2430  178.4900  146.6810 C   0  0  2  0  0  3  0  0  0  0  0  0
  184.0390  178.1050  146.8160 N   0  0  0  0  0  1  0  0  0  0  0  0
  187.6400  177.7660  147.9590 C   0  0  0  0  0  2  0  0  0  0  0  0
  188.7710  176.7770  147.7180 C   0  0  0  0  0  2  0  0  0  0  0  0
  190.0350  177.4910  147.2600 C   0  0  0  0  0  2  0  0  0  0  0  0
  190.9990  176.5740  146.4960 C   0  0  1  0  0  3  0  0  0  0  0  0
  191.6090  175.9440  144.0720 C   0  0  0  0  0  2  0  0  0  0  0  0
  189.9630  176.9500  142.4580 N   0  0  0  0  0  0  0  0  0  0  0  0
  190.3740  175.7340  143.1880 C   0  0  0  0  0  2  0  0  0  0  0  0
  190.4160  178.2050  143.0760 C   0  0  0  0  0  2  0  0  0  0  0  0
  190.3840  178.1240  144.5980 C   0  0  0  0  0  2  0  0  0  0  0  0
  191.3810  177.0700  145.0930 C   0  0  0  0  0  3  0  0  0  0  0  0
  191.8470  177.5540  141.1390 N   0  0  0  0  0  1  0  0  0  0  0  0
  190.5590  176.8780  141.1350 C   0  0  0  0  0  2  0  0  0  0  0  0
  192.1500  176.1620  147.2990 N   0  0  0  0  0  0  0  0  0  0  0  0
  192.7700  175.1060  147.0480 O   0  0  0  0  0  0  0  0  0  0  0  0
  192.4930  176.8950  148.4090 O   0  0  0  0  0  0  0  0  0  0  0  0
  183.1350  178.7210  139.8050 C   0  0  2  0  0  3  0  0  0  0  0  0
  181.7530  178.9640  140.3460 C   0  0  0  0  0  3  0  0  0  0  0  0
  180.9280  179.9160  139.8900 C   0  0  0  0  0  0  0  0  0  0  0  0
  181.3780  181.0090  138.5390 S   0  0  0  0  0  1  0  0  0  0  0  0
  179.2280  181.3930  140.6200 O   0  0  0  0  0  1  0  0  0  0  0  0
  179.5650  180.0470  140.4860 C   0  0  0  0  0  2  0  0  0  0  0  0
  183.2650  177.3360  139.3610 N   0  0  0  0  0  2  0  0  0  0  0  0
  181.9740  176.2780  137.6030 C   0  0  0  0  0  2  0  0  0  0  0  0
  184.0920  176.4030  137.2580 C   0  0  2  0  0  3  0  0  0  0  0  0
  183.0170  175.3710  136.9760 C   0  0  0  0  0  2  0  0  0  0  0  0
  183.0510  177.3000  137.9180 C   0  0  2  0  0  3  0  0  0  0  0  0
  184.5580  177.0000  135.9350 C   0  0  0  0  0  2  0  0  0  0  0  0
  186.0770  177.0560  135.8390 C   0  0  0  0  0  2  0  0  0  0  0  0
  186.6980  177.8270  136.9990 C   0  0  0  0  0  2  0  0  0  0  0  0
  187.9740  177.2000  137.4520 C   0  0  0  0  0  0  0  0  0  0  0  0
  188.9030  176.7030  136.4850 N   0  0  0  0  0  2  0  0  0  0  0  0
  188.2240  177.1150  138.6820 O   0  0  0  0  0  0  0  0  0  0  0  0
  191.2850  176.8790  137.6330 O   0  0  0  0  0  0  0  0  0  0  0  0
  190.3830  175.9140  136.9070 S   0  0  0  0  0  0  0  0  0  0  0  0
  191.1710  175.3520  135.4210 C   0  0  0  0  0  1  0  0  0  0  0  0
  190.1030  174.7230  137.7830 O   0  0  0  0  0  0  0  0  0  0  0  0
  1  7  1  6  0  0  0
  1  8  1  0  0  0  0
  2  3  1  0  0  0  0
  2  4  1  0  0  0  0
  3 29  1  6  0  0  0
  3  6  1  0  0  0  0
  4  7  1  0  0  0  0
  5  1  1  0  0  0  0
  6  5  1  0  0  0  0
  8 11  1  1  0  0  0
  8  9  1  0  0  0  0
  9 13  1  1  0  0  0
  9 10  1  0  0  0  0
 11 12  1  0  0  0  0
 12 10  1  0  0  0  0
 12 14  1  1  0  0  0
 15 14  1  0  0  0  0
 16 15  1  0  0  0  0
 17 16  1  1  0  0  0
 17 26  1  0  0  0  0
 18 23  1  0  0  0  0
 19 21  1  0  0  0  0
 19 20  1  0  0  0  0
 20 18  1  0  0  0  0
 21 22  1  0  0  0  0
 22 23  1  0  0  0  0
 23 17  1  0  0  0  0
 25 24  1  0  0  0  0
 25 19  1  0  0  0  0
 26 28  2  0  0  0  0
 27 26  2  0  0  0  0
 29 30  1  1  0  0  0
 31 30  2  0  0  0  0
 31 34  1  0  0  0  0
 32 31  1  0  0  0  0
 34 33  1  0  0  0  0
 35 29  1  0  0  0  0
 36 39  1  0  0  0  0
 37 40  1  6  0  0  0
 37 39  1  0  0  0  0
 38 37  1  0  0  0  0
 38 36  1  0  0  0  0
 39 35  1  1  0  0  0
 41 40  1  0  0  0  0
 41 42  1  0  0  0  0
 42 43  1  0  0  0  0
 43 45  2  0  0  0  0
 44 47  1  0  0  0  0
 44 43  1  0  0  0  0
 47 46  2  0  0  0  0
 47 49  2  0  0  0  0
 48 47  1  0  0  0  0
M  END
>  <MODEL>
1

>  <REMARK>
 VINA RESULT:      -8.0      0.000      0.000
  Name = 
  18 active torsions:
  status: ('A' for Active; 'I' for Inactive)
    1  A    between atoms: C_2  and  C_47
    2  A    between atoms: C_3  and  C_13
    3  A    between atoms: C_3  and  C_39
    4  A    between atoms: C_5  and  C_17
    5  A    between atoms: C_5  and  C_26
    6  A    between atoms: N_7  and  C_29
    7  A    between atoms: C_8  and  C_10
    8  A    between atoms: N_9  and  C_11
    9  A    between atoms: N_12  and  S_24
   10  A    between atoms: C_13  and  C_22
   11  A    between atoms: C_15  and  C_34
   12  A    between atoms: C_18  and  C_43
   13  A    between atoms: C_22  and  C_29
   14  A    between atoms: C_23  and  C_34
   15  A    between atoms: C_26  and  C_47
   16  A    between atoms: C_29  and  C_31
   17  A    between atoms: C_34  and  N_45
   18  A    between atoms: C_35  and  N_45
                            x       y       z     vdW  Elec       q    Type
                         _______ _______ _______ _____ _____    ______ ____

>  <TORSDO>
F 18

$$$$
=
 OpenBabel11062411023D

 49 52  0  0  1  0  0  0  0  0999 V2000
  185.2420  178.8720  143.7270 C   0  0  2  0  0  3  0  0  0  0  0  0
  184.2460  178.5050  140.5450 C   0  0  0  0  0  2  0  0  0  0  0  0
  183.0180  179.1160  141.2340 C   0  0  2  0  0  3  0  0  0  0  0  0
  185.5610  178.9150  141.2000 C   0  0  0  0  0  2  0  0  0  0  0  0
  183.8680  179.5330  143.5370 C   0  0  0  0  0  2  0  0  0  0  0  0
  182.9010  178.7050  142.7020 C   0  0  0  0  0  2  0  0  0  0  0  0
  185.7540  178.1210  142.4860 C   0  0  0  0  0  2  0  0  0  0  0  0
  185.2410  177.9770  144.9720 C   0  0  2  0  0  3  0  0  0  0  0  0
  185.2570  178.8330  146.2230 C   0  0  2  0  0  3  0  0  0  0  0  0
  186.6390  178.9790  146.6710 N   0  0  0  0  0  2  0  0  0  0  0  0
  186.5120  177.1700  145.0780 C   0  0  0  0  0  2  0  0  0  0  0  0
  187.4290  177.9630  145.9840 C   0  0  2  0  0  3  0  0  0  0  0  0
  184.4740  178.1940  147.2660 N   0  0  0  0  0  1  0  0  0  0  0  0
  188.0840  177.0570  147.0160 C   0  0  0  0  0  2  0  0  0  0  0  0
  189.3750  177.6560  147.5550 C   0  0  0  0  0  2  0  0  0  0  0  0
  190.3850  177.8750  146.4380 C   0  0  0  0  0  2  0  0  0  0  0  0
  191.0220  176.5700  145.9410 C   0  0  1  0  0  3  0  0  0  0  0  0
  190.5850  175.6240  143.5830 C   0  0  0  0  0  2  0  0  0  0  0  0
  189.9800  177.4730  141.9880 N   0  0  0  0  0  0  0  0  0  0  0  0
  189.4760  176.3780  142.8400 C   0  0  0  0  0  2  0  0  0  0  0  0
  191.2970  177.9900  142.3900 C   0  0  0  0  0  2  0  0  0  0  0  0
  191.4550  178.0060  143.9070 C   0  0  0  0  0  2  0  0  0  0  0  0
  191.4200  176.5750  144.4570 C   0  0  0  0  0  3  0  0  0  0  0  0
  188.9640  177.3270  139.8440 N   0  0  0  0  0  1  0  0  0  0  0  0
  190.1160  176.9420  140.6430 C   0  0  0  0  0  2  0  0  0  0  0  0
  192.0810  176.0800  146.8230 N   0  0  0  0  0  0  0  0  0  0  0  0
  192.6420  174.9840  146.6140 O   0  0  0  0  0  0  0  0  0  0  0  0
  192.3920  176.7890  147.9590 O   0  0  0  0  0  0  0  0  0  0  0  0
  181.7550  178.7630  140.4390 C   0  0  2  0  0  3  0  0  0  0  0  0
  180.6790  179.8010  140.5980 C   0  0  0  0  0  3  0  0  0  0  0  0
  180.4240  180.7580  139.6970 C   0  0  0  0  0  0  0  0  0  0  0  0
  181.3370  180.8940  138.1560 S   0  0  0  0  0  1  0  0  0  0  0  0
  178.9330  181.6740  141.2910 O   0  0  0  0  0  1  0  0  0  0  0  0
  179.3100  181.7200  139.9490 C   0  0  0  0  0  2  0  0  0  0  0  0
  181.2490  177.4490  140.8260 N   0  0  0  0  0  2  0  0  0  0  0  0
  179.5470  175.8570  140.1600 C   0  0  0  0  0  2  0  0  0  0  0  0
  181.4090  175.7330  139.0940 C   0  0  2  0  0  3  0  0  0  0  0  0
  180.3980  174.7270  139.6110 C   0  0  0  0  0  2  0  0  0  0  0  0
  180.5710  176.8660  139.6730 C   0  0  2  0  0  3  0  0  0  0  0  0
  181.3520  175.7440  137.5710 C   0  0  0  0  0  2  0  0  0  0  0  0
  182.5490  176.4640  136.9620 C   0  0  0  0  0  2  0  0  0  0  0  0
  183.8640  176.0430  137.6090 C   0  0  0  0  0  2  0  0  0  0  0  0
  185.0360  176.4470  136.7790 C   0  0  0  0  0  0  0  0  0  0  0  0
  185.9120  177.4770  137.2420 N   0  0  0  0  0  2  0  0  0  0  0  0
  185.2460  175.8760  135.6780 O   0  0  0  0  0  0  0  0  0  0  0  0
  186.8370  178.3610  134.9210 O   0  0  0  0  0  0  0  0  0  0  0  0
  187.2670  178.0530  136.3320 S   0  0  0  0  0  0  0  0  0  0  0  0
  188.5180  176.7970  136.3220 C   0  0  0  0  0  1  0  0  0  0  0  0
  187.8310  179.2910  136.9730 O   0  0  0  0  0  0  0  0  0  0  0  0
  1  7  1  6  0  0  0
  1  8  1  0  0  0  0
  2  4  1  0  0  0  0
  2  3  1  0  0  0  0
  3 29  1  6  0  0  0
  3  6  1  0  0  0  0
  4  7  1  0  0  0  0
  5  1  1  0  0  0  0
  6  5  1  0  0  0  0
  8 11  1  6  0  0  0
  8  9  1  0  0  0  0
  9 10  1  0  0  0  0
  9 13  1  1  0  0  0
 11 12  1  0  0  0  0
 12 10  1  0  0  0  0
 12 14  1  1  0  0  0
 14 15  1  0  0  0  0
 16 15  1  0  0  0  0
 17 16  1  1  0  0  0
 17 26  1  0  0  0  0
 18 23  1  0  0  0  0
 19 21  1  0  0  0  0
 19 20  1  0  0  0  0
 20 18  1  0  0  0  0
 21 22  1  0  0  0  0
 22 23  1  0  0  0  0
 23 17  1  0  0  0  0
 24 25  1  0  0  0  0
 25 19  1  0  0  0  0
 26 28  2  0  0  0  0
 27 26  2  0  0  0  0
 29 30  1  1  0  0  0
 29 35  1  0  0  0  0
 31 34  1  0  0  0  0
 31 30  2  0  0  0  0
 32 31  1  0  0  0  0
 34 33  1  0  0  0  0
 37 40  1  6  0  0  0
 37 38  1  0  0  0  0
 37 39  1  0  0  0  0
 38 36  1  0  0  0  0
 39 36  1  0  0  0  0
 39 35  1  1  0  0  0
 41 40  1  0  0  0  0
 41 42  1  0  0  0  0
 43 44  1  0  0  0  0
 43 42  1  0  0  0  0
 45 43  2  0  0  0  0
 46 47  2  0  0  0  0
 47 49  2  0  0  0  0
 47 44  1  0  0  0  0
 48 47  1  0  0  0  0
M  END
>  <MODEL>
2

>  <REMARK>
 VINA RESULT:      -7.5      1.703      2.279
  Name = 
  18 active torsions:
  status: ('A' for Active; 'I' for Inactive)
    1  A    between atoms: C_2  and  C_47
    2  A    between atoms: C_3  and  C_13
    3  A    between atoms: C_3  and  C_39
    4  A    between atoms: C_5  and  C_17
    5  A    between atoms: C_5  and  C_26
    6  A    between atoms: N_7  and  C_29
    7  A    between atoms: C_8  and  C_10
    8  A    between atoms: N_9  and  C_11
    9  A    between atoms: N_12  and  S_24
   10  A    between atoms: C_13  and  C_22
   11  A    between atoms: C_15  and  C_34
   12  A    between atoms: C_18  and  C_43
   13  A    between atoms: C_22  and  C_29
   14  A    between atoms: C_23  and  C_34
   15  A    between atoms: C_26  and  C_47
   16  A    between atoms: C_29  and  C_31
   17  A    between atoms: C_34  and  N_45
   18  A    between atoms: C_35  and  N_45
                            x       y       z     vdW  Elec       q    Type
                         _______ _______ _______ _____ _____    ______ ____

>  <TORSDO>
F 18

$$$$
=
 OpenBabel11062411023D

 49 52  0  0  1  0  0  0  0  0999 V2000
  185.9040  178.8880  143.2970 C   0  0  2  0  0  3  0  0  0  0  0  0
  185.9980  178.1610  140.0240 C   0  0  0  0  0  2  0  0  0  0  0  0
  184.6300  178.8340  140.1990 C   0  0  2  0  0  3  0  0  0  0  0  0
  187.0360  178.6540  141.0270 C   0  0  0  0  0  2  0  0  0  0  0  0
  184.6880  179.5120  142.5950 C   0  0  0  0  0  2  0  0  0  0  0  0
  184.0260  178.5870  141.5820 C   0  0  0  0  0  2  0  0  0  0  0  0
  186.7740  178.0090  142.3820 C   0  0  0  0  0  2  0  0  0  0  0  0
  185.4690  178.1370  144.5610 C   0  0  2  0  0  3  0  0  0  0  0  0
  185.0840  179.1270  145.6420 C   0  0  2  0  0  3  0  0  0  0  0  0
  186.2390  179.3460  146.5070 N   0  0  0  0  0  2  0  0  0  0  0  0
  186.6150  177.3700  145.1740 C   0  0  0  0  0  2  0  0  0  0  0  0
  187.1920  178.2750  146.2410 C   0  0  2  0  0  3  0  0  0  0  0  0
  183.9840  178.5940  146.4270 N   0  0  0  0  0  1  0  0  0  0  0  0
  187.4460  177.5000  147.5260 C   0  0  0  0  0  2  0  0  0  0  0  0
  188.6990  176.6420  147.4280 C   0  0  0  0  0  2  0  0  0  0  0  0
  189.8600  177.4330  146.8420 C   0  0  0  0  0  2  0  0  0  0  0  0
  190.9440  176.5380  146.2260 C   0  0  1  0  0  3  0  0  0  0  0  0
  191.5520  175.8280  143.8240 C   0  0  0  0  0  2  0  0  0  0  0  0
  190.0860  177.0080  142.1560 N   0  0  0  0  0  0  0  0  0  0  0  0
  190.3310  175.7570  142.9010 C   0  0  0  0  0  2  0  0  0  0  0  0
  190.6620  178.2060  142.7850 C   0  0  0  0  0  2  0  0  0  0  0  0
  190.5730  178.1390  144.3060 C   0  0  0  0  0  2  0  0  0  0  0  0
  191.4250  176.9790  144.8340 C   0  0  0  0  0  3  0  0  0  0  0  0
  191.9730  177.5820  140.8280 N   0  0  0  0  0  1  0  0  0  0  0  0
  190.7110  176.8600  140.8530 C   0  0  0  0  0  2  0  0  0  0  0  0
  192.0380  176.2480  147.1520 N   0  0  0  0  0  0  0  0  0  0  0  0
  192.6960  175.1900  147.0650 O   0  0  0  0  0  0  0  0  0  0  0  0
  192.2780  177.1060  148.1990 O   0  0  0  0  0  0  0  0  0  0  0  0
  183.6890  178.3840  139.0750 C   0  0  2  0  0  3  0  0  0  0  0  0
  182.2710  178.2330  139.5530 C   0  0  0  0  0  3  0  0  0  0  0  0
  181.2050  178.6980  138.8900 C   0  0  0  0  0  0  0  0  0  0  0  0
  181.3500  179.5480  137.3140 S   0  0  0  0  0  1  0  0  0  0  0  0
  179.3500  179.6360  140.0230 O   0  0  0  0  0  1  0  0  0  0  0  0
  179.8400  178.4640  139.4470 C   0  0  0  0  0  2  0  0  0  0  0  0
  184.1550  177.1360  138.4780 N   0  0  0  0  0  2  0  0  0  0  0  0
  184.1990  177.0960  136.0540 C   0  0  0  0  0  2  0  0  0  0  0  0
  185.9600  176.3460  137.0310 C   0  0  2  0  0  3  0  0  0  0  0  0
  185.1700  175.9600  135.7940 C   0  0  0  0  0  2  0  0  0  0  0  0
  184.9660  177.4660  137.3100 C   0  0  2  0  0  3  0  0  0  0  0  0
  187.3050  176.9130  136.5950 C   0  0  0  0  0  2  0  0  0  0  0  0
  188.4660  176.2520  137.3250 C   0  0  0  0  0  2  0  0  0  0  0  0
  189.2130  175.2600  136.4400 C   0  0  0  0  0  2  0  0  0  0  0  0
  190.6440  175.6480  136.2700 C   0  0  0  0  0  0  0  0  0  0  0  0
  191.6420  175.0630  137.1100 N   0  0  0  0  0  2  0  0  0  0  0  0
  190.9620  176.4870  135.3880 O   0  0  0  0  0  0  0  0  0  0  0  0
  193.7820  175.4520  135.5950 O   0  0  0  0  0  0  0  0  0  0  0  0
  193.3190  175.4840  137.0290 S   0  0  0  0  0  0  0  0  0  0  0  0
  194.2440  174.3150  137.9880 C   0  0  0  0  0  1  0  0  0  0  0  0
  193.5350  176.8570  137.6030 O   0  0  0  0  0  0  0  0  0  0  0  0
  1  7  1  6  0  0  0
  1  8  1  0  0  0  0
  2  3  1  0  0  0  0
  2  4  1  0  0  0  0
  3 29  1  6  0  0  0
  3  6  1  0  0  0  0
  4  7  1  0  0  0  0
  5  1  1  0  0  0  0
  6  5  1  0  0  0  0
  8 11  1  1  0  0  0
  8  9  1  0  0  0  0
  9 13  1  1  0  0  0
  9 10  1  0  0  0  0
 11 12  1  0  0  0  0
 12 10  1  0  0  0  0
 12 14  1  1  0  0  0
 15 14  1  0  0  0  0
 16 15  1  0  0  0  0
 17 16  1  1  0  0  0
 17 26  1  0  0  0  0
 18 23  1  0  0  0  0
 19 21  1  0  0  0  0
 19 20  1  0  0  0  0
 20 18  1  0  0  0  0
 21 22  1  0  0  0  0
 22 23  1  0  0  0  0
 23 17  1  0  0  0  0
 24 25  1  0  0  0  0
 25 19  1  0  0  0  0
 26 28  2  0  0  0  0
 27 26  2  0  0  0  0
 29 30  1  1  0  0  0
 31 34  1  0  0  0  0
 31 30  2  0  0  0  0
 32 31  1  0  0  0  0
 34 33  1  0  0  0  0
 35 29  1  0  0  0  0
 36 39  1  0  0  0  0
 37 40  1  6  0  0  0
 37 39  1  0  0  0  0
 38 36  1  0  0  0  0
 38 37  1  0  0  0  0
 39 35  1  1  0  0  0
 40 41  1  0  0  0  0
 42 41  1  0  0  0  0
 43 42  1  0  0  0  0
 43 44  1  0  0  0  0
 45 43  2  0  0  0  0
 46 47  2  0  0  0  0
 47 44  1  0  0  0  0
 47 49  2  0  0  0  0
 47 48  1  0  0  0  0
M  END
>  <MODEL>
3

>  <REMARK>
 VINA RESULT:      -7.2      1.423      1.861
  Name = 
  18 active torsions:
  status: ('A' for Active; 'I' for Inactive)
    1  A    between atoms: C_2  and  C_47
    2  A    between atoms: C_3  and  C_13
    3  A    between atoms: C_3  and  C_39
    4  A    between atoms: C_5  and  C_17
    5  A    between atoms: C_5  and  C_26
    6  A    between atoms: N_7  and  C_29
    7  A    between atoms: C_8  and  C_10
    8  A    between atoms: N_9  and  C_11
    9  A    between atoms: N_12  and  S_24
   10  A    between atoms: C_13  and  C_22
   11  A    between atoms: C_15  and  C_34
   12  A    between atoms: C_18  and  C_43
   13  A    between atoms: C_22  and  C_29
   14  A    between atoms: C_23  and  C_34
   15  A    between atoms: C_26  and  C_47
   16  A    between atoms: C_29  and  C_31
   17  A    between atoms: C_34  and  N_45
   18  A    between atoms: C_35  and  N_45
                            x       y       z     vdW  Elec       q    Type
                         _______ _______ _______ _____ _____    ______ ____

>  <TORSDO>
F 18

$$$$
=
 OpenBabel11062411023D

 49 52  0  0  1  0  0  0  0  0999 V2000
  185.4960  179.0440  141.6380 C   0  0  2  0  0  3  0  0  0  0  0  0
  187.6420  177.7830  139.3920 C   0  0  0  0  0  2  0  0  0  0  0  0
  186.3830  178.0620  138.5610 C   0  0  2  0  0  3  0  0  0  0  0  0
  187.7920  178.7240  140.5820 C   0  0  0  0  0  2  0  0  0  0  0  0
  184.8940  179.1590  140.2290 C   0  0  0  0  0  2  0  0  0  0  0  0
  185.0970  177.9150  139.3740 C   0  0  0  0  0  2  0  0  0  0  0  0
  186.8370  178.2930  141.6890 C   0  0  0  0  0  2  0  0  0  0  0  0
  184.4730  178.4470  142.6130 C   0  0  2  0  0  3  0  0  0  0  0  0
  183.5360  179.5320  143.1060 C   0  0  2  0  0  3  0  0  0  0  0  0
  184.0380  180.0380  144.3800 N   0  0  0  0  0  2  0  0  0  0  0  0
  185.1330  177.9470  143.8740 C   0  0  0  0  0  2  0  0  0  0  0  0
  185.0170  179.0780  144.8750 C   0  0  2  0  0  3  0  0  0  0  0  0
  182.2040  178.9840  143.2920 N   0  0  0  0  0  1  0  0  0  0  0  0
  184.5650  178.5550  146.2300 C   0  0  0  0  0  2  0  0  0  0  0  0
  185.7450  178.1440  147.0990 C   0  0  0  0  0  2  0  0  0  0  0  0
  187.0460  178.7310  146.5670 C   0  0  0  0  0  2  0  0  0  0  0  0
  188.0930  177.6610  146.2320 C   0  0  1  0  0  3  0  0  0  0  0  0
  190.1530  178.3900  144.8650 C   0  0  0  0  0  2  0  0  0  0  0  0
  191.0750  176.4510  143.5540 N   0  0  0  0  0  0  0  0  0  0  0  0
  191.2150  177.2890  144.7620 C   0  0  0  0  0  2  0  0  0  0  0  0
  189.7210  176.4430  142.9810 C   0  0  0  0  0  2  0  0  0  0  0  0
  188.6510  176.4820  144.0670 C   0  0  0  0  0  2  0  0  0  0  0  0
  188.7330  177.8030  144.8420 C   0  0  0  0  0  3  0  0  0  0  0  0
  191.1910  177.6100  141.4810 N   0  0  0  0  0  1  0  0  0  0  0  0
  191.9680  176.9980  142.5470 C   0  0  0  0  0  2  0  0  0  0  0  0
  189.0700  177.4640  147.3020 N   0  0  0  0  0  0  0  0  0  0  0  0
  189.6740  176.3790  147.4350 O   0  0  0  0  0  0  0  0  0  0  0  0
  189.2510  178.4540  148.2380 O   0  0  0  0  0  0  0  0  0  0  0  0
  186.3790  177.1660  137.3170 C   0  0  2  0  0  3  0  0  0  0  0  0
  185.0950  176.3950  137.1810 C   0  0  0  0  0  3  0  0  0  0  0  0
  184.3400  176.3880  136.0750 C   0  0  0  0  0  0  0  0  0  0  0  0
  184.7970  177.2950  134.5950 S   0  0  0  0  0  1  0  0  0  0  0  0
  183.3270  174.3760  135.3470 O   0  0  0  0  0  1  0  0  0  0  0  0
  183.0970  175.5600  136.0460 C   0  0  0  0  0  2  0  0  0  0  0  0
  187.5170  176.2520  137.3320 N   0  0  0  0  0  2  0  0  0  0  0  0
  188.4860  176.6480  135.1460 C   0  0  0  0  0  2  0  0  0  0  0  0
  189.8550  175.9960  136.6680 C   0  0  2  0  0  3  0  0  0  0  0  0
  189.6900  175.7260  135.1840 C   0  0  0  0  0  2  0  0  0  0  0  0
  188.6260  176.8960  136.6370 C   0  0  2  0  0  3  0  0  0  0  0  0
  191.1210  176.8180  136.8780 C   0  0  0  0  0  2  0  0  0  0  0  0
  192.3150  175.9430  137.2370 C   0  0  0  0  0  2  0  0  0  0  0  0
  193.4290  176.0350  136.2000 C   0  0  0  0  0  2  0  0  0  0  0  0
  194.6360  175.2670  136.6230 C   0  0  0  0  0  0  0  0  0  0  0  0
  194.4810  174.0500  137.3570 N   0  0  0  0  0  2  0  0  0  0  0  0
  195.7820  175.6950  136.3290 O   0  0  0  0  0  0  0  0  0  0  0  0
  195.3170  172.0440  138.8750 O   0  0  0  0  0  0  0  0  0  0  0  0
  195.8160  173.1150  137.9390 S   0  0  0  0  0  0  0  0  0  0  0  0
  196.9330  174.1920  138.7960 C   0  0  0  0  0  1  0  0  0  0  0  0
  196.5450  172.4820  136.7850 O   0  0  0  0  0  0  0  0  0  0  0  0
  1  5  1  6  0  0  0
  1  7  1  0  0  0  0
  1  8  1  0  0  0  0
  2  4  1  0  0  0  0
  3 29  1  6  0  0  0
  3  6  1  0  0  0  0
  3  2  1  0  0  0  0
  4  7  1  0  0  0  0
  6  5  1  0  0  0  0
  8  9  1  0  0  0  0
  8 11  1  1  0  0  0
  9 13  1  1  0  0  0
  9 10  1  0  0  0  0
 10 12  1  0  0  0  0
 11 12  1  0  0  0  0
 12 14  1  1  0  0  0
 14 15  1  0  0  0  0
 16 15  1  0  0  0  0
 17 16  1  1  0  0  0
 17 26  1  0  0  0  0
 19 20  1  0  0  0  0
 20 18  1  0  0  0  0
 21 19  1  0  0  0  0
 21 22  1  0  0  0  0
 22 23  1  0  0  0  0
 23 18  1  0  0  0  0
 23 17  1  0  0  0  0
 24 25  1  0  0  0  0
 25 19  1  0  0  0  0
 26 27  2  0  0  0  0
 26 28  2  0  0  0  0
 29 30  1  1  0  0  0
 29 35  1  0  0  0  0
 31 30  2  0  0  0  0
 32 31  1  0  0  0  0
 33 34  1  0  0  0  0
 34 31  1  0  0  0  0
 36 38  1  0  0  0  0
 36 39  1  0  0  0  0
 37 40  1  6  0  0  0
 38 37  1  0  0  0  0
 39 37  1  0  0  0  0
 39 35  1  1  0  0  0
 40 41  1  0  0  0  0
 42 43  1  0  0  0  0
 42 41  1  0  0  0  0
 43 44  1  0  0  0  0
 44 47  1  0  0  0  0
 45 43  2  0  0  0  0
 47 48  1  0  0  0  0
 47 46  2  0  0  0  0
 49 47  2  0  0  0  0
M  END
>  <MODEL>
4

>  <REMARK>
 VINA RESULT:      -6.5      3.065      4.832
  Name = 
  18 active torsions:
  status: ('A' for Active; 'I' for Inactive)
    1  A    between atoms: C_2  and  C_47
    2  A    between atoms: C_3  and  C_13
    3  A    between atoms: C_3  and  C_39
    4  A    between atoms: C_5  and  C_17
    5  A    between atoms: C_5  and  C_26
    6  A    between atoms: N_7  and  C_29
    7  A    between atoms: C_8  and  C_10
    8  A    between atoms: N_9  and  C_11
    9  A    between atoms: N_12  and  S_24
   10  A    between atoms: C_13  and  C_22
   11  A    between atoms: C_15  and  C_34
   12  A    between atoms: C_18  and  C_43
   13  A    between atoms: C_22  and  C_29
   14  A    between atoms: C_23  and  C_34
   15  A    between atoms: C_26  and  C_47
   16  A    between atoms: C_29  and  C_31
   17  A    between atoms: C_34  and  N_45
   18  A    between atoms: C_35  and  N_45
                            x       y       z     vdW  Elec       q    Type
                         _______ _______ _______ _____ _____    ______ ____

>  <TORSDO>
F 18

$$$$
=
 OpenBabel11062411023D

 49 52  0  0  1  0  0  0  0  0999 V2000
  184.7400  177.1860  137.9430 C   0  0  2  0  0  3  0  0  0  0  0  0
  183.5050  179.7260  139.7530 C   0  0  0  0  0  2  0  0  0  0  0  0
  182.2710  178.8590  139.4700 C   0  0  2  0  0  3  0  0  0  0  0  0
  184.7990  178.9200  139.8080 C   0  0  0  0  0  2  0  0  0  0  0  0
  183.2680  176.9070  138.2860 C   0  0  0  0  0  2  0  0  0  0  0  0
  182.3630  178.1220  138.1330 C   0  0  0  0  0  2  0  0  0  0  0  0
  185.2370  178.5710  138.3910 C   0  0  0  0  0  2  0  0  0  0  0  0
  184.9980  176.9450  136.4500 C   0  0  2  0  0  3  0  0  0  0  0  0
  184.6790  175.5060  136.0980 C   0  0  2  0  0  3  0  0  0  0  0  0
  185.9130  174.7280  136.1510 N   0  0  0  0  0  2  0  0  0  0  0  0
  186.4630  177.0780  136.1110 C   0  0  0  0  0  2  0  0  0  0  0  0
  187.0240  175.6720  136.1550 C   0  0  2  0  0  3  0  0  0  0  0  0
  184.1220  175.4400  134.7580 N   0  0  0  0  0  1  0  0  0  0  0  0
  187.9100  175.4070  134.9470 C   0  0  0  0  0  2  0  0  0  0  0  0
  189.2980  174.9360  135.3580 C   0  0  0  0  0  2  0  0  0  0  0  0
  189.3140  174.4860  136.8130 C   0  0  0  0  0  2  0  0  0  0  0  0
  190.6070  174.8700  137.5450 C   0  0  1  0  0  3  0  0  0  0  0  0
  192.9340  175.8950  137.1240 C   0  0  0  0  0  2  0  0  0  0  0  0
  194.7070  174.1110  137.1720 N   0  0  0  0  0  0  0  0  0  0  0  0
  194.0410  175.1960  137.9210 C   0  0  0  0  0  2  0  0  0  0  0  0
  193.8950  173.5440  136.0850 C   0  0  0  0  0  2  0  0  0  0  0  0
  192.4190  173.4810  136.4610 C   0  0  0  0  0  2  0  0  0  0  0  0
  191.8620  174.8960  136.6590 C   0  0  0  0  0  3  0  0  0  0  0  0
  195.7710  174.6760  135.1230 N   0  0  0  0  0  1  0  0  0  0  0  0
  195.9020  174.6760  136.5710 C   0  0  0  0  0  2  0  0  0  0  0  0
  190.4590  176.0650  138.3750 N   0  0  0  0  0  0  0  0  0  0  0  0
  190.7530  176.0510  139.5890 O   0  0  0  0  0  0  0  0  0  0  0  0
  189.8890  177.1930  137.8340 O   0  0  0  0  0  0  0  0  0  0  0  0
  181.0060  179.7190  139.5630 C   0  0  2  0  0  3  0  0  0  0  0  0
  181.1810  181.0540  138.8940 C   0  0  0  0  0  3  0  0  0  0  0  0
  180.5510  181.4160  137.7690 C   0  0  0  0  0  0  0  0  0  0  0  0
  179.3850  180.3370  136.9330 S   0  0  0  0  0  1  0  0  0  0  0  0
  179.9110  183.0170  136.1470 O   0  0  0  0  0  1  0  0  0  0  0  0
  180.7820  182.7810  137.2100 C   0  0  0  0  0  2  0  0  0  0  0  0
  180.6040  179.9020  140.9540 N   0  0  0  0  0  2  0  0  0  0  0  0
  179.8640  178.0920  142.3870 C   0  0  0  0  0  2  0  0  0  0  0  0
  181.5820  179.1840  143.0760 C   0  0  2  0  0  3  0  0  0  0  0  0
  180.3690  178.5600  143.7390 C   0  0  0  0  0  2  0  0  0  0  0  0
  181.0590  178.7430  141.7140 C   0  0  2  0  0  3  0  0  0  0  0  0
  182.8190  178.3820  143.4650 C   0  0  0  0  0  2  0  0  0  0  0  0
  183.9930  179.2850  143.8220 C   0  0  0  0  0  2  0  0  0  0  0  0
  184.6790  178.8520  145.1130 C   0  0  0  0  0  2  0  0  0  0  0  0
  185.9820  178.1770  144.8410 C   0  0  0  0  0  0  0  0  0  0  0  0
  186.5530  178.2390  143.5320 N   0  0  0  0  0  2  0  0  0  0  0  0
  186.5690  177.5600  145.7670 O   0  0  0  0  0  0  0  0  0  0  0  0
  189.1370  177.9050  144.0160 O   0  0  0  0  0  0  0  0  0  0  0  0
  188.0300  177.4480  143.1010 S   0  0  0  0  0  0  0  0  0  0  0  0
  188.4260  177.8600  141.4220 C   0  0  0  0  0  1  0  0  0  0  0  0
  187.8670  175.9560  143.2060 O   0  0  0  0  0  0  0  0  0  0  0  0
  1  5  1  6  0  0  0
  1  7  1  0  0  0  0
  2  4  1  0  0  0  0
  3 29  1  6  0  0  0
  3  2  1  0  0  0  0
  6  5  1  0  0  0  0
  6  3  1  0  0  0  0
  7  4  1  0  0  0  0
  8 11  1  1  0  0  0
  8  1  1  0  0  0  0
  9 13  1  6  0  0  0
  9 10  1  0  0  0  0
  9  8  1  0  0  0  0
 10 12  1  0  0  0  0
 11 12  1  0  0  0  0
 12 14  1  6  0  0  0
 14 15  1  0  0  0  0
 15 16  1  0  0  0  0
 17 16  1  6  0  0  0
 17 26  1  0  0  0  0
 18 20  1  0  0  0  0
 19 20  1  0  0  0  0
 21 22  1  0  0  0  0
 21 19  1  0  0  0  0
 22 23  1  0  0  0  0
 23 18  1  0  0  0  0
 23 17  1  0  0  0  0
 24 25  1  0  0  0  0
 25 19  1  0  0  0  0
 26 27  2  0  0  0  0
 28 26  2  0  0  0  0
 29 30  1  1  0  0  0
 29 35  1  0  0  0  0
 31 30  2  0  0  0  0
 32 31  1  0  0  0  0
 33 34  1  0  0  0  0
 34 31  1  0  0  0  0
 36 38  1  0  0  0  0
 37 40  1  1  0  0  0
 37 38  1  0  0  0  0
 39 35  1  6  0  0  0
 39 36  1  0  0  0  0
 39 37  1  0  0  0  0
 40 41  1  0  0  0  0
 41 42  1  0  0  0  0
 43 42  1  0  0  0  0
 43 45  2  0  0  0  0
 44 43  1  0  0  0  0
 47 49  2  0  0  0  0
 47 44  1  0  0  0  0
 47 46  2  0  0  0  0
 48 47  1  0  0  0  0
M  END
>  <MODEL>
5

>  <REMARK>
 VINA RESULT:      -6.1      3.212      7.724
  Name = 
  18 active torsions:
  status: ('A' for Active; 'I' for Inactive)
    1  A    between atoms: C_2  and  C_47
    2  A    between atoms: C_3  and  C_13
    3  A    between atoms: C_3  and  C_39
    4  A    between atoms: C_5  and  C_17
    5  A    between atoms: C_5  and  C_26
    6  A    between atoms: N_7  and  C_29
    7  A    between atoms: C_8  and  C_10
    8  A    between atoms: N_9  and  C_11
    9  A    between atoms: N_12  and  S_24
   10  A    between atoms: C_13  and  C_22
   11  A    between atoms: C_15  and  C_34
   12  A    between atoms: C_18  and  C_43
   13  A    between atoms: C_22  and  C_29
   14  A    between atoms: C_23  and  C_34
   15  A    between atoms: C_26  and  C_47
   16  A    between atoms: C_29  and  C_31
   17  A    between atoms: C_34  and  N_45
   18  A    between atoms: C_35  and  N_45
                            x       y       z     vdW  Elec       q    Type
                         _______ _______ _______ _____ _____    ______ ____

>  <TORSDO>
F 18

$$$$
=
 OpenBabel11062411023D

 49 52  0  0  1  0  0  0  0  0999 V2000
  183.2730  178.9460  140.9370 C   0  0  2  0  0  3  0  0  0  0  0  0
  184.8850  177.8800  138.1960 C   0  0  0  0  0  2  0  0  0  0  0  0
  183.4280  177.4780  137.9300 C   0  0  2  0  0  3  0  0  0  0  0  0
  185.0100  179.1160  139.0810 C   0  0  0  0  0  2  0  0  0  0  0  0
  182.2540  178.4480  139.9000 C   0  0  0  0  0  2  0  0  0  0  0  0
  182.6640  177.1530  139.2130 C   0  0  0  0  0  2  0  0  0  0  0  0
  184.7410  178.7280  140.5300 C   0  0  0  0  0  2  0  0  0  0  0  0
  182.9720  178.3490  142.3170 C   0  0  2  0  0  3  0  0  0  0  0  0
  182.1190  179.3110  143.1200 C   0  0  2  0  0  3  0  0  0  0  0  0
  182.9950  180.1140  143.9680 N   0  0  0  0  0  2  0  0  0  0  0  0
  184.2240  178.2060  143.1470 C   0  0  0  0  0  2  0  0  0  0  0  0
  184.2940  179.4530  144.0040 C   0  0  2  0  0  3  0  0  0  0  0  0
  181.1890  178.5670  143.9510 N   0  0  0  0  0  1  0  0  0  0  0  0
  184.6350  179.0980  145.4440 C   0  0  0  0  0  2  0  0  0  0  0  0
  186.1350  178.9300  145.6430 C   0  0  0  0  0  2  0  0  0  0  0  0
  186.4820  177.4880  145.9870 C   0  0  0  0  0  2  0  0  0  0  0  0
  187.9720  177.1700  145.8040 C   0  0  1  0  0  3  0  0  0  0  0  0
  190.1250  177.5470  144.4370 C   0  0  0  0  0  2  0  0  0  0  0  0
  189.8900  176.5650  142.1320 N   0  0  0  0  0  0  0  0  0  0  0  0
  190.4360  176.3800  143.4920 C   0  0  0  0  0  2  0  0  0  0  0  0
  188.7490  177.4910  142.0630 C   0  0  0  0  0  2  0  0  0  0  0  0
  187.8490  177.3640  143.2870 C   0  0  0  0  0  2  0  0  0  0  0  0
  188.6100  177.7870  144.5490 C   0  0  0  0  0  3  0  0  0  0  0  0
  190.4320  177.4770  140.0040 N   0  0  0  0  0  1  0  0  0  0  0  0
  190.9530  177.1260  141.3160 C   0  0  0  0  0  2  0  0  0  0  0  0
  188.7550  177.3890  147.0190 N   0  0  0  0  0  0  0  0  0  0  0  0
  188.6420  178.4420  147.6820 O   0  0  0  0  0  0  0  0  0  0  0  0
  189.7070  176.4660  147.3810 O   0  0  0  0  0  0  0  0  0  0  0  0
  183.3900  176.3160  136.9310 C   0  0  2  0  0  3  0  0  0  0  0  0
  182.1880  175.4370  137.1330 C   0  0  0  0  0  3  0  0  0  0  0  0
  181.1760  175.3410  136.2610 C   0  0  0  0  0  0  0  0  0  0  0  0
  181.1550  176.2490  134.7120 S   0  0  0  0  0  1  0  0  0  0  0  0
  179.9580  174.1820  137.9270 O   0  0  0  0  0  1  0  0  0  0  0  0
  180.0450  174.4120  136.5550 C   0  0  0  0  0  2  0  0  0  0  0  0
  184.6140  175.5230  137.0120 N   0  0  0  0  0  2  0  0  0  0  0  0
  184.8280  174.7170  134.7350 C   0  0  0  0  0  2  0  0  0  0  0  0
  186.6680  174.9320  135.8260 C   0  0  2  0  0  3  0  0  0  0  0  0
  186.1250  173.9340  134.8200 C   0  0  0  0  0  2  0  0  0  0  0  0
  185.3530  175.7000  135.7660 C   0  0  2  0  0  3  0  0  0  0  0  0
  187.7890  175.7290  135.1690 C   0  0  0  0  0  2  0  0  0  0  0  0
  189.0100  175.8430  136.0710 C   0  0  0  0  0  2  0  0  0  0  0  0
  189.4500  174.4890  136.6180 C   0  0  0  0  0  2  0  0  0  0  0  0
  190.9290  174.4320  136.8130 C   0  0  0  0  0  0  0  0  0  0  0  0
  191.6140  175.5560  137.3700 N   0  0  0  0  0  2  0  0  0  0  0  0
  191.5600  173.3940  136.4880 O   0  0  0  0  0  0  0  0  0  0  0  0
  193.6750  176.6130  138.6580 O   0  0  0  0  0  0  0  0  0  0  0  0
  193.3300  175.6110  137.5870 S   0  0  0  0  0  0  0  0  0  0  0  0
  194.0820  176.0840  136.0530 C   0  0  0  0  0  1  0  0  0  0  0  0
  193.8450  174.2520  137.9780 O   0  0  0  0  0  0  0  0  0  0  0  0
  1  5  1  6  0  0  0
  1  8  1  0  0  0  0
  2  4  1  0  0  0  0
  3 29  1  6  0  0  0
  3  2  1  0  0  0  0
  3  6  1  0  0  0  0
  4  7  1  0  0  0  0
  6  5  1  0  0  0  0
  7  1  1  0  0  0  0
  8  9  1  0  0  0  0
  8 11  1  1  0  0  0
  9 13  1  1  0  0  0
  9 10  1  0  0  0  0
 10 12  1  0  0  0  0
 11 12  1  0  0  0  0
 12 14  1  1  0  0  0
 14 15  1  0  0  0  0
 15 16  1  0  0  0  0
 17 16  1  1  0  0  0
 17 26  1  0  0  0  0
 18 23  1  0  0  0  0
 19 20  1  0  0  0  0
 20 18  1  0  0  0  0
 21 19  1  0  0  0  0
 21 22  1  0  0  0  0
 22 23  1  0  0  0  0
 23 17  1  0  0  0  0
 24 25  1  0  0  0  0
 25 19  1  0  0  0  0
 26 28  2  0  0  0  0
 26 27  2  0  0  0  0
 29 35  1  0  0  0  0
 29 30  1  1  0  0  0
 31 34  1  0  0  0  0
 31 30  2  0  0  0  0
 32 31  1  0  0  0  0
 34 33  1  0  0  0  0
 36 38  1  0  0  0  0
 36 39  1  0  0  0  0
 37 40  1  6  0  0  0
 38 37  1  0  0  0  0
 39 37  1  0  0  0  0
 39 35  1  1  0  0  0
 40 41  1  0  0  0  0
 41 42  1  0  0  0  0
 42 43  1  0  0  0  0
 43 44  1  0  0  0  0
 44 47  1  0  0  0  0
 45 43  2  0  0  0  0
 47 49  2  0  0  0  0
 47 46  2  0  0  0  0
 48 47  1  0  0  0  0
M  END
>  <MODEL>
6

>  <REMARK>
 VINA RESULT:      -6.1      2.557      3.879
  Name = 
  18 active torsions:
  status: ('A' for Active; 'I' for Inactive)
    1  A    between atoms: C_2  and  C_47
    2  A    between atoms: C_3  and  C_13
    3  A    between atoms: C_3  and  C_39
    4  A    between atoms: C_5  and  C_17
    5  A    between atoms: C_5  and  C_26
    6  A    between atoms: N_7  and  C_29
    7  A    between atoms: C_8  and  C_10
    8  A    between atoms: N_9  and  C_11
    9  A    between atoms: N_12  and  S_24
   10  A    between atoms: C_13  and  C_22
   11  A    between atoms: C_15  and  C_34
   12  A    between atoms: C_18  and  C_43
   13  A    between atoms: C_22  and  C_29
   14  A    between atoms: C_23  and  C_34
   15  A    between atoms: C_26  and  C_47
   16  A    between atoms: C_29  and  C_31
   17  A    between atoms: C_34  and  N_45
   18  A    between atoms: C_35  and  N_45
                            x       y       z     vdW  Elec       q    Type
                         _______ _______ _______ _____ _____    ______ ____

>  <TORSDO>
F 18

$$$$
=
 OpenBabel11062411023D

 49 52  0  0  1  0  0  0  0  0999 V2000
  190.5290  176.7510  141.2110 C   0  0  2  0  0  3  0  0  0  0  0  0
  190.7160  178.8110  143.8510 C   0  0  0  0  0  2  0  0  0  0  0  0
  190.0510  177.5540  144.4280 C   0  0  2  0  0  3  0  0  0  0  0  0
  191.6450  178.5090  142.6800 C   0  0  0  0  0  2  0  0  0  0  0  0
  190.1010  176.0010  142.4820 C   0  0  0  0  0  2  0  0  0  0  0  0
  189.1970  176.8150  143.3970 C   0  0  0  0  0  2  0  0  0  0  0  0
  190.8120  178.2470  141.4310 C   0  0  0  0  0  2  0  0  0  0  0  0
  189.5140  176.5240  140.0850 C   0  0  2  0  0  3  0  0  0  0  0  0
  190.2400  176.2490  138.7830 C   0  0  2  0  0  3  0  0  0  0  0  0
  190.3620  177.5020  138.0430 N   0  0  0  0  0  2  0  0  0  0  0  0
  188.7200  177.7740  139.7910 C   0  0  0  0  0  2  0  0  0  0  0  0
  189.4330  178.4540  138.6410 C   0  0  2  0  0  3  0  0  0  0  0  0
  189.4880  175.2900  137.9930 N   0  0  0  0  0  1  0  0  0  0  0  0
  188.4370  178.9120  137.5850 C   0  0  0  0  0  2  0  0  0  0  0  0
  187.1470  178.1080  137.6410 C   0  0  0  0  0  2  0  0  0  0  0  0
  186.6570  177.7630  136.2410 C   0  0  0  0  0  2  0  0  0  0  0  0
  186.7930  176.2710  135.9090 C   0  0  1  0  0  3  0  0  0  0  0  0
  185.0710  174.4040  136.3510 C   0  0  0  0  0  2  0  0  0  0  0  0
  182.7890  175.3830  136.7510 N   0  0  0  0  0  0  0  0  0  0  0  0
  184.0020  174.8140  137.3710 C   0  0  0  0  0  2  0  0  0  0  0  0
  183.0060  175.9430  135.4080 C   0  0  0  0  0  2  0  0  0  0  0  0
  184.3660  176.6220  135.2960 C   0  0  0  0  0  2  0  0  0  0  0  0
  185.4870  175.5900  135.4670 C   0  0  0  0  0  3  0  0  0  0  0  0
  181.0130  174.2180  137.8200 N   0  0  0  0  0  1  0  0  0  0  0  0
  181.8280  174.3020  136.6190 C   0  0  0  0  0  2  0  0  0  0  0  0
  187.9230  175.9830  135.0270 N   0  0  0  0  0  0  0  0  0  0  0  0
  188.1290  174.8300  134.5940 O   0  0  0  0  0  0  0  0  0  0  0  0
  188.8330  176.9760  134.7550 O   0  0  0  0  0  0  0  0  0  0  0  0
  189.2440  177.9270  145.6770 C   0  0  2  0  0  3  0  0  0  0  0  0
  189.9280  177.4890  146.9420 C   0  0  0  0  0  3  0  0  0  0  0  0
  191.0340  176.7330  146.9720 C   0  0  0  0  0  0  0  0  0  0  0  0
  191.8530  176.1720  145.4760 S   0  0  0  0  0  1  0  0  0  0  0  0
  192.8030  175.6340  148.0970 O   0  0  0  0  0  1  0  0  0  0  0  0
  191.6420  176.3820  148.2900 C   0  0  0  0  0  2  0  0  0  0  0  0
  187.8980  177.3660  145.6120 N   0  0  0  0  0  2  0  0  0  0  0  0
  186.5730  178.7160  147.1280 C   0  0  0  0  0  2  0  0  0  0  0  0
  185.5340  177.9540  145.4070 C   0  0  2  0  0  3  0  0  0  0  0  0
  185.1800  178.1730  146.8660 C   0  0  0  0  0  2  0  0  0  0  0  0
  186.9430  178.4680  145.6770 C   0  0  2  0  0  3  0  0  0  0  0  0
  184.7500  178.9470  144.5580 C   0  0  0  0  0  2  0  0  0  0  0  0
  184.2770  178.3290  143.2490 C   0  0  0  0  0  2  0  0  0  0  0  0
  185.2140  178.6500  142.0900 C   0  0  0  0  0  2  0  0  0  0  0  0
  184.4560  178.9430  140.8380 C   0  0  0  0  0  0  0  0  0  0  0  0
  183.2000  178.3010  140.6030 N   0  0  0  0  0  2  0  0  0  0  0  0
  184.9270  179.7530  139.9990 O   0  0  0  0  0  0  0  0  0  0  0  0
  183.1850  178.5610  137.9650 O   0  0  0  0  0  0  0  0  0  0  0  0
  182.2700  178.5320  139.1620 S   0  0  0  0  0  0  0  0  0  0  0  0
  181.3960  180.0690  139.2910 C   0  0  0  0  0  1  0  0  0  0  0  0
  181.2680  177.4200  139.0100 O   0  0  0  0  0  0  0  0  0  0  0  0
  1  7  1  1  0  0  0
  1  5  1  0  0  0  0
  2  3  1  0  0  0  0
  3 29  1  1  0  0  0
  4  2  1  0  0  0  0
  5  6  1  0  0  0  0
  6  3  1  0  0  0  0
  7  4  1  0  0  0  0
  8 11  1  6  0  0  0
  8  1  1  0  0  0  0
  9 13  1  6  0  0  0
  9  8  1  0  0  0  0
 10 12  1  0  0  0  0
 10  9  1  0  0  0  0
 12 14  1  6  0  0  0
 12 11  1  0  0  0  0
 14 15  1  0  0  0  0
 16 15  1  0  0  0  0
 17 16  1  6  0  0  0
 18 20  1  0  0  0  0
 19 20  1  0  0  0  0
 21 19  1  0  0  0  0
 22 21  1  0  0  0  0
 22 23  1  0  0  0  0
 23 17  1  0  0  0  0
 23 18  1  0  0  0  0
 25 19  1  0  0  0  0
 25 24  1  0  0  0  0
 26 17  1  0  0  0  0
 27 26  2  0  0  0  0
 28 26  2  0  0  0  0
 29 30  1  1  0  0  0
 30 31  2  0  0  0  0
 31 34  1  0  0  0  0
 32 31  1  0  0  0  0
 33 34  1  0  0  0  0
 35 29  1  0  0  0  0
 37 40  1  6  0  0  0
 37 39  1  0  0  0  0
 37 38  1  0  0  0  0
 38 36  1  0  0  0  0
 39 35  1  1  0  0  0
 39 36  1  0  0  0  0
 41 40  1  0  0  0  0
 42 41  1  0  0  0  0
 43 42  1  0  0  0  0
 44 43  1  0  0  0  0
 45 43  2  0  0  0  0
 46 47  2  0  0  0  0
 47 48  1  0  0  0  0
 47 44  1  0  0  0  0
 49 47  2  0  0  0  0
M  END
>  <MODEL>
7

>  <REMARK>
 VINA RESULT:      -5.5      2.504      9.783
  Name = 
  18 active torsions:
  status: ('A' for Active; 'I' for Inactive)
    1  A    between atoms: C_2  and  C_47
    2  A    between atoms: C_3  and  C_13
    3  A    between atoms: C_3  and  C_39
    4  A    between atoms: C_5  and  C_17
    5  A    between atoms: C_5  and  C_26
    6  A    between atoms: N_7  and  C_29
    7  A    between atoms: C_8  and  C_10
    8  A    between atoms: N_9  and  C_11
    9  A    between atoms: N_12  and  S_24
   10  A    between atoms: C_13  and  C_22
   11  A    between atoms: C_15  and  C_34
   12  A    between atoms: C_18  and  C_43
   13  A    between atoms: C_22  and  C_29
   14  A    between atoms: C_23  and  C_34
   15  A    between atoms: C_26  and  C_47
   16  A    between atoms: C_29  and  C_31
   17  A    between atoms: C_34  and  N_45
   18  A    between atoms: C_35  and  N_45
                            x       y       z     vdW  Elec       q    Type
                         _______ _______ _______ _____ _____    ______ ____

>  <TORSDO>
F 18

$$$$
=
 OpenBabel11062411023D

 49 52  0  0  1  0  0  0  0  0999 V2000
  183.9240  178.8600  142.2000 C   0  0  2  0  0  3  0  0  0  0  0  0
  182.7340  177.7640  139.2620 C   0  0  0  0  0  2  0  0  0  0  0  0
  181.5270  178.4740  139.8910 C   0  0  2  0  0  3  0  0  0  0  0  0
  184.0690  178.3500  139.7080 C   0  0  0  0  0  2  0  0  0  0  0  0
  182.5100  179.4190  141.9750 C   0  0  0  0  0  2  0  0  0  0  0  0
  181.5290  178.3960  141.4180 C   0  0  0  0  0  2  0  0  0  0  0  0
  184.3860  177.8680  141.1190 C   0  0  0  0  0  2  0  0  0  0  0  0
  184.0480  178.2640  143.6080 C   0  0  2  0  0  3  0  0  0  0  0  0
  184.1090  179.3780  144.6350 C   0  0  2  0  0  3  0  0  0  0  0  0
  185.5090  179.6620  144.9340 N   0  0  0  0  0  2  0  0  0  0  0  0
  185.3600  177.5410  143.7910 C   0  0  0  0  0  2  0  0  0  0  0  0
  186.2980  178.5440  144.4290 C   0  0  2  0  0  3  0  0  0  0  0  0
  183.4280  178.9630  145.8490 N   0  0  0  0  0  1  0  0  0  0  0  0
  187.0630  177.9100  145.5820 C   0  0  0  0  0  2  0  0  0  0  0  0
  188.3320  177.2200  145.1040 C   0  0  0  0  0  2  0  0  0  0  0  0
  189.5070  177.5440  146.0170 C   0  0  0  0  0  2  0  0  0  0  0  0
  190.6790  176.5670  145.8550 C   0  0  1  0  0  3  0  0  0  0  0  0
  191.1250  175.7270  143.4590 C   0  0  0  0  0  2  0  0  0  0  0  0
  190.6880  177.5540  141.7860 N   0  0  0  0  0  0  0  0  0  0  0  0
  190.1640  176.3340  142.4310 C   0  0  0  0  0  2  0  0  0  0  0  0
  191.7160  178.2550  142.5710 C   0  0  0  0  0  2  0  0  0  0  0  0
  191.4190  178.1920  144.0660 C   0  0  0  0  0  2  0  0  0  0  0  0
  191.4840  176.7410  144.5570 C   0  0  0  0  0  3  0  0  0  0  0  0
  190.3710  176.3340  139.7700 N   0  0  0  0  0  1  0  0  0  0  0  0
  191.3030  177.1470  140.5350 C   0  0  0  0  0  2  0  0  0  0  0  0
  191.5180  176.4790  147.0490 N   0  0  0  0  0  0  0  0  0  0  0  0
  192.3720  175.5770  147.1760 O   0  0  0  0  0  0  0  0  0  0  0  0
  191.2910  177.3420  148.0950 O   0  0  0  0  0  0  0  0  0  0  0  0
  180.2320  177.9140  139.2910 C   0  0  2  0  0  3  0  0  0  0  0  0
  180.4420  176.5730  138.6460 C   0  0  0  0  0  3  0  0  0  0  0  0
  180.0140  175.4160  139.1690 C   0  0  0  0  0  0  0  0  0  0  0  0
  179.1020  175.3410  140.7140 S   0  0  0  0  0  1  0  0  0  0  0  0
  181.5810  174.0830  137.9990 O   0  0  0  0  0  1  0  0  0  0  0  0
  180.2550  174.1450  138.4240 C   0  0  0  0  0  2  0  0  0  0  0  0
  179.6590  178.8510  138.3290 N   0  0  0  0  0  2  0  0  0  0  0  0
  180.4190  180.8220  137.1390 C   0  0  0  0  0  2  0  0  0  0  0  0
  180.5630  178.9680  136.0620 C   0  0  2  0  0  3  0  0  0  0  0  0
  180.2070  180.3970  135.6980 C   0  0  0  0  0  2  0  0  0  0  0  0
  180.7450  179.3880  137.5150 C   0  0  2  0  0  3  0  0  0  0  0  0
  181.9060  178.6220  135.4280 C   0  0  0  0  0  2  0  0  0  0  0  0
  182.1980  177.1290  135.4930 C   0  0  0  0  0  2  0  0  0  0  0  0
  183.6140  176.8400  135.9810 C   0  0  0  0  0  2  0  0  0  0  0  0
  183.9080  175.3770  135.9720 C   0  0  0  0  0  0  0  0  0  0  0  0
  184.8660  174.8410  136.8880 N   0  0  0  0  0  2  0  0  0  0  0  0
  183.3100  174.6260  135.1590 O   0  0  0  0  0  0  0  0  0  0  0  0
  186.5940  173.0050  137.7050 O   0  0  0  0  0  0  0  0  0  0  0  0
  185.3160  173.1710  136.9230 S   0  0  0  0  0  0  0  0  0  0  0  0
  185.5520  172.6120  135.2570 C   0  0  0  0  0  1  0  0  0  0  0  0
  184.2230  172.3540  137.5560 O   0  0  0  0  0  0  0  0  0  0  0  0
  1  7  1  6  0  0  0
  1  8  1  0  0  0  0
  2  4  1  0  0  0  0
  2  3  1  0  0  0  0
  3 29  1  6  0  0  0
  3  6  1  0  0  0  0
  4  7  1  0  0  0  0
  5  1  1  0  0  0  0
  6  5  1  0  0  0  0
  8 11  1  6  0  0  0
  8  9  1  0  0  0  0
  9 10  1  0  0  0  0
  9 13  1  1  0  0  0
 11 12  1  0  0  0  0
 12 10  1  0  0  0  0
 12 14  1  1  0  0  0
 15 14  1  0  0  0  0
 15 16  1  0  0  0  0
 17 16  1  1  0  0  0
 17 26  1  0  0  0  0
 18 23  1  0  0  0  0
 19 20  1  0  0  0  0
 19 21  1  0  0  0  0
 20 18  1  0  0  0  0
 21 22  1  0  0  0  0
 22 23  1  0  0  0  0
 23 17  1  0  0  0  0
 24 25  1  0  0  0  0
 25 19  1  0  0  0  0
 26 27  2  0  0  0  0
 26 28  2  0  0  0  0
 29 30  1  6  0  0  0
 30 31  2  0  0  0  0
 31 32  1  0  0  0  0
 33 34  1  0  0  0  0
 34 31  1  0  0  0  0
 35 29  1  0  0  0  0
 36 39  1  0  0  0  0
 37 40  1  6  0  0  0
 37 39  1  0  0  0  0
 38 37  1  0  0  0  0
 38 36  1  0  0  0  0
 39 35  1  1  0  0  0
 40 41  1  0  0  0  0
 41 42  1  0  0  0  0
 43 42  1  0  0  0  0
 43 44  1  0  0  0  0
 44 47  1  0  0  0  0
 45 43  2  0  0  0  0
 47 49  2  0  0  0  0
 47 46  2  0  0  0  0
 48 47  1  0  0  0  0
M  END
>  <MODEL>
8

>  <REMARK>
 VINA RESULT:      -5.5      2.866      3.711
  Name = 
  18 active torsions:
  status: ('A' for Active; 'I' for Inactive)
    1  A    between atoms: C_2  and  C_47
    2  A    between atoms: C_3  and  C_13
    3  A    between atoms: C_3  and  C_39
    4  A    between atoms: C_5  and  C_17
    5  A    between atoms: C_5  and  C_26
    6  A    between atoms: N_7  and  C_29
    7  A    between atoms: C_8  and  C_10
    8  A    between atoms: N_9  and  C_11
    9  A    between atoms: N_12  and  S_24
   10  A    between atoms: C_13  and  C_22
   11  A    between atoms: C_15  and  C_34
   12  A    between atoms: C_18  and  C_43
   13  A    between atoms: C_22  and  C_29
   14  A    between atoms: C_23  and  C_34
   15  A    between atoms: C_26  and  C_47
   16  A    between atoms: C_29  and  C_31
   17  A    between atoms: C_34  and  N_45
   18  A    between atoms: C_35  and  N_45
                            x       y       z     vdW  Elec       q    Type
                         _______ _______ _______ _____ _____    ______ ____

>  <TORSDO>
F 18

$$$$
=
 OpenBabel11062411023D

 49 52  0  0  1  0  0  0  0  0999 V2000
  184.3370  178.9360  143.4230 C   0  0  2  0  0  3  0  0  0  0  0  0
  182.8160  178.3080  140.5010 C   0  0  0  0  0  2  0  0  0  0  0  0
  181.6560  178.6990  141.4270 C   0  0  2  0  0  3  0  0  0  0  0  0
  184.1340  178.9710  140.8840 C   0  0  0  0  0  2  0  0  0  0  0  0
  182.8530  179.3260  143.5190 C   0  0  0  0  0  2  0  0  0  0  0  0
  181.9120  178.3130  142.8840 C   0  0  0  0  0  2  0  0  0  0  0  0
  184.7230  178.2600  142.0970 C   0  0  0  0  0  2  0  0  0  0  0  0
  184.7490  178.0880  144.6340 C   0  0  2  0  0  3  0  0  0  0  0  0
  184.8890  178.9720  145.8570 C   0  0  2  0  0  3  0  0  0  0  0  0
  186.2910  179.3530  145.9990 N   0  0  0  0  0  2  0  0  0  0  0  0
  186.1280  177.5030  144.4580 C   0  0  0  0  0  2  0  0  0  0  0  0
  187.0740  178.4610  145.1520 C   0  0  2  0  0  3  0  0  0  0  0  0
  184.4620  178.2440  147.0400 N   0  0  0  0  0  1  0  0  0  0  0  0
  188.0740  177.7030  146.0130 C   0  0  0  0  0  2  0  0  0  0  0  0
  188.9220  176.7500  145.1840 C   0  0  0  0  0  2  0  0  0  0  0  0
  190.4040  176.9370  145.4810 C   0  0  0  0  0  2  0  0  0  0  0  0
  191.2000  177.4390  144.2690 C   0  0  1  0  0  3  0  0  0  0  0  0
  189.3050  176.9160  142.6010 C   0  0  0  0  0  2  0  0  0  0  0  0
  189.7850  177.9610  140.3630 N   0  0  0  0  0  0  0  0  0  0  0  0
  189.0360  178.0720  141.6310 C   0  0  0  0  0  2  0  0  0  0  0  0
  190.9970  177.1330  140.4520 C   0  0  0  0  0  2  0  0  0  0  0  0
  191.6990  177.3070  141.7950 C   0  0  0  0  0  2  0  0  0  0  0  0
  190.8020  176.7980  142.9300 C   0  0  0  0  0  3  0  0  0  0  0  0
  187.7700  178.2030  139.1250 N   0  0  0  0  0  1  0  0  0  0  0  0
  188.9020  177.3320  139.3970 C   0  0  0  0  0  2  0  0  0  0  0  0
  191.2880  178.8980  144.2090 N   0  0  0  0  0  0  0  0  0  0  0  0
  190.2850  179.5970  143.9550 O   0  0  0  0  0  0  0  0  0  0  0  0
  192.5160  179.5020  144.3320 O   0  0  0  0  0  0  0  0  0  0  0  0
  180.3500  178.0990  140.8960 C   0  0  2  0  0  3  0  0  0  0  0  0
  180.5750  177.2370  139.6850 C   0  0  0  0  0  3  0  0  0  0  0  0
  180.1710  175.9640  139.5880 C   0  0  0  0  0  0  0  0  0  0  0  0
  179.2750  175.1380  140.9070 S   0  0  0  0  0  1  0  0  0  0  0  0
  180.2820  173.8430  138.5420 O   0  0  0  0  0  1  0  0  0  0  0  0
  180.4250  175.2120  138.3230 C   0  0  0  0  0  2  0  0  0  0  0  0
  179.3820  179.1500  140.5940 N   0  0  0  0  0  2  0  0  0  0  0  0
  179.3000  181.5550  140.3000 C   0  0  0  0  0  2  0  0  0  0  0  0
  179.8440  180.4200  138.5570 C   0  0  2  0  0  3  0  0  0  0  0  0
  179.0090  181.6610  138.8140 C   0  0  0  0  0  2  0  0  0  0  0  0
  180.1080  180.2940  140.0530 C   0  0  2  0  0  3  0  0  0  0  0  0
  181.1120  180.8280  137.8170 C   0  0  0  0  0  2  0  0  0  0  0  0
  181.1450  180.2780  136.3980 C   0  0  0  0  0  2  0  0  0  0  0  0
  180.8510  178.7820  136.3530 C   0  0  0  0  0  2  0  0  0  0  0  0
  182.1060  177.9760  136.4080 C   0  0  0  0  0  0  0  0  0  0  0  0
  182.3200  176.9320  135.4550 N   0  0  0  0  0  2  0  0  0  0  0  0
  182.9670  178.2220  137.2910 O   0  0  0  0  0  0  0  0  0  0  0  0
  184.0150  175.4720  136.8770 O   0  0  0  0  0  0  0  0  0  0  0  0
  183.7140  175.9070  135.4660 S   0  0  0  0  0  0  0  0  0  0  0  0
  185.0890  176.8130  134.8070 C   0  0  0  0  0  1  0  0  0  0  0  0
  183.4740  174.6990  134.6020 O   0  0  0  0  0  0  0  0  0  0  0  0
  1  7  1  6  0  0  0
  1  5  1  0  0  0  0
  1  8  1  0  0  0  0
  2  4  1  0  0  0  0
  2  3  1  0  0  0  0
  3 29  1  6  0  0  0
  3  6  1  0  0  0  0
  4  7  1  0  0  0  0
  6  5  1  0  0  0  0
  8 11  1  6  0  0  0
  8  9  1  0  0  0  0
  9 10  1  0  0  0  0
  9 13  1  1  0  0  0
 11 12  1  0  0  0  0
 12 10  1  0  0  0  0
 12 14  1  1  0  0  0
 15 16  1  0  0  0  0
 15 14  1  0  0  0  0
 17 16  1  1  0  0  0
 18 23  1  0  0  0  0
 19 21  1  0  0  0  0
 19 20  1  0  0  0  0
 20 18  1  0  0  0  0
 21 22  1  0  0  0  0
 22 23  1  0  0  0  0
 23 17  1  0  0  0  0
 24 25  1  0  0  0  0
 25 19  1  0  0  0  0
 26 17  1  0  0  0  0
 26 28  2  0  0  0  0
 27 26  2  0  0  0  0
 29 30  1  6  0  0  0
 31 30  2  0  0  0  0
 31 32  1  0  0  0  0
 34 33  1  0  0  0  0
 34 31  1  0  0  0  0
 35 29  1  0  0  0  0
 37 40  1  6  0  0  0
 37 38  1  0  0  0  0
 37 39  1  0  0  0  0
 38 36  1  0  0  0  0
 39 36  1  0  0  0  0
 39 35  1  1  0  0  0
 41 40  1  0  0  0  0
 42 41  1  0  0  0  0
 42 43  1  0  0  0  0
 43 45  2  0  0  0  0
 44 47  1  0  0  0  0
 44 43  1  0  0  0  0
 47 46  2  0  0  0  0
 48 47  1  0  0  0  0
 49 47  2  0  0  0  0
M  END
>  <MODEL>
9

>  <REMARK>
 VINA RESULT:      -5.5      3.078      4.439
  Name = 
  18 active torsions:
  status: ('A' for Active; 'I' for Inactive)
    1  A    between atoms: C_2  and  C_47
    2  A    between atoms: C_3  and  C_13
    3  A    between atoms: C_3  and  C_39
    4  A    between atoms: C_5  and  C_17
    5  A    between atoms: C_5  and  C_26
    6  A    between atoms: N_7  and  C_29
    7  A    between atoms: C_8  and  C_10
    8  A    between atoms: N_9  and  C_11
    9  A    between atoms: N_12  and  S_24
   10  A    between atoms: C_13  and  C_22
   11  A    between atoms: C_15  and  C_34
   12  A    between atoms: C_18  and  C_43
   13  A    between atoms: C_22  and  C_29
   14  A    between atoms: C_23  and  C_34
   15  A    between atoms: C_26  and  C_47
   16  A    between atoms: C_29  and  C_31
   17  A    between atoms: C_34  and  N_45
   18  A    between atoms: C_35  and  N_45
                            x       y       z     vdW  Elec       q    Type
                         _______ _______ _______ _____ _____    ______ ____

>  <TORSDO>
F 18

$$$$
