=
 OpenBabel11062411003D

 49 55  0  0  1  0  0  0  0  0999 V2000
  190.4220  177.2230  139.3600 C   0  0  0  0  0  0  0  0  0  0  0  0
  189.6190  177.1020  140.4780 C   0  0  0  0  0  3  0  0  0  0  0  0
  190.5570  177.0360  141.4980 C   0  0  0  0  0  0  0  0  0  0  0  0
  191.7660  177.1290  140.9970 O   0  0  0  0  0  0  0  0  0  0  0  0
  191.7230  177.2560  139.7040 N   0  0  0  0  0  0  0  0  0  0  0  0
  189.9050  177.4580  137.9770 C   0  0  0  0  0  2  0  0  0  0  0  0
  188.6670  176.6080  137.6670 C   0  0  2  0  0  3  0  0  0  0  0  0
  186.8000  174.4900  136.0800 O   0  0  0  0  0  0  0  0  0  0  0  0
  189.5780  174.0760  134.7760 C   0  0  0  0  0  2  0  0  0  0  0  0
  187.8960  173.8160  136.6470 C   0  0  2  0  0  3  0  0  0  0  0  0
  189.5770  172.5620  134.5940 C   0  0  0  0  0  2  0  0  0  0  0  0
  188.1920  172.0200  134.8940 C   0  0  0  0  0  2  0  0  0  0  0  0
  188.6910  175.9740  136.2380 C   0  0  2  0  0  0  0  0  0  0  0  0
  189.4340  176.8840  135.2560 C   0  0  0  0  0  1  0  0  0  0  0  0
  187.2570  175.7860  135.7520 C   0  0  0  0  0  2  0  0  0  0  0  0
  189.1860  174.5140  136.2150 C   0  0  2  0  0  0  0  0  0  0  0  0
  187.8460  172.3130  136.3460 C   0  0  0  0  0  2  0  0  0  0  0  0
  190.3090  174.1830  137.2190 C   0  0  0  0  0  2  0  0  0  0  0  0
  191.7150  174.3600  136.6460 C   0  0  0  0  0  2  0  0  0  0  0  0
  192.7550  174.4750  137.7510 C   0  0  0  0  0  2  0  0  0  0  0  0
  194.0020  175.2080  137.2660 C   0  0  0  0  0  2  0  0  0  0  0  0
  196.3520  175.0320  137.9060 N   0  0  0  0  0  2  0  0  0  0  0  0
  196.3090  174.1400  139.0570 C   0  0  0  0  0  2  0  0  0  0  0  0
  195.1340  173.3650  138.5150 C   0  0  0  0  0  2  0  0  0  0  0  0
  195.2290  174.3040  137.3360 C   0  0  1  0  0  3  0  0  0  0  0  0
  187.3930  177.4010  137.9810 C   0  0  0  0  0  2  0  0  0  0  0  0
  187.5830  178.7680  137.7560 O   0  0  0  0  0  1  0  0  0  0  0  0
  190.2750  176.9220  142.9670 C   0  0  1  0  0  3  0  0  0  0  0  0
  191.1740  177.3250  145.2070 C   0  0  0  0  0  2  0  0  0  0  0  0
  191.6610  176.0100  144.7640 N   0  0  0  0  0  2  0  0  0  0  0  0
  191.5350  177.1210  143.8070 C   0  0  1  0  0  3  0  0  0  0  0  0
  189.1270  177.8230  143.4240 C   0  0  0  0  0  2  0  0  0  0  0  0
  187.8200  177.0540  143.5980 C   0  0  0  0  0  2  0  0  0  0  0  0
  187.0880  178.6020  147.0190 C   0  0  1  0  0  3  0  0  0  0  0  0
  187.5370  177.4530  146.1150 C   0  0  0  0  0  2  0  0  0  0  0  0
  187.0150  177.6360  144.7170 C   0  0  0  0  0  0  0  0  0  0  0  0
  185.8890  178.3520  144.5070 C   0  0  0  0  0  0  0  0  0  0  0  0
  185.2700  179.0070  145.6280 N   0  0  0  0  0  2  0  0  0  0  0  0
  185.6350  178.7140  146.9560 N   0  0  0  0  0  2  0  0  0  0  0  0
  183.9230  178.5770  142.9510 C   0  0  0  0  0  0  0  0  0  0  0  0
  185.6640  178.8950  140.7720 C   0  0  0  0  0  3  0  0  0  0  0  0
  183.4180  178.7370  141.6490 C   0  0  0  0  0  3  0  0  0  0  0  0
  184.2840  178.8960  140.5670 C   0  0  0  0  0  3  0  0  0  0  0  0
  185.3190  178.5800  143.1590 C   0  0  0  0  0  0  0  0  0  0  0  0
  186.1770  178.7330  142.0590 C   0  0  0  0  0  3  0  0  0  0  0  0
  181.6690  178.7160  143.9690 C   0  0  0  0  0  1  0  0  0  0  0  0
  183.0590  178.4300  144.0420 O   0  0  0  0  0  0  0  0  0  0  0  0
  188.4140  177.2760  148.5060 O   0  0  0  0  0  1  0  0  0  0  0  0
  187.5130  178.3420  148.4530 C   0  0  0  0  0  2  0  0  0  0  0  0
  1  5  2  0  0  0  0
  1  2  1  0  0  0  0
  2  3  2  0  0  0  0
  3 28  1  0  0  0  0
  4  3  1  0  0  0  0
  5  4  1  0  0  0  0
  6  1  1  0  0  0  0
  7  6  1  6  0  0  0
  7 26  1  0  0  0  0
  8 10  1  0  0  0  0
  9 16  1  0  0  0  0
 10 17  1  6  0  0  0
 11  9  1  0  0  0  0
 11 12  1  0  0  0  0
 12 17  1  0  0  0  0
 13 14  1  6  0  0  0
 13  7  1  0  0  0  0
 15  8  1  0  0  0  0
 15 13  1  0  0  0  0
 16 13  1  0  0  0  0
 16 10  1  0  0  0  0
 16 18  1  1  0  0  0
 19 18  1  0  0  0  0
 19 20  1  0  0  0  0
 21 20  1  0  0  0  0
 22 23  1  0  0  0  0
 24 23  1  0  0  0  0
 25 21  1  1  0  0  0
 25 22  1  0  0  0  0
 25 24  1  0  0  0  0
 27 26  1  0  0  0  0
 28 32  1  1  0  0  0
 30 29  1  0  0  0  0
 31 28  1  6  0  0  0
 31 30  1  0  0  0  0
 31 29  1  0  0  0  0
 32 33  1  0  0  0  0
 33 36  1  0  0  0  0
 34 49  1  1  0  0  0
 35 34  1  0  0  0  0
 36 35  1  0  0  0  0
 37 36  2  0  0  0  0
 37 38  1  0  0  0  0
 38 39  1  0  0  0  0
 39 34  1  0  0  0  0
 40 44  1  0  0  0  0
 40 47  1  0  0  0  0
 41 45  1  0  0  0  0
 42 40  2  0  0  0  0
 43 41  2  0  0  0  0
 43 42  1  0  0  0  0
 44 37  1  0  0  0  0
 45 44  2  0  0  0  0
 46 47  1  0  0  0  0
 49 48  1  0  0  0  0
M  END
>  <MODEL>
1

>  <REMARK>
 VINA RESULT:      -8.2      0.000      0.000
  Name = 
  17 active torsions:
  status: ('A' for Active; 'I' for Inactive)
    1  A    between atoms: C_3  and  C_20
    2  A    between atoms: C_3  and  C_43
    3  A    between atoms: C_4  and  C_31
    4  A    between atoms: C_5  and  C_23
    5  A    between atoms: C_9  and  C_19
    6  A    between atoms: C_9  and  C_37
    7  A    between atoms: C_11  and  C_20
    8  A    between atoms: C_11  and  C_35
    9  A    between atoms: C_14  and  O_44
   10  A    between atoms: C_21  and  C_25
   11  A    between atoms: C_21  and  C_37
   12  A    between atoms: C_21  and  C_40
   13  A    between atoms: C_22  and  C_34
   14  A    between atoms: C_23  and  C_45
   15  A    between atoms: C_30  and  C_45
   16  A    between atoms: C_35  and  C_47
   17  A    between atoms: C_36  and  C_45
                            x       y       z     vdW  Elec       q    Type
                         _______ _______ _______ _____ _____    ______ ____

>  <TORSDO>
F 17

$$$$
=
 OpenBabel11062411003D

 49 55  0  0  1  0  0  0  0  0999 V2000
  188.2510  178.3610  139.3450 C   0  0  0  0  0  0  0  0  0  0  0  0
  187.5440  177.4190  138.6210 C   0  0  0  0  0  3  0  0  0  0  0  0
  187.8360  177.7850  137.3150 C   0  0  0  0  0  0  0  0  0  0  0  0
  188.6410  178.8210  137.3120 O   0  0  0  0  0  0  0  0  0  0  0  0
  188.9240  179.1900  138.5260 N   0  0  0  0  0  0  0  0  0  0  0  0
  188.3820  178.3490  140.8340 C   0  0  0  0  0  2  0  0  0  0  0  0
  189.5720  177.5050  141.3060 C   0  0  2  0  0  3  0  0  0  0  0  0
  192.2540  176.7780  142.9700 O   0  0  0  0  0  0  0  0  0  0  0  0
  190.3560  177.8700  145.1600 C   0  0  0  0  0  2  0  0  0  0  0  0
  191.1550  176.1050  143.5340 C   0  0  2  0  0  3  0  0  0  0  0  0
  190.6890  176.9280  146.3120 C   0  0  0  0  0  2  0  0  0  0  0  0
  191.9050  176.0980  145.9470 C   0  0  0  0  0  2  0  0  0  0  0  0
  190.2370  178.0460  142.6140 C   0  0  2  0  0  0  0  0  0  0  0  0
  189.8100  179.4920  142.8770 C   0  0  0  0  0  1  0  0  0  0  0  0
  191.7540  177.9960  142.4590 C   0  0  0  0  0  2  0  0  0  0  0  0
  190.0510  177.1200  143.8330 C   0  0  2  0  0  0  0  0  0  0  0  0
  191.5800  175.2450  144.7310 C   0  0  0  0  0  2  0  0  0  0  0  0
  188.6930  176.3930  143.9070 C   0  0  0  0  0  2  0  0  0  0  0  0
  187.6900  177.0640  144.8440 C   0  0  0  0  0  2  0  0  0  0  0  0
  186.5240  177.6660  144.0710 C   0  0  0  0  0  2  0  0  0  0  0  0
  185.5770  178.4240  144.9950 C   0  0  0  0  0  2  0  0  0  0  0  0
  184.6670  179.0300  142.8110 N   0  0  0  0  0  2  0  0  0  0  0  0
  183.2410  178.7850  142.9750 C   0  0  0  0  0  2  0  0  0  0  0  0
  183.2590  179.1680  144.4330 C   0  0  0  0  0  2  0  0  0  0  0  0
  184.7310  179.4230  144.2110 C   0  0  1  0  0  3  0  0  0  0  0  0
  190.5530  177.2860  140.1480 C   0  0  0  0  0  2  0  0  0  0  0  0
  190.5680  175.9460  139.7460 O   0  0  0  0  0  1  0  0  0  0  0  0
  187.3610  177.1010  136.0670 C   0  0  1  0  0  3  0  0  0  0  0  0
  187.9580  175.0360  134.8970 C   0  0  0  0  0  2  0  0  0  0  0  0
  188.8990  175.2000  136.0160 N   0  0  0  0  0  2  0  0  0  0  0  0
  187.4860  175.5820  136.1670 C   0  0  1  0  0  3  0  0  0  0  0  0
  185.9580  177.5390  135.6460 C   0  0  0  0  0  2  0  0  0  0  0  0
  184.9130  176.4530  135.8900 C   0  0  0  0  0  2  0  0  0  0  0  0
  183.0150  178.2510  138.6820 C   0  0  1  0  0  3  0  0  0  0  0  0
  184.2330  178.0450  137.7810 C   0  0  0  0  0  2  0  0  0  0  0  0
  184.2520  176.6510  137.2180 C   0  0  0  0  0  0  0  0  0  0  0  0
  183.6380  175.6470  137.8820 C   0  0  0  0  0  0  0  0  0  0  0  0
  182.8930  175.9630  139.0710 N   0  0  0  0  0  2  0  0  0  0  0  0
  183.0010  177.2140  139.7070 N   0  0  0  0  0  2  0  0  0  0  0  0
  182.4650  173.7340  136.7420 C   0  0  0  0  0  0  0  0  0  0  0  0
  184.6850  172.0780  137.2020 C   0  0  0  0  0  3  0  0  0  0  0  0
  182.4500  172.3890  136.3360 C   0  0  0  0  0  3  0  0  0  0  0  0
  183.5540  171.5670  136.5630 C   0  0  0  0  0  3  0  0  0  0  0  0
  183.6100  174.2520  137.3850 C   0  0  0  0  0  0  0  0  0  0  0  0
  184.7090  173.4110  137.6130 C   0  0  0  0  0  3  0  0  0  0  0  0
  181.1550  175.2330  135.2680 C   0  0  0  0  0  1  0  0  0  0  0  0
  181.3650  174.5660  136.5050 O   0  0  0  0  0  0  0  0  0  0  0  0
  184.3160  180.2120  139.1170 O   0  0  0  0  0  1  0  0  0  0  0  0
  183.0730  179.6160  139.3450 C   0  0  0  0  0  2  0  0  0  0  0  0
  1  6  1  0  0  0  0
  2  1  1  0  0  0  0
  3  2  2  0  0  0  0
  4  3  1  0  0  0  0
  4  5  1  0  0  0  0
  5  1  2  0  0  0  0
  6  7  1  0  0  0  0
  7 26  1  6  0  0  0
  7 13  1  0  0  0  0
  8 10  1  0  0  0  0
  9 11  1  0  0  0  0
 10 16  1  0  0  0  0
 10 17  1  1  0  0  0
 12 11  1  0  0  0  0
 13 14  1  1  0  0  0
 13 16  1  0  0  0  0
 15 13  1  0  0  0  0
 15  8  1  0  0  0  0
 16 18  1  1  0  0  0
 16  9  1  0  0  0  0
 17 12  1  0  0  0  0
 18 19  1  0  0  0  0
 20 19  1  0  0  0  0
 20 21  1  0  0  0  0
 22 23  1  0  0  0  0
 22 25  1  0  0  0  0
 23 24  1  0  0  0  0
 25 24  1  0  0  0  0
 25 21  1  1  0  0  0
 27 26  1  0  0  0  0
 28 32  1  1  0  0  0
 28  3  1  0  0  0  0
 29 30  1  0  0  0  0
 29 31  1  0  0  0  0
 30 31  1  0  0  0  0
 31 28  1  6  0  0  0
 32 33  1  0  0  0  0
 33 36  1  0  0  0  0
 34 49  1  1  0  0  0
 34 39  1  0  0  0  0
 35 34  1  0  0  0  0
 36 35  1  0  0  0  0
 36 37  2  0  0  0  0
 37 38  1  0  0  0  0
 38 39  1  0  0  0  0
 40 44  1  0  0  0  0
 41 45  1  0  0  0  0
 42 43  1  0  0  0  0
 42 40  2  0  0  0  0
 43 41  2  0  0  0  0
 44 45  2  0  0  0  0
 44 37  1  0  0  0  0
 46 47  1  0  0  0  0
 47 40  1  0  0  0  0
 48 49  1  0  0  0  0
M  END
>  <MODEL>
2

>  <REMARK>
 VINA RESULT:      -7.9      3.385      8.860
  Name = 
  17 active torsions:
  status: ('A' for Active; 'I' for Inactive)
    1  A    between atoms: C_3  and  C_20
    2  A    between atoms: C_3  and  C_43
    3  A    between atoms: C_4  and  C_31
    4  A    between atoms: C_5  and  C_23
    5  A    between atoms: C_9  and  C_19
    6  A    between atoms: C_9  and  C_37
    7  A    between atoms: C_11  and  C_20
    8  A    between atoms: C_11  and  C_35
    9  A    between atoms: C_14  and  O_44
   10  A    between atoms: C_21  and  C_25
   11  A    between atoms: C_21  and  C_37
   12  A    between atoms: C_21  and  C_40
   13  A    between atoms: C_22  and  C_34
   14  A    between atoms: C_23  and  C_45
   15  A    between atoms: C_30  and  C_45
   16  A    between atoms: C_35  and  C_47
   17  A    between atoms: C_36  and  C_45
                            x       y       z     vdW  Elec       q    Type
                         _______ _______ _______ _____ _____    ______ ____

>  <TORSDO>
F 17

$$$$
=
 OpenBabel11062411003D

 49 55  0  0  1  0  0  0  0  0999 V2000
  184.9210  178.5230  142.2840 C   0  0  0  0  0  0  0  0  0  0  0  0
  183.9570  178.0800  141.3990 C   0  0  0  0  0  3  0  0  0  0  0  0
  184.1750  178.9030  140.3040 C   0  0  0  0  0  0  0  0  0  0  0  0
  185.1750  179.7160  140.5500 O   0  0  0  0  0  0  0  0  0  0  0  0
  185.6610  179.5060  141.7370 N   0  0  0  0  0  0  0  0  0  0  0  0
  185.2100  177.8800  143.6030 C   0  0  0  0  0  2  0  0  0  0  0  0
  186.5120  178.3950  144.2280 C   0  0  2  0  0  3  0  0  0  0  0  0
  189.3460  178.1420  145.7740 O   0  0  0  0  0  0  0  0  0  0  0  0
  189.7920  176.4350  143.2290 C   0  0  0  0  0  2  0  0  0  0  0  0
  189.5640  178.6270  144.4710 C   0  0  2  0  0  3  0  0  0  0  0  0
  191.2370  176.7970  142.9010 C   0  0  0  0  0  2  0  0  0  0  0  0
  191.8300  177.5900  144.0490 C   0  0  0  0  0  2  0  0  0  0  0  0
  187.6400  177.3140  144.2890 C   0  0  2  0  0  0  0  0  0  0  0  0
  187.0790  175.9290  143.9540 C   0  0  0  0  0  1  0  0  0  0  0  0
  188.2270  177.2850  145.6970 C   0  0  0  0  0  2  0  0  0  0  0  0
  188.8950  177.6810  143.4730 C   0  0  2  0  0  0  0  0  0  0  0  0
  191.0530  178.8880  144.2130 C   0  0  0  0  0  2  0  0  0  0  0  0
  188.6260  178.4350  142.1540 C   0  0  0  0  0  2  0  0  0  0  0  0
  188.5110  177.5190  140.9370 C   0  0  0  0  0  2  0  0  0  0  0  0
  188.5180  178.3160  139.6400 C   0  0  0  0  0  2  0  0  0  0  0  0
  189.5510  177.7700  138.6590 C   0  0  0  0  0  2  0  0  0  0  0  0
  190.5740  175.5730  138.3550 N   0  0  0  0  0  2  0  0  0  0  0  0
  191.9980  175.8790  138.3350 C   0  0  0  0  0  2  0  0  0  0  0  0
  191.8490  177.0280  139.3000 C   0  0  0  0  0  2  0  0  0  0  0  0
  190.3830  176.6630  139.3000 C   0  0  1  0  0  3  0  0  0  0  0  0
  186.2180  179.0720  145.5730 C   0  0  0  0  0  2  0  0  0  0  0  0
  184.8460  179.0760  145.8450 O   0  0  0  0  0  1  0  0  0  0  0  0
  183.4320  178.8730  139.0010 C   0  0  1  0  0  3  0  0  0  0  0  0
  181.6040  179.9920  137.8210 C   0  0  0  0  0  2  0  0  0  0  0  0
  181.3880  180.1900  139.2620 N   0  0  0  0  0  2  0  0  0  0  0  0
  182.7490  180.2060  138.7020 C   0  0  1  0  0  3  0  0  0  0  0  0
  184.2970  178.3920  137.8350 C   0  0  0  0  0  2  0  0  0  0  0  0
  183.5620  177.3990  136.9380 C   0  0  0  0  0  2  0  0  0  0  0  0
  186.3930  174.8320  137.1180 C   0  0  1  0  0  3  0  0  0  0  0  0
  185.6010  175.9360  136.4150 C   0  0  0  0  0  2  0  0  0  0  0  0
  184.2190  176.0550  136.9950 C   0  0  0  0  0  0  0  0  0  0  0  0
  183.6420  174.9880  137.5880 C   0  0  0  0  0  0  0  0  0  0  0  0
  184.4130  173.7820  137.7360 N   0  0  0  0  0  2  0  0  0  0  0  0
  185.6310  173.5900  137.0570 N   0  0  0  0  0  2  0  0  0  0  0  0
  181.1660  174.5490  137.4800 C   0  0  0  0  0  0  0  0  0  0  0  0
  180.8300  175.7280  140.0050 C   0  0  0  0  0  3  0  0  0  0  0  0
  179.8870  174.6610  138.0520 C   0  0  0  0  0  3  0  0  0  0  0  0
  179.7220  175.2460  139.3070 C   0  0  0  0  0  3  0  0  0  0  0  0
  182.2880  175.0330  138.1860 C   0  0  0  0  0  0  0  0  0  0  0  0
  182.1040  175.6260  139.4450 C   0  0  0  0  0  3  0  0  0  0  0  0
  181.2210  172.5510  136.0160 C   0  0  0  0  0  1  0  0  0  0  0  0
  181.3390  173.9510  136.2260 O   0  0  0  0  0  0  0  0  0  0  0  0
  188.2390  175.8590  135.9940 O   0  0  0  0  0  1  0  0  0  0  0  0
  187.7380  174.6350  136.4420 C   0  0  0  0  0  2  0  0  0  0  0  0
  1  6  1  0  0  0  0
  2  1  1  0  0  0  0
  3  4  1  0  0  0  0
  3  2  2  0  0  0  0
  4  5  1  0  0  0  0
  5  1  2  0  0  0  0
  7  6  1  1  0  0  0
  7 13  1  0  0  0  0
  7 26  1  0  0  0  0
  9 16  1  0  0  0  0
 10 17  1  6  0  0  0
 10  8  1  0  0  0  0
 11  9  1  0  0  0  0
 11 12  1  0  0  0  0
 12 17  1  0  0  0  0
 13 14  1  6  0  0  0
 13 15  1  0  0  0  0
 15  8  1  0  0  0  0
 16 18  1  6  0  0  0
 16 13  1  0  0  0  0
 16 10  1  0  0  0  0
 19 18  1  0  0  0  0
 20 19  1  0  0  0  0
 21 20  1  0  0  0  0
 22 25  1  0  0  0  0
 23 22  1  0  0  0  0
 23 24  1  0  0  0  0
 25 21  1  6  0  0  0
 25 24  1  0  0  0  0
 26 27  1  0  0  0  0
 28 32  1  6  0  0  0
 28  3  1  0  0  0  0
 29 31  1  0  0  0  0
 29 30  1  0  0  0  0
 31 28  1  1  0  0  0
 31 30  1  0  0  0  0
 33 36  1  0  0  0  0
 33 32  1  0  0  0  0
 34 49  1  6  0  0  0
 35 36  1  0  0  0  0
 35 34  1  0  0  0  0
 36 37  2  0  0  0  0
 37 38  1  0  0  0  0
 37 44  1  0  0  0  0
 39 34  1  0  0  0  0
 39 38  1  0  0  0  0
 40 42  2  0  0  0  0
 40 44  1  0  0  0  0
 42 43  1  0  0  0  0
 43 41  2  0  0  0  0
 44 45  2  0  0  0  0
 45 41  1  0  0  0  0
 46 47  1  0  0  0  0
 47 40  1  0  0  0  0
 48 49  1  0  0  0  0
M  END
>  <MODEL>
3

>  <REMARK>
 VINA RESULT:      -7.7      3.496      8.519
  Name = 
  17 active torsions:
  status: ('A' for Active; 'I' for Inactive)
    1  A    between atoms: C_3  and  C_20
    2  A    between atoms: C_3  and  C_43
    3  A    between atoms: C_4  and  C_31
    4  A    between atoms: C_5  and  C_23
    5  A    between atoms: C_9  and  C_19
    6  A    between atoms: C_9  and  C_37
    7  A    between atoms: C_11  and  C_20
    8  A    between atoms: C_11  and  C_35
    9  A    between atoms: C_14  and  O_44
   10  A    between atoms: C_21  and  C_25
   11  A    between atoms: C_21  and  C_37
   12  A    between atoms: C_21  and  C_40
   13  A    between atoms: C_22  and  C_34
   14  A    between atoms: C_23  and  C_45
   15  A    between atoms: C_30  and  C_45
   16  A    between atoms: C_35  and  C_47
   17  A    between atoms: C_36  and  C_45
                            x       y       z     vdW  Elec       q    Type
                         _______ _______ _______ _____ _____    ______ ____

>  <TORSDO>
F 17

$$$$
=
 OpenBabel11062411003D

 49 55  0  0  1  0  0  0  0  0999 V2000
  183.5650  178.0010  139.0250 C   0  0  0  0  0  0  0  0  0  0  0  0
  184.4000  178.8750  139.6940 C   0  0  0  0  0  3  0  0  0  0  0  0
  184.3310  178.3950  140.9940 C   0  0  0  0  0  0  0  0  0  0  0  0
  183.5470  177.3450  141.0410 O   0  0  0  0  0  0  0  0  0  0  0  0
  183.0730  177.0680  139.8630 N   0  0  0  0  0  0  0  0  0  0  0  0
  183.3720  177.9930  137.5420 C   0  0  0  0  0  2  0  0  0  0  0  0
  182.4510  176.8570  137.0810 C   0  0  2  0  0  3  0  0  0  0  0  0
  181.3440  174.4270  135.2490 O   0  0  0  0  0  0  0  0  0  0  0  0
  184.3940  174.3590  134.7190 C   0  0  0  0  0  2  0  0  0  0  0  0
  182.3330  173.9420  136.1240 C   0  0  2  0  0  3  0  0  0  0  0  0
  184.6330  172.8540  134.6630 C   0  0  0  0  0  2  0  0  0  0  0  0
  183.2990  172.1330  134.6480 C   0  0  0  0  0  2  0  0  0  0  0  0
  182.9250  176.1720  135.7580 C   0  0  2  0  0  0  0  0  0  0  0  0
  183.7740  177.1360  134.9250 C   0  0  0  0  0  1  0  0  0  0  0  0
  181.7010  175.7590  134.9450 C   0  0  0  0  0  2  0  0  0  0  0  0
  183.5910  174.7990  135.9750 C   0  0  2  0  0  0  0  0  0  0  0  0
  182.5530  172.4360  135.9390 C   0  0  0  0  0  2  0  0  0  0  0  0
  184.4480  174.6760  137.2510 C   0  0  0  0  0  2  0  0  0  0  0  0
  185.9480  174.8170  136.9970 C   0  0  0  0  0  2  0  0  0  0  0  0
  186.4520  176.1980  137.3940 C   0  0  0  0  0  2  0  0  0  0  0  0
  187.2330  176.8520  136.2590 C   0  0  0  0  0  2  0  0  0  0  0  0
  187.4810  178.5240  138.0220 N   0  0  0  0  0  2  0  0  0  0  0  0
  188.9150  178.7800  138.0270 C   0  0  0  0  0  2  0  0  0  0  0  0
  189.0440  178.5490  136.5420 C   0  0  0  0  0  2  0  0  0  0  0  0
  187.5530  178.3080  136.5850 C   0  0  1  0  0  3  0  0  0  0  0  0
  180.9950  177.3400  137.0520 C   0  0  0  0  0  2  0  0  0  0  0  0
  180.9290  178.7300  136.9070 O   0  0  0  0  0  1  0  0  0  0  0  0
  185.0630  178.9380  142.1860 C   0  0  1  0  0  3  0  0  0  0  0  0
  184.4530  179.5690  144.4710 C   0  0  0  0  0  2  0  0  0  0  0  0
  183.2090  179.2580  143.7500 N   0  0  0  0  0  2  0  0  0  0  0  0
  184.4320  178.4790  143.5000 C   0  0  1  0  0  3  0  0  0  0  0  0
  186.5660  178.6610  142.1390 C   0  0  0  0  0  2  0  0  0  0  0  0
  186.9790  177.5370  143.0870 C   0  0  0  0  0  2  0  0  0  0  0  0
  190.4910  177.5180  141.5730 C   0  0  1  0  0  3  0  0  0  0  0  0
  189.0310  177.0660  141.6250 C   0  0  0  0  0  2  0  0  0  0  0  0
  188.4510  177.2880  142.9950 C   0  0  0  0  0  0  0  0  0  0  0  0
  189.2620  177.3130  144.0740 C   0  0  0  0  0  0  0  0  0  0  0  0
  190.6830  177.2220  143.8710 N   0  0  0  0  0  2  0  0  0  0  0  0
  191.2350  176.8450  142.6320 N   0  0  0  0  0  2  0  0  0  0  0  0
  189.5990  177.3240  146.5690 C   0  0  0  0  0  0  0  0  0  0  0  0
  186.9140  178.0490  146.9450 C   0  0  0  0  0  3  0  0  0  0  0  0
  189.0770  177.4850  147.8630 C   0  0  0  0  0  3  0  0  0  0  0  0
  187.7430  177.8470  148.0490 C   0  0  0  0  0  3  0  0  0  0  0  0
  188.7630  177.5330  145.4510 C   0  0  0  0  0  0  0  0  0  0  0  0
  187.4210  177.8890  145.6550 C   0  0  0  0  0  3  0  0  0  0  0  0
  191.6650  176.1610  147.2900 C   0  0  0  0  0  1  0  0  0  0  0  0
  190.9410  176.9740  146.3760 O   0  0  0  0  0  0  0  0  0  0  0  0
  190.4620  176.0620  139.6740 O   0  0  0  0  0  1  0  0  0  0  0  0
  191.1030  177.1730  140.2270 C   0  0  0  0  0  2  0  0  0  0  0  0
  1  2  1  0  0  0  0
  1  5  2  0  0  0  0
  2  3  2  0  0  0  0
  3  4  1  0  0  0  0
  3 28  1  0  0  0  0
  5  4  1  0  0  0  0
  6  1  1  0  0  0  0
  7 26  1  6  0  0  0
  7  6  1  0  0  0  0
  8 10  1  0  0  0  0
  9 16  1  0  0  0  0
 10 17  1  6  0  0  0
 11  9  1  0  0  0  0
 12 11  1  0  0  0  0
 12 17  1  0  0  0  0
 13 14  1  6  0  0  0
 13 16  1  0  0  0  0
 13  7  1  0  0  0  0
 15  8  1  0  0  0  0
 15 13  1  0  0  0  0
 16 10  1  0  0  0  0
 16 18  1  1  0  0  0
 19 18  1  0  0  0  0
 19 20  1  0  0  0  0
 21 20  1  0  0  0  0
 22 23  1  0  0  0  0
 24 25  1  0  0  0  0
 24 23  1  0  0  0  0
 25 21  1  1  0  0  0
 25 22  1  0  0  0  0
 27 26  1  0  0  0  0
 28 32  1  1  0  0  0
 30 29  1  0  0  0  0
 31 28  1  6  0  0  0
 31 30  1  0  0  0  0
 31 29  1  0  0  0  0
 32 33  1  0  0  0  0
 34 49  1  6  0  0  0
 34 35  1  0  0  0  0
 34 39  1  0  0  0  0
 35 36  1  0  0  0  0
 36 33  1  0  0  0  0
 36 37  2  0  0  0  0
 37 44  1  0  0  0  0
 38 37  1  0  0  0  0
 39 38  1  0  0  0  0
 40 42  1  0  0  0  0
 41 43  1  0  0  0  0
 42 43  2  0  0  0  0
 44 45  1  0  0  0  0
 44 40  2  0  0  0  0
 45 41  2  0  0  0  0
 47 40  1  0  0  0  0
 47 46  1  0  0  0  0
 48 49  1  0  0  0  0
M  END
>  <MODEL>
4

>  <REMARK>
 VINA RESULT:      -7.7      3.144      6.719
  Name = 
  17 active torsions:
  status: ('A' for Active; 'I' for Inactive)
    1  A    between atoms: C_3  and  C_20
    2  A    between atoms: C_3  and  C_43
    3  A    between atoms: C_4  and  C_31
    4  A    between atoms: C_5  and  C_23
    5  A    between atoms: C_9  and  C_19
    6  A    between atoms: C_9  and  C_37
    7  A    between atoms: C_11  and  C_20
    8  A    between atoms: C_11  and  C_35
    9  A    between atoms: C_14  and  O_44
   10  A    between atoms: C_21  and  C_25
   11  A    between atoms: C_21  and  C_37
   12  A    between atoms: C_21  and  C_40
   13  A    between atoms: C_22  and  C_34
   14  A    between atoms: C_23  and  C_45
   15  A    between atoms: C_30  and  C_45
   16  A    between atoms: C_35  and  C_47
   17  A    between atoms: C_36  and  C_45
                            x       y       z     vdW  Elec       q    Type
                         _______ _______ _______ _____ _____    ______ ____

>  <TORSDO>
F 17

$$$$
=
 OpenBabel11062411003D

 49 55  0  0  1  0  0  0  0  0999 V2000
  184.8790  178.6260  142.7950 C   0  0  0  0  0  0  0  0  0  0  0  0
  183.9540  178.1060  141.9090 C   0  0  0  0  0  3  0  0  0  0  0  0
  184.2120  178.8440  140.7630 C   0  0  0  0  0  0  0  0  0  0  0  0
  185.1970  179.6810  140.9840 O   0  0  0  0  0  0  0  0  0  0  0  0
  185.6350  179.5690  142.2020 N   0  0  0  0  0  0  0  0  0  0  0  0
  185.1160  178.0900  144.1710 C   0  0  0  0  0  2  0  0  0  0  0  0
  186.4900  178.4900  144.7210 C   0  0  2  0  0  3  0  0  0  0  0  0
  189.4080  178.0060  146.0400 O   0  0  0  0  0  0  0  0  0  0  0  0
  189.5260  176.3030  143.4560 C   0  0  0  0  0  2  0  0  0  0  0  0
  189.5610  178.4890  144.7270 C   0  0  2  0  0  3  0  0  0  0  0  0
  190.9650  176.5600  143.0190 C   0  0  0  0  0  2  0  0  0  0  0  0
  191.7030  177.2910  144.1230 C   0  0  0  0  0  2  0  0  0  0  0  0
  187.5350  177.3270  144.6850 C   0  0  2  0  0  0  0  0  0  0  0  0
  186.8470  175.9930  144.3860 C   0  0  0  0  0  1  0  0  0  0  0  0
  188.2250  177.2360  146.0440 C   0  0  0  0  0  2  0  0  0  0  0  0
  188.7480  177.6100  143.7770 C   0  0  2  0  0  0  0  0  0  0  0  0
  191.0410  178.6410  144.3560 C   0  0  0  0  0  2  0  0  0  0  0  0
  188.4360  178.3990  142.4890 C   0  0  0  0  0  2  0  0  0  0  0  0
  188.2150  177.5110  141.2650 C   0  0  0  0  0  2  0  0  0  0  0  0
  188.4780  178.2720  139.9730 C   0  0  0  0  0  2  0  0  0  0  0  0
  189.0850  177.3640  138.9080 C   0  0  0  0  0  2  0  0  0  0  0  0
  190.6610  175.5430  138.5010 N   0  0  0  0  0  2  0  0  0  0  0  0
  191.9490  176.2230  138.5010 C   0  0  0  0  0  2  0  0  0  0  0  0
  191.5040  177.2420  139.5200 C   0  0  0  0  0  2  0  0  0  0  0  0
  190.1920  176.4940  139.4980 C   0  0  1  0  0  3  0  0  0  0  0  0
  186.3340  179.1530  146.0950 C   0  0  0  0  0  2  0  0  0  0  0  0
  185.0310  179.0030  146.5810 O   0  0  0  0  0  1  0  0  0  0  0  0
  183.5240  178.7050  139.4370 C   0  0  1  0  0  3  0  0  0  0  0  0
  181.8880  179.6790  137.9000 C   0  0  0  0  0  2  0  0  0  0  0  0
  181.1420  179.0290  138.9870 N   0  0  0  0  0  2  0  0  0  0  0  0
  182.4050  179.7310  139.2640 C   0  0  1  0  0  3  0  0  0  0  0  0
  184.4980  178.7080  138.2580 C   0  0  0  0  0  2  0  0  0  0  0  0
  185.3160  177.4210  138.1780 C   0  0  0  0  0  2  0  0  0  0  0  0
  182.3490  175.5570  136.6440 C   0  0  1  0  0  3  0  0  0  0  0  0
  183.1970  176.0200  137.8290 C   0  0  0  0  0  2  0  0  0  0  0  0
  184.5860  176.3850  137.3820 C   0  0  1  0  0  3  0  0  0  0  0  0
  185.1050  175.8230  136.2690 C   0  0  0  0  0  0  0  0  0  0  0  0
  184.2700  174.9570  135.4800 N   0  0  0  0  0  0  0  0  0  0  0  0
  183.0400  174.4690  135.9620 N   0  0  0  0  0  2  0  0  0  0  0  0
  187.5610  175.3070  136.0700 C   0  0  0  0  0  0  0  0  0  0  0  0
  187.9530  177.6620  134.5940 C   0  0  0  0  0  3  0  0  0  0  0  0
  188.8450  175.6670  135.6260 C   0  0  0  0  0  3  0  0  0  0  0  0
  189.0380  176.8370  134.8920 C   0  0  0  0  0  3  0  0  0  0  0  0
  186.4620  176.1390  135.7660 C   0  0  0  0  0  0  0  0  0  0  0  0
  186.6750  177.3160  135.0320 C   0  0  0  0  0  3  0  0  0  0  0  0
  188.2840  173.0500  136.7900 C   0  0  0  0  0  1  0  0  0  0  0  0
  187.3590  174.1280  136.7960 O   0  0  0  0  0  0  0  0  0  0  0  0
  181.1270  173.8690  137.8200 O   0  0  0  0  0  1  0  0  0  0  0  0
  180.9920  175.0710  137.1240 C   0  0  0  0  0  2  0  0  0  0  0  0
  1  6  1  0  0  0  0
  2  1  1  0  0  0  0
  3  4  1  0  0  0  0
  3  2  2  0  0  0  0
  4  5  1  0  0  0  0
  5  1  2  0  0  0  0
  7  6  1  1  0  0  0
  7 26  1  0  0  0  0
  8 15  1  0  0  0  0
  9 16  1  0  0  0  0
 10 17  1  6  0  0  0
 10  8  1  0  0  0  0
 11  9  1  0  0  0  0
 11 12  1  0  0  0  0
 12 17  1  0  0  0  0
 13 14  1  6  0  0  0
 13  7  1  0  0  0  0
 13 15  1  0  0  0  0
 16 18  1  6  0  0  0
 16 13  1  0  0  0  0
 16 10  1  0  0  0  0
 19 18  1  0  0  0  0
 20 19  1  0  0  0  0
 21 20  1  0  0  0  0
 22 23  1  0  0  0  0
 22 25  1  0  0  0  0
 23 24  1  0  0  0  0
 25 21  1  6  0  0  0
 25 24  1  0  0  0  0
 26 27  1  0  0  0  0
 28 32  1  6  0  0  0
 28  3  1  0  0  0  0
 29 30  1  0  0  0  0
 29 31  1  0  0  0  0
 30 31  1  0  0  0  0
 31 28  1  6  0  0  0
 33 32  1  0  0  0  0
 34 49  1  1  0  0  0
 34 35  1  0  0  0  0
 36 35  1  0  0  0  0
 36 33  1  6  0  0  0
 37 36  1  0  0  0  0
 38 39  1  0  0  0  0
 38 37  2  0  0  0  0
 39 34  1  0  0  0  0
 40 47  1  0  0  0  0
 41 43  2  0  0  0  0
 41 45  1  0  0  0  0
 42 40  2  0  0  0  0
 43 42  1  0  0  0  0
 44 40  1  0  0  0  0
 44 37  1  0  0  0  0
 45 44  2  0  0  0  0
 46 47  1  0  0  0  0
 49 48  1  0  0  0  0
M  END
>  <MODEL>
5

>  <REMARK>
 VINA RESULT:      -7.4      3.156      8.881
  Name = 
  17 active torsions:
  status: ('A' for Active; 'I' for Inactive)
    1  A    between atoms: C_3  and  C_20
    2  A    between atoms: C_3  and  C_43
    3  A    between atoms: C_4  and  C_31
    4  A    between atoms: C_5  and  C_23
    5  A    between atoms: C_9  and  C_19
    6  A    between atoms: C_9  and  C_37
    7  A    between atoms: C_11  and  C_20
    8  A    between atoms: C_11  and  C_35
    9  A    between atoms: C_14  and  O_44
   10  A    between atoms: C_21  and  C_25
   11  A    between atoms: C_21  and  C_37
   12  A    between atoms: C_21  and  C_40
   13  A    between atoms: C_22  and  C_34
   14  A    between atoms: C_23  and  C_45
   15  A    between atoms: C_30  and  C_45
   16  A    between atoms: C_35  and  C_47
   17  A    between atoms: C_36  and  C_45
                            x       y       z     vdW  Elec       q    Type
                         _______ _______ _______ _____ _____    ______ ____

>  <TORSDO>
F 17

$$$$
=
 OpenBabel11062411003D

 49 55  0  0  1  0  0  0  0  0999 V2000
  184.9930  178.4870  142.1770 C   0  0  0  0  0  0  0  0  0  0  0  0
  184.6720  177.7110  141.0800 C   0  0  0  0  0  3  0  0  0  0  0  0
  184.8420  178.6080  140.0360 C   0  0  0  0  0  0  0  0  0  0  0  0
  185.2360  179.7680  140.5050 O   0  0  0  0  0  0  0  0  0  0  0  0
  185.3510  179.7290  141.7990 N   0  0  0  0  0  0  0  0  0  0  0  0
  185.0920  177.9650  143.5740 C   0  0  0  0  0  2  0  0  0  0  0  0
  186.3770  178.4210  144.2750 C   0  0  2  0  0  3  0  0  0  0  0  0
  189.2950  178.1630  145.6570 O   0  0  0  0  0  0  0  0  0  0  0  0
  189.5780  176.4190  143.1130 C   0  0  0  0  0  2  0  0  0  0  0  0
  189.4400  178.6280  144.3370 C   0  0  2  0  0  3  0  0  0  0  0  0
  191.0040  176.7640  142.6970 C   0  0  0  0  0  2  0  0  0  0  0  0
  191.6690  177.5670  143.7980 C   0  0  0  0  0  2  0  0  0  0  0  0
  187.4990  177.3310  144.2840 C   0  0  2  0  0  0  0  0  0  0  0  0
  186.9080  175.9470  144.0010 C   0  0  0  0  0  1  0  0  0  0  0  0
  188.1660  177.3140  145.6570 C   0  0  0  0  0  2  0  0  0  0  0  0
  188.7070  177.6760  143.3920 C   0  0  2  0  0  0  0  0  0  0  0  0
  190.9130  178.8730  143.9900 C   0  0  0  0  0  2  0  0  0  0  0  0
  188.3680  178.4160  142.0810 C   0  0  0  0  0  2  0  0  0  0  0  0
  188.4280  177.5250  140.8420 C   0  0  0  0  0  2  0  0  0  0  0  0
  189.0610  178.2530  139.6640 C   0  0  0  0  0  2  0  0  0  0  0  0
  190.0880  177.3760  138.9550 C   0  0  0  0  0  2  0  0  0  0  0  0
  189.4640  176.9700  136.6290 N   0  0  0  0  0  2  0  0  0  0  0  0
  190.3350  175.8660  136.2470 C   0  0  0  0  0  2  0  0  0  0  0  0
  190.3210  175.2690  137.6320 C   0  0  0  0  0  2  0  0  0  0  0  0
  189.4080  176.4220  137.9760 C   0  0  1  0  0  3  0  0  0  0  0  0
  186.0470  178.9930  145.6590 C   0  0  0  0  0  2  0  0  0  0  0  0
  184.6660  179.0060  145.8820 O   0  0  0  0  0  1  0  0  0  0  0  0
  184.6580  178.3250  138.5740 C   0  0  1  0  0  3  0  0  0  0  0  0
  185.3950  176.6160  136.9850 C   0  0  0  0  0  2  0  0  0  0  0  0
  185.9660  177.9000  136.5510 N   0  0  0  0  0  2  0  0  0  0  0  0
  185.8530  177.5780  137.9830 C   0  0  1  0  0  3  0  0  0  0  0  0
  183.3320  177.6300  138.2650 C   0  0  0  0  0  2  0  0  0  0  0  0
  182.1860  178.1580  139.1260 C   0  0  0  0  0  2  0  0  0  0  0  0
  180.4270  174.7730  138.8420 C   0  0  1  0  0  3  0  0  0  0  0  0
  181.1460  175.9860  138.2480 C   0  0  0  0  0  2  0  0  0  0  0  0
  181.0710  177.1620  139.1810 C   0  0  0  0  0  0  0  0  0  0  0  0
  180.0520  177.2590  140.0630 C   0  0  0  0  0  0  0  0  0  0  0  0
  179.1130  176.1740  140.1520 N   0  0  0  0  0  2  0  0  0  0  0  0
  179.0610  175.1530  139.1830 N   0  0  0  0  0  2  0  0  0  0  0  0
  179.3950  179.6290  140.5990 C   0  0  0  0  0  0  0  0  0  0  0  0
  180.3060  179.3030  143.2340 C   0  0  0  0  0  3  0  0  0  0  0  0
  179.3350  180.6940  141.5140 C   0  0  0  0  0  3  0  0  0  0  0  0
  179.7870  180.5310  142.8230 C   0  0  0  0  0  3  0  0  0  0  0  0
  179.9170  178.3850  141.0150 C   0  0  0  0  0  0  0  0  0  0  0  0
  180.3740  178.2390  142.3340 C   0  0  0  0  0  3  0  0  0  0  0  0
  179.6340  180.5320  138.3040 C   0  0  0  0  0  1  0  0  0  0  0  0
  178.9320  179.7840  139.2870 O   0  0  0  0  0  0  0  0  0  0  0  0
  179.1190  173.4920  137.3010 O   0  0  0  0  0  1  0  0  0  0  0  0
  180.3990  173.6330  137.8390 C   0  0  0  0  0  2  0  0  0  0  0  0
  1  6  1  0  0  0  0
  2  1  1  0  0  0  0
  3  4  1  0  0  0  0
  3  2  2  0  0  0  0
  4  5  1  0  0  0  0
  5  1  2  0  0  0  0
  7  6  1  1  0  0  0
  7 13  1  0  0  0  0
  7 26  1  0  0  0  0
  9 16  1  0  0  0  0
 10 17  1  6  0  0  0
 10  8  1  0  0  0  0
 11  9  1  0  0  0  0
 11 12  1  0  0  0  0
 12 17  1  0  0  0  0
 13 14  1  6  0  0  0
 13 15  1  0  0  0  0
 15  8  1  0  0  0  0
 16 18  1  6  0  0  0
 16 13  1  0  0  0  0
 16 10  1  0  0  0  0
 19 18  1  0  0  0  0
 20 19  1  0  0  0  0
 21 20  1  0  0  0  0
 22 25  1  0  0  0  0
 23 22  1  0  0  0  0
 23 24  1  0  0  0  0
 24 25  1  0  0  0  0
 25 21  1  1  0  0  0
 26 27  1  0  0  0  0
 28 32  1  1  0  0  0
 28  3  1  0  0  0  0
 29 31  1  0  0  0  0
 30 29  1  0  0  0  0
 30 31  1  0  0  0  0
 31 28  1  1  0  0  0
 32 33  1  0  0  0  0
 33 36  1  0  0  0  0
 34 49  1  6  0  0  0
 34 39  1  0  0  0  0
 35 34  1  0  0  0  0
 35 36  1  0  0  0  0
 36 37  2  0  0  0  0
 37 38  1  0  0  0  0
 37 44  1  0  0  0  0
 39 38  1  0  0  0  0
 40 44  2  0  0  0  0
 40 42  1  0  0  0  0
 42 43  2  0  0  0  0
 43 41  1  0  0  0  0
 44 45  1  0  0  0  0
 45 41  2  0  0  0  0
 46 47  1  0  0  0  0
 47 40  1  0  0  0  0
 48 49  1  0  0  0  0
M  END
>  <MODEL>
6

>  <REMARK>
 VINA RESULT:      -7.1      3.663      8.217
  Name = 
  17 active torsions:
  status: ('A' for Active; 'I' for Inactive)
    1  A    between atoms: C_3  and  C_20
    2  A    between atoms: C_3  and  C_43
    3  A    between atoms: C_4  and  C_31
    4  A    between atoms: C_5  and  C_23
    5  A    between atoms: C_9  and  C_19
    6  A    between atoms: C_9  and  C_37
    7  A    between atoms: C_11  and  C_20
    8  A    between atoms: C_11  and  C_35
    9  A    between atoms: C_14  and  O_44
   10  A    between atoms: C_21  and  C_25
   11  A    between atoms: C_21  and  C_37
   12  A    between atoms: C_21  and  C_40
   13  A    between atoms: C_22  and  C_34
   14  A    between atoms: C_23  and  C_45
   15  A    between atoms: C_30  and  C_45
   16  A    between atoms: C_35  and  C_47
   17  A    between atoms: C_36  and  C_45
                            x       y       z     vdW  Elec       q    Type
                         _______ _______ _______ _____ _____    ______ ____

>  <TORSDO>
F 17

$$$$
=
 OpenBabel11062411003D

 49 55  0  0  1  0  0  0  0  0999 V2000
  184.9180  178.3950  142.2010 C   0  0  0  0  0  0  0  0  0  0  0  0
  184.4330  177.7130  141.1020 C   0  0  0  0  0  3  0  0  0  0  0  0
  184.5760  178.6570  140.0950 C   0  0  0  0  0  0  0  0  0  0  0  0
  185.1050  179.7530  140.5840 O   0  0  0  0  0  0  0  0  0  0  0  0
  185.3390  179.6270  141.8560 N   0  0  0  0  0  0  0  0  0  0  0  0
  185.1070  177.7830  143.5530 C   0  0  0  0  0  2  0  0  0  0  0  0
  186.3000  178.3880  144.3030 C   0  0  2  0  0  3  0  0  0  0  0  0
  189.3460  178.5720  145.3860 O   0  0  0  0  0  0  0  0  0  0  0  0
  189.3480  175.9360  143.7600 C   0  0  0  0  0  2  0  0  0  0  0  0
  189.3530  178.4550  143.9840 C   0  0  2  0  0  3  0  0  0  0  0  0
  190.7230  176.0130  143.1070 C   0  0  0  0  0  2  0  0  0  0  0  0
  191.5060  177.1600  143.7160 C   0  0  0  0  0  2  0  0  0  0  0  0
  187.4100  177.3430  144.6490 C   0  0  2  0  0  0  0  0  0  0  0  0
  186.7850  175.9930  145.0130 C   0  0  0  0  0  1  0  0  0  0  0  0
  188.2190  177.8520  145.8390 C   0  0  0  0  0  2  0  0  0  0  0  0
  188.5180  177.2380  143.5840 C   0  0  2  0  0  0  0  0  0  0  0  0
  190.7820  178.4670  143.4290 C   0  0  0  0  0  2  0  0  0  0  0  0
  188.0460  177.3990  142.1240 C   0  0  0  0  0  2  0  0  0  0  0  0
  188.5950  178.6490  141.4370 C   0  0  0  0  0  2  0  0  0  0  0  0
  188.3050  178.6330  139.9420 C   0  0  0  0  0  2  0  0  0  0  0  0
  188.6480  177.2820  139.3240 C   0  0  0  0  0  2  0  0  0  0  0  0
  190.9400  176.4390  139.2570 N   0  0  0  0  0  2  0  0  0  0  0  0
  190.9500  175.6210  138.0520 C   0  0  0  0  0  2  0  0  0  0  0  0
  189.9590  176.5090  137.3420 C   0  0  0  0  0  2  0  0  0  0  0  0
  189.9950  177.3350  138.6070 C   0  0  1  0  0  3  0  0  0  0  0  0
  185.8060  179.2020  145.5050 C   0  0  0  0  0  2  0  0  0  0  0  0
  184.4120  179.3160  145.4980 O   0  0  0  0  0  1  0  0  0  0  0  0
  184.2310  178.4770  138.6460 C   0  0  1  0  0  3  0  0  0  0  0  0
  184.0000  176.7970  136.8820 C   0  0  0  0  0  2  0  0  0  0  0  0
  185.3620  177.3440  136.7970 N   0  0  0  0  0  2  0  0  0  0  0  0
  184.7220  177.1350  138.1050 C   0  0  1  0  0  3  0  0  0  0  0  0
  182.7490  178.7120  138.3530 C   0  0  0  0  0  2  0  0  0  0  0  0
  182.3920  180.1960  138.3230 C   0  0  0  0  0  2  0  0  0  0  0  0
  180.1520  180.2780  141.4230 C   0  0  1  0  0  3  0  0  0  0  0  0
  180.9230  179.5480  140.3220 C   0  0  0  0  0  2  0  0  0  0  0  0
  181.1730  180.4590  139.1520 C   0  0  0  0  0  0  0  0  0  0  0  0
  180.3440  181.4980  138.9170 C   0  0  0  0  0  0  0  0  0  0  0  0
  179.2900  181.7650  139.8590 N   0  0  0  0  0  2  0  0  0  0  0  0
  178.9310  180.8390  140.8560 N   0  0  0  0  0  2  0  0  0  0  0  0
  180.0130  182.1500  136.5080 C   0  0  0  0  0  0  0  0  0  0  0  0
  181.5290  184.4770  136.9110 C   0  0  0  0  0  3  0  0  0  0  0  0
  180.2600  183.0350  135.4450 C   0  0  0  0  0  3  0  0  0  0  0  0
  181.0130  184.1920  135.6470 C   0  0  0  0  0  3  0  0  0  0  0  0
  180.5320  182.4390  137.7880 C   0  0  0  0  0  0  0  0  0  0  0  0
  181.2940  183.6030  137.9730 C   0  0  0  0  0  3  0  0  0  0  0  0
  179.7470  179.8390  135.6530 C   0  0  0  0  0  1  0  0  0  0  0  0
  179.2470  180.9940  136.3140 O   0  0  0  0  0  0  0  0  0  0  0  0
  179.4740  180.0230  143.7040 O   0  0  0  0  0  1  0  0  0  0  0  0
  179.7950  179.3160  142.5430 C   0  0  0  0  0  2  0  0  0  0  0  0
  1  6  1  0  0  0  0
  2  1  1  0  0  0  0
  3  4  1  0  0  0  0
  3  2  2  0  0  0  0
  4  5  1  0  0  0  0
  5  1  2  0  0  0  0
  7  6  1  1  0  0  0
  7 13  1  0  0  0  0
  7 26  1  0  0  0  0
  8 15  1  0  0  0  0
 10 17  1  1  0  0  0
 10  8  1  0  0  0  0
 11 12  1  0  0  0  0
 11  9  1  0  0  0  0
 13 14  1  1  0  0  0
 13 15  1  0  0  0  0
 16 18  1  6  0  0  0
 16  9  1  0  0  0  0
 16 10  1  0  0  0  0
 16 13  1  0  0  0  0
 17 12  1  0  0  0  0
 19 18  1  0  0  0  0
 20 19  1  0  0  0  0
 21 20  1  0  0  0  0
 23 22  1  0  0  0  0
 24 23  1  0  0  0  0
 24 25  1  0  0  0  0
 25 22  1  0  0  0  0
 25 21  1  1  0  0  0
 27 26  1  0  0  0  0
 28 32  1  1  0  0  0
 28  3  1  0  0  0  0
 29 31  1  0  0  0  0
 30 29  1  0  0  0  0
 30 31  1  0  0  0  0
 31 28  1  6  0  0  0
 33 32  1  0  0  0  0
 33 36  1  0  0  0  0
 34 49  1  1  0  0  0
 35 34  1  0  0  0  0
 36 35  1  0  0  0  0
 37 36  2  0  0  0  0
 37 38  1  0  0  0  0
 38 39  1  0  0  0  0
 39 34  1  0  0  0  0
 40 44  1  0  0  0  0
 41 45  1  0  0  0  0
 42 43  1  0  0  0  0
 42 40  2  0  0  0  0
 43 41  2  0  0  0  0
 44 45  2  0  0  0  0
 44 37  1  0  0  0  0
 46 47  1  0  0  0  0
 47 40  1  0  0  0  0
 49 48  1  0  0  0  0
M  END
>  <MODEL>
7

>  <REMARK>
 VINA RESULT:      -6.9      4.069      8.330
  Name = 
  17 active torsions:
  status: ('A' for Active; 'I' for Inactive)
    1  A    between atoms: C_3  and  C_20
    2  A    between atoms: C_3  and  C_43
    3  A    between atoms: C_4  and  C_31
    4  A    between atoms: C_5  and  C_23
    5  A    between atoms: C_9  and  C_19
    6  A    between atoms: C_9  and  C_37
    7  A    between atoms: C_11  and  C_20
    8  A    between atoms: C_11  and  C_35
    9  A    between atoms: C_14  and  O_44
   10  A    between atoms: C_21  and  C_25
   11  A    between atoms: C_21  and  C_37
   12  A    between atoms: C_21  and  C_40
   13  A    between atoms: C_22  and  C_34
   14  A    between atoms: C_23  and  C_45
   15  A    between atoms: C_30  and  C_45
   16  A    between atoms: C_35  and  C_47
   17  A    between atoms: C_36  and  C_45
                            x       y       z     vdW  Elec       q    Type
                         _______ _______ _______ _____ _____    ______ ____

>  <TORSDO>
F 17

$$$$
=
 OpenBabel11062411003D

 49 55  0  0  1  0  0  0  0  0999 V2000
  187.7140  178.6280  140.6050 C   0  0  0  0  0  0  0  0  0  0  0  0
  188.0650  178.1480  139.3580 C   0  0  0  0  0  3  0  0  0  0  0  0
  186.8360  178.1020  138.7150 C   0  0  0  0  0  0  0  0  0  0  0  0
  185.8950  178.5330  139.5200 O   0  0  0  0  0  0  0  0  0  0  0  0
  186.3920  178.8730  140.6730 N   0  0  0  0  0  0  0  0  0  0  0  0
  188.6980  178.9880  141.6730 C   0  0  0  0  0  2  0  0  0  0  0  0
  189.6520  177.8320  141.9960 C   0  0  2  0  0  3  0  0  0  0  0  0
  192.2790  176.4100  143.2480 O   0  0  0  0  0  0  0  0  0  0  0  0
  190.9760  177.7520  145.7170 C   0  0  0  0  0  2  0  0  0  0  0  0
  191.1330  175.9660  143.9330 C   0  0  2  0  0  3  0  0  0  0  0  0
  191.2240  176.6850  146.7770 C   0  0  0  0  0  2  0  0  0  0  0  0
  192.1580  175.6290  146.2180 C   0  0  0  0  0  2  0  0  0  0  0  0
  190.5830  178.1210  143.2200 C   0  0  2  0  0  0  0  0  0  0  0  0
  190.5410  179.6060  143.5910 C   0  0  0  0  0  1  0  0  0  0  0  0
  192.0160  177.7410  142.8560 C   0  0  0  0  0  2  0  0  0  0  0  0
  190.3420  177.1810  144.4180 C   0  0  2  0  0  0  0  0  0  0  0  0
  191.4930  174.9540  145.0280 C   0  0  0  0  0  2  0  0  0  0  0  0
  188.8720  176.7760  144.6520 C   0  0  0  0  0  2  0  0  0  0  0  0
  188.1020  177.7510  145.5420 C   0  0  0  0  0  2  0  0  0  0  0  0
  186.6020  177.5050  145.4660 C   0  0  0  0  0  2  0  0  0  0  0  0
  186.0470  177.8770  144.0950 C   0  0  0  0  0  2  0  0  0  0  0  0
  184.0480  178.9800  143.2270 N   0  0  0  0  0  2  0  0  0  0  0  0
  183.1150  178.8830  144.3420 C   0  0  0  0  0  2  0  0  0  0  0  0
  184.2100  178.9850  145.3740 C   0  0  0  0  0  2  0  0  0  0  0  0
  185.1360  179.0980  144.1860 C   0  0  1  0  0  3  0  0  0  0  0  0
  190.3980  177.3960  140.7290 C   0  0  0  0  0  2  0  0  0  0  0  0
  190.2970  176.0150  140.5350 O   0  0  0  0  0  1  0  0  0  0  0  0
  186.5840  177.6760  137.2980 C   0  0  1  0  0  3  0  0  0  0  0  0
  187.5250  176.6310  135.2950 C   0  0  0  0  0  2  0  0  0  0  0  0
  188.3380  177.8190  135.5990 N   0  0  0  0  0  2  0  0  0  0  0  0
  187.8000  176.9840  136.6850 C   0  0  1  0  0  3  0  0  0  0  0  0
  185.3090  176.8470  137.1450 C   0  0  0  0  0  2  0  0  0  0  0  0
  184.1120  177.6960  136.7240 C   0  0  0  0  0  2  0  0  0  0  0  0
  181.8350  174.7180  137.4870 C   0  0  1  0  0  3  0  0  0  0  0  0
  182.9350  175.4190  136.6880 C   0  0  0  0  0  2  0  0  0  0  0  0
  182.8430  176.9110  136.8470 C   0  0  0  0  0  0  0  0  0  0  0  0
  181.6580  177.4860  137.1450 C   0  0  0  0  0  0  0  0  0  0  0  0
  180.5250  176.6370  137.4000 N   0  0  0  0  0  2  0  0  0  0  0  0
  180.5410  175.2630  137.0930 N   0  0  0  0  0  2  0  0  0  0  0  0
  181.7510  179.5600  138.5680 C   0  0  0  0  0  0  0  0  0  0  0  0
  180.8010  181.0970  136.4210 C   0  0  0  0  0  3  0  0  0  0  0  0
  181.5290  180.9400  138.7190 C   0  0  0  0  0  3  0  0  0  0  0  0
  181.0580  181.7020  137.6510 C   0  0  0  0  0  3  0  0  0  0  0  0
  181.4940  178.9470  137.3230 C   0  0  0  0  0  0  0  0  0  0  0  0
  181.0140  179.7280  136.2600 C   0  0  0  0  0  3  0  0  0  0  0  0
  181.4410  178.4470  140.7600 C   0  0  0  0  0  1  0  0  0  0  0  0
  182.2350  178.7920  139.6340 O   0  0  0  0  0  0  0  0  0  0  0  0
  180.7220  172.8440  136.5010 O   0  0  0  0  0  1  0  0  0  0  0  0
  181.8580  173.2240  137.2190 C   0  0  0  0  0  2  0  0  0  0  0  0
  1  5  2  0  0  0  0
  1  6  1  0  0  0  0
  2  1  1  0  0  0  0
  3  2  2  0  0  0  0
  3  4  1  0  0  0  0
  4  5  1  0  0  0  0
  6  7  1  0  0  0  0
  7 26  1  6  0  0  0
  7 13  1  0  0  0  0
  8 10  1  0  0  0  0
  9 11  1  0  0  0  0
 10 16  1  0  0  0  0
 10 17  1  1  0  0  0
 12 11  1  0  0  0  0
 13 14  1  1  0  0  0
 13 16  1  0  0  0  0
 15 13  1  0  0  0  0
 15  8  1  0  0  0  0
 16 18  1  1  0  0  0
 16  9  1  0  0  0  0
 17 12  1  0  0  0  0
 18 19  1  0  0  0  0
 20 19  1  0  0  0  0
 21 20  1  0  0  0  0
 22 25  1  0  0  0  0
 22 23  1  0  0  0  0
 23 24  1  0  0  0  0
 25 21  1  6  0  0  0
 25 24  1  0  0  0  0
 27 26  1  0  0  0  0
 28 32  1  1  0  0  0
 28  3  1  0  0  0  0
 29 30  1  0  0  0  0
 29 31  1  0  0  0  0
 30 31  1  0  0  0  0
 31 28  1  1  0  0  0
 33 36  1  0  0  0  0
 33 32  1  0  0  0  0
 34 49  1  6  0  0  0
 35 36  1  0  0  0  0
 35 34  1  0  0  0  0
 36 37  2  0  0  0  0
 37 44  1  0  0  0  0
 37 38  1  0  0  0  0
 39 38  1  0  0  0  0
 39 34  1  0  0  0  0
 40 42  1  0  0  0  0
 40 47  1  0  0  0  0
 41 43  1  0  0  0  0
 43 42  2  0  0  0  0
 44 40  2  0  0  0  0
 45 41  2  0  0  0  0
 45 44  1  0  0  0  0
 47 46  1  0  0  0  0
 48 49  1  0  0  0  0
M  END
>  <MODEL>
8

>  <REMARK>
 VINA RESULT:      -6.9      3.744      9.145
  Name = 
  17 active torsions:
  status: ('A' for Active; 'I' for Inactive)
    1  A    between atoms: C_3  and  C_20
    2  A    between atoms: C_3  and  C_43
    3  A    between atoms: C_4  and  C_31
    4  A    between atoms: C_5  and  C_23
    5  A    between atoms: C_9  and  C_19
    6  A    between atoms: C_9  and  C_37
    7  A    between atoms: C_11  and  C_20
    8  A    between atoms: C_11  and  C_35
    9  A    between atoms: C_14  and  O_44
   10  A    between atoms: C_21  and  C_25
   11  A    between atoms: C_21  and  C_37
   12  A    between atoms: C_21  and  C_40
   13  A    between atoms: C_22  and  C_34
   14  A    between atoms: C_23  and  C_45
   15  A    between atoms: C_30  and  C_45
   16  A    between atoms: C_35  and  C_47
   17  A    between atoms: C_36  and  C_45
                            x       y       z     vdW  Elec       q    Type
                         _______ _______ _______ _____ _____    ______ ____

>  <TORSDO>
F 17

$$$$
=
 OpenBabel11062411003D

 49 55  0  0  1  0  0  0  0  0999 V2000
  185.0830  178.4300  142.0300 C   0  0  0  0  0  0  0  0  0  0  0  0
  184.9680  177.6330  140.9080 C   0  0  0  0  0  3  0  0  0  0  0  0
  185.0910  178.5610  139.8840 C   0  0  0  0  0  0  0  0  0  0  0  0
  185.2750  179.7580  140.3880 O   0  0  0  0  0  0  0  0  0  0  0  0
  185.2880  179.7160  141.6870 N   0  0  0  0  0  0  0  0  0  0  0  0
  185.1430  177.9060  143.4290 C   0  0  0  0  0  2  0  0  0  0  0  0
  186.3860  178.3970  144.1810 C   0  0  2  0  0  3  0  0  0  0  0  0
  189.2270  178.2190  145.7260 O   0  0  0  0  0  0  0  0  0  0  0  0
  189.6310  176.3170  143.3150 C   0  0  0  0  0  2  0  0  0  0  0  0
  189.4430  178.6000  144.3880 C   0  0  2  0  0  3  0  0  0  0  0  0
  191.0780  176.6310  142.9520 C   0  0  0  0  0  2  0  0  0  0  0  0
  191.6910  177.5000  144.0340 C   0  0  0  0  0  2  0  0  0  0  0  0
  187.4990  177.3070  144.3170 C   0  0  2  0  0  0  0  0  0  0  0  0
  186.9160  175.9090  144.0910 C   0  0  0  0  0  1  0  0  0  0  0  0
  188.0950  177.3750  145.7200 C   0  0  0  0  0  2  0  0  0  0  0  0
  188.7540  177.5920  143.4680 C   0  0  2  0  0  0  0  0  0  0  0  0
  190.9340  178.8180  144.1030 C   0  0  0  0  0  2  0  0  0  0  0  0
  188.4870  178.2480  142.0980 C   0  0  0  0  0  2  0  0  0  0  0  0
  188.7300  177.3130  140.9140 C   0  0  0  0  0  2  0  0  0  0  0  0
  189.7520  177.8950  139.9470 C   0  0  0  0  0  2  0  0  0  0  0  0
  189.8500  177.0600  138.6740 C   0  0  0  0  0  2  0  0  0  0  0  0
  190.6130  174.8450  137.9830 N   0  0  0  0  0  2  0  0  0  0  0  0
  191.7570  175.1470  137.1330 C   0  0  0  0  0  2  0  0  0  0  0  0
  192.1340  176.3680  137.9340 C   0  0  0  0  0  2  0  0  0  0  0  0
  190.9470  176.0060  138.7950 C   0  0  1  0  0  3  0  0  0  0  0  0
  185.9760  179.0450  145.5090 C   0  0  0  0  0  2  0  0  0  0  0  0
  184.6200  178.8320  145.7760 O   0  0  0  0  0  1  0  0  0  0  0  0
  185.0700  178.2760  138.4110 C   0  0  1  0  0  3  0  0  0  0  0  0
  186.4240  177.7430  136.4440 C   0  0  0  0  0  2  0  0  0  0  0  0
  187.0700  178.8700  137.1340 N   0  0  0  0  0  2  0  0  0  0  0  0
  186.4270  177.7930  137.9040 C   0  0  1  0  0  3  0  0  0  0  0  0
  183.9330  177.3390  138.0030 C   0  0  0  0  0  2  0  0  0  0  0  0
  183.0040  177.9710  136.9690 C   0  0  0  0  0  2  0  0  0  0  0  0
  180.2560  175.4370  137.7810 C   0  0  1  0  0  3  0  0  0  0  0  0
  181.4650  175.9210  136.9780 C   0  0  0  0  0  2  0  0  0  0  0  0
  181.6210  177.4120  137.0950 C   0  0  0  0  0  0  0  0  0  0  0  0
  180.5460  178.1840  137.3600 C   0  0  0  0  0  0  0  0  0  0  0  0
  179.2850  177.5430  137.6220 N   0  0  0  0  0  2  0  0  0  0  0  0
  179.0750  176.1770  137.3530 N   0  0  0  0  0  2  0  0  0  0  0  0
  180.8390  180.2600  138.7530 C   0  0  0  0  0  0  0  0  0  0  0  0
  180.4390  181.8610  136.4820 C   0  0  0  0  0  3  0  0  0  0  0  0
  180.8510  181.6610  138.8550 C   0  0  0  0  0  3  0  0  0  0  0  0
  180.6530  182.4560  137.7260 C   0  0  0  0  0  3  0  0  0  0  0  0
  180.6260  179.6570  137.4950 C   0  0  0  0  0  0  0  0  0  0  0  0
  180.4220  180.4700  136.3700 C   0  0  0  0  0  3  0  0  0  0  0  0
  180.5310  179.7800  141.1640 C   0  0  0  0  0  1  0  0  0  0  0  0
  181.0490  179.4580  139.8810 O   0  0  0  0  0  0  0  0  0  0  0  0
  181.1530  173.2260  137.9610 O   0  0  0  0  0  1  0  0  0  0  0  0
  180.0320  173.9520  137.5540 C   0  0  0  0  0  2  0  0  0  0  0  0
  1  6  1  0  0  0  0
  2  1  1  0  0  0  0
  3  4  1  0  0  0  0
  3  2  2  0  0  0  0
  4  5  1  0  0  0  0
  5  1  2  0  0  0  0
  7  6  1  1  0  0  0
  7 13  1  0  0  0  0
  7 26  1  0  0  0  0
  9 16  1  0  0  0  0
 10 17  1  6  0  0  0
 10  8  1  0  0  0  0
 11  9  1  0  0  0  0
 11 12  1  0  0  0  0
 12 17  1  0  0  0  0
 13 14  1  6  0  0  0
 13 15  1  0  0  0  0
 15  8  1  0  0  0  0
 16 18  1  6  0  0  0
 16 13  1  0  0  0  0
 16 10  1  0  0  0  0
 19 18  1  0  0  0  0
 20 19  1  0  0  0  0
 21 20  1  0  0  0  0
 22 25  1  0  0  0  0
 23 24  1  0  0  0  0
 23 22  1  0  0  0  0
 24 25  1  0  0  0  0
 25 21  1  6  0  0  0
 26 27  1  0  0  0  0
 28 32  1  1  0  0  0
 28  3  1  0  0  0  0
 29 30  1  0  0  0  0
 29 31  1  0  0  0  0
 30 31  1  0  0  0  0
 31 28  1  6  0  0  0
 33 36  1  0  0  0  0
 33 32  1  0  0  0  0
 34 49  1  6  0  0  0
 35 36  1  0  0  0  0
 35 34  1  0  0  0  0
 36 37  2  0  0  0  0
 37 44  1  0  0  0  0
 37 38  1  0  0  0  0
 39 38  1  0  0  0  0
 39 34  1  0  0  0  0
 40 42  1  0  0  0  0
 40 47  1  0  0  0  0
 41 43  1  0  0  0  0
 43 42  2  0  0  0  0
 44 40  2  0  0  0  0
 45 41  2  0  0  0  0
 45 44  1  0  0  0  0
 47 46  1  0  0  0  0
 49 48  1  0  0  0  0
M  END
>  <MODEL>
9

>  <REMARK>
 VINA RESULT:      -6.8      3.964      8.271
  Name = 
  17 active torsions:
  status: ('A' for Active; 'I' for Inactive)
    1  A    between atoms: C_3  and  C_20
    2  A    between atoms: C_3  and  C_43
    3  A    between atoms: C_4  and  C_31
    4  A    between atoms: C_5  and  C_23
    5  A    between atoms: C_9  and  C_19
    6  A    between atoms: C_9  and  C_37
    7  A    between atoms: C_11  and  C_20
    8  A    between atoms: C_11  and  C_35
    9  A    between atoms: C_14  and  O_44
   10  A    between atoms: C_21  and  C_25
   11  A    between atoms: C_21  and  C_37
   12  A    between atoms: C_21  and  C_40
   13  A    between atoms: C_22  and  C_34
   14  A    between atoms: C_23  and  C_45
   15  A    between atoms: C_30  and  C_45
   16  A    between atoms: C_35  and  C_47
   17  A    between atoms: C_36  and  C_45
                            x       y       z     vdW  Elec       q    Type
                         _______ _______ _______ _____ _____    ______ ____

>  <TORSDO>
F 17

$$$$
