=
 OpenBabel11062417413D

 39 42  0  0  1  0  0  0  0  0999 V2000
  180.1690  180.5010  140.9680 C   0  0  2  0  0  3  0  0  0  0  0  0
  184.1910  179.2420  139.0720 C   0  0  0  0  0  2  0  0  0  0  0  0
  180.9160  179.2100  142.8760 N   0  0  0  0  0  0  0  0  0  0  0  0
  179.7510  179.5210  142.0480 C   0  0  2  0  0  3  0  0  0  0  0  0
  185.7420  178.2050  143.0820 C   0  0  0  0  0  0  0  0  0  0  0  0
  182.3430  179.4490  140.7800 C   0  0  2  0  0  3  0  0  0  0  0  0
  186.8890  178.3200  140.9040 C   0  0  0  0  0  3  0  0  0  0  0  0
  183.1310  178.5010  139.8700 C   0  0  0  0  0  2  0  0  0  0  0  0
  181.4720  180.8260  139.0340 C   0  0  0  0  0  2  0  0  0  0  0  0
  180.5440  178.2530  143.7640 O   0  0  0  0  0  1  0  0  0  0  0  0
  185.6130  177.4780  137.6470 C   0  0  0  0  0  0  0  0  0  0  0  0
  189.2460  177.8420  140.6350 C   0  0  0  0  0  0  0  0  0  0  0  0
  188.3510  177.4430  144.1940 O   0  0  0  0  0  1  0  0  0  0  0  0
  186.3850  176.5180  136.8450 C   0  0  0  0  0  2  0  0  0  0  0  0
  188.2170  177.7030  142.8350 C   0  0  0  0  0  0  0  0  0  0  0  0
  178.9310  181.0460  140.2330 C   0  0  0  0  0  2  0  0  0  0  0  0
  190.1330  177.8010  138.4050 O   0  0  0  0  0  0  0  0  0  0  0  0
  180.2870  181.0800  138.0970 C   0  0  0  0  0  2  0  0  0  0  0  0
  188.6530  176.0050  137.7360 C   0  0  0  0  0  2  0  0  0  0  0  0
  179.2080  178.3580  141.4790 O   0  0  0  0  0  1  0  0  0  0  0  0
  190.0980  176.4870  137.9210 C   0  0  1  0  0  3  0  0  0  0  0  0
  185.7990  178.3370  144.3350 O   0  0  0  0  0  0  0  0  0  0  0  0
  189.3440  177.5890  142.0080 C   0  0  0  0  0  3  0  0  0  0  0  0
  182.0610  178.6880  142.1130 C   0  0  1  0  0  3  0  0  0  0  0  0
  184.9710  178.2770  138.2900 C   0  0  0  0  0  0  0  0  0  0  0  0
  181.1170  179.8420  140.0630 N   0  0  2  0  0  0  0  0  0  0  0  0
  183.2790  178.7580  143.0450 C   0  0  0  0  0  2  0  0  0  0  0  0
  184.4770  178.2210  142.4200 N   0  0  0  0  0  2  0  0  0  0  0  0
  178.9480  180.7020  138.7420 C   0  0  0  0  0  2  0  0  0  0  0  0
  188.0120  178.2180  140.0910 C   0  0  0  0  0  3  0  0  0  0  0  0
  186.9700  178.0600  142.2770 C   0  0  0  0  0  0  0  0  0  0  0  0
  190.4590  177.6970  139.7650 C   0  0  0  0  0  2  0  0  0  0  0  0
  187.8490  176.9160  136.8170 C   0  0  0  0  0  2  0  0  0  0  0  0
  190.3980  176.7190  135.5560 O   0  0  0  0  0  0  0  0  0  0  0  0
  192.2500  175.8970  136.6850 N   0  0  0  0  0  2  0  0  0  0  0  0
  190.9030  176.3690  136.6570 C   0  0  0  0  0  0  0  0  0  0  0  0
  192.9520  175.5590  137.9140 C   0  0  2  0  0  3  0  0  0  0  0  0
  193.5610  176.7520  138.4730 N   0  0  0  0  0  1  0  0  0  0  0  0
  194.0380  174.5460  137.6110 C   0  0  0  0  0  1  0  0  0  0  0  0
  1 16  1  6  0  0  0
  1  4  1  0  0  0  0
  2  8  1  0  0  0  0
  3 10  1  0  0  0  0
  4 20  1  6  0  0  0
  4  3  1  0  0  0  0
  5 22  2  0  0  0  0
  6  8  1  6  0  0  0
  6 24  1  0  0  0  0
  7 31  1  0  0  0  0
 11 25  3  0  0  0  0
 12 23  2  0  0  0  0
 14 11  1  0  0  0  0
 15 13  1  0  0  0  0
 17 32  1  0  0  0  0
 18 29  1  0  0  0  0
 18  9  1  0  0  0  0
 19 21  1  0  0  0  0
 21 36  1  6  0  0  0
 21 17  1  0  0  0  0
 23 15  1  0  0  0  0
 24  3  1  0  0  0  0
 24 27  1  1  0  0  0
 25  2  1  0  0  0  0
 26  9  1  6  0  0  0
 26  6  1  0  0  0  0
 26  1  1  0  0  0  0
 28 27  1  0  0  0  0
 28  5  1  0  0  0  0
 29 16  1  0  0  0  0
 30 12  1  0  0  0  0
 30  7  2  0  0  0  0
 31 15  2  0  0  0  0
 31  5  1  0  0  0  0
 32 12  1  0  0  0  0
 33 14  1  0  0  0  0
 33 19  1  0  0  0  0
 34 36  2  0  0  0  0
 35 37  1  0  0  0  0
 36 35  1  0  0  0  0
 37 39  1  6  0  0  0
 37 38  1  0  0  0  0
M  END
>  <MODEL>
1

>  <REMARK>
 VINA RESULT:      -9.1      0.000      0.000
  Name = 
  2 active torsions:
  status: ('A' for Active; 'I' for Inactive)
    1  A    between atoms: C_3  and  N_22
    2  A    between atoms: C_24  and  C_34
                            x       y       z     vdW  Elec       q    Type
                         _______ _______ _______ _____ _____    ______ ____

>  <TORSDO>
F 2

$$$$
=
 OpenBabel11062417413D

 39 42  0  0  1  0  0  0  0  0999 V2000
  185.7290  177.9570  143.5570 C   0  0  2  0  0  3  0  0  0  0  0  0
  189.4680  176.6650  141.1670 C   0  0  0  0  0  2  0  0  0  0  0  0
  184.9190  178.7730  141.4250 N   0  0  0  0  0  0  0  0  0  0  0  0
  185.0010  179.0870  142.8520 C   0  0  2  0  0  3  0  0  0  0  0  0
  187.1620  176.9910  137.4080 C   0  0  0  0  0  0  0  0  0  0  0  0
  187.1860  177.6330  141.6490 C   0  0  2  0  0  3  0  0  0  0  0  0
  189.4210  176.1000  137.8270 C   0  0  0  0  0  3  0  0  0  0  0  0
  188.6150  177.9230  141.1810 C   0  0  0  0  0  2  0  0  0  0  0  0
  187.7780  176.8270  143.8180 C   0  0  0  0  0  2  0  0  0  0  0  0
  184.3620  179.8420  140.8020 O   0  0  0  0  0  1  0  0  0  0  0  0
  191.8860  177.2500  140.1820 C   0  0  0  0  0  0  0  0  0  0  0  0
  190.8190  175.1920  136.0740 C   0  0  0  0  0  0  0  0  0  0  0  0
  187.6190  176.2860  134.5940 O   0  0  0  0  0  1  0  0  0  0  0  0
  193.2240  177.5680  139.6610 C   0  0  0  0  0  2  0  0  0  0  0  0
  188.6000  176.0380  135.5470 C   0  0  0  0  0  0  0  0  0  0  0  0
  185.6190  178.1230  145.0840 C   0  0  0  0  0  2  0  0  0  0  0  0
  193.0670  174.5700  136.6420 O   0  0  0  0  0  0  0  0  0  0  0  0
  187.9610  177.1900  145.2940 C   0  0  0  0  0  2  0  0  0  0  0  0
  193.6310  176.8250  137.3190 C   0  0  0  0  0  2  0  0  0  0  0  0
  185.6560  180.3100  143.0650 O   0  0  0  0  0  1  0  0  0  0  0  0
  193.9210  175.6480  136.3790 C   0  0  1  0  0  3  0  0  0  0  0  0
  186.0970  176.9460  136.7340 O   0  0  0  0  0  0  0  0  0  0  0  0
  189.8090  175.4540  135.1410 C   0  0  0  0  0  3  0  0  0  0  0  0
  186.2270  178.5240  140.7990 C   0  0  1  0  0  3  0  0  0  0  0  0
  190.7930  176.9840  140.6280 C   0  0  0  0  0  0  0  0  0  0  0  0
  187.1200  177.9200  143.0940 N   0  0  2  0  0  0  0  0  0  0  0  0
  185.9470  177.8720  139.4370 C   0  0  0  0  0  2  0  0  0  0  0  0
  187.1680  177.6170  138.6910 N   0  0  0  0  0  2  0  0  0  0  0  0
  186.9880  178.2860  145.7460 C   0  0  0  0  0  2  0  0  0  0  0  0
  190.6130  175.5100  137.4210 C   0  0  0  0  0  3  0  0  0  0  0  0
  188.4060  176.3790  136.9040 C   0  0  0  0  0  0  0  0  0  0  0  0
  192.1120  174.5830  135.6160 C   0  0  0  0  0  2  0  0  0  0  0  0
  193.7300  176.4340  138.7880 C   0  0  0  0  0  2  0  0  0  0  0  0
  196.2670  175.9710  136.0170 O   0  0  0  0  0  0  0  0  0  0  0  0
  195.7170  173.9500  137.0150 N   0  0  0  0  0  2  0  0  0  0  0  0
  195.3590  175.2090  136.4440 C   0  0  0  0  0  0  0  0  0  0  0  0
  194.7520  173.0440  137.6200 C   0  0  2  0  0  3  0  0  0  0  0  0
  195.0630  172.8660  139.0260 N   0  0  0  0  0  1  0  0  0  0  0  0
  194.8220  171.6990  136.9250 C   0  0  0  0  0  1  0  0  0  0  0  0
  1 16  1  1  0  0  0
  2  8  1  0  0  0  0
  3  4  1  0  0  0  0
  4 20  1  6  0  0  0
  4  1  1  0  0  0  0
  5 28  1  0  0  0  0
  6  8  1  6  0  0  0
  6 26  1  0  0  0  0
  9 18  1  0  0  0  0
 10  3  1  0  0  0  0
 11 25  3  0  0  0  0
 12 30  2  0  0  0  0
 13 15  1  0  0  0  0
 14 11  1  0  0  0  0
 15 31  1  0  0  0  0
 16 29  1  0  0  0  0
 18 29  1  0  0  0  0
 19 33  1  0  0  0  0
 21 36  1  1  0  0  0
 21 17  1  0  0  0  0
 21 19  1  0  0  0  0
 22  5  2  0  0  0  0
 23 15  2  0  0  0  0
 23 12  1  0  0  0  0
 24 27  1  6  0  0  0
 24  3  1  0  0  0  0
 24  6  1  0  0  0  0
 25  2  1  0  0  0  0
 26  1  1  0  0  0  0
 26  9  1  1  0  0  0
 28 27  1  0  0  0  0
 30  7  1  0  0  0  0
 31  5  1  0  0  0  0
 31  7  2  0  0  0  0
 32 12  1  0  0  0  0
 32 17  1  0  0  0  0
 33 14  1  0  0  0  0
 34 36  2  0  0  0  0
 35 37  1  0  0  0  0
 36 35  1  0  0  0  0
 37 39  1  6  0  0  0
 37 38  1  0  0  0  0
M  END
>  <MODEL>
2

>  <REMARK>
 VINA RESULT:      -6.9      3.465      6.331
  Name = 
  2 active torsions:
  status: ('A' for Active; 'I' for Inactive)
    1  A    between atoms: C_3  and  N_22
    2  A    between atoms: C_24  and  C_34
                            x       y       z     vdW  Elec       q    Type
                         _______ _______ _______ _____ _____    ______ ____

>  <TORSDO>
F 2

$$$$
=
 OpenBabel11062417413D

 39 42  0  0  1  0  0  0  0  0999 V2000
  180.8700  179.2590  137.9010 C   0  0  2  0  0  3  0  0  0  0  0  0
  185.0080  177.5140  136.8110 C   0  0  0  0  0  2  0  0  0  0  0  0
  181.6290  179.0520  140.1910 N   0  0  0  0  0  0  0  0  0  0  0  0
  180.4740  178.8690  139.3120 C   0  0  2  0  0  3  0  0  0  0  0  0
  186.4950  178.5590  140.8430 C   0  0  0  0  0  0  0  0  0  0  0  0
  183.1020  178.3770  138.2250 C   0  0  2  0  0  3  0  0  0  0  0  0
  187.6980  177.7200  138.8610 C   0  0  0  0  0  3  0  0  0  0  0  0
  183.9670  177.1660  137.8610 C   0  0  0  0  0  2  0  0  0  0  0  0
  182.2080  178.7270  136.0380 C   0  0  0  0  0  2  0  0  0  0  0  0
  181.2850  178.5960  141.4220 O   0  0  0  0  0  1  0  0  0  0  0  0
  186.5650  175.3830  136.3710 C   0  0  0  0  0  0  0  0  0  0  0  0
  190.0830  177.3180  138.8470 C   0  0  0  0  0  0  0  0  0  0  0  0
  189.1080  178.5640  142.1820 O   0  0  0  0  0  1  0  0  0  0  0  0
  187.4110  174.2090  136.1090 C   0  0  0  0  0  2  0  0  0  0  0  0
  189.0000  178.1550  140.8580 C   0  0  0  0  0  0  0  0  0  0  0  0
  179.6250  179.3220  136.9970 C   0  0  0  0  0  2  0  0  0  0  0  0
  191.0360  176.3000  136.8930 O   0  0  0  0  0  0  0  0  0  0  0  0
  181.0390  178.4430  135.0910 C   0  0  0  0  0  2  0  0  0  0  0  0
  189.6770  174.3110  137.1380 C   0  0  0  0  0  2  0  0  0  0  0  0
  180.0120  177.5440  139.3510 O   0  0  0  0  0  1  0  0  0  0  0  0
  191.0870  174.9130  137.0770 C   0  0  1  0  0  3  0  0  0  0  0  0
  186.5080  179.2610  141.8900 O   0  0  0  0  0  0  0  0  0  0  0  0
  190.1550  177.7390  140.1800 C   0  0  0  0  0  3  0  0  0  0  0  0
  182.8230  178.3070  139.7590 C   0  0  1  0  0  3  0  0  0  0  0  0
  185.8610  176.3470  136.5680 C   0  0  0  0  0  0  0  0  0  0  0  0
  181.8770  178.3150  137.4070 N   0  0  2  0  0  0  0  0  0  0  0  0
  184.0080  178.8770  140.5510 C   0  0  0  0  0  2  0  0  0  0  0  0
  185.2520  178.1870  140.2490 N   0  0  0  0  0  2  0  0  0  0  0  0
  179.7040  178.3260  135.8370 C   0  0  0  0  0  2  0  0  0  0  0  0
  188.8480  177.3210  138.1900 C   0  0  0  0  0  3  0  0  0  0  0  0
  187.7530  178.1330  140.1980 C   0  0  0  0  0  0  0  0  0  0  0  0
  191.3280  176.8610  138.1450 C   0  0  0  0  0  2  0  0  0  0  0  0
  188.8520  174.6390  135.8990 C   0  0  0  0  0  2  0  0  0  0  0  0
  191.4360  174.0160  134.8840 O   0  0  0  0  0  0  0  0  0  0  0  0
  193.3100  173.9730  136.2500 N   0  0  0  0  0  2  0  0  0  0  0  0
  191.9340  174.2710  136.0130 C   0  0  0  0  0  0  0  0  0  0  0  0
  194.0000  174.3140  137.4850 C   0  0  2  0  0  3  0  0  0  0  0  0
  195.0510  175.2760  137.2090 N   0  0  0  0  0  1  0  0  0  0  0  0
  194.6180  173.0640  138.0780 C   0  0  0  0  0  1  0  0  0  0  0  0
  1 16  1  6  0  0  0
  1  4  1  0  0  0  0
  2  8  1  0  0  0  0
  3 10  1  0  0  0  0
  4 20  1  6  0  0  0
  4  3  1  0  0  0  0
  5 22  2  0  0  0  0
  6  8  1  6  0  0  0
  6 24  1  0  0  0  0
  7 31  1  0  0  0  0
 11 25  3  0  0  0  0
 12 23  2  0  0  0  0
 14 11  1  0  0  0  0
 15 13  1  0  0  0  0
 17 21  1  0  0  0  0
 17 32  1  0  0  0  0
 18 29  1  0  0  0  0
 18  9  1  0  0  0  0
 21 36  1  6  0  0  0
 21 19  1  0  0  0  0
 23 15  1  0  0  0  0
 24  3  1  0  0  0  0
 24 27  1  1  0  0  0
 25  2  1  0  0  0  0
 26  9  1  6  0  0  0
 26  1  1  0  0  0  0
 26  6  1  0  0  0  0
 28 27  1  0  0  0  0
 28  5  1  0  0  0  0
 29 16  1  0  0  0  0
 30 12  1  0  0  0  0
 30  7  2  0  0  0  0
 31  5  1  0  0  0  0
 31 15  2  0  0  0  0
 32 12  1  0  0  0  0
 33 14  1  0  0  0  0
 33 19  1  0  0  0  0
 34 36  2  0  0  0  0
 35 37  1  0  0  0  0
 36 35  1  0  0  0  0
 37 39  1  6  0  0  0
 38 37  1  0  0  0  0
M  END
>  <MODEL>
3

>  <REMARK>
 VINA RESULT:      -6.5      2.040      2.656
  Name = 
  2 active torsions:
  status: ('A' for Active; 'I' for Inactive)
    1  A    between atoms: C_3  and  N_22
    2  A    between atoms: C_24  and  C_34
                            x       y       z     vdW  Elec       q    Type
                         _______ _______ _______ _____ _____    ______ ____

>  <TORSDO>
F 2

$$$$
=
 OpenBabel11062417413D

 39 42  0  0  1  0  0  0  0  0999 V2000
  185.2580  178.1770  144.0540 C   0  0  2  0  0  3  0  0  0  0  0  0
  189.0460  176.9080  141.7280 C   0  0  0  0  0  2  0  0  0  0  0  0
  184.4920  179.0130  141.9150 N   0  0  0  0  0  0  0  0  0  0  0  0
  184.5450  179.3130  143.3460 C   0  0  2  0  0  3  0  0  0  0  0  0
  186.8160  177.2720  137.9260 C   0  0  0  0  0  0  0  0  0  0  0  0
  186.7540  177.8710  142.1730 C   0  0  2  0  0  3  0  0  0  0  0  0
  189.0670  176.3770  138.3820 C   0  0  0  0  0  3  0  0  0  0  0  0
  188.1930  178.1660  141.7370 C   0  0  0  0  0  2  0  0  0  0  0  0
  187.3020  177.0430  144.3450 C   0  0  0  0  0  2  0  0  0  0  0  0
  183.9480  180.0890  141.2910 O   0  0  0  0  0  1  0  0  0  0  0  0
  191.4830  177.5030  140.7980 C   0  0  0  0  0  0  0  0  0  0  0  0
  190.5000  175.4860  136.6480 C   0  0  0  0  0  0  0  0  0  0  0  0
  187.3310  176.5950  135.1150 O   0  0  0  0  0  1  0  0  0  0  0  0
  192.8310  177.8260  140.3080 C   0  0  0  0  0  2  0  0  0  0  0  0
  188.2920  176.3370  136.0860 C   0  0  0  0  0  0  0  0  0  0  0  0
  185.1170  178.3270  145.5800 C   0  0  0  0  0  2  0  0  0  0  0  0
  192.7360  174.8590  137.2560 O   0  0  0  0  0  0  0  0  0  0  0  0
  187.4550  177.3920  145.8290 C   0  0  0  0  0  2  0  0  0  0  0  0
  193.2860  177.1070  137.9670 C   0  0  0  0  0  2  0  0  0  0  0  0
  185.1950  180.5330  143.5850 O   0  0  0  0  0  1  0  0  0  0  0  0
  193.5960  175.9390  137.0220 C   0  0  1  0  0  3  0  0  0  0  0  0
  185.7650  177.2330  137.2300 O   0  0  0  0  0  0  0  0  0  0  0  0
  189.5090  175.7580  135.6980 C   0  0  0  0  0  3  0  0  0  0  0  0
  185.8130  178.7700  141.3130 C   0  0  1  0  0  3  0  0  0  0  0  0
  190.3810  177.2330  141.2200 C   0  0  0  0  0  0  0  0  0  0  0  0
  186.6590  178.1430  143.6190 N   0  0  2  0  0  0  0  0  0  0  0  0
  185.5600  178.1320  139.9390 C   0  0  0  0  0  2  0  0  0  0  0  0
  186.7960  177.8850  139.2150 N   0  0  0  0  0  2  0  0  0  0  0  0
  186.4730  178.4830  146.2710 C   0  0  0  0  0  2  0  0  0  0  0  0
  190.2660  175.7910  137.9940 C   0  0  0  0  0  3  0  0  0  0  0  0
  188.0710  176.6640  137.4410 C   0  0  0  0  0  0  0  0  0  0  0  0
  191.8020  174.8810  136.2110 C   0  0  0  0  0  2  0  0  0  0  0  0
  193.3550  176.7010  139.4340 C   0  0  0  0  0  2  0  0  0  0  0  0
  195.3910  174.7170  138.0300 O   0  0  0  0  0  0  0  0  0  0  0  0
  195.9930  175.9310  136.1480 N   0  0  0  0  0  2  0  0  0  0  0  0
  195.0310  175.5000  137.1110 C   0  0  0  0  0  0  0  0  0  0  0  0
  195.6560  176.7580  134.9980 C   0  0  2  0  0  3  0  0  0  0  0  0
  195.8040  178.1600  135.3450 N   0  0  0  0  0  1  0  0  0  0  0  0
  194.2190  176.4980  134.5950 C   0  0  0  0  0  1  0  0  0  0  0  0
  1 16  1  1  0  0  0
  2  8  1  0  0  0  0
  3  4  1  0  0  0  0
  4 20  1  6  0  0  0
  4  1  1  0  0  0  0
  5 28  1  0  0  0  0
  6  8  1  6  0  0  0
  6 26  1  0  0  0  0
  9 18  1  0  0  0  0
 10  3  1  0  0  0  0
 11 25  3  0  0  0  0
 12 30  2  0  0  0  0
 13 15  1  0  0  0  0
 14 11  1  0  0  0  0
 15 31  1  0  0  0  0
 16 29  1  0  0  0  0
 18 29  1  0  0  0  0
 19 33  1  0  0  0  0
 21 36  1  1  0  0  0
 21 17  1  0  0  0  0
 21 19  1  0  0  0  0
 22  5  2  0  0  0  0
 23 15  2  0  0  0  0
 23 12  1  0  0  0  0
 24 27  1  6  0  0  0
 24  3  1  0  0  0  0
 24  6  1  0  0  0  0
 25  2  1  0  0  0  0
 26  1  1  0  0  0  0
 26  9  1  1  0  0  0
 28 27  1  0  0  0  0
 30  7  1  0  0  0  0
 31  5  1  0  0  0  0
 31  7  2  0  0  0  0
 32 12  1  0  0  0  0
 32 17  1  0  0  0  0
 33 14  1  0  0  0  0
 35 36  1  0  0  0  0
 36 34  2  0  0  0  0
 37 39  1  1  0  0  0
 37 38  1  0  0  0  0
 37 35  1  0  0  0  0
M  END
>  <MODEL>
4

>  <REMARK>
 VINA RESULT:      -6.2      3.291      6.035
  Name = 
  2 active torsions:
  status: ('A' for Active; 'I' for Inactive)
    1  A    between atoms: C_3  and  N_22
    2  A    between atoms: C_24  and  C_34
                            x       y       z     vdW  Elec       q    Type
                         _______ _______ _______ _____ _____    ______ ____

>  <TORSDO>
F 2

$$$$
