=
 OpenBabel11062415443D

 27 31  0  0  1  0  0  0  0  0999 V2000
  189.1390  176.6970  146.2820 C   0  0  0  0  0  2  0  0  0  0  0  0
  185.4120  178.6040  147.2300 N   0  0  0  0  0  0  0  0  0  0  0  0
  189.6540  177.1100  147.6610 C   0  0  0  0  0  2  0  0  0  0  0  0
  185.0150  178.4920  144.8850 C   0  0  0  0  0  0  0  0  0  0  0  0
  187.5890  178.3490  148.2070 N   0  0  0  0  0  2  0  0  0  0  0  0
  186.3410  178.2610  144.6960 N   0  0  0  0  0  0  0  0  0  0  0  0
  189.0450  178.4080  148.1900 C   0  0  0  0  0  2  0  0  0  0  0  0
  186.7420  178.3880  147.0470 C   0  0  0  0  0  0  0  0  0  0  0  0
  184.5430  178.6620  146.1900 C   0  0  0  0  0  3  0  0  0  0  0  0
  187.2260  178.1950  145.7300 C   0  0  0  0  0  0  0  0  0  0  0  0
  188.6810  177.8940  145.4480 C   0  0  2  0  0  3  0  0  0  0  0  0
  183.7010  178.2570  141.3450 C   0  0  0  0  0  3  0  0  0  0  0  0
  180.6120  179.3840  142.9530 F   0  0  0  0  0  0  0  0  0  0  0  0
  181.9000  178.9990  142.7840 C   0  0  0  0  0  0  0  0  0  0  0  0
  181.5440  178.7010  140.4400 F   0  0  0  0  0  0  0  0  0  0  0  0
  182.3720  178.6530  141.5130 C   0  0  0  0  0  0  0  0  0  0  0  0
  182.7600  178.9470  143.8850 C   0  0  0  0  0  3  0  0  0  0  0  0
  184.5600  178.2060  142.4470 C   0  0  0  0  0  3  0  0  0  0  0  0
  184.0980  178.5500  143.7270 C   0  0  0  0  0  0  0  0  0  0  0  0
  188.9480  176.3380  143.6010 O   0  0  0  0  0  0  0  0  0  0  0  0
  189.7940  176.2320  142.4880 C   0  0  0  0  0  2  0  0  0  0  0  0
  190.3340  178.2630  143.5910 C   0  0  0  0  0  2  0  0  0  0  0  0
  190.8940  177.2630  142.6220 C   0  0  2  0  0  3  0  0  0  0  0  0
  188.9800  177.6960  143.9570 C   0  0  2  0  0  3  0  0  0  0  0  0
  191.1520  177.9210  141.2790 C   0  0  2  0  0  3  0  0  0  0  0  0
  191.0080  176.9400  140.2090 C   0  0  0  0  0  2  0  0  0  0  0  0
  192.3500  177.3240  140.6680 N   0  0  0  0  0  2  0  0  0  0  0  0
  1  3  1  0  0  0  0
  3  7  1  0  0  0  0
  4  9  2  0  0  0  0
  6  4  1  0  0  0  0
  6 10  2  0  0  0  0
  7  5  1  0  0  0  0
  8  2  2  0  0  0  0
  8  5  1  0  0  0  0
  9  2  1  0  0  0  0
 10  8  1  0  0  0  0
 11 10  1  0  0  0  0
 11  1  1  1  0  0  0
 12 16  2  0  0  0  0
 12 18  1  0  0  0  0
 14 13  1  0  0  0  0
 14 17  2  0  0  0  0
 15 16  1  0  0  0  0
 16 14  1  0  0  0  0
 18 19  2  0  0  0  0
 19 17  1  0  0  0  0
 19  4  1  0  0  0  0
 20 24  1  0  0  0  0
 21 20  1  0  0  0  0
 23 21  1  6  0  0  0
 23 22  1  0  0  0  0
 24 22  1  1  0  0  0
 24 11  1  0  0  0  0
 25 26  1  6  0  0  0
 25 23  1  0  0  0  0
 26 27  1  0  0  0  0
 27 25  1  0  0  0  0
M  END
>  <MODEL>
1

>  <REMARK>
 VINA RESULT:      -9.4      0.000      0.000
  Name = 
  3 active torsions:
  status: ('A' for Active; 'I' for Inactive)
    1  A    between atoms: C_5  and  C_25
    2  A    between atoms: C_10  and  C_26
    3  A    between atoms: C_24  and  C_27
                            x       y       z     vdW  Elec       q    Type
                         _______ _______ _______ _____ _____    ______ ____

>  <TORSDO>
F 3

$$$$
=
 OpenBabel11062415443D

 27 31  0  0  1  0  0  0  0  0999 V2000
  190.4560  175.6370  143.1990 C   0  0  0  0  0  2  0  0  0  0  0  0
  188.0220  177.8180  145.9820 N   0  0  0  0  0  0  0  0  0  0  0  0
  191.6420  175.8400  144.1420 C   0  0  0  0  0  2  0  0  0  0  0  0
  186.4990  178.0050  144.1610 C   0  0  0  0  0  0  0  0  0  0  0  0
  190.3310  177.2270  145.7080 N   0  0  0  0  0  2  0  0  0  0  0  0
  187.5050  177.6550  143.3160 N   0  0  0  0  0  0  0  0  0  0  0  0
  191.5760  177.1310  144.9570 C   0  0  0  0  0  2  0  0  0  0  0  0
  189.0360  177.4820  145.1420 C   0  0  0  0  0  0  0  0  0  0  0  0
  186.7710  178.0820  145.5310 C   0  0  0  0  0  3  0  0  0  0  0  0
  188.7660  177.3830  143.7540 C   0  0  0  0  0  0  0  0  0  0  0  0
  189.8250  176.9590  142.7610 C   0  0  2  0  0  3  0  0  0  0  0  0
  182.8390  178.9480  144.0110 C   0  0  0  0  0  3  0  0  0  0  0  0
  183.3410  178.3140  140.4420 F   0  0  0  0  0  0  0  0  0  0  0  0
  183.5910  178.4340  141.7680 C   0  0  0  0  0  0  0  0  0  0  0  0
  181.3290  179.0870  142.1750 F   0  0  0  0  0  0  0  0  0  0  0  0
  182.5740  178.8260  142.6450 C   0  0  0  0  0  0  0  0  0  0  0  0
  184.8720  178.1660  142.2600 C   0  0  0  0  0  3  0  0  0  0  0  0
  184.1200  178.6790  144.5020 C   0  0  0  0  0  3  0  0  0  0  0  0
  185.1480  178.2860  143.6320 C   0  0  0  0  0  0  0  0  0  0  0  0
  190.1780  176.1540  140.4960 O   0  0  0  0  0  0  0  0  0  0  0  0
  189.9760  176.6620  139.2040 C   0  0  0  0  0  2  0  0  0  0  0  0
  189.1460  178.2780  140.7320 C   0  0  0  0  0  2  0  0  0  0  0  0
  189.6200  178.1280  139.3160 C   0  0  2  0  0  3  0  0  0  0  0  0
  189.3110  176.8930  141.3180 C   0  0  2  0  0  3  0  0  0  0  0  0
  188.4990  178.4640  138.3500 C   0  0  2  0  0  3  0  0  0  0  0  0
  188.9050  178.1400  136.9860 C   0  0  0  0  0  2  0  0  0  0  0  0
  188.9410  179.5360  137.4450 N   0  0  0  0  0  2  0  0  0  0  0  0
  1  3  1  0  0  0  0
  3  7  1  0  0  0  0
  4  9  2  0  0  0  0
  6 10  2  0  0  0  0
  6  4  1  0  0  0  0
  7  5  1  0  0  0  0
  8  5  1  0  0  0  0
  8  2  2  0  0  0  0
  9  2  1  0  0  0  0
 10  8  1  0  0  0  0
 11  1  1  1  0  0  0
 11 10  1  0  0  0  0
 12 18  1  0  0  0  0
 13 14  1  0  0  0  0
 14 17  2  0  0  0  0
 14 16  1  0  0  0  0
 15 16  1  0  0  0  0
 16 12  2  0  0  0  0
 17 19  1  0  0  0  0
 19  4  1  0  0  0  0
 19 18  2  0  0  0  0
 20 24  1  0  0  0  0
 21 20  1  0  0  0  0
 23 21  1  1  0  0  0
 23 22  1  0  0  0  0
 24 22  1  6  0  0  0
 24 11  1  0  0  0  0
 25 26  1  6  0  0  0
 25 23  1  0  0  0  0
 26 27  1  0  0  0  0
 27 25  1  0  0  0  0
M  END
>  <MODEL>
2

>  <REMARK>
 VINA RESULT:      -9.3      2.152      3.154
  Name = 
  3 active torsions:
  status: ('A' for Active; 'I' for Inactive)
    1  A    between atoms: C_5  and  C_25
    2  A    between atoms: C_10  and  C_26
    3  A    between atoms: C_24  and  C_27
                            x       y       z     vdW  Elec       q    Type
                         _______ _______ _______ _____ _____    ______ ____

>  <TORSDO>
F 3

$$$$
=
 OpenBabel11062415443D

 27 31  0  0  1  0  0  0  0  0999 V2000
  191.5320  177.6960  141.6280 C   0  0  0  0  0  2  0  0  0  0  0  0
  187.7830  178.3770  139.6510 N   0  0  0  0  0  0  0  0  0  0  0  0
  192.1400  177.3570  140.2670 C   0  0  0  0  0  2  0  0  0  0  0  0
  186.8550  178.2130  141.8380 C   0  0  0  0  0  0  0  0  0  0  0  0
  189.9800  177.5900  139.0950 N   0  0  0  0  0  2  0  0  0  0  0  0
  188.0120  177.6370  142.2590 N   0  0  0  0  0  0  0  0  0  0  0  0
  191.1510  176.7410  139.2780 C   0  0  0  0  0  2  0  0  0  0  0  0
  188.9370  177.7880  140.0620 C   0  0  0  0  0  0  0  0  0  0  0  0
  186.7460  178.5950  140.4980 C   0  0  0  0  0  3  0  0  0  0  0  0
  189.0640  177.4140  141.4230 C   0  0  0  0  0  0  0  0  0  0  0  0
  190.3360  176.8070  141.9710 C   0  0  2  0  0  3  0  0  0  0  0  0
  183.3940  178.8970  143.2050 C   0  0  0  0  0  3  0  0  0  0  0  0
  185.1410  178.5640  146.4040 F   0  0  0  0  0  0  0  0  0  0  0  0
  184.9110  178.6050  145.0690 C   0  0  0  0  0  0  0  0  0  0  0  0
  182.5950  179.0610  145.4420 F   0  0  0  0  0  0  0  0  0  0  0  0
  183.6240  178.8560  144.5820 C   0  0  0  0  0  0  0  0  0  0  0  0
  185.9660  178.3950  144.1760 C   0  0  0  0  0  3  0  0  0  0  0  0
  184.4500  178.6880  142.3130 C   0  0  0  0  0  3  0  0  0  0  0  0
  185.7460  178.4340  142.7890 C   0  0  0  0  0  0  0  0  0  0  0  0
  189.9140  177.6450  144.2120 O   0  0  0  0  0  0  0  0  0  0  0  0
  190.4660  177.4380  145.4850 C   0  0  0  0  0  2  0  0  0  0  0  0
  191.5860  175.9760  143.9870 C   0  0  0  0  0  2  0  0  0  0  0  0
  191.7340  176.6280  145.3310 C   0  0  2  0  0  3  0  0  0  0  0  0
  190.2650  176.5030  143.4720 C   0  0  2  0  0  3  0  0  0  0  0  0
  191.8090  175.5720  146.4200 C   0  0  2  0  0  3  0  0  0  0  0  0
  191.3080  176.1200  147.6770 C   0  0  0  0  0  2  0  0  0  0  0  0
  192.7570  176.0100  147.4560 N   0  0  0  0  0  2  0  0  0  0  0  0
  2  8  2  0  0  0  0
  2  9  1  0  0  0  0
  3  1  1  0  0  0  0
  4  6  1  0  0  0  0
  4 19  1  0  0  0  0
  5  7  1  0  0  0  0
  5  8  1  0  0  0  0
  7  3  1  0  0  0  0
  8 10  1  0  0  0  0
  9  4  2  0  0  0  0
 10 11  1  0  0  0  0
 10  6  2  0  0  0  0
 11  1  1  1  0  0  0
 11 24  1  0  0  0  0
 12 16  1  0  0  0  0
 14 13  1  0  0  0  0
 16 14  2  0  0  0  0
 16 15  1  0  0  0  0
 17 14  1  0  0  0  0
 18 19  1  0  0  0  0
 18 12  2  0  0  0  0
 19 17  2  0  0  0  0
 20 21  1  0  0  0  0
 23 22  1  6  0  0  0
 23 21  1  0  0  0  0
 23 25  1  0  0  0  0
 24 22  1  1  0  0  0
 24 20  1  0  0  0  0
 25 27  1  0  0  0  0
 25 26  1  1  0  0  0
 27 26  1  0  0  0  0
M  END
>  <MODEL>
3

>  <REMARK>
 VINA RESULT:      -9.2      2.572      5.280
  Name = 
  3 active torsions:
  status: ('A' for Active; 'I' for Inactive)
    1  A    between atoms: C_5  and  C_25
    2  A    between atoms: C_10  and  C_26
    3  A    between atoms: C_24  and  C_27
                            x       y       z     vdW  Elec       q    Type
                         _______ _______ _______ _____ _____    ______ ____

>  <TORSDO>
F 3

$$$$
=
 OpenBabel11062415443D

 27 31  0  0  1  0  0  0  0  0999 V2000
  190.5000  177.9590  142.8390 C   0  0  0  0  0  2  0  0  0  0  0  0
  187.4400  178.4890  139.8760 N   0  0  0  0  0  0  0  0  0  0  0  0
  191.4730  177.6090  141.7120 C   0  0  0  0  0  2  0  0  0  0  0  0
  185.9410  178.3450  141.7210 C   0  0  0  0  0  0  0  0  0  0  0  0
  189.7210  177.7540  139.9770 N   0  0  0  0  0  2  0  0  0  0  0  0
  186.9460  177.8120  142.4650 N   0  0  0  0  0  0  0  0  0  0  0  0
  190.8120  176.9440  140.5040 C   0  0  0  0  0  2  0  0  0  0  0  0
  188.4450  177.9420  140.6100 C   0  0  0  0  0  0  0  0  0  0  0  0
  186.2030  178.6950  140.3930 C   0  0  0  0  0  3  0  0  0  0  0  0
  188.1950  177.6020  141.9620 C   0  0  0  0  0  0  0  0  0  0  0  0
  189.2760  177.0430  142.8600 C   0  0  2  0  0  3  0  0  0  0  0  0
  182.1980  178.7760  142.0570 C   0  0  0  0  0  3  0  0  0  0  0  0
  183.0600  179.0920  145.6000 F   0  0  0  0  0  0  0  0  0  0  0  0
  183.1880  178.9250  144.2610 C   0  0  0  0  0  0  0  0  0  0  0  0
  180.8260  179.1400  143.9690 F   0  0  0  0  0  0  0  0  0  0  0  0
  182.0580  178.9490  143.4360 C   0  0  0  0  0  0  0  0  0  0  0  0
  184.4550  178.7280  143.7050 C   0  0  0  0  0  3  0  0  0  0  0  0
  183.4650  178.5800  141.5020 C   0  0  0  0  0  3  0  0  0  0  0  0
  184.6060  178.5540  142.3190 C   0  0  0  0  0  0  0  0  0  0  0  0
  187.4910  177.2500  144.4940 O   0  0  0  0  0  0  0  0  0  0  0  0
  187.4100  177.5110  145.8700 C   0  0  0  0  0  2  0  0  0  0  0  0
  189.7150  177.4070  145.3080 C   0  0  0  0  0  2  0  0  0  0  0  0
  188.7800  177.9300  146.3590 C   0  0  2  0  0  3  0  0  0  0  0  0
  188.7950  176.7690  144.2900 C   0  0  2  0  0  3  0  0  0  0  0  0
  189.0750  177.2750  147.6960 C   0  0  2  0  0  3  0  0  0  0  0  0
  188.0110  177.5860  148.6460 C   0  0  0  0  0  2  0  0  0  0  0  0
  189.2840  178.3180  148.7120 N   0  0  0  0  0  2  0  0  0  0  0  0
  2  9  1  0  0  0  0
  2  8  2  0  0  0  0
  3  1  1  0  0  0  0
  4 19  1  0  0  0  0
  4  6  1  0  0  0  0
  5  7  1  0  0  0  0
  5  8  1  0  0  0  0
  7  3  1  0  0  0  0
  8 10  1  0  0  0  0
  9  4  2  0  0  0  0
 10  6  2  0  0  0  0
 10 11  1  0  0  0  0
 11  1  1  1  0  0  0
 11 24  1  0  0  0  0
 12 16  1  0  0  0  0
 14 13  1  0  0  0  0
 16 15  1  0  0  0  0
 16 14  2  0  0  0  0
 17 14  1  0  0  0  0
 18 12  2  0  0  0  0
 18 19  1  0  0  0  0
 19 17  2  0  0  0  0
 20 21  1  0  0  0  0
 21 23  1  0  0  0  0
 23 22  1  6  0  0  0
 23 25  1  0  0  0  0
 24 20  1  0  0  0  0
 24 22  1  1  0  0  0
 25 26  1  1  0  0  0
 25 27  1  0  0  0  0
 26 27  1  0  0  0  0
M  END
>  <MODEL>
4

>  <REMARK>
 VINA RESULT:      -8.9      1.831      4.954
  Name = 
  3 active torsions:
  status: ('A' for Active; 'I' for Inactive)
    1  A    between atoms: C_5  and  C_25
    2  A    between atoms: C_10  and  C_26
    3  A    between atoms: C_24  and  C_27
                            x       y       z     vdW  Elec       q    Type
                         _______ _______ _______ _____ _____    ______ ____

>  <TORSDO>
F 3

$$$$
=
 OpenBabel11062415443D

 27 31  0  0  1  0  0  0  0  0999 V2000
  184.9340  179.5790  143.1080 C   0  0  0  0  0  2  0  0  0  0  0  0
  185.8040  178.5750  147.1900 N   0  0  0  0  0  0  0  0  0  0  0  0
  183.4690  179.7560  143.5080 C   0  0  0  0  0  2  0  0  0  0  0  0
  187.8370  177.7050  146.3090 C   0  0  0  0  0  0  0  0  0  0  0  0
  183.8800  179.0440  145.8360 N   0  0  0  0  0  2  0  0  0  0  0  0
  187.2800  177.7230  145.0690 N   0  0  0  0  0  0  0  0  0  0  0  0
  183.0280  178.8630  144.6680 C   0  0  0  0  0  2  0  0  0  0  0  0
  185.2350  178.5820  145.9560 C   0  0  0  0  0  0  0  0  0  0  0  0
  187.0760  178.1490  147.3930 C   0  0  0  0  0  3  0  0  0  0  0  0
  186.0050  178.1520  144.8470 C   0  0  0  0  0  0  0  0  0  0  0  0
  185.4640  178.1830  143.4360 C   0  0  2  0  0  3  0  0  0  0  0  0
  191.1030  176.7420  147.9580 C   0  0  0  0  0  3  0  0  0  0  0  0
  192.0440  175.9870  144.5030 F   0  0  0  0  0  0  0  0  0  0  0  0
  191.3120  176.3780  145.5740 C   0  0  0  0  0  0  0  0  0  0  0  0
  193.1360  175.9060  147.0430 F   0  0  0  0  0  0  0  0  0  0  0  0
  191.8640  176.3370  146.8590 C   0  0  0  0  0  0  0  0  0  0  0  0
  189.9990  176.8230  145.3920 C   0  0  0  0  0  3  0  0  0  0  0  0
  189.7910  177.1880  147.7750 C   0  0  0  0  0  3  0  0  0  0  0  0
  189.2260  177.2330  146.4910 C   0  0  0  0  0  0  0  0  0  0  0  0
  187.7780  177.6640  142.9090 O   0  0  0  0  0  0  0  0  0  0  0  0
  188.6190  177.8250  141.7980 C   0  0  0  0  0  2  0  0  0  0  0  0
  186.4620  178.5860  141.1640 C   0  0  0  0  0  2  0  0  0  0  0  0
  187.9090  178.6930  140.7820 C   0  0  2  0  0  3  0  0  0  0  0  0
  186.4740  177.6980  142.3890 C   0  0  2  0  0  3  0  0  0  0  0  0
  188.1260  178.1390  139.3860 C   0  0  2  0  0  3  0  0  0  0  0  0
  189.5440  177.8640  139.1760 C   0  0  0  0  0  2  0  0  0  0  0  0
  188.9470  179.0820  138.6110 N   0  0  0  0  0  2  0  0  0  0  0  0
  1  3  1  0  0  0  0
  2  9  1  0  0  0  0
  3  7  1  0  0  0  0
  4 19  1  0  0  0  0
  4  9  2  0  0  0  0
  5  8  1  0  0  0  0
  6  4  1  0  0  0  0
  7  5  1  0  0  0  0
  8  2  2  0  0  0  0
 10  6  2  0  0  0  0
 10  8  1  0  0  0  0
 11  1  1  6  0  0  0
 11 10  1  0  0  0  0
 13 14  1  0  0  0  0
 14 16  1  0  0  0  0
 16 15  1  0  0  0  0
 16 12  2  0  0  0  0
 17 14  2  0  0  0  0
 17 19  1  0  0  0  0
 18 12  1  0  0  0  0
 19 18  2  0  0  0  0
 21 20  1  0  0  0  0
 23 22  1  1  0  0  0
 23 21  1  0  0  0  0
 24 22  1  6  0  0  0
 24 20  1  0  0  0  0
 24 11  1  0  0  0  0
 25 26  1  1  0  0  0
 25 23  1  0  0  0  0
 27 26  1  0  0  0  0
 27 25  1  0  0  0  0
M  END
>  <MODEL>
5

>  <REMARK>
 VINA RESULT:      -8.6      3.908      6.399
  Name = 
  3 active torsions:
  status: ('A' for Active; 'I' for Inactive)
    1  A    between atoms: C_5  and  C_25
    2  A    between atoms: C_10  and  C_26
    3  A    between atoms: C_24  and  C_27
                            x       y       z     vdW  Elec       q    Type
                         _______ _______ _______ _____ _____    ______ ____

>  <TORSDO>
F 3

$$$$
=
 OpenBabel11062415443D

 27 31  0  0  1  0  0  0  0  0999 V2000
  190.4230  175.7920  144.1610 C   0  0  0  0  0  2  0  0  0  0  0  0
  187.6290  178.1210  146.4390 N   0  0  0  0  0  0  0  0  0  0  0  0
  191.4860  176.1160  145.2120 C   0  0  0  0  0  2  0  0  0  0  0  0
  186.3250  178.0950  144.4470 C   0  0  0  0  0  0  0  0  0  0  0  0
  189.9670  177.5880  146.4860 N   0  0  0  0  0  2  0  0  0  0  0  0
  187.4310  177.7080  143.7570 N   0  0  0  0  0  0  0  0  0  0  0  0
  191.2940  177.4700  145.8930 C   0  0  0  0  0  2  0  0  0  0  0  0
  188.7420  177.7480  145.7540 C   0  0  0  0  0  0  0  0  0  0  0  0
  186.4320  178.3000  145.8260 C   0  0  0  0  0  3  0  0  0  0  0  0
  188.6390  177.5190  144.3590 C   0  0  0  0  0  0  0  0  0  0  0  0
  189.8160  177.0480  143.5370 C   0  0  2  0  0  3  0  0  0  0  0  0
  183.7710  178.3640  141.6690 C   0  0  0  0  0  3  0  0  0  0  0  0
  181.5190  178.9920  144.4850 F   0  0  0  0  0  0  0  0  0  0  0  0
  182.6470  178.7300  143.7820 C   0  0  0  0  0  0  0  0  0  0  0  0
  181.4310  178.8030  141.7260 F   0  0  0  0  0  0  0  0  0  0  0  0
  182.6030  178.6340  142.3870 C   0  0  0  0  0  0  0  0  0  0  0  0
  183.8590  178.5540  144.4560 C   0  0  0  0  0  3  0  0  0  0  0  0
  184.9820  178.1890  142.3440 C   0  0  0  0  0  3  0  0  0  0  0  0
  185.0390  178.2820  143.7430 C   0  0  0  0  0  0  0  0  0  0  0  0
  190.5150  176.1810  141.3770 O   0  0  0  0  0  0  0  0  0  0  0  0
  190.3930  176.5890  140.0410 C   0  0  0  0  0  2  0  0  0  0  0  0
  189.2020  178.1570  141.3660 C   0  0  0  0  0  2  0  0  0  0  0  0
  189.8430  177.9990  140.0190 C   0  0  2  0  0  3  0  0  0  0  0  0
  189.4760  176.8390  142.0560 C   0  0  2  0  0  3  0  0  0  0  0  0
  188.8010  178.1310  138.9230 C   0  0  2  0  0  3  0  0  0  0  0  0
  189.4490  178.0950  137.6150 C   0  0  0  0  0  2  0  0  0  0  0  0
  189.0280  179.3830  138.1850 N   0  0  0  0  0  2  0  0  0  0  0  0
  1  3  1  0  0  0  0
  3  7  1  0  0  0  0
  4  9  2  0  0  0  0
  6 10  2  0  0  0  0
  6  4  1  0  0  0  0
  7  5  1  0  0  0  0
  8  2  2  0  0  0  0
  8  5  1  0  0  0  0
  9  2  1  0  0  0  0
 10  8  1  0  0  0  0
 11  1  1  1  0  0  0
 11 10  1  0  0  0  0
 12 18  2  0  0  0  0
 12 16  1  0  0  0  0
 14 17  1  0  0  0  0
 14 13  1  0  0  0  0
 15 16  1  0  0  0  0
 16 14  2  0  0  0  0
 18 19  1  0  0  0  0
 19  4  1  0  0  0  0
 19 17  2  0  0  0  0
 20 24  1  0  0  0  0
 21 20  1  0  0  0  0
 23 21  1  1  0  0  0
 23 22  1  0  0  0  0
 24 22  1  6  0  0  0
 24 11  1  0  0  0  0
 25 26  1  6  0  0  0
 25 23  1  0  0  0  0
 26 27  1  0  0  0  0
 27 25  1  0  0  0  0
M  END
>  <MODEL>
6

>  <REMARK>
 VINA RESULT:      -8.4      1.901      2.392
  Name = 
  3 active torsions:
  status: ('A' for Active; 'I' for Inactive)
    1  A    between atoms: C_5  and  C_25
    2  A    between atoms: C_10  and  C_26
    3  A    between atoms: C_24  and  C_27
                            x       y       z     vdW  Elec       q    Type
                         _______ _______ _______ _____ _____    ______ ____

>  <TORSDO>
F 3

$$$$
=
 OpenBabel11062415443D

 27 31  0  0  1  0  0  0  0  0999 V2000
  189.4320  178.3670  137.9380 C   0  0  0  0  0  2  0  0  0  0  0  0
  187.0410  178.6290  141.4930 N   0  0  0  0  0  0  0  0  0  0  0  0
  188.1590  178.5770  137.1170 C   0  0  0  0  0  2  0  0  0  0  0  0
  188.9270  177.6470  142.5650 C   0  0  0  0  0  0  0  0  0  0  0  0
  186.7120  178.5880  139.1170 N   0  0  0  0  0  2  0  0  0  0  0  0
  189.3980  177.2780  141.3440 N   0  0  0  0  0  0  0  0  0  0  0  0
  186.8930  178.0360  137.7810 C   0  0  0  0  0  2  0  0  0  0  0  0
  187.4980  178.2510  140.2710 C   0  0  0  0  0  0  0  0  0  0  0  0
  187.7180  178.3460  142.6340 C   0  0  0  0  0  3  0  0  0  0  0  0
  188.7330  177.5590  140.1890 C   0  0  0  0  0  0  0  0  0  0  0  0
  189.3360  177.1540  138.8630 C   0  0  2  0  0  3  0  0  0  0  0  0
  191.6800  176.3880  144.8340 C   0  0  0  0  0  3  0  0  0  0  0  0
  189.4020  177.5950  147.4310 F   0  0  0  0  0  0  0  0  0  0  0  0
  189.9110  177.3020  146.2100 C   0  0  0  0  0  0  0  0  0  0  0  0
  191.8770  176.3800  147.2070 F   0  0  0  0  0  0  0  0  0  0  0  0
  191.1620  176.6870  146.0960 C   0  0  0  0  0  0  0  0  0  0  0  0
  189.1800  177.6160  145.0600 C   0  0  0  0  0  3  0  0  0  0  0  0
  190.9480  176.7010  143.6850 C   0  0  0  0  0  3  0  0  0  0  0  0
  189.6920  177.3180  143.7860 C   0  0  0  0  0  0  0  0  0  0  0  0
  191.7300  177.3520  139.2270 O   0  0  0  0  0  0  0  0  0  0  0  0
  192.8800  176.7180  138.7340 C   0  0  0  0  0  2  0  0  0  0  0  0
  191.0060  175.6230  137.7720 C   0  0  0  0  0  2  0  0  0  0  0  0
  192.4790  175.8330  137.5740 C   0  0  2  0  0  3  0  0  0  0  0  0
  190.6860  176.4400  139.0050 C   0  0  2  0  0  3  0  0  0  0  0  0
  193.2130  174.5070  137.6570 C   0  0  2  0  0  3  0  0  0  0  0  0
  194.6350  174.7410  137.8870 C   0  0  0  0  0  2  0  0  0  0  0  0
  194.1610  174.4070  136.5370 N   0  0  0  0  0  2  0  0  0  0  0  0
  2  9  1  0  0  0  0
  3  7  1  0  0  0  0
  3  1  1  0  0  0  0
  4  9  2  0  0  0  0
  4 19  1  0  0  0  0
  5  8  1  0  0  0  0
  6  4  1  0  0  0  0
  7  5  1  0  0  0  0
  8  2  2  0  0  0  0
 10  8  1  0  0  0  0
 10  6  2  0  0  0  0
 11  1  1  6  0  0  0
 11 24  1  0  0  0  0
 11 10  1  0  0  0  0
 12 16  1  0  0  0  0
 14 13  1  0  0  0  0
 16 14  2  0  0  0  0
 16 15  1  0  0  0  0
 17 14  1  0  0  0  0
 18 19  1  0  0  0  0
 18 12  2  0  0  0  0
 19 17  2  0  0  0  0
 21 20  1  0  0  0  0
 23 25  1  0  0  0  0
 23 22  1  1  0  0  0
 23 21  1  0  0  0  0
 24 22  1  6  0  0  0
 24 20  1  0  0  0  0
 25 26  1  1  0  0  0
 27 25  1  0  0  0  0
 27 26  1  0  0  0  0
M  END
>  <MODEL>
7

>  <REMARK>
 VINA RESULT:      -8.3      4.491      7.414
  Name = 
  3 active torsions:
  status: ('A' for Active; 'I' for Inactive)
    1  A    between atoms: C_5  and  C_25
    2  A    between atoms: C_10  and  C_26
    3  A    between atoms: C_24  and  C_27
                            x       y       z     vdW  Elec       q    Type
                         _______ _______ _______ _____ _____    ______ ____

>  <TORSDO>
F 3

$$$$
=
 OpenBabel11062415443D

 27 31  0  0  1  0  0  0  0  0999 V2000
  188.2840  178.2520  146.4160 C   0  0  0  0  0  2  0  0  0  0  0  0
  191.6800  177.1910  144.0150 N   0  0  0  0  0  0  0  0  0  0  0  0
  189.0460  177.7490  147.6420 C   0  0  0  0  0  2  0  0  0  0  0  0
  190.1640  177.3700  142.1880 C   0  0  0  0  0  0  0  0  0  0  0  0
  190.9690  176.9820  146.2970 N   0  0  0  0  0  2  0  0  0  0  0  0
  189.1320  177.3120  143.0710 N   0  0  0  0  0  0  0  0  0  0  0  0
  190.0240  176.6130  147.3440 C   0  0  0  0  0  2  0  0  0  0  0  0
  190.6530  177.1170  144.9020 C   0  0  0  0  0  0  0  0  0  0  0  0
  191.4710  177.3130  142.6810 C   0  0  0  0  0  3  0  0  0  0  0  0
  189.3250  177.1940  144.4140 C   0  0  0  0  0  0  0  0  0  0  0  0
  188.1300  177.1760  145.3410 C   0  0  2  0  0  3  0  0  0  0  0  0
  188.4570  178.2520  138.9290 C   0  0  0  0  0  3  0  0  0  0  0  0
  191.4390  176.6660  137.5210 F   0  0  0  0  0  0  0  0  0  0  0  0
  190.5480  177.1430  138.4230 C   0  0  0  0  0  0  0  0  0  0  0  0
  189.1110  177.8920  136.6680 F   0  0  0  0  0  0  0  0  0  0  0  0
  189.3710  177.7630  137.9930 C   0  0  0  0  0  0  0  0  0  0  0  0
  190.8100  177.0140  139.7910 C   0  0  0  0  0  3  0  0  0  0  0  0
  188.7190  178.1220  140.2960 C   0  0  0  0  0  3  0  0  0  0  0  0
  189.8970  177.5020  140.7400 C   0  0  0  0  0  0  0  0  0  0  0  0
  186.9510  177.8780  143.3360 O   0  0  0  0  0  0  0  0  0  0  0  0
  185.7170  178.4810  143.0520 C   0  0  0  0  0  2  0  0  0  0  0  0
  185.8010  178.1220  145.3970 C   0  0  0  0  0  2  0  0  0  0  0  0
  185.0970  178.9390  144.3540 C   0  0  2  0  0  3  0  0  0  0  0  0
  186.7910  177.2960  144.6040 C   0  0  2  0  0  3  0  0  0  0  0  0
  183.6120  178.6280  144.3580 C   0  0  2  0  0  3  0  0  0  0  0  0
  183.0760  178.7430  143.0050 C   0  0  0  0  0  2  0  0  0  0  0  0
  182.8620  179.8320  143.9690 N   0  0  0  0  0  2  0  0  0  0  0  0
  1  3  1  0  0  0  0
  2  8  2  0  0  0  0
  4  9  2  0  0  0  0
  4  6  1  0  0  0  0
  5  7  1  0  0  0  0
  6 10  2  0  0  0  0
  7  3  1  0  0  0  0
  8  5  1  0  0  0  0
  9  2  1  0  0  0  0
 10  8  1  0  0  0  0
 10 11  1  0  0  0  0
 11  1  1  1  0  0  0
 12 18  1  0  0  0  0
 13 14  1  0  0  0  0
 14 17  2  0  0  0  0
 15 16  1  0  0  0  0
 16 14  1  0  0  0  0
 16 12  2  0  0  0  0
 17 19  1  0  0  0  0
 18 19  2  0  0  0  0
 19  4  1  0  0  0  0
 20 24  1  0  0  0  0
 21 20  1  0  0  0  0
 23 21  1  6  0  0  0
 23 25  1  0  0  0  0
 23 22  1  0  0  0  0
 24 11  1  0  0  0  0
 24 22  1  1  0  0  0
 25 26  1  6  0  0  0
 26 27  1  0  0  0  0
 27 25  1  0  0  0  0
M  END
>  <MODEL>
8

>  <REMARK>
 VINA RESULT:      -8.3      3.275      6.456
  Name = 
  3 active torsions:
  status: ('A' for Active; 'I' for Inactive)
    1  A    between atoms: C_5  and  C_25
    2  A    between atoms: C_10  and  C_26
    3  A    between atoms: C_24  and  C_27
                            x       y       z     vdW  Elec       q    Type
                         _______ _______ _______ _____ _____    ______ ____

>  <TORSDO>
F 3

$$$$
=
 OpenBabel11062415443D

 27 31  0  0  1  0  0  0  0  0999 V2000
  189.4730  178.6300  139.0510 C   0  0  0  0  0  2  0  0  0  0  0  0
  185.2980  179.0340  139.9610 N   0  0  0  0  0  0  0  0  0  0  0  0
  189.1000  178.5500  137.5700 C   0  0  0  0  0  2  0  0  0  0  0  0
  185.9560  178.4740  142.1790 C   0  0  0  0  0  0  0  0  0  0  0  0
  186.6780  178.6300  138.0400 N   0  0  0  0  0  2  0  0  0  0  0  0
  187.1360  178.0130  141.6870 N   0  0  0  0  0  0  0  0  0  0  0  0
  187.7270  177.9330  137.3070 C   0  0  0  0  0  2  0  0  0  0  0  0
  186.4700  178.5620  139.4600 C   0  0  0  0  0  0  0  0  0  0  0  0
  185.0180  179.0020  141.2870 C   0  0  0  0  0  3  0  0  0  0  0  0
  187.4350  178.0420  140.3580 C   0  0  0  0  0  0  0  0  0  0  0  0
  188.7850  177.5500  139.8860 C   0  0  2  0  0  3  0  0  0  0  0  0
  184.2140  178.8790  145.5130 C   0  0  0  0  0  3  0  0  0  0  0  0
  187.2760  177.2910  146.7360 F   0  0  0  0  0  0  0  0  0  0  0  0
  186.3600  177.8250  145.8920 C   0  0  0  0  0  0  0  0  0  0  0  0
  184.8910  178.2890  147.7190 F   0  0  0  0  0  0  0  0  0  0  0  0
  185.1540  178.3300  146.3890 C   0  0  0  0  0  0  0  0  0  0  0  0
  186.6240  177.8710  144.5200 C   0  0  0  0  0  3  0  0  0  0  0  0
  184.4790  178.9250  144.1410 C   0  0  0  0  0  3  0  0  0  0  0  0
  185.6860  178.4210  143.6310 C   0  0  0  0  0  0  0  0  0  0  0  0
  189.0610  176.0320  141.7620 O   0  0  0  0  0  0  0  0  0  0  0  0
  189.6310  176.1060  143.0420 C   0  0  0  0  0  2  0  0  0  0  0  0
  190.0420  178.1830  141.9690 C   0  0  0  0  0  2  0  0  0  0  0  0
  189.9810  177.5500  143.3280 C   0  0  2  0  0  3  0  0  0  0  0  0
  189.6820  177.0550  141.0270 C   0  0  2  0  0  3  0  0  0  0  0  0
  191.3380  177.6290  144.0040 C   0  0  2  0  0  3  0  0  0  0  0  0
  191.6210  176.3750  144.6960 C   0  0  0  0  0  2  0  0  0  0  0  0
  191.1590  177.5410  145.4620 N   0  0  0  0  0  2  0  0  0  0  0  0
  2  9  1  0  0  0  0
  3  1  1  0  0  0  0
  4 19  1  0  0  0  0
  5  8  1  0  0  0  0
  6  4  1  0  0  0  0
  7  3  1  0  0  0  0
  7  5  1  0  0  0  0
  8  2  2  0  0  0  0
  8 10  1  0  0  0  0
  9  4  2  0  0  0  0
 10  6  2  0  0  0  0
 11  1  1  1  0  0  0
 11 10  1  0  0  0  0
 11 24  1  0  0  0  0
 12 16  1  0  0  0  0
 14 16  2  0  0  0  0
 14 13  1  0  0  0  0
 16 15  1  0  0  0  0
 17 14  1  0  0  0  0
 18 12  2  0  0  0  0
 19 18  1  0  0  0  0
 19 17  2  0  0  0  0
 20 21  1  0  0  0  0
 21 23  1  0  0  0  0
 23 22  1  6  0  0  0
 23 25  1  0  0  0  0
 24 20  1  0  0  0  0
 24 22  1  1  0  0  0
 25 26  1  6  0  0  0
 25 27  1  0  0  0  0
 26 27  1  0  0  0  0
M  END
>  <MODEL>
9

>  <REMARK>
 VINA RESULT:      -8.1      3.316      5.770
  Name = 
  3 active torsions:
  status: ('A' for Active; 'I' for Inactive)
    1  A    between atoms: C_5  and  C_25
    2  A    between atoms: C_10  and  C_26
    3  A    between atoms: C_24  and  C_27
                            x       y       z     vdW  Elec       q    Type
                         _______ _______ _______ _____ _____    ______ ____

>  <TORSDO>
F 3

$$$$
