=
 OpenBabel11062415273D

 37 41  0  0  1  0  0  0  0  0999 V2000
  193.1350  177.1470  138.9920 C   0  0  0  0  0  2  0  0  0  0  0  0
  193.5600  176.6060  137.7020 N   0  0  0  0  0  2  0  0  0  0  0  0
  191.7230  175.0870  137.5650 C   0  0  0  0  0  0  0  0  0  0  0  0
  191.1520  175.7420  138.7040 N   0  0  0  0  0  0  0  0  0  0  0  0
  191.1310  177.2620  140.5200 N   0  0  0  0  0  2  0  0  0  0  0  0
  192.8930  175.5110  137.0700 C   0  0  0  0  0  0  0  0  0  0  0  0
  191.7490  176.6930  139.3630 C   0  0  0  0  0  0  0  0  0  0  0  0
  188.6800  176.0390  143.1160 C   0  0  0  0  0  2  0  0  0  0  0  0
  187.7480  177.9320  141.6530 C   0  0  0  0  0  0  0  0  0  0  0  0
  187.6240  177.1550  142.9430 C   0  0  2  0  0  3  0  0  0  0  0  0
  189.8740  176.7710  141.0680 C   0  0  2  0  0  3  0  0  0  0  0  0
  188.7930  177.7850  140.8300 C   0  0  0  0  0  3  0  0  0  0  0  0
  186.7640  178.8570  141.3270 O   0  0  0  0  0  1  0  0  0  0  0  0
  190.0300  176.4660  142.5540 C   0  0  0  0  0  2  0  0  0  0  0  0
  187.5080  178.0610  144.0980 N   0  0  0  0  0  0  0  0  0  0  0  0
  186.2360  178.0920  146.1210 C   0  0  0  0  0  2  0  0  0  0  0  0
  187.5770  177.4930  146.4460 C   0  0  0  0  0  2  0  0  0  0  0  0
  188.4030  177.6680  145.1900 C   0  0  0  0  0  2  0  0  0  0  0  0
  186.1470  178.0070  144.6180 C   0  0  0  0  0  2  0  0  0  0  0  0
  193.2140  175.5970  134.7320 O   0  0  0  0  0  1  0  0  0  0  0  0
  193.5300  174.8710  135.8810 C   0  0  0  0  0  2  0  0  0  0  0  0
  190.8340  173.7060  136.8420 S   0  0  0  0  0  0  0  0  0  0  0  0
  189.2570  174.5920  136.9630 C   0  0  0  0  0  2  0  0  0  0  0  0
  186.0000  174.4820  135.8500 N   0  0  0  0  0  0  0  0  0  0  0  0
  186.3340  173.2540  136.0380 C   0  0  0  0  0  0  0  0  0  0  0  0
  187.7250  172.9970  135.9740 N   0  0  0  0  0  2  0  0  0  0  0  0
  185.3340  172.1960  136.3360 C   0  0  0  0  0  1  0  0  0  0  0  0
  187.1980  175.2600  135.5660 C   0  0  2  0  0  3  0  0  0  0  0  0
  188.3770  174.2770  135.7600 C   0  0  1  0  0  3  0  0  0  0  0  0
  186.1690  178.0670  137.8890 C   0  0  0  0  0  0  0  0  0  0  0  0
  186.1530  176.8680  137.1730 C   0  0  0  0  0  3  0  0  0  0  0  0
  188.3050  178.6090  137.0030 C   0  0  0  0  0  0  0  0  0  0  0  0
  187.2360  178.9050  137.7900 N   0  0  0  0  0  0  0  0  0  0  0  0
  188.3280  177.4190  136.2730 C   0  0  0  0  0  3  0  0  0  0  0  0
  187.2430  176.5360  136.3650 C   0  0  0  0  0  0  0  0  0  0  0  0
  185.1220  178.3940  138.6830 F   0  0  0  0  0  0  0  0  0  0  0  0
  189.3460  179.4720  136.9230 F   0  0  0  0  0  0  0  0  0  0  0  0
  1  7  1  0  0  0  0
  2  1  1  0  0  0  0
  3  4  1  0  0  0  0
  4  7  2  0  0  0  0
  6  3  2  0  0  0  0
  6  2  1  0  0  0  0
  7  5  1  0  0  0  0
  9 10  1  0  0  0  0
 10  8  1  1  0  0  0
 10 15  1  0  0  0  0
 11  5  1  1  0  0  0
 11 14  1  0  0  0  0
 12 11  1  0  0  0  0
 12  9  2  0  0  0  0
 13  9  1  0  0  0  0
 14  8  1  0  0  0  0
 15 19  1  0  0  0  0
 15 18  1  0  0  0  0
 16 17  1  0  0  0  0
 18 17  1  0  0  0  0
 19 16  1  0  0  0  0
 20 21  1  0  0  0  0
 21  6  1  0  0  0  0
 22 23  1  0  0  0  0
 22  3  1  0  0  0  0
 24 25  2  0  0  0  0
 25 27  1  0  0  0  0
 26 25  1  0  0  0  0
 28 29  1  0  0  0  0
 28 24  1  0  0  0  0
 28 35  1  1  0  0  0
 29 26  1  0  0  0  0
 29 23  1  1  0  0  0
 30 36  1  0  0  0  0
 31 30  2  0  0  0  0
 32 33  2  0  0  0  0
 33 30  1  0  0  0  0
 34 35  2  0  0  0  0
 34 32  1  0  0  0  0
 35 31  1  0  0  0  0
 37 32  1  0  0  0  0
M  END
>  <MODEL>
1

>  <REMARK>
 VINA RESULT:      -8.2      0.000      0.000
  Name = 
  7 active torsions:
  status: ('A' for Active; 'I' for Inactive)
    1  A    between atoms: C_8  and  S_16
    2  A    between atoms: N_9  and  C_14
    3  A    between atoms: S_16  and  C_20
    4  A    between atoms: C_18  and  N_26
    5  A    between atoms: C_20  and  C_33
    6  A    between atoms: C_24  and  C_29
    7  A    between atoms: C_28  and  CA_31
                            x       y       z     vdW  Elec       q    Type
                         _______ _______ _______ _____ _____    ______ ____

>  <TORSDO>
F 7

$$$$
=
 OpenBabel11062415273D

 37 41  0  0  1  0  0  0  0  0999 V2000
  183.0990  179.1250  144.6580 C   0  0  0  0  0  2  0  0  0  0  0  0
  184.0660  179.2730  145.7450 N   0  0  0  0  0  2  0  0  0  0  0  0
  185.7470  178.0040  144.6210 C   0  0  0  0  0  0  0  0  0  0  0  0
  184.9220  178.0290  143.4490 N   0  0  0  0  0  0  0  0  0  0  0  0
  182.9490  178.4890  142.2220 N   0  0  0  0  0  2  0  0  0  0  0  0
  185.3350  178.6150  145.7380 C   0  0  0  0  0  0  0  0  0  0  0  0
  183.7280  178.5470  143.4200 C   0  0  0  0  0  0  0  0  0  0  0  0
  182.6870  176.6740  138.9230 C   0  0  0  0  0  2  0  0  0  0  0  0
  184.3600  178.6210  138.8800 C   0  0  0  0  0  0  0  0  0  0  0  0
  183.5000  177.6760  138.0720 C   0  0  2  0  0  3  0  0  0  0  0  0
  183.3940  177.7920  141.0220 C   0  0  2  0  0  3  0  0  0  0  0  0
  184.2740  178.7000  140.2130 C   0  0  0  0  0  3  0  0  0  0  0  0
  185.2420  179.4630  138.2150 O   0  0  0  0  0  1  0  0  0  0  0  0
  182.1920  177.3190  140.2120 C   0  0  0  0  0  2  0  0  0  0  0  0
  182.7020  178.4070  137.0740 N   0  0  0  0  0  0  0  0  0  0  0  0
  180.5300  178.1580  136.1120 C   0  0  0  0  0  2  0  0  0  0  0  0
  180.4040  179.1330  137.2490 C   0  0  0  0  0  2  0  0  0  0  0  0
  181.8250  179.3990  137.7010 C   0  0  0  0  0  2  0  0  0  0  0  0
  181.8470  177.4670  136.3590 C   0  0  0  0  0  2  0  0  0  0  0  0
  185.8530  179.7620  147.7370 O   0  0  0  0  0  1  0  0  0  0  0  0
  186.1580  178.6270  146.9850 C   0  0  0  0  0  2  0  0  0  0  0  0
  187.3170  177.1390  144.5380 S   0  0  0  0  0  0  0  0  0  0  0  0
  187.8200  178.0860  143.0750 C   0  0  0  0  0  2  0  0  0  0  0  0
  190.0810  177.4490  140.5580 N   0  0  0  0  0  0  0  0  0  0  0  0
  189.0580  177.9620  139.9710 C   0  0  0  0  0  0  0  0  0  0  0  0
  187.8340  177.8160  140.6680 N   0  0  0  0  0  2  0  0  0  0  0  0
  189.1640  178.6830  138.6750 C   0  0  0  0  0  1  0  0  0  0  0  0
  189.6470  176.8040  141.7900 C   0  0  2  0  0  3  0  0  0  0  0  0
  188.1440  177.1480  141.9200 C   0  0  1  0  0  3  0  0  0  0  0  0
  191.6160  176.5210  145.0100 C   0  0  0  0  0  0  0  0  0  0  0  0
  190.8300  176.1870  143.9050 C   0  0  0  0  0  3  0  0  0  0  0  0
  191.7860  178.7650  144.2540 C   0  0  0  0  0  0  0  0  0  0  0  0
  192.0750  177.7930  145.1600 N   0  0  0  0  0  0  0  0  0  0  0  0
  191.0050  178.4700  143.1350 C   0  0  0  0  0  3  0  0  0  0  0  0
  190.5270  177.1650  142.9560 C   0  0  0  0  0  0  0  0  0  0  0  0
  191.9230  175.5770  145.9320 F   0  0  0  0  0  0  0  0  0  0  0  0
  192.2530  180.0230  144.4410 F   0  0  0  0  0  0  0  0  0  0  0  0
  1  2  1  0  0  0  0
  3  6  2  0  0  0  0
  4  3  1  0  0  0  0
  5  7  1  0  0  0  0
  6  2  1  0  0  0  0
  6 21  1  0  0  0  0
  7  4  2  0  0  0  0
  7  1  1  0  0  0  0
  8 14  1  0  0  0  0
  9 12  2  0  0  0  0
 10 15  1  1  0  0  0
 10  9  1  0  0  0  0
 10  8  1  0  0  0  0
 11  5  1  1  0  0  0
 12 11  1  0  0  0  0
 13  9  1  0  0  0  0
 14 11  1  0  0  0  0
 15 18  1  0  0  0  0
 16 19  1  0  0  0  0
 16 17  1  0  0  0  0
 17 18  1  0  0  0  0
 19 15  1  0  0  0  0
 21 20  1  0  0  0  0
 22  3  1  0  0  0  0
 23 22  1  0  0  0  0
 24 28  1  0  0  0  0
 25 24  2  0  0  0  0
 25 26  1  0  0  0  0
 26 29  1  0  0  0  0
 27 25  1  0  0  0  0
 28 29  1  0  0  0  0
 28 35  1  1  0  0  0
 29 23  1  1  0  0  0
 30 33  1  0  0  0  0
 30 36  1  0  0  0  0
 31 30  2  0  0  0  0
 32 37  1  0  0  0  0
 32 33  2  0  0  0  0
 34 32  1  0  0  0  0
 35 34  2  0  0  0  0
 35 31  1  0  0  0  0
M  END
>  <MODEL>
2

>  <REMARK>
 VINA RESULT:      -8.0      4.556      8.984
  Name = 
  7 active torsions:
  status: ('A' for Active; 'I' for Inactive)
    1  A    between atoms: C_8  and  S_16
    2  A    between atoms: N_9  and  C_14
    3  A    between atoms: S_16  and  C_20
    4  A    between atoms: C_18  and  N_26
    5  A    between atoms: C_20  and  C_33
    6  A    between atoms: C_24  and  C_29
    7  A    between atoms: C_28  and  CA_31
                            x       y       z     vdW  Elec       q    Type
                         _______ _______ _______ _____ _____    ______ ____

>  <TORSDO>
F 7

$$$$
=
 OpenBabel11062415273D

 37 41  0  0  1  0  0  0  0  0999 V2000
  183.0390  179.0870  144.5200 C   0  0  0  0  0  2  0  0  0  0  0  0
  184.0050  179.2790  145.6010 N   0  0  0  0  0  2  0  0  0  0  0  0
  185.7120  178.0240  144.4990 C   0  0  0  0  0  0  0  0  0  0  0  0
  184.8840  178.0070  143.3290 N   0  0  0  0  0  0  0  0  0  0  0  0
  182.8980  178.3960  142.0980 N   0  0  0  0  0  2  0  0  0  0  0  0
  185.2880  178.6500  145.6040 C   0  0  0  0  0  0  0  0  0  0  0  0
  183.6780  178.4970  143.2920 C   0  0  0  0  0  0  0  0  0  0  0  0
  182.6710  176.5350  138.8220 C   0  0  0  0  0  2  0  0  0  0  0  0
  184.3400  178.4870  138.7680 C   0  0  0  0  0  0  0  0  0  0  0  0
  183.4900  177.5280  137.9650 C   0  0  2  0  0  3  0  0  0  0  0  0
  183.3560  177.6840  140.9120 C   0  0  2  0  0  3  0  0  0  0  0  0
  184.2410  178.5830  140.0980 C   0  0  0  0  0  3  0  0  0  0  0  0
  185.2260  179.3220  138.0990 O   0  0  0  0  0  1  0  0  0  0  0  0
  182.1630  177.1960  140.0970 C   0  0  0  0  0  2  0  0  0  0  0  0
  182.6990  178.2430  136.9500 N   0  0  0  0  0  0  0  0  0  0  0  0
  180.5250  177.9920  135.9920 C   0  0  0  0  0  2  0  0  0  0  0  0
  180.4080  178.9940  137.1060 C   0  0  0  0  0  2  0  0  0  0  0  0
  181.8300  179.2580  137.5520 C   0  0  0  0  0  2  0  0  0  0  0  0
  181.8360  177.2950  136.2550 C   0  0  0  0  0  2  0  0  0  0  0  0
  185.7380  179.8130  147.6100 O   0  0  0  0  0  1  0  0  0  0  0  0
  186.1140  178.7070  146.8480 C   0  0  0  0  0  2  0  0  0  0  0  0
  187.3010  177.1940  144.4300 S   0  0  0  0  0  0  0  0  0  0  0  0
  187.7830  178.1290  142.9530 C   0  0  0  0  0  2  0  0  0  0  0  0
  190.1270  177.4180  140.5340 N   0  0  0  0  0  0  0  0  0  0  0  0
  189.1480  177.9650  139.9040 C   0  0  0  0  0  0  0  0  0  0  0  0
  187.8920  177.8590  140.5480 N   0  0  0  0  0  2  0  0  0  0  0  0
  189.3320  178.6820  138.6160 C   0  0  0  0  0  1  0  0  0  0  0  0
  189.6200  176.7880  141.7440 C   0  0  2  0  0  3  0  0  0  0  0  0
  188.1250  177.1810  141.8120 C   0  0  1  0  0  3  0  0  0  0  0  0
  191.7310  178.7380  144.2080 C   0  0  0  0  0  0  0  0  0  0  0  0
  190.9200  178.4280  143.1140 C   0  0  0  0  0  3  0  0  0  0  0  0
  191.6520  176.4850  144.9510 C   0  0  0  0  0  0  0  0  0  0  0  0
  192.0770  177.7680  145.0960 N   0  0  0  0  0  0  0  0  0  0  0  0
  190.8370  176.1350  143.8720 C   0  0  0  0  0  3  0  0  0  0  0  0
  190.4620  177.1190  142.9480 C   0  0  0  0  0  0  0  0  0  0  0  0
  192.1740  180.0060  144.3830 F   0  0  0  0  0  0  0  0  0  0  0  0
  192.0230  175.5430  145.8510 F   0  0  0  0  0  0  0  0  0  0  0  0
  1  2  1  0  0  0  0
  2  6  1  0  0  0  0
  3  6  2  0  0  0  0
  4  3  1  0  0  0  0
  5  7  1  0  0  0  0
  6 21  1  0  0  0  0
  7  4  2  0  0  0  0
  7  1  1  0  0  0  0
  8 14  1  0  0  0  0
  9 12  2  0  0  0  0
 10 15  1  1  0  0  0
 10  9  1  0  0  0  0
 10  8  1  0  0  0  0
 11  5  1  1  0  0  0
 12 11  1  0  0  0  0
 13  9  1  0  0  0  0
 14 11  1  0  0  0  0
 15 18  1  0  0  0  0
 16 19  1  0  0  0  0
 16 17  1  0  0  0  0
 17 18  1  0  0  0  0
 19 15  1  0  0  0  0
 21 20  1  0  0  0  0
 22  3  1  0  0  0  0
 23 22  1  0  0  0  0
 24 28  1  0  0  0  0
 25 24  2  0  0  0  0
 25 26  1  0  0  0  0
 26 29  1  0  0  0  0
 27 25  1  0  0  0  0
 28 29  1  0  0  0  0
 28 35  1  1  0  0  0
 29 23  1  1  0  0  0
 30 36  1  0  0  0  0
 30 33  1  0  0  0  0
 31 30  2  0  0  0  0
 32 33  2  0  0  0  0
 32 37  1  0  0  0  0
 34 32  1  0  0  0  0
 35 31  1  0  0  0  0
 35 34  2  0  0  0  0
M  END
>  <MODEL>
3

>  <REMARK>
 VINA RESULT:      -7.9      4.503      9.018
  Name = 
  7 active torsions:
  status: ('A' for Active; 'I' for Inactive)
    1  A    between atoms: C_8  and  S_16
    2  A    between atoms: N_9  and  C_14
    3  A    between atoms: S_16  and  C_20
    4  A    between atoms: C_18  and  N_26
    5  A    between atoms: C_20  and  C_33
    6  A    between atoms: C_24  and  C_29
    7  A    between atoms: C_28  and  CA_31
                            x       y       z     vdW  Elec       q    Type
                         _______ _______ _______ _____ _____    ______ ____

>  <TORSDO>
F 7

$$$$
=
 OpenBabel11062415273D

 37 41  0  0  1  0  0  0  0  0999 V2000
  189.0520  179.2010  137.8940 C   0  0  0  0  0  2  0  0  0  0  0  0
  189.0860  178.6820  136.5270 N   0  0  0  0  0  2  0  0  0  0  0  0
  188.6180  176.4410  137.2080 C   0  0  0  0  0  0  0  0  0  0  0  0
  188.3490  176.9430  138.5240 N   0  0  0  0  0  0  0  0  0  0  0  0
  188.2690  178.5990  140.2150 N   0  0  0  0  0  2  0  0  0  0  0  0
  188.9700  177.2880  136.2320 C   0  0  0  0  0  0  0  0  0  0  0  0
  188.5120  178.1880  138.8670 C   0  0  0  0  0  0  0  0  0  0  0  0
  188.7200  176.4570  143.2890 C   0  0  0  0  0  2  0  0  0  0  0  0
  186.6380  177.9570  143.3940 C   0  0  0  0  0  0  0  0  0  0  0  0
  187.6380  177.1270  144.1670 C   0  0  2  0  0  3  0  0  0  0  0  0
  187.9180  177.6640  141.2760 C   0  0  2  0  0  3  0  0  0  0  0  0
  186.7950  178.2330  142.0950 C   0  0  0  0  0  3  0  0  0  0  0  0
  185.5390  178.4810  144.0620 O   0  0  0  0  0  1  0  0  0  0  0  0
  189.1380  177.3660  142.1400 C   0  0  0  0  0  2  0  0  0  0  0  0
  188.1710  177.8750  145.3170 N   0  0  0  0  0  0  0  0  0  0  0  0
  188.4070  177.4630  147.6590 C   0  0  0  0  0  2  0  0  0  0  0  0
  189.7130  177.1010  147.0090 C   0  0  0  0  0  2  0  0  0  0  0  0
  189.5780  177.5530  145.5700 C   0  0  0  0  0  2  0  0  0  0  0  0
  187.4240  177.5120  146.5160 C   0  0  0  0  0  2  0  0  0  0  0  0
  190.6250  176.6320  134.6810 O   0  0  0  0  0  1  0  0  0  0  0  0
  189.2520  176.8210  134.8420 C   0  0  0  0  0  2  0  0  0  0  0  0
  188.4700  174.6760  136.9230 S   0  0  0  0  0  0  0  0  0  0  0  0
  186.6670  174.7450  137.1140 C   0  0  0  0  0  2  0  0  0  0  0  0
  183.6460  174.7210  135.4640 N   0  0  0  0  0  0  0  0  0  0  0  0
  184.2510  173.6540  135.0750 C   0  0  0  0  0  0  0  0  0  0  0  0
  185.6620  173.7000  135.1730 N   0  0  0  0  0  2  0  0  0  0  0  0
  183.5180  172.4550  134.5940 C   0  0  0  0  0  1  0  0  0  0  0  0
  184.6380  175.7120  135.8580 C   0  0  2  0  0  3  0  0  0  0  0  0
  185.9990  174.9830  135.7670 C   0  0  1  0  0  3  0  0  0  0  0  0
  182.9810  176.3700  139.1970 C   0  0  0  0  0  0  0  0  0  0  0  0
  183.3260  175.7640  137.9870 C   0  0  0  0  0  3  0  0  0  0  0  0
  184.5270  178.1280  138.7990 C   0  0  0  0  0  0  0  0  0  0  0  0
  183.5830  177.5300  139.5750 N   0  0  0  0  0  0  0  0  0  0  0  0
  184.9020  177.5510  137.5840 C   0  0  0  0  0  3  0  0  0  0  0  0
  184.3000  176.3530  137.1770 C   0  0  0  0  0  0  0  0  0  0  0  0
  182.0440  175.8030  139.9940 F   0  0  0  0  0  0  0  0  0  0  0  0
  185.1000  179.2870  139.2030 F   0  0  0  0  0  0  0  0  0  0  0  0
  1  7  1  0  0  0  0
  2  1  1  0  0  0  0
  3  4  1  0  0  0  0
  4  7  2  0  0  0  0
  6  2  1  0  0  0  0
  6  3  2  0  0  0  0
  7  5  1  0  0  0  0
  9 13  1  0  0  0  0
  9 10  1  0  0  0  0
 10  8  1  6  0  0  0
 10 15  1  0  0  0  0
 11  5  1  6  0  0  0
 11 12  1  0  0  0  0
 11 14  1  0  0  0  0
 12  9  2  0  0  0  0
 14  8  1  0  0  0  0
 15 18  1  0  0  0  0
 15 19  1  0  0  0  0
 17 16  1  0  0  0  0
 18 17  1  0  0  0  0
 19 16  1  0  0  0  0
 20 21  1  0  0  0  0
 21  6  1  0  0  0  0
 22 23  1  0  0  0  0
 22  3  1  0  0  0  0
 24 28  1  0  0  0  0
 25 26  1  0  0  0  0
 25 24  2  0  0  0  0
 26 29  1  0  0  0  0
 27 25  1  0  0  0  0
 28 35  1  1  0  0  0
 29 28  1  0  0  0  0
 29 23  1  1  0  0  0
 30 33  1  0  0  0  0
 30 36  1  0  0  0  0
 31 30  2  0  0  0  0
 32 37  1  0  0  0  0
 32 33  2  0  0  0  0
 34 32  1  0  0  0  0
 35 34  2  0  0  0  0
 35 31  1  0  0  0  0
M  END
>  <MODEL>
4

>  <REMARK>
 VINA RESULT:      -7.7      2.519      3.140
  Name = 
  7 active torsions:
  status: ('A' for Active; 'I' for Inactive)
    1  A    between atoms: C_8  and  S_16
    2  A    between atoms: N_9  and  C_14
    3  A    between atoms: S_16  and  C_20
    4  A    between atoms: C_18  and  N_26
    5  A    between atoms: C_20  and  C_33
    6  A    between atoms: C_24  and  C_29
    7  A    between atoms: C_28  and  CA_31
                            x       y       z     vdW  Elec       q    Type
                         _______ _______ _______ _____ _____    ______ ____

>  <TORSDO>
F 7

$$$$
=
 OpenBabel11062415273D

 37 41  0  0  1  0  0  0  0  0999 V2000
  182.8630  179.0340  144.0270 C   0  0  0  0  0  2  0  0  0  0  0  0
  183.8710  179.1420  145.0810 N   0  0  0  0  0  2  0  0  0  0  0  0
  185.5740  178.1120  143.7620 C   0  0  0  0  0  0  0  0  0  0  0  0
  184.6930  178.1950  142.6360 N   0  0  0  0  0  0  0  0  0  0  0  0
  182.6350  178.6330  141.5480 N   0  0  0  0  0  2  0  0  0  0  0  0
  185.1790  178.5790  144.9530 C   0  0  0  0  0  0  0  0  0  0  0  0
  183.4670  178.6270  142.7110 C   0  0  0  0  0  0  0  0  0  0  0  0
  183.0910  176.0980  138.7890 C   0  0  0  0  0  2  0  0  0  0  0  0
  182.1410  178.3360  137.9630 C   0  0  0  0  0  0  0  0  0  0  0  0
  182.3360  176.8640  137.6790 C   0  0  2  0  0  3  0  0  0  0  0  0
  183.0650  178.0920  140.2650 C   0  0  2  0  0  3  0  0  0  0  0  0
  182.4320  178.8760  139.1520 C   0  0  0  0  0  3  0  0  0  0  0  0
  181.6090  179.1480  136.9700 O   0  0  0  0  0  1  0  0  0  0  0  0
  182.7090  176.6120  140.1710 C   0  0  0  0  0  2  0  0  0  0  0  0
  181.0730  176.2330  137.2610 N   0  0  0  0  0  0  0  0  0  0  0  0
  179.9980  174.1380  137.6630 C   0  0  0  0  0  2  0  0  0  0  0  0
  179.4350  175.1250  138.6480 C   0  0  0  0  0  2  0  0  0  0  0  0
  180.0020  176.4650  138.2330 C   0  0  0  0  0  2  0  0  0  0  0  0
  181.2630  174.7910  137.1670 C   0  0  0  0  0  2  0  0  0  0  0  0
  185.3620  178.9960  147.2700 O   0  0  0  0  0  1  0  0  0  0  0  0
  186.0600  178.5250  146.1580 C   0  0  0  0  0  2  0  0  0  0  0  0
  187.1920  177.3720  143.5250 S   0  0  0  0  0  0  0  0  0  0  0  0
  187.5200  178.4280  142.0870 C   0  0  0  0  0  2  0  0  0  0  0  0
  189.8040  177.8390  139.5790 N   0  0  0  0  0  0  0  0  0  0  0  0
  188.8460  178.4890  139.0170 C   0  0  0  0  0  0  0  0  0  0  0  0
  187.5920  178.3820  139.6660 N   0  0  0  0  0  2  0  0  0  0  0  0
  189.0540  179.3150  137.8000 C   0  0  0  0  0  1  0  0  0  0  0  0
  189.2770  177.1210  140.7320 C   0  0  2  0  0  3  0  0  0  0  0  0
  187.8040  177.5770  140.8570 C   0  0  1  0  0  3  0  0  0  0  0  0
  191.4890  176.3160  143.6970 C   0  0  0  0  0  0  0  0  0  0  0  0
  190.7110  176.1680  142.5460 C   0  0  0  0  0  3  0  0  0  0  0  0
  191.1350  178.6640  143.6760 C   0  0  0  0  0  0  0  0  0  0  0  0
  191.6830  177.5510  144.2330 N   0  0  0  0  0  0  0  0  0  0  0  0
  190.3530  178.5570  142.5240 C   0  0  0  0  0  3  0  0  0  0  0  0
  190.1450  177.2960  141.9490 C   0  0  0  0  0  0  0  0  0  0  0  0
  192.0500  175.2290  144.2780 F   0  0  0  0  0  0  0  0  0  0  0  0
  191.3430  179.8770  144.2430 F   0  0  0  0  0  0  0  0  0  0  0  0
  1  2  1  0  0  0  0
  3  6  2  0  0  0  0
  4  7  2  0  0  0  0
  4  3  1  0  0  0  0
  5  7  1  0  0  0  0
  6  2  1  0  0  0  0
  6 21  1  0  0  0  0
  7  1  1  0  0  0  0
  8 14  1  0  0  0  0
  9 12  2  0  0  0  0
 10 15  1  1  0  0  0
 10  9  1  0  0  0  0
 10  8  1  0  0  0  0
 11  5  1  1  0  0  0
 12 11  1  0  0  0  0
 13  9  1  0  0  0  0
 14 11  1  0  0  0  0
 15 18  1  0  0  0  0
 16 17  1  0  0  0  0
 18 17  1  0  0  0  0
 19 15  1  0  0  0  0
 19 16  1  0  0  0  0
 21 20  1  0  0  0  0
 22  3  1  0  0  0  0
 23 22  1  0  0  0  0
 24 28  1  0  0  0  0
 25 24  2  0  0  0  0
 25 26  1  0  0  0  0
 26 29  1  0  0  0  0
 27 25  1  0  0  0  0
 28 29  1  0  0  0  0
 28 35  1  1  0  0  0
 29 23  1  1  0  0  0
 30 33  1  0  0  0  0
 30 36  1  0  0  0  0
 31 30  2  0  0  0  0
 32 33  2  0  0  0  0
 32 37  1  0  0  0  0
 34 32  1  0  0  0  0
 35 34  2  0  0  0  0
 35 31  1  0  0  0  0
M  END
>  <MODEL>
5

>  <REMARK>
 VINA RESULT:      -7.6      4.676      8.828
  Name = 
  7 active torsions:
  status: ('A' for Active; 'I' for Inactive)
    1  A    between atoms: C_8  and  S_16
    2  A    between atoms: N_9  and  C_14
    3  A    between atoms: S_16  and  C_20
    4  A    between atoms: C_18  and  N_26
    5  A    between atoms: C_20  and  C_33
    6  A    between atoms: C_24  and  C_29
    7  A    between atoms: C_28  and  CA_31
                            x       y       z     vdW  Elec       q    Type
                         _______ _______ _______ _____ _____    ______ ____

>  <TORSDO>
F 7

$$$$
=
 OpenBabel11062415273D

 37 41  0  0  1  0  0  0  0  0999 V2000
  189.2770  178.8630  138.1530 C   0  0  0  0  0  2  0  0  0  0  0  0
  188.4880  179.1240  136.9500 N   0  0  0  0  0  2  0  0  0  0  0  0
  186.6090  177.8740  137.7320 C   0  0  0  0  0  0  0  0  0  0  0  0
  187.2520  177.7880  139.0100 N   0  0  0  0  0  0  0  0  0  0  0  0
  189.0400  178.0740  140.5370 N   0  0  0  0  0  2  0  0  0  0  0  0
  187.2060  178.5310  136.7300 C   0  0  0  0  0  0  0  0  0  0  0  0
  188.4490  178.2430  139.2460 C   0  0  0  0  0  0  0  0  0  0  0  0
  188.6780  176.3220  143.8610 C   0  0  0  0  0  2  0  0  0  0  0  0
  186.8150  178.0310  143.4060 C   0  0  0  0  0  0  0  0  0  0  0  0
  187.5530  177.2110  144.4400 C   0  0  2  0  0  3  0  0  0  0  0  0
  188.3950  177.3290  141.6110 C   0  0  2  0  0  3  0  0  0  0  0  0
  187.2290  178.1150  142.1360 C   0  0  0  0  0  3  0  0  0  0  0  0
  185.6920  178.7500  143.7940 O   0  0  0  0  0  1  0  0  0  0  0  0
  189.4000  177.0220  142.7160 C   0  0  0  0  0  2  0  0  0  0  0  0
  187.9690  178.0450  145.5790 N   0  0  0  0  0  0  0  0  0  0  0  0
  187.7280  177.9330  147.9540 C   0  0  0  0  0  2  0  0  0  0  0  0
  189.0690  177.3440  147.6130 C   0  0  0  0  0  2  0  0  0  0  0  0
  189.2530  177.6080  146.1340 C   0  0  0  0  0  2  0  0  0  0  0  0
  186.9800  177.9340  146.6450 C   0  0  0  0  0  2  0  0  0  0  0  0
  186.9280  177.5620  134.5940 O   0  0  0  0  0  1  0  0  0  0  0  0
  186.5770  178.6590  135.3810 C   0  0  0  0  0  2  0  0  0  0  0  0
  185.0100  177.0850  137.5290 S   0  0  0  0  0  0  0  0  0  0  0  0
  184.2280  178.2640  138.6630 C   0  0  0  0  0  2  0  0  0  0  0  0
  181.5080  178.7480  140.7190 N   0  0  0  0  0  0  0  0  0  0  0  0
  182.4940  178.5180  141.5130 C   0  0  0  0  0  0  0  0  0  0  0  0
  183.5600  177.7810  140.9420 N   0  0  0  0  0  2  0  0  0  0  0  0
  182.5230  179.0200  142.9110 C   0  0  0  0  0  1  0  0  0  0  0  0
  181.7750  178.1130  139.4350 C   0  0  2  0  0  3  0  0  0  0  0  0
  183.2120  177.5540  139.5500 C   0  0  1  0  0  3  0  0  0  0  0  0
  181.1880  181.2840  137.4520 C   0  0  0  0  0  0  0  0  0  0  0  0
  181.4790  180.4180  138.5090 C   0  0  0  0  0  3  0  0  0  0  0  0
  180.9230  179.4470  135.9720 C   0  0  0  0  0  0  0  0  0  0  0  0
  180.9190  180.7840  136.2160 N   0  0  0  0  0  0  0  0  0  0  0  0
  181.2120  178.5480  137.0010 C   0  0  0  0  0  3  0  0  0  0  0  0
  181.4990  179.0400  138.2810 C   0  0  0  0  0  0  0  0  0  0  0  0
  181.1750  182.6220  137.6590 F   0  0  0  0  0  0  0  0  0  0  0  0
  180.6430  178.9850  134.7290 F   0  0  0  0  0  0  0  0  0  0  0  0
  1  7  1  0  0  0  0
  2  1  1  0  0  0  0
  3  4  1  0  0  0  0
  4  7  2  0  0  0  0
  6  2  1  0  0  0  0
  6  3  2  0  0  0  0
  7  5  1  0  0  0  0
  9 13  1  0  0  0  0
  9 10  1  0  0  0  0
 10  8  1  6  0  0  0
 10 15  1  0  0  0  0
 11  5  1  6  0  0  0
 11 12  1  0  0  0  0
 11 14  1  0  0  0  0
 12  9  2  0  0  0  0
 14  8  1  0  0  0  0
 15 18  1  0  0  0  0
 15 19  1  0  0  0  0
 17 16  1  0  0  0  0
 18 17  1  0  0  0  0
 19 16  1  0  0  0  0
 20 21  1  0  0  0  0
 21  6  1  0  0  0  0
 22  3  1  0  0  0  0
 22 23  1  0  0  0  0
 24 25  2  0  0  0  0
 25 27  1  0  0  0  0
 26 25  1  0  0  0  0
 28 35  1  6  0  0  0
 28 29  1  0  0  0  0
 28 24  1  0  0  0  0
 29 23  1  6  0  0  0
 29 26  1  0  0  0  0
 30 36  1  0  0  0  0
 30 31  1  0  0  0  0
 32 33  1  0  0  0  0
 32 34  2  0  0  0  0
 33 30  2  0  0  0  0
 34 35  1  0  0  0  0
 35 31  2  0  0  0  0
 37 32  1  0  0  0  0
M  END
>  <MODEL>
6

>  <REMARK>
 VINA RESULT:      -7.4      3.908      5.657
  Name = 
  7 active torsions:
  status: ('A' for Active; 'I' for Inactive)
    1  A    between atoms: C_8  and  S_16
    2  A    between atoms: N_9  and  C_14
    3  A    between atoms: S_16  and  C_20
    4  A    between atoms: C_18  and  N_26
    5  A    between atoms: C_20  and  C_33
    6  A    between atoms: C_24  and  C_29
    7  A    between atoms: C_28  and  CA_31
                            x       y       z     vdW  Elec       q    Type
                         _______ _______ _______ _____ _____    ______ ____

>  <TORSDO>
F 7

$$$$
=
 OpenBabel11062415273D

 37 41  0  0  1  0  0  0  0  0999 V2000
  184.3620  179.2950  145.1750 C   0  0  0  0  0  2  0  0  0  0  0  0
  185.6140  179.0810  145.8980 N   0  0  0  0  0  2  0  0  0  0  0  0
  186.4800  177.5800  144.2550 C   0  0  0  0  0  0  0  0  0  0  0  0
  185.3780  177.9360  143.4110 N   0  0  0  0  0  0  0  0  0  0  0  0
  183.3220  178.9930  142.8970 N   0  0  0  0  0  2  0  0  0  0  0  0
  186.6010  178.1420  145.4640 C   0  0  0  0  0  0  0  0  0  0  0  0
  184.4120  178.7260  143.7830 C   0  0  0  0  0  0  0  0  0  0  0  0
  181.7040  177.9920  139.6370 C   0  0  0  0  0  2  0  0  0  0  0  0
  184.0700  178.9460  139.3450 C   0  0  0  0  0  0  0  0  0  0  0  0
  182.7480  178.6240  138.6870 C   0  0  2  0  0  3  0  0  0  0  0  0
  183.1830  178.3510  141.5960 C   0  0  2  0  0  3  0  0  0  0  0  0
  184.2460  178.8630  140.6680 C   0  0  0  0  0  3  0  0  0  0  0  0
  185.1270  179.3780  138.5540 O   0  0  0  0  0  1  0  0  0  0  0  0
  181.7890  178.5990  141.0320 C   0  0  0  0  0  2  0  0  0  0  0  0
  182.2450  179.7730  137.9170 N   0  0  0  0  0  0  0  0  0  0  0  0
  180.1180  180.8120  137.5940 C   0  0  0  0  0  2  0  0  0  0  0  0
  180.8240  181.5710  138.6830 C   0  0  0  0  0  2  0  0  0  0  0  0
  182.2250  180.9990  138.7190 C   0  0  0  0  0  2  0  0  0  0  0  0
  180.8730  179.5100  137.4990 C   0  0  0  0  0  2  0  0  0  0  0  0
  187.4180  178.2140  147.6790 O   0  0  0  0  0  1  0  0  0  0  0  0
  187.7340  177.8140  146.3800 C   0  0  0  0  0  2  0  0  0  0  0  0
  187.6650  176.3780  143.6460 S   0  0  0  0  0  0  0  0  0  0  0  0
  188.3110  177.5560  142.4280 C   0  0  0  0  0  2  0  0  0  0  0  0
  191.6800  176.8600  142.2850 N   0  0  0  0  0  0  0  0  0  0  0  0
  191.3250  176.5610  143.4840 C   0  0  0  0  0  0  0  0  0  0  0  0
  190.1700  177.2340  143.9490 N   0  0  0  0  0  2  0  0  0  0  0  0
  192.0550  175.5590  144.3040 C   0  0  0  0  0  1  0  0  0  0  0  0
  190.7790  177.8780  141.7630 C   0  0  2  0  0  3  0  0  0  0  0  0
  189.6900  178.0510  142.8480 C   0  0  1  0  0  3  0  0  0  0  0  0
  188.9530  178.1160  138.4550 C   0  0  0  0  0  0  0  0  0  0  0  0
  189.4280  178.4290  139.7310 C   0  0  0  0  0  3  0  0  0  0  0  0
  190.1790  176.0830  138.4590 C   0  0  0  0  0  0  0  0  0  0  0  0
  189.3350  176.9590  137.8510 N   0  0  0  0  0  0  0  0  0  0  0  0
  190.6780  176.3610  139.7330 C   0  0  0  0  0  3  0  0  0  0  0  0
  190.3030  177.5500  140.3730 C   0  0  0  0  0  0  0  0  0  0  0  0
  188.1110  178.9660  137.8200 F   0  0  0  0  0  0  0  0  0  0  0  0
  190.5320  174.9360  137.8290 F   0  0  0  0  0  0  0  0  0  0  0  0
  1  2  1  0  0  0  0
  3  6  2  0  0  0  0
  4  7  2  0  0  0  0
  4  3  1  0  0  0  0
  5  7  1  0  0  0  0
  6  2  1  0  0  0  0
  6 21  1  0  0  0  0
  7  1  1  0  0  0  0
  8 14  1  0  0  0  0
  9 12  2  0  0  0  0
 10 15  1  1  0  0  0
 10  9  1  0  0  0  0
 10  8  1  0  0  0  0
 11  5  1  1  0  0  0
 12 11  1  0  0  0  0
 13  9  1  0  0  0  0
 14 11  1  0  0  0  0
 15 18  1  0  0  0  0
 16 17  1  0  0  0  0
 17 18  1  0  0  0  0
 19 16  1  0  0  0  0
 19 15  1  0  0  0  0
 21 20  1  0  0  0  0
 22  3  1  0  0  0  0
 23 22  1  0  0  0  0
 24 25  2  0  0  0  0
 25 26  1  0  0  0  0
 25 27  1  0  0  0  0
 28 35  1  6  0  0  0
 28 24  1  0  0  0  0
 28 29  1  0  0  0  0
 29 23  1  6  0  0  0
 29 26  1  0  0  0  0
 30 31  1  0  0  0  0
 31 35  2  0  0  0  0
 32 34  2  0  0  0  0
 33 30  2  0  0  0  0
 33 32  1  0  0  0  0
 34 35  1  0  0  0  0
 36 30  1  0  0  0  0
 37 32  1  0  0  0  0
M  END
>  <MODEL>
7

>  <REMARK>
 VINA RESULT:      -7.3      3.667      8.245
  Name = 
  7 active torsions:
  status: ('A' for Active; 'I' for Inactive)
    1  A    between atoms: C_8  and  S_16
    2  A    between atoms: N_9  and  C_14
    3  A    between atoms: S_16  and  C_20
    4  A    between atoms: C_18  and  N_26
    5  A    between atoms: C_20  and  C_33
    6  A    between atoms: C_24  and  C_29
    7  A    between atoms: C_28  and  CA_31
                            x       y       z     vdW  Elec       q    Type
                         _______ _______ _______ _____ _____    ______ ____

>  <TORSDO>
F 7

$$$$
=
 OpenBabel11062415273D

 37 41  0  0  1  0  0  0  0  0999 V2000
  183.4980  179.3300  144.4580 C   0  0  0  0  0  2  0  0  0  0  0  0
  184.4060  179.4290  145.6000 N   0  0  0  0  0  2  0  0  0  0  0  0
  185.9720  177.8790  144.6810 C   0  0  0  0  0  0  0  0  0  0  0  0
  185.2340  177.9270  143.4530 N   0  0  0  0  0  0  0  0  0  0  0  0
  183.4200  178.5470  142.0620 N   0  0  0  0  0  2  0  0  0  0  0  0
  185.5740  178.6160  145.7260 C   0  0  0  0  0  0  0  0  0  0  0  0
  184.1230  178.5900  143.3060 C   0  0  0  0  0  0  0  0  0  0  0  0
  183.1000  176.3450  139.0130 C   0  0  0  0  0  2  0  0  0  0  0  0
  184.7430  178.2930  138.6900 C   0  0  0  0  0  0  0  0  0  0  0  0
  183.8760  177.2470  138.0260 C   0  0  2  0  0  3  0  0  0  0  0  0
  183.8450  177.7160  140.9420 C   0  0  2  0  0  3  0  0  0  0  0  0
  184.6900  178.5300  140.0060 C   0  0  0  0  0  3  0  0  0  0  0  0
  185.5950  179.0580  137.9050 O   0  0  0  0  0  1  0  0  0  0  0  0
  182.6290  177.1340  140.2280 C   0  0  0  0  0  2  0  0  0  0  0  0
  183.0420  177.8430  136.9690 N   0  0  0  0  0  0  0  0  0  0  0  0
  180.9010  177.3740  136.0180 C   0  0  0  0  0  2  0  0  0  0  0  0
  180.6990  178.4250  137.0750 C   0  0  0  0  0  2  0  0  0  0  0  0
  182.0940  178.8200  137.5110 C   0  0  0  0  0  2  0  0  0  0  0  0
  182.2580  176.7950  136.3250 C   0  0  0  0  0  2  0  0  0  0  0  0
  185.9530  179.7330  147.7720 O   0  0  0  0  0  1  0  0  0  0  0  0
  186.3110  178.6100  147.0250 C   0  0  0  0  0  2  0  0  0  0  0  0
  187.4160  176.8170  144.7650 S   0  0  0  0  0  0  0  0  0  0  0  0
  188.2760  177.8010  143.5080 C   0  0  0  0  0  2  0  0  0  0  0  0
  191.6620  177.3580  143.9480 N   0  0  0  0  0  0  0  0  0  0  0  0
  191.1380  177.1200  145.0980 C   0  0  0  0  0  0  0  0  0  0  0  0
  189.8820  177.7330  145.3210 N   0  0  0  0  0  2  0  0  0  0  0  0
  191.7910  176.2380  146.1010 C   0  0  0  0  0  1  0  0  0  0  0  0
  190.7920  178.2640  143.2100 C   0  0  2  0  0  3  0  0  0  0  0  0
  189.5340  178.4290  144.0940 C   0  0  1  0  0  3  0  0  0  0  0  0
  191.4760  177.0020  139.7060 C   0  0  0  0  0  0  0  0  0  0  0  0
  191.6680  177.3990  141.0320 C   0  0  0  0  0  3  0  0  0  0  0  0
  189.1440  177.4150  139.8830 C   0  0  0  0  0  0  0  0  0  0  0  0
  190.2280  177.0180  139.1640 N   0  0  0  0  0  0  0  0  0  0  0  0
  189.2940  177.8160  141.2120 C   0  0  0  0  0  3  0  0  0  0  0  0
  190.5690  177.8010  141.7940 C   0  0  0  0  0  0  0  0  0  0  0  0
  192.5330  176.6020  138.9610 F   0  0  0  0  0  0  0  0  0  0  0  0
  187.9180  177.4250  139.3080 F   0  0  0  0  0  0  0  0  0  0  0  0
  1  2  1  0  0  0  0
  2  6  1  0  0  0  0
  3 22  1  0  0  0  0
  3  6  2  0  0  0  0
  4  3  1  0  0  0  0
  5  7  1  0  0  0  0
  6 21  1  0  0  0  0
  7  4  2  0  0  0  0
  7  1  1  0  0  0  0
  8 14  1  0  0  0  0
  9 12  2  0  0  0  0
 10 15  1  6  0  0  0
 10  9  1  0  0  0  0
 10  8  1  0  0  0  0
 11  5  1  1  0  0  0
 12 11  1  0  0  0  0
 13  9  1  0  0  0  0
 14 11  1  0  0  0  0
 15 18  1  0  0  0  0
 16 19  1  0  0  0  0
 16 17  1  0  0  0  0
 17 18  1  0  0  0  0
 19 15  1  0  0  0  0
 21 20  1  0  0  0  0
 23 22  1  0  0  0  0
 24 25  2  0  0  0  0
 25 26  1  0  0  0  0
 25 27  1  0  0  0  0
 28 35  1  6  0  0  0
 28 24  1  0  0  0  0
 28 29  1  0  0  0  0
 29 23  1  6  0  0  0
 29 26  1  0  0  0  0
 30 31  1  0  0  0  0
 31 35  2  0  0  0  0
 32 34  2  0  0  0  0
 33 30  2  0  0  0  0
 33 32  1  0  0  0  0
 34 35  1  0  0  0  0
 36 30  1  0  0  0  0
 37 32  1  0  0  0  0
M  END
>  <MODEL>
8

>  <REMARK>
 VINA RESULT:      -7.3      3.763      8.918
  Name = 
  7 active torsions:
  status: ('A' for Active; 'I' for Inactive)
    1  A    between atoms: C_8  and  S_16
    2  A    between atoms: N_9  and  C_14
    3  A    between atoms: S_16  and  C_20
    4  A    between atoms: C_18  and  N_26
    5  A    between atoms: C_20  and  C_33
    6  A    between atoms: C_24  and  C_29
    7  A    between atoms: C_28  and  CA_31
                            x       y       z     vdW  Elec       q    Type
                         _______ _______ _______ _____ _____    ______ ____

>  <TORSDO>
F 7

$$$$
=
 OpenBabel11062415273D

 37 41  0  0  1  0  0  0  0  0999 V2000
  186.7490  177.1940  137.1070 C   0  0  0  0  0  2  0  0  0  0  0  0
  188.1390  176.9300  137.4780 N   0  0  0  0  0  2  0  0  0  0  0  0
  187.9830  178.1570  139.5200 C   0  0  0  0  0  0  0  0  0  0  0  0
  186.5680  178.2450  139.3100 N   0  0  0  0  0  0  0  0  0  0  0  0
  184.5580  177.9720  138.0870 N   0  0  0  0  0  2  0  0  0  0  0  0
  188.7490  177.5110  138.6320 C   0  0  0  0  0  0  0  0  0  0  0  0
  185.9700  177.8010  138.2420 C   0  0  0  0  0  0  0  0  0  0  0  0
  182.1720  180.6000  139.3670 C   0  0  0  0  0  2  0  0  0  0  0  0
  181.5130  178.2140  140.0480 C   0  0  0  0  0  0  0  0  0  0  0  0
  181.0640  179.6460  139.8670 C   0  0  2  0  0  3  0  0  0  0  0  0
  183.7400  178.7050  139.0440 C   0  0  2  0  0  3  0  0  0  0  0  0
  182.7100  177.7850  139.6320 C   0  0  0  0  0  3  0  0  0  0  0  0
  180.6410  177.3040  140.6320 O   0  0  0  0  0  1  0  0  0  0  0  0
  183.0880  179.9060  138.3670 C   0  0  0  0  0  2  0  0  0  0  0  0
  179.8130  179.7150  139.0930 N   0  0  0  0  0  0  0  0  0  0  0  0
  178.9380  181.1440  137.3900 C   0  0  0  0  0  2  0  0  0  0  0  0
  179.5550  179.9570  136.7030 C   0  0  0  0  0  2  0  0  0  0  0  0
  179.9230  179.0010  137.8180 C   0  0  0  0  0  2  0  0  0  0  0  0
  179.5150  181.1080  138.7820 C   0  0  0  0  0  2  0  0  0  0  0  0
  190.5190  176.1850  139.4600 O   0  0  0  0  0  1  0  0  0  0  0  0
  190.2270  177.3820  138.8060 C   0  0  0  0  0  2  0  0  0  0  0  0
  188.6760  178.9310  140.9840 S   0  0  0  0  0  0  0  0  0  0  0  0
  187.4430  178.1360  142.0500 C   0  0  0  0  0  2  0  0  0  0  0  0
  188.9710  176.9510  144.8990 N   0  0  0  0  0  0  0  0  0  0  0  0
  189.9100  177.0420  144.0260 C   0  0  0  0  0  0  0  0  0  0  0  0
  189.4800  176.9840  142.6780 N   0  0  0  0  0  2  0  0  0  0  0  0
  191.3350  177.2290  144.4060 C   0  0  0  0  0  1  0  0  0  0  0  0
  187.7010  176.7590  144.2120 C   0  0  2  0  0  3  0  0  0  0  0  0
  188.0300  176.8930  142.7060 C   0  0  1  0  0  3  0  0  0  0  0  0
  185.7990  179.0720  146.5280 C   0  0  0  0  0  0  0  0  0  0  0  0
  186.8070  178.2600  146.0020 C   0  0  0  0  0  3  0  0  0  0  0  0
  184.4450  178.6910  144.6160 C   0  0  0  0  0  0  0  0  0  0  0  0
  184.6490  179.2690  145.8300 N   0  0  0  0  0  0  0  0  0  0  0  0
  185.4290  177.8750  144.0540 C   0  0  0  0  0  3  0  0  0  0  0  0
  186.6250  177.6630  144.7520 C   0  0  0  0  0  0  0  0  0  0  0  0
  185.9680  179.6620  147.7350 F   0  0  0  0  0  0  0  0  0  0  0  0
  183.2830  178.9040  143.9520 F   0  0  0  0  0  0  0  0  0  0  0  0
  1  2  1  0  0  0  0
  1  7  1  0  0  0  0
  2  6  1  0  0  0  0
  3 22  1  0  0  0  0
  4  3  1  0  0  0  0
  5  7  1  0  0  0  0
  6 21  1  0  0  0  0
  6  3  2  0  0  0  0
  7  4  2  0  0  0  0
  8 10  1  0  0  0  0
  9 13  1  0  0  0  0
 10 15  1  6  0  0  0
 10  9  1  0  0  0  0
 11  5  1  6  0  0  0
 11 12  1  0  0  0  0
 12  9  2  0  0  0  0
 14 11  1  0  0  0  0
 14  8  1  0  0  0  0
 16 19  1  0  0  0  0
 17 16  1  0  0  0  0
 17 18  1  0  0  0  0
 18 15  1  0  0  0  0
 19 15  1  0  0  0  0
 21 20  1  0  0  0  0
 22 23  1  0  0  0  0
 25 27  1  0  0  0  0
 25 24  2  0  0  0  0
 26 29  1  0  0  0  0
 26 25  1  0  0  0  0
 28 35  1  1  0  0  0
 28 24  1  0  0  0  0
 29 23  1  1  0  0  0
 29 28  1  0  0  0  0
 30 36  1  0  0  0  0
 31 30  1  0  0  0  0
 32 33  1  0  0  0  0
 33 30  2  0  0  0  0
 34 32  2  0  0  0  0
 34 35  1  0  0  0  0
 35 31  2  0  0  0  0
 37 32  1  0  0  0  0
M  END
>  <MODEL>
9

>  <REMARK>
 VINA RESULT:      -7.3      4.283      8.209
  Name = 
  7 active torsions:
  status: ('A' for Active; 'I' for Inactive)
    1  A    between atoms: C_8  and  S_16
    2  A    between atoms: N_9  and  C_14
    3  A    between atoms: S_16  and  C_20
    4  A    between atoms: C_18  and  N_26
    5  A    between atoms: C_20  and  C_33
    6  A    between atoms: C_24  and  C_29
    7  A    between atoms: C_28  and  CA_31
                            x       y       z     vdW  Elec       q    Type
                         _______ _______ _______ _____ _____    ______ ____

>  <TORSDO>
F 7

$$$$
