=
 OpenBabel11062413523D

 25 25  0  0  1  0  0  0  0  0999 V2000
  187.1250  177.6800  145.1590 C   0  0  0  0  0  0  0  0  0  0  0  0
  188.2280  176.9150  144.6630 N   0  0  0  0  0  2  0  0  0  0  0  0
  187.2290  178.2550  146.2740 O   0  0  0  0  0  0  0  0  0  0  0  0
  186.1350  178.6760  143.2320 O   0  0  0  0  0  0  0  0  0  0  0  0
  184.7580  178.4500  145.1460 C   0  0  0  0  0  2  0  0  0  0  0  0
  184.9330  179.3640  142.9680 C   0  0  2  0  0  3  0  0  0  0  0  0
  185.8830  177.8510  144.3400 C   0  0  2  0  0  3  0  0  0  0  0  0
  183.9490  179.1490  144.1030 C   0  0  0  0  0  2  0  0  0  0  0  0
  184.3410  178.9260  141.6320 C   0  0  0  0  0  2  0  0  0  0  0  0
  185.2500  179.2370  140.5400 N   0  0  0  0  0  2  0  0  0  0  0  0
  184.4780  179.2000  139.3090 C   0  0  1  0  0  3  0  0  0  0  0  0
  184.1350  180.5030  138.9430 O   0  0  0  0  0  1  0  0  0  0  0  0
  186.6090  178.3420  138.6460 O   0  0  0  0  0  1  0  0  0  0  0  0
  184.6950  177.2170  137.8100 C   0  0  0  0  0  1  0  0  0  0  0  0
  185.3010  178.5500  138.2050 C   0  0  1  0  0  3  0  0  0  0  0  0
  188.2160  176.2370  143.3730 C   0  0  0  0  0  2  0  0  0  0  0  0
  189.5710  176.2950  142.7280 C   0  0  0  0  0  0  0  0  0  0  0  0
  190.3040  175.3190  142.7990 O   0  0  0  0  0  0  0  0  0  0  0  0
  190.0590  177.5520  142.0430 C   0  0  0  0  0  0  0  0  0  0  0  0
  190.8920  178.2540  142.9160 O   0  0  0  0  0  1  0  0  0  0  0  0
  188.9730  178.3690  141.7090 O   0  0  0  0  0  1  0  0  0  0  0  0
  190.8350  177.2030  140.8020 C   0  0  0  0  0  0  0  0  0  0  0  0
  192.0670  177.4570  140.7300 O   0  0  0  0  0  0  0  0  0  0  0  0
  190.8570  175.6940  138.9650 O   0  0  0  0  0  1  0  0  0  0  0  0
  190.1970  176.5660  139.7400 O   0  0  0  0  0  0  0  0  0  0  0  0
  1  3  2  0  0  0  0
  2  1  1  0  0  0  0
  4  7  1  0  0  0  0
  6  9  1  6  0  0  0
  6  4  1  0  0  0  0
  6  8  1  0  0  0  0
  7  5  1  0  0  0  0
  7  1  1  1  0  0  0
  8  5  1  0  0  0  0
 10  9  1  0  0  0  0
 11 12  1  6  0  0  0
 11 10  1  0  0  0  0
 15 14  1  1  0  0  0
 15 13  1  0  0  0  0
 15 11  1  0  0  0  0
 16  2  1  0  0  0  0
 17 18  2  0  0  0  0
 17 16  1  0  0  0  0
 19 17  1  0  0  0  0
 19 20  1  0  0  0  0
 21 19  1  0  0  0  0
 22 19  1  0  0  0  0
 23 22  2  0  0  0  0
 24 25  1  0  0  0  0
 25 22  1  0  0  0  0
M  END
>  <MODEL>
1

>  <REMARK>
 VINA RESULT:      -6.8      0.000      0.000
  Name = 
  10 active torsions:
  status: ('A' for Active; 'I' for Inactive)
    1  A    between atoms: C_3  and  O_9
    2  A    between atoms: C_3  and  C_14
    3  A    between atoms: C_4  and  C_11
    4  A    between atoms: C_4  and  N_17
    5  A    between atoms: C_7  and  C_23
    6  A    between atoms: C_8  and  C_18
    7  A    between atoms: C_8  and  N_20
    8  A    between atoms: C_13  and  N_17
    9  A    between atoms: C_13  and  C_19
   10  A    between atoms: C_14  and  C_18
                            x       y       z     vdW  Elec       q    Type
                         _______ _______ _______ _____ _____    ______ ____

>  <TORSDO>
F 10

$$$$
=
 OpenBabel11062413523D

 25 25  0  0  1  0  0  0  0  0999 V2000
  186.0870  178.6620  146.1950 C   0  0  0  0  0  0  0  0  0  0  0  0
  187.3260  177.9730  146.3900 N   0  0  0  0  0  2  0  0  0  0  0  0
  185.7420  179.5510  147.0180 O   0  0  0  0  0  0  0  0  0  0  0  0
  185.7550  179.0280  143.8620 O   0  0  0  0  0  0  0  0  0  0  0  0
  183.8110  178.8310  145.2010 C   0  0  0  0  0  2  0  0  0  0  0  0
  184.6500  179.3510  143.0480 C   0  0  2  0  0  3  0  0  0  0  0  0
  185.2360  178.3820  144.9960 C   0  0  2  0  0  3  0  0  0  0  0  0
  183.3570  179.1170  143.8070 C   0  0  0  0  0  2  0  0  0  0  0  0
  184.6830  178.5500  141.7500 C   0  0  0  0  0  2  0  0  0  0  0  0
  185.4050  179.2750  140.7170 N   0  0  0  0  0  2  0  0  0  0  0  0
  184.7010  179.0580  139.4630 C   0  0  1  0  0  3  0  0  0  0  0  0
  184.0770  180.2450  139.0770 O   0  0  0  0  0  1  0  0  0  0  0  0
  186.9300  178.3470  138.9660 O   0  0  0  0  0  1  0  0  0  0  0  0
  185.1850  177.3660  137.6930 C   0  0  0  0  0  1  0  0  0  0  0  0
  185.6870  178.6170  138.3890 C   0  0  1  0  0  3  0  0  0  0  0  0
  187.8250  176.9510  145.4800 C   0  0  0  0  0  2  0  0  0  0  0  0
  188.9060  177.5040  144.5980 C   0  0  0  0  0  0  0  0  0  0  0  0
  189.6330  178.3860  145.0330 O   0  0  0  0  0  0  0  0  0  0  0  0
  189.0750  177.0280  143.1730 C   0  0  0  0  0  0  0  0  0  0  0  0
  188.5780  178.0020  142.3030 O   0  0  0  0  0  1  0  0  0  0  0  0
  188.3550  175.8450  142.9730 O   0  0  0  0  0  1  0  0  0  0  0  0
  190.5300  176.7980  142.8670 C   0  0  0  0  0  0  0  0  0  0  0  0
  191.1450  177.5690  142.0820 O   0  0  0  0  0  0  0  0  0  0  0  0
  191.8240  175.9210  144.6570 O   0  0  0  0  0  1  0  0  0  0  0  0
  191.2100  175.7480  143.4790 O   0  0  0  0  0  0  0  0  0  0  0  0
  1  2  1  0  0  0  0
  1  3  2  0  0  0  0
  4  7  1  0  0  0  0
  6  9  1  6  0  0  0
  6  8  1  0  0  0  0
  6  4  1  0  0  0  0
  7  5  1  0  0  0  0
  7  1  1  1  0  0  0
  8  5  1  0  0  0  0
 10  9  1  0  0  0  0
 11 12  1  6  0  0  0
 11 10  1  0  0  0  0
 15 14  1  1  0  0  0
 15 13  1  0  0  0  0
 15 11  1  0  0  0  0
 16  2  1  0  0  0  0
 17 18  2  0  0  0  0
 17 16  1  0  0  0  0
 19 17  1  0  0  0  0
 20 19  1  0  0  0  0
 21 19  1  0  0  0  0
 22 19  1  0  0  0  0
 22 25  1  0  0  0  0
 23 22  2  0  0  0  0
 25 24  1  0  0  0  0
M  END
>  <MODEL>
2

>  <REMARK>
 VINA RESULT:      -6.8      1.405      2.148
  Name = 
  10 active torsions:
  status: ('A' for Active; 'I' for Inactive)
    1  A    between atoms: C_3  and  O_9
    2  A    between atoms: C_3  and  C_14
    3  A    between atoms: C_4  and  C_11
    4  A    between atoms: C_4  and  N_17
    5  A    between atoms: C_7  and  C_23
    6  A    between atoms: C_8  and  C_18
    7  A    between atoms: C_8  and  N_20
    8  A    between atoms: C_13  and  N_17
    9  A    between atoms: C_13  and  C_19
   10  A    between atoms: C_14  and  C_18
                            x       y       z     vdW  Elec       q    Type
                         _______ _______ _______ _____ _____    ______ ____

>  <TORSDO>
F 10

$$$$
=
 OpenBabel11062413523D

 25 25  0  0  1  0  0  0  0  0999 V2000
  186.0250  178.6340  146.0870 C   0  0  0  0  0  0  0  0  0  0  0  0
  187.3210  178.0350  146.1850 N   0  0  0  0  0  2  0  0  0  0  0  0
  185.6420  179.4200  146.9930 O   0  0  0  0  0  0  0  0  0  0  0  0
  185.6650  179.0470  143.7660 O   0  0  0  0  0  0  0  0  0  0  0  0
  183.7380  178.8440  145.1280 C   0  0  0  0  0  2  0  0  0  0  0  0
  184.5520  179.3960  142.9740 C   0  0  2  0  0  3  0  0  0  0  0  0
  185.1550  178.3850  144.8940 C   0  0  2  0  0  3  0  0  0  0  0  0
  183.2680  179.1610  143.7460 C   0  0  0  0  0  2  0  0  0  0  0  0
  184.5600  178.6200  141.6610 C   0  0  0  0  0  2  0  0  0  0  0  0
  185.2700  179.3590  140.6300 N   0  0  0  0  0  2  0  0  0  0  0  0
  184.5190  179.2120  139.3940 C   0  0  1  0  0  3  0  0  0  0  0  0
  184.0640  180.4660  138.9820 O   0  0  0  0  0  1  0  0  0  0  0  0
  186.6920  178.3890  138.8290 O   0  0  0  0  0  1  0  0  0  0  0  0
  184.8390  177.2810  137.8460 C   0  0  0  0  0  1  0  0  0  0  0  0
  185.4100  178.6040  138.3190 C   0  0  1  0  0  3  0  0  0  0  0  0
  187.8650  177.1350  145.1760 C   0  0  0  0  0  2  0  0  0  0  0  0
  189.3650  177.1200  145.2290 C   0  0  0  0  0  0  0  0  0  0  0  0
  189.9250  177.4450  146.2670 O   0  0  0  0  0  0  0  0  0  0  0  0
  190.1880  176.7620  144.0130 C   0  0  0  0  0  0  0  0  0  0  0  0
  189.5080  175.7960  143.2680 O   0  0  0  0  0  1  0  0  0  0  0  0
  191.4210  176.2320  144.4060 O   0  0  0  0  0  1  0  0  0  0  0  0
  190.4050  177.9770  143.1520 C   0  0  0  0  0  0  0  0  0  0  0  0
  191.2370  178.8600  143.4950 O   0  0  0  0  0  0  0  0  0  0  0  0
  188.4030  178.4140  141.9480 O   0  0  0  0  0  1  0  0  0  0  0  0
  189.7080  178.1120  141.9540 O   0  0  0  0  0  0  0  0  0  0  0  0
  1  2  1  0  0  0  0
  1  3  2  0  0  0  0
  4  7  1  0  0  0  0
  6  9  1  6  0  0  0
  6  8  1  0  0  0  0
  6  4  1  0  0  0  0
  7  5  1  0  0  0  0
  7  1  1  1  0  0  0
  8  5  1  0  0  0  0
 10  9  1  0  0  0  0
 11 12  1  6  0  0  0
 11 10  1  0  0  0  0
 15 14  1  1  0  0  0
 15 13  1  0  0  0  0
 15 11  1  0  0  0  0
 16 17  1  0  0  0  0
 16  2  1  0  0  0  0
 17 18  2  0  0  0  0
 19 21  1  0  0  0  0
 19 17  1  0  0  0  0
 20 19  1  0  0  0  0
 22 23  2  0  0  0  0
 22 19  1  0  0  0  0
 24 25  1  0  0  0  0
 25 22  1  0  0  0  0
M  END
>  <MODEL>
3

>  <REMARK>
 VINA RESULT:      -6.8      1.553      2.195
  Name = 
  10 active torsions:
  status: ('A' for Active; 'I' for Inactive)
    1  A    between atoms: C_3  and  O_9
    2  A    between atoms: C_3  and  C_14
    3  A    between atoms: C_4  and  C_11
    4  A    between atoms: C_4  and  N_17
    5  A    between atoms: C_7  and  C_23
    6  A    between atoms: C_8  and  C_18
    7  A    between atoms: C_8  and  N_20
    8  A    between atoms: C_13  and  N_17
    9  A    between atoms: C_13  and  C_19
   10  A    between atoms: C_14  and  C_18
                            x       y       z     vdW  Elec       q    Type
                         _______ _______ _______ _____ _____    ______ ____

>  <TORSDO>
F 10

$$$$
=
 OpenBabel11062413523D

 25 25  0  0  1  0  0  0  0  0999 V2000
  191.3390  178.1270  143.9410 C   0  0  0  0  0  0  0  0  0  0  0  0
  191.5040  177.6680  142.5960 N   0  0  0  0  0  2  0  0  0  0  0  0
  191.9810  179.1390  144.3280 O   0  0  0  0  0  0  0  0  0  0  0  0
  189.4900  178.3980  145.4220 O   0  0  0  0  0  0  0  0  0  0  0  0
  191.0740  176.7280  145.9830 C   0  0  0  0  0  2  0  0  0  0  0  0
  189.1610  177.9210  146.7070 C   0  0  2  0  0  3  0  0  0  0  0  0
  190.3710  177.4560  144.8650 C   0  0  2  0  0  3  0  0  0  0  0  0
  190.0570  176.7540  147.0770 C   0  0  0  0  0  2  0  0  0  0  0  0
  187.6870  177.5320  146.7780 C   0  0  0  0  0  2  0  0  0  0  0  0
  186.8390  178.6660  146.4450 N   0  0  0  0  0  2  0  0  0  0  0  0
  185.5350  178.1390  146.0760 C   0  0  1  0  0  3  0  0  0  0  0  0
  184.6260  178.4060  147.1010 O   0  0  0  0  0  1  0  0  0  0  0  0
  185.4380  178.0040  143.6900 O   0  0  0  0  0  1  0  0  0  0  0  0
  183.5550  178.9420  144.7860 C   0  0  0  0  0  1  0  0  0  0  0  0
  185.0650  178.7900  144.7820 C   0  0  1  0  0  3  0  0  0  0  0  0
  190.7870  176.5250  142.0470 C   0  0  0  0  0  2  0  0  0  0  0  0
  189.8350  176.9600  140.9700 C   0  0  0  0  0  0  0  0  0  0  0  0
  188.6860  177.2470  141.2760 O   0  0  0  0  0  0  0  0  0  0  0  0
  190.2570  176.9970  139.5190 C   0  0  0  0  0  0  0  0  0  0  0  0
  190.4390  175.6900  139.0620 O   0  0  0  0  0  1  0  0  0  0  0  0
  191.4670  177.6860  139.3890 O   0  0  0  0  0  1  0  0  0  0  0  0
  189.1980  177.6620  138.6830 C   0  0  0  0  0  0  0  0  0  0  0  0
  188.3640  176.9690  138.0410 O   0  0  0  0  0  0  0  0  0  0  0  0
  188.8530  179.6940  137.4970 O   0  0  0  0  0  1  0  0  0  0  0  0
  189.1170  179.0530  138.6440 O   0  0  0  0  0  0  0  0  0  0  0  0
  1  3  2  0  0  0  0
  2  1  1  0  0  0  0
  4  6  1  0  0  0  0
  5  8  1  0  0  0  0
  6  9  1  6  0  0  0
  6  8  1  0  0  0  0
  7  1  1  6  0  0  0
  7  4  1  0  0  0  0
  7  5  1  0  0  0  0
 10  9  1  0  0  0  0
 11 10  1  0  0  0  0
 11 12  1  1  0  0  0
 13 15  1  0  0  0  0
 15 14  1  1  0  0  0
 15 11  1  0  0  0  0
 16  2  1  0  0  0  0
 17 18  2  0  0  0  0
 17 16  1  0  0  0  0
 19 17  1  0  0  0  0
 20 19  1  0  0  0  0
 21 19  1  0  0  0  0
 22 19  1  0  0  0  0
 23 22  2  0  0  0  0
 24 25  1  0  0  0  0
 25 22  1  0  0  0  0
M  END
>  <MODEL>
4

>  <REMARK>
 VINA RESULT:      -6.7      2.802      5.171
  Name = 
  10 active torsions:
  status: ('A' for Active; 'I' for Inactive)
    1  A    between atoms: C_3  and  O_9
    2  A    between atoms: C_3  and  C_14
    3  A    between atoms: C_4  and  C_11
    4  A    between atoms: C_4  and  N_17
    5  A    between atoms: C_7  and  C_23
    6  A    between atoms: C_8  and  C_18
    7  A    between atoms: C_8  and  N_20
    8  A    between atoms: C_13  and  N_17
    9  A    between atoms: C_13  and  C_19
   10  A    between atoms: C_14  and  C_18
                            x       y       z     vdW  Elec       q    Type
                         _______ _______ _______ _____ _____    ______ ____

>  <TORSDO>
F 10

$$$$
=
 OpenBabel11062413523D

 25 25  0  0  1  0  0  0  0  0999 V2000
  187.3490  177.7760  145.5900 C   0  0  0  0  0  0  0  0  0  0  0  0
  188.3430  177.1670  144.7600 N   0  0  0  0  0  2  0  0  0  0  0  0
  187.7020  178.3320  146.6630 O   0  0  0  0  0  0  0  0  0  0  0  0
  185.7670  178.5720  143.9930 O   0  0  0  0  0  0  0  0  0  0  0  0
  185.0250  178.3930  146.2350 C   0  0  0  0  0  2  0  0  0  0  0  0
  184.4890  179.1640  144.0610 C   0  0  2  0  0  3  0  0  0  0  0  0
  185.9140  177.8120  145.1640 C   0  0  2  0  0  3  0  0  0  0  0  0
  183.8960  178.9670  145.4430 C   0  0  0  0  0  2  0  0  0  0  0  0
  183.5740  178.5980  142.9790 C   0  0  0  0  0  2  0  0  0  0  0  0
  184.3540  177.9960  141.9090 N   0  0  0  0  0  2  0  0  0  0  0  0
  183.5970  178.1580  140.6780 C   0  0  1  0  0  3  0  0  0  0  0  0
  182.3670  178.7500  140.9700 O   0  0  0  0  0  1  0  0  0  0  0  0
  185.5360  179.5120  140.3200 O   0  0  0  0  0  1  0  0  0  0  0  0
  184.7640  178.2390  138.4730 C   0  0  0  0  0  1  0  0  0  0  0  0
  184.3770  179.0340  139.7060 C   0  0  1  0  0  3  0  0  0  0  0  0
  188.0390  176.5250  143.4880 C   0  0  0  0  0  2  0  0  0  0  0  0
  188.8760  177.1040  142.3850 C   0  0  0  0  0  0  0  0  0  0  0  0
  188.4620  178.0810  141.7770 O   0  0  0  0  0  0  0  0  0  0  0  0
  190.1890  176.4710  141.9820 C   0  0  0  0  0  0  0  0  0  0  0  0
  190.1540  176.1760  140.6170 O   0  0  0  0  0  1  0  0  0  0  0  0
  190.3840  175.2810  142.6890 O   0  0  0  0  0  1  0  0  0  0  0  0
  191.3290  177.4160  142.2480 C   0  0  0  0  0  0  0  0  0  0  0  0
  192.1030  177.7580  141.3140 O   0  0  0  0  0  0  0  0  0  0  0  0
  191.2860  179.2400  143.7720 O   0  0  0  0  0  1  0  0  0  0  0  0
  191.5100  177.9420  143.5250 O   0  0  0  0  0  0  0  0  0  0  0  0
  1  3  2  0  0  0  0
  2  1  1  0  0  0  0
  4  6  1  0  0  0  0
  4  7  1  0  0  0  0
  6  9  1  6  0  0  0
  6  8  1  0  0  0  0
  7  1  1  1  0  0  0
  7  5  1  0  0  0  0
  8  5  1  0  0  0  0
 10  9  1  0  0  0  0
 11 12  1  1  0  0  0
 11 10  1  0  0  0  0
 15 14  1  6  0  0  0
 15 13  1  0  0  0  0
 15 11  1  0  0  0  0
 16  2  1  0  0  0  0
 17 16  1  0  0  0  0
 18 17  2  0  0  0  0
 19 22  1  0  0  0  0
 19 17  1  0  0  0  0
 19 21  1  0  0  0  0
 20 19  1  0  0  0  0
 22 25  1  0  0  0  0
 23 22  2  0  0  0  0
 25 24  1  0  0  0  0
M  END
>  <MODEL>
5

>  <REMARK>
 VINA RESULT:      -6.6      1.217      2.293
  Name = 
  10 active torsions:
  status: ('A' for Active; 'I' for Inactive)
    1  A    between atoms: C_3  and  O_9
    2  A    between atoms: C_3  and  C_14
    3  A    between atoms: C_4  and  C_11
    4  A    between atoms: C_4  and  N_17
    5  A    between atoms: C_7  and  C_23
    6  A    between atoms: C_8  and  C_18
    7  A    between atoms: C_8  and  N_20
    8  A    between atoms: C_13  and  N_17
    9  A    between atoms: C_13  and  C_19
   10  A    between atoms: C_14  and  C_18
                            x       y       z     vdW  Elec       q    Type
                         _______ _______ _______ _____ _____    ______ ____

>  <TORSDO>
F 10

$$$$
=
 OpenBabel11062413523D

 25 25  0  0  1  0  0  0  0  0999 V2000
  183.9360  178.8490  144.0260 C   0  0  0  0  0  0  0  0  0  0  0  0
  183.5600  178.9040  142.6470 N   0  0  0  0  0  2  0  0  0  0  0  0
  183.0370  178.7780  144.9050 O   0  0  0  0  0  0  0  0  0  0  0  0
  185.9750  177.6140  144.0080 O   0  0  0  0  0  0  0  0  0  0  0  0
  185.5510  178.9480  145.9180 C   0  0  0  0  0  2  0  0  0  0  0  0
  186.9700  177.3110  144.9600 C   0  0  2  0  0  3  0  0  0  0  0  0
  185.3780  178.8140  144.4260 C   0  0  2  0  0  3  0  0  0  0  0  0
  186.8370  178.2280  146.1620 C   0  0  0  0  0  2  0  0  0  0  0  0
  188.3600  177.4100  144.3390 C   0  0  0  0  0  2  0  0  0  0  0  0
  189.2900  178.0450  145.2590 N   0  0  0  0  0  2  0  0  0  0  0  0
  190.4300  177.1550  145.4070 C   0  0  1  0  0  3  0  0  0  0  0  0
  191.5390  177.7220  144.7770 O   0  0  0  0  0  1  0  0  0  0  0  0
  189.6050  176.4040  147.5230 O   0  0  0  0  0  1  0  0  0  0  0  0
  191.8930  175.9860  147.0570 C   0  0  0  0  0  1  0  0  0  0  0  0
  190.7250  176.9400  146.8850 C   0  0  1  0  0  3  0  0  0  0  0  0
  184.5250  178.9600  141.5570 C   0  0  0  0  0  2  0  0  0  0  0  0
  183.9690  178.3160  140.3190 C   0  0  0  0  0  0  0  0  0  0  0  0
  183.3280  177.2800  140.4270 O   0  0  0  0  0  0  0  0  0  0  0  0
  184.2340  178.8950  138.9480 C   0  0  0  0  0  0  0  0  0  0  0  0
  184.4010  180.2770  139.0600 O   0  0  0  0  0  1  0  0  0  0  0  0
  183.1470  178.6460  138.1040 O   0  0  0  0  0  1  0  0  0  0  0  0
  185.4840  178.2990  138.3610 C   0  0  0  0  0  0  0  0  0  0  0  0
  185.4290  177.6280  137.2950 O   0  0  0  0  0  0  0  0  0  0  0  0
  187.8270  178.6880  138.2520 O   0  0  0  0  0  1  0  0  0  0  0  0
  186.7130  178.5180  138.9780 O   0  0  0  0  0  0  0  0  0  0  0  0
  1  3  2  0  0  0  0
  2  1  1  0  0  0  0
  4  7  1  0  0  0  0
  4  6  1  0  0  0  0
  5  8  1  0  0  0  0
  6  9  1  6  0  0  0
  6  8  1  0  0  0  0
  7  1  1  1  0  0  0
  7  5  1  0  0  0  0
  9 10  1  0  0  0  0
 10 11  1  0  0  0  0
 11 12  1  6  0  0  0
 11 15  1  0  0  0  0
 15 14  1  6  0  0  0
 15 13  1  0  0  0  0
 16  2  1  0  0  0  0
 17 18  2  0  0  0  0
 17 16  1  0  0  0  0
 19 20  1  0  0  0  0
 19 17  1  0  0  0  0
 21 19  1  0  0  0  0
 22 19  1  0  0  0  0
 22 25  1  0  0  0  0
 23 22  2  0  0  0  0
 24 25  1  0  0  0  0
M  END
>  <MODEL>
6

>  <REMARK>
 VINA RESULT:      -6.6      2.340      6.553
  Name = 
  10 active torsions:
  status: ('A' for Active; 'I' for Inactive)
    1  A    between atoms: C_3  and  O_9
    2  A    between atoms: C_3  and  C_14
    3  A    between atoms: C_4  and  C_11
    4  A    between atoms: C_4  and  N_17
    5  A    between atoms: C_7  and  C_23
    6  A    between atoms: C_8  and  C_18
    7  A    between atoms: C_8  and  N_20
    8  A    between atoms: C_13  and  N_17
    9  A    between atoms: C_13  and  C_19
   10  A    between atoms: C_14  and  C_18
                            x       y       z     vdW  Elec       q    Type
                         _______ _______ _______ _____ _____    ______ ____

>  <TORSDO>
F 10

$$$$
=
 OpenBabel11062413523D

 25 25  0  0  1  0  0  0  0  0999 V2000
  185.2820  178.4590  142.3720 C   0  0  0  0  0  0  0  0  0  0  0  0
  186.1730  178.5710  141.2590 N   0  0  0  0  0  2  0  0  0  0  0  0
  184.0850  178.1240  142.1700 O   0  0  0  0  0  0  0  0  0  0  0  0
  186.3970  177.5140  144.2560 O   0  0  0  0  0  0  0  0  0  0  0  0
  184.6530  179.0520  144.7070 C   0  0  0  0  0  2  0  0  0  0  0  0
  186.1660  177.4920  145.6470 C   0  0  2  0  0  3  0  0  0  0  0  0
  185.7730  178.6740  143.7700 C   0  0  2  0  0  3  0  0  0  0  0  0
  185.1500  178.5530  146.0240 C   0  0  0  0  0  2  0  0  0  0  0  0
  187.4720  177.6790  146.4140 C   0  0  0  0  0  2  0  0  0  0  0  0
  188.5940  177.1470  145.6570 N   0  0  0  0  0  2  0  0  0  0  0  0
  189.8060  177.4690  146.3920 C   0  0  1  0  0  3  0  0  0  0  0  0
  189.6630  177.0490  147.7160 O   0  0  0  0  0  1  0  0  0  0  0  0
  191.7690  177.6940  145.0440 O   0  0  0  0  0  1  0  0  0  0  0  0
  191.8610  176.1170  146.8150 C   0  0  0  0  0  1  0  0  0  0  0  0
  190.9980  176.7690  145.7510 C   0  0  1  0  0  3  0  0  0  0  0  0
  187.5800  178.9250  141.3920 C   0  0  0  0  0  2  0  0  0  0  0  0
  188.4580  177.7510  141.0680 C   0  0  0  0  0  0  0  0  0  0  0  0
  188.7070  176.9370  141.9450 O   0  0  0  0  0  0  0  0  0  0  0  0
  189.0780  177.5910  139.6980 C   0  0  0  0  0  0  0  0  0  0  0  0
  189.2210  178.8500  139.1110 O   0  0  0  0  0  1  0  0  0  0  0  0
  188.2480  176.8130  138.8840 O   0  0  0  0  0  1  0  0  0  0  0  0
  190.4330  176.9480  139.8080 C   0  0  0  0  0  0  0  0  0  0  0  0
  190.7220  175.9450  139.1010 O   0  0  0  0  0  0  0  0  0  0  0  0
  192.5890  177.8620  140.2180 O   0  0  0  0  0  1  0  0  0  0  0  0
  191.3860  177.4830  140.6720 O   0  0  0  0  0  0  0  0  0  0  0  0
  2 16  1  0  0  0  0
  2  1  1  0  0  0  0
  3  1  2  0  0  0  0
  4  6  1  0  0  0  0
  5  8  1  0  0  0  0
  6  8  1  0  0  0  0
  6  9  1  1  0  0  0
  7  1  1  6  0  0  0
  7  4  1  0  0  0  0
  7  5  1  0  0  0  0
 10 11  1  0  0  0  0
 10  9  1  0  0  0  0
 11 12  1  1  0  0  0
 13 15  1  0  0  0  0
 15 11  1  0  0  0  0
 15 14  1  1  0  0  0
 17 16  1  0  0  0  0
 17 18  2  0  0  0  0
 19 22  1  0  0  0  0
 19 17  1  0  0  0  0
 20 19  1  0  0  0  0
 21 19  1  0  0  0  0
 22 25  1  0  0  0  0
 23 22  2  0  0  0  0
 24 25  1  0  0  0  0
M  END
>  <MODEL>
7

>  <REMARK>
 VINA RESULT:      -6.5      2.201      5.400
  Name = 
  10 active torsions:
  status: ('A' for Active; 'I' for Inactive)
    1  A    between atoms: C_3  and  O_9
    2  A    between atoms: C_3  and  C_14
    3  A    between atoms: C_4  and  C_11
    4  A    between atoms: C_4  and  N_17
    5  A    between atoms: C_7  and  C_23
    6  A    between atoms: C_8  and  C_18
    7  A    between atoms: C_8  and  N_20
    8  A    between atoms: C_13  and  N_17
    9  A    between atoms: C_13  and  C_19
   10  A    between atoms: C_14  and  C_18
                            x       y       z     vdW  Elec       q    Type
                         _______ _______ _______ _____ _____    ______ ____

>  <TORSDO>
F 10

$$$$
=
 OpenBabel11062413523D

 25 25  0  0  1  0  0  0  0  0999 V2000
  190.6360  177.1790  140.5230 C   0  0  0  0  0  0  0  0  0  0  0  0
  190.4530  177.2610  139.1070 N   0  0  0  0  0  2  0  0  0  0  0  0
  191.7660  177.4440  141.0130 O   0  0  0  0  0  0  0  0  0  0  0  0
  188.8100  178.0110  141.8100 O   0  0  0  0  0  0  0  0  0  0  0  0
  189.9430  176.1150  142.6640 C   0  0  0  0  0  2  0  0  0  0  0  0
  188.3070  177.7690  143.1050 C   0  0  2  0  0  3  0  0  0  0  0  0
  189.4890  176.8440  141.4250 C   0  0  2  0  0  3  0  0  0  0  0  0
  188.8950  176.4860  143.6620 C   0  0  0  0  0  2  0  0  0  0  0  0
  186.7820  177.7180  143.0900 C   0  0  0  0  0  2  0  0  0  0  0  0
  186.2370  178.2550  144.3270 N   0  0  0  0  0  2  0  0  0  0  0  0
  185.0810  179.0640  143.9780 C   0  0  1  0  0  3  0  0  0  0  0  0
  184.8910  179.0180  142.5950 O   0  0  0  0  0  1  0  0  0  0  0  0
  183.8070  179.0030  146.0010 O   0  0  0  0  0  1  0  0  0  0  0  0
  182.5870  178.9730  143.9670 C   0  0  0  0  0  1  0  0  0  0  0  0
  183.8450  178.5280  144.6890 C   0  0  1  0  0  3  0  0  0  0  0  0
  189.1800  177.0000  138.4480 C   0  0  0  0  0  2  0  0  0  0  0  0
  188.5570  178.2790  137.9680 C   0  0  0  0  0  0  0  0  0  0  0  0
  189.0480  179.3440  138.3140 O   0  0  0  0  0  0  0  0  0  0  0  0
  187.3100  178.2710  137.1130 C   0  0  0  0  0  0  0  0  0  0  0  0
  187.4660  177.3380  136.0860 O   0  0  0  0  0  1  0  0  0  0  0  0
  187.1100  179.5320  136.5430 O   0  0  0  0  0  1  0  0  0  0  0  0
  186.1120  177.8890  137.9400 C   0  0  0  0  0  0  0  0  0  0  0  0
  185.4010  176.9000  137.6130 O   0  0  0  0  0  0  0  0  0  0  0  0
  184.9240  179.6200  139.0550 O   0  0  0  0  0  1  0  0  0  0  0  0
  185.8050  178.6110  139.0910 O   0  0  0  0  0  0  0  0  0  0  0  0
  1  3  2  0  0  0  0
  2  1  1  0  0  0  0
  4  6  1  0  0  0  0
  5  8  1  0  0  0  0
  6  9  1  6  0  0  0
  6  8  1  0  0  0  0
  7  1  1  6  0  0  0
  7  4  1  0  0  0  0
  7  5  1  0  0  0  0
  9 10  1  0  0  0  0
 11 12  1  6  0  0  0
 11 10  1  0  0  0  0
 11 15  1  0  0  0  0
 15 14  1  6  0  0  0
 15 13  1  0  0  0  0
 16  2  1  0  0  0  0
 17 18  2  0  0  0  0
 17 16  1  0  0  0  0
 19 22  1  0  0  0  0
 19 17  1  0  0  0  0
 20 19  1  0  0  0  0
 21 19  1  0  0  0  0
 22 25  1  0  0  0  0
 23 22  2  0  0  0  0
 24 25  1  0  0  0  0
M  END
>  <MODEL>
8

>  <REMARK>
 VINA RESULT:      -6.3      2.175      5.747
  Name = 
  10 active torsions:
  status: ('A' for Active; 'I' for Inactive)
    1  A    between atoms: C_3  and  O_9
    2  A    between atoms: C_3  and  C_14
    3  A    between atoms: C_4  and  C_11
    4  A    between atoms: C_4  and  N_17
    5  A    between atoms: C_7  and  C_23
    6  A    between atoms: C_8  and  C_18
    7  A    between atoms: C_8  and  N_20
    8  A    between atoms: C_13  and  N_17
    9  A    between atoms: C_13  and  C_19
   10  A    between atoms: C_14  and  C_18
                            x       y       z     vdW  Elec       q    Type
                         _______ _______ _______ _____ _____    ______ ____

>  <TORSDO>
F 10

$$$$
=
 OpenBabel11062413523D

 25 25  0  0  1  0  0  0  0  0999 V2000
  190.9350  176.8990  146.7340 C   0  0  0  0  0  0  0  0  0  0  0  0
  191.4640  176.7490  145.4130 N   0  0  0  0  0  2  0  0  0  0  0  0
  191.7270  177.0780  147.6960 O   0  0  0  0  0  0  0  0  0  0  0  0
  188.7970  177.5950  145.9380 O   0  0  0  0  0  0  0  0  0  0  0  0
  189.1010  177.5500  148.2870 C   0  0  0  0  0  2  0  0  0  0  0  0
  187.6580  178.1880  146.5200 C   0  0  2  0  0  3  0  0  0  0  0  0
  189.4560  176.9070  146.9700 C   0  0  2  0  0  3  0  0  0  0  0  0
  187.7250  178.0730  148.0310 C   0  0  0  0  0  2  0  0  0  0  0  0
  186.3820  177.5560  145.9730 C   0  0  0  0  0  2  0  0  0  0  0  0
  185.9560  178.2280  144.7560 N   0  0  0  0  0  2  0  0  0  0  0  0
  184.5030  178.2870  144.7780 C   0  0  1  0  0  3  0  0  0  0  0  0
  184.0910  179.0050  145.9020 O   0  0  0  0  0  1  0  0  0  0  0  0
  184.4370  178.2690  142.3870 O   0  0  0  0  0  1  0  0  0  0  0  0
  182.4800  179.0070  143.5070 C   0  0  0  0  0  1  0  0  0  0  0  0
  183.9960  178.9670  143.5130 C   0  0  1  0  0  3  0  0  0  0  0  0
  190.6300  176.5660  144.2330 C   0  0  0  0  0  2  0  0  0  0  0  0
  190.9300  177.6130  143.2000 C   0  0  0  0  0  0  0  0  0  0  0  0
  191.3530  178.7010  143.5640 O   0  0  0  0  0  0  0  0  0  0  0  0
  190.6690  177.3630  141.7320 C   0  0  0  0  0  0  0  0  0  0  0  0
  190.5480  175.9880  141.5160 O   0  0  0  0  0  1  0  0  0  0  0  0
  191.7370  177.8410  140.9660 O   0  0  0  0  0  1  0  0  0  0  0  0
  189.3930  178.0370  141.3050 C   0  0  0  0  0  0  0  0  0  0  0  0
  188.6710  178.6280  142.1520 O   0  0  0  0  0  0  0  0  0  0  0  0
  187.8800  178.6090  139.5630 O   0  0  0  0  0  1  0  0  0  0  0  0
  189.0250  178.0370  139.9610 O   0  0  0  0  0  0  0  0  0  0  0  0
  1  3  2  0  0  0  0
  2  1  1  0  0  0  0
  4  6  1  0  0  0  0
  4  7  1  0  0  0  0
  6  9  1  6  0  0  0
  6  8  1  0  0  0  0
  7  1  1  6  0  0  0
  7  5  1  0  0  0  0
  8  5  1  0  0  0  0
 10 11  1  0  0  0  0
 10  9  1  0  0  0  0
 11 12  1  1  0  0  0
 13 15  1  0  0  0  0
 15 14  1  1  0  0  0
 15 11  1  0  0  0  0
 16  2  1  0  0  0  0
 17 18  2  0  0  0  0
 17 16  1  0  0  0  0
 19 17  1  0  0  0  0
 20 19  1  0  0  0  0
 21 19  1  0  0  0  0
 22 19  1  0  0  0  0
 22 23  2  0  0  0  0
 24 25  1  0  0  0  0
 25 22  1  0  0  0  0
M  END
>  <MODEL>
9

>  <REMARK>
 VINA RESULT:      -6.3      2.580      4.309
  Name = 
  10 active torsions:
  status: ('A' for Active; 'I' for Inactive)
    1  A    between atoms: C_3  and  O_9
    2  A    between atoms: C_3  and  C_14
    3  A    between atoms: C_4  and  C_11
    4  A    between atoms: C_4  and  N_17
    5  A    between atoms: C_7  and  C_23
    6  A    between atoms: C_8  and  C_18
    7  A    between atoms: C_8  and  N_20
    8  A    between atoms: C_13  and  N_17
    9  A    between atoms: C_13  and  C_19
   10  A    between atoms: C_14  and  C_18
                            x       y       z     vdW  Elec       q    Type
                         _______ _______ _______ _____ _____    ______ ____

>  <TORSDO>
F 10

$$$$
