=
 OpenBabel11062416253D

 67 74  0  0  1  0  0  0  0  0999 V2000
  186.3650  176.5480  137.1250 C   0  0  1  0  0  3  0  0  0  0  0  0
  185.6590  174.2150  136.6060 O   0  0  0  0  0  0  0  0  0  0  0  0
  187.6820  174.4460  134.9050 O   0  0  0  0  0  0  0  0  0  0  0  0
  187.3940  177.9740  135.2520 C   0  0  0  0  0  2  0  0  0  0  0  0
  186.8860  176.5890  135.6590 C   0  0  1  0  0  3  0  0  0  0  0  0
  186.5190  179.0760  135.8370 C   0  0  0  0  0  2  0  0  0  0  0  0
  186.5250  178.9670  137.2360 O   0  0  0  0  0  0  0  0  0  0  0  0
  187.9130  173.4620  135.8740 C   0  0  1  0  0  3  0  0  0  0  0  0
  185.6990  177.8780  137.5350 C   0  0  0  0  0  2  0  0  0  0  0  0
  186.7290  173.3410  136.7740 C   0  0  0  0  0  0  0  0  0  0  0  0
  185.4730  175.3180  137.4810 C   0  0  2  0  0  3  0  0  0  0  0  0
  188.0770  175.6500  135.4970 C   0  0  0  0  0  2  0  0  0  0  0  0
  186.7410  172.5250  137.7360 O   0  0  0  0  0  0  0  0  0  0  0  0
  184.0060  175.6050  137.5970 C   0  0  0  0  0  3  0  0  0  0  0  0
  183.5310  175.9970  138.7200 N   0  0  0  0  0  0  0  0  0  0  0  0
  182.1230  176.2400  138.8690 C   0  0  0  0  0  2  0  0  0  0  0  0
  180.1760  177.2120  137.7000 C   0  0  0  0  0  2  0  0  0  0  0  0
  179.5010  178.3100  138.2820 O   0  0  0  0  0  0  0  0  0  0  0  0
  181.6760  177.3450  137.9150 C   0  0  1  0  0  3  0  0  0  0  0  0
  181.8130  178.7580  138.4600 C   0  0  0  0  0  0  0  0  0  0  0  0
  182.9850  178.9740  139.4210 C   0  0  0  0  0  1  0  0  0  0  0  0
  182.0450  179.6670  137.2560 C   0  0  0  0  0  1  0  0  0  0  0  0
  180.4300  178.9870  139.1050 C   0  0  1  0  0  0  0  0  0  0  0  0
  179.3450  181.0050  137.9640 C   0  0  0  0  0  1  0  0  0  0  0  0
  180.0990  180.4930  139.1810 C   0  0  0  0  0  2  0  0  0  0  0  0
  180.3950  178.3690  140.5200 C   0  0  0  0  0  2  0  0  0  0  0  0
  180.4070  179.3890  141.6520 C   0  0  0  0  0  2  0  0  0  0  0  0
  181.0400  178.7830  142.8900 C   0  0  0  0  0  2  0  0  0  0  0  0
  182.4840  179.2250  143.0280 C   0  0  0  0  0  2  0  0  0  0  0  0
  183.1500  178.4000  144.1140 C   0  0  0  0  0  2  0  0  0  0  0  0
  184.6580  178.5490  144.0440 C   0  0  1  0  0  3  0  0  0  0  0  0
  185.0460  179.1760  142.7450 C   0  0  0  0  0  3  0  0  0  0  0  0
  185.5910  178.5160  141.8770 O   0  0  0  0  0  0  0  0  0  0  0  0
  185.1200  179.4400  145.1840 C   0  0  0  0  0  2  0  0  0  0  0  0
  186.3410  179.3070  147.3750 C   0  0  0  0  0  1  0  0  0  0  0  0
  185.3030  178.6550  146.4810 C   0  0  0  0  0  3  0  0  0  0  0  0
  185.7620  177.2550  146.1450 C   0  0  0  0  0  1  0  0  0  0  0  0
  188.2280  172.1390  135.1950 C   0  0  0  0  0  2  0  0  0  0  0  0
  189.6790  171.7900  135.4600 C   0  0  1  0  0  3  0  0  0  0  0  0
  189.9980  170.5370  134.9150 O   0  0  0  0  0  0  0  0  0  0  0  0
  191.8690  172.0040  134.6850 C   0  0  2  0  0  3  0  0  0  0  0  0
  190.6130  172.8070  134.8650 C   0  0  0  0  0  2  0  0  0  0  0  0
  191.3690  170.5740  134.6040 C   0  0  0  0  0  2  0  0  0  0  0  0
  192.8570  172.1640  135.8610 C   0  0  2  0  0  3  0  0  0  0  0  0
  193.7840  173.7030  137.4730 C   0  0  0  0  0  2  0  0  0  0  0  0
  193.1910  176.5110  137.2280 C   0  0  0  0  0  1  0  0  0  0  0  0
  190.3550  175.3640  137.9960 N   0  0  0  0  0  0  0  0  0  0  0  0
  193.0120  173.5920  136.2490 N   0  0  0  0  0  0  0  0  0  0  0  0
  192.3730  175.4290  137.9370 C   0  0  2  0  0  0  0  0  0  0  0  0
  191.3950  175.0570  137.0380 C   0  0  1  0  0  3  0  0  0  0  0  0
  191.2240  176.4770  140.1280 N   0  0  0  0  0  2  0  0  0  0  0  0
  191.2680  175.8610  138.8410 C   0  0  0  0  0  0  0  0  0  0  0  0
  192.3190  173.9360  137.5190 C   0  0  2  0  0  0  0  0  0  0  0  0
  190.0010  176.7380  140.7590 N   0  0  0  0  0  2  0  0  0  0  0  0
  190.0970  178.0510  141.3690 C   0  0  0  0  0  2  0  0  0  0  0  0
  191.2140  176.8520  143.1910 C   0  0  0  0  0  3  0  0  0  0  0  0
  188.8300  177.5350  143.4410 C   0  0  0  0  0  2  0  0  0  0  0  0
  189.5410  176.9710  145.7990 C   0  0  0  0  0  2  0  0  0  0  0  0
  188.7250  177.9040  144.9140 C   0  0  0  0  0  2  0  0  0  0  0  0
  191.5920  176.5540  144.4420 C   0  0  0  0  0  3  0  0  0  0  0  0
  190.1970  177.9100  142.8760 C   0  0  2  0  0  3  0  0  0  0  0  0
  191.0330  177.2430  145.6530 C   0  0  0  0  0  2  0  0  0  0  0  0
  194.1450  171.2960  135.7620 C   0  0  1  0  0  3  0  0  0  0  0  0
  193.8870  170.1510  135.0070 O   0  0  0  0  0  1  0  0  0  0  0  0
  195.3350  172.0300  135.1500 C   0  0  0  0  0  2  0  0  0  0  0  0
  196.8980  170.8680  136.2000 C   0  0  0  0  0  1  0  0  0  0  0  0
  196.3980  171.1470  134.9270 O   0  0  0  0  0  0  0  0  0  0  0  0
  1 11  1  0  0  0  0
  1  9  1  6  0  0  0
  2 10  1  0  0  0  0
  2 11  1  0  0  0  0
  3 12  1  0  0  0  0
  3  8  1  0  0  0  0
  4  6  1  0  0  0  0
  5  4  1  1  0  0  0
  5  1  1  0  0  0  0
  6  7  1  0  0  0  0
  7  9  1  0  0  0  0
  8 38  1  6  0  0  0
  8 10  1  0  0  0  0
 10 13  2  0  0  0  0
 11 14  1  6  0  0  0
 12  5  1  0  0  0  0
 14 15  2  0  0  0  0
 15 16  1  0  0  0  0
 17 19  1  0  0  0  0
 17 18  1  0  0  0  0
 18 23  1  0  0  0  0
 19 20  1  0  0  0  0
 19 16  1  1  0  0  0
 20 23  1  0  0  0  0
 20 21  1  0  0  0  0
 22 20  1  0  0  0  0
 23 25  1  1  0  0  0
 23 26  1  0  0  0  0
 24 25  1  0  0  0  0
 26 27  1  0  0  0  0
 27 28  1  0  0  0  0
 28 29  1  0  0  0  0
 29 30  1  0  0  0  0
 31 32  1  6  0  0  0
 31 30  1  0  0  0  0
 31 34  1  0  0  0  0
 33 32  2  0  0  0  0
 34 36  1  0  0  0  0
 36 35  1  0  0  0  0
 37 36  1  0  0  0  0
 39 38  1  6  0  0  0
 40 39  1  0  0  0  0
 41 42  1  0  0  0  0
 41 44  1  1  0  0  0
 42 39  1  0  0  0  0
 43 41  1  0  0  0  0
 43 40  1  0  0  0  0
 44 63  1  6  0  0  0
 44 48  1  0  0  0  0
 47 52  2  0  0  0  0
 48 45  1  0  0  0  0
 48 53  1  0  0  0  0
 49 46  1  6  0  0  0
 49 52  1  0  0  0  0
 50 53  1  0  0  0  0
 50 49  1  0  0  0  0
 50 47  1  1  0  0  0
 51 54  1  0  0  0  0
 52 51  1  0  0  0  0
 53 45  1  1  0  0  0
 53 49  1  0  0  0  0
 54 55  1  0  0  0  0
 56 60  2  0  0  0  0
 57 59  1  0  0  0  0
 59 58  1  0  0  0  0
 60 62  1  0  0  0  0
 61 55  1  6  0  0  0
 61 56  1  0  0  0  0
 61 57  1  0  0  0  0
 62 58  1  0  0  0  0
 63 64  1  6  0  0  0
 65 63  1  0  0  0  0
 67 65  1  0  0  0  0
 67 66  1  0  0  0  0
M  END
>  <MODEL>
1

>  <REMARK>
 VINA RESULT:      -5.8      0.000      0.000
  Name = 
  23 active torsions:
  status: ('A' for Active; 'I' for Inactive)
    1  A    between atoms: C_1  and  C_47
    2  A    between atoms: C_4  and  C_61
    3  A    between atoms: C_12  and  C_56
    4  A    between atoms: C_19  and  C_52
    5  A    between atoms: N_21  and  C_52
    6  A    between atoms: C_22  and  C_43
    7  A    between atoms: C_22  and  C_59
    8  A    between atoms: C_25  and  C_61
    9  A    between atoms: C_30  and  C_47
   10  A    between atoms: C_30  and  C_59
   11  A    between atoms: N_31  and  N_49
   12  A    between atoms: C_34  and  C_37
   13  A    between atoms: C_37  and  N_39
   14  A    between atoms: C_40  and  C_52
   15  A    between atoms: C_40  and  C_58
   16  A    between atoms: C_43  and  C_45
   17  A    between atoms: C_45  and  C_62
   18  A    between atoms: C_46  and  C_60
   19  A    between atoms: C_47  and  C_60
   20  A    between atoms: N_49  and  C_54
   21  A    between atoms: C_51  and  C_54
   22  A    between atoms: O_53  and  C_58
   23  A    between atoms: C_62  and  C_66
                            x       y       z     vdW  Elec       q    Type
                         _______ _______ _______ _____ _____    ______ ____

>  <TORSDO>
F 23

$$$$
=
 OpenBabel11062416253D

 67 74  0  0  1  0  0  0  0  0999 V2000
  186.6280  176.0150  136.9450 C   0  0  1  0  0  3  0  0  0  0  0  0
  186.6980  173.7610  135.8870 O   0  0  0  0  0  0  0  0  0  0  0  0
  189.0780  174.6650  135.1410 O   0  0  0  0  0  0  0  0  0  0  0  0
  187.8930  177.9490  135.8200 C   0  0  0  0  0  2  0  0  0  0  0  0
  187.6040  176.4460  135.8110 C   0  0  1  0  0  3  0  0  0  0  0  0
  186.6410  178.7480  136.1660 C   0  0  0  0  0  2  0  0  0  0  0  0
  186.1840  178.3510  137.4320 O   0  0  0  0  0  0  0  0  0  0  0  0
  189.1740  173.5500  135.9830 C   0  0  1  0  0  3  0  0  0  0  0  0
  185.5760  177.1050  137.2420 C   0  0  0  0  0  2  0  0  0  0  0  0
  187.8110  173.0550  136.3340 C   0  0  0  0  0  0  0  0  0  0  0  0
  185.9730  174.6110  136.7630 C   0  0  2  0  0  3  0  0  0  0  0  0
  188.9570  175.7660  135.9950 C   0  0  0  0  0  2  0  0  0  0  0  0
  187.6730  172.0690  137.1090 O   0  0  0  0  0  0  0  0  0  0  0  0
  184.5330  174.6270  136.3430 C   0  0  0  0  0  3  0  0  0  0  0  0
  183.6210  174.6920  137.2400 N   0  0  0  0  0  0  0  0  0  0  0  0
  182.2330  174.6680  136.8670 C   0  0  0  0  0  2  0  0  0  0  0  0
  180.8210  175.2020  134.9120 C   0  0  0  0  0  2  0  0  0  0  0  0
  179.6760  176.0140  135.0910 O   0  0  0  0  0  0  0  0  0  0  0  0
  181.9620  175.7080  135.7820 C   0  0  1  0  0  3  0  0  0  0  0  0
  181.4340  177.0410  136.2880 C   0  0  0  0  0  0  0  0  0  0  0  0
  181.9420  177.4600  137.6700 C   0  0  0  0  0  1  0  0  0  0  0  0
  181.9060  178.1000  135.2950 C   0  0  0  0  0  1  0  0  0  0  0  0
  179.9080  176.8240  136.2260 C   0  0  1  0  0  0  0  0  0  0  0  0
  179.6240  179.2100  137.1080 C   0  0  0  0  0  1  0  0  0  0  0  0
  179.1630  178.1700  136.0990 C   0  0  0  0  0  2  0  0  0  0  0  0
  179.4260  176.0740  137.4880 C   0  0  0  0  0  2  0  0  0  0  0  0
  179.0910  176.9790  138.6680 C   0  0  0  0  0  2  0  0  0  0  0  0
  178.9310  176.1510  139.9280 C   0  0  0  0  0  2  0  0  0  0  0  0
  179.5350  176.8640  141.1230 C   0  0  0  0  0  2  0  0  0  0  0  0
  180.9660  177.2470  140.7960 C   0  0  0  0  0  2  0  0  0  0  0  0
  181.2670  178.6470  141.2980 C   0  0  1  0  0  3  0  0  0  0  0  0
  180.1480  179.5670  140.9380 C   0  0  0  0  0  3  0  0  0  0  0  0
  180.2000  180.7490  141.2310 O   0  0  0  0  0  0  0  0  0  0  0  0
  181.4150  178.6080  142.8090 C   0  0  0  0  0  2  0  0  0  0  0  0
  183.9000  178.6580  142.4490 C   0  0  0  0  0  1  0  0  0  0  0  0
  182.7440  179.2020  143.2670 C   0  0  0  0  0  3  0  0  0  0  0  0
  182.9660  178.8440  144.7190 C   0  0  0  0  0  1  0  0  0  0  0  0
  189.9990  172.4680  135.3070 C   0  0  0  0  0  2  0  0  0  0  0  0
  191.4630  172.6970  135.6310 C   0  0  1  0  0  3  0  0  0  0  0  0
  192.2820  172.2300  134.5940 O   0  0  0  0  0  0  0  0  0  0  0  0
  193.2290  174.2170  135.5230 C   0  0  2  0  0  3  0  0  0  0  0  0
  191.7630  174.1550  135.8420 C   0  0  0  0  0  2  0  0  0  0  0  0
  193.4480  173.0160  134.6200 C   0  0  0  0  0  2  0  0  0  0  0  0
  194.1220  174.1160  136.7790 C   0  0  2  0  0  3  0  0  0  0  0  0
  194.4660  175.1620  138.9270 C   0  0  0  0  0  2  0  0  0  0  0  0
  194.0000  177.9920  139.1960 C   0  0  0  0  0  1  0  0  0  0  0  0
  191.0660  176.9450  138.7080 N   0  0  0  0  0  0  0  0  0  0  0  0
  194.1450  175.3990  137.5320 N   0  0  0  0  0  0  0  0  0  0  0  0
  192.9890  176.8500  139.3180 C   0  0  2  0  0  0  0  0  0  0  0  0
  192.3640  176.7770  138.0910 C   0  0  1  0  0  3  0  0  0  0  0  0
  191.1810  177.4630  141.2090 N   0  0  0  0  0  2  0  0  0  0  0  0
  191.6480  177.1560  139.8960 C   0  0  0  0  0  0  0  0  0  0  0  0
  193.0700  175.5020  138.5550 C   0  0  2  0  0  0  0  0  0  0  0  0
  189.8190  177.6770  141.4570 N   0  0  0  0  0  2  0  0  0  0  0  0
  189.3530  176.5880  142.2950 C   0  0  0  0  0  2  0  0  0  0  0  0
  189.7420  176.5530  144.7150 C   0  0  0  0  0  3  0  0  0  0  0  0
  187.4170  176.7610  143.8390 C   0  0  0  0  0  2  0  0  0  0  0  0
  187.2040  177.4280  146.2670 C   0  0  0  0  0  2  0  0  0  0  0  0
  186.7500  177.6970  144.8380 C   0  0  0  0  0  2  0  0  0  0  0  0
  189.6300  176.9090  146.0020 C   0  0  0  0  0  3  0  0  0  0  0  0
  188.8810  177.1340  143.6300 C   0  0  2  0  0  3  0  0  0  0  0  0
  188.6290  177.9180  146.4900 C   0  0  0  0  0  2  0  0  0  0  0  0
  195.4730  173.3740  136.5700 C   0  0  1  0  0  3  0  0  0  0  0  0
  196.5340  174.2630  136.7490 O   0  0  0  0  0  1  0  0  0  0  0  0
  195.6700  172.1810  137.5020 C   0  0  0  0  0  2  0  0  0  0  0  0
  197.2360  170.6200  137.4510 C   0  0  0  0  0  1  0  0  0  0  0  0
  196.0900  171.0570  136.7840 O   0  0  0  0  0  0  0  0  0  0  0  0
  1  9  1  6  0  0  0
  2 10  1  0  0  0  0
  2 11  1  0  0  0  0
  3  8  1  0  0  0  0
  3 12  1  0  0  0  0
  4  6  1  0  0  0  0
  5  4  1  1  0  0  0
  5 12  1  0  0  0  0
  5  1  1  0  0  0  0
  6  7  1  0  0  0  0
  8 38  1  6  0  0  0
  8 10  1  0  0  0  0
  9  7  1  0  0  0  0
 10 13  2  0  0  0  0
 11 14  1  6  0  0  0
 11  1  1  0  0  0  0
 14 15  2  0  0  0  0
 16 15  1  0  0  0  0
 17 18  1  0  0  0  0
 17 19  1  0  0  0  0
 18 23  1  0  0  0  0
 19 20  1  0  0  0  0
 19 16  1  1  0  0  0
 20 21  1  0  0  0  0
 22 20  1  0  0  0  0
 23 25  1  6  0  0  0
 23 20  1  0  0  0  0
 23 26  1  0  0  0  0
 25 24  1  0  0  0  0
 26 27  1  0  0  0  0
 27 28  1  0  0  0  0
 28 29  1  0  0  0  0
 30 29  1  0  0  0  0
 31 30  1  1  0  0  0
 31 34  1  0  0  0  0
 32 33  2  0  0  0  0
 32 31  1  0  0  0  0
 34 36  1  0  0  0  0
 35 36  1  0  0  0  0
 36 37  1  0  0  0  0
 39 38  1  6  0  0  0
 39 42  1  0  0  0  0
 40 43  1  0  0  0  0
 40 39  1  0  0  0  0
 41 42  1  0  0  0  0
 41 44  1  1  0  0  0
 43 41  1  0  0  0  0
 44 63  1  6  0  0  0
 44 48  1  0  0  0  0
 47 52  2  0  0  0  0
 48 53  1  0  0  0  0
 48 45  1  0  0  0  0
 49 46  1  1  0  0  0
 49 52  1  0  0  0  0
 50 53  1  0  0  0  0
 50 47  1  1  0  0  0
 50 49  1  0  0  0  0
 51 54  1  0  0  0  0
 52 51  1  0  0  0  0
 53 45  1  1  0  0  0
 53 49  1  0  0  0  0
 54 55  1  0  0  0  0
 56 60  2  0  0  0  0
 57 59  1  0  0  0  0
 58 62  1  0  0  0  0
 59 58  1  0  0  0  0
 60 62  1  0  0  0  0
 61 55  1  6  0  0  0
 61 57  1  0  0  0  0
 61 56  1  0  0  0  0
 63 64  1  1  0  0  0
 63 65  1  0  0  0  0
 67 66  1  0  0  0  0
 67 65  1  0  0  0  0
M  END
>  <MODEL>
2

>  <REMARK>
 VINA RESULT:      -4.7      1.763      2.812
  Name = 
  23 active torsions:
  status: ('A' for Active; 'I' for Inactive)
    1  A    between atoms: C_1  and  C_47
    2  A    between atoms: C_4  and  C_61
    3  A    between atoms: C_12  and  C_56
    4  A    between atoms: C_19  and  C_52
    5  A    between atoms: N_21  and  C_52
    6  A    between atoms: C_22  and  C_43
    7  A    between atoms: C_22  and  C_59
    8  A    between atoms: C_25  and  C_61
    9  A    between atoms: C_30  and  C_47
   10  A    between atoms: C_30  and  C_59
   11  A    between atoms: N_31  and  N_49
   12  A    between atoms: C_34  and  C_37
   13  A    between atoms: C_37  and  N_39
   14  A    between atoms: C_40  and  C_52
   15  A    between atoms: C_40  and  C_58
   16  A    between atoms: C_43  and  C_45
   17  A    between atoms: C_45  and  C_62
   18  A    between atoms: C_46  and  C_60
   19  A    between atoms: C_47  and  C_60
   20  A    between atoms: N_49  and  C_54
   21  A    between atoms: C_51  and  C_54
   22  A    between atoms: O_53  and  C_58
   23  A    between atoms: C_62  and  C_66
                            x       y       z     vdW  Elec       q    Type
                         _______ _______ _______ _____ _____    ______ ____

>  <TORSDO>
F 23

$$$$
=
 OpenBabel11062416253D

 67 74  0  0  1  0  0  0  0  0999 V2000
  189.3010  177.2020  142.4790 C   0  0  1  0  0  3  0  0  0  0  0  0
  189.5270  177.5710  140.0260 O   0  0  0  0  0  0  0  0  0  0  0  0
  192.0750  177.7840  140.7350 O   0  0  0  0  0  0  0  0  0  0  0  0
  190.9610  178.3600  144.0630 C   0  0  0  0  0  2  0  0  0  0  0  0
  190.5900  178.0660  142.6070 C   0  0  1  0  0  3  0  0  0  0  0  0
  189.7190  178.6200  144.9070 C   0  0  0  0  0  2  0  0  0  0  0  0
  188.8890  177.4900  144.8540 O   0  0  0  0  0  0  0  0  0  0  0  0
  191.8500  176.6940  139.8850 C   0  0  1  0  0  3  0  0  0  0  0  0
  188.2820  177.5230  143.5930 C   0  0  0  0  0  2  0  0  0  0  0  0
  190.4140  176.6470  139.4810 C   0  0  0  0  0  0  0  0  0  0  0  0
  188.6360  177.2010  141.0680 C   0  0  2  0  0  3  0  0  0  0  0  0
  191.7830  177.3200  142.0210 C   0  0  0  0  0  2  0  0  0  0  0  0
  189.9920  175.7220  138.7350 O   0  0  0  0  0  0  0  0  0  0  0  0
  187.3850  178.0180  140.9500 C   0  0  0  0  0  3  0  0  0  0  0  0
  186.7240  177.9980  139.8530 N   0  0  0  0  0  0  0  0  0  0  0  0
  185.5440  178.8030  139.7000 C   0  0  0  0  0  2  0  0  0  0  0  0
  184.6950  176.7960  138.5350 C   0  0  0  0  0  2  0  0  0  0  0  0
  183.3830  176.3440  138.8110 O   0  0  0  0  0  0  0  0  0  0  0  0
  184.7280  178.3170  138.5030 C   0  0  1  0  0  3  0  0  0  0  0  0
  183.2530  178.6870  138.5400 C   0  0  0  0  0  0  0  0  0  0  0  0
  182.9330  180.0190  139.2230 C   0  0  0  0  0  1  0  0  0  0  0  0
  182.8000  178.8040  137.0870 C   0  0  0  0  0  1  0  0  0  0  0  0
  182.6350  177.4620  139.2460 C   0  0  1  0  0  0  0  0  0  0  0  0
  180.6500  175.8690  138.9710 C   0  0  0  0  0  1  0  0  0  0  0  0
  181.1460  177.3030  138.8710 C   0  0  0  0  0  2  0  0  0  0  0  0
  182.7800  177.6010  140.7770 C   0  0  0  0  0  2  0  0  0  0  0  0
  181.9300  178.7070  141.3910 C   0  0  0  0  0  2  0  0  0  0  0  0
  181.7180  178.4380  142.8690 C   0  0  0  0  0  2  0  0  0  0  0  0
  182.4500  179.4620  143.7150 C   0  0  0  0  0  2  0  0  0  0  0  0
  183.0570  178.7650  144.9180 C   0  0  0  0  0  2  0  0  0  0  0  0
  184.5670  178.9060  144.9060 C   0  0  1  0  0  3  0  0  0  0  0  0
  184.9730  179.9470  143.9160 C   0  0  0  0  0  3  0  0  0  0  0  0
  185.2860  179.6350  142.7810 O   0  0  0  0  0  0  0  0  0  0  0  0
  185.0350  179.3240  146.2890 C   0  0  0  0  0  2  0  0  0  0  0  0
  187.1620  178.7460  147.4940 C   0  0  0  0  0  1  0  0  0  0  0  0
  185.8350  178.2210  146.9780 C   0  0  0  0  0  3  0  0  0  0  0  0
  186.1040  177.1170  145.9810 C   0  0  0  0  0  1  0  0  0  0  0  0
  192.7630  176.7910  138.6740 C   0  0  0  0  0  2  0  0  0  0  0  0
  192.1540  175.9900  137.5400 C   0  0  1  0  0  3  0  0  0  0  0  0
  191.1110  176.7020  136.9300 O   0  0  0  0  0  0  0  0  0  0  0  0
  192.3080  175.4680  135.2710 C   0  0  2  0  0  3  0  0  0  0  0  0
  193.1720  175.6600  136.4840 C   0  0  0  0  0  2  0  0  0  0  0  0
  191.0600  176.2700  135.5920 C   0  0  0  0  0  2  0  0  0  0  0  0
  191.9470  173.9870  135.0200 C   0  0  2  0  0  3  0  0  0  0  0  0
  190.1290  172.4140  135.2320 C   0  0  0  0  0  2  0  0  0  0  0  0
  188.1940  172.7860  137.3320 C   0  0  0  0  0  1  0  0  0  0  0  0
  187.5660  175.2690  135.4930 N   0  0  0  0  0  0  0  0  0  0  0  0
  190.7690  173.5720  135.8280 N   0  0  0  0  0  0  0  0  0  0  0  0
  188.2010  173.4030  135.9320 C   0  0  2  0  0  0  0  0  0  0  0  0
  188.7390  174.6640  136.0870 C   0  0  1  0  0  3  0  0  0  0  0  0
  185.6760  173.6080  135.0390 N   0  0  0  0  0  2  0  0  0  0  0  0
  186.9590  174.0750  135.4520 C   0  0  0  0  0  0  0  0  0  0  0  0
  189.4750  173.7410  135.1140 C   0  0  2  0  0  0  0  0  0  0  0  0
  184.6930  174.5020  134.5950 N   0  0  0  0  0  2  0  0  0  0  0  0
  184.1610  175.1790  135.7630 C   0  0  0  0  0  2  0  0  0  0  0  0
  182.5960  173.3090  136.0080 C   0  0  0  0  0  3  0  0  0  0  0  0
  181.8820  175.3670  134.7970 C   0  0  0  0  0  2  0  0  0  0  0  0
  179.7110  174.1600  135.2580 C   0  0  0  0  0  2  0  0  0  0  0  0
  180.4160  175.5070  135.1820 C   0  0  0  0  0  2  0  0  0  0  0  0
  181.4450  172.6690  136.2550 C   0  0  0  0  0  3  0  0  0  0  0  0
  182.7030  174.8050  135.9530 C   0  0  2  0  0  3  0  0  0  0  0  0
  180.1460  173.3830  136.4940 C   0  0  0  0  0  2  0  0  0  0  0  0
  193.1600  173.0150  134.9540 C   0  0  1  0  0  3  0  0  0  0  0  0
  194.3310  173.7360  134.7140 O   0  0  0  0  0  1  0  0  0  0  0  0
  193.3480  172.1810  136.2190 C   0  0  0  0  0  2  0  0  0  0  0  0
  194.7180  170.6370  137.0140 C   0  0  0  0  0  1  0  0  0  0  0  0
  193.9170  170.9400  135.9120 O   0  0  0  0  0  0  0  0  0  0  0  0
  1  5  1  0  0  0  0
  1  9  1  1  0  0  0
  2 11  1  0  0  0  0
  3 12  1  0  0  0  0
  4  6  1  0  0  0  0
  5 12  1  1  0  0  0
  5  4  1  0  0  0  0
  7  6  1  0  0  0  0
  8 38  1  6  0  0  0
  8  3  1  0  0  0  0
  9  7  1  0  0  0  0
 10  8  1  0  0  0  0
 10  2  1  0  0  0  0
 11 14  1  1  0  0  0
 11  1  1  0  0  0  0
 13 10  2  0  0  0  0
 15 14  2  0  0  0  0
 16 15  1  0  0  0  0
 17 18  1  0  0  0  0
 18 23  1  0  0  0  0
 19 17  1  0  0  0  0
 19 20  1  0  0  0  0
 19 16  1  1  0  0  0
 20 21  1  0  0  0  0
 20 23  1  0  0  0  0
 22 20  1  0  0  0  0
 23 25  1  6  0  0  0
 23 26  1  0  0  0  0
 25 24  1  0  0  0  0
 26 27  1  0  0  0  0
 27 28  1  0  0  0  0
 28 29  1  0  0  0  0
 29 30  1  0  0  0  0
 31 32  1  6  0  0  0
 31 30  1  0  0  0  0
 31 34  1  0  0  0  0
 33 32  2  0  0  0  0
 34 36  1  0  0  0  0
 36 35  1  0  0  0  0
 37 36  1  0  0  0  0
 39 38  1  1  0  0  0
 40 39  1  0  0  0  0
 41 44  1  1  0  0  0
 41 43  1  0  0  0  0
 41 42  1  0  0  0  0
 42 39  1  0  0  0  0
 43 40  1  0  0  0  0
 44 63  1  1  0  0  0
 44 48  1  0  0  0  0
 45 48  1  0  0  0  0
 49 50  1  0  0  0  0
 49 46  1  1  0  0  0
 50 47  1  6  0  0  0
 51 52  1  0  0  0  0
 52 47  2  0  0  0  0
 52 49  1  0  0  0  0
 53 45  1  6  0  0  0
 53 48  1  0  0  0  0
 53 49  1  0  0  0  0
 53 50  1  0  0  0  0
 54 51  1  0  0  0  0
 54 55  1  0  0  0  0
 56 60  2  0  0  0  0
 57 59  1  0  0  0  0
 57 61  1  0  0  0  0
 58 62  1  0  0  0  0
 59 58  1  0  0  0  0
 60 62  1  0  0  0  0
 61 55  1  6  0  0  0
 61 56  1  0  0  0  0
 63 64  1  1  0  0  0
 63 65  1  0  0  0  0
 67 65  1  0  0  0  0
 67 66  1  0  0  0  0
M  END
>  <MODEL>
3

>  <REMARK>
 VINA RESULT:      -3.8      2.454      6.265
  Name = 
  23 active torsions:
  status: ('A' for Active; 'I' for Inactive)
    1  A    between atoms: C_1  and  C_47
    2  A    between atoms: C_4  and  C_61
    3  A    between atoms: C_12  and  C_56
    4  A    between atoms: C_19  and  C_52
    5  A    between atoms: N_21  and  C_52
    6  A    between atoms: C_22  and  C_43
    7  A    between atoms: C_22  and  C_59
    8  A    between atoms: C_25  and  C_61
    9  A    between atoms: C_30  and  C_47
   10  A    between atoms: C_30  and  C_59
   11  A    between atoms: N_31  and  N_49
   12  A    between atoms: C_34  and  C_37
   13  A    between atoms: C_37  and  N_39
   14  A    between atoms: C_40  and  C_52
   15  A    between atoms: C_40  and  C_58
   16  A    between atoms: C_43  and  C_45
   17  A    between atoms: C_45  and  C_62
   18  A    between atoms: C_46  and  C_60
   19  A    between atoms: C_47  and  C_60
   20  A    between atoms: N_49  and  C_54
   21  A    between atoms: C_51  and  C_54
   22  A    between atoms: O_53  and  C_58
   23  A    between atoms: C_62  and  C_66
                            x       y       z     vdW  Elec       q    Type
                         _______ _______ _______ _____ _____    ______ ____

>  <TORSDO>
F 23

$$$$
=
 OpenBabel11062416253D

 67 74  0  0  1  0  0  0  0  0999 V2000
  184.4820  179.4000  143.1300 C   0  0  1  0  0  3  0  0  0  0  0  0
  185.0680  178.3430  140.9520 O   0  0  0  0  0  0  0  0  0  0  0  0
  182.4240  178.1840  140.8140 O   0  0  0  0  0  0  0  0  0  0  0  0
  182.3480  178.6340  144.3410 C   0  0  0  0  0  2  0  0  0  0  0  0
  183.1920  178.5300  143.0680 C   0  0  1  0  0  3  0  0  0  0  0  0
  183.2290  178.6970  145.5830 C   0  0  0  0  0  2  0  0  0  0  0  0
  184.0710  179.8150  145.4860 O   0  0  0  0  0  0  0  0  0  0  0  0
  182.9590  179.0040  139.8120 C   0  0  1  0  0  3  0  0  0  0  0  0
  185.0600  179.4670  144.5590 C   0  0  0  0  0  2  0  0  0  0  0  0
  184.4480  179.0220  139.9070 C   0  0  0  0  0  0  0  0  0  0  0  0
  185.5770  179.0440  142.0770 C   0  0  2  0  0  3  0  0  0  0  0  0
  182.2890  179.0080  141.9360 C   0  0  0  0  0  2  0  0  0  0  0  0
  185.1280  179.7250  139.1090 O   0  0  0  0  0  0  0  0  0  0  0  0
  186.7650  178.3040  142.6150 C   0  0  0  0  0  3  0  0  0  0  0  0
  186.6910  177.7600  143.7720 N   0  0  0  0  0  0  0  0  0  0  0  0
  187.8280  177.0800  144.3280 C   0  0  0  0  0  2  0  0  0  0  0  0
  187.9400  176.3470  146.6850 C   0  0  0  0  0  2  0  0  0  0  0  0
  189.1980  176.0240  147.2460 O   0  0  0  0  0  0  0  0  0  0  0  0
  188.0720  177.5490  145.7610 C   0  0  1  0  0  3  0  0  0  0  0  0
  189.4840  178.0380  146.0450 C   0  0  0  0  0  0  0  0  0  0  0  0
  190.1880  178.7120  144.8650 C   0  0  0  0  0  1  0  0  0  0  0  0
  189.3670  179.0790  147.1550 C   0  0  0  0  0  1  0  0  0  0  0  0
  190.1770  176.7470  146.5270 C   0  0  1  0  0  0  0  0  0  0  0  0
  192.0380  175.8400  148.0340 C   0  0  0  0  0  1  0  0  0  0  0  0
  191.3870  177.0740  147.4290 C   0  0  0  0  0  2  0  0  0  0  0  0
  190.6370  175.9050  145.3160 C   0  0  0  0  0  2  0  0  0  0  0  0
  191.6290  176.6110  144.4000 C   0  0  0  0  0  2  0  0  0  0  0  0
  191.7150  175.8850  143.0710 C   0  0  0  0  0  2  0  0  0  0  0  0
  190.5150  176.2080  142.2020 C   0  0  0  0  0  2  0  0  0  0  0  0
  190.6760  177.6060  141.6370 C   0  0  0  0  0  2  0  0  0  0  0  0
  190.6230  177.5750  140.1210 C   0  0  1  0  0  3  0  0  0  0  0  0
  191.8810  176.9790  139.5810 C   0  0  0  0  0  3  0  0  0  0  0  0
  192.9650  177.4610  139.8620 O   0  0  0  0  0  0  0  0  0  0  0  0
  189.4420  176.7250  139.6860 C   0  0  0  0  0  2  0  0  0  0  0  0
  190.2460  177.2420  137.3630 C   0  0  0  0  0  1  0  0  0  0  0  0
  189.0320  177.0150  138.2440 C   0  0  0  0  0  3  0  0  0  0  0  0
  188.1750  178.2590  138.2200 C   0  0  0  0  0  1  0  0  0  0  0  0
  182.4970  178.5160  138.4490 C   0  0  0  0  0  2  0  0  0  0  0  0
  182.5770  177.0020  138.4220 C   0  0  1  0  0  3  0  0  0  0  0  0
  182.2570  176.4620  139.6760 O   0  0  0  0  0  0  0  0  0  0  0  0
  181.4140  175.0340  137.9560 C   0  0  2  0  0  3  0  0  0  0  0  0
  181.6360  176.4140  137.4070 C   0  0  0  0  0  2  0  0  0  0  0  0
  181.7160  175.1860  139.4360 C   0  0  0  0  0  2  0  0  0  0  0  0
  182.3460  173.9790  137.3210 C   0  0  2  0  0  3  0  0  0  0  0  0
  183.6310  173.7400  135.2920 C   0  0  0  0  0  2  0  0  0  0  0  0
  185.5630  175.7650  134.6120 C   0  0  0  0  0  1  0  0  0  0  0  0
  186.9040  174.4910  137.1650 N   0  0  0  0  0  0  0  0  0  0  0  0
  183.3440  174.6110  136.4160 N   0  0  0  0  0  0  0  0  0  0  0  0
  185.7520  174.5390  135.5070 C   0  0  2  0  0  0  0  0  0  0  0  0
  185.5990  174.9970  136.7990 C   0  0  1  0  0  3  0  0  0  0  0  0
  188.2420  173.5800  135.1850 N   0  0  0  0  0  2  0  0  0  0  0  0
  187.1420  174.1550  135.8900 C   0  0  0  0  0  0  0  0  0  0  0  0
  184.6410  173.8850  136.3690 C   0  0  2  0  0  0  0  0  0  0  0  0
  189.4470  173.2950  135.8400 N   0  0  0  0  0  2  0  0  0  0  0  0
  190.4870  173.2310  134.8310 C   0  0  0  0  0  2  0  0  0  0  0  0
  192.7080  172.2920  135.2660 C   0  0  0  0  0  3  0  0  0  0  0  0
  191.6470  173.7870  136.9540 C   0  0  0  0  0  2  0  0  0  0  0  0
  194.0700  173.7070  137.6660 C   0  0  0  0  0  2  0  0  0  0  0  0
  192.8250  174.5710  137.5170 C   0  0  0  0  0  2  0  0  0  0  0  0
  193.9940  172.2510  135.6410 C   0  0  0  0  0  3  0  0  0  0  0  0
  191.8370  173.4980  135.4690 C   0  0  2  0  0  3  0  0  0  0  0  0
  194.6910  173.4020  136.3080 C   0  0  0  0  0  2  0  0  0  0  0  0
  181.6380  172.6850  136.8280 C   0  0  1  0  0  3  0  0  0  0  0  0
  181.2590  172.8320  135.4920 O   0  0  0  0  0  1  0  0  0  0  0  0
  182.4930  171.4270  136.9590 C   0  0  0  0  0  2  0  0  0  0  0  0
  183.5210  170.0800  135.5370 C   0  0  0  0  0  1  0  0  0  0  0  0
  182.2570  170.5560  135.8910 O   0  0  0  0  0  0  0  0  0  0  0  0
  1  9  1  1  0  0  0
  2 11  1  0  0  0  0
  3 12  1  0  0  0  0
  4  6  1  0  0  0  0
  5 12  1  6  0  0  0
  5  1  1  0  0  0  0
  5  4  1  0  0  0  0
  7  6  1  0  0  0  0
  8 38  1  6  0  0  0
  8 10  1  0  0  0  0
  8  3  1  0  0  0  0
  9  7  1  0  0  0  0
 10  2  1  0  0  0  0
 11 14  1  1  0  0  0
 11  1  1  0  0  0  0
 13 10  2  0  0  0  0
 14 15  2  0  0  0  0
 15 16  1  0  0  0  0
 17 18  1  0  0  0  0
 19 16  1  6  0  0  0
 19 20  1  0  0  0  0
 19 17  1  0  0  0  0
 20 23  1  0  0  0  0
 20 22  1  0  0  0  0
 21 20  1  0  0  0  0
 23 26  1  6  0  0  0
 23 18  1  0  0  0  0
 23 25  1  0  0  0  0
 25 24  1  0  0  0  0
 27 26  1  0  0  0  0
 28 27  1  0  0  0  0
 29 28  1  0  0  0  0
 30 29  1  0  0  0  0
 31 32  1  6  0  0  0
 31 30  1  0  0  0  0
 32 33  2  0  0  0  0
 34 31  1  0  0  0  0
 35 36  1  0  0  0  0
 36 34  1  0  0  0  0
 37 36  1  0  0  0  0
 39 38  1  1  0  0  0
 39 40  1  0  0  0  0
 41 44  1  6  0  0  0
 41 43  1  0  0  0  0
 42 41  1  0  0  0  0
 42 39  1  0  0  0  0
 43 40  1  0  0  0  0
 44 63  1  6  0  0  0
 45 48  1  0  0  0  0
 48 44  1  0  0  0  0
 49 46  1  6  0  0  0
 49 52  1  0  0  0  0
 49 53  1  0  0  0  0
 49 50  1  0  0  0  0
 50 47  1  1  0  0  0
 51 54  1  0  0  0  0
 51 52  1  0  0  0  0
 52 47  2  0  0  0  0
 53 45  1  1  0  0  0
 53 48  1  0  0  0  0
 53 50  1  0  0  0  0
 55 54  1  0  0  0  0
 56 61  1  0  0  0  0
 56 60  2  0  0  0  0
 57 59  1  0  0  0  0
 59 58  1  0  0  0  0
 60 62  1  0  0  0  0
 61 55  1  1  0  0  0
 61 57  1  0  0  0  0
 62 58  1  0  0  0  0
 63 64  1  6  0  0  0
 63 65  1  0  0  0  0
 66 67  1  0  0  0  0
 67 65  1  0  0  0  0
M  END
>  <MODEL>
4

>  <REMARK>
 VINA RESULT:      -3.8      2.933      9.732
  Name = 
  23 active torsions:
  status: ('A' for Active; 'I' for Inactive)
    1  A    between atoms: C_1  and  C_47
    2  A    between atoms: C_4  and  C_61
    3  A    between atoms: C_12  and  C_56
    4  A    between atoms: C_19  and  C_52
    5  A    between atoms: N_21  and  C_52
    6  A    between atoms: C_22  and  C_43
    7  A    between atoms: C_22  and  C_59
    8  A    between atoms: C_25  and  C_61
    9  A    between atoms: C_30  and  C_47
   10  A    between atoms: C_30  and  C_59
   11  A    between atoms: N_31  and  N_49
   12  A    between atoms: C_34  and  C_37
   13  A    between atoms: C_37  and  N_39
   14  A    between atoms: C_40  and  C_52
   15  A    between atoms: C_40  and  C_58
   16  A    between atoms: C_43  and  C_45
   17  A    between atoms: C_45  and  C_62
   18  A    between atoms: C_46  and  C_60
   19  A    between atoms: C_47  and  C_60
   20  A    between atoms: N_49  and  C_54
   21  A    between atoms: C_51  and  C_54
   22  A    between atoms: O_53  and  C_58
   23  A    between atoms: C_62  and  C_66
                            x       y       z     vdW  Elec       q    Type
                         _______ _______ _______ _____ _____    ______ ____

>  <TORSDO>
F 23

$$$$
=
 OpenBabel11062416253D

 67 74  0  0  1  0  0  0  0  0999 V2000
  187.5860  177.1660  143.5140 C   0  0  1  0  0  3  0  0  0  0  0  0
  188.1720  178.4030  141.4320 O   0  0  0  0  0  0  0  0  0  0  0  0
  190.5760  178.2620  142.5450 O   0  0  0  0  0  0  0  0  0  0  0  0
  188.9550  177.6100  145.6430 C   0  0  0  0  0  2  0  0  0  0  0  0
  188.8170  177.8830  144.1430 C   0  0  1  0  0  3  0  0  0  0  0  0
  187.5920  177.5800  146.3260 C   0  0  0  0  0  2  0  0  0  0  0  0
  186.8120  176.5740  145.7370 O   0  0  0  0  0  0  0  0  0  0  0  0
  190.5120  177.5670  141.3310 C   0  0  1  0  0  3  0  0  0  0  0  0
  186.4020  177.0870  144.5010 C   0  0  0  0  0  2  0  0  0  0  0  0
  189.1560  177.7170  140.7270 C   0  0  0  0  0  0  0  0  0  0  0  0
  187.1440  177.7040  142.1180 C   0  0  2  0  0  3  0  0  0  0  0  0
  190.1050  177.3670  143.5120 C   0  0  0  0  0  2  0  0  0  0  0  0
  188.8780  177.1430  139.6380 O   0  0  0  0  0  0  0  0  0  0  0  0
  185.9020  178.5450  142.1210 C   0  0  0  0  0  3  0  0  0  0  0  0
  185.0240  178.3680  141.2060 N   0  0  0  0  0  0  0  0  0  0  0  0
  183.8450  179.1880  141.1630 C   0  0  0  0  0  2  0  0  0  0  0  0
  184.4850  178.9380  138.7890 C   0  0  0  0  0  2  0  0  0  0  0  0
  183.6330  178.2170  137.9190 O   0  0  0  0  0  0  0  0  0  0  0  0
  183.6580  179.7670  139.7620 C   0  0  1  0  0  3  0  0  0  0  0  0
  182.2510  179.6440  139.1980 C   0  0  0  0  0  0  0  0  0  0  0  0
  181.1270  179.7130  140.2340 C   0  0  0  0  0  1  0  0  0  0  0  0
  182.0610  180.8220  138.2470 C   0  0  0  0  0  1  0  0  0  0  0  0
  182.3250  178.2960  138.4490 C   0  0  1  0  0  0  0  0  0  0  0  0
  181.8850  178.1060  135.9350 C   0  0  0  0  0  1  0  0  0  0  0  0
  181.2730  178.2340  137.3210 C   0  0  0  0  0  2  0  0  0  0  0  0
  182.1080  177.1270  139.4350 C   0  0  0  0  0  2  0  0  0  0  0  0
  180.7240  176.4940  139.3650 C   0  0  0  0  0  2  0  0  0  0  0  0
  180.6400  175.5610  138.1720 C   0  0  0  0  0  2  0  0  0  0  0  0
  181.7360  174.5140  138.2280 C   0  0  0  0  0  2  0  0  0  0  0  0
  181.8080  173.8030  136.8890 C   0  0  0  0  0  2  0  0  0  0  0  0
  183.2490  173.6750  136.4340 C   0  0  1  0  0  3  0  0  0  0  0  0
  183.9690  174.9630  136.6600 C   0  0  0  0  0  3  0  0  0  0  0  0
  185.1870  174.9930  136.6960 O   0  0  0  0  0  0  0  0  0  0  0  0
  183.9250  172.5780  137.2370 C   0  0  0  0  0  2  0  0  0  0  0  0
  184.5850  170.7410  135.6550 C   0  0  0  0  0  1  0  0  0  0  0  0
  183.5840  171.1890  136.7040 C   0  0  0  0  0  3  0  0  0  0  0  0
  182.2090  171.2290  136.0780 C   0  0  0  0  0  1  0  0  0  0  0  0
  191.5950  178.0740  140.3930 C   0  0  0  0  0  2  0  0  0  0  0  0
  191.5280  177.2850  139.1000 C   0  0  1  0  0  3  0  0  0  0  0  0
  192.8010  176.8310  138.7270 O   0  0  0  0  0  0  0  0  0  0  0  0
  191.1690  175.1800  138.1630 C   0  0  2  0  0  3  0  0  0  0  0  0
  190.6250  176.0900  139.2250 C   0  0  0  0  0  2  0  0  0  0  0  0
  192.6040  175.6460  137.9950 C   0  0  0  0  0  2  0  0  0  0  0  0
  190.4050  175.2940  136.8250 C   0  0  2  0  0  3  0  0  0  0  0  0
  190.1380  172.8970  136.9330 C   0  0  0  0  0  2  0  0  0  0  0  0
  190.7370  171.3160  134.6010 C   0  0  0  0  0  1  0  0  0  0  0  0
  193.6130  172.3460  135.3820 N   0  0  0  0  0  0  0  0  0  0  0  0
  190.4520  174.0160  136.0640 N   0  0  0  0  0  0  0  0  0  0  0  0
  191.6960  171.7930  135.6940 C   0  0  2  0  0  0  0  0  0  0  0  0
  192.3010  172.9240  135.1880 C   0  0  1  0  0  3  0  0  0  0  0  0
  193.5560  169.9020  136.1300 N   0  0  0  0  0  2  0  0  0  0  0  0
  193.0580  171.1840  135.7500 C   0  0  0  0  0  0  0  0  0  0  0  0
  191.5430  173.1060  136.5040 C   0  0  2  0  0  0  0  0  0  0  0  0
  194.9290  169.6280  136.1100 N   0  0  0  0  0  2  0  0  0  0  0  0
  195.4640  169.9860  137.4100 C   0  0  0  0  0  2  0  0  0  0  0  0
  196.1890  172.2890  137.8320 C   0  0  0  0  0  3  0  0  0  0  0  0
  196.9300  171.1210  135.7590 C   0  0  0  0  0  2  0  0  0  0  0  0
  198.4810  173.1090  135.9130 C   0  0  0  0  0  2  0  0  0  0  0  0
  198.3490  171.6350  135.5570 C   0  0  0  0  0  2  0  0  0  0  0  0
  197.0130  173.3430  137.9160 C   0  0  0  0  0  3  0  0  0  0  0  0
  196.6040  170.9730  137.2410 C   0  0  2  0  0  3  0  0  0  0  0  0
  198.4300  173.3160  137.4210 C   0  0  0  0  0  2  0  0  0  0  0  0
  190.6460  176.6150  136.0400 C   0  0  1  0  0  3  0  0  0  0  0  0
  191.5270  176.3830  134.9820 O   0  0  0  0  0  1  0  0  0  0  0  0
  189.3690  177.2420  135.4860 C   0  0  0  0  0  2  0  0  0  0  0  0
  188.8830  178.9200  136.8430 C   0  0  0  0  0  1  0  0  0  0  0  0
  188.5090  177.6120  136.5260 O   0  0  0  0  0  0  0  0  0  0  0  0
  1  5  1  0  0  0  0
  1  9  1  1  0  0  0
  2 11  1  0  0  0  0
  3 12  1  0  0  0  0
  4  6  1  0  0  0  0
  5 12  1  6  0  0  0
  5  4  1  0  0  0  0
  7  6  1  0  0  0  0
  8 38  1  6  0  0  0
  8  3  1  0  0  0  0
  9  7  1  0  0  0  0
 10  8  1  0  0  0  0
 10  2  1  0  0  0  0
 11 14  1  1  0  0  0
 11  1  1  0  0  0  0
 13 10  2  0  0  0  0
 15 14  2  0  0  0  0
 16 15  1  0  0  0  0
 17 19  1  0  0  0  0
 18 23  1  0  0  0  0
 18 17  1  0  0  0  0
 19 16  1  1  0  0  0
 20 19  1  0  0  0  0
 20 21  1  0  0  0  0
 22 20  1  0  0  0  0
 23 25  1  6  0  0  0
 23 20  1  0  0  0  0
 23 26  1  0  0  0  0
 24 25  1  0  0  0  0
 27 26  1  0  0  0  0
 28 29  1  0  0  0  0
 28 27  1  0  0  0  0
 30 29  1  0  0  0  0
 31 32  1  1  0  0  0
 31 30  1  0  0  0  0
 31 34  1  0  0  0  0
 32 33  2  0  0  0  0
 35 36  1  0  0  0  0
 36 34  1  0  0  0  0
 37 36  1  0  0  0  0
 39 42  1  0  0  0  0
 39 38  1  1  0  0  0
 40 39  1  0  0  0  0
 41 44  1  6  0  0  0
 41 42  1  0  0  0  0
 43 41  1  0  0  0  0
 43 40  1  0  0  0  0
 44 63  1  6  0  0  0
 47 52  2  0  0  0  0
 48 53  1  0  0  0  0
 48 44  1  0  0  0  0
 48 45  1  0  0  0  0
 49 46  1  6  0  0  0
 49 52  1  0  0  0  0
 49 53  1  0  0  0  0
 50 47  1  1  0  0  0
 50 49  1  0  0  0  0
 50 53  1  0  0  0  0
 52 51  1  0  0  0  0
 53 45  1  1  0  0  0
 54 51  1  0  0  0  0
 54 55  1  0  0  0  0
 56 60  2  0  0  0  0
 57 61  1  0  0  0  0
 58 62  1  0  0  0  0
 59 57  1  0  0  0  0
 59 58  1  0  0  0  0
 61 55  1  6  0  0  0
 61 56  1  0  0  0  0
 62 60  1  0  0  0  0
 63 64  1  6  0  0  0
 65 63  1  0  0  0  0
 65 67  1  0  0  0  0
 67 66  1  0  0  0  0
M  END
>  <MODEL>
5

>  <REMARK>
 VINA RESULT:      -3.3      2.541      7.781
  Name = 
  23 active torsions:
  status: ('A' for Active; 'I' for Inactive)
    1  A    between atoms: C_1  and  C_47
    2  A    between atoms: C_4  and  C_61
    3  A    between atoms: C_12  and  C_56
    4  A    between atoms: C_19  and  C_52
    5  A    between atoms: N_21  and  C_52
    6  A    between atoms: C_22  and  C_43
    7  A    between atoms: C_22  and  C_59
    8  A    between atoms: C_25  and  C_61
    9  A    between atoms: C_30  and  C_47
   10  A    between atoms: C_30  and  C_59
   11  A    between atoms: N_31  and  N_49
   12  A    between atoms: C_34  and  C_37
   13  A    between atoms: C_37  and  N_39
   14  A    between atoms: C_40  and  C_52
   15  A    between atoms: C_40  and  C_58
   16  A    between atoms: C_43  and  C_45
   17  A    between atoms: C_45  and  C_62
   18  A    between atoms: C_46  and  C_60
   19  A    between atoms: C_47  and  C_60
   20  A    between atoms: N_49  and  C_54
   21  A    between atoms: C_51  and  C_54
   22  A    between atoms: O_53  and  C_58
   23  A    between atoms: C_62  and  C_66
                            x       y       z     vdW  Elec       q    Type
                         _______ _______ _______ _____ _____    ______ ____

>  <TORSDO>
F 23

$$$$
