=
 OpenBabel11062412073D

 54 59  0  0  1  0  0  0  0  0999 V2000
  186.1740  178.8020  143.0320 C   0  0  0  0  0  2  0  0  0  0  0  0
  182.8410  179.7170  139.0900 O   0  0  0  0  0  0  0  0  0  0  0  0
  184.1450  179.7460  142.5250 C   0  0  1  0  0  3  0  0  0  0  0  0
  186.4950  178.6360  140.5990 C   0  0  0  0  0  0  0  0  0  0  0  0
  179.3530  176.8520  140.8040 C   0  0  0  0  0  2  0  0  0  0  0  0
  181.5060  179.0500  140.9270 C   0  0  0  0  0  0  0  0  0  0  0  0
  183.7010  179.7620  144.8740 O   0  0  0  0  0  1  0  0  0  0  0  0
  179.8260  176.7010  142.2570 C   0  0  1  0  0  3  0  0  0  0  0  0
  184.0260  178.9950  141.1730 C   0  0  2  0  0  3  0  0  0  0  0  0
  179.7040  175.2450  142.6620 C   0  0  0  0  0  1  0  0  0  0  0  0
  188.4580  177.4120  139.5510 C   0  0  0  0  0  0  0  0  0  0  0  0
  185.2180  179.3580  140.2730 C   0  0  0  0  0  2  0  0  0  0  0  0
  183.3460  179.1210  143.6880 C   0  0  0  0  0  0  0  0  0  0  0  0
  186.9230  178.4770  141.8190 N   0  0  0  0  0  0  0  0  0  0  0  0
  187.3610  178.3340  139.5030 N   0  0  0  0  0  2  0  0  0  0  0  0
  181.7220  180.1540  138.3080 C   0  0  1  0  0  3  0  0  0  0  0  0
  182.7370  179.2870  140.4240 C   0  0  0  0  0  0  0  0  0  0  0  0
  181.2180  177.1320  142.4320 N   0  0  0  0  0  2  0  0  0  0  0  0
  188.5140  176.5370  140.4550 O   0  0  0  0  0  0  0  0  0  0  0  0
  180.4440  179.5010  138.7580 C   0  0  0  0  0  0  0  0  0  0  0  0
  183.6240  177.7590  143.8160 O   0  0  0  0  0  1  0  0  0  0  0  0
  179.0790  178.3150  140.4450 C   0  0  0  0  0  2  0  0  0  0  0  0
  181.2340  178.5850  142.3240 C   0  0  1  0  0  3  0  0  0  0  0  0
  181.8570  179.3310  143.4960 C   0  0  0  0  0  2  0  0  0  0  0  0
  185.4890  180.0270  142.8880 O   0  0  0  0  0  0  0  0  0  0  0  0
  180.3410  179.0130  140.0050 C   0  0  0  0  0  0  0  0  0  0  0  0
  180.5590  182.3230  136.0250 C   0  0  0  0  0  2  0  0  0  0  0  0
  180.3370  182.0090  138.7330 O   0  0  0  0  0  0  0  0  0  0  0  0
  181.5980  181.6680  138.3350 C   0  0  2  0  0  3  0  0  0  0  0  0
  180.7850  182.0790  137.3040 C   0  0  0  0  0  0  0  0  0  0  0  0
  189.4880  177.4940  138.6140 O   0  0  0  0  0  0  0  0  0  0  0  0
  189.6900  176.5030  137.6230 C   0  0  1  0  0  3  0  0  0  0  0  0
  189.0380  177.1000  136.0190 S   0  0  0  0  0  1  0  0  0  0  0  0
  191.9530  176.7430  138.6850 C   0  0  0  0  0  1  0  0  0  0  0  0
  191.3400  174.5980  137.6130 C   0  0  0  0  0  1  0  0  0  0  0  0
  191.7280  176.5820  136.2900 N   0  0  0  0  0  1  0  0  0  0  0  0
  191.1710  176.1050  137.5460 C   0  0  0  0  0  0  0  0  0  0  0  0
  179.2820  179.4640  137.8090 C   0  0  0  0  0  2  0  0  0  0  0  0
  179.6910  175.7230  137.0750 C   0  0  0  0  0  2  0  0  0  0  0  0
  184.9940  177.0050  135.5190 O   0  0  0  0  0  0  0  0  0  0  0  0
  180.0070  178.4360  135.5930 C   0  0  2  0  0  3  0  0  0  0  0  0
  179.1570  179.2610  134.6330 C   0  0  0  0  0  1  0  0  0  0  0  0
  181.9100  174.9500  137.0420 C   0  0  0  0  0  2  0  0  0  0  0  0
  179.9030  177.0830  137.7200 C   0  0  0  0  0  2  0  0  0  0  0  0
  182.0650  178.7650  134.6760 C   0  0  0  0  0  2  0  0  0  0  0  0
  183.2350  175.0970  136.3070 C   0  0  1  0  0  3  0  0  0  0  0  0
  179.2740  178.2210  136.9260 C   0  0  1  0  0  3  0  0  0  0  0  0
  183.5670  176.8220  135.9400 S   0  0  0  0  0  0  0  0  0  0  0  0
  183.3030  177.6550  137.1620 O   0  0  0  0  0  0  0  0  0  0  0  0
  182.5010  177.3060  134.5940 C   0  0  0  0  0  2  0  0  0  0  0  0
  181.2690  179.0230  135.8040 O   0  0  0  0  0  0  0  0  0  0  0  0
  180.8060  175.3870  136.2030 N   0  0  0  0  0  2  0  0  0  0  0  0
  183.9200  173.1580  137.7210 C   0  0  0  0  0  1  0  0  0  0  0  0
  184.3310  174.5080  137.1780 C   0  0  0  0  0  2  0  0  0  0  0  0
  2 17  1  0  0  0  0
  3 25  1  1  0  0  0
  3 13  1  0  0  0  0
  4 14  2  0  0  0  0
  5  8  1  0  0  0  0
  6 23  1  0  0  0  0
  8 18  1  0  0  0  0
  8 10  1  6  0  0  0
  9 12  1  6  0  0  0
  9  3  1  0  0  0  0
 11 19  2  0  0  0  0
 12  4  1  0  0  0  0
 13 21  1  0  0  0  0
 13  7  1  0  0  0  0
 14  1  1  0  0  0  0
 15 11  1  0  0  0  0
 15  4  1  0  0  0  0
 16 29  1  0  0  0  0
 16 20  1  1  0  0  0
 16  2  1  0  0  0  0
 17  6  2  0  0  0  0
 17  9  1  0  0  0  0
 20 26  2  0  0  0  0
 22  5  1  0  0  0  0
 23 18  1  0  0  0  0
 23 24  1  1  0  0  0
 24 13  1  0  0  0  0
 25  1  1  0  0  0  0
 26 22  1  0  0  0  0
 26  6  1  0  0  0  0
 27 30  2  0  0  0  0
 29 30  1  6  0  0  0
 29 28  1  0  0  0  0
 30 28  1  0  0  0  0
 31 11  1  0  0  0  0
 32 33  1  6  0  0  0
 32 31  1  0  0  0  0
 36 37  1  0  0  0  0
 37 35  1  0  0  0  0
 37 32  1  0  0  0  0
 37 34  1  0  0  0  0
 38 20  1  0  0  0  0
 39 44  1  0  0  0  0
 40 48  2  0  0  0  0
 41 42  1  6  0  0  0
 41 51  1  0  0  0  0
 41 47  1  0  0  0  0
 45 51  1  0  0  0  0
 46 43  1  0  0  0  0
 46 54  1  1  0  0  0
 47 44  1  0  0  0  0
 47 38  1  1  0  0  0
 48 46  1  0  0  0  0
 48 49  2  0  0  0  0
 50 45  1  0  0  0  0
 50 48  1  0  0  0  0
 52 43  1  0  0  0  0
 52 39  1  0  0  0  0
 54 53  1  0  0  0  0
M  END
>  <MODEL>
1

>  <REMARK>
 VINA RESULT:      -2.2      0.000      0.000
  Name = 
  7 active torsions:
  status: ('A' for Active; 'I' for Inactive)
    1  A    between atoms: C_15  and  O_24
    2  A    between atoms: C_15  and  C_53
    3  A    between atoms: C_20  and  O_24
    4  A    between atoms: C_22  and  C_38
    5  A    between atoms: C_29  and  C_31
    6  A    between atoms: C_34  and  C_46
    7  A    between atoms: C_42  and  C_46
                            x       y       z     vdW  Elec       q    Type
                         _______ _______ _______ _____ _____    ______ ____

>  <TORSDO>
F 7

$$$$
=
 OpenBabel11062412073D

 54 59  0  0  1  0  0  0  0  0999 V2000
  185.9280  176.5090  134.9830 C   0  0  0  0  0  2  0  0  0  0  0  0
  186.8290  177.3040  140.0850 O   0  0  0  0  0  0  0  0  0  0  0  0
  186.9700  177.9160  136.4650 C   0  0  1  0  0  3  0  0  0  0  0  0
  184.8790  175.5000  136.9660 C   0  0  0  0  0  0  0  0  0  0  0  0
  191.5920  176.5660  139.7990 C   0  0  0  0  0  2  0  0  0  0  0  0
  188.8740  177.7630  138.9860 C   0  0  0  0  0  0  0  0  0  0  0  0
  188.1580  178.8120  134.5940 O   0  0  0  0  0  1  0  0  0  0  0  0
  191.7900  176.7080  138.2840 C   0  0  1  0  0  3  0  0  0  0  0  0
  186.9320  176.8820  137.6200 C   0  0  2  0  0  3  0  0  0  0  0  0
  192.6990  175.5940  137.8030 C   0  0  0  0  0  1  0  0  0  0  0  0
  183.4660  173.3920  136.8510 C   0  0  0  0  0  0  0  0  0  0  0  0
  185.4740  176.4960  137.9200 C   0  0  0  0  0  2  0  0  0  0  0  0
  188.3210  178.0110  135.7230 C   0  0  0  0  0  0  0  0  0  0  0  0
  185.0350  175.5800  135.6750 N   0  0  0  0  0  0  0  0  0  0  0  0
  183.9220  174.5850  137.5040 N   0  0  0  0  0  2  0  0  0  0  0  0
  187.2640  177.8520  141.3370 C   0  0  1  0  0  3  0  0  0  0  0  0
  187.5830  177.3730  138.9020 C   0  0  0  0  0  0  0  0  0  0  0  0
  190.5200  176.6400  137.5520 N   0  0  0  0  0  2  0  0  0  0  0  0
  184.1410  172.8790  135.9200 O   0  0  0  0  0  0  0  0  0  0  0  0
  188.7650  177.8760  141.4370 C   0  0  0  0  0  0  0  0  0  0  0  0
  188.7610  176.7500  135.3170 O   0  0  0  0  0  1  0  0  0  0  0  0
  191.0180  177.8420  140.4200 C   0  0  0  0  0  2  0  0  0  0  0  0
  189.8040  177.8810  137.8180 C   0  0  1  0  0  3  0  0  0  0  0  0
  189.3700  178.6730  136.5930 C   0  0  0  0  0  2  0  0  0  0  0  0
  185.8740  177.7900  135.5700 O   0  0  0  0  0  0  0  0  0  0  0  0
  189.5140  177.8660  140.3230 C   0  0  0  0  0  0  0  0  0  0  0  0
  184.5100  179.3180  140.0960 C   0  0  0  0  0  2  0  0  0  0  0  0
  185.7360  179.1790  142.5380 O   0  0  0  0  0  0  0  0  0  0  0  0
  186.6820  179.2390  141.5540 C   0  0  2  0  0  3  0  0  0  0  0  0
  185.3900  179.2710  141.0830 C   0  0  0  0  0  0  0  0  0  0  0  0
  182.2560  172.8060  137.2230 O   0  0  0  0  0  0  0  0  0  0  0  0
  181.3340  172.3080  136.2700 C   0  0  1  0  0  3  0  0  0  0  0  0
  181.7650  170.5790  135.8470 S   0  0  0  0  0  1  0  0  0  0  0  0
  179.8880  172.8640  138.2480 C   0  0  0  0  0  1  0  0  0  0  0  0
  179.1170  173.4700  135.9750 C   0  0  0  0  0  1  0  0  0  0  0  0
  179.2230  171.1610  136.6760 N   0  0  0  0  0  1  0  0  0  0  0  0
  179.8930  172.4460  136.7840 C   0  0  0  0  0  0  0  0  0  0  0  0
  189.3930  177.9710  142.7970 C   0  0  0  0  0  2  0  0  0  0  0  0
  187.0560  176.4480  145.4270 C   0  0  0  0  0  2  0  0  0  0  0  0
  190.7120  178.4520  149.2740 O   0  0  0  0  0  0  0  0  0  0  0  0
  190.0470  176.2950  144.6020 C   0  0  2  0  0  3  0  0  0  0  0  0
  190.9050  175.3430  143.7740 C   0  0  0  0  0  1  0  0  0  0  0  0
  187.2460  177.3640  147.5820 C   0  0  0  0  0  2  0  0  0  0  0  0
  187.8270  177.4920  144.6350 C   0  0  0  0  0  2  0  0  0  0  0  0
  191.5060  176.7730  146.2840 C   0  0  0  0  0  2  0  0  0  0  0  0
  188.2140  177.5390  148.7450 C   0  0  1  0  0  3  0  0  0  0  0  0
  188.9110  176.8850  143.7530 C   0  0  1  0  0  3  0  0  0  0  0  0
  189.8520  177.9640  148.1470 S   0  0  0  0  0  0  0  0  0  0  0  0
  189.7420  179.0440  147.1090 O   0  0  0  0  0  0  0  0  0  0  0  0
  190.5800  176.4870  147.4620 C   0  0  0  0  0  2  0  0  0  0  0  0
  190.8210  177.3170  145.1840 O   0  0  0  0  0  0  0  0  0  0  0  0
  187.6530  176.2520  146.7390 N   0  0  0  0  0  2  0  0  0  0  0  0
  186.8180  179.6040  148.8810 C   0  0  0  0  0  1  0  0  0  0  0  0
  187.6710  178.6260  149.6570 C   0  0  0  0  0  2  0  0  0  0  0  0
  1 25  1  0  0  0  0
  1 14  1  0  0  0  0
  3 25  1  6  0  0  0
  3  9  1  0  0  0  0
  4 15  1  0  0  0  0
  4 12  1  0  0  0  0
  5 22  1  0  0  0  0
  6 26  1  0  0  0  0
  7 13  1  0  0  0  0
  8 10  1  6  0  0  0
  8  5  1  0  0  0  0
  9 12  1  1  0  0  0
  9 17  1  0  0  0  0
 11 31  1  0  0  0  0
 11 15  1  0  0  0  0
 13  3  1  0  0  0  0
 13 24  1  0  0  0  0
 14  4  2  0  0  0  0
 16  2  1  6  0  0  0
 16 20  1  0  0  0  0
 16 29  1  0  0  0  0
 17  6  2  0  0  0  0
 17  2  1  0  0  0  0
 18 23  1  0  0  0  0
 18  8  1  0  0  0  0
 19 11  2  0  0  0  0
 20 38  1  0  0  0  0
 21 13  1  0  0  0  0
 23 24  1  6  0  0  0
 23  6  1  0  0  0  0
 26 22  1  0  0  0  0
 26 20  2  0  0  0  0
 27 30  2  0  0  0  0
 29 30  1  6  0  0  0
 29 28  1  0  0  0  0
 30 28  1  0  0  0  0
 32 33  1  1  0  0  0
 32 37  1  0  0  0  0
 32 31  1  0  0  0  0
 35 37  1  0  0  0  0
 36 37  1  0  0  0  0
 37 34  1  0  0  0  0
 39 52  1  0  0  0  0
 41 42  1  6  0  0  0
 41 51  1  0  0  0  0
 43 46  1  0  0  0  0
 44 39  1  0  0  0  0
 45 50  1  0  0  0  0
 46 54  1  1  0  0  0
 47 38  1  6  0  0  0
 47 41  1  0  0  0  0
 47 44  1  0  0  0  0
 48 46  1  0  0  0  0
 48 40  2  0  0  0  0
 49 48  2  0  0  0  0
 50 48  1  0  0  0  0
 51 45  1  0  0  0  0
 52 43  1  0  0  0  0
 53 54  1  0  0  0  0
M  END
>  <MODEL>
2

>  <REMARK>
 VINA RESULT:      -1.8      4.120     10.602
  Name = 
  7 active torsions:
  status: ('A' for Active; 'I' for Inactive)
    1  A    between atoms: C_15  and  O_24
    2  A    between atoms: C_15  and  C_53
    3  A    between atoms: C_20  and  O_24
    4  A    between atoms: C_22  and  C_38
    5  A    between atoms: C_29  and  C_31
    6  A    between atoms: C_34  and  C_46
    7  A    between atoms: C_42  and  C_46
                            x       y       z     vdW  Elec       q    Type
                         _______ _______ _______ _____ _____    ______ ____

>  <TORSDO>
F 7

$$$$
=
 OpenBabel11062412073D

 54 59  0  0  1  0  0  0  0  0999 V2000
  191.3290  174.3720  134.5950 C   0  0  0  0  0  2  0  0  0  0  0  0
  189.6530  176.2370  139.1980 O   0  0  0  0  0  0  0  0  0  0  0  0
  191.4970  176.1610  136.0210 C   0  0  1  0  0  3  0  0  0  0  0  0
  189.4840  173.6290  136.0430 C   0  0  0  0  0  0  0  0  0  0  0  0
  193.9870  176.0960  141.3210 C   0  0  0  0  0  2  0  0  0  0  0  0
  191.9630  176.7460  139.0950 C   0  0  0  0  0  0  0  0  0  0  0  0
  193.4130  176.8340  134.7600 O   0  0  0  0  0  1  0  0  0  0  0  0
  194.8840  175.9730  140.0820 C   0  0  1  0  0  3  0  0  0  0  0  0
  190.9360  175.3710  137.2320 C   0  0  2  0  0  3  0  0  0  0  0  0
  195.9410  174.9180  140.3460 C   0  0  0  0  0  1  0  0  0  0  0  0
  188.3550  171.3700  135.7790 C   0  0  0  0  0  0  0  0  0  0  0  0
  189.5230  174.8590  136.9050 C   0  0  0  0  0  2  0  0  0  0  0  0
  193.0340  176.2920  135.9870 C   0  0  0  0  0  0  0  0  0  0  0  0
  190.2380  173.4820  134.9900 N   0  0  0  0  0  0  0  0  0  0  0  0
  188.4100  172.7150  136.2730 N   0  0  0  0  0  2  0  0  0  0  0  0
  189.4210  177.0670  140.3450 C   0  0  1  0  0  3  0  0  0  0  0  0
  190.8810  176.1790  138.5170 C   0  0  0  0  0  0  0  0  0  0  0  0
  194.1230  175.5980  138.8850 N   0  0  0  0  0  2  0  0  0  0  0  0
  189.4060  170.7830  135.4110 O   0  0  0  0  0  0  0  0  0  0  0  0
  190.6880  177.3080  141.1180 C   0  0  0  0  0  0  0  0  0  0  0  0
  193.6480  175.0470  136.1330 O   0  0  0  0  0  1  0  0  0  0  0  0
  193.1540  177.3800  141.2940 C   0  0  0  0  0  2  0  0  0  0  0  0
  193.3350  176.7610  138.4960 C   0  0  1  0  0  3  0  0  0  0  0  0
  193.5210  177.2410  137.0640 C   0  0  0  0  0  2  0  0  0  0  0  0
  190.9670  175.7230  134.7780 O   0  0  0  0  0  0  0  0  0  0  0  0
  191.8800  177.1850  140.5110 C   0  0  0  0  0  0  0  0  0  0  0  0
  187.2630  177.8060  137.8820 C   0  0  0  0  0  2  0  0  0  0  0  0
  187.5370  178.4650  140.5230 O   0  0  0  0  0  0  0  0  0  0  0  0
  188.7700  178.3800  139.9430 C   0  0  2  0  0  3  0  0  0  0  0  0
  187.7320  178.1280  139.0760 C   0  0  0  0  0  0  0  0  0  0  0  0
  187.1300  170.7100  135.6740 O   0  0  0  0  0  0  0  0  0  0  0  0
  185.9640  171.1700  136.3330 C   0  0  1  0  0  3  0  0  0  0  0  0
  186.1190  172.9630  136.6710 S   0  0  0  0  0  1  0  0  0  0  0  0
  184.9750  169.6490  134.5960 C   0  0  0  0  0  1  0  0  0  0  0  0
  183.5360  170.4970  136.4220 C   0  0  0  0  0  1  0  0  0  0  0  0
  184.3510  171.9750  134.6940 N   0  0  0  0  0  1  0  0  0  0  0  0
  184.7080  170.8310  135.5160 C   0  0  0  0  0  0  0  0  0  0  0  0
  190.5850  177.7420  142.5510 C   0  0  0  0  0  2  0  0  0  0  0  0
  187.4430  176.6440  144.4530 C   0  0  0  0  0  2  0  0  0  0  0  0
  189.9270  178.8500  149.0520 O   0  0  0  0  0  0  0  0  0  0  0  0
  190.5200  176.2390  144.6080 C   0  0  2  0  0  3  0  0  0  0  0  0
  191.5010  175.1570  144.1710 C   0  0  0  0  0  1  0  0  0  0  0  0
  187.0530  177.7770  146.4740 C   0  0  0  0  0  2  0  0  0  0  0  0
  188.5030  177.5520  143.8510 C   0  0  0  0  0  2  0  0  0  0  0  0
  191.4390  176.8160  146.6090 C   0  0  0  0  0  2  0  0  0  0  0  0
  187.6360  178.0240  147.8590 C   0  0  1  0  0  3  0  0  0  0  0  0
  189.7460  176.7950  143.4020 C   0  0  1  0  0  3  0  0  0  0  0  0
  189.4080  178.2910  147.7610 S   0  0  0  0  0  0  0  0  0  0  0  0
  189.7090  179.2560  146.6510 O   0  0  0  0  0  0  0  0  0  0  0  0
  190.1790  176.7110  147.4640 C   0  0  0  0  0  2  0  0  0  0  0  0
  191.1670  177.2740  145.3090 O   0  0  0  0  0  0  0  0  0  0  0  0
  187.5980  176.5590  145.8970 N   0  0  0  0  0  2  0  0  0  0  0  0
  185.8730  179.7600  147.5270 C   0  0  0  0  0  1  0  0  0  0  0  0
  186.9380  179.2320  148.4620 C   0  0  0  0  0  2  0  0  0  0  0  0
  1 25  1  0  0  0  0
  1 14  1  0  0  0  0
  3 25  1  6  0  0  0
  3  9  1  0  0  0  0
  4 15  1  0  0  0  0
  4 12  1  0  0  0  0
  6 26  1  0  0  0  0
  7 13  1  0  0  0  0
  8 10  1  1  0  0  0
  8  5  1  0  0  0  0
  9 12  1  6  0  0  0
  9 17  1  0  0  0  0
 11 15  1  0  0  0  0
 13  3  1  0  0  0  0
 13 21  1  0  0  0  0
 13 24  1  0  0  0  0
 14  4  2  0  0  0  0
 16  2  1  6  0  0  0
 16 20  1  0  0  0  0
 17  6  2  0  0  0  0
 17  2  1  0  0  0  0
 18  8  1  0  0  0  0
 19 11  2  0  0  0  0
 20 38  1  0  0  0  0
 22  5  1  0  0  0  0
 23 24  1  6  0  0  0
 23 18  1  0  0  0  0
 23  6  1  0  0  0  0
 26 20  2  0  0  0  0
 26 22  1  0  0  0  0
 27 30  2  0  0  0  0
 29 30  1  6  0  0  0
 29 16  1  0  0  0  0
 29 28  1  0  0  0  0
 30 28  1  0  0  0  0
 31 11  1  0  0  0  0
 31 32  1  0  0  0  0
 32 33  1  6  0  0  0
 34 37  1  0  0  0  0
 36 37  1  0  0  0  0
 37 32  1  0  0  0  0
 37 35  1  0  0  0  0
 39 52  1  0  0  0  0
 41 42  1  6  0  0  0
 41 51  1  0  0  0  0
 43 46  1  0  0  0  0
 44 39  1  0  0  0  0
 45 50  1  0  0  0  0
 46 54  1  6  0  0  0
 47 38  1  1  0  0  0
 47 44  1  0  0  0  0
 47 41  1  0  0  0  0
 48 46  1  0  0  0  0
 48 40  2  0  0  0  0
 49 48  2  0  0  0  0
 50 48  1  0  0  0  0
 51 45  1  0  0  0  0
 52 43  1  0  0  0  0
 53 54  1  0  0  0  0
M  END
>  <MODEL>
3

>  <REMARK>
 VINA RESULT:      -1.1      5.836     11.344
  Name = 
  7 active torsions:
  status: ('A' for Active; 'I' for Inactive)
    1  A    between atoms: C_15  and  O_24
    2  A    between atoms: C_15  and  C_53
    3  A    between atoms: C_20  and  O_24
    4  A    between atoms: C_22  and  C_38
    5  A    between atoms: C_29  and  C_31
    6  A    between atoms: C_34  and  C_46
    7  A    between atoms: C_42  and  C_46
                            x       y       z     vdW  Elec       q    Type
                         _______ _______ _______ _____ _____    ______ ____

>  <TORSDO>
F 7

$$$$
=
 OpenBabel11062412073D

 54 59  0  0  1  0  0  0  0  0999 V2000
  185.5470  178.7270  142.7040 C   0  0  0  0  0  2  0  0  0  0  0  0
  182.6440  179.6130  138.4300 O   0  0  0  0  0  0  0  0  0  0  0  0
  183.5000  179.4880  142.0000 C   0  0  1  0  0  3  0  0  0  0  0  0
  186.1840  178.8060  140.3290 C   0  0  0  0  0  0  0  0  0  0  0  0
  179.3310  176.2550  139.4590 C   0  0  0  0  0  2  0  0  0  0  0  0
  181.1790  178.6530  140.0210 C   0  0  0  0  0  0  0  0  0  0  0  0
  182.7700  179.2560  144.2650 O   0  0  0  0  0  1  0  0  0  0  0  0
  179.6350  176.0320  140.9460 C   0  0  1  0  0  3  0  0  0  0  0  0
  183.6380  178.8470  140.5950 C   0  0  2  0  0  3  0  0  0  0  0  0
  179.6360  174.5420  141.2280 C   0  0  0  0  0  1  0  0  0  0  0  0
  188.3920  177.8930  139.4670 C   0  0  0  0  0  0  0  0  0  0  0  0
  184.8820  179.4120  139.8890 C   0  0  0  0  0  2  0  0  0  0  0  0
  182.6420  178.6840  143.0000 C   0  0  0  0  0  0  0  0  0  0  0  0
  186.4740  178.5900  141.5810 N   0  0  0  0  0  0  0  0  0  0  0  0
  187.2090  178.6930  139.3390 N   0  0  0  0  0  2  0  0  0  0  0  0
  181.5870  179.9920  137.5380 C   0  0  1  0  0  3  0  0  0  0  0  0
  182.4270  179.0620  139.7040 C   0  0  0  0  0  0  0  0  0  0  0  0
  180.9340  176.5930  141.3350 N   0  0  0  0  0  2  0  0  0  0  0  0
  188.4380  176.9550  140.3070 O   0  0  0  0  0  0  0  0  0  0  0  0
  180.3490  179.1700  137.7680 C   0  0  0  0  0  0  0  0  0  0  0  0
  183.0610  177.3550  143.0670 O   0  0  0  0  0  1  0  0  0  0  0  0
  178.9340  177.7050  139.1710 C   0  0  0  0  0  2  0  0  0  0  0  0
  180.7930  178.0440  141.3330 C   0  0  1  0  0  3  0  0  0  0  0  0
  181.1740  178.7490  142.6270 C   0  0  0  0  0  2  0  0  0  0  0  0
  184.7470  179.8800  142.5570 O   0  0  0  0  0  0  0  0  0  0  0  0
  180.1500  178.5690  138.9520 C   0  0  0  0  0  0  0  0  0  0  0  0
  179.7480  181.7080  139.7630 C   0  0  0  0  0  2  0  0  0  0  0  0
  182.1670  182.0470  138.5300 O   0  0  0  0  0  0  0  0  0  0  0  0
  181.2840  181.4770  137.6570 C   0  0  2  0  0  3  0  0  0  0  0  0
  180.7470  181.7360  138.8960 C   0  0  0  0  0  0  0  0  0  0  0  0
  189.5140  178.1650  138.6830 O   0  0  0  0  0  0  0  0  0  0  0  0
  189.9390  177.3000  137.6460 C   0  0  1  0  0  3  0  0  0  0  0  0
  190.5620  175.7380  138.3710 S   0  0  0  0  0  1  0  0  0  0  0  0
  187.7190  176.1970  137.2400 C   0  0  0  0  0  1  0  0  0  0  0  0
  188.1970  178.3830  136.1820 C   0  0  0  0  0  1  0  0  0  0  0  0
  189.3450  176.3820  135.4690 N   0  0  0  0  0  1  0  0  0  0  0  0
  188.8090  177.0690  136.6320 C   0  0  0  0  0  0  0  0  0  0  0  0
  179.3250  179.0890  136.6730 C   0  0  0  0  0  2  0  0  0  0  0  0
  179.1890  175.7520  134.7910 C   0  0  0  0  0  2  0  0  0  0  0  0
  183.6700  174.2450  137.9280 O   0  0  0  0  0  0  0  0  0  0  0  0
  181.2280  178.0290  135.3510 C   0  0  2  0  0  3  0  0  0  0  0  0
  181.7330  179.2530  134.5940 C   0  0  0  0  0  1  0  0  0  0  0  0
  180.2410  173.9520  135.8750 C   0  0  0  0  0  2  0  0  0  0  0  0
  179.1370  176.7470  135.9400 C   0  0  0  0  0  2  0  0  0  0  0  0
  183.1740  177.3280  136.3030 C   0  0  0  0  0  2  0  0  0  0  0  0
  181.5930  173.4570  136.3730 C   0  0  1  0  0  3  0  0  0  0  0  0
  179.7090  178.1090  135.5700 C   0  0  1  0  0  3  0  0  0  0  0  0
  182.5030  174.7890  137.1590 S   0  0  0  0  0  0  0  0  0  0  0  0
  181.5960  175.5300  138.0990 O   0  0  0  0  0  0  0  0  0  0  0  0
  183.1100  175.8650  135.8730 C   0  0  0  0  0  2  0  0  0  0  0  0
  181.9030  177.8610  136.5750 O   0  0  0  0  0  0  0  0  0  0  0  0
  180.4120  174.9660  134.8470 N   0  0  0  0  0  2  0  0  0  0  0  0
  179.9260  171.8250  137.2600 C   0  0  0  0  0  1  0  0  0  0  0  0
  181.3540  172.3150  137.3450 C   0  0  0  0  0  2  0  0  0  0  0  0
  2 17  1  0  0  0  0
  3 25  1  1  0  0  0
  3 13  1  0  0  0  0
  4 14  2  0  0  0  0
  5  8  1  0  0  0  0
  6 23  1  0  0  0  0
  8 10  1  6  0  0  0
  8 18  1  0  0  0  0
  9 12  1  6  0  0  0
  9  3  1  0  0  0  0
 11 19  2  0  0  0  0
 12  4  1  0  0  0  0
 13 21  1  0  0  0  0
 13  7  1  0  0  0  0
 14  1  1  0  0  0  0
 15 11  1  0  0  0  0
 15  4  1  0  0  0  0
 16 29  1  0  0  0  0
 16 20  1  1  0  0  0
 16  2  1  0  0  0  0
 17  6  2  0  0  0  0
 17  9  1  0  0  0  0
 20 26  2  0  0  0  0
 22  5  1  0  0  0  0
 23 18  1  0  0  0  0
 23 24  1  1  0  0  0
 24 13  1  0  0  0  0
 25  1  1  0  0  0  0
 26 22  1  0  0  0  0
 26  6  1  0  0  0  0
 28 30  1  0  0  0  0
 29 28  1  1  0  0  0
 29 30  1  0  0  0  0
 30 27  2  0  0  0  0
 31 11  1  0  0  0  0
 32 33  1  1  0  0  0
 32 31  1  0  0  0  0
 35 37  1  0  0  0  0
 36 37  1  0  0  0  0
 37 34  1  0  0  0  0
 37 32  1  0  0  0  0
 38 20  1  0  0  0  0
 39 52  1  0  0  0  0
 39 44  1  0  0  0  0
 41 42  1  1  0  0  0
 41 47  1  0  0  0  0
 41 51  1  0  0  0  0
 43 46  1  0  0  0  0
 45 51  1  0  0  0  0
 46 48  1  0  0  0  0
 46 54  1  1  0  0  0
 47 44  1  0  0  0  0
 47 38  1  1  0  0  0
 48 40  2  0  0  0  0
 48 49  2  0  0  0  0
 50 45  1  0  0  0  0
 50 48  1  0  0  0  0
 52 43  1  0  0  0  0
 53 54  1  0  0  0  0
M  END
>  <MODEL>
4

>  <REMARK>
 VINA RESULT:      -0.9      1.614      2.052
  Name = 
  7 active torsions:
  status: ('A' for Active; 'I' for Inactive)
    1  A    between atoms: C_15  and  O_24
    2  A    between atoms: C_15  and  C_53
    3  A    between atoms: C_20  and  O_24
    4  A    between atoms: C_22  and  C_38
    5  A    between atoms: C_29  and  C_31
    6  A    between atoms: C_34  and  C_46
    7  A    between atoms: C_42  and  C_46
                            x       y       z     vdW  Elec       q    Type
                         _______ _______ _______ _____ _____    ______ ____

>  <TORSDO>
F 7

$$$$
=
 OpenBabel11062412073D

 54 59  0  0  1  0  0  0  0  0999 V2000
  183.0620  178.9040  145.1660 C   0  0  0  0  0  2  0  0  0  0  0  0
  182.9550  178.8260  139.9260 O   0  0  0  0  0  0  0  0  0  0  0  0
  181.7260  179.3330  143.3510 C   0  0  1  0  0  3  0  0  0  0  0  0
  184.8910  178.6880  143.5350 C   0  0  0  0  0  0  0  0  0  0  0  0
  179.6320  175.3360  139.6180 C   0  0  0  0  0  2  0  0  0  0  0  0
  180.8630  177.9700  140.6300 C   0  0  0  0  0  0  0  0  0  0  0  0
  179.8800  179.3720  144.8700 O   0  0  0  0  0  1  0  0  0  0  0  0
  179.0760  175.3740  141.0480 C   0  0  1  0  0  3  0  0  0  0  0  0
  182.6110  178.5040  142.3840 C   0  0  2  0  0  3  0  0  0  0  0  0
  178.9310  173.9520  141.5540 C   0  0  0  0  0  1  0  0  0  0  0  0
  187.2150  177.8900  144.1730 C   0  0  0  0  0  0  0  0  0  0  0  0
  184.0360  179.0820  142.3640 C   0  0  0  0  0  2  0  0  0  0  0  0
  180.4650  178.6050  143.8640 C   0  0  0  0  0  0  0  0  0  0  0  0
  184.4520  178.6950  144.7620 N   0  0  0  0  0  0  0  0  0  0  0  0
  186.2900  178.5340  143.2880 N   0  0  0  0  0  2  0  0  0  0  0  0
  182.5520  178.9540  138.5550 C   0  0  1  0  0  3  0  0  0  0  0  0
  182.0800  178.4550  140.9610 C   0  0  0  0  0  0  0  0  0  0  0  0
  179.9510  176.1200  141.9610 N   0  0  0  0  0  2  0  0  0  0  0  0
  186.8010  177.1000  145.0620 O   0  0  0  0  0  0  0  0  0  0  0  0
  181.3930  178.0520  138.2330 C   0  0  0  0  0  0  0  0  0  0  0  0
  180.7860  177.3510  144.3870 O   0  0  0  0  0  1  0  0  0  0  0  0
  179.4490  176.6770  138.9020 C   0  0  0  0  0  2  0  0  0  0  0  0
  179.8270  177.5300  141.6180 C   0  0  1  0  0  3  0  0  0  0  0  0
  179.4380  178.4600  142.7590 C   0  0  0  0  0  2  0  0  0  0  0  0
  182.4660  179.9320  144.4060 O   0  0  0  0  0  0  0  0  0  0  0  0
  180.5840  177.6200  139.2140 C   0  0  0  0  0  0  0  0  0  0  0  0
  180.4070  181.1250  139.9520 C   0  0  0  0  0  2  0  0  0  0  0  0
  182.9730  181.2240  139.0120 O   0  0  0  0  0  0  0  0  0  0  0  0
  182.2270  180.4000  138.2180 C   0  0  2  0  0  3  0  0  0  0  0  0
  181.5180  180.9620  139.2550 C   0  0  0  0  0  0  0  0  0  0  0  0
  188.5820  178.1550  144.0770 O   0  0  0  0  0  0  0  0  0  0  0  0
  189.5160  177.1720  143.6690 C   0  0  1  0  0  3  0  0  0  0  0  0
  189.8400  177.3440  141.8750 S   0  0  0  0  0  1  0  0  0  0  0  0
  191.4250  178.6400  144.3850 C   0  0  0  0  0  1  0  0  0  0  0  0
  190.5160  176.9750  145.9750 C   0  0  0  0  0  1  0  0  0  0  0  0
  191.7550  176.2800  144.0220 N   0  0  0  0  0  1  0  0  0  0  0  0
  190.7980  177.2580  144.5100 C   0  0  0  0  0  0  0  0  0  0  0  0
  181.1320  177.7000  136.7980 C   0  0  0  0  0  2  0  0  0  0  0  0
  182.1650  174.7370  134.5950 C   0  0  0  0  0  2  0  0  0  0  0  0
  180.8500  171.4710  139.0440 O   0  0  0  0  0  0  0  0  0  0  0  0
  182.8850  175.9400  137.3670 C   0  0  2  0  0  3  0  0  0  0  0  0
  183.9880  176.8400  137.9140 C   0  0  0  0  0  1  0  0  0  0  0  0
  181.2810  172.6580  135.2400 C   0  0  0  0  0  2  0  0  0  0  0  0
  181.2910  175.6580  135.4320 C   0  0  0  0  0  2  0  0  0  0  0  0
  182.6740  174.4810  139.1030 C   0  0  0  0  0  2  0  0  0  0  0  0
  181.2800  171.6380  136.3720 C   0  0  1  0  0  3  0  0  0  0  0  0
  182.0990  176.6530  136.2560 C   0  0  1  0  0  3  0  0  0  0  0  0
  181.1770  172.4590  137.9640 S   0  0  0  0  0  0  0  0  0  0  0  0
  180.1050  173.5100  137.9170 O   0  0  0  0  0  0  0  0  0  0  0  0
  182.7700  173.1830  138.3060 C   0  0  0  0  0  2  0  0  0  0  0  0
  182.0220  175.5000  138.3880 O   0  0  0  0  0  0  0  0  0  0  0  0
  182.4570  173.5090  135.3160 N   0  0  0  0  0  2  0  0  0  0  0  0
  179.5710  170.8040  134.7560 C   0  0  0  0  0  1  0  0  0  0  0  0
  180.1030  170.7000  136.1670 C   0  0  0  0  0  2  0  0  0  0  0  0
  2 17  1  0  0  0  0
  3 13  1  0  0  0  0
  3 25  1  1  0  0  0
  4 14  2  0  0  0  0
  5  8  1  0  0  0  0
  6 17  2  0  0  0  0
  6 23  1  0  0  0  0
  8 10  1  1  0  0  0
  8 18  1  0  0  0  0
  9 12  1  6  0  0  0
  9  3  1  0  0  0  0
 11 19  2  0  0  0  0
 12  4  1  0  0  0  0
 13 21  1  0  0  0  0
 13  7  1  0  0  0  0
 14  1  1  0  0  0  0
 15  4  1  0  0  0  0
 15 11  1  0  0  0  0
 16 20  1  1  0  0  0
 16  2  1  0  0  0  0
 17  9  1  0  0  0  0
 20 26  2  0  0  0  0
 22 26  1  0  0  0  0
 22  5  1  0  0  0  0
 23 18  1  0  0  0  0
 23 24  1  1  0  0  0
 24 13  1  0  0  0  0
 25  1  1  0  0  0  0
 26  6  1  0  0  0  0
 28 30  1  0  0  0  0
 29 16  1  0  0  0  0
 29 28  1  1  0  0  0
 29 30  1  0  0  0  0
 30 27  2  0  0  0  0
 31 11  1  0  0  0  0
 32 33  1  6  0  0  0
 32 31  1  0  0  0  0
 32 37  1  0  0  0  0
 34 37  1  0  0  0  0
 36 37  1  0  0  0  0
 37 35  1  0  0  0  0
 38 20  1  0  0  0  0
 39 52  1  0  0  0  0
 39 44  1  0  0  0  0
 41 42  1  1  0  0  0
 41 51  1  0  0  0  0
 43 52  1  0  0  0  0
 43 46  1  0  0  0  0
 44 47  1  0  0  0  0
 46 54  1  6  0  0  0
 46 48  1  0  0  0  0
 47 38  1  1  0  0  0
 47 41  1  0  0  0  0
 48 50  1  0  0  0  0
 48 40  2  0  0  0  0
 49 48  2  0  0  0  0
 50 45  1  0  0  0  0
 51 45  1  0  0  0  0
 53 54  1  0  0  0  0
M  END
>  <MODEL>
5

>  <REMARK>
 VINA RESULT:      -0.8      3.190      4.229
  Name = 
  7 active torsions:
  status: ('A' for Active; 'I' for Inactive)
    1  A    between atoms: C_15  and  O_24
    2  A    between atoms: C_15  and  C_53
    3  A    between atoms: C_20  and  O_24
    4  A    between atoms: C_22  and  C_38
    5  A    between atoms: C_29  and  C_31
    6  A    between atoms: C_34  and  C_46
    7  A    between atoms: C_42  and  C_46
                            x       y       z     vdW  Elec       q    Type
                         _______ _______ _______ _____ _____    ______ ____

>  <TORSDO>
F 7

$$$$
=
 OpenBabel11062412073D

 54 59  0  0  1  0  0  0  0  0999 V2000
  179.2800  178.3100  137.8290 C   0  0  0  0  0  2  0  0  0  0  0  0
  184.4070  178.9910  138.6810 O   0  0  0  0  0  0  0  0  0  0  0  0
  181.1570  177.2790  138.6520 C   0  0  1  0  0  3  0  0  0  0  0  0
  180.8210  180.0390  136.9990 C   0  0  0  0  0  0  0  0  0  0  0  0
  184.0680  178.8170  143.4950 C   0  0  0  0  0  2  0  0  0  0  0  0
  183.5720  177.8880  140.6020 C   0  0  0  0  0  0  0  0  0  0  0  0
  179.6930  175.6680  139.6390 O   0  0  0  0  0  1  0  0  0  0  0  0
  182.6780  178.1840  143.6380 C   0  0  1  0  0  3  0  0  0  0  0  0
  181.9370  178.6100  138.8070 C   0  0  2  0  0  3  0  0  0  0  0  0
  181.9080  178.9310  144.7100 C   0  0  0  0  0  1  0  0  0  0  0  0
  180.0180  182.2090  135.9530 C   0  0  0  0  0  0  0  0  0  0  0  0
  182.0540  179.3020  137.4390 C   0  0  0  0  0  2  0  0  0  0  0  0
  180.5260  176.7400  139.9530 C   0  0  0  0  0  0  0  0  0  0  0  0
  179.6230  179.5400  137.1150 N   0  0  0  0  0  0  0  0  0  0  0  0
  181.0200  181.2190  136.2170 N   0  0  0  0  0  2  0  0  0  0  0  0
  185.7810  178.7920  139.0440 C   0  0  1  0  0  3  0  0  0  0  0  0
  183.3290  178.4380  139.3920 C   0  0  0  0  0  0  0  0  0  0  0  0
  181.9180  178.2300  142.3830 N   0  0  0  0  0  2  0  0  0  0  0  0
  178.9970  182.2930  136.6860 O   0  0  0  0  0  0  0  0  0  0  0  0
  185.9340  178.5560  140.5210 C   0  0  0  0  0  0  0  0  0  0  0  0
  179.7670  177.7240  140.5890 O   0  0  0  0  0  1  0  0  0  0  0  0
  185.0320  177.9060  142.7290 C   0  0  0  0  0  2  0  0  0  0  0  0
  182.5280  177.2660  141.4770 C   0  0  1  0  0  3  0  0  0  0  0  0
  181.5920  176.2160  140.8950 C   0  0  0  0  0  2  0  0  0  0  0  0
  180.2310  177.3000  137.5750 O   0  0  0  0  0  0  0  0  0  0  0  0
  184.8960  178.0990  141.2400 C   0  0  0  0  0  0  0  0  0  0  0  0
  184.8190  177.3280  136.1800 C   0  0  0  0  0  2  0  0  0  0  0  0
  187.1860  178.1750  137.2590 O   0  0  0  0  0  0  0  0  0  0  0  0
  186.3940  177.6550  138.2440 C   0  0  2  0  0  3  0  0  0  0  0  0
  185.8210  177.6150  136.9940 C   0  0  0  0  0  0  0  0  0  0  0  0
  180.1500  183.0710  134.8640 O   0  0  0  0  0  0  0  0  0  0  0  0
  180.4230  184.4520  135.0210 C   0  0  1  0  0  3  0  0  0  0  0  0
  178.9310  185.4230  134.5940 S   0  0  0  0  0  1  0  0  0  0  0  0
  179.7660  184.8340  137.4150 C   0  0  0  0  0  1  0  0  0  0  0  0
  181.8940  183.6730  136.9150 C   0  0  0  0  0  1  0  0  0  0  0  0
  181.6220  186.0260  136.4430 N   0  0  0  0  0  1  0  0  0  0  0  0
  180.9320  184.7470  136.4400 C   0  0  0  0  0  0  0  0  0  0  0  0
  187.2770  178.7840  141.1500 C   0  0  0  0  0  2  0  0  0  0  0  0
  188.3430  175.8900  143.4280 C   0  0  0  0  0  2  0  0  0  0  0  0
  192.9710  178.9800  144.5380 O   0  0  0  0  0  0  0  0  0  0  0  0
  189.4670  177.4890  141.0120 C   0  0  2  0  0  3  0  0  0  0  0  0
  189.5490  177.2750  139.5040 C   0  0  0  0  0  1  0  0  0  0  0  0
  189.9110  176.4500  145.0860 C   0  0  0  0  0  2  0  0  0  0  0  0
  187.9200  177.2850  142.9940 C   0  0  0  0  0  2  0  0  0  0  0  0
  191.5060  178.4340  141.3840 C   0  0  0  0  0  2  0  0  0  0  0  0
  191.3350  176.9520  145.2900 C   0  0  1  0  0  3  0  0  0  0  0  0
  188.0060  177.4870  141.4870 C   0  0  1  0  0  3  0  0  0  0  0  0
  191.7130  178.2710  144.1330 S   0  0  0  0  0  0  0  0  0  0  0  0
  190.5790  179.2560  144.1070 O   0  0  0  0  0  0  0  0  0  0  0  0
  191.9570  177.5320  142.5290 C   0  0  0  0  0  2  0  0  0  0  0  0
  190.1210  178.6720  141.4040 O   0  0  0  0  0  0  0  0  0  0  0  0
  189.7580  175.8630  143.7650 N   0  0  0  0  0  2  0  0  0  0  0  0
  191.5880  176.2660  147.6770 C   0  0  0  0  0  1  0  0  0  0  0  0
  191.4680  177.4350  146.7250 C   0  0  0  0  0  2  0  0  0  0  0  0
  2 17  1  0  0  0  0
  3 25  1  6  0  0  0
  3  9  1  0  0  0  0
  3 13  1  0  0  0  0
  4 14  2  0  0  0  0
  4 12  1  0  0  0  0
  5  8  1  0  0  0  0
  6 26  1  0  0  0  0
  6 23  1  0  0  0  0
  7 13  1  0  0  0  0
  8 10  1  1  0  0  0
  9 12  1  6  0  0  0
  9 17  1  0  0  0  0
 11 15  1  0  0  0  0
 11 19  2  0  0  0  0
 13 21  1  0  0  0  0
 13 24  1  0  0  0  0
 14  1  1  0  0  0  0
 15  4  1  0  0  0  0
 16  2  1  1  0  0  0
 16 20  1  0  0  0  0
 17  6  2  0  0  0  0
 18  8  1  0  0  0  0
 20 38  1  0  0  0  0
 20 26  2  0  0  0  0
 22  5  1  0  0  0  0
 23 24  1  6  0  0  0
 23 18  1  0  0  0  0
 25  1  1  0  0  0  0
 26 22  1  0  0  0  0
 27 30  2  0  0  0  0
 28 29  1  0  0  0  0
 29 30  1  6  0  0  0
 29 16  1  0  0  0  0
 30 28  1  0  0  0  0
 31 32  1  0  0  0  0
 31 11  1  0  0  0  0
 32 33  1  1  0  0  0
 32 37  1  0  0  0  0
 37 36  1  0  0  0  0
 37 35  1  0  0  0  0
 37 34  1  0  0  0  0
 39 52  1  0  0  0  0
 41 42  1  6  0  0  0
 41 51  1  0  0  0  0
 41 47  1  0  0  0  0
 43 46  1  0  0  0  0
 44 39  1  0  0  0  0
 45 51  1  0  0  0  0
 45 50  1  0  0  0  0
 46 54  1  1  0  0  0
 47 38  1  1  0  0  0
 47 44  1  0  0  0  0
 48 40  2  0  0  0  0
 48 46  1  0  0  0  0
 49 48  2  0  0  0  0
 50 48  1  0  0  0  0
 52 43  1  0  0  0  0
 54 53  1  0  0  0  0
M  END
>  <MODEL>
6

>  <REMARK>
 VINA RESULT:      -0.4      3.850      9.155
  Name = 
  7 active torsions:
  status: ('A' for Active; 'I' for Inactive)
    1  A    between atoms: C_15  and  O_24
    2  A    between atoms: C_15  and  C_53
    3  A    between atoms: C_20  and  O_24
    4  A    between atoms: C_22  and  C_38
    5  A    between atoms: C_29  and  C_31
    6  A    between atoms: C_34  and  C_46
    7  A    between atoms: C_42  and  C_46
                            x       y       z     vdW  Elec       q    Type
                         _______ _______ _______ _____ _____    ______ ____

>  <TORSDO>
F 7

$$$$
=
 OpenBabel11062412073D

 54 59  0  0  1  0  0  0  0  0999 V2000
  194.9910  175.5400  138.6960 C   0  0  0  0  0  2  0  0  0  0  0  0
  190.0080  175.1830  137.1100 O   0  0  0  0  0  0  0  0  0  0  0  0
  193.1030  176.7760  138.2830 C   0  0  1  0  0  3  0  0  0  0  0  0
  193.7890  173.6870  137.6120 C   0  0  0  0  0  0  0  0  0  0  0  0
  188.1130  176.5370  141.3400 C   0  0  0  0  0  2  0  0  0  0  0  0
  190.0050  176.7120  138.9170 C   0  0  0  0  0  0  0  0  0  0  0  0
  194.1500  178.5550  139.4900 O   0  0  0  0  0  1  0  0  0  0  0  0
  189.3530  177.1610  141.9960 C   0  0  1  0  0  3  0  0  0  0  0  0
  192.1690  175.5390  138.3200 C   0  0  2  0  0  3  0  0  0  0  0  0
  189.4350  176.6880  143.4340 C   0  0  0  0  0  1  0  0  0  0  0  0
  194.6850  171.3120  137.5580 C   0  0  0  0  0  0  0  0  0  0  0  0
  192.6030  174.5320  137.2420 C   0  0  0  0  0  2  0  0  0  0  0  0
  193.1300  177.6090  139.5830 C   0  0  0  0  0  0  0  0  0  0  0  0
  194.8540  174.1780  138.1800 N   0  0  0  0  0  0  0  0  0  0  0  0
  193.8170  172.3550  137.0960 N   0  0  0  0  0  2  0  0  0  0  0  0
  188.6620  175.4900  136.7190 C   0  0  1  0  0  3  0  0  0  0  0  0
  190.7010  175.8750  138.1170 C   0  0  0  0  0  0  0  0  0  0  0  0
  190.5910  176.7920  141.2990 N   0  0  0  0  0  2  0  0  0  0  0  0
  195.2320  171.3940  138.6890 O   0  0  0  0  0  0  0  0  0  0  0  0
  187.8790  176.0880  137.8560 C   0  0  0  0  0  0  0  0  0  0  0  0
  193.3720  176.7990  140.6940 O   0  0  0  0  0  1  0  0  0  0  0  0
  187.7420  177.2480  140.0360 C   0  0  0  0  0  2  0  0  0  0  0  0
  190.6010  177.5120  140.0330 C   0  0  1  0  0  3  0  0  0  0  0  0
  191.8310  178.3690  139.7650 C   0  0  0  0  0  2  0  0  0  0  0  0
  194.4090  176.4730  137.8130 O   0  0  0  0  0  0  0  0  0  0  0  0
  188.5200  176.6890  138.8710 C   0  0  0  0  0  0  0  0  0  0  0  0
  189.1260  178.8030  136.4360 C   0  0  0  0  0  2  0  0  0  0  0  0
  189.9220  176.5790  135.0560 O   0  0  0  0  0  0  0  0  0  0  0  0
  188.6440  176.4050  135.5060 C   0  0  2  0  0  3  0  0  0  0  0  0
  189.1890  177.6230  135.8440 C   0  0  0  0  0  0  0  0  0  0  0  0
  194.9550  170.2100  136.7460 O   0  0  0  0  0  0  0  0  0  0  0  0
  195.8250  170.2870  135.6320 C   0  0  1  0  0  3  0  0  0  0  0  0
  195.3800  171.7380  134.6070 S   0  0  0  0  0  1  0  0  0  0  0  0
  197.4420  169.6310  137.4390 C   0  0  0  0  0  1  0  0  0  0  0  0
  198.1950  169.6280  135.0820 C   0  0  0  0  0  1  0  0  0  0  0  0
  197.7190  171.6980  136.2300 N   0  0  0  0  0  1  0  0  0  0  0  0
  197.2910  170.3170  136.0880 C   0  0  0  0  0  0  0  0  0  0  0  0
  186.3800  176.0460  137.7970 C   0  0  0  0  0  2  0  0  0  0  0  0
  184.6710  179.2870  138.9280 C   0  0  0  0  0  2  0  0  0  0  0  0
  179.7850  176.6860  137.6840 O   0  0  0  0  0  0  0  0  0  0  0  0
  184.7590  177.4520  136.4220 C   0  0  2  0  0  3  0  0  0  0  0  0
  185.4940  177.4630  135.0860 C   0  0  0  0  0  1  0  0  0  0  0  0
  182.4170  179.0610  139.5520 C   0  0  0  0  0  2  0  0  0  0  0  0
  185.0770  177.8220  138.8970 C   0  0  0  0  0  2  0  0  0  0  0  0
  182.7200  176.7010  135.7410 C   0  0  0  0  0  2  0  0  0  0  0  0
  181.0410  178.6860  139.0170 C   0  0  1  0  0  3  0  0  0  0  0  0
  185.7540  177.4220  137.5920 C   0  0  1  0  0  3  0  0  0  0  0  0
  181.1490  177.2500  137.9460 S   0  0  0  0  0  0  0  0  0  0  0  0
  181.9990  176.1980  138.6000 O   0  0  0  0  0  0  0  0  0  0  0  0
  181.8620  177.7780  136.3990 C   0  0  0  0  0  2  0  0  0  0  0  0
  183.8530  176.3780  136.5060 O   0  0  0  0  0  0  0  0  0  0  0  0
  183.3010  179.4520  138.4660 N   0  0  0  0  0  2  0  0  0  0  0  0
  180.8610  178.6240  141.5060 C   0  0  0  0  0  1  0  0  0  0  0  0
  180.1280  178.4120  140.2000 C   0  0  0  0  0  2  0  0  0  0  0  0
  2 17  1  0  0  0  0
  3 25  1  1  0  0  0
  3  9  1  0  0  0  0
  3 13  1  0  0  0  0
  4 14  2  0  0  0  0
  5  8  1  0  0  0  0
  6 23  1  0  0  0  0
  7 13  1  0  0  0  0
  8 10  1  1  0  0  0
  9 12  1  6  0  0  0
 11 19  2  0  0  0  0
 12  4  1  0  0  0  0
 13 24  1  0  0  0  0
 13 21  1  0  0  0  0
 14  1  1  0  0  0  0
 15 11  1  0  0  0  0
 15  4  1  0  0  0  0
 16  2  1  1  0  0  0
 16 20  1  0  0  0  0
 17  9  1  0  0  0  0
 17  6  2  0  0  0  0
 18  8  1  0  0  0  0
 20 26  2  0  0  0  0
 22  5  1  0  0  0  0
 23 24  1  6  0  0  0
 23 18  1  0  0  0  0
 25  1  1  0  0  0  0
 26  6  1  0  0  0  0
 26 22  1  0  0  0  0
 28 30  1  0  0  0  0
 29 28  1  6  0  0  0
 29 30  1  0  0  0  0
 29 16  1  0  0  0  0
 30 27  2  0  0  0  0
 31 11  1  0  0  0  0
 32 33  1  1  0  0  0
 32 37  1  0  0  0  0
 32 31  1  0  0  0  0
 35 37  1  0  0  0  0
 37 36  1  0  0  0  0
 37 34  1  0  0  0  0
 38 20  1  0  0  0  0
 40 48  2  0  0  0  0
 41 42  1  6  0  0  0
 41 51  1  0  0  0  0
 41 47  1  0  0  0  0
 44 39  1  0  0  0  0
 45 50  1  0  0  0  0
 45 51  1  0  0  0  0
 46 43  1  0  0  0  0
 46 54  1  1  0  0  0
 47 38  1  1  0  0  0
 47 44  1  0  0  0  0
 48 49  2  0  0  0  0
 48 46  1  0  0  0  0
 50 48  1  0  0  0  0
 52 39  1  0  0  0  0
 52 43  1  0  0  0  0
 54 53  1  0  0  0  0
M  END
>  <MODEL>
7

>  <REMARK>
 VINA RESULT:      -0.4      4.043      8.380
  Name = 
  7 active torsions:
  status: ('A' for Active; 'I' for Inactive)
    1  A    between atoms: C_15  and  O_24
    2  A    between atoms: C_15  and  C_53
    3  A    between atoms: C_20  and  O_24
    4  A    between atoms: C_22  and  C_38
    5  A    between atoms: C_29  and  C_31
    6  A    between atoms: C_34  and  C_46
    7  A    between atoms: C_42  and  C_46
                            x       y       z     vdW  Elec       q    Type
                         _______ _______ _______ _____ _____    ______ ____

>  <TORSDO>
F 7

$$$$
=
 OpenBabel11062412073D

 54 59  0  0  1  0  0  0  0  0999 V2000
  179.1130  179.5420  140.2350 C   0  0  0  0  0  2  0  0  0  0  0  0
  183.6180  178.9790  137.6150 O   0  0  0  0  0  0  0  0  0  0  0  0
  180.8040  178.0570  139.7900 C   0  0  1  0  0  3  0  0  0  0  0  0
  180.1150  180.9270  138.4660 C   0  0  0  0  0  0  0  0  0  0  0  0
  186.3630  178.5620  141.5650 C   0  0  0  0  0  2  0  0  0  0  0  0
  183.9660  177.9680  139.7260 C   0  0  0  0  0  0  0  0  0  0  0  0
  179.9850  176.7580  141.6220 O   0  0  0  0  0  1  0  0  0  0  0  0
  185.2790  178.2530  142.6070 C   0  0  1  0  0  3  0  0  0  0  0  0
  181.7740  179.1620  139.2960 C   0  0  2  0  0  3  0  0  0  0  0  0
  185.5450  179.0820  143.8490 C   0  0  0  0  0  1  0  0  0  0  0  0
  179.3310  183.2880  137.9600 C   0  0  0  0  0  0  0  0  0  0  0  0
  181.1500  179.9010  138.1010 C   0  0  0  0  0  2  0  0  0  0  0  0
  181.0380  177.5890  141.2420 C   0  0  0  0  0  0  0  0  0  0  0  0
  179.1870  180.7070  139.3540 N   0  0  0  0  0  0  0  0  0  0  0  0
  180.0270  182.0800  137.6270 N   0  0  0  0  0  2  0  0  0  0  0  0
  184.8260  178.4490  137.0510 C   0  0  1  0  0  3  0  0  0  0  0  0
  183.1420  178.6390  138.8920 C   0  0  0  0  0  0  0  0  0  0  0  0
  183.9320  178.5550  142.1090 N   0  0  0  0  0  2  0  0  0  0  0  0
  179.0510  183.5520  139.1590 O   0  0  0  0  0  0  0  0  0  0  0  0
  185.8200  178.0850  138.1190 C   0  0  0  0  0  0  0  0  0  0  0  0
  181.0880  178.6750  142.1180 O   0  0  0  0  0  1  0  0  0  0  0  0
  186.3990  177.5090  140.4540 C   0  0  0  0  0  2  0  0  0  0  0  0
  183.6040  177.5420  141.1150 C   0  0  1  0  0  3  0  0  0  0  0  0
  182.3110  176.7740  141.3500 C   0  0  0  0  0  2  0  0  0  0  0  0
  179.4400  178.3610  139.5360 O   0  0  0  0  0  0  0  0  0  0  0  0
  185.4010  177.8290  139.3690 C   0  0  0  0  0  0  0  0  0  0  0  0
  181.9260  177.0010  136.1780 C   0  0  0  0  0  2  0  0  0  0  0  0
  184.2380  177.7060  134.8970 O   0  0  0  0  0  0  0  0  0  0  0  0
  184.5300  177.2590  136.1540 C   0  0  2  0  0  3  0  0  0  0  0  0
  183.1870  177.2340  135.8560 C   0  0  0  0  0  0  0  0  0  0  0  0
  178.9310  184.1690  136.9540 O   0  0  0  0  0  0  0  0  0  0  0  0
  179.7220  185.2750  136.5590 C   0  0  1  0  0  3  0  0  0  0  0  0
  179.9030  186.4320  137.9670 S   0  0  0  0  0  1  0  0  0  0  0  0
  182.0380  184.4970  137.1440 C   0  0  0  0  0  1  0  0  0  0  0  0
  180.9160  183.5640  135.1440 C   0  0  0  0  0  1  0  0  0  0  0  0
  181.6540  185.8640  135.1960 N   0  0  0  0  0  1  0  0  0  0  0  0
  181.0750  184.8040  136.0050 C   0  0  0  0  0  0  0  0  0  0  0  0
  187.2670  177.9580  137.7420 C   0  0  0  0  0  2  0  0  0  0  0  0
  188.3870  174.3140  137.3340 C   0  0  0  0  0  2  0  0  0  0  0  0
  193.5350  176.4260  136.2280 O   0  0  0  0  0  0  0  0  0  0  0  0
  188.4010  176.9530  135.6930 C   0  0  2  0  0  3  0  0  0  0  0  0
  187.5350  177.5590  134.5940 C   0  0  0  0  0  1  0  0  0  0  0  0
  190.6940  173.9450  137.5820 C   0  0  0  0  0  2  0  0  0  0  0  0
  188.2910  175.7250  137.8940 C   0  0  0  0  0  2  0  0  0  0  0  0
  190.4620  177.5890  134.9650 C   0  0  0  0  0  2  0  0  0  0  0  0
  192.0490  174.2840  136.9750 C   0  0  1  0  0  3  0  0  0  0  0  0
  187.5700  176.6860  136.9580 C   0  0  1  0  0  3  0  0  0  0  0  0
  192.1210  176.0170  136.5150 S   0  0  0  0  0  0  0  0  0  0  0  0
  191.5850  176.8570  137.6390 O   0  0  0  0  0  0  0  0  0  0  0  0
  191.1470  176.2280  135.0360 C   0  0  0  0  0  2  0  0  0  0  0  0
  189.5120  177.7650  135.9850 O   0  0  0  0  0  0  0  0  0  0  0  0
  189.6330  174.1330  136.6060 N   0  0  0  0  0  2  0  0  0  0  0  0
  194.5020  174.0580  137.3780 C   0  0  0  0  0  1  0  0  0  0  0  0
  193.1250  173.9480  137.9930 C   0  0  0  0  0  2  0  0  0  0  0  0
  2 17  1  0  0  0  0
  3 25  1  1  0  0  0
  3 13  1  0  0  0  0
  4 14  2  0  0  0  0
  5  8  1  0  0  0  0
  6 23  1  0  0  0  0
  8 10  1  1  0  0  0
  9 12  1  6  0  0  0
  9  3  1  0  0  0  0
 11 19  2  0  0  0  0
 12  4  1  0  0  0  0
 13 24  1  0  0  0  0
 13  7  1  0  0  0  0
 13 21  1  0  0  0  0
 14  1  1  0  0  0  0
 15 11  1  0  0  0  0
 15  4  1  0  0  0  0
 16  2  1  1  0  0  0
 16 20  1  0  0  0  0
 17  9  1  0  0  0  0
 17  6  2  0  0  0  0
 18  8  1  0  0  0  0
 20 26  2  0  0  0  0
 22  5  1  0  0  0  0
 23 24  1  6  0  0  0
 23 18  1  0  0  0  0
 25  1  1  0  0  0  0
 26  6  1  0  0  0  0
 26 22  1  0  0  0  0
 28 30  1  0  0  0  0
 29 28  1  6  0  0  0
 29 16  1  0  0  0  0
 30 29  1  0  0  0  0
 30 27  2  0  0  0  0
 31 11  1  0  0  0  0
 32 31  1  0  0  0  0
 32 33  1  1  0  0  0
 35 37  1  0  0  0  0
 36 37  1  0  0  0  0
 37 32  1  0  0  0  0
 37 34  1  0  0  0  0
 38 20  1  0  0  0  0
 39 44  1  0  0  0  0
 40 48  2  0  0  0  0
 41 42  1  6  0  0  0
 41 51  1  0  0  0  0
 41 47  1  0  0  0  0
 45 50  1  0  0  0  0
 45 51  1  0  0  0  0
 46 43  1  0  0  0  0
 46 54  1  1  0  0  0
 47 38  1  1  0  0  0
 47 44  1  0  0  0  0
 48 46  1  0  0  0  0
 48 49  2  0  0  0  0
 50 48  1  0  0  0  0
 52 39  1  0  0  0  0
 52 43  1  0  0  0  0
 53 54  1  0  0  0  0
M  END
>  <MODEL>
8

>  <REMARK>
 VINA RESULT:      -0.3      3.276      8.223
  Name = 
  7 active torsions:
  status: ('A' for Active; 'I' for Inactive)
    1  A    between atoms: C_15  and  O_24
    2  A    between atoms: C_15  and  C_53
    3  A    between atoms: C_20  and  O_24
    4  A    between atoms: C_22  and  C_38
    5  A    between atoms: C_29  and  C_31
    6  A    between atoms: C_34  and  C_46
    7  A    between atoms: C_42  and  C_46
                            x       y       z     vdW  Elec       q    Type
                         _______ _______ _______ _____ _____    ______ ____

>  <TORSDO>
F 7

$$$$
=
 OpenBabel11062412073D

 54 59  0  0  1  0  0  0  0  0999 V2000
  187.1010  174.9160  134.7370 C   0  0  0  0  0  2  0  0  0  0  0  0
  185.0540  177.7340  138.6540 O   0  0  0  0  0  0  0  0  0  0  0  0
  187.1960  176.9620  135.7710 C   0  0  1  0  0  3  0  0  0  0  0  0
  185.0970  174.5240  136.1080 C   0  0  0  0  0  0  0  0  0  0  0  0
  189.1500  177.9720  141.1980 C   0  0  0  0  0  2  0  0  0  0  0  0
  187.3800  178.1720  138.6870 C   0  0  0  0  0  0  0  0  0  0  0  0
  189.2500  177.3230  134.6030 O   0  0  0  0  0  1  0  0  0  0  0  0
  190.1590  177.5760  140.1110 C   0  0  1  0  0  3  0  0  0  0  0  0
  186.4890  176.4530  137.0540 C   0  0  2  0  0  3  0  0  0  0  0  0
  191.1440  176.5830  140.6970 C   0  0  0  0  0  1  0  0  0  0  0  0
  183.9140  172.2790  136.2030 C   0  0  0  0  0  0  0  0  0  0  0  0
  185.0970  175.9060  136.6950 C   0  0  0  0  0  2  0  0  0  0  0  0
  188.7330  177.0570  135.8700 C   0  0  0  0  0  0  0  0  0  0  0  0
  185.9440  174.1470  135.1930 N   0  0  0  0  0  0  0  0  0  0  0  0
  183.9720  173.6960  136.4100 N   0  0  0  0  0  2  0  0  0  0  0  0
  184.7420  178.7900  139.5740 C   0  0  1  0  0  3  0  0  0  0  0  0
  186.3390  177.5140  138.1310 C   0  0  0  0  0  0  0  0  0  0  0  0
  189.5050  176.9700  138.9450 N   0  0  0  0  0  2  0  0  0  0  0  0
  184.9730  171.6110  136.0760 O   0  0  0  0  0  0  0  0  0  0  0  0
  185.9350  179.1680  140.4070 C   0  0  0  0  0  0  0  0  0  0  0  0
  189.2820  175.8600  136.3340 O   0  0  0  0  0  1  0  0  0  0  0  0
  188.3730  179.2350  140.8190 C   0  0  0  0  0  2  0  0  0  0  0  0
  188.8030  178.0380  138.2440 C   0  0  1  0  0  3  0  0  0  0  0  0
  189.1470  178.2030  136.7710 C   0  0  0  0  0  2  0  0  0  0  0  0
  186.7740  176.2810  134.5970 O   0  0  0  0  0  0  0  0  0  0  0  0
  187.1750  178.9010  139.9660 C   0  0  0  0  0  0  0  0  0  0  0  0
  181.9290  179.1940  137.7860 C   0  0  0  0  0  2  0  0  0  0  0  0
  183.2980  180.6470  139.6570 O   0  0  0  0  0  0  0  0  0  0  0  0
  184.1830  179.9990  138.8420 C   0  0  2  0  0  3  0  0  0  0  0  0
  182.8660  179.7700  138.5200 C   0  0  0  0  0  0  0  0  0  0  0  0
  182.6810  171.6310  136.1110 O   0  0  0  0  0  0  0  0  0  0  0  0
  181.4890  172.3190  135.7770 C   0  0  1  0  0  3  0  0  0  0  0  0
  180.5150  171.3170  134.5940 S   0  0  0  0  0  1  0  0  0  0  0  0
  181.0080  171.6910  138.1610 C   0  0  0  0  0  1  0  0  0  0  0  0
  181.0130  174.0800  137.5170 C   0  0  0  0  0  1  0  0  0  0  0  0
  179.2720  172.5910  136.7510 N   0  0  0  0  0  1  0  0  0  0  0  0
  180.6940  172.6740  137.0420 C   0  0  0  0  0  0  0  0  0  0  0  0
  185.7090  179.8950  141.7000 C   0  0  0  0  0  2  0  0  0  0  0  0
  184.1240  179.2030  145.1210 C   0  0  0  0  0  2  0  0  0  0  0  0
  189.0770  176.8030  146.4980 O   0  0  0  0  0  0  0  0  0  0  0  0
  185.5000  177.6200  142.8290 C   0  0  2  0  0  3  0  0  0  0  0  0
  185.0290  176.7840  141.6440 C   0  0  0  0  0  1  0  0  0  0  0  0
  185.6480  178.8420  146.8730 C   0  0  0  0  0  2  0  0  0  0  0  0
  185.0670  179.7710  144.0730 C   0  0  0  0  0  2  0  0  0  0  0  0
  187.2930  176.3830  143.4930 C   0  0  0  0  0  2  0  0  0  0  0  0
  186.7500  177.9050  147.3490 C   0  0  1  0  0  3  0  0  0  0  0  0
  184.9630  179.0560  142.7320 C   0  0  1  0  0  3  0  0  0  0  0  0
  187.8230  177.4460  145.9860 S   0  0  0  0  0  0  0  0  0  0  0  0
  188.1860  178.6730  145.1980 O   0  0  0  0  0  0  0  0  0  0  0  0
  186.9420  176.2720  144.9730 C   0  0  0  0  0  2  0  0  0  0  0  0
  186.9030  177.6150  142.9420 O   0  0  0  0  0  0  0  0  0  0  0  0
  184.7880  178.1760  145.9090 N   0  0  0  0  0  2  0  0  0  0  0  0
  188.9980  178.2340  148.3840 C   0  0  0  0  0  1  0  0  0  0  0  0
  187.5340  178.6090  148.4430 C   0  0  0  0  0  2  0  0  0  0  0  0
  1 14  1  0  0  0  0
  3 25  1  6  0  0  0
  3 13  1  0  0  0  0
  3  9  1  0  0  0  0
  4 15  1  0  0  0  0
  4 12  1  0  0  0  0
  6 26  1  0  0  0  0
  7 13  1  0  0  0  0
  8 10  1  1  0  0  0
  8  5  1  0  0  0  0
  9 12  1  6  0  0  0
  9 17  1  0  0  0  0
 11 15  1  0  0  0  0
 13 21  1  0  0  0  0
 13 24  1  0  0  0  0
 14  4  2  0  0  0  0
 16  2  1  6  0  0  0
 16 20  1  0  0  0  0
 17  2  1  0  0  0  0
 17  6  2  0  0  0  0
 18  8  1  0  0  0  0
 19 11  2  0  0  0  0
 20 38  1  0  0  0  0
 22  5  1  0  0  0  0
 23 24  1  6  0  0  0
 23  6  1  0  0  0  0
 23 18  1  0  0  0  0
 25  1  1  0  0  0  0
 26 20  2  0  0  0  0
 26 22  1  0  0  0  0
 27 30  2  0  0  0  0
 29 30  1  6  0  0  0
 29 16  1  0  0  0  0
 29 28  1  0  0  0  0
 30 28  1  0  0  0  0
 31 11  1  0  0  0  0
 32 33  1  6  0  0  0
 32 31  1  0  0  0  0
 32 37  1  0  0  0  0
 36 37  1  0  0  0  0
 37 35  1  0  0  0  0
 37 34  1  0  0  0  0
 39 52  1  0  0  0  0
 41 42  1  6  0  0  0
 41 51  1  0  0  0  0
 43 46  1  0  0  0  0
 44 39  1  0  0  0  0
 45 50  1  0  0  0  0
 46 54  1  1  0  0  0
 47 38  1  6  0  0  0
 47 41  1  0  0  0  0
 47 44  1  0  0  0  0
 48 40  2  0  0  0  0
 48 46  1  0  0  0  0
 49 48  2  0  0  0  0
 50 48  1  0  0  0  0
 51 45  1  0  0  0  0
 52 43  1  0  0  0  0
 53 54  1  0  0  0  0
M  END
>  <MODEL>
9

>  <REMARK>
 VINA RESULT:      -0.3      3.418      9.071
  Name = 
  7 active torsions:
  status: ('A' for Active; 'I' for Inactive)
    1  A    between atoms: C_15  and  O_24
    2  A    between atoms: C_15  and  C_53
    3  A    between atoms: C_20  and  O_24
    4  A    between atoms: C_22  and  C_38
    5  A    between atoms: C_29  and  C_31
    6  A    between atoms: C_34  and  C_46
    7  A    between atoms: C_42  and  C_46
                            x       y       z     vdW  Elec       q    Type
                         _______ _______ _______ _____ _____    ______ ____

>  <TORSDO>
F 7

$$$$
