=
 OpenBabel11062414553D

 51 56  0  0  1  0  0  0  0  0999 V2000
  185.6090  175.6550  137.0530 C   0  0  0  0  0  2  0  0  0  0  0  0
  184.8140  176.0500  135.8290 C   0  0  1  0  0  3  0  0  0  0  0  0
  185.1030  172.1640  134.5990 O   0  0  0  0  0  1  0  0  0  0  0  0
  186.0510  172.4140  136.7800 C   0  0  0  0  0  2  0  0  0  0  0  0
  186.8240  173.5260  137.4620 C   0  0  0  0  0  2  0  0  0  0  0  0
  186.2750  174.2260  135.1750 C   0  0  2  0  0  3  0  0  0  0  0  0
  186.1850  172.7030  135.3040 C   0  0  2  0  0  3  0  0  0  0  0  0
  186.7120  174.7390  136.5460 C   0  0  1  0  0  0  0  0  0  0  0  0
  184.9280  174.8790  134.8780 C   0  0  0  0  0  2  0  0  0  0  0  0
  182.8630  177.8490  136.3930 O   0  0  0  0  0  1  0  0  0  0  0  0
  183.0760  176.3580  136.2590 P   0  0  1  0  0  0  0  0  0  0  0  0
  182.0700  175.7550  135.0360 O   0  0  0  0  0  0  0  0  0  0  0  0
  182.6800  175.5210  137.8310 C   0  0  2  0  0  3  0  0  0  0  0  0
  182.6980  174.1540  137.6220 F   0  0  0  0  0  0  0  0  0  0  0  0
  181.3140  175.9630  138.3700 C   0  0  1  0  0  3  0  0  0  0  0  0
  180.3170  174.8430  138.3900 C   0  0  0  0  0  0  0  0  0  0  0  0
  180.0860  174.2050  139.4500 O   0  0  0  0  0  1  0  0  0  0  0  0
  179.6220  174.5260  137.2330 O   0  0  0  0  0  0  0  0  0  0  0  0
  181.4130  176.6310  139.7450 C   0  0  0  0  0  2  0  0  0  0  0  0
  181.2510  178.1480  139.6640 C   0  0  0  0  0  2  0  0  0  0  0  0
  184.5280  178.8310  141.5170 C   0  0  2  0  0  3  0  0  0  0  0  0
  183.3520  177.9620  141.1140 C   0  0  0  0  0  2  0  0  0  0  0  0
  182.4340  178.8910  140.2660 C   0  0  1  0  0  3  0  0  0  0  0  0
  185.0750  178.7900  140.1110 C   0  0  1  0  0  3  0  0  0  0  0  0
  184.5810  179.9970  139.6140 O   0  0  0  0  0  0  0  0  0  0  0  0
  185.9130  178.7930  141.2030 O   0  0  0  0  0  0  0  0  0  0  0  0
  183.2630  179.6630  139.1790 C   0  0  0  0  0  2  0  0  0  0  0  0
  188.1690  176.3380  135.5210 O   0  0  0  0  0  0  0  0  0  0  0  0
  188.0120  175.4900  136.4450 C   0  0  0  0  0  0  0  0  0  0  0  0
  189.0480  175.2370  137.3610 O   0  0  0  0  0  0  0  0  0  0  0  0
  190.6280  177.0330  137.0810 C   0  0  0  0  0  1  0  0  0  0  0  0
  190.6190  175.5790  138.9980 O   0  0  0  0  0  0  0  0  0  0  0  0
  188.7130  177.1480  138.8090 C   0  0  2  0  0  3  0  0  0  0  0  0
  188.7240  176.9020  140.3160 C   0  0  0  0  0  2  0  0  0  0  0  0
  191.1960  176.5040  139.8950 C   0  0  0  0  0  2  0  0  0  0  0  0
  190.1420  177.0800  140.8500 C   0  0  2  0  0  3  0  0  0  0  0  0
  189.7640  176.2460  138.0780 C   0  0  2  0  0  0  0  0  0  0  0  0
  190.2980  176.5850  142.2560 C   0  0  0  0  0  0  0  0  0  0  0  0
  190.4620  178.9140  143.2220 C   0  0  0  0  0  1  0  0  0  0  0  0
  190.3980  177.4670  143.3900 N   0  0  0  0  0  0  0  0  0  0  0  0
  190.2990  175.3410  142.4370 O   0  0  0  0  0  0  0  0  0  0  0  0
  191.4980  177.2540  145.5900 C   0  0  0  0  0  1  0  0  0  0  0  0
  190.2880  176.9000  144.7320 C   0  0  1  0  0  3  0  0  0  0  0  0
  186.4830  177.8550  146.4440 N   0  0  0  0  0  0  0  0  0  0  0  0
  187.7960  177.1050  144.5940 C   0  0  0  0  0  3  0  0  0  0  0  0
  187.6010  178.0050  147.2120 C   0  0  0  0  0  3  0  0  0  0  0  0
  186.5560  177.4210  145.1540 C   0  0  0  0  0  3  0  0  0  0  0  0
  188.8600  177.7040  146.6830 C   0  0  0  0  0  3  0  0  0  0  0  0
  188.9620  177.2400  145.3620 C   0  0  0  0  0  0  0  0  0  0  0  0
  188.9010  178.5100  138.5500 O   0  0  0  0  0  0  0  0  0  0  0  0
  187.8340  178.8680  137.7260 C   0  0  0  0  0  1  0  0  0  0  0  0
  2 11  1  1  0  0  0
  2  1  1  0  0  0  0
  4  5  1  0  0  0  0
  6  9  1  1  0  0  0
  6  7  1  0  0  0  0
  6  8  1  0  0  0  0
  7  3  1  6  0  0  0
  7  4  1  0  0  0  0
  8 29  1  6  0  0  0
  8  1  1  0  0  0  0
  8  5  1  0  0  0  0
  9  2  1  0  0  0  0
 11 12  2  6  0  0  0
 11 10  1  0  0  0  0
 11 13  1  0  0  0  0
 13 14  1  6  0  0  0
 13 15  1  0  0  0  0
 15 16  1  0  0  0  0
 15 19  1  1  0  0  0
 16 17  1  0  0  0  0
 18 16  2  0  0  0  0
 20 19  1  0  0  0  0
 21 22  1  1  0  0  0
 23 20  1  6  0  0  0
 23 22  1  0  0  0  0
 24 25  1  6  0  0  0
 24 26  1  0  0  0  0
 24 21  1  0  0  0  0
 26 21  1  0  0  0  0
 27 25  1  0  0  0  0
 27 23  1  0  0  0  0
 28 29  2  0  0  0  0
 29 30  1  0  0  0  0
 30 37  1  0  0  0  0
 32 35  1  0  0  0  0
 33 50  1  1  0  0  0
 33 34  1  0  0  0  0
 34 36  1  0  0  0  0
 35 36  1  0  0  0  0
 36 38  1  1  0  0  0
 37 31  1  6  0  0  0
 37 33  1  0  0  0  0
 37 32  1  0  0  0  0
 38 41  2  0  0  0  0
 38 40  1  0  0  0  0
 39 40  1  0  0  0  0
 40 43  1  0  0  0  0
 43 49  1  0  0  0  0
 43 42  1  1  0  0  0
 44 46  1  0  0  0  0
 45 47  1  0  0  0  0
 45 49  2  0  0  0  0
 47 44  2  0  0  0  0
 48 46  2  0  0  0  0
 49 48  1  0  0  0  0
 51 50  1  0  0  0  0
M  END
>  <MODEL>
1

>  <REMARK>
 VINA RESULT:      -7.4      0.000      0.000
  Name = 
  14 active torsions:
  status: ('A' for Active; 'I' for Inactive)
    1  A    between atoms: C_7  and  C_26
    2  A    between atoms: C_7  and  C_35
    3  A    between atoms: C_9  and  O_19
    4  A    between atoms: C_13  and  P_24
    5  A    between atoms: C_16  and  C_33
    6  A    between atoms: C_18  and  C_35
    7  A    between atoms: O_20  and  C_42
    8  A    between atoms: O_20  and  C_43
    9  A    between atoms: P_24  and  C_46
   10  A    between atoms: C_26  and  C_39
   11  A    between atoms: C_26  and  C_46
   12  A    between atoms: C_31  and  N_36
   13  A    between atoms: C_31  and  C_45
   14  A    between atoms: C_34  and  C_42
                            x       y       z     vdW  Elec       q    Type
                         _______ _______ _______ _____ _____    ______ ____

>  <TORSDO>
F 14

$$$$
=
 OpenBabel11062414553D

 51 56  0  0  1  0  0  0  0  0999 V2000
  187.6660  177.3970  136.9230 C   0  0  0  0  0  2  0  0  0  0  0  0
  188.1480  176.8190  138.2330 C   0  0  1  0  0  3  0  0  0  0  0  0
  191.5520  175.6820  136.2780 O   0  0  0  0  0  1  0  0  0  0  0  0
  190.1520  176.9620  134.8240 C   0  0  0  0  0  2  0  0  0  0  0  0
  188.6500  177.0860  134.6620 C   0  0  0  0  0  2  0  0  0  0  0  0
  189.1260  175.4830  136.4590 C   0  0  2  0  0  3  0  0  0  0  0  0
  190.3520  175.6590  135.5590 C   0  0  2  0  0  3  0  0  0  0  0  0
  188.0370  176.3730  135.8620 C   0  0  1  0  0  0  0  0  0  0  0  0
  189.3570  175.9800  137.8840 C   0  0  0  0  0  2  0  0  0  0  0  0
  189.0940  179.3330  138.6080 O   0  0  0  0  0  0  0  0  0  0  0  0
  188.6020  178.1400  139.3950 P   0  0  1  0  0  0  0  0  0  0  0  0
  187.2480  178.5890  140.3070 O   0  0  0  0  0  1  0  0  0  0  0  0
  189.9120  177.5420  140.5160 C   0  0  2  0  0  3  0  0  0  0  0  0
  190.6620  176.5880  139.8510 F   0  0  0  0  0  0  0  0  0  0  0  0
  189.3210  176.9580  141.8040 C   0  0  1  0  0  3  0  0  0  0  0  0
  190.3250  176.1650  142.5880 C   0  0  0  0  0  0  0  0  0  0  0  0
  190.1200  174.9530  142.8570 O   0  0  0  0  0  0  0  0  0  0  0  0
  191.5040  176.7700  142.9960 O   0  0  0  0  0  1  0  0  0  0  0  0
  188.6600  178.0240  142.6830 C   0  0  0  0  0  2  0  0  0  0  0  0
  187.7280  177.4140  143.7300 C   0  0  0  0  0  2  0  0  0  0  0  0
  187.3480  178.0800  147.4790 C   0  0  2  0  0  3  0  0  0  0  0  0
  186.8710  177.5550  146.1370 C   0  0  0  0  0  2  0  0  0  0  0  0
  187.9780  177.9700  145.1230 C   0  0  1  0  0  3  0  0  0  0  0  0
  188.4080  177.0070  147.5520 C   0  0  1  0  0  3  0  0  0  0  0  0
  189.5150  177.7150  147.0810 O   0  0  0  0  0  0  0  0  0  0  0  0
  187.7510  177.4410  148.6810 O   0  0  0  0  0  0  0  0  0  0  0  0
  189.4050  177.5970  145.6620 C   0  0  0  0  0  2  0  0  0  0  0  0
  186.8990  174.2960  135.5170 O   0  0  0  0  0  0  0  0  0  0  0  0
  186.8330  175.5560  135.4770 C   0  0  0  0  0  0  0  0  0  0  0  0
  185.6500  176.1940  135.0630 O   0  0  0  0  0  0  0  0  0  0  0  0
  183.6470  174.9410  134.5950 C   0  0  0  0  0  1  0  0  0  0  0  0
  183.6240  177.1230  135.6060 O   0  0  0  0  0  0  0  0  0  0  0  0
  184.5200  175.2830  137.0000 C   0  0  2  0  0  3  0  0  0  0  0  0
  184.0760  176.2640  138.0830 C   0  0  0  0  0  2  0  0  0  0  0  0
  182.4060  176.9580  136.3020 C   0  0  0  0  0  2  0  0  0  0  0  0
  182.6500  176.7260  137.7980 C   0  0  2  0  0  3  0  0  0  0  0  0
  184.3470  175.8980  135.5710 C   0  0  2  0  0  0  0  0  0  0  0  0
  182.2400  177.8940  138.6430 C   0  0  0  0  0  0  0  0  0  0  0  0
  180.8750  176.4700  140.2220 C   0  0  0  0  0  1  0  0  0  0  0  0
  181.4350  177.7580  139.8290 N   0  0  0  0  0  0  0  0  0  0  0  0
  182.6610  179.0300  138.3080 O   0  0  0  0  0  0  0  0  0  0  0  0
  179.8450  179.1590  141.0970 C   0  0  0  0  0  1  0  0  0  0  0  0
  181.3020  178.9060  140.7240 C   0  0  1  0  0  3  0  0  0  0  0  0
  184.0100  178.5540  144.0190 N   0  0  0  0  0  0  0  0  0  0  0  0
  183.5900  178.5210  141.6670 C   0  0  0  0  0  3  0  0  0  0  0  0
  182.6960  178.8080  144.2780 C   0  0  0  0  0  3  0  0  0  0  0  0
  184.4710  178.4030  142.7440 C   0  0  0  0  0  3  0  0  0  0  0  0
  181.7840  178.9260  143.2250 C   0  0  0  0  0  3  0  0  0  0  0  0
  182.2330  178.7910  141.9020 C   0  0  0  0  0  0  0  0  0  0  0  0
  183.8370  174.0710  137.1510 O   0  0  0  0  0  0  0  0  0  0  0  0
  184.6230  173.3260  138.0300 C   0  0  0  0  0  1  0  0  0  0  0  0
  1  2  1  0  0  0  0
  2 11  1  1  0  0  0
  4  7  1  0  0  0  0
  5  4  1  0  0  0  0
  5  8  1  0  0  0  0
  6  9  1  1  0  0  0
  7  3  1  1  0  0  0
  7  6  1  0  0  0  0
  8 29  1  6  0  0  0
  8  6  1  0  0  0  0
  8  1  1  0  0  0  0
  9  2  1  0  0  0  0
 11 10  2  6  0  0  0
 11 12  1  0  0  0  0
 11 13  1  0  0  0  0
 13 14  1  6  0  0  0
 13 15  1  0  0  0  0
 15 16  1  0  0  0  0
 15 19  1  1  0  0  0
 16 17  2  0  0  0  0
 16 18  1  0  0  0  0
 19 20  1  0  0  0  0
 21 22  1  6  0  0  0
 21 24  1  0  0  0  0
 21 26  1  0  0  0  0
 23 20  1  6  0  0  0
 23 27  1  0  0  0  0
 23 22  1  0  0  0  0
 24 25  1  1  0  0  0
 24 26  1  0  0  0  0
 27 25  1  0  0  0  0
 29 28  2  0  0  0  0
 30 29  1  0  0  0  0
 30 37  1  0  0  0  0
 32 35  1  0  0  0  0
 33 50  1  6  0  0  0
 33 34  1  0  0  0  0
 35 36  1  0  0  0  0
 36 34  1  0  0  0  0
 36 38  1  1  0  0  0
 37 31  1  6  0  0  0
 37 32  1  0  0  0  0
 37 33  1  0  0  0  0
 38 40  1  0  0  0  0
 40 39  1  0  0  0  0
 40 43  1  0  0  0  0
 41 38  2  0  0  0  0
 43 42  1  1  0  0  0
 43 49  1  0  0  0  0
 44 46  1  0  0  0  0
 45 49  2  0  0  0  0
 45 47  1  0  0  0  0
 47 44  2  0  0  0  0
 48 46  2  0  0  0  0
 49 48  1  0  0  0  0
 50 51  1  0  0  0  0
M  END
>  <MODEL>
2

>  <REMARK>
 VINA RESULT:      -7.4      2.823      7.507
  Name = 
  14 active torsions:
  status: ('A' for Active; 'I' for Inactive)
    1  A    between atoms: C_7  and  C_26
    2  A    between atoms: C_7  and  C_35
    3  A    between atoms: C_9  and  O_19
    4  A    between atoms: C_13  and  P_24
    5  A    between atoms: C_16  and  C_33
    6  A    between atoms: C_18  and  C_35
    7  A    between atoms: O_20  and  C_42
    8  A    between atoms: O_20  and  C_43
    9  A    between atoms: P_24  and  C_46
   10  A    between atoms: C_26  and  C_39
   11  A    between atoms: C_26  and  C_46
   12  A    between atoms: C_31  and  N_36
   13  A    between atoms: C_31  and  C_45
   14  A    between atoms: C_34  and  C_42
                            x       y       z     vdW  Elec       q    Type
                         _______ _______ _______ _____ _____    ______ ____

>  <TORSDO>
F 14

$$$$
=
 OpenBabel11062414553D

 51 56  0  0  1  0  0  0  0  0999 V2000
  183.3090  176.2640  138.4900 C   0  0  0  0  0  2  0  0  0  0  0  0
  183.5390  177.6430  137.9150 C   0  0  1  0  0  3  0  0  0  0  0  0
  180.0820  177.1400  135.7920 O   0  0  0  0  0  1  0  0  0  0  0  0
  180.4230  175.2910  137.2670 C   0  0  0  0  0  2  0  0  0  0  0  0
  181.6570  174.5580  137.7580 C   0  0  0  0  0  2  0  0  0  0  0  0
  182.3510  176.3550  136.2360 C   0  0  2  0  0  3  0  0  0  0  0  0
  180.8750  176.0090  136.0190 C   0  0  2  0  0  3  0  0  0  0  0  0
  182.8480  175.4050  137.3240 C   0  0  1  0  0  0  0  0  0  0  0  0
  182.5590  177.7700  136.7690 C   0  0  0  0  0  2  0  0  0  0  0  0
  184.5520  179.5170  139.5940 O   0  0  0  0  0  1  0  0  0  0  0  0
  183.2290  178.9250  139.1640 P   0  0  1  0  0  0  0  0  0  0  0  0
  182.2570  180.1450  138.5020 O   0  0  0  0  0  0  0  0  0  0  0  0
  182.3740  178.1860  140.5970 C   0  0  2  0  0  3  0  0  0  0  0  0
  181.2950  177.4530  140.1380 F   0  0  0  0  0  0  0  0  0  0  0  0
  181.9100  179.2620  141.5850 C   0  0  1  0  0  3  0  0  0  0  0  0
  180.4170  179.4170  141.6050 C   0  0  0  0  0  0  0  0  0  0  0  0
  179.8350  180.1540  140.7670 O   0  0  0  0  0  0  0  0  0  0  0  0
  179.6710  178.7170  142.5400 O   0  0  0  0  0  1  0  0  0  0  0  0
  182.4530  179.0340  142.9990 C   0  0  0  0  0  2  0  0  0  0  0  0
  183.9740  178.8840  143.0160 C   0  0  0  0  0  2  0  0  0  0  0  0
  186.3430  177.6410  145.7530 C   0  0  2  0  0  3  0  0  0  0  0  0
  186.0320  178.2040  144.3780 C   0  0  0  0  0  2  0  0  0  0  0  0
  184.4770  178.2260  144.2930 C   0  0  1  0  0  3  0  0  0  0  0  0
  185.9060  178.9290  146.4080 C   0  0  1  0  0  3  0  0  0  0  0  0
  184.5980  178.5980  146.7640 O   0  0  0  0  0  0  0  0  0  0  0  0
  186.9560  178.1930  146.9090 O   0  0  0  0  0  0  0  0  0  0  0  0
  183.8510  178.8740  145.5790 C   0  0  0  0  0  2  0  0  0  0  0  0
  183.7790  173.7490  135.8670 O   0  0  0  0  0  0  0  0  0  0  0  0
  183.9840  174.5590  136.8140 C   0  0  0  0  0  0  0  0  0  0  0  0
  185.2590  174.6610  137.4000 O   0  0  0  0  0  0  0  0  0  0  0  0
  186.2340  174.9590  135.2180 C   0  0  0  0  0  1  0  0  0  0  0  0
  187.5180  174.3450  137.1570 O   0  0  0  0  0  0  0  0  0  0  0  0
  186.6130  176.6490  137.1320 C   0  0  2  0  0  3  0  0  0  0  0  0
  187.8010  176.8260  138.0750 C   0  0  0  0  0  2  0  0  0  0  0  0
  188.7400  174.8990  136.7150 C   0  0  0  0  0  2  0  0  0  0  0  0
  189.0480  176.2130  137.4430 C   0  0  2  0  0  3  0  0  0  0  0  0
  186.4240  175.1480  136.7300 C   0  0  2  0  0  0  0  0  0  0  0  0
  190.1860  176.0900  138.4100 C   0  0  0  0  0  0  0  0  0  0  0  0
  189.7840  178.3730  139.4140 C   0  0  0  0  0  1  0  0  0  0  0  0
  190.4990  177.1030  139.3840 N   0  0  0  0  0  0  0  0  0  0  0  0
  190.8600  175.0290  138.3820 O   0  0  0  0  0  0  0  0  0  0  0  0
  192.7830  177.5020  140.2330 C   0  0  0  0  0  1  0  0  0  0  0  0
  191.4530  176.7870  140.4450 C   0  0  1  0  0  3  0  0  0  0  0  0
  189.6630  177.3350  144.2940 N   0  0  0  0  0  0  0  0  0  0  0  0
  189.7290  176.2330  142.1750 C   0  0  0  0  0  3  0  0  0  0  0  0
  190.7420  178.1000  143.9600 C   0  0  0  0  0  3  0  0  0  0  0  0
  189.1450  176.4170  143.4300 C   0  0  0  0  0  3  0  0  0  0  0  0
  191.3490  177.9480  142.7100 C   0  0  0  0  0  3  0  0  0  0  0  0
  190.8460  176.9980  141.8070 C   0  0  0  0  0  0  0  0  0  0  0  0
  186.7610  177.4890  136.0220 O   0  0  0  0  0  0  0  0  0  0  0  0
  187.0550  178.7420  136.5590 C   0  0  0  0  0  1  0  0  0  0  0  0
  2  1  1  0  0  0  0
  2 11  1  1  0  0  0
  4  5  1  0  0  0  0
  6  9  1  1  0  0  0
  6  8  1  0  0  0  0
  7  3  1  1  0  0  0
  7  6  1  0  0  0  0
  7  4  1  0  0  0  0
  8 29  1  6  0  0  0
  8  5  1  0  0  0  0
  8  1  1  0  0  0  0
  9  2  1  0  0  0  0
 11 12  2  6  0  0  0
 11 10  1  0  0  0  0
 11 13  1  0  0  0  0
 13 14  1  6  0  0  0
 13 15  1  0  0  0  0
 15 16  1  0  0  0  0
 15 19  1  1  0  0  0
 16 18  1  0  0  0  0
 17 16  2  0  0  0  0
 19 20  1  0  0  0  0
 21 22  1  6  0  0  0
 21 24  1  0  0  0  0
 21 26  1  0  0  0  0
 23 20  1  6  0  0  0
 23 22  1  0  0  0  0
 23 27  1  0  0  0  0
 24 25  1  1  0  0  0
 24 26  1  0  0  0  0
 27 25  1  0  0  0  0
 28 29  2  0  0  0  0
 29 30  1  0  0  0  0
 33 50  1  6  0  0  0
 33 34  1  0  0  0  0
 35 32  1  0  0  0  0
 35 36  1  0  0  0  0
 36 34  1  0  0  0  0
 36 38  1  1  0  0  0
 37 31  1  6  0  0  0
 37 33  1  0  0  0  0
 37 32  1  0  0  0  0
 37 30  1  0  0  0  0
 38 40  1  0  0  0  0
 40 39  1  0  0  0  0
 40 43  1  0  0  0  0
 41 38  2  0  0  0  0
 43 42  1  6  0  0  0
 43 49  1  0  0  0  0
 45 47  1  0  0  0  0
 46 44  1  0  0  0  0
 47 44  2  0  0  0  0
 48 46  2  0  0  0  0
 49 45  2  0  0  0  0
 49 48  1  0  0  0  0
 50 51  1  0  0  0  0
M  END
>  <MODEL>
3

>  <REMARK>
 VINA RESULT:      -6.7      2.440      4.667
  Name = 
  14 active torsions:
  status: ('A' for Active; 'I' for Inactive)
    1  A    between atoms: C_7  and  C_26
    2  A    between atoms: C_7  and  C_35
    3  A    between atoms: C_9  and  O_19
    4  A    between atoms: C_13  and  P_24
    5  A    between atoms: C_16  and  C_33
    6  A    between atoms: C_18  and  C_35
    7  A    between atoms: O_20  and  C_42
    8  A    between atoms: O_20  and  C_43
    9  A    between atoms: P_24  and  C_46
   10  A    between atoms: C_26  and  C_39
   11  A    between atoms: C_26  and  C_46
   12  A    between atoms: C_31  and  N_36
   13  A    between atoms: C_31  and  C_45
   14  A    between atoms: C_34  and  C_42
                            x       y       z     vdW  Elec       q    Type
                         _______ _______ _______ _____ _____    ______ ____

>  <TORSDO>
F 14

$$$$
=
 OpenBabel11062414553D

 51 56  0  0  1  0  0  0  0  0999 V2000
  185.2280  175.4850  137.0820 C   0  0  0  0  0  2  0  0  0  0  0  0
  184.1820  175.9950  136.1170 C   0  0  1  0  0  3  0  0  0  0  0  0
  183.9840  172.2030  134.6030 O   0  0  0  0  0  1  0  0  0  0  0  0
  185.4390  172.2620  136.4990 C   0  0  0  0  0  2  0  0  0  0  0  0
  186.4040  173.2960  137.0440 C   0  0  0  0  0  2  0  0  0  0  0  0
  185.3560  174.1820  135.0090 C   0  0  2  0  0  3  0  0  0  0  0  0
  185.2280  172.6570  135.0570 C   0  0  2  0  0  3  0  0  0  0  0  0
  186.1330  174.5770  136.2640 C   0  0  1  0  0  0  0  0  0  0  0  0
  184.0080  174.8950  135.0920 C   0  0  0  0  0  2  0  0  0  0  0  0
  181.5040  176.3930  135.9510 O   0  0  0  0  0  0  0  0  0  0  0  0
  182.6140  176.3210  136.9750 P   0  0  1  0  0  0  0  0  0  0  0  0
  182.2890  175.0670  138.0670 O   0  0  0  0  0  1  0  0  0  0  0  0
  182.7350  177.8970  137.8860 C   0  0  2  0  0  3  0  0  0  0  0  0
  183.1480  178.8840  137.0100 F   0  0  0  0  0  0  0  0  0  0  0  0
  183.7070  177.7860  139.0660 C   0  0  1  0  0  3  0  0  0  0  0  0
  184.5100  179.0370  139.2660 C   0  0  0  0  0  0  0  0  0  0  0  0
  185.7160  178.9790  139.6230 O   0  0  0  0  0  1  0  0  0  0  0  0
  183.9230  180.2710  139.0290 O   0  0  0  0  0  0  0  0  0  0  0  0
  183.0080  177.3730  140.3660 C   0  0  0  0  0  2  0  0  0  0  0  0
  181.4940  177.5700  140.2960 C   0  0  0  0  0  2  0  0  0  0  0  0
  179.3790  179.1200  143.0830 C   0  0  2  0  0  3  0  0  0  0  0  0
  179.6560  178.0970  141.9970 C   0  0  0  0  0  2  0  0  0  0  0  0
  180.9890  178.5570  141.3380 C   0  0  1  0  0  3  0  0  0  0  0  0
  180.4870  178.5520  143.9370 C   0  0  1  0  0  3  0  0  0  0  0  0
  181.5240  179.4300  143.6200 O   0  0  0  0  0  0  0  0  0  0  0  0
  179.3300  179.0380  144.5000 O   0  0  0  0  0  0  0  0  0  0  0  0
  182.0760  178.8760  142.4250 C   0  0  0  0  0  2  0  0  0  0  0  0
  187.4000  176.1150  134.9380 O   0  0  0  0  0  0  0  0  0  0  0  0
  187.4040  175.2950  135.8990 C   0  0  0  0  0  0  0  0  0  0  0  0
  188.5890  175.0410  136.6120 O   0  0  0  0  0  0  0  0  0  0  0  0
  190.3970  176.5490  136.1080 C   0  0  0  0  0  1  0  0  0  0  0  0
  190.1720  175.4320  138.2260 O   0  0  0  0  0  0  0  0  0  0  0  0
  188.4950  177.1840  137.7320 C   0  0  2  0  0  3  0  0  0  0  0  0
  188.4550  177.1810  139.2590 C   0  0  0  0  0  2  0  0  0  0  0  0
  190.8560  176.4040  138.9880 C   0  0  0  0  0  2  0  0  0  0  0  0
  189.8770  177.2560  139.8060 C   0  0  2  0  0  3  0  0  0  0  0  0
  189.4240  176.0490  137.1860 C   0  0  2  0  0  0  0  0  0  0  0  0
  189.9490  176.9740  141.2750 C   0  0  0  0  0  0  0  0  0  0  0  0
  189.0370  179.2430  141.9120 C   0  0  0  0  0  1  0  0  0  0  0  0
  189.4970  177.9080  142.2750 N   0  0  0  0  0  0  0  0  0  0  0  0
  190.3880  175.8520  141.6320 O   0  0  0  0  0  0  0  0  0  0  0  0
  190.4720  178.0170  144.5410 C   0  0  0  0  0  1  0  0  0  0  0  0
  189.3660  177.4500  143.6560 C   0  0  1  0  0  3  0  0  0  0  0  0
  185.4380  178.1030  145.2250 N   0  0  0  0  0  0  0  0  0  0  0  0
  187.7890  177.8410  145.5620 C   0  0  0  0  0  3  0  0  0  0  0  0
  185.5850  177.9440  143.8790 C   0  0  0  0  0  3  0  0  0  0  0  0
  186.5060  178.0500  146.0710 C   0  0  0  0  0  3  0  0  0  0  0  0
  186.8540  177.7260  143.3330 C   0  0  0  0  0  3  0  0  0  0  0  0
  187.9730  177.6830  144.1800 C   0  0  0  0  0  0  0  0  0  0  0  0
  188.8650  178.4520  137.2720 O   0  0  0  0  0  0  0  0  0  0  0  0
  187.7140  178.9650  136.6730 C   0  0  0  0  0  1  0  0  0  0  0  0
  2 11  1  1  0  0  0
  2  1  1  0  0  0  0
  4  5  1  0  0  0  0
  6  7  1  0  0  0  0
  6  9  1  1  0  0  0
  6  8  1  0  0  0  0
  7  3  1  1  0  0  0
  7  4  1  0  0  0  0
  8 29  1  6  0  0  0
  8  5  1  0  0  0  0
  8  1  1  0  0  0  0
  9  2  1  0  0  0  0
 11 10  2  6  0  0  0
 11 13  1  0  0  0  0
 11 12  1  0  0  0  0
 13 14  1  6  0  0  0
 13 15  1  0  0  0  0
 15 16  1  0  0  0  0
 15 19  1  1  0  0  0
 16 17  1  0  0  0  0
 18 16  2  0  0  0  0
 20 19  1  0  0  0  0
 21 22  1  6  0  0  0
 21 24  1  0  0  0  0
 21 26  1  0  0  0  0
 23 20  1  6  0  0  0
 23 22  1  0  0  0  0
 23 27  1  0  0  0  0
 24 25  1  1  0  0  0
 24 26  1  0  0  0  0
 27 25  1  0  0  0  0
 28 29  2  0  0  0  0
 29 30  1  0  0  0  0
 30 37  1  0  0  0  0
 32 35  1  0  0  0  0
 33 50  1  1  0  0  0
 33 34  1  0  0  0  0
 34 36  1  0  0  0  0
 35 36  1  0  0  0  0
 36 38  1  1  0  0  0
 37 31  1  6  0  0  0
 37 33  1  0  0  0  0
 37 32  1  0  0  0  0
 38 41  2  0  0  0  0
 38 40  1  0  0  0  0
 39 40  1  0  0  0  0
 40 43  1  0  0  0  0
 43 49  1  0  0  0  0
 43 42  1  1  0  0  0
 44 47  1  0  0  0  0
 45 47  2  0  0  0  0
 46 44  2  0  0  0  0
 48 46  1  0  0  0  0
 48 49  2  0  0  0  0
 49 45  1  0  0  0  0
 51 50  1  0  0  0  0
M  END
>  <MODEL>
4

>  <REMARK>
 VINA RESULT:      -6.6      2.032      2.963
  Name = 
  14 active torsions:
  status: ('A' for Active; 'I' for Inactive)
    1  A    between atoms: C_7  and  C_26
    2  A    between atoms: C_7  and  C_35
    3  A    between atoms: C_9  and  O_19
    4  A    between atoms: C_13  and  P_24
    5  A    between atoms: C_16  and  C_33
    6  A    between atoms: C_18  and  C_35
    7  A    between atoms: O_20  and  C_42
    8  A    between atoms: O_20  and  C_43
    9  A    between atoms: P_24  and  C_46
   10  A    between atoms: C_26  and  C_39
   11  A    between atoms: C_26  and  C_46
   12  A    between atoms: C_31  and  N_36
   13  A    between atoms: C_31  and  C_45
   14  A    between atoms: C_34  and  C_42
                            x       y       z     vdW  Elec       q    Type
                         _______ _______ _______ _____ _____    ______ ____

>  <TORSDO>
F 14

$$$$
=
 OpenBabel11062414553D

 51 56  0  0  1  0  0  0  0  0999 V2000
  187.7760  176.8610  137.5420 C   0  0  0  0  0  2  0  0  0  0  0  0
  188.7900  176.3800  138.5540 C   0  0  1  0  0  3  0  0  0  0  0  0
  191.3230  175.6780  135.4240 O   0  0  0  0  0  1  0  0  0  0  0  0
  189.3200  176.7260  134.6480 C   0  0  0  0  0  2  0  0  0  0  0  0
  187.8650  176.6410  135.0680 C   0  0  0  0  0  2  0  0  0  0  0  0
  189.1940  175.1540  136.4990 C   0  0  2  0  0  3  0  0  0  0  0  0
  189.9540  175.4770  135.2090 C   0  0  2  0  0  3  0  0  0  0  0  0
  187.8520  175.8760  136.3860 C   0  0  1  0  0  0  0  0  0  0  0  0
  189.8780  175.7060  137.7470 C   0  0  0  0  0  2  0  0  0  0  0  0
  190.9650  177.5950  139.6270 O   0  0  0  0  0  1  0  0  0  0  0  0
  189.4690  177.7730  139.5020 P   0  0  1  0  0  0  0  0  0  0  0  0
  189.1430  179.2260  138.6940 O   0  0  0  0  0  0  0  0  0  0  0  0
  188.7000  177.8180  141.1560 C   0  0  2  0  0  3  0  0  0  0  0  0
  188.5570  179.1390  141.5410 F   0  0  0  0  0  0  0  0  0  0  0  0
  189.5370  177.0470  142.1820 C   0  0  1  0  0  3  0  0  0  0  0  0
  190.5340  177.9230  142.8820 C   0  0  0  0  0  0  0  0  0  0  0  0
  190.2040  178.5940  143.8940 O   0  0  0  0  0  1  0  0  0  0  0  0
  191.8420  177.9710  142.4230 O   0  0  0  0  0  0  0  0  0  0  0  0
  188.6730  176.2880  143.1940 C   0  0  0  0  0  2  0  0  0  0  0  0
  187.2400  176.8180  143.2430 C   0  0  0  0  0  2  0  0  0  0  0  0
  185.5160  179.1350  145.7540 C   0  0  2  0  0  3  0  0  0  0  0  0
  185.5410  178.2290  144.5370 C   0  0  0  0  0  2  0  0  0  0  0  0
  187.0370  177.8360  144.3550 C   0  0  1  0  0  3  0  0  0  0  0  0
  185.7550  177.9580  146.6680 C   0  0  1  0  0  3  0  0  0  0  0  0
  187.1360  178.0540  146.8460 O   0  0  0  0  0  0  0  0  0  0  0  0
  184.9450  179.0040  147.0470 O   0  0  0  0  0  0  0  0  0  0  0  0
  187.6650  177.3620  145.7140 C   0  0  0  0  0  2  0  0  0  0  0  0
  186.7890  173.8070  135.8200 O   0  0  0  0  0  0  0  0  0  0  0  0
  186.7130  174.8950  136.4570 C   0  0  0  0  0  0  0  0  0  0  0  0
  185.5670  175.1970  137.2140 O   0  0  0  0  0  0  0  0  0  0  0  0
  184.3760  175.4010  135.1310 C   0  0  0  0  0  1  0  0  0  0  0  0
  183.9400  176.8040  137.0350 O   0  0  0  0  0  0  0  0  0  0  0  0
  183.2710  174.4300  137.2520 C   0  0  2  0  0  3  0  0  0  0  0  0
  182.3280  175.0800  138.2620 C   0  0  0  0  0  2  0  0  0  0  0  0
  182.5910  177.0790  136.7190 C   0  0  0  0  0  2  0  0  0  0  0  0
  181.6380  176.2790  137.6160 C   0  0  2  0  0  3  0  0  0  0  0  0
  184.2780  175.4740  136.6620 C   0  0  2  0  0  0  0  0  0  0  0  0
  180.9170  177.1370  138.6100 C   0  0  0  0  0  0  0  0  0  0  0  0
  182.9450  177.3930  140.0940 C   0  0  0  0  0  1  0  0  0  0  0  0
  181.5610  177.7090  139.7640 N   0  0  0  0  0  0  0  0  0  0  0  0
  179.7060  177.3910  138.3870 O   0  0  0  0  0  0  0  0  0  0  0  0
  181.4290  178.8830  141.9320 C   0  0  0  0  0  1  0  0  0  0  0  0
  180.8520  178.7330  140.5290 C   0  0  1  0  0  3  0  0  0  0  0  0
  180.4960  182.4080  138.3640 N   0  0  0  0  0  0  0  0  0  0  0  0
  179.6100  180.8190  139.9130 C   0  0  0  0  0  3  0  0  0  0  0  0
  181.6170  181.6510  138.1860 C   0  0  0  0  0  3  0  0  0  0  0  0
  179.4950  182.0150  139.2020 C   0  0  0  0  0  3  0  0  0  0  0  0
  181.7640  180.4440  138.8760 C   0  0  0  0  0  3  0  0  0  0  0  0
  180.7560  180.0230  139.7570 C   0  0  0  0  0  0  0  0  0  0  0  0
  182.5290  173.7790  136.2610 O   0  0  0  0  0  0  0  0  0  0  0  0
  182.1210  172.5810  136.8500 C   0  0  0  0  0  1  0  0  0  0  0  0
  1  2  1  0  0  0  0
  2 11  1  6  0  0  0
  4  5  1  0  0  0  0
  4  7  1  0  0  0  0
  5  8  1  0  0  0  0
  6  9  1  1  0  0  0
  7  3  1  1  0  0  0
  7  6  1  0  0  0  0
  8 29  1  1  0  0  0
  8  6  1  0  0  0  0
  8  1  1  0  0  0  0
  9  2  1  0  0  0  0
 11 12  2  6  0  0  0
 11 10  1  0  0  0  0
 11 13  1  0  0  0  0
 13 14  1  1  0  0  0
 13 15  1  0  0  0  0
 15 16  1  0  0  0  0
 15 19  1  1  0  0  0
 16 17  1  0  0  0  0
 18 16  2  0  0  0  0
 19 20  1  0  0  0  0
 21 22  1  6  0  0  0
 21 24  1  0  0  0  0
 21 26  1  0  0  0  0
 23 20  1  6  0  0  0
 23 22  1  0  0  0  0
 23 27  1  0  0  0  0
 24 25  1  1  0  0  0
 24 26  1  0  0  0  0
 27 25  1  0  0  0  0
 28 29  2  0  0  0  0
 29 30  1  0  0  0  0
 33 50  1  6  0  0  0
 33 34  1  0  0  0  0
 35 32  1  0  0  0  0
 35 36  1  0  0  0  0
 36 34  1  0  0  0  0
 36 38  1  1  0  0  0
 37 31  1  6  0  0  0
 37 32  1  0  0  0  0
 37 30  1  0  0  0  0
 37 33  1  0  0  0  0
 38 40  1  0  0  0  0
 40 39  1  0  0  0  0
 40 43  1  0  0  0  0
 41 38  2  0  0  0  0
 43 42  1  1  0  0  0
 44 47  1  0  0  0  0
 46 44  2  0  0  0  0
 46 48  1  0  0  0  0
 47 45  2  0  0  0  0
 48 49  2  0  0  0  0
 49 45  1  0  0  0  0
 49 43  1  0  0  0  0
 50 51  1  0  0  0  0
M  END
>  <MODEL>
5

>  <REMARK>
 VINA RESULT:      -6.5      3.345      8.087
  Name = 
  14 active torsions:
  status: ('A' for Active; 'I' for Inactive)
    1  A    between atoms: C_7  and  C_26
    2  A    between atoms: C_7  and  C_35
    3  A    between atoms: C_9  and  O_19
    4  A    between atoms: C_13  and  P_24
    5  A    between atoms: C_16  and  C_33
    6  A    between atoms: C_18  and  C_35
    7  A    between atoms: O_20  and  C_42
    8  A    between atoms: O_20  and  C_43
    9  A    between atoms: P_24  and  C_46
   10  A    between atoms: C_26  and  C_39
   11  A    between atoms: C_26  and  C_46
   12  A    between atoms: C_31  and  N_36
   13  A    between atoms: C_31  and  C_45
   14  A    between atoms: C_34  and  C_42
                            x       y       z     vdW  Elec       q    Type
                         _______ _______ _______ _____ _____    ______ ____

>  <TORSDO>
F 14

$$$$
=
 OpenBabel11062414553D

 51 56  0  0  1  0  0  0  0  0999 V2000
  184.1860  176.6230  138.2800 C   0  0  0  0  0  2  0  0  0  0  0  0
  183.8700  178.0020  137.7480 C   0  0  1  0  0  3  0  0  0  0  0  0
  180.6590  176.3410  135.8420 O   0  0  0  0  0  1  0  0  0  0  0  0
  181.7420  174.7090  137.2130 C   0  0  0  0  0  2  0  0  0  0  0  0
  183.1880  174.4540  137.5890 C   0  0  0  0  0  2  0  0  0  0  0  0
  183.0860  176.4020  136.1000 C   0  0  2  0  0  3  0  0  0  0  0  0
  181.8140  175.5600  135.9680 C   0  0  2  0  0  3  0  0  0  0  0  0
  183.9680  175.6740  137.1120 C   0  0  1  0  0  0  0  0  0  0  0  0
  182.8230  177.7910  136.6770 C   0  0  0  0  0  2  0  0  0  0  0  0
  184.3560  179.9240  139.6000 O   0  0  0  0  0  1  0  0  0  0  0  0
  183.2260  179.0720  139.0680 P   0  0  1  0  0  0  0  0  0  0  0  0
  182.0110  180.0760  138.4480 O   0  0  0  0  0  0  0  0  0  0  0  0
  182.5320  178.0410  140.4040 C   0  0  2  0  0  3  0  0  0  0  0  0
  181.7380  177.0590  139.8390 F   0  0  0  0  0  0  0  0  0  0  0  0
  181.7200  178.8830  141.3940 C   0  0  1  0  0  3  0  0  0  0  0  0
  180.2510  178.5790  141.3360 C   0  0  0  0  0  0  0  0  0  0  0  0
  179.7060  177.8630  142.2150 O   0  0  0  0  0  1  0  0  0  0  0  0
  179.4830  179.1180  140.3150 O   0  0  0  0  0  0  0  0  0  0  0  0
  182.2430  178.7700  142.8300 C   0  0  0  0  0  2  0  0  0  0  0  0
  183.7640  178.9030  142.9020 C   0  0  0  0  0  2  0  0  0  0  0  0
  186.3010  177.6090  145.4590 C   0  0  2  0  0  3  0  0  0  0  0  0
  185.8980  178.1560  144.1020 C   0  0  0  0  0  2  0  0  0  0  0  0
  184.3440  178.2510  144.1480 C   0  0  1  0  0  3  0  0  0  0  0  0
  185.9810  178.9300  146.1150 C   0  0  1  0  0  3  0  0  0  0  0  0
  184.6940  178.6700  146.5900 O   0  0  0  0  0  0  0  0  0  0  0  0
  187.0350  178.1570  146.5440 O   0  0  0  0  0  0  0  0  0  0  0  0
  183.8610  178.9550  145.4650 C   0  0  0  0  0  2  0  0  0  0  0  0
  185.3020  174.7520  135.3520 O   0  0  0  0  0  0  0  0  0  0  0  0
  185.2860  175.2930  136.4930 C   0  0  0  0  0  0  0  0  0  0  0  0
  186.4870  175.5260  137.1870 O   0  0  0  0  0  0  0  0  0  0  0  0
  187.0750  177.5570  136.0350 C   0  0  0  0  0  1  0  0  0  0  0  0
  188.1850  175.4590  135.6470 O   0  0  0  0  0  0  0  0  0  0  0  0
  188.5930  176.5190  137.8460 C   0  0  2  0  0  3  0  0  0  0  0  0
  189.8490  175.6610  137.7110 C   0  0  0  0  0  2  0  0  0  0  0  0
  189.4170  176.0100  135.2340 C   0  0  0  0  0  2  0  0  0  0  0  0
  190.4750  175.8880  136.3380 C   0  0  2  0  0  3  0  0  0  0  0  0
  187.5980  176.2580  136.6660 C   0  0  2  0  0  0  0  0  0  0  0  0
  191.5410  174.8860  136.0140 C   0  0  0  0  0  0  0  0  0  0  0  0
  193.4210  176.4400  136.6740 C   0  0  0  0  0  1  0  0  0  0  0  0
  192.9430  175.1370  136.2270 N   0  0  0  0  0  0  0  0  0  0  0  0
  191.1730  173.7660  135.5780 O   0  0  0  0  0  0  0  0  0  0  0  0
  194.2210  173.7030  134.6750 C   0  0  0  0  0  1  0  0  0  0  0  0
  193.8800  174.0200  136.1270 C   0  0  1  0  0  3  0  0  0  0  0  0
  197.2370  174.6240  138.7130 N   0  0  0  0  0  0  0  0  0  0  0  0
  194.9110  174.1750  138.4050 C   0  0  0  0  0  3  0  0  0  0  0  0
  197.4300  174.6960  137.3640 C   0  0  0  0  0  3  0  0  0  0  0  0
  196.0070  174.3760  139.2460 C   0  0  0  0  0  3  0  0  0  0  0  0
  196.3550  174.5060  136.4910 C   0  0  0  0  0  3  0  0  0  0  0  0
  195.0800  174.2330  137.0130 C   0  0  0  0  0  0  0  0  0  0  0  0
  188.9500  177.8670  137.9610 O   0  0  0  0  0  0  0  0  0  0  0  0
  189.4720  177.9890  139.2500 C   0  0  0  0  0  1  0  0  0  0  0  0
  2  1  1  0  0  0  0
  2 11  1  1  0  0  0
  4  5  1  0  0  0  0
  6  9  1  1  0  0  0
  6  8  1  0  0  0  0
  7  3  1  1  0  0  0
  7  6  1  0  0  0  0
  7  4  1  0  0  0  0
  8 29  1  6  0  0  0
  8  5  1  0  0  0  0
  8  1  1  0  0  0  0
  9  2  1  0  0  0  0
 11 12  2  6  0  0  0
 11 10  1  0  0  0  0
 11 13  1  0  0  0  0
 13 14  1  6  0  0  0
 13 15  1  0  0  0  0
 15 19  1  1  0  0  0
 16 15  1  0  0  0  0
 16 17  1  0  0  0  0
 18 16  2  0  0  0  0
 19 20  1  0  0  0  0
 21 22  1  6  0  0  0
 21 24  1  0  0  0  0
 21 26  1  0  0  0  0
 22 23  1  0  0  0  0
 23 20  1  6  0  0  0
 23 27  1  0  0  0  0
 24 26  1  1  0  0  0
 24 25  1  0  0  0  0
 27 25  1  0  0  0  0
 28 29  2  0  0  0  0
 29 30  1  0  0  0  0
 32 37  1  0  0  0  0
 33 50  1  6  0  0  0
 34 33  1  0  0  0  0
 35 32  1  0  0  0  0
 35 36  1  0  0  0  0
 36 38  1  6  0  0  0
 36 34  1  0  0  0  0
 37 31  1  6  0  0  0
 37 30  1  0  0  0  0
 37 33  1  0  0  0  0
 38 40  1  0  0  0  0
 40 39  1  0  0  0  0
 41 38  2  0  0  0  0
 43 42  1  6  0  0  0
 43 40  1  0  0  0  0
 43 49  1  0  0  0  0
 44 47  1  0  0  0  0
 45 47  2  0  0  0  0
 46 44  2  0  0  0  0
 48 49  2  0  0  0  0
 48 46  1  0  0  0  0
 49 45  1  0  0  0  0
 50 51  1  0  0  0  0
M  END
>  <MODEL>
6

>  <REMARK>
 VINA RESULT:      -6.5      3.495      6.369
  Name = 
  14 active torsions:
  status: ('A' for Active; 'I' for Inactive)
    1  A    between atoms: C_7  and  C_26
    2  A    between atoms: C_7  and  C_35
    3  A    between atoms: C_9  and  O_19
    4  A    between atoms: C_13  and  P_24
    5  A    between atoms: C_16  and  C_33
    6  A    between atoms: C_18  and  C_35
    7  A    between atoms: O_20  and  C_42
    8  A    between atoms: O_20  and  C_43
    9  A    between atoms: P_24  and  C_46
   10  A    between atoms: C_26  and  C_39
   11  A    between atoms: C_26  and  C_46
   12  A    between atoms: C_31  and  N_36
   13  A    between atoms: C_31  and  C_45
   14  A    between atoms: C_34  and  C_42
                            x       y       z     vdW  Elec       q    Type
                         _______ _______ _______ _____ _____    ______ ____

>  <TORSDO>
F 14

$$$$
=
 OpenBabel11062414553D

 51 56  0  0  1  0  0  0  0  0999 V2000
  188.3210  178.2630  139.7520 C   0  0  0  0  0  2  0  0  0  0  0  0
  188.7520  176.9180  140.2920 C   0  0  1  0  0  3  0  0  0  0  0  0
  190.3800  176.1610  136.6210 O   0  0  0  0  0  1  0  0  0  0  0  0
  189.5410  178.3980  136.7080 C   0  0  0  0  0  2  0  0  0  0  0  0
  188.3510  179.0420  137.3930 C   0  0  0  0  0  2  0  0  0  0  0  0
  188.3650  176.6430  137.9120 C   0  0  2  0  0  3  0  0  0  0  0  0
  189.2080  176.9260  136.6660 C   0  0  2  0  0  3  0  0  0  0  0  0
  187.7980  177.9930  138.3500 C   0  0  1  0  0  0  0  0  0  0  0  0
  189.1920  176.1200  139.0850 C   0  0  0  0  0  2  0  0  0  0  0  0
  190.5550  175.7310  141.9350 O   0  0  0  0  0  1  0  0  0  0  0  0
  190.1240  177.1030  141.4690 P   0  0  1  0  0  0  0  0  0  0  0  0
  191.4280  177.8730  140.7090 O   0  0  0  0  0  0  0  0  0  0  0  0
  189.5770  178.1080  142.8900 C   0  0  2  0  0  3  0  0  0  0  0  0
  190.4490  179.1710  143.0410 F   0  0  0  0  0  0  0  0  0  0  0  0
  189.5210  177.2740  144.1750 C   0  0  1  0  0  3  0  0  0  0  0  0
  190.7230  177.4850  145.0490 C   0  0  0  0  0  0  0  0  0  0  0  0
  190.7570  177.0250  146.2190 O   0  0  0  0  0  1  0  0  0  0  0  0
  191.8180  178.1730  144.5490 O   0  0  0  0  0  0  0  0  0  0  0  0
  188.2270  177.4960  144.9630 C   0  0  0  0  0  2  0  0  0  0  0  0
  186.9820  177.2420  144.1140 C   0  0  0  0  0  2  0  0  0  0  0  0
  183.8630  179.3710  143.4940 C   0  0  2  0  0  3  0  0  0  0  0  0
  184.8300  178.2500  143.1620 C   0  0  0  0  0  2  0  0  0  0  0  0
  185.9710  178.3740  144.2150 C   0  0  1  0  0  3  0  0  0  0  0  0
  183.3850  178.6310  144.7200 C   0  0  1  0  0  3  0  0  0  0  0  0
  184.1600  179.2480  145.7040 O   0  0  0  0  0  0  0  0  0  0  0  0
  182.5210  179.3860  143.9600 O   0  0  0  0  0  0  0  0  0  0  0  0
  185.3870  178.5180  145.6650 C   0  0  0  0  0  2  0  0  0  0  0  0
  185.6540  178.9910  138.7100 O   0  0  0  0  0  0  0  0  0  0  0  0
  186.2940  177.9650  138.3480 C   0  0  0  0  0  0  0  0  0  0  0  0
  185.6090  176.7990  137.9610 O   0  0  0  0  0  0  0  0  0  0  0  0
  184.1450  175.6330  136.4460 C   0  0  0  0  0  1  0  0  0  0  0  0
  184.0370  178.0080  136.8080 O   0  0  0  0  0  0  0  0  0  0  0  0
  183.3140  176.5810  138.6980 C   0  0  2  0  0  3  0  0  0  0  0  0
  182.5490  177.8660  139.0090 C   0  0  0  0  0  2  0  0  0  0  0  0
  182.6690  178.1510  136.4890 C   0  0  0  0  0  2  0  0  0  0  0  0
  181.8220  178.3410  137.7540 C   0  0  2  0  0  3  0  0  0  0  0  0
  184.2670  176.7700  137.4710 C   0  0  2  0  0  0  0  0  0  0  0  0
  181.2820  179.7320  137.8890 C   0  0  0  0  0  0  0  0  0  0  0  0
  179.0490  179.1300  136.8720 C   0  0  0  0  0  1  0  0  0  0  0  0
  179.9390  180.0910  137.5140 N   0  0  0  0  0  0  0  0  0  0  0  0
  182.0370  180.6030  138.3920 O   0  0  0  0  0  0  0  0  0  0  0  0
  179.5240  181.5980  139.4250 C   0  0  0  0  0  1  0  0  0  0  0  0
  179.4210  181.3960  137.9170 C   0  0  1  0  0  3  0  0  0  0  0  0
  181.1660  184.5930  135.6690 N   0  0  0  0  0  0  0  0  0  0  0  0
  180.4770  183.6620  137.7590 C   0  0  0  0  0  3  0  0  0  0  0  0
  180.7370  183.4830  135.0010 C   0  0  0  0  0  3  0  0  0  0  0  0
  181.0420  184.7050  137.0220 C   0  0  0  0  0  3  0  0  0  0  0  0
  180.1600  182.4220  135.7050 C   0  0  0  0  0  3  0  0  0  0  0  0
  180.0350  182.5040  137.1010 C   0  0  0  0  0  0  0  0  0  0  0  0
  182.4140  175.5250  138.5240 O   0  0  0  0  0  0  0  0  0  0  0  0
  181.4910  175.6670  139.5600 C   0  0  0  0  0  1  0  0  0  0  0  0
  1  2  1  0  0  0  0
  2 11  1  1  0  0  0
  4  5  1  0  0  0  0
  5  8  1  0  0  0  0
  6  8  1  0  0  0  0
  6  9  1  1  0  0  0
  7  3  1  1  0  0  0
  7  4  1  0  0  0  0
  7  6  1  0  0  0  0
  8 29  1  6  0  0  0
  8  1  1  0  0  0  0
  9  2  1  0  0  0  0
 11 12  2  6  0  0  0
 11 10  1  0  0  0  0
 11 13  1  0  0  0  0
 13 14  1  1  0  0  0
 13 15  1  0  0  0  0
 15 19  1  1  0  0  0
 15 16  1  0  0  0  0
 16 17  1  0  0  0  0
 18 16  2  0  0  0  0
 20 19  1  0  0  0  0
 21 22  1  6  0  0  0
 21 26  1  0  0  0  0
 21 24  1  0  0  0  0
 22 23  1  0  0  0  0
 23 20  1  1  0  0  0
 23 27  1  0  0  0  0
 24 26  1  1  0  0  0
 24 25  1  0  0  0  0
 27 25  1  0  0  0  0
 29 28  2  0  0  0  0
 30 29  1  0  0  0  0
 32 37  1  0  0  0  0
 33 50  1  6  0  0  0
 33 34  1  0  0  0  0
 35 32  1  0  0  0  0
 35 36  1  0  0  0  0
 36 38  1  1  0  0  0
 36 34  1  0  0  0  0
 37 31  1  6  0  0  0
 37 30  1  0  0  0  0
 37 33  1  0  0  0  0
 38 41  2  0  0  0  0
 39 40  1  0  0  0  0
 40 38  1  0  0  0  0
 40 43  1  0  0  0  0
 43 42  1  1  0  0  0
 44 47  1  0  0  0  0
 46 44  2  0  0  0  0
 46 48  1  0  0  0  0
 47 45  2  0  0  0  0
 48 49  2  0  0  0  0
 49 45  1  0  0  0  0
 49 43  1  0  0  0  0
 50 51  1  0  0  0  0
M  END
>  <MODEL>
7

>  <REMARK>
 VINA RESULT:      -6.3      4.196      9.153
  Name = 
  14 active torsions:
  status: ('A' for Active; 'I' for Inactive)
    1  A    between atoms: C_7  and  C_26
    2  A    between atoms: C_7  and  C_35
    3  A    between atoms: C_9  and  O_19
    4  A    between atoms: C_13  and  P_24
    5  A    between atoms: C_16  and  C_33
    6  A    between atoms: C_18  and  C_35
    7  A    between atoms: O_20  and  C_42
    8  A    between atoms: O_20  and  C_43
    9  A    between atoms: P_24  and  C_46
   10  A    between atoms: C_26  and  C_39
   11  A    between atoms: C_26  and  C_46
   12  A    between atoms: C_31  and  N_36
   13  A    between atoms: C_31  and  C_45
   14  A    between atoms: C_34  and  C_42
                            x       y       z     vdW  Elec       q    Type
                         _______ _______ _______ _____ _____    ______ ____

>  <TORSDO>
F 14

$$$$
=
 OpenBabel11062414553D

 51 56  0  0  1  0  0  0  0  0999 V2000
  187.8610  176.5350  137.3530 C   0  0  0  0  0  2  0  0  0  0  0  0
  188.6010  176.5390  138.6720 C   0  0  1  0  0  3  0  0  0  0  0  0
  192.0610  176.1500  136.5330 O   0  0  0  0  0  1  0  0  0  0  0  0
  190.2020  176.4240  135.0550 C   0  0  0  0  0  2  0  0  0  0  0  0
  188.7550  175.9750  135.1030 C   0  0  0  0  0  2  0  0  0  0  0  0
  189.8980  175.1890  137.1280 C   0  0  2  0  0  3  0  0  0  0  0  0
  190.9150  175.5210  136.0330 C   0  0  2  0  0  3  0  0  0  0  0  0
  188.5230  175.4520  136.5160 C   0  0  1  0  0  0  0  0  0  0  0  0
  190.0120  176.1040  138.3450 C   0  0  0  0  0  2  0  0  0  0  0  0
  189.0830  179.1920  138.3760 O   0  0  0  0  0  0  0  0  0  0  0  0
  188.6000  178.1990  139.4090 P   0  0  1  0  0  0  0  0  0  0  0  0
  187.0280  178.6100  139.8890 O   0  0  0  0  0  1  0  0  0  0  0  0
  189.6980  178.2200  140.8660 C   0  0  2  0  0  3  0  0  0  0  0  0
  190.9760  177.8780  140.4610 F   0  0  0  0  0  0  0  0  0  0  0  0
  189.2040  177.2580  141.9520 C   0  0  1  0  0  3  0  0  0  0  0  0
  190.3270  176.5200  142.6190 C   0  0  0  0  0  0  0  0  0  0  0  0
  190.3680  175.2630  142.6080 O   0  0  0  0  0  0  0  0  0  0  0  0
  191.3460  177.2350  143.2300 O   0  0  0  0  0  1  0  0  0  0  0  0
  188.3140  177.9500  142.9890 C   0  0  0  0  0  2  0  0  0  0  0  0
  188.0060  177.0460  144.1820 C   0  0  0  0  0  2  0  0  0  0  0  0
  187.4720  178.2730  147.7670 C   0  0  2  0  0  3  0  0  0  0  0  0
  187.0120  177.6520  146.4610 C   0  0  0  0  0  2  0  0  0  0  0  0
  188.2450  177.7410  145.5130 C   0  0  1  0  0  3  0  0  0  0  0  0
  188.3240  177.0650  148.0720 C   0  0  1  0  0  3  0  0  0  0  0  0
  189.5680  177.5150  147.6250 O   0  0  0  0  0  0  0  0  0  0  0  0
  187.6710  177.7490  149.0720 O   0  0  0  0  0  0  0  0  0  0  0  0
  189.5430  177.2230  146.2270 C   0  0  0  0  0  2  0  0  0  0  0  0
  188.1840  173.1210  136.0940 O   0  0  0  0  0  0  0  0  0  0  0  0
  187.6880  174.2000  136.5240 C   0  0  0  0  0  0  0  0  0  0  0  0
  186.3620  174.2380  136.9910 O   0  0  0  0  0  0  0  0  0  0  0  0
  185.6570  174.3060  134.6890 C   0  0  0  0  0  1  0  0  0  0  0  0
  184.4290  175.3580  136.4700 O   0  0  0  0  0  0  0  0  0  0  0  0
  184.4290  172.8820  136.4570 C   0  0  2  0  0  3  0  0  0  0  0  0
  183.1400  173.1580  137.2280 C   0  0  0  0  0  2  0  0  0  0  0  0
  183.1640  175.2880  135.8470 C   0  0  0  0  0  2  0  0  0  0  0  0
  182.3020  174.1810  136.4680 C   0  0  2  0  0  3  0  0  0  0  0  0
  185.2040  174.2080  136.1530 C   0  0  2  0  0  0  0  0  0  0  0  0
  181.1640  174.7180  137.2820 C   0  0  0  0  0  0  0  0  0  0  0  0
  182.6820  175.6260  139.0870 C   0  0  0  0  0  1  0  0  0  0  0  0
  181.3550  175.4530  138.5060 N   0  0  0  0  0  0  0  0  0  0  0  0
  180.0000  174.5440  136.8400 O   0  0  0  0  0  0  0  0  0  0  0  0
  179.7490  175.4880  140.3800 C   0  0  0  0  0  1  0  0  0  0  0  0
  180.2140  176.1540  139.0900 C   0  0  1  0  0  3  0  0  0  0  0  0
  180.9600  180.3450  139.5370 N   0  0  0  0  0  0  0  0  0  0  0  0
  180.3780  178.2290  140.4830 C   0  0  0  0  0  3  0  0  0  0  0  0
  181.0630  179.7920  138.2950 C   0  0  0  0  0  3  0  0  0  0  0  0
  180.6190  179.5970  140.6250 C   0  0  0  0  0  3  0  0  0  0  0  0
  180.8240  178.4270  138.1130 C   0  0  0  0  0  3  0  0  0  0  0  0
  180.4860  177.6300  139.2190 C   0  0  0  0  0  0  0  0  0  0  0  0
  184.1420  172.1490  135.3000 O   0  0  0  0  0  0  0  0  0  0  0  0
  184.0650  170.8230  135.7270 C   0  0  0  0  0  1  0  0  0  0  0  0
  1  2  1  0  0  0  0
  2 11  1  6  0  0  0
  4  5  1  0  0  0  0
  4  7  1  0  0  0  0
  5  8  1  0  0  0  0
  6  9  1  1  0  0  0
  7  3  1  1  0  0  0
  7  6  1  0  0  0  0
  8 29  1  6  0  0  0
  8  6  1  0  0  0  0
  8  1  1  0  0  0  0
  9  2  1  0  0  0  0
 11 10  2  6  0  0  0
 11 12  1  0  0  0  0
 11 13  1  0  0  0  0
 13 14  1  6  0  0  0
 13 15  1  0  0  0  0
 15 16  1  0  0  0  0
 15 19  1  1  0  0  0
 16 18  1  0  0  0  0
 17 16  2  0  0  0  0
 19 20  1  0  0  0  0
 21 22  1  6  0  0  0
 21 24  1  0  0  0  0
 21 26  1  0  0  0  0
 23 20  1  6  0  0  0
 23 27  1  0  0  0  0
 23 22  1  0  0  0  0
 24 25  1  1  0  0  0
 24 26  1  0  0  0  0
 27 25  1  0  0  0  0
 28 29  2  0  0  0  0
 29 30  1  0  0  0  0
 33 50  1  6  0  0  0
 33 34  1  0  0  0  0
 35 36  1  0  0  0  0
 35 32  1  0  0  0  0
 36 34  1  0  0  0  0
 36 38  1  1  0  0  0
 37 31  1  6  0  0  0
 37 33  1  0  0  0  0
 37 32  1  0  0  0  0
 37 30  1  0  0  0  0
 38 40  1  0  0  0  0
 40 39  1  0  0  0  0
 40 43  1  0  0  0  0
 41 38  2  0  0  0  0
 43 49  1  0  0  0  0
 43 42  1  1  0  0  0
 44 47  1  0  0  0  0
 45 47  2  0  0  0  0
 46 44  2  0  0  0  0
 48 46  1  0  0  0  0
 48 49  2  0  0  0  0
 49 45  1  0  0  0  0
 50 51  1  0  0  0  0
M  END
>  <MODEL>
8

>  <REMARK>
 VINA RESULT:      -6.3      3.204      8.341
  Name = 
  14 active torsions:
  status: ('A' for Active; 'I' for Inactive)
    1  A    between atoms: C_7  and  C_26
    2  A    between atoms: C_7  and  C_35
    3  A    between atoms: C_9  and  O_19
    4  A    between atoms: C_13  and  P_24
    5  A    between atoms: C_16  and  C_33
    6  A    between atoms: C_18  and  C_35
    7  A    between atoms: O_20  and  C_42
    8  A    between atoms: O_20  and  C_43
    9  A    between atoms: P_24  and  C_46
   10  A    between atoms: C_26  and  C_39
   11  A    between atoms: C_26  and  C_46
   12  A    between atoms: C_31  and  N_36
   13  A    between atoms: C_31  and  C_45
   14  A    between atoms: C_34  and  C_42
                            x       y       z     vdW  Elec       q    Type
                         _______ _______ _______ _____ _____    ______ ____

>  <TORSDO>
F 14

$$$$
=
 OpenBabel11062414553D

 51 56  0  0  1  0  0  0  0  0999 V2000
  187.9770  176.2090  137.2120 C   0  0  0  0  0  2  0  0  0  0  0  0
  188.8360  176.2120  138.4560 C   0  0  1  0  0  3  0  0  0  0  0  0
  192.0160  175.3160  136.0510 O   0  0  0  0  0  1  0  0  0  0  0  0
  190.0620  175.7010  134.7290 C   0  0  0  0  0  2  0  0  0  0  0  0
  188.5870  175.4180  134.9370 C   0  0  0  0  0  2  0  0  0  0  0  0
  189.8320  174.6360  136.9030 C   0  0  2  0  0  3  0  0  0  0  0  0
  190.7690  174.7870  135.7010 C   0  0  2  0  0  3  0  0  0  0  0  0
  188.4390  175.0110  136.3980 C   0  0  1  0  0  0  0  0  0  0  0  0
  190.1570  175.6060  138.0360 C   0  0  0  0  0  2  0  0  0  0  0  0
  189.8110  178.7050  138.0190 O   0  0  0  0  0  0  0  0  0  0  0  0
  189.0780  177.9050  139.0710 P   0  0  1  0  0  0  0  0  0  0  0  0
  187.5740  178.6230  139.3750 O   0  0  0  0  0  1  0  0  0  0  0  0
  190.0460  177.8590  140.6170 C   0  0  2  0  0  3  0  0  0  0  0  0
  191.3510  177.5140  140.3110 F   0  0  0  0  0  0  0  0  0  0  0  0
  189.4500  176.8660  141.6200 C   0  0  1  0  0  3  0  0  0  0  0  0
  190.4060  176.5220  142.7240 C   0  0  0  0  0  0  0  0  0  0  0  0
  190.6350  175.3220  143.0270 O   0  0  0  0  0  0  0  0  0  0  0  0
  191.0650  177.5390  143.3980 O   0  0  0  0  0  1  0  0  0  0  0  0
  188.1090  177.3400  142.1890 C   0  0  0  0  0  2  0  0  0  0  0  0
  187.8030  176.7120  143.5490 C   0  0  0  0  0  2  0  0  0  0  0  0
  185.7540  179.0040  145.8270 C   0  0  2  0  0  3  0  0  0  0  0  0
  185.9280  178.0610  144.6520 C   0  0  0  0  0  2  0  0  0  0  0  0
  187.4540  177.7530  144.6020 C   0  0  1  0  0  3  0  0  0  0  0  0
  185.9860  177.8750  146.8020 C   0  0  1  0  0  3  0  0  0  0  0  0
  187.3410  178.0590  147.0830 O   0  0  0  0  0  0  0  0  0  0  0  0
  185.0890  178.8820  147.0760 O   0  0  0  0  0  0  0  0  0  0  0  0
  187.9970  177.3630  146.0220 C   0  0  0  0  0  2  0  0  0  0  0  0
  187.8320  172.7040  136.2000 O   0  0  0  0  0  0  0  0  0  0  0  0
  187.4840  173.8610  136.5690 C   0  0  0  0  0  0  0  0  0  0  0  0
  186.2080  174.0780  137.1200 O   0  0  0  0  0  0  0  0  0  0  0  0
  185.0670  174.1610  135.0010 C   0  0  0  0  0  1  0  0  0  0  0  0
  185.4160  176.1000  136.3810 O   0  0  0  0  0  0  0  0  0  0  0  0
  183.8150  174.4190  137.2440 C   0  0  2  0  0  3  0  0  0  0  0  0
  183.3180  175.6730  137.9600 C   0  0  0  0  0  2  0  0  0  0  0  0
  184.2940  176.8230  135.9190 C   0  0  0  0  0  2  0  0  0  0  0  0
  183.1610  176.8070  136.9520 C   0  0  2  0  0  3  0  0  0  0  0  0
  185.1240  174.7090  136.4350 C   0  0  2  0  0  0  0  0  0  0  0  0
  182.9520  178.1390  137.6060 C   0  0  0  0  0  0  0  0  0  0  0  0
  180.4900  178.2050  137.0380 C   0  0  0  0  0  1  0  0  0  0  0  0
  181.6630  178.7770  137.6900 N   0  0  0  0  0  0  0  0  0  0  0  0
  183.9500  178.6900  138.1360 O   0  0  0  0  0  0  0  0  0  0  0  0
  180.8420  181.1000  137.8350 C   0  0  0  0  0  1  0  0  0  0  0  0
  181.5090  179.9380  138.5620 C   0  0  1  0  0  3  0  0  0  0  0  0
  179.7080  178.8250  142.2820 N   0  0  0  0  0  0  0  0  0  0  0  0
  181.6210  178.9350  140.8550 C   0  0  0  0  0  3  0  0  0  0  0  0
  178.9310  179.4240  141.3340 C   0  0  0  0  0  3  0  0  0  0  0  0
  181.0290  178.5690  142.0650 C   0  0  0  0  0  3  0  0  0  0  0  0
  179.4880  179.7980  140.1070 C   0  0  0  0  0  3  0  0  0  0  0  0
  180.8500  179.5610  139.8630 C   0  0  0  0  0  0  0  0  0  0  0  0
  182.7940  173.8940  136.4450 O   0  0  0  0  0  0  0  0  0  0  0  0
  182.2900  172.8150  137.1720 C   0  0  0  0  0  1  0  0  0  0  0  0
  1  2  1  0  0  0  0
  2 11  1  6  0  0  0
  4  5  1  0  0  0  0
  4  7  1  0  0  0  0
  5  8  1  0  0  0  0
  6  9  1  1  0  0  0
  7  3  1  1  0  0  0
  7  6  1  0  0  0  0
  8 29  1  1  0  0  0
  8  6  1  0  0  0  0
  8  1  1  0  0  0  0
  9  2  1  0  0  0  0
 11 10  2  6  0  0  0
 11 12  1  0  0  0  0
 11 13  1  0  0  0  0
 13 14  1  6  0  0  0
 13 15  1  0  0  0  0
 15 19  1  1  0  0  0
 15 16  1  0  0  0  0
 16 17  2  0  0  0  0
 16 18  1  0  0  0  0
 19 20  1  0  0  0  0
 21 22  1  6  0  0  0
 21 24  1  0  0  0  0
 21 26  1  0  0  0  0
 23 20  1  6  0  0  0
 23 22  1  0  0  0  0
 23 27  1  0  0  0  0
 24 26  1  1  0  0  0
 24 25  1  0  0  0  0
 27 25  1  0  0  0  0
 28 29  2  0  0  0  0
 29 30  1  0  0  0  0
 32 37  1  0  0  0  0
 33 50  1  6  0  0  0
 33 34  1  0  0  0  0
 35 32  1  0  0  0  0
 35 36  1  0  0  0  0
 36 38  1  1  0  0  0
 36 34  1  0  0  0  0
 37 31  1  6  0  0  0
 37 30  1  0  0  0  0
 37 33  1  0  0  0  0
 38 40  1  0  0  0  0
 38 41  2  0  0  0  0
 39 40  1  0  0  0  0
 40 43  1  0  0  0  0
 43 42  1  6  0  0  0
 43 49  1  0  0  0  0
 45 47  2  0  0  0  0
 46 44  2  0  0  0  0
 47 44  1  0  0  0  0
 48 46  1  0  0  0  0
 49 48  2  0  0  0  0
 49 45  1  0  0  0  0
 50 51  1  0  0  0  0
M  END
>  <MODEL>
9

>  <REMARK>
 VINA RESULT:      -6.3      3.265      7.838
  Name = 
  14 active torsions:
  status: ('A' for Active; 'I' for Inactive)
    1  A    between atoms: C_7  and  C_26
    2  A    between atoms: C_7  and  C_35
    3  A    between atoms: C_9  and  O_19
    4  A    between atoms: C_13  and  P_24
    5  A    between atoms: C_16  and  C_33
    6  A    between atoms: C_18  and  C_35
    7  A    between atoms: O_20  and  C_42
    8  A    between atoms: O_20  and  C_43
    9  A    between atoms: P_24  and  C_46
   10  A    between atoms: C_26  and  C_39
   11  A    between atoms: C_26  and  C_46
   12  A    between atoms: C_31  and  N_36
   13  A    between atoms: C_31  and  C_45
   14  A    between atoms: C_34  and  C_42
                            x       y       z     vdW  Elec       q    Type
                         _______ _______ _______ _____ _____    ______ ____

>  <TORSDO>
F 14

$$$$
