=
 OpenBabel11062414313D

 31 35  0  0  1  0  0  0  0  0999 V2000
  188.7160  177.7320  141.4130 C   0  0  2  0  0  3  0  0  0  0  0  0
  192.2420  175.8850  147.0200 C   0  0  0  0  0  2  0  0  0  0  0  0
  191.0310  177.6280  148.0670 F   0  0  0  0  0  0  0  0  0  0  0  0
  191.3340  179.0140  143.9760 C   0  0  0  0  0  2  0  0  0  0  0  0
  190.0420  179.0240  143.1640 C   0  0  0  0  0  2  0  0  0  0  0  0
  190.9150  176.6560  147.0910 C   0  0  0  0  0  0  0  0  0  0  0  0
  190.5100  177.3310  145.7680 C   0  0  1  0  0  0  0  0  0  0  0  0
  191.6270  177.7400  144.8000 C   0  0  1  0  0  3  0  0  0  0  0  0
  189.5970  176.6120  143.4780 C   0  0  0  0  0  2  0  0  0  0  0  0
  190.7360  176.5140  144.4950 C   0  0  2  0  0  0  0  0  0  0  0  0
  192.4810  175.0940  145.7240 C   0  0  0  0  0  2  0  0  0  0  0  0
  189.3760  178.1300  145.7850 F   0  0  0  0  0  0  0  0  0  0  0  0
  189.8530  177.6980  142.4450 C   0  0  1  0  0  3  0  0  0  0  0  0
  191.3000  175.1110  144.7520 C   0  0  0  0  0  2  0  0  0  0  0  0
  189.9130  175.7780  147.4650 F   0  0  0  0  0  0  0  0  0  0  0  0
  190.1970  176.9000  139.5470 C   0  0  0  0  0  0  0  0  0  0  0  0
  190.6050  176.9380  138.2110 C   0  0  0  0  0  3  0  0  0  0  0  0
  189.1760  177.7620  139.9800 C   0  0  0  0  0  0  0  0  0  0  0  0
  190.8220  175.9900  140.4460 N   0  0  0  0  0  1  0  0  0  0  0  0
  190.0170  177.8020  137.3400 N   0  0  0  0  0  0  0  0  0  0  0  0
  188.5880  178.6400  139.0590 C   0  0  0  0  0  3  0  0  0  0  0  0
  189.0260  178.6450  137.7340 C   0  0  0  0  0  3  0  0  0  0  0  0
  187.5350  178.6620  141.7250 C   0  0  0  0  0  2  0  0  0  0  0  0
  186.2390  177.9100  141.9980 C   0  0  0  0  0  2  0  0  0  0  0  0
  185.5880  179.5030  147.3500 O   0  0  0  0  0  1  0  0  0  0  0  0
  186.2190  177.6050  145.8440 C   0  0  0  0  0  2  0  0  0  0  0  0
  184.6060  178.8060  143.7990 C   0  0  0  0  0  2  0  0  0  0  0  0
  184.7490  179.4610  145.1480 C   0  0  0  0  0  3  0  0  0  0  0  0
  185.8500  178.0370  143.4330 C   0  0  0  0  0  0  0  0  0  0  0  0
  185.4930  178.8980  146.1050 C   0  0  0  0  0  0  0  0  0  0  0  0
  186.6130  177.4880  144.3940 C   0  0  0  0  0  3  0  0  0  0  0  0
  1 23  1  1  0  0  0
  2  6  1  0  0  0  0
  5  4  1  0  0  0  0
  6 15  1  0  0  0  0
  6  3  1  0  0  0  0
  7 12  1  1  0  0  0
  7  6  1  0  0  0  0
  8  4  1  6  0  0  0
  8  7  1  0  0  0  0
 10  9  1  6  0  0  0
 10 14  1  0  0  0  0
 10  8  1  0  0  0  0
 10  7  1  0  0  0  0
 11  2  1  0  0  0  0
 13  1  1  6  0  0  0
 13  5  1  0  0  0  0
 13  9  1  0  0  0  0
 14 11  1  0  0  0  0
 16 18  1  0  0  0  0
 16 19  1  0  0  0  0
 17 16  2  0  0  0  0
 18  1  1  0  0  0  0
 20 22  2  0  0  0  0
 20 17  1  0  0  0  0
 21 18  2  0  0  0  0
 22 21  1  0  0  0  0
 23 24  1  0  0  0  0
 24 29  1  0  0  0  0
 26 30  1  0  0  0  0
 27 28  1  0  0  0  0
 28 30  2  0  0  0  0
 29 27  1  0  0  0  0
 29 31  2  0  0  0  0
 30 25  1  0  0  0  0
 31 26  1  0  0  0  0
M  END
>  <MODEL>
1

>  <REMARK>
 VINA RESULT:      -9.0      0.000      0.000
  Name = 
  5 active torsions:
  status: ('A' for Active; 'I' for Inactive)
    1  A    between atoms: C_4  and  C_29
    2  A    between atoms: C_12  and  C_17
    3  A    between atoms: C_12  and  C_21
    4  A    between atoms: C_21  and  C_29
    5  A    between atoms: C_27  and  C_29
                            x       y       z     vdW  Elec       q    Type
                         _______ _______ _______ _____ _____    ______ ____

>  <TORSDO>
F 5

$$$$
=
 OpenBabel11062414313D

 31 35  0  0  1  0  0  0  0  0999 V2000
  188.5460  177.5090  141.4660 C   0  0  2  0  0  3  0  0  0  0  0  0
  192.0630  176.1700  147.2210 C   0  0  0  0  0  2  0  0  0  0  0  0
  190.6840  177.8420  148.1710 F   0  0  0  0  0  0  0  0  0  0  0  0
  190.9790  179.0990  144.0380 C   0  0  0  0  0  2  0  0  0  0  0  0
  189.7130  178.9710  143.1950 C   0  0  0  0  0  2  0  0  0  0  0  0
  190.6750  176.8300  147.2300 C   0  0  0  0  0  0  0  0  0  0  0  0
  190.2510  177.4190  145.8730 C   0  0  1  0  0  0  0  0  0  0  0  0
  191.3550  177.8850  144.9170 C   0  0  1  0  0  3  0  0  0  0  0  0
  189.4620  176.5430  143.5910 C   0  0  0  0  0  2  0  0  0  0  0  0
  190.5780  176.5780  144.6380 C   0  0  2  0  0  0  0  0  0  0  0  0
  192.4020  175.3560  145.9620 C   0  0  0  0  0  2  0  0  0  0  0  0
  189.0540  178.1200  145.8330 F   0  0  0  0  0  0  0  0  0  0  0  0
  189.6540  177.6090  142.5250 C   0  0  1  0  0  3  0  0  0  0  0  0
  191.2490  175.2380  144.9620 C   0  0  0  0  0  2  0  0  0  0  0  0
  189.7400  175.8850  147.6150 F   0  0  0  0  0  0  0  0  0  0  0  0
  190.1310  176.9210  139.5920 C   0  0  0  0  0  0  0  0  0  0  0  0
  190.5560  177.0680  138.2690 C   0  0  0  0  0  3  0  0  0  0  0  0
  189.0260  177.6580  140.0460 C   0  0  0  0  0  0  0  0  0  0  0  0
  190.8250  176.0270  140.4580 N   0  0  0  0  0  1  0  0  0  0  0  0
  189.9040  177.9160  137.4300 N   0  0  0  0  0  0  0  0  0  0  0  0
  188.3720  178.5240  139.1580 C   0  0  0  0  0  3  0  0  0  0  0  0
  188.8300  178.6400  137.8450 C   0  0  0  0  0  3  0  0  0  0  0  0
  187.2330  178.2410  141.7770 C   0  0  0  0  0  2  0  0  0  0  0  0
  186.5870  177.7810  143.0770 C   0  0  0  0  0  2  0  0  0  0  0  0
  181.1310  178.7060  144.0710 O   0  0  0  0  0  1  0  0  0  0  0  0
  182.9470  178.8380  142.3520 C   0  0  0  0  0  2  0  0  0  0  0  0
  184.8390  179.0640  144.4960 C   0  0  0  0  0  2  0  0  0  0  0  0
  183.3680  178.9130  144.7830 C   0  0  0  0  0  3  0  0  0  0  0  0
  185.2190  178.3620  143.2170 C   0  0  0  0  0  0  0  0  0  0  0  0
  182.4840  178.8150  143.7850 C   0  0  0  0  0  0  0  0  0  0  0  0
  184.3260  178.2440  142.2190 C   0  0  0  0  0  3  0  0  0  0  0  0
  1 23  1  1  0  0  0
  2  6  1  0  0  0  0
  5  4  1  0  0  0  0
  6 15  1  0  0  0  0
  6  3  1  0  0  0  0
  7 12  1  6  0  0  0
  7  6  1  0  0  0  0
  8  4  1  6  0  0  0
  8  7  1  0  0  0  0
 10  9  1  6  0  0  0
 10  8  1  0  0  0  0
 10 14  1  0  0  0  0
 10  7  1  0  0  0  0
 11  2  1  0  0  0  0
 13  1  1  6  0  0  0
 13  5  1  0  0  0  0
 13  9  1  0  0  0  0
 14 11  1  0  0  0  0
 16 18  1  0  0  0  0
 16 19  1  0  0  0  0
 17 16  2  0  0  0  0
 18  1  1  0  0  0  0
 20 22  2  0  0  0  0
 20 17  1  0  0  0  0
 21 18  2  0  0  0  0
 22 21  1  0  0  0  0
 23 24  1  0  0  0  0
 24 29  1  0  0  0  0
 26 30  1  0  0  0  0
 27 28  1  0  0  0  0
 29 27  1  0  0  0  0
 30 25  1  0  0  0  0
 30 28  2  0  0  0  0
 31 26  1  0  0  0  0
 31 29  2  0  0  0  0
M  END
>  <MODEL>
2

>  <REMARK>
 VINA RESULT:      -8.4      1.266      1.679
  Name = 
  5 active torsions:
  status: ('A' for Active; 'I' for Inactive)
    1  A    between atoms: C_4  and  C_29
    2  A    between atoms: C_12  and  C_17
    3  A    between atoms: C_12  and  C_21
    4  A    between atoms: C_21  and  C_29
    5  A    between atoms: C_27  and  C_29
                            x       y       z     vdW  Elec       q    Type
                         _______ _______ _______ _____ _____    ______ ____

>  <TORSDO>
F 5

$$$$
=
 OpenBabel11062414313D

 31 35  0  0  1  0  0  0  0  0999 V2000
  189.2750  177.9720  141.4710 C   0  0  2  0  0  3  0  0  0  0  0  0
  190.8170  174.7960  135.5710 C   0  0  0  0  0  2  0  0  0  0  0  0
  190.3730  176.9060  134.5940 F   0  0  0  0  0  0  0  0  0  0  0  0
  187.7720  176.9030  138.0560 C   0  0  0  0  0  2  0  0  0  0  0  0
  188.1480  177.8540  139.1900 C   0  0  0  0  0  2  0  0  0  0  0  0
  190.8900  176.3230  135.7360 C   0  0  0  0  0  0  0  0  0  0  0  0
  190.1200  176.8590  136.9560 C   0  0  1  0  0  0  0  0  0  0  0  0
  188.9150  176.0530  137.4550 C   0  0  1  0  0  3  0  0  0  0  0  0
  190.4040  176.8940  139.5090 C   0  0  0  0  0  2  0  0  0  0  0  0
  190.2440  176.0450  138.2460 C   0  0  2  0  0  0  0  0  0  0  0  0
  190.9050  173.9840  136.8720 C   0  0  0  0  0  2  0  0  0  0  0  0
  190.0560  178.2360  137.1100 F   0  0  0  0  0  0  0  0  0  0  0  0
  189.0690  177.1640  140.1820 C   0  0  1  0  0  3  0  0  0  0  0  0
  191.1670  174.8270  138.1220 C   0  0  0  0  0  2  0  0  0  0  0  0
  192.2180  176.6920  135.8530 F   0  0  0  0  0  0  0  0  0  0  0  0
  190.8340  178.0330  143.4540 C   0  0  0  0  0  0  0  0  0  0  0  0
  191.5990  177.3730  144.4190 C   0  0  0  0  0  3  0  0  0  0  0  0
  190.1120  177.2800  142.5140 C   0  0  0  0  0  0  0  0  0  0  0  0
  190.7990  179.4570  143.4400 N   0  0  0  0  0  1  0  0  0  0  0  0
  191.6430  176.0140  144.4460 N   0  0  0  0  0  0  0  0  0  0  0  0
  190.1750  175.8810  142.5680 C   0  0  0  0  0  3  0  0  0  0  0  0
  190.9520  175.2630  143.5480 C   0  0  0  0  0  3  0  0  0  0  0  0
  188.0440  178.7050  142.0240 C   0  0  0  0  0  2  0  0  0  0  0  0
  186.8750  177.7730  142.3170 C   0  0  0  0  0  2  0  0  0  0  0  0
  185.6830  179.5950  147.5000 O   0  0  0  0  0  1  0  0  0  0  0  0
  186.8500  177.8190  146.1750 C   0  0  0  0  0  2  0  0  0  0  0  0
  185.0160  178.3380  144.0310 C   0  0  0  0  0  2  0  0  0  0  0  0
  184.9410  179.1250  145.3140 C   0  0  0  0  0  3  0  0  0  0  0  0
  186.4330  177.9150  143.7350 C   0  0  0  0  0  0  0  0  0  0  0  0
  185.7890  178.8790  146.3160 C   0  0  0  0  0  0  0  0  0  0  0  0
  187.2950  177.6870  144.7410 C   0  0  0  0  0  3  0  0  0  0  0  0
  1 23  1  1  0  0  0
  1 18  1  0  0  0  0
  2  6  1  0  0  0  0
  2 11  1  0  0  0  0
  3  6  1  0  0  0  0
  4  5  1  0  0  0  0
  5 13  1  0  0  0  0
  6 15  1  0  0  0  0
  6  7  1  0  0  0  0
  7 12  1  1  0  0  0
  7  8  1  0  0  0  0
  7 10  1  0  0  0  0
  8  4  1  1  0  0  0
  8 10  1  0  0  0  0
  9 13  1  0  0  0  0
 10 14  1  6  0  0  0
 10  9  1  0  0  0  0
 11 14  1  0  0  0  0
 13  1  1  1  0  0  0
 16 17  1  0  0  0  0
 17 20  2  0  0  0  0
 18 21  1  0  0  0  0
 18 16  2  0  0  0  0
 19 16  1  0  0  0  0
 21 22  2  0  0  0  0
 22 20  1  0  0  0  0
 23 24  1  0  0  0  0
 24 29  1  0  0  0  0
 26 30  1  0  0  0  0
 27 28  1  0  0  0  0
 28 30  2  0  0  0  0
 29 27  1  0  0  0  0
 29 31  2  0  0  0  0
 30 25  1  0  0  0  0
 31 26  1  0  0  0  0
M  END
>  <MODEL>
3

>  <REMARK>
 VINA RESULT:      -8.1      3.650      6.432
  Name = 
  5 active torsions:
  status: ('A' for Active; 'I' for Inactive)
    1  A    between atoms: C_4  and  C_29
    2  A    between atoms: C_12  and  C_17
    3  A    between atoms: C_12  and  C_21
    4  A    between atoms: C_21  and  C_29
    5  A    between atoms: C_27  and  C_29
                            x       y       z     vdW  Elec       q    Type
                         _______ _______ _______ _____ _____    ______ ____

>  <TORSDO>
F 5

$$$$
=
 OpenBabel11062414313D

 31 35  0  0  1  0  0  0  0  0999 V2000
  189.2600  177.4500  141.2200 C   0  0  2  0  0  3  0  0  0  0  0  0
  191.6710  176.4370  147.5790 C   0  0  0  0  0  2  0  0  0  0  0  0
  190.0320  178.0270  148.1990 F   0  0  0  0  0  0  0  0  0  0  0  0
  191.0440  179.2380  144.1660 C   0  0  0  0  0  2  0  0  0  0  0  0
  189.9750  179.0120  143.1000 C   0  0  0  0  0  2  0  0  0  0  0  0
  190.2690  177.0020  147.3030 C   0  0  0  0  0  0  0  0  0  0  0  0
  190.0800  177.5410  145.8740 C   0  0  1  0  0  0  0  0  0  0  0  0
  191.3170  178.0650  145.1350 C   0  0  1  0  0  3  0  0  0  0  0  0
  189.8040  176.5800  143.5080 C   0  0  0  0  0  2  0  0  0  0  0  0
  190.6920  176.7050  144.7490 C   0  0  2  0  0  0  0  0  0  0  0  0
  192.2970  175.6280  146.4320 C   0  0  0  0  0  2  0  0  0  0  0  0
  188.8720  178.1600  145.5850 F   0  0  0  0  0  0  0  0  0  0  0  0
  190.1320  177.6390  142.4690 C   0  0  1  0  0  3  0  0  0  0  0  0
  191.3700  175.4180  145.2340 C   0  0  0  0  0  2  0  0  0  0  0  0
  189.3380  176.0030  147.5270 F   0  0  0  0  0  0  0  0  0  0  0  0
  189.3550  177.0460  138.7310 C   0  0  0  0  0  0  0  0  0  0  0  0
  190.0890  176.8180  137.5640 C   0  0  0  0  0  3  0  0  0  0  0  0
  190.0320  177.1960  139.9520 C   0  0  0  0  0  0  0  0  0  0  0  0
  187.9340  177.1210  138.6630 N   0  0  0  0  0  1  0  0  0  0  0  0
  191.4460  176.7450  137.6120 N   0  0  0  0  0  0  0  0  0  0  0  0
  191.4300  177.1170  139.9710 C   0  0  0  0  0  3  0  0  0  0  0  0
  192.1240  176.8880  138.7820 C   0  0  0  0  0  3  0  0  0  0  0  0
  188.0710  178.4090  141.0630 C   0  0  0  0  0  2  0  0  0  0  0  0
  187.0100  178.2260  142.1400 C   0  0  0  0  0  2  0  0  0  0  0  0
  181.7670  178.6220  140.1480 O   0  0  0  0  0  1  0  0  0  0  0  0
  184.1340  179.3780  139.8390 C   0  0  0  0  0  2  0  0  0  0  0  0
  184.5580  178.9040  142.6360 C   0  0  0  0  0  2  0  0  0  0  0  0
  183.2190  178.6280  142.0040 C   0  0  0  0  0  3  0  0  0  0  0  0
  185.6790  178.6910  141.6500 C   0  0  0  0  0  0  0  0  0  0  0  0
  183.0170  178.8550  140.7030 C   0  0  0  0  0  0  0  0  0  0  0  0
  185.4740  178.8990  140.3370 C   0  0  0  0  0  3  0  0  0  0  0  0
  1 23  1  6  0  0  0
  5  4  1  0  0  0  0
  6 15  1  0  0  0  0
  6  2  1  0  0  0  0
  6  3  1  0  0  0  0
  7 12  1  6  0  0  0
  7  6  1  0  0  0  0
  8  4  1  6  0  0  0
  8  7  1  0  0  0  0
 10  9  1  6  0  0  0
 10  8  1  0  0  0  0
 10 14  1  0  0  0  0
 10  7  1  0  0  0  0
 11  2  1  0  0  0  0
 13  1  1  6  0  0  0
 13  5  1  0  0  0  0
 13  9  1  0  0  0  0
 14 11  1  0  0  0  0
 16 18  1  0  0  0  0
 17 20  1  0  0  0  0
 17 16  2  0  0  0  0
 18 21  2  0  0  0  0
 18  1  1  0  0  0  0
 19 16  1  0  0  0  0
 20 22  2  0  0  0  0
 22 21  1  0  0  0  0
 23 24  1  0  0  0  0
 25 30  1  0  0  0  0
 26 31  1  0  0  0  0
 26 30  1  0  0  0  0
 28 27  1  0  0  0  0
 29 24  1  0  0  0  0
 29 27  1  0  0  0  0
 30 28  2  0  0  0  0
 31 29  2  0  0  0  0
M  END
>  <MODEL>
4

>  <REMARK>
 VINA RESULT:      -8.0      2.122      2.756
  Name = 
  5 active torsions:
  status: ('A' for Active; 'I' for Inactive)
    1  A    between atoms: C_4  and  C_29
    2  A    between atoms: C_12  and  C_17
    3  A    between atoms: C_12  and  C_21
    4  A    between atoms: C_21  and  C_29
    5  A    between atoms: C_27  and  C_29
                            x       y       z     vdW  Elec       q    Type
                         _______ _______ _______ _____ _____    ______ ____

>  <TORSDO>
F 5

$$$$
=
 OpenBabel11062414313D

 31 35  0  0  1  0  0  0  0  0999 V2000
  186.3080  178.3690  142.2070 C   0  0  2  0  0  3  0  0  0  0  0  0
  179.8900  178.2590  139.7420 C   0  0  0  0  0  2  0  0  0  0  0  0
  180.7870  176.7760  138.1310 F   0  0  0  0  0  0  0  0  0  0  0  0
  184.1800  179.2880  139.0930 C   0  0  0  0  0  2  0  0  0  0  0  0
  185.3140  178.6290  139.8760 C   0  0  0  0  0  2  0  0  0  0  0  0
  180.9080  177.1430  139.4570 C   0  0  0  0  0  0  0  0  0  0  0  0
  182.3700  177.5430  139.7280 C   0  0  1  0  0  0  0  0  0  0  0  0
  182.7430  179.0250  139.5990 C   0  0  1  0  0  3  0  0  0  0  0  0
  183.8740  177.9510  141.7690 C   0  0  0  0  0  2  0  0  0  0  0  0
  182.6230  178.3660  140.9920 C   0  0  2  0  0  0  0  0  0  0  0  0
  180.1680  179.1070  140.9940 C   0  0  0  0  0  2  0  0  0  0  0  0
  183.3510  176.6210  139.3960 F   0  0  0  0  0  0  0  0  0  0  0  0
  185.0870  178.7780  141.3710 C   0  0  1  0  0  3  0  0  0  0  0  0
  181.3610  178.6280  141.8230 C   0  0  0  0  0  2  0  0  0  0  0  0
  180.5950  176.0490  140.2440 F   0  0  0  0  0  0  0  0  0  0  0  0
  186.6480  177.3850  144.5050 C   0  0  0  0  0  0  0  0  0  0  0  0
  186.4290  177.4160  145.8850 C   0  0  0  0  0  3  0  0  0  0  0  0
  186.0780  178.3800  143.6950 C   0  0  0  0  0  0  0  0  0  0  0  0
  187.4440  176.3460  143.9440 N   0  0  0  0  0  1  0  0  0  0  0  0
  185.6720  178.4030  146.4360 N   0  0  0  0  0  0  0  0  0  0  0  0
  185.3040  179.3850  144.2910 C   0  0  0  0  0  3  0  0  0  0  0  0
  185.1110  179.3780  145.6730 C   0  0  0  0  0  3  0  0  0  0  0  0
  187.6620  178.9430  141.7660 C   0  0  0  0  0  2  0  0  0  0  0  0
  188.6330  177.8750  141.2770 C   0  0  0  0  0  2  0  0  0  0  0  0
  191.8030  176.6260  145.7480 O   0  0  0  0  0  1  0  0  0  0  0  0
  191.1280  178.4440  144.1640 C   0  0  0  0  0  2  0  0  0  0  0  0
  190.5550  176.4160  142.2190 C   0  0  0  0  0  2  0  0  0  0  0  0
  191.0480  176.0450  143.5930 C   0  0  0  0  0  3  0  0  0  0  0  0
  189.7420  177.6850  142.2570 C   0  0  0  0  0  0  0  0  0  0  0  0
  191.3230  176.9890  144.4980 C   0  0  0  0  0  0  0  0  0  0  0  0
  190.0020  178.6280  143.1790 C   0  0  0  0  0  3  0  0  0  0  0  0
  1 23  1  1  0  0  0
  1 18  1  0  0  0  0
  2 11  1  0  0  0  0
  3  6  1  0  0  0  0
  4  5  1  0  0  0  0
  5 13  1  0  0  0  0
  6  7  1  0  0  0  0
  6  2  1  0  0  0  0
  6 15  1  0  0  0  0
  7 12  1  6  0  0  0
  7 10  1  0  0  0  0
  8  4  1  6  0  0  0
  8  7  1  0  0  0  0
  8 10  1  0  0  0  0
 10  9  1  1  0  0  0
 10 14  1  0  0  0  0
 11 14  1  0  0  0  0
 13  9  1  0  0  0  0
 13  1  1  1  0  0  0
 16 17  1  0  0  0  0
 17 20  2  0  0  0  0
 18 21  1  0  0  0  0
 18 16  2  0  0  0  0
 19 16  1  0  0  0  0
 21 22  2  0  0  0  0
 22 20  1  0  0  0  0
 24 23  1  0  0  0  0
 24 29  1  0  0  0  0
 26 30  1  0  0  0  0
 27 29  1  0  0  0  0
 27 28  1  0  0  0  0
 28 30  2  0  0  0  0
 29 31  2  0  0  0  0
 30 25  1  0  0  0  0
 31 26  1  0  0  0  0
M  END
>  <MODEL>
5

>  <REMARK>
 VINA RESULT:      -7.9      4.649      8.434
  Name = 
  5 active torsions:
  status: ('A' for Active; 'I' for Inactive)
    1  A    between atoms: C_4  and  C_29
    2  A    between atoms: C_12  and  C_17
    3  A    between atoms: C_12  and  C_21
    4  A    between atoms: C_21  and  C_29
    5  A    between atoms: C_27  and  C_29
                            x       y       z     vdW  Elec       q    Type
                         _______ _______ _______ _____ _____    ______ ____

>  <TORSDO>
F 5

$$$$
=
 OpenBabel11062414313D

 31 35  0  0  1  0  0  0  0  0999 V2000
  189.6690  177.5950  146.5180 C   0  0  2  0  0  3  0  0  0  0  0  0
  189.7320  177.9540  139.6520 C   0  0  0  0  0  2  0  0  0  0  0  0
  192.0260  177.4200  139.8810 F   0  0  0  0  0  0  0  0  0  0  0  0
  191.1890  179.5720  143.5440 C   0  0  0  0  0  2  0  0  0  0  0  0
  191.1880  178.7500  144.8300 C   0  0  0  0  0  2  0  0  0  0  0  0
  190.7910  177.1800  140.4520 C   0  0  0  0  0  0  0  0  0  0  0  0
  190.8530  177.5600  141.9430 C   0  0  1  0  0  0  0  0  0  0  0  0
  190.4240  178.9770  142.3400 C   0  0  1  0  0  3  0  0  0  0  0  0
  189.4440  177.1780  144.0550 C   0  0  0  0  0  2  0  0  0  0  0  0
  189.5100  177.7680  142.6450 C   0  0  2  0  0  0  0  0  0  0  0  0
  188.3970  178.1920  140.3740 C   0  0  0  0  0  2  0  0  0  0  0  0
  191.8550  176.9750  142.7040 F   0  0  0  0  0  0  0  0  0  0  0  0
  189.7970  178.2070  145.1160 C   0  0  1  0  0  3  0  0  0  0  0  0
  188.2960  177.5160  141.7430 C   0  0  0  0  0  2  0  0  0  0  0  0
  190.5190  175.8270  140.3520 F   0  0  0  0  0  0  0  0  0  0  0  0
  191.4830  177.1130  148.2040 C   0  0  0  0  0  0  0  0  0  0  0  0
  192.5980  176.3770  148.6120 C   0  0  0  0  0  3  0  0  0  0  0  0
  190.8760  176.8180  146.9720 C   0  0  0  0  0  0  0  0  0  0  0  0
  190.9820  178.1500  149.0420 N   0  0  0  0  0  1  0  0  0  0  0  0
  193.0890  175.3830  147.8230 N   0  0  0  0  0  0  0  0  0  0  0  0
  191.4030  175.7880  146.1820 C   0  0  0  0  0  3  0  0  0  0  0  0
  192.5180  175.0780  146.6270 C   0  0  0  0  0  3  0  0  0  0  0  0
  188.3230  176.9390  146.8580 C   0  0  0  0  0  2  0  0  0  0  0  0
  187.2660  177.9410  147.3050 C   0  0  0  0  0  2  0  0  0  0  0  0
  183.7550  179.4100  143.1670 O   0  0  0  0  0  1  0  0  0  0  0  0
  183.9140  178.7730  145.5830 C   0  0  0  0  0  2  0  0  0  0  0  0
  186.3310  177.3580  144.9600 C   0  0  0  0  0  2  0  0  0  0  0  0
  185.5780  178.1030  143.8880 C   0  0  0  0  0  3  0  0  0  0  0  0
  186.1630  178.0220  146.3030 C   0  0  0  0  0  0  0  0  0  0  0  0
  184.4480  178.7550  144.1750 C   0  0  0  0  0  0  0  0  0  0  0  0
  185.0360  178.6980  146.5890 C   0  0  0  0  0  3  0  0  0  0  0  0
  1 23  1  6  0  0  0
  1 18  1  0  0  0  0
  2 11  1  0  0  0  0
  2  6  1  0  0  0  0
  3  6  1  0  0  0  0
  4  5  1  0  0  0  0
  5 13  1  0  0  0  0
  6  7  1  0  0  0  0
  7  8  1  0  0  0  0
  7 10  1  0  0  0  0
  7 12  1  1  0  0  0
  8 10  1  0  0  0  0
  8  4  1  1  0  0  0
  9 13  1  0  0  0  0
 10 14  1  6  0  0  0
 10  9  1  0  0  0  0
 11 14  1  0  0  0  0
 13  1  1  1  0  0  0
 15  6  1  0  0  0  0
 16 17  1  0  0  0  0
 16 19  1  0  0  0  0
 18 16  2  0  0  0  0
 20 17  2  0  0  0  0
 21 22  2  0  0  0  0
 21 18  1  0  0  0  0
 22 20  1  0  0  0  0
 23 24  1  0  0  0  0
 25 30  1  0  0  0  0
 26 31  1  0  0  0  0
 27 29  1  0  0  0  0
 28 30  2  0  0  0  0
 28 27  1  0  0  0  0
 29 31  2  0  0  0  0
 29 24  1  0  0  0  0
 30 26  1  0  0  0  0
M  END
>  <MODEL>
6

>  <REMARK>
 VINA RESULT:      -7.9      3.180      6.037
  Name = 
  5 active torsions:
  status: ('A' for Active; 'I' for Inactive)
    1  A    between atoms: C_4  and  C_29
    2  A    between atoms: C_12  and  C_17
    3  A    between atoms: C_12  and  C_21
    4  A    between atoms: C_21  and  C_29
    5  A    between atoms: C_27  and  C_29
                            x       y       z     vdW  Elec       q    Type
                         _______ _______ _______ _____ _____    ______ ____

>  <TORSDO>
F 5

$$$$
=
 OpenBabel11062414313D

 31 35  0  0  1  0  0  0  0  0999 V2000
  189.0540  178.2720  141.8710 C   0  0  2  0  0  3  0  0  0  0  0  0
  187.8540  176.8930  135.2430 C   0  0  0  0  0  2  0  0  0  0  0  0
  188.8720  174.8140  135.7350 F   0  0  0  0  0  0  0  0  0  0  0  0
  190.8310  177.5030  138.5070 C   0  0  0  0  0  2  0  0  0  0  0  0
  190.4820  177.3300  139.9830 C   0  0  0  0  0  2  0  0  0  0  0  0
  188.0710  175.7920  136.2930 C   0  0  0  0  0  0  0  0  0  0  0  0
  188.7300  176.2880  137.5940 C   0  0  1  0  0  0  0  0  0  0  0  0
  189.6490  177.5120  137.5110 C   0  0  1  0  0  3  0  0  0  0  0  0
  188.0550  177.6690  139.6510 C   0  0  0  0  0  2  0  0  0  0  0  0
  188.2380  177.6320  138.1320 C   0  0  2  0  0  0  0  0  0  0  0  0
  187.3950  178.2530  135.7920 C   0  0  0  0  0  2  0  0  0  0  0  0
  189.0500  175.3310  138.5460 F   0  0  0  0  0  0  0  0  0  0  0  0
  189.2930  178.2000  140.3560 C   0  0  1  0  0  3  0  0  0  0  0  0
  187.1160  178.2600  137.2960 C   0  0  0  0  0  2  0  0  0  0  0  0
  186.8460  175.2300  136.6040 F   0  0  0  0  0  0  0  0  0  0  0  0
  190.8100  178.0000  143.6630 C   0  0  0  0  0  0  0  0  0  0  0  0
  191.6600  177.1880  144.4180 C   0  0  0  0  0  3  0  0  0  0  0  0
  189.9830  177.4150  142.6910 C   0  0  0  0  0  0  0  0  0  0  0  0
  190.7980  179.4060  143.8900 N   0  0  0  0  0  1  0  0  0  0  0  0
  191.6830  175.8430  144.2130 N   0  0  0  0  0  0  0  0  0  0  0  0
  190.0270  176.0270  142.5030 C   0  0  0  0  0  3  0  0  0  0  0  0
  190.8900  175.2530  143.2790 C   0  0  0  0  0  3  0  0  0  0  0  0
  187.5910  178.2520  142.3360 C   0  0  0  0  0  2  0  0  0  0  0  0
  187.2600  177.0540  143.2160 C   0  0  0  0  0  2  0  0  0  0  0  0
  186.0320  179.9670  147.8650 O   0  0  0  0  0  1  0  0  0  0  0  0
  187.2050  177.9440  146.9710 C   0  0  0  0  0  2  0  0  0  0  0  0
  185.3890  177.9810  144.7500 C   0  0  0  0  0  2  0  0  0  0  0  0
  185.3050  179.0300  145.8290 C   0  0  0  0  0  3  0  0  0  0  0  0
  186.8070  177.5030  144.5650 C   0  0  0  0  0  0  0  0  0  0  0  0
  186.1450  179.0090  146.8680 C   0  0  0  0  0  0  0  0  0  0  0  0
  187.6610  177.5000  145.6040 C   0  0  0  0  0  3  0  0  0  0  0  0
  1 23  1  6  0  0  0
  1 18  1  0  0  0  0
  2 11  1  0  0  0  0
  2  6  1  0  0  0  0
  3  6  1  0  0  0  0
  4  5  1  0  0  0  0
  5 13  1  0  0  0  0
  6 15  1  0  0  0  0
  6  7  1  0  0  0  0
  7 10  1  0  0  0  0
  7 12  1  1  0  0  0
  8  7  1  0  0  0  0
  8 10  1  0  0  0  0
  8  4  1  1  0  0  0
  9 13  1  0  0  0  0
 10 14  1  6  0  0  0
 10  9  1  0  0  0  0
 11 14  1  0  0  0  0
 13  1  1  1  0  0  0
 16 19  1  0  0  0  0
 16 17  1  0  0  0  0
 18 16  2  0  0  0  0
 20 17  2  0  0  0  0
 21 18  1  0  0  0  0
 21 22  2  0  0  0  0
 22 20  1  0  0  0  0
 23 24  1  0  0  0  0
 24 29  1  0  0  0  0
 27 28  1  0  0  0  0
 28 30  2  0  0  0  0
 29 27  1  0  0  0  0
 29 31  2  0  0  0  0
 30 26  1  0  0  0  0
 30 25  1  0  0  0  0
 31 26  1  0  0  0  0
M  END
>  <MODEL>
7

>  <REMARK>
 VINA RESULT:      -7.9      3.456      6.541
  Name = 
  5 active torsions:
  status: ('A' for Active; 'I' for Inactive)
    1  A    between atoms: C_4  and  C_29
    2  A    between atoms: C_12  and  C_17
    3  A    between atoms: C_12  and  C_21
    4  A    between atoms: C_21  and  C_29
    5  A    between atoms: C_27  and  C_29
                            x       y       z     vdW  Elec       q    Type
                         _______ _______ _______ _____ _____    ______ ____

>  <TORSDO>
F 5

$$$$
=
 OpenBabel11062414313D

 31 35  0  0  1  0  0  0  0  0999 V2000
  189.8010  176.6070  138.2890 C   0  0  2  0  0  3  0  0  0  0  0  0
  190.4350  178.2570  144.9340 C   0  0  0  0  0  2  0  0  0  0  0  0
  188.3970  177.0800  145.1770 F   0  0  0  0  0  0  0  0  0  0  0  0
  188.1160  178.6280  141.1420 C   0  0  0  0  0  2  0  0  0  0  0  0
  188.2140  177.6050  140.0130 C   0  0  0  0  0  2  0  0  0  0  0  0
  189.5710  177.0820  144.4490 C   0  0  0  0  0  0  0  0  0  0  0  0
  189.2240  177.1350  142.9500 C   0  0  1  0  0  0  0  0  0  0  0  0
  189.1600  178.5110  142.2770 C   0  0  1  0  0  3  0  0  0  0  0  0
  190.4270  176.7530  140.7130 C   0  0  0  0  0  2  0  0  0  0  0  0
  190.3510  177.5630  142.0090 C   0  0  2  0  0  0  0  0  0  0  0  0
  191.5430  178.7080  143.9690 C   0  0  0  0  0  2  0  0  0  0  0  0
  188.3630  176.1620  142.4650 F   0  0  0  0  0  0  0  0  0  0  0  0
  189.6590  177.4200  139.5840 C   0  0  1  0  0  3  0  0  0  0  0  0
  191.6820  177.8340  142.7210 C   0  0  0  0  0  2  0  0  0  0  0  0
  190.2470  175.9020  144.7060 F   0  0  0  0  0  0  0  0  0  0  0  0
  191.3050  174.6590  137.7300 C   0  0  0  0  0  0  0  0  0  0  0  0
  192.5810  174.1300  137.5250 C   0  0  0  0  0  3  0  0  0  0  0  0
  191.1690  176.0150  138.0710 C   0  0  0  0  0  0  0  0  0  0  0  0
  190.1650  173.8170  137.5930 N   0  0  0  0  0  1  0  0  0  0  0  0
  193.6800  174.9210  137.6520 N   0  0  0  0  0  0  0  0  0  0  0  0
  192.3180  176.8060  138.1930 C   0  0  0  0  0  3  0  0  0  0  0  0
  193.5740  176.2370  137.9790 C   0  0  0  0  0  3  0  0  0  0  0  0
  189.1560  177.2050  137.0300 C   0  0  0  0  0  2  0  0  0  0  0  0
  188.1560  176.2650  136.3680 C   0  0  0  0  0  2  0  0  0  0  0  0
  183.3340  177.4950  138.9850 O   0  0  0  0  0  1  0  0  0  0  0  0
  184.3890  176.1040  137.1900 C   0  0  0  0  0  2  0  0  0  0  0  0
  186.4300  178.1060  136.9610 C   0  0  0  0  0  2  0  0  0  0  0  0
  185.3200  178.2530  137.9680 C   0  0  0  0  0  3  0  0  0  0  0  0
  186.7590  176.6530  136.7210 C   0  0  0  0  0  0  0  0  0  0  0  0
  184.3640  177.3250  138.0710 C   0  0  0  0  0  0  0  0  0  0  0  0
  185.8040  175.7150  136.8440 C   0  0  0  0  0  3  0  0  0  0  0  0
  1 23  1  6  0  0  0
  5  4  1  0  0  0  0
  6 15  1  0  0  0  0
  6  2  1  0  0  0  0
  6  3  1  0  0  0  0
  7 12  1  6  0  0  0
  7  6  1  0  0  0  0
  8  4  1  6  0  0  0
  8  7  1  0  0  0  0
 10  9  1  6  0  0  0
 10  8  1  0  0  0  0
 10 14  1  0  0  0  0
 10  7  1  0  0  0  0
 11  2  1  0  0  0  0
 13  1  1  6  0  0  0
 13  5  1  0  0  0  0
 13  9  1  0  0  0  0
 14 11  1  0  0  0  0
 16 18  1  0  0  0  0
 17 20  1  0  0  0  0
 17 16  2  0  0  0  0
 18 21  2  0  0  0  0
 18  1  1  0  0  0  0
 19 16  1  0  0  0  0
 20 22  2  0  0  0  0
 22 21  1  0  0  0  0
 24 29  1  0  0  0  0
 24 23  1  0  0  0  0
 26 30  1  0  0  0  0
 27 28  1  0  0  0  0
 28 30  2  0  0  0  0
 29 31  2  0  0  0  0
 29 27  1  0  0  0  0
 30 25  1  0  0  0  0
 31 26  1  0  0  0  0
M  END
>  <MODEL>
8

>  <REMARK>
 VINA RESULT:      -7.7      3.109      5.081
  Name = 
  5 active torsions:
  status: ('A' for Active; 'I' for Inactive)
    1  A    between atoms: C_4  and  C_29
    2  A    between atoms: C_12  and  C_17
    3  A    between atoms: C_12  and  C_21
    4  A    between atoms: C_21  and  C_29
    5  A    between atoms: C_27  and  C_29
                            x       y       z     vdW  Elec       q    Type
                         _______ _______ _______ _____ _____    ______ ____

>  <TORSDO>
F 5

$$$$
=
 OpenBabel11062414313D

 31 35  0  0  1  0  0  0  0  0999 V2000
  188.8900  177.7310  142.2810 C   0  0  2  0  0  3  0  0  0  0  0  0
  188.1890  177.4460  135.4470 C   0  0  0  0  0  2  0  0  0  0  0  0
  189.1800  175.3090  135.6720 F   0  0  0  0  0  0  0  0  0  0  0  0
  190.9130  177.5050  138.9770 C   0  0  0  0  0  2  0  0  0  0  0  0
  190.4590  177.0980  140.3760 C   0  0  0  0  0  2  0  0  0  0  0  0
  188.3350  176.1890  136.3200 C   0  0  0  0  0  0  0  0  0  0  0  0
  188.8930  176.4650  137.7280 C   0  0  1  0  0  0  0  0  0  0  0  0
  189.8080  177.6820  137.9120 C   0  0  1  0  0  3  0  0  0  0  0  0
  188.0610  177.5000  139.9260 C   0  0  0  0  0  2  0  0  0  0  0  0
  188.3540  177.7070  138.4380 C   0  0  2  0  0  0  0  0  0  0  0  0
  187.6810  178.7020  136.1730 C   0  0  0  0  0  2  0  0  0  0  0  0
  189.1480  175.3650  138.5340 F   0  0  0  0  0  0  0  0  0  0  0  0
  189.2400  177.9030  140.7960 C   0  0  1  0  0  3  0  0  0  0  0  0
  187.2930  178.4680  137.6340 C   0  0  0  0  0  2  0  0  0  0  0  0
  187.0940  175.5910  136.4450 F   0  0  0  0  0  0  0  0  0  0  0  0
  190.7830  177.9890  143.9300 C   0  0  0  0  0  0  0  0  0  0  0  0
  191.8020  177.4330  144.7070 C   0  0  0  0  0  3  0  0  0  0  0  0
  189.9980  177.1520  143.1210 C   0  0  0  0  0  0  0  0  0  0  0  0
  190.5570  179.3950  143.9710 N   0  0  0  0  0  1  0  0  0  0  0  0
  192.0300  176.0920  144.6790 N   0  0  0  0  0  0  0  0  0  0  0  0
  190.2550  175.7750  143.1140 C   0  0  0  0  0  3  0  0  0  0  0  0
  191.2830  175.2600  143.9050 C   0  0  0  0  0  3  0  0  0  0  0  0
  187.4940  177.1750  142.5960 C   0  0  0  0  0  2  0  0  0  0  0  0
  186.9920  177.5690  143.9790 C   0  0  0  0  0  2  0  0  0  0  0  0
  181.5550  179.0000  143.9740 O   0  0  0  0  0  1  0  0  0  0  0  0
  183.6640  178.9760  142.6240 C   0  0  0  0  0  2  0  0  0  0  0  0
  185.1360  178.9980  145.0860 C   0  0  0  0  0  2  0  0  0  0  0  0
  183.6290  178.9850  145.0920 C   0  0  0  0  0  3  0  0  0  0  0  0
  185.6820  178.2760  143.8800 C   0  0  0  0  0  0  0  0  0  0  0  0
  182.9420  178.9830  143.9460 C   0  0  0  0  0  0  0  0  0  0  0  0
  184.9840  178.2540  142.7310 C   0  0  0  0  0  3  0  0  0  0  0  0
  1 23  1  6  0  0  0
  1 18  1  0  0  0  0
  2 11  1  0  0  0  0
  2  6  1  0  0  0  0
  3  6  1  0  0  0  0
  4  5  1  0  0  0  0
  5 13  1  0  0  0  0
  6 15  1  0  0  0  0
  6  7  1  0  0  0  0
  7  8  1  0  0  0  0
  7 10  1  0  0  0  0
  7 12  1  1  0  0  0
  8 10  1  0  0  0  0
  8  4  1  1  0  0  0
  9 13  1  0  0  0  0
 10 14  1  6  0  0  0
 10  9  1  0  0  0  0
 11 14  1  0  0  0  0
 13  1  1  1  0  0  0
 16 19  1  0  0  0  0
 16 17  1  0  0  0  0
 18 16  2  0  0  0  0
 20 17  2  0  0  0  0
 21 18  1  0  0  0  0
 21 22  2  0  0  0  0
 22 20  1  0  0  0  0
 23 24  1  0  0  0  0
 26 31  1  0  0  0  0
 26 30  1  0  0  0  0
 27 28  1  0  0  0  0
 29 24  1  0  0  0  0
 29 27  1  0  0  0  0
 30 25  1  0  0  0  0
 30 28  2  0  0  0  0
 31 29  2  0  0  0  0
M  END
>  <MODEL>
9

>  <REMARK>
 VINA RESULT:      -7.7      3.547      6.653
  Name = 
  5 active torsions:
  status: ('A' for Active; 'I' for Inactive)
    1  A    between atoms: C_4  and  C_29
    2  A    between atoms: C_12  and  C_17
    3  A    between atoms: C_12  and  C_21
    4  A    between atoms: C_21  and  C_29
    5  A    between atoms: C_27  and  C_29
                            x       y       z     vdW  Elec       q    Type
                         _______ _______ _______ _____ _____    ______ ____

>  <TORSDO>
F 5

$$$$
