=
 OpenBabel11062416223D

 29 31  0  0  1  0  0  0  0  0999 V2000
  192.1000  177.4120  141.7790 N   0  0  0  0  0  0  0  0  0  0  0  0
  191.9190  177.0640  138.1960 F   0  0  0  0  0  0  0  0  0  0  0  0
  191.5210  177.2220  139.4840 C   0  0  0  0  0  0  0  0  0  0  0  0
  190.8130  177.4960  142.1150 N   0  0  0  0  0  0  0  0  0  0  0  0
  189.8210  177.4430  141.1850 C   0  0  0  0  0  0  0  0  0  0  0  0
  192.4840  177.2750  140.4860 C   0  0  0  0  0  3  0  0  0  0  0  0
  190.1600  177.3030  139.8220 C   0  0  0  0  0  0  0  0  0  0  0  0
  187.3760  175.7710  134.9570 C   0  0  0  0  0  1  0  0  0  0  0  0
  188.4970  178.5120  138.2650 C   0  0  0  0  0  2  0  0  0  0  0  0
  188.6930  178.7030  136.7640 C   0  0  0  0  0  2  0  0  0  0  0  0
  189.1230  177.2360  138.7630 C   0  0  0  0  0  0  0  0  0  0  0  0
  187.6620  175.8700  137.2670 C   0  0  0  0  0  2  0  0  0  0  0  0
  187.7160  177.8400  135.9740 C   0  0  0  0  0  2  0  0  0  0  0  0
  188.7140  176.0400  138.3190 C   0  0  0  0  0  3  0  0  0  0  0  0
  188.1210  176.4400  136.0080 N   0  0  0  0  0  0  0  0  0  0  0  0
  188.3950  177.5880  141.6290 C   0  0  2  0  0  3  0  0  0  0  0  0
  188.0560  178.9380  141.7480 O   0  0  0  0  0  1  0  0  0  0  0  0
  188.3300  175.5700  142.8980 O   0  0  0  0  0  0  0  0  0  0  0  0
  188.1050  176.8100  142.8880 C   0  0  0  0  0  0  0  0  0  0  0  0
  187.4030  178.2010  146.3590 C   0  0  0  0  0  3  0  0  0  0  0  0
  187.4390  177.4180  144.0570 C   0  0  0  0  0  0  0  0  0  0  0  0
  186.0910  177.7810  143.9330 C   0  0  0  0  0  3  0  0  0  0  0  0
  188.0980  177.6260  145.2900 C   0  0  0  0  0  0  0  0  0  0  0  0
  186.0650  178.5740  146.2170 C   0  0  0  0  0  3  0  0  0  0  0  0
  185.4070  178.3600  145.0050 C   0  0  0  0  0  3  0  0  0  0  0  0
  189.5010  177.1700  145.5260 C   0  0  0  0  0  2  0  0  0  0  0  0
  191.0160  176.7440  147.4920 C   0  0  0  0  0  3  0  0  0  0  0  0
  192.0340  176.7420  146.7510 O   0  0  0  0  0  0  0  0  0  0  0  0
  189.7130  176.9560  146.9490 N   0  0  0  0  0  2  0  0  0  0  0  0
  1  4  1  0  0  0  0
  2  3  1  0  0  0  0
  3  7  2  0  0  0  0
  3  6  1  0  0  0  0
  5 16  1  0  0  0  0
  5  4  2  0  0  0  0
  6  1  2  0  0  0  0
  7  5  1  0  0  0  0
  8 15  1  0  0  0  0
  9 11  1  0  0  0  0
 10  9  1  0  0  0  0
 11  7  1  0  0  0  0
 12 14  1  0  0  0  0
 13 15  1  0  0  0  0
 13 10  1  0  0  0  0
 14 11  2  0  0  0  0
 15 12  1  0  0  0  0
 16 17  1  1  0  0  0
 16 19  1  0  0  0  0
 19 18  2  0  0  0  0
 19 21  1  0  0  0  0
 21 23  1  0  0  0  0
 22 21  2  0  0  0  0
 22 25  1  0  0  0  0
 23 26  1  0  0  0  0
 23 20  2  0  0  0  0
 24 20  1  0  0  0  0
 25 24  2  0  0  0  0
 26 29  1  0  0  0  0
 28 27  2  0  0  0  0
 29 27  1  0  0  0  0
M  END
>  <MODEL>
1

>  <REMARK>
 VINA RESULT:      -8.3      0.000      0.000
  Name = 
  6 active torsions:
  status: ('A' for Active; 'I' for Inactive)
    1  A    between atoms: C_5  and  C_20
    2  A    between atoms: C_5  and  N_23
    3  A    between atoms: C_8  and  C_14
    4  A    between atoms: C_8  and  C_19
    5  A    between atoms: C_12  and  C_19
    6  A    between atoms: C_16  and  C_26
                            x       y       z     vdW  Elec       q    Type
                         _______ _______ _______ _____ _____    ______ ____

>  <TORSDO>
F 6

$$$$
=
 OpenBabel11062416223D

 29 31  0  0  1  0  0  0  0  0999 V2000
  191.7710  176.7720  146.2390 N   0  0  0  0  0  0  0  0  0  0  0  0
  188.8220  177.6840  148.0990 F   0  0  0  0  0  0  0  0  0  0  0  0
  189.6120  177.3280  147.0540 C   0  0  0  0  0  0  0  0  0  0  0  0
  191.2920  176.6480  145.0010 N   0  0  0  0  0  0  0  0  0  0  0  0
  189.9780  176.8580  144.7140 C   0  0  0  0  0  0  0  0  0  0  0  0
  190.9670  177.1070  147.2770 C   0  0  0  0  0  3  0  0  0  0  0  0
  189.0910  177.2090  145.7550 C   0  0  0  0  0  0  0  0  0  0  0  0
  184.1900  179.7470  143.9380 C   0  0  0  0  0  1  0  0  0  0  0  0
  186.6570  177.1960  146.6060 C   0  0  0  0  0  2  0  0  0  0  0  0
  185.8530  178.4430  146.9600 C   0  0  0  0  0  2  0  0  0  0  0  0
  187.6500  177.4530  145.5030 C   0  0  0  0  0  0  0  0  0  0  0  0
  185.8190  178.0800  143.9260 C   0  0  0  0  0  2  0  0  0  0  0  0
  184.7510  178.6870  145.9370 C   0  0  0  0  0  2  0  0  0  0  0  0
  187.2520  177.8280  144.2810 C   0  0  0  0  0  3  0  0  0  0  0  0
  185.3060  179.2070  144.6930 N   0  0  0  0  0  0  0  0  0  0  0  0
  189.4980  176.6580  143.3060 C   0  0  2  0  0  3  0  0  0  0  0  0
  189.7940  175.3650  142.8690 O   0  0  0  0  0  1  0  0  0  0  0  0
  190.3000  178.8540  142.8320 O   0  0  0  0  0  0  0  0  0  0  0  0
  190.0200  177.7160  142.3670 C   0  0  0  0  0  0  0  0  0  0  0  0
  189.1380  177.6120  138.6670 C   0  0  0  0  0  3  0  0  0  0  0  0
  190.0830  177.5140  140.9060 C   0  0  0  0  0  0  0  0  0  0  0  0
  191.2510  176.9560  140.3670 C   0  0  0  0  0  3  0  0  0  0  0  0
  189.0120  177.8380  140.0430 C   0  0  0  0  0  0  0  0  0  0  0  0
  190.3130  177.0720  138.1420 C   0  0  0  0  0  3  0  0  0  0  0  0
  191.3690  176.7400  138.9920 C   0  0  0  0  0  3  0  0  0  0  0  0
  187.7020  178.3390  140.5560 C   0  0  0  0  0  2  0  0  0  0  0  0
  185.4520  178.9810  139.6260 C   0  0  0  0  0  3  0  0  0  0  0  0
  185.1270  179.5420  140.7060 O   0  0  0  0  0  0  0  0  0  0  0  0
  186.7280  178.3600  139.4760 N   0  0  0  0  0  2  0  0  0  0  0  0
  1  6  1  0  0  0  0
  3  6  2  0  0  0  0
  3  2  1  0  0  0  0
  4  1  2  0  0  0  0
  5  4  1  0  0  0  0
  5  7  2  0  0  0  0
  7  3  1  0  0  0  0
  8 15  1  0  0  0  0
  9 10  1  0  0  0  0
 11  7  1  0  0  0  0
 11  9  1  0  0  0  0
 12 14  1  0  0  0  0
 12 15  1  0  0  0  0
 13 10  1  0  0  0  0
 14 11  2  0  0  0  0
 15 13  1  0  0  0  0
 16 17  1  6  0  0  0
 16  5  1  0  0  0  0
 19 18  2  0  0  0  0
 19 16  1  0  0  0  0
 20 23  1  0  0  0  0
 21 19  1  0  0  0  0
 22 21  1  0  0  0  0
 23 26  1  0  0  0  0
 23 21  2  0  0  0  0
 24 20  2  0  0  0  0
 24 25  1  0  0  0  0
 25 22  2  0  0  0  0
 27 28  2  0  0  0  0
 29 27  1  0  0  0  0
 29 26  1  0  0  0  0
M  END
>  <MODEL>
2

>  <REMARK>
 VINA RESULT:      -8.3      2.878      7.348
  Name = 
  6 active torsions:
  status: ('A' for Active; 'I' for Inactive)
    1  A    between atoms: C_5  and  C_20
    2  A    between atoms: C_5  and  N_23
    3  A    between atoms: C_8  and  C_14
    4  A    between atoms: C_8  and  C_19
    5  A    between atoms: C_12  and  C_19
    6  A    between atoms: C_16  and  C_26
                            x       y       z     vdW  Elec       q    Type
                         _______ _______ _______ _____ _____    ______ ____

>  <TORSDO>
F 6

$$$$
=
 OpenBabel11062416223D

 29 31  0  0  1  0  0  0  0  0999 V2000
  185.7270  178.6510  142.0610 N   0  0  0  0  0  0  0  0  0  0  0  0
  186.4830  178.7070  138.5380 F   0  0  0  0  0  0  0  0  0  0  0  0
  186.6120  178.4600  139.8670 C   0  0  0  0  0  0  0  0  0  0  0  0
  186.8010  178.0440  142.5660 N   0  0  0  0  0  0  0  0  0  0  0  0
  187.8270  177.6230  141.7780 C   0  0  0  0  0  0  0  0  0  0  0  0
  185.6020  178.8720  140.7300 C   0  0  0  0  0  3  0  0  0  0  0  0
  187.7540  177.8250  140.3830 C   0  0  0  0  0  0  0  0  0  0  0  0
  191.3780  174.3920  137.4100 C   0  0  0  0  0  1  0  0  0  0  0  0
  190.1640  178.1090  139.5120 C   0  0  0  0  0  2  0  0  0  0  0  0
  191.3220  177.1700  139.8340 C   0  0  0  0  0  2  0  0  0  0  0  0
  188.8420  177.3910  139.4730 C   0  0  0  0  0  0  0  0  0  0  0  0
  189.6320  175.9220  137.6140 C   0  0  0  0  0  2  0  0  0  0  0  0
  191.7240  176.3620  138.6060 C   0  0  0  0  0  2  0  0  0  0  0  0
  188.6050  176.4160  138.5860 C   0  0  0  0  0  3  0  0  0  0  0  0
  190.7450  175.3170  138.3330 N   0  0  0  0  0  0  0  0  0  0  0  0
  188.9860  176.9070  142.4090 C   0  0  2  0  0  3  0  0  0  0  0  0
  188.5640  175.7050  142.9820 O   0  0  0  0  0  1  0  0  0  0  0  0
  190.1750  178.8910  142.9910 O   0  0  0  0  0  0  0  0  0  0  0  0
  189.7340  177.7780  143.3860 C   0  0  0  0  0  0  0  0  0  0  0  0
  189.5860  176.9060  147.0870 C   0  0  0  0  0  3  0  0  0  0  0  0
  190.0890  177.3180  144.7430 C   0  0  0  0  0  0  0  0  0  0  0  0
  191.3920  176.8480  144.9600 C   0  0  0  0  0  3  0  0  0  0  0  0
  189.1790  177.3520  145.8240 C   0  0  0  0  0  0  0  0  0  0  0  0
  190.8810  176.4250  147.2850 C   0  0  0  0  0  3  0  0  0  0  0  0
  191.7860  176.4000  146.2230 C   0  0  0  0  0  3  0  0  0  0  0  0
  187.8100  177.9340  145.6910 C   0  0  0  0  0  2  0  0  0  0  0  0
  185.9510  178.6680  147.2230 C   0  0  0  0  0  3  0  0  0  0  0  0
  185.4240  179.3570  146.3090 O   0  0  0  0  0  0  0  0  0  0  0  0
  187.1460  177.9260  146.9850 N   0  0  0  0  0  2  0  0  0  0  0  0
  1  4  1  0  0  0  0
  2  3  1  0  0  0  0
  3  7  2  0  0  0  0
  3  6  1  0  0  0  0
  5 16  1  0  0  0  0
  5  4  2  0  0  0  0
  6  1  2  0  0  0  0
  7  5  1  0  0  0  0
  8 15  1  0  0  0  0
  9 10  1  0  0  0  0
 11  9  1  0  0  0  0
 11  7  1  0  0  0  0
 12 15  1  0  0  0  0
 12 14  1  0  0  0  0
 13 10  1  0  0  0  0
 14 11  2  0  0  0  0
 15 13  1  0  0  0  0
 16 17  1  1  0  0  0
 16 19  1  0  0  0  0
 18 19  2  0  0  0  0
 19 21  1  0  0  0  0
 20 24  1  0  0  0  0
 21 22  2  0  0  0  0
 21 23  1  0  0  0  0
 22 25  1  0  0  0  0
 23 20  2  0  0  0  0
 25 24  2  0  0  0  0
 26 23  1  0  0  0  0
 26 29  1  0  0  0  0
 28 27  2  0  0  0  0
 29 27  1  0  0  0  0
M  END
>  <MODEL>
3

>  <REMARK>
 VINA RESULT:      -8.2      2.501      4.204
  Name = 
  6 active torsions:
  status: ('A' for Active; 'I' for Inactive)
    1  A    between atoms: C_5  and  C_20
    2  A    between atoms: C_5  and  N_23
    3  A    between atoms: C_8  and  C_14
    4  A    between atoms: C_8  and  C_19
    5  A    between atoms: C_12  and  C_19
    6  A    between atoms: C_16  and  C_26
                            x       y       z     vdW  Elec       q    Type
                         _______ _______ _______ _____ _____    ______ ____

>  <TORSDO>
F 6

$$$$
=
 OpenBabel11062416223D

 29 31  0  0  1  0  0  0  0  0999 V2000
  191.8410  176.7250  146.2310 N   0  0  0  0  0  0  0  0  0  0  0  0
  188.9870  177.7110  148.1980 F   0  0  0  0  0  0  0  0  0  0  0  0
  189.7260  177.3240  147.1270 C   0  0  0  0  0  0  0  0  0  0  0  0
  191.3070  176.5820  145.0180 N   0  0  0  0  0  0  0  0  0  0  0  0
  189.9840  176.8010  144.7840 C   0  0  0  0  0  0  0  0  0  0  0  0
  191.0870  177.0920  147.2950 C   0  0  0  0  0  3  0  0  0  0  0  0
  189.1480  177.1850  145.8540 C   0  0  0  0  0  0  0  0  0  0  0  0
  184.2030  179.6160  144.0100 C   0  0  0  0  0  1  0  0  0  0  0  0
  186.7750  177.3700  146.8480 C   0  0  0  0  0  2  0  0  0  0  0  0
  186.0280  178.6800  147.0750 C   0  0  0  0  0  2  0  0  0  0  0  0
  187.7000  177.4400  145.6610 C   0  0  0  0  0  0  0  0  0  0  0  0
  185.7850  177.9090  144.1270 C   0  0  0  0  0  2  0  0  0  0  0  0
  184.8670  178.8200  146.0970 C   0  0  0  0  0  2  0  0  0  0  0  0
  187.2310  177.6600  144.4250 C   0  0  0  0  0  3  0  0  0  0  0  0
  185.3530  179.1460  144.7630 N   0  0  0  0  0  0  0  0  0  0  0  0
  189.4410  176.5780  143.4030 C   0  0  2  0  0  3  0  0  0  0  0  0
  189.9380  175.3870  142.8690 O   0  0  0  0  0  1  0  0  0  0  0  0
  190.2970  178.7580  142.9520 O   0  0  0  0  0  0  0  0  0  0  0  0
  189.6790  177.7590  142.4950 C   0  0  0  0  0  0  0  0  0  0  0  0
  189.2100  177.6140  138.7220 C   0  0  0  0  0  3  0  0  0  0  0  0
  189.0980  177.8440  141.1410 C   0  0  0  0  0  0  0  0  0  0  0  0
  187.7800  178.3030  141.0160 C   0  0  0  0  0  3  0  0  0  0  0  0
  189.8220  177.5020  139.9760 C   0  0  0  0  0  0  0  0  0  0  0  0
  187.8910  178.0570  138.6140 C   0  0  0  0  0  3  0  0  0  0  0  0
  187.1760  178.4060  139.7610 C   0  0  0  0  0  3  0  0  0  0  0  0
  191.2600  177.1040  140.0230 C   0  0  0  0  0  2  0  0  0  0  0  0
  193.0300  176.4030  138.3740 C   0  0  0  0  0  3  0  0  0  0  0  0
  193.9500  176.7490  139.1610 O   0  0  0  0  0  0  0  0  0  0  0  0
  191.6580  176.5480  138.7390 N   0  0  0  0  0  2  0  0  0  0  0  0
  1  6  1  0  0  0  0
  3  6  2  0  0  0  0
  3  2  1  0  0  0  0
  4  1  2  0  0  0  0
  5  4  1  0  0  0  0
  5  7  2  0  0  0  0
  7  3  1  0  0  0  0
  8 15  1  0  0  0  0
  9 10  1  0  0  0  0
 11  7  1  0  0  0  0
 11  9  1  0  0  0  0
 12 14  1  0  0  0  0
 12 15  1  0  0  0  0
 13 10  1  0  0  0  0
 14 11  2  0  0  0  0
 15 13  1  0  0  0  0
 16 17  1  6  0  0  0
 16  5  1  0  0  0  0
 19 18  2  0  0  0  0
 19 16  1  0  0  0  0
 20 23  1  0  0  0  0
 21 19  1  0  0  0  0
 22 21  1  0  0  0  0
 23 26  1  0  0  0  0
 23 21  2  0  0  0  0
 24 20  2  0  0  0  0
 24 25  1  0  0  0  0
 25 22  2  0  0  0  0
 27 29  1  0  0  0  0
 27 28  2  0  0  0  0
 29 26  1  0  0  0  0
M  END
>  <MODEL>
4

>  <REMARK>
 VINA RESULT:      -8.1      2.888      7.070
  Name = 
  6 active torsions:
  status: ('A' for Active; 'I' for Inactive)
    1  A    between atoms: C_5  and  C_20
    2  A    between atoms: C_5  and  N_23
    3  A    between atoms: C_8  and  C_14
    4  A    between atoms: C_8  and  C_19
    5  A    between atoms: C_12  and  C_19
    6  A    between atoms: C_16  and  C_26
                            x       y       z     vdW  Elec       q    Type
                         _______ _______ _______ _____ _____    ______ ____

>  <TORSDO>
F 6

$$$$
=
 OpenBabel11062416223D

 29 31  0  0  1  0  0  0  0  0999 V2000
  187.7930  177.5490  146.7690 N   0  0  0  0  0  0  0  0  0  0  0  0
  184.7180  179.3520  146.2360 F   0  0  0  0  0  0  0  0  0  0  0  0
  185.8330  178.6250  145.9700 C   0  0  0  0  0  0  0  0  0  0  0  0
  188.1250  177.1940  145.5280 N   0  0  0  0  0  0  0  0  0  0  0  0
  187.3590  177.5280  144.4540 C   0  0  0  0  0  0  0  0  0  0  0  0
  186.6650  178.2570  147.0220 C   0  0  0  0  0  3  0  0  0  0  0  0
  186.1720  178.2650  144.6550 C   0  0  0  0  0  0  0  0  0  0  0  0
  182.3320  177.9240  140.3080 C   0  0  0  0  0  1  0  0  0  0  0  0
  185.8370  179.5880  142.4670 C   0  0  0  0  0  2  0  0  0  0  0  0
  185.7850  178.9670  141.0750 C   0  0  0  0  0  2  0  0  0  0  0  0
  185.2980  178.6610  143.5240 C   0  0  0  0  0  0  0  0  0  0  0  0
  183.0620  178.6050  142.4140 C   0  0  0  0  0  2  0  0  0  0  0  0
  184.3740  179.0310  140.5030 C   0  0  0  0  0  2  0  0  0  0  0  0
  184.0250  178.2430  143.5020 C   0  0  0  0  0  3  0  0  0  0  0  0
  183.5110  178.0470  141.1460 N   0  0  0  0  0  0  0  0  0  0  0  0
  187.7710  177.0580  143.0900 C   0  0  2  0  0  3  0  0  0  0  0  0
  188.0540  175.6900  143.1100 O   0  0  0  0  0  1  0  0  0  0  0  0
  189.2210  178.9500  143.0900 O   0  0  0  0  0  0  0  0  0  0  0  0
  188.9060  177.8710  142.5210 C   0  0  0  0  0  0  0  0  0  0  0  0
  191.5110  176.9270  139.9130 C   0  0  0  0  0  3  0  0  0  0  0  0
  189.5660  177.5230  141.2470 C   0  0  0  0  0  0  0  0  0  0  0  0
  188.7840  177.4920  140.0850 C   0  0  0  0  0  3  0  0  0  0  0  0
  190.9490  177.2430  141.1550 C   0  0  0  0  0  0  0  0  0  0  0  0
  190.7160  176.8830  138.7660 C   0  0  0  0  0  3  0  0  0  0  0  0
  189.3530  177.1700  138.8510 C   0  0  0  0  0  3  0  0  0  0  0  0
  191.8620  177.3570  142.3310 C   0  0  0  0  0  2  0  0  0  0  0  0
  191.4970  176.4170  144.6390 C   0  0  0  0  0  3  0  0  0  0  0  0
  191.5430  177.5660  145.1520 O   0  0  0  0  0  0  0  0  0  0  0  0
  191.6460  176.2350  143.2310 N   0  0  0  0  0  2  0  0  0  0  0  0
  1  6  1  0  0  0  0
  3  2  1  0  0  0  0
  3  6  2  0  0  0  0
  4  1  2  0  0  0  0
  5  7  2  0  0  0  0
  5  4  1  0  0  0  0
  7  3  1  0  0  0  0
  8 15  1  0  0  0  0
  9 11  1  0  0  0  0
 10  9  1  0  0  0  0
 11  7  1  0  0  0  0
 12 14  1  0  0  0  0
 13 10  1  0  0  0  0
 13 15  1  0  0  0  0
 14 11  2  0  0  0  0
 15 12  1  0  0  0  0
 16 17  1  1  0  0  0
 16  5  1  0  0  0  0
 19 16  1  0  0  0  0
 19 18  2  0  0  0  0
 20 23  1  0  0  0  0
 21 19  1  0  0  0  0
 22 21  1  0  0  0  0
 23 21  2  0  0  0  0
 23 26  1  0  0  0  0
 24 25  1  0  0  0  0
 24 20  2  0  0  0  0
 25 22  2  0  0  0  0
 26 29  1  0  0  0  0
 27 28  2  0  0  0  0
 29 27  1  0  0  0  0
M  END
>  <MODEL>
5

>  <REMARK>
 VINA RESULT:      -8.0      3.131      6.069
  Name = 
  6 active torsions:
  status: ('A' for Active; 'I' for Inactive)
    1  A    between atoms: C_5  and  C_20
    2  A    between atoms: C_5  and  N_23
    3  A    between atoms: C_8  and  C_14
    4  A    between atoms: C_8  and  C_19
    5  A    between atoms: C_12  and  C_19
    6  A    between atoms: C_16  and  C_26
                            x       y       z     vdW  Elec       q    Type
                         _______ _______ _______ _____ _____    ______ ____

>  <TORSDO>
F 6

$$$$
=
 OpenBabel11062416223D

 29 31  0  0  1  0  0  0  0  0999 V2000
  192.6590  177.2110  141.5340 N   0  0  0  0  0  0  0  0  0  0  0  0
  192.0850  177.1100  137.9780 F   0  0  0  0  0  0  0  0  0  0  0  0
  191.8320  177.1890  139.3090 C   0  0  0  0  0  0  0  0  0  0  0  0
  191.4190  177.2990  142.0140 N   0  0  0  0  0  0  0  0  0  0  0  0
  190.3320  177.3300  141.1950 C   0  0  0  0  0  0  0  0  0  0  0  0
  192.8990  177.1540  140.2020 C   0  0  0  0  0  3  0  0  0  0  0  0
  190.5180  177.2740  139.7980 C   0  0  0  0  0  0  0  0  0  0  0  0
  187.1730  176.1100  135.1920 C   0  0  0  0  0  1  0  0  0  0  0  0
  188.7460  178.6230  138.4960 C   0  0  0  0  0  2  0  0  0  0  0  0
  188.7870  178.8910  136.9950 C   0  0  0  0  0  2  0  0  0  0  0  0
  189.3720  177.3010  138.8550 C   0  0  0  0  0  0  0  0  0  0  0  0
  187.7080  176.0700  137.4590 C   0  0  0  0  0  2  0  0  0  0  0  0
  187.6990  178.1060  136.2720 C   0  0  0  0  0  2  0  0  0  0  0  0
  188.8730  176.1460  138.3980 C   0  0  0  0  0  3  0  0  0  0  0  0
  188.0520  176.6940  136.1890 N   0  0  0  0  0  0  0  0  0  0  0  0
  188.9660  177.4740  141.8010 C   0  0  2  0  0  3  0  0  0  0  0  0
  188.7080  178.8120  142.1100 O   0  0  0  0  0  1  0  0  0  0  0  0
  188.7780  175.3160  142.7990 O   0  0  0  0  0  0  0  0  0  0  0  0
  188.7650  176.5630  142.9860 C   0  0  0  0  0  0  0  0  0  0  0  0
  186.8400  177.9220  145.9730 C   0  0  0  0  0  3  0  0  0  0  0  0
  188.4160  177.0740  144.3260 C   0  0  0  0  0  0  0  0  0  0  0  0
  189.4470  177.2230  145.2640 C   0  0  0  0  0  3  0  0  0  0  0  0
  187.0980  177.4360  144.6860 C   0  0  0  0  0  0  0  0  0  0  0  0
  187.8730  178.0490  146.9030 C   0  0  0  0  0  3  0  0  0  0  0  0
  189.1780  177.7030  146.5480 C   0  0  0  0  0  3  0  0  0  0  0  0
  185.9700  177.4020  143.7080 C   0  0  0  0  0  2  0  0  0  0  0  0
  184.8190  179.5590  143.1020 C   0  0  0  0  0  3  0  0  0  0  0  0
  185.4370  179.6220  142.0070 O   0  0  0  0  0  0  0  0  0  0  0  0
  185.0310  178.4730  144.0040 N   0  0  0  0  0  2  0  0  0  0  0  0
  1  4  1  0  0  0  0
  2  3  1  0  0  0  0
  3  7  2  0  0  0  0
  3  6  1  0  0  0  0
  5 16  1  0  0  0  0
  5  4  2  0  0  0  0
  6  1  2  0  0  0  0
  7  5  1  0  0  0  0
  8 15  1  0  0  0  0
  9 11  1  0  0  0  0
 10  9  1  0  0  0  0
 11  7  1  0  0  0  0
 12 14  1  0  0  0  0
 13 10  1  0  0  0  0
 14 11  2  0  0  0  0
 15 13  1  0  0  0  0
 15 12  1  0  0  0  0
 16 17  1  1  0  0  0
 16 19  1  0  0  0  0
 18 19  2  0  0  0  0
 19 21  1  0  0  0  0
 20 24  1  0  0  0  0
 21 23  1  0  0  0  0
 21 22  2  0  0  0  0
 22 25  1  0  0  0  0
 23 20  2  0  0  0  0
 25 24  2  0  0  0  0
 26 29  1  0  0  0  0
 26 23  1  0  0  0  0
 27 29  1  0  0  0  0
 28 27  2  0  0  0  0
M  END
>  <MODEL>
6

>  <REMARK>
 VINA RESULT:      -7.7      1.574      2.819
  Name = 
  6 active torsions:
  status: ('A' for Active; 'I' for Inactive)
    1  A    between atoms: C_5  and  C_20
    2  A    between atoms: C_5  and  N_23
    3  A    between atoms: C_8  and  C_14
    4  A    between atoms: C_8  and  C_19
    5  A    between atoms: C_12  and  C_19
    6  A    between atoms: C_16  and  C_26
                            x       y       z     vdW  Elec       q    Type
                         _______ _______ _______ _____ _____    ______ ____

>  <TORSDO>
F 6

$$$$
=
 OpenBabel11062416223D

 29 31  0  0  1  0  0  0  0  0999 V2000
  188.6220  177.5470  139.0420 N   0  0  0  0  0  0  0  0  0  0  0  0
  192.0630  177.2010  140.0540 F   0  0  0  0  0  0  0  0  0  0  0  0
  190.7120  177.3050  140.1400 C   0  0  0  0  0  0  0  0  0  0  0  0
  187.9870  177.5610  140.2140 N   0  0  0  0  0  0  0  0  0  0  0  0
  188.6560  177.4580  141.3950 C   0  0  0  0  0  0  0  0  0  0  0  0
  189.9690  177.4220  138.9700 C   0  0  0  0  0  3  0  0  0  0  0  0
  190.0600  177.3250  141.3840 C   0  0  0  0  0  0  0  0  0  0  0  0
  191.6330  175.7330  146.7470 C   0  0  0  0  0  1  0  0  0  0  0  0
  191.4540  178.4500  143.2400 C   0  0  0  0  0  2  0  0  0  0  0  0
  190.9650  178.7010  144.6630 C   0  0  0  0  0  2  0  0  0  0  0  0
  190.8440  177.2110  142.6390 C   0  0  0  0  0  0  0  0  0  0  0  0
  191.8450  175.7830  144.4260 C   0  0  0  0  0  2  0  0  0  0  0  0
  191.6820  177.7890  145.6520 C   0  0  0  0  0  2  0  0  0  0  0  0
  191.0530  176.0010  143.1740 C   0  0  0  0  0  3  0  0  0  0  0  0
  191.1810  176.4240  145.5530 N   0  0  0  0  0  0  0  0  0  0  0  0
  187.8740  177.4360  142.6760 C   0  0  2  0  0  3  0  0  0  0  0  0
  187.5470  176.1240  143.0260 O   0  0  0  0  0  1  0  0  0  0  0  0
  186.5330  179.1180  141.6460 O   0  0  0  0  0  0  0  0  0  0  0  0
  186.6650  178.3360  142.6250 C   0  0  0  0  0  0  0  0  0  0  0  0
  185.1410  178.4680  146.1090 C   0  0  0  0  0  3  0  0  0  0  0  0
  185.7060  178.4340  143.7440 C   0  0  0  0  0  0  0  0  0  0  0  0
  184.3450  178.5690  143.4370 C   0  0  0  0  0  3  0  0  0  0  0  0
  186.1040  178.3760  145.0990 C   0  0  0  0  0  0  0  0  0  0  0  0
  183.7900  178.6190  145.7890 C   0  0  0  0  0  3  0  0  0  0  0  0
  183.3910  178.6660  144.4530 C   0  0  0  0  0  3  0  0  0  0  0  0
  187.5220  178.1300  145.5000 C   0  0  0  0  0  2  0  0  0  0  0  0
  188.3830  177.3290  147.7270 C   0  0  0  0  0  3  0  0  0  0  0  0
  189.0960  178.3590  147.8610 O   0  0  0  0  0  0  0  0  0  0  0  0
  187.5650  177.1480  146.5720 N   0  0  0  0  0  2  0  0  0  0  0  0
  1  4  1  0  0  0  0
  2  3  1  0  0  0  0
  3  7  2  0  0  0  0
  4  5  2  0  0  0  0
  5 16  1  0  0  0  0
  6  1  2  0  0  0  0
  6  3  1  0  0  0  0
  7  5  1  0  0  0  0
  7 11  1  0  0  0  0
  9 10  1  0  0  0  0
 10 13  1  0  0  0  0
 11 14  2  0  0  0  0
 11  9  1  0  0  0  0
 12 15  1  0  0  0  0
 14 12  1  0  0  0  0
 15 13  1  0  0  0  0
 15  8  1  0  0  0  0
 16 17  1  6  0  0  0
 18 19  2  0  0  0  0
 19 16  1  0  0  0  0
 19 21  1  0  0  0  0
 21 23  1  0  0  0  0
 22 21  2  0  0  0  0
 22 25  1  0  0  0  0
 23 26  1  0  0  0  0
 23 20  2  0  0  0  0
 24 20  1  0  0  0  0
 25 24  2  0  0  0  0
 26 29  1  0  0  0  0
 27 28  2  0  0  0  0
 29 27  1  0  0  0  0
M  END
>  <MODEL>
7

>  <REMARK>
 VINA RESULT:      -7.6      2.250      4.991
  Name = 
  6 active torsions:
  status: ('A' for Active; 'I' for Inactive)
    1  A    between atoms: C_5  and  C_20
    2  A    between atoms: C_5  and  N_23
    3  A    between atoms: C_8  and  C_14
    4  A    between atoms: C_8  and  C_19
    5  A    between atoms: C_12  and  C_19
    6  A    between atoms: C_16  and  C_26
                            x       y       z     vdW  Elec       q    Type
                         _______ _______ _______ _____ _____    ______ ____

>  <TORSDO>
F 6

$$$$
=
 OpenBabel11062416223D

 29 31  0  0  1  0  0  0  0  0999 V2000
  185.6330  178.8300  142.0400 N   0  0  0  0  0  0  0  0  0  0  0  0
  186.3920  178.7050  138.5190 F   0  0  0  0  0  0  0  0  0  0  0  0
  186.5270  178.5420  139.8600 C   0  0  0  0  0  0  0  0  0  0  0  0
  186.7270  178.2940  142.5790 N   0  0  0  0  0  0  0  0  0  0  0  0
  187.7690  177.8650  141.8160 C   0  0  0  0  0  0  0  0  0  0  0  0
  185.5020  178.9670  140.6980 C   0  0  0  0  0  3  0  0  0  0  0  0
  187.6910  177.9810  140.4120 C   0  0  0  0  0  0  0  0  0  0  0  0
  191.2400  174.5100  137.3920 C   0  0  0  0  0  1  0  0  0  0  0  0
  190.1570  178.1580  139.6790 C   0  0  0  0  0  2  0  0  0  0  0  0
  191.2340  177.1240  139.9930 C   0  0  0  0  0  2  0  0  0  0  0  0
  188.7950  177.5340  139.5280 C   0  0  0  0  0  0  0  0  0  0  0  0
  189.5870  176.1370  137.6150 C   0  0  0  0  0  2  0  0  0  0  0  0
  191.6470  176.3710  138.7340 C   0  0  0  0  0  2  0  0  0  0  0  0
  188.5430  176.6360  138.5670 C   0  0  0  0  0  3  0  0  0  0  0  0
  190.6200  175.4140  138.3440 N   0  0  0  0  0  0  0  0  0  0  0  0
  188.9530  177.2300  142.4870 C   0  0  2  0  0  3  0  0  0  0  0  0
  188.6650  175.9090  142.8370 O   0  0  0  0  0  1  0  0  0  0  0  0
  190.3400  178.9100  143.4580 O   0  0  0  0  0  0  0  0  0  0  0  0
  189.4500  178.0400  143.6580 C   0  0  0  0  0  0  0  0  0  0  0  0
  189.4820  177.0960  147.3440 C   0  0  0  0  0  3  0  0  0  0  0  0
  189.0350  177.7580  145.0460 C   0  0  0  0  0  0  0  0  0  0  0  0
  187.6760  177.8770  145.3660 C   0  0  0  0  0  3  0  0  0  0  0  0
  189.9460  177.3550  146.0490 C   0  0  0  0  0  0  0  0  0  0  0  0
  188.1280  177.2350  147.6530 C   0  0  0  0  0  3  0  0  0  0  0  0
  187.2230  177.6210  146.6630 C   0  0  0  0  0  3  0  0  0  0  0  0
  191.3900  177.1080  145.7570 C   0  0  0  0  0  2  0  0  0  0  0  0
  192.4290  175.4810  147.3750 C   0  0  0  0  0  3  0  0  0  0  0  0
  192.7450  176.4120  148.1620 O   0  0  0  0  0  0  0  0  0  0  0  0
  191.7460  175.7540  146.1520 N   0  0  0  0  0  2  0  0  0  0  0  0
  1  4  1  0  0  0  0
  2  3  1  0  0  0  0
  3  7  2  0  0  0  0
  3  6  1  0  0  0  0
  5 16  1  0  0  0  0
  5  4  2  0  0  0  0
  6  1  2  0  0  0  0
  7  5  1  0  0  0  0
  8 15  1  0  0  0  0
  9 10  1  0  0  0  0
 11  9  1  0  0  0  0
 11  7  1  0  0  0  0
 12 15  1  0  0  0  0
 12 14  1  0  0  0  0
 13 10  1  0  0  0  0
 14 11  2  0  0  0  0
 15 13  1  0  0  0  0
 16 17  1  1  0  0  0
 16 19  1  0  0  0  0
 18 19  2  0  0  0  0
 19 21  1  0  0  0  0
 20 24  1  0  0  0  0
 21 22  2  0  0  0  0
 21 23  1  0  0  0  0
 22 25  1  0  0  0  0
 23 20  2  0  0  0  0
 25 24  2  0  0  0  0
 26 23  1  0  0  0  0
 26 29  1  0  0  0  0
 27 28  2  0  0  0  0
 29 27  1  0  0  0  0
M  END
>  <MODEL>
8

>  <REMARK>
 VINA RESULT:      -7.6      2.375      3.502
  Name = 
  6 active torsions:
  status: ('A' for Active; 'I' for Inactive)
    1  A    between atoms: C_5  and  C_20
    2  A    between atoms: C_5  and  N_23
    3  A    between atoms: C_8  and  C_14
    4  A    between atoms: C_8  and  C_19
    5  A    between atoms: C_12  and  C_19
    6  A    between atoms: C_16  and  C_26
                            x       y       z     vdW  Elec       q    Type
                         _______ _______ _______ _____ _____    ______ ____

>  <TORSDO>
F 6

$$$$
=
 OpenBabel11062416223D

 29 31  0  0  1  0  0  0  0  0999 V2000
  189.6120  177.2750  139.5900 N   0  0  0  0  0  0  0  0  0  0  0  0
  192.6570  177.3030  141.5190 F   0  0  0  0  0  0  0  0  0  0  0  0
  191.3310  177.2850  141.2280 C   0  0  0  0  0  0  0  0  0  0  0  0
  188.6800  177.2900  140.5430 N   0  0  0  0  0  0  0  0  0  0  0  0
  189.0020  177.3110  141.8640 C   0  0  0  0  0  0  0  0  0  0  0  0
  190.9330  177.2720  139.8950 C   0  0  0  0  0  3  0  0  0  0  0  0
  190.3610  177.3080  142.2440 C   0  0  0  0  0  0  0  0  0  0  0  0
  191.4170  175.5550  147.6830 C   0  0  0  0  0  1  0  0  0  0  0  0
  190.3790  178.5030  144.5290 C   0  0  0  0  0  2  0  0  0  0  0  0
  189.5550  178.0770  145.7400 C   0  0  0  0  0  2  0  0  0  0  0  0
  190.7750  177.3330  143.6690 C   0  0  0  0  0  0  0  0  0  0  0  0
  192.0320  176.2960  145.5600 C   0  0  0  0  0  2  0  0  0  0  0  0
  190.4500  177.4960  146.8290 C   0  0  0  0  0  2  0  0  0  0  0  0
  191.5490  176.3490  144.1440 C   0  0  0  0  0  3  0  0  0  0  0  0
  190.9000  176.1580  146.4670 N   0  0  0  0  0  0  0  0  0  0  0  0
  187.9010  177.2830  142.8840 C   0  0  2  0  0  3  0  0  0  0  0  0
  187.4990  175.9680  143.1320 O   0  0  0  0  0  1  0  0  0  0  0  0
  186.8210  178.8420  141.4390 O   0  0  0  0  0  0  0  0  0  0  0  0
  186.7460  178.1760  142.5060 C   0  0  0  0  0  0  0  0  0  0  0  0
  183.2180  178.6330  143.8550 C   0  0  0  0  0  3  0  0  0  0  0  0
  185.5970  178.4030  143.4040 C   0  0  0  0  0  0  0  0  0  0  0  0
  185.8580  178.6500  144.7590 C   0  0  0  0  0  3  0  0  0  0  0  0
  184.2590  178.4020  142.9490 C   0  0  0  0  0  0  0  0  0  0  0  0
  183.4910  178.8610  145.2050 C   0  0  0  0  0  3  0  0  0  0  0  0
  184.8110  178.8730  145.6570 C   0  0  0  0  0  3  0  0  0  0  0  0
  183.9120  178.2490  141.5040 C   0  0  0  0  0  2  0  0  0  0  0  0
  182.0250  179.1820  140.1220 C   0  0  0  0  0  3  0  0  0  0  0  0
  182.8170  179.5150  139.2020 O   0  0  0  0  0  0  0  0  0  0  0  0
  182.5010  178.5400  141.3040 N   0  0  0  0  0  2  0  0  0  0  0  0
  1  6  2  0  0  0  0
  1  4  1  0  0  0  0
  3  2  1  0  0  0  0
  3  7  2  0  0  0  0
  4  5  2  0  0  0  0
  5  7  1  0  0  0  0
  5 16  1  0  0  0  0
  6  3  1  0  0  0  0
  7 11  1  0  0  0  0
  9 10  1  0  0  0  0
 10 13  1  0  0  0  0
 11 14  2  0  0  0  0
 11  9  1  0  0  0  0
 12 15  1  0  0  0  0
 14 12  1  0  0  0  0
 15 13  1  0  0  0  0
 15  8  1  0  0  0  0
 16 17  1  6  0  0  0
 18 19  2  0  0  0  0
 19 16  1  0  0  0  0
 19 21  1  0  0  0  0
 20 24  1  0  0  0  0
 21 22  2  0  0  0  0
 22 25  1  0  0  0  0
 23 21  1  0  0  0  0
 23 20  2  0  0  0  0
 24 25  2  0  0  0  0
 26 23  1  0  0  0  0
 27 29  1  0  0  0  0
 28 27  2  0  0  0  0
 29 26  1  0  0  0  0
M  END
>  <MODEL>
9

>  <REMARK>
 VINA RESULT:      -7.4      2.813      6.598
  Name = 
  6 active torsions:
  status: ('A' for Active; 'I' for Inactive)
    1  A    between atoms: C_5  and  C_20
    2  A    between atoms: C_5  and  N_23
    3  A    between atoms: C_8  and  C_14
    4  A    between atoms: C_8  and  C_19
    5  A    between atoms: C_12  and  C_19
    6  A    between atoms: C_16  and  C_26
                            x       y       z     vdW  Elec       q    Type
                         _______ _______ _______ _____ _____    ______ ____

>  <TORSDO>
F 6

$$$$
