=
 OpenBabel11062414083D

 53 58  0  0  1  0  0  0  0  0999 V2000
  181.5610  176.4510  138.9610 C   0  0  2  0  0  3  0  0  0  0  0  0
  180.7810  171.9800  137.6430 C   0  0  0  0  0  2  0  0  0  0  0  0
  182.8630  172.5130  136.3640 C   0  0  0  0  0  1  0  0  0  0  0  0
  181.9340  175.6320  136.5850 C   0  0  0  0  0  2  0  0  0  0  0  0
  179.8450  173.0310  138.2380 C   0  0  0  0  0  2  0  0  0  0  0  0
  181.7770  176.8550  137.4920 C   0  0  2  0  0  3  0  0  0  0  0  0
  180.6570  174.8120  136.6460 C   0  0  2  0  0  3  0  0  0  0  0  0
  180.4210  174.8320  140.3080 O   0  0  0  0  0  0  0  0  0  0  0  0
  180.7350  175.1960  139.1420 C   0  0  0  0  0  0  0  0  0  0  0  0
  181.3570  172.3730  136.2740 C   0  0  2  0  0  3  0  0  0  0  0  0
  180.3960  174.3650  138.0190 N   0  0  0  0  0  0  0  0  0  0  0  0
  180.7200  173.6320  135.6640 C   0  0  0  0  0  2  0  0  0  0  0  0
  179.6760  178.0000  139.5910 C   0  0  0  0  0  3  0  0  0  0  0  0
  181.2740  179.3140  141.4670 C   0  0  0  0  0  3  0  0  0  0  0  0
  179.1490  179.0550  140.3400 C   0  0  0  0  0  3  0  0  0  0  0  0
  179.9480  179.7110  141.2790 C   0  0  0  0  0  3  0  0  0  0  0  0
  181.8130  178.2630  140.7180 C   0  0  0  0  0  0  0  0  0  0  0  0
  181.0080  177.5950  139.7710 C   0  0  0  0  0  0  0  0  0  0  0  0
  183.2390  177.8710  140.9590 C   0  0  0  0  0  2  0  0  0  0  0  0
  183.6770  178.1980  142.3810 C   0  0  0  0  0  2  0  0  0  0  0  0
  184.8320  179.1930  142.3960 C   0  0  2  0  0  3  0  0  0  0  0  0
  185.1950  179.5010  141.0830 O   0  0  0  0  0  1  0  0  0  0  0  0
  186.0300  178.6090  143.1420 C   0  0  2  0  0  3  0  0  0  0  0  0
  186.6220  177.5840  142.3940 O   0  0  0  0  0  1  0  0  0  0  0  0
  186.7460  177.3110  145.1950 C   0  0  0  0  0  1  0  0  0  0  0  0
  185.2170  179.2560  145.4190 C   0  0  0  0  0  1  0  0  0  0  0  0
  185.6290  178.1000  144.5290 C   0  0  0  0  0  3  0  0  0  0  0  0
  185.3630  177.0880  136.8170 C   0  0  0  0  0  3  0  0  0  0  0  0
  182.9260  177.8250  137.3830 C   0  0  0  0  0  3  0  0  0  0  0  0
  184.1520  177.4670  137.1040 C   0  0  0  0  0  0  0  0  0  0  0  0
  185.7580  176.8960  135.3940 C   0  0  0  0  0  2  0  0  0  0  0  0
  186.5680  175.6950  135.2580 N   0  0  0  0  0  2  0  0  0  0  0  0
  187.8890  175.5770  135.7970 C   0  0  0  0  0  0  0  0  0  0  0  0
  188.8810  176.5240  135.5130 C   0  0  0  0  0  3  0  0  0  0  0  0
  190.4260  175.2910  136.8970 C   0  0  0  0  0  0  0  0  0  0  0  0
  190.1560  176.3800  136.0570 C   0  0  0  0  0  3  0  0  0  0  0  0
  189.4490  174.3790  137.1540 N   0  0  0  0  0  0  0  0  0  0  0  0
  188.2000  174.5010  136.6300 C   0  0  0  0  0  3  0  0  0  0  0  0
  191.7940  175.0810  137.4790 C   0  0  1  0  0  3  0  0  0  0  0  0
  192.8000  174.8890  136.3670 C   0  0  1  0  0  3  0  0  0  0  0  0
  192.2540  176.2590  138.1920 N   0  0  0  0  0  0  0  0  0  0  0  0
  193.8140  176.0180  136.5430 C   0  0  0  0  0  3  0  0  0  0  0  0
  193.3940  176.8700  137.6530 N   0  0  0  0  0  0  0  0  0  0  0  0
  189.7960  178.1790  143.3110 Cl  0  0  0  0  0  0  0  0  0  0  0  0
  190.2750  176.6950  139.5920 C   0  0  0  0  0  3  0  0  0  0  0  0
  189.7020  177.1430  140.7850 C   0  0  0  0  0  3  0  0  0  0  0  0
  192.4750  177.2030  140.4620 C   0  0  0  0  0  3  0  0  0  0  0  0
  190.5140  177.6210  141.8160 C   0  0  0  0  0  0  0  0  0  0  0  0
  191.9000  177.6520  141.6550 C   0  0  0  0  0  3  0  0  0  0  0  0
  191.6690  176.7210  139.4210 C   0  0  0  0  0  0  0  0  0  0  0  0
  192.7020  172.3670  136.1110 N   0  0  0  0  0  2  0  0  0  0  0  0
  193.4470  173.5340  136.4500 C   0  0  0  0  0  0  0  0  0  0  0  0
  194.5400  173.3960  137.1260 N   0  0  0  0  0  1  0  0  0  0  0  0
  1  9  1  0  0  0  0
  1 18  1  1  0  0  0
  2  5  1  0  0  0  0
  4  7  1  0  0  0  0
  4  6  1  0  0  0  0
  6 29  1  1  0  0  0
  6  1  1  0  0  0  0
  7 12  1  6  0  0  0
  7 11  1  0  0  0  0
  9  8  2  0  0  0  0
 10  3  1  1  0  0  0
 10  2  1  0  0  0  0
 11  5  1  0  0  0  0
 11  9  1  0  0  0  0
 12 10  1  0  0  0  0
 13 18  2  0  0  0  0
 13 15  1  0  0  0  0
 15 16  2  0  0  0  0
 16 14  1  0  0  0  0
 17 19  1  0  0  0  0
 17 14  2  0  0  0  0
 18 17  1  0  0  0  0
 19 20  1  0  0  0  0
 20 21  1  0  0  0  0
 21 22  1  6  0  0  0
 21 23  1  0  0  0  0
 23 24  1  6  0  0  0
 23 27  1  0  0  0  0
 27 25  1  0  0  0  0
 27 26  1  0  0  0  0
 28 30  2  0  0  0  0
 30 29  2  0  0  0  0
 31 28  1  0  0  0  0
 32 31  1  0  0  0  0
 32 33  1  0  0  0  0
 33 38  1  0  0  0  0
 34 33  2  0  0  0  0
 34 36  1  0  0  0  0
 35 37  1  0  0  0  0
 36 35  2  0  0  0  0
 38 37  2  0  0  0  0
 39 35  1  6  0  0  0
 39 41  1  0  0  0  0
 40 52  1  1  0  0  0
 40 42  1  0  0  0  0
 40 39  1  0  0  0  0
 41 50  1  0  0  0  0
 42 43  2  0  0  0  0
 43 41  1  0  0  0  0
 45 46  1  0  0  0  0
 46 48  2  0  0  0  0
 47 49  2  0  0  0  0
 48 44  1  0  0  0  0
 49 48  1  0  0  0  0
 50 45  2  0  0  0  0
 50 47  1  0  0  0  0
 51 52  2  0  0  0  0
 52 53  1  0  0  0  0
M  END
>  <MODEL>
1

>  <REMARK>
 VINA RESULT:      -7.6      0.000      0.000
  Name = 
  13 active torsions:
  status: ('A' for Active; 'I' for Inactive)
    1  A    between atoms: C_1  and  C_29
    2  A    between atoms: C_2  and  C_10
    3  A    between atoms: C_3  and  N_49
    4  A    between atoms: N_4  and  C_48
    5  A    between atoms: C_5  and  C_27
    6  A    between atoms: C_5  and  C_36
    7  A    between atoms: C_8  and  C_32
    8  A    between atoms: C_9  and  C_40
    9  A    between atoms: C_12  and  C_25
   10  A    between atoms: C_21  and  C_45
   11  A    between atoms: C_21  and  C_51
   12  A    between atoms: C_27  and  C_45
   13  A    between atoms: C_32  and  N_49
                            x       y       z     vdW  Elec       q    Type
                         _______ _______ _______ _____ _____    ______ ____

>  <TORSDO>
F 13

$$$$
=
 OpenBabel11062414083D

 53 58  0  0  1  0  0  0  0  0999 V2000
  189.7200  175.6430  135.2250 C   0  0  2  0  0  3  0  0  0  0  0  0
  194.2460  174.2820  135.2470 C   0  0  0  0  0  2  0  0  0  0  0  0
  193.0970  172.1570  134.5980 C   0  0  0  0  0  1  0  0  0  0  0  0
  190.4720  173.3790  136.1000 C   0  0  0  0  0  2  0  0  0  0  0  0
  193.5490  175.4670  135.9130 C   0  0  0  0  0  2  0  0  0  0  0  0
  189.3350  174.4020  136.0500 C   0  0  2  0  0  3  0  0  0  0  0  0
  191.6720  174.0180  136.7760 C   0  0  2  0  0  3  0  0  0  0  0  0
  191.5660  177.1080  134.8020 O   0  0  0  0  0  0  0  0  0  0  0  0
  191.1710  176.0500  135.3620 C   0  0  0  0  0  0  0  0  0  0  0  0
  193.7440  172.9160  135.7400 C   0  0  2  0  0  3  0  0  0  0  0  0
  192.1190  175.1990  136.0290 N   0  0  0  0  0  0  0  0  0  0  0  0
  192.8050  172.9940  136.9550 C   0  0  0  0  0  2  0  0  0  0  0  0
  187.7770  177.1180  134.5940 C   0  0  0  0  0  3  0  0  0  0  0  0
  188.0590  178.6270  136.9280 C   0  0  0  0  0  3  0  0  0  0  0  0
  186.9100  178.1850  134.8460 C   0  0  0  0  0  3  0  0  0  0  0  0
  187.0500  178.9370  136.0130 C   0  0  0  0  0  3  0  0  0  0  0  0
  188.9360  177.5650  136.6830 C   0  0  0  0  0  0  0  0  0  0  0  0
  188.7950  176.8000  135.5060 C   0  0  0  0  0  0  0  0  0  0  0  0
  189.9990  177.2680  137.6960 C   0  0  0  0  0  2  0  0  0  0  0  0
  189.8010  178.0800  138.9700 C   0  0  0  0  0  2  0  0  0  0  0  0
  190.1630  177.2720  140.2110 C   0  0  2  0  0  3  0  0  0  0  0  0
  190.5450  175.9840  139.8300 O   0  0  0  0  0  1  0  0  0  0  0  0
  188.9730  177.1990  141.1670 C   0  0  2  0  0  3  0  0  0  0  0  0
  188.3830  178.4600  141.3120 O   0  0  0  0  0  1  0  0  0  0  0  0
  190.2470  177.6190  143.3140 C   0  0  0  0  0  1  0  0  0  0  0  0
  188.1640  176.2660  143.3430 C   0  0  0  0  0  1  0  0  0  0  0  0
  189.3880  176.6390  142.5290 C   0  0  0  0  0  3  0  0  0  0  0  0
  186.3510  172.5550  137.0760 C   0  0  0  0  0  3  0  0  0  0  0  0
  188.0380  173.8240  135.5440 C   0  0  0  0  0  3  0  0  0  0  0  0
  187.1870  173.1830  136.3020 C   0  0  0  0  0  0  0  0  0  0  0  0
  185.3660  173.3300  137.8800 C   0  0  0  0  0  2  0  0  0  0  0  0
  184.8810  174.4690  137.1130 N   0  0  0  0  0  2  0  0  0  0  0  0
  184.2110  175.5840  137.7090 C   0  0  0  0  0  0  0  0  0  0  0  0
  183.0740  175.4120  138.5100 C   0  0  0  0  0  3  0  0  0  0  0  0
  182.9740  177.7980  138.8490 C   0  0  0  0  0  0  0  0  0  0  0  0
  182.4480  176.5200  139.0770 C   0  0  0  0  0  3  0  0  0  0  0  0
  184.0760  177.9440  138.0620 N   0  0  0  0  0  0  0  0  0  0  0  0
  184.6980  176.8750  137.4980 C   0  0  0  0  0  3  0  0  0  0  0  0
  182.3130  179.0210  139.4150 C   0  0  1  0  0  3  0  0  0  0  0  0
  181.0010  179.2690  138.7060 C   0  0  1  0  0  3  0  0  0  0  0  0
  181.9500  178.8320  140.8070 N   0  0  0  0  0  0  0  0  0  0  0  0
  179.9370  179.2110  139.8000 C   0  0  0  0  0  3  0  0  0  0  0  0
  180.5740  178.8800  141.0720 N   0  0  0  0  0  0  0  0  0  0  0  0
  185.9420  178.3310  145.2500 Cl  0  0  0  0  0  0  0  0  0  0  0  0
  182.5200  178.9250  143.2010 C   0  0  0  0  0  3  0  0  0  0  0  0
  183.4510  178.8080  144.2370 C   0  0  0  0  0  3  0  0  0  0  0  0
  184.2460  178.3820  141.5940 C   0  0  0  0  0  3  0  0  0  0  0  0
  184.7780  178.4790  143.9530 C   0  0  0  0  0  0  0  0  0  0  0  0
  185.1760  178.2660  142.6310 C   0  0  0  0  0  3  0  0  0  0  0  0
  182.9110  178.7120  141.8690 C   0  0  0  0  0  0  0  0  0  0  0  0
  180.7670  180.6570  136.5960 N   0  0  0  0  0  2  0  0  0  0  0  0
  181.0090  180.5970  137.9990 C   0  0  0  0  0  0  0  0  0  0  0  0
  181.5480  181.6180  138.5790 N   0  0  0  0  0  1  0  0  0  0  0  0
  1  9  1  0  0  0  0
  1 18  1  1  0  0  0
  1  6  1  0  0  0  0
  2 10  1  0  0  0  0
  2  5  1  0  0  0  0
  5 11  1  0  0  0  0
  6 29  1  6  0  0  0
  6  4  1  0  0  0  0
  7  4  1  6  0  0  0
  7 12  1  0  0  0  0
  8  9  2  0  0  0  0
  9 11  1  0  0  0  0
 10  3  1  6  0  0  0
 10 12  1  0  0  0  0
 11  7  1  0  0  0  0
 13 15  2  0  0  0  0
 13 18  1  0  0  0  0
 15 16  1  0  0  0  0
 16 14  2  0  0  0  0
 17 14  1  0  0  0  0
 17 19  1  0  0  0  0
 18 17  2  0  0  0  0
 19 20  1  0  0  0  0
 20 21  1  0  0  0  0
 21 22  1  6  0  0  0
 21 23  1  0  0  0  0
 23 24  1  1  0  0  0
 23 27  1  0  0  0  0
 27 25  1  0  0  0  0
 27 26  1  0  0  0  0
 28 31  1  0  0  0  0
 29 30  2  0  0  0  0
 30 28  2  0  0  0  0
 32 33  1  0  0  0  0
 32 31  1  0  0  0  0
 33 34  1  0  0  0  0
 34 36  2  0  0  0  0
 35 36  1  0  0  0  0
 37 35  2  0  0  0  0
 38 33  2  0  0  0  0
 38 37  1  0  0  0  0
 39 35  1  6  0  0  0
 39 41  1  0  0  0  0
 40 52  1  1  0  0  0
 40 39  1  0  0  0  0
 40 42  1  0  0  0  0
 41 43  1  0  0  0  0
 41 50  1  0  0  0  0
 42 43  2  0  0  0  0
 45 46  1  0  0  0  0
 47 50  1  0  0  0  0
 47 49  2  0  0  0  0
 48 46  2  0  0  0  0
 48 44  1  0  0  0  0
 49 48  1  0  0  0  0
 50 45  2  0  0  0  0
 51 52  2  0  0  0  0
 52 53  1  0  0  0  0
M  END
>  <MODEL>
2

>  <REMARK>
 VINA RESULT:      -7.2      2.890      9.241
  Name = 
  13 active torsions:
  status: ('A' for Active; 'I' for Inactive)
    1  A    between atoms: C_1  and  C_29
    2  A    between atoms: C_2  and  C_10
    3  A    between atoms: C_3  and  N_49
    4  A    between atoms: N_4  and  C_48
    5  A    between atoms: C_5  and  C_27
    6  A    between atoms: C_5  and  C_36
    7  A    between atoms: C_8  and  C_32
    8  A    between atoms: C_9  and  C_40
    9  A    between atoms: C_12  and  C_25
   10  A    between atoms: C_21  and  C_45
   11  A    between atoms: C_21  and  C_51
   12  A    between atoms: C_27  and  C_45
   13  A    between atoms: C_32  and  N_49
                            x       y       z     vdW  Elec       q    Type
                         _______ _______ _______ _____ _____    ______ ____

>  <TORSDO>
F 13

$$$$
=
 OpenBabel11062414083D

 53 58  0  0  1  0  0  0  0  0999 V2000
  184.6480  175.0250  136.4370 C   0  0  2  0  0  3  0  0  0  0  0  0
  187.8310  171.5320  136.3620 C   0  0  0  0  0  2  0  0  0  0  0  0
  189.2700  173.4950  136.9400 C   0  0  0  0  0  1  0  0  0  0  0  0
  186.9860  175.3130  135.4840 C   0  0  0  0  0  2  0  0  0  0  0  0
  186.4410  171.6390  135.7380 C   0  0  0  0  0  2  0  0  0  0  0  0
  185.5750  175.8970  135.5710 C   0  0  2  0  0  3  0  0  0  0  0  0
  186.9090  173.9460  134.8290 C   0  0  2  0  0  3  0  0  0  0  0  0
  184.1400  172.7320  136.9070 O   0  0  0  0  0  0  0  0  0  0  0  0
  184.9050  173.5380  136.3120 C   0  0  0  0  0  0  0  0  0  0  0  0
  188.8300  172.5680  135.8240 C   0  0  2  0  0  3  0  0  0  0  0  0
  186.0610  173.0430  135.6150 N   0  0  0  0  0  0  0  0  0  0  0  0
  188.3160  173.3650  134.6140 C   0  0  0  0  0  2  0  0  0  0  0  0
  182.6670  175.2730  134.8990 C   0  0  0  0  0  3  0  0  0  0  0  0
  181.0130  176.0270  137.0200 C   0  0  0  0  0  3  0  0  0  0  0  0
  181.3220  175.5700  134.6650 C   0  0  0  0  0  3  0  0  0  0  0  0
  180.4950  175.9460  135.7250 C   0  0  0  0  0  3  0  0  0  0  0  0
  182.3600  175.7370  137.2650 C   0  0  0  0  0  0  0  0  0  0  0  0
  183.1970  175.3540  136.1970 C   0  0  0  0  0  0  0  0  0  0  0  0
  182.8680  175.8340  138.6720 C   0  0  0  0  0  2  0  0  0  0  0  0
  182.5500  177.1900  139.2890 C   0  0  0  0  0  2  0  0  0  0  0  0
  183.7770  178.0940  139.3180 C   0  0  2  0  0  3  0  0  0  0  0  0
  184.1030  178.3900  140.6430 O   0  0  0  0  0  1  0  0  0  0  0  0
  183.5070  179.3860  138.5490 C   0  0  2  0  0  3  0  0  0  0  0  0
  184.2550  180.4420  139.0850 O   0  0  0  0  0  1  0  0  0  0  0  0
  181.7690  181.2080  138.8150 C   0  0  0  0  0  1  0  0  0  0  0  0
  181.3850  179.3390  137.2240 C   0  0  0  0  0  1  0  0  0  0  0  0
  182.0160  179.7310  138.5450 C   0  0  0  0  0  3  0  0  0  0  0  0
  187.1340  178.2120  137.9320 C   0  0  0  0  0  3  0  0  0  0  0  0
  185.5510  177.3230  136.0590 C   0  0  0  0  0  3  0  0  0  0  0  0
  186.3370  177.7790  137.0000 C   0  0  0  0  0  0  0  0  0  0  0  0
  188.5120  178.6520  137.5790 C   0  0  0  0  0  2  0  0  0  0  0  0
  189.4920  177.7870  138.2180 N   0  0  0  0  0  2  0  0  0  0  0  0
  189.5430  177.5750  139.6330 C   0  0  0  0  0  0  0  0  0  0  0  0
  188.9610  178.4800  140.5290 C   0  0  0  0  0  3  0  0  0  0  0  0
  189.6650  177.0840  142.3670 C   0  0  0  0  0  0  0  0  0  0  0  0
  189.0260  178.2400  141.9000 C   0  0  0  0  0  3  0  0  0  0  0  0
  190.2310  176.2220  141.4780 N   0  0  0  0  0  0  0  0  0  0  0  0
  190.1800  176.4390  140.1380 C   0  0  0  0  0  3  0  0  0  0  0  0
  189.7860  176.8040  143.8360 C   0  0  1  0  0  3  0  0  0  0  0  0
  191.2370  176.8780  144.2550 C   0  0  1  0  0  3  0  0  0  0  0  0
  189.1220  177.8240  144.6270 N   0  0  0  0  0  0  0  0  0  0  0  0
  191.2940  177.9790  145.3120 C   0  0  0  0  0  3  0  0  0  0  0  0
  189.9660  178.5700  145.4620 N   0  0  0  0  0  0  0  0  0  0  0  0
  183.1780  178.5840  144.7610 Cl  0  0  0  0  0  0  0  0  0  0  0  0
  187.0650  178.4550  145.8250 C   0  0  0  0  0  3  0  0  0  0  0  0
  185.6790  178.6330  145.8570 C   0  0  0  0  0  3  0  0  0  0  0  0
  186.9170  177.7320  143.5210 C   0  0  0  0  0  3  0  0  0  0  0  0
  184.9120  178.3590  144.7220 C   0  0  0  0  0  0  0  0  0  0  0  0
  185.5310  177.9090  143.5540 C   0  0  0  0  0  3  0  0  0  0  0  0
  187.6970  178.0040  144.6550 C   0  0  0  0  0  0  0  0  0  0  0  0
  192.1000  175.4420  146.1590 N   0  0  0  0  0  1  0  0  0  0  0  0
  191.7140  175.5570  144.7930 C   0  0  0  0  0  0  0  0  0  0  0  0
  192.0820  174.6340  143.9660 N   0  0  0  0  0  2  0  0  0  0  0  0
  1 18  1  6  0  0  0
  4  6  1  0  0  0  0
  5  2  1  0  0  0  0
  6 29  1  1  0  0  0
  6  1  1  0  0  0  0
  7 12  1  1  0  0  0
  7  4  1  0  0  0  0
  7 11  1  0  0  0  0
  9  1  1  0  0  0  0
  9  8  2  0  0  0  0
 10  2  1  0  0  0  0
 10  3  1  1  0  0  0
 11  5  1  0  0  0  0
 11  9  1  0  0  0  0
 12 10  1  0  0  0  0
 13 18  1  0  0  0  0
 14 17  1  0  0  0  0
 15 13  2  0  0  0  0
 15 16  1  0  0  0  0
 16 14  2  0  0  0  0
 17 19  1  0  0  0  0
 18 17  2  0  0  0  0
 19 20  1  0  0  0  0
 20 21  1  0  0  0  0
 21 22  1  1  0  0  0
 23 24  1  1  0  0  0
 23 21  1  0  0  0  0
 26 27  1  0  0  0  0
 27 23  1  0  0  0  0
 27 25  1  0  0  0  0
 29 30  2  0  0  0  0
 30 28  2  0  0  0  0
 31 28  1  0  0  0  0
 31 32  1  0  0  0  0
 32 33  1  0  0  0  0
 33 38  2  0  0  0  0
 33 34  1  0  0  0  0
 34 36  2  0  0  0  0
 36 35  1  0  0  0  0
 37 35  2  0  0  0  0
 38 37  1  0  0  0  0
 39 35  1  6  0  0  0
 39 40  1  0  0  0  0
 39 41  1  0  0  0  0
 40 52  1  1  0  0  0
 40 42  1  0  0  0  0
 41 50  1  0  0  0  0
 41 43  1  0  0  0  0
 42 43  2  0  0  0  0
 45 46  1  0  0  0  0
 47 49  2  0  0  0  0
 47 50  1  0  0  0  0
 48 44  1  0  0  0  0
 48 46  2  0  0  0  0
 49 48  1  0  0  0  0
 50 45  2  0  0  0  0
 52 51  1  0  0  0  0
 53 52  2  0  0  0  0
M  END
>  <MODEL>
3

>  <REMARK>
 VINA RESULT:      -7.1      3.080      6.266
  Name = 
  13 active torsions:
  status: ('A' for Active; 'I' for Inactive)
    1  A    between atoms: C_1  and  C_29
    2  A    between atoms: C_2  and  C_10
    3  A    between atoms: C_3  and  N_49
    4  A    between atoms: N_4  and  C_48
    5  A    between atoms: C_5  and  C_27
    6  A    between atoms: C_5  and  C_36
    7  A    between atoms: C_8  and  C_32
    8  A    between atoms: C_9  and  C_40
    9  A    between atoms: C_12  and  C_25
   10  A    between atoms: C_21  and  C_45
   11  A    between atoms: C_21  and  C_51
   12  A    between atoms: C_27  and  C_45
   13  A    between atoms: C_32  and  N_49
                            x       y       z     vdW  Elec       q    Type
                         _______ _______ _______ _____ _____    ______ ____

>  <TORSDO>
F 13

$$$$
=
 OpenBabel11062414083D

 53 58  0  0  1  0  0  0  0  0999 V2000
  183.0260  176.5770  138.2850 C   0  0  2  0  0  3  0  0  0  0  0  0
  186.4260  174.5370  135.7130 C   0  0  0  0  0  2  0  0  0  0  0  0
  187.5670  176.6330  136.4610 C   0  0  0  0  0  1  0  0  0  0  0  0
  184.5730  177.8930  136.7570 C   0  0  0  0  0  2  0  0  0  0  0  0
  184.9120  174.3330  135.7210 C   0  0  0  0  0  2  0  0  0  0  0  0
  183.2720  177.9150  137.5640 C   0  0  2  0  0  3  0  0  0  0  0  0
  184.4670  176.8160  135.6910 C   0  0  2  0  0  3  0  0  0  0  0  0
  183.2330  174.2130  137.9640 O   0  0  0  0  0  0  0  0  0  0  0  0
  183.4750  175.3610  137.5030 C   0  0  0  0  0  0  0  0  0  0  0  0
  186.8530  175.9560  135.3070 C   0  0  2  0  0  3  0  0  0  0  0  0
  184.2580  175.5000  136.3060 N   0  0  0  0  0  0  0  0  0  0  0  0
  185.7040  176.8310  134.7790 C   0  0  0  0  0  2  0  0  0  0  0  0
  181.3000  176.0150  140.0330 C   0  0  0  0  0  3  0  0  0  0  0  0
  179.2110  176.6440  138.2890 C   0  0  0  0  0  3  0  0  0  0  0  0
  179.9740  175.8960  140.4580 C   0  0  0  0  0  3  0  0  0  0  0  0
  178.9310  176.2120  139.5870 C   0  0  0  0  0  3  0  0  0  0  0  0
  180.5340  176.7610  137.8500 C   0  0  0  0  0  0  0  0  0  0  0  0
  181.5920  176.4460  138.7290 C   0  0  0  0  0  0  0  0  0  0  0  0
  180.7840  177.2330  136.4500 C   0  0  0  0  0  2  0  0  0  0  0  0
  179.5780  177.9730  135.8850 C   0  0  0  0  0  2  0  0  0  0  0  0
  179.9920  179.2470  135.1580 C   0  0  2  0  0  3  0  0  0  0  0  0
  181.3850  179.2950  135.0650 O   0  0  0  0  0  1  0  0  0  0  0  0
  179.4790  180.4780  135.9030 C   0  0  2  0  0  3  0  0  0  0  0  0
  179.3560  181.5650  135.0280 O   0  0  0  0  0  1  0  0  0  0  0  0
  180.7130  182.3220  137.1230 C   0  0  0  0  0  1  0  0  0  0  0  0
  179.7520  180.4140  138.3900 C   0  0  0  0  0  1  0  0  0  0  0  0
  180.3890  180.8360  137.0800 C   0  0  0  0  0  3  0  0  0  0  0  0
  183.0360  178.7030  141.1260 C   0  0  0  0  0  3  0  0  0  0  0  0
  183.2030  179.0550  138.5470 C   0  0  0  0  0  3  0  0  0  0  0  0
  183.1150  178.8900  139.8410 C   0  0  0  0  0  0  0  0  0  0  0  0
  184.2770  178.4680  141.9150 C   0  0  0  0  0  2  0  0  0  0  0  0
  185.4020  179.1470  141.2900 N   0  0  0  0  0  2  0  0  0  0  0  0
  186.6640  178.5140  141.0520 C   0  0  0  0  0  0  0  0  0  0  0  0
  187.2330  178.4750  139.7730 C   0  0  0  0  0  3  0  0  0  0  0  0
  189.1280  177.2830  140.6730 C   0  0  0  0  0  0  0  0  0  0  0  0
  188.4640  177.8540  139.5780 C   0  0  0  0  0  3  0  0  0  0  0  0
  188.5530  177.3260  141.9060 N   0  0  0  0  0  0  0  0  0  0  0  0
  187.3520  177.9260  142.1160 C   0  0  0  0  0  3  0  0  0  0  0  0
  190.4410  176.5760  140.5010 C   0  0  1  0  0  3  0  0  0  0  0  0
  190.9430  176.7630  139.0870 C   0  0  1  0  0  3  0  0  0  0  0  0
  191.4720  177.1620  141.3380 N   0  0  0  0  0  0  0  0  0  0  0  0
  192.2920  177.4640  139.2300 C   0  0  0  0  0  3  0  0  0  0  0  0
  192.5440  177.7380  140.6430 N   0  0  0  0  0  0  0  0  0  0  0  0
  191.4710  176.8190  147.3230 Cl  0  0  0  0  0  0  0  0  0  0  0  0
  191.2200  178.2170  143.5490 C   0  0  0  0  0  3  0  0  0  0  0  0
  191.2200  178.1380  144.9450 C   0  0  0  0  0  3  0  0  0  0  0  0
  191.7280  175.8560  143.4180 C   0  0  0  0  0  3  0  0  0  0  0  0
  191.4740  176.9190  145.5760 C   0  0  0  0  0  0  0  0  0  0  0  0
  191.7280  175.7770  144.8140 C   0  0  0  0  0  3  0  0  0  0  0  0
  191.4740  177.0750  142.7730 C   0  0  0  0  0  0  0  0  0  0  0  0
  192.3530  174.9500  138.0090 N   0  0  0  0  0  1  0  0  0  0  0  0
  191.0670  175.4420  138.3780 C   0  0  0  0  0  0  0  0  0  0  0  0
  190.0230  174.9250  137.8200 N   0  0  0  0  0  2  0  0  0  0  0  0
  1 18  1  6  0  0  0
  2  5  1  0  0  0  0
  4  6  1  0  0  0  0
  5 11  1  0  0  0  0
  6  1  1  0  0  0  0
  6 29  1  1  0  0  0
  7 12  1  1  0  0  0
  7 11  1  0  0  0  0
  7  4  1  0  0  0  0
  9  8  2  0  0  0  0
  9  1  1  0  0  0  0
 10  2  1  0  0  0  0
 10  3  1  1  0  0  0
 11  9  1  0  0  0  0
 12 10  1  0  0  0  0
 13 15  1  0  0  0  0
 14 16  1  0  0  0  0
 16 15  2  0  0  0  0
 17 14  2  0  0  0  0
 17 18  1  0  0  0  0
 18 13  2  0  0  0  0
 19 17  1  0  0  0  0
 20 19  1  0  0  0  0
 21 22  1  1  0  0  0
 21 20  1  0  0  0  0
 21 23  1  0  0  0  0
 23 24  1  6  0  0  0
 23 27  1  0  0  0  0
 27 25  1  0  0  0  0
 27 26  1  0  0  0  0
 28 31  1  0  0  0  0
 29 30  2  0  0  0  0
 30 28  2  0  0  0  0
 32 31  1  0  0  0  0
 33 32  1  0  0  0  0
 33 38  1  0  0  0  0
 34 33  2  0  0  0  0
 35 37  1  0  0  0  0
 36 34  1  0  0  0  0
 36 35  2  0  0  0  0
 37 38  2  0  0  0  0
 39 35  1  6  0  0  0
 39 41  1  0  0  0  0
 40 52  1  1  0  0  0
 40 42  1  0  0  0  0
 40 39  1  0  0  0  0
 41 50  1  0  0  0  0
 42 43  2  0  0  0  0
 43 41  1  0  0  0  0
 45 46  1  0  0  0  0
 46 48  2  0  0  0  0
 47 49  2  0  0  0  0
 48 44  1  0  0  0  0
 49 48  1  0  0  0  0
 50 47  1  0  0  0  0
 50 45  2  0  0  0  0
 51 52  1  0  0  0  0
 53 52  2  0  0  0  0
M  END
>  <MODEL>
4

>  <REMARK>
 VINA RESULT:      -6.7      2.985      5.508
  Name = 
  13 active torsions:
  status: ('A' for Active; 'I' for Inactive)
    1  A    between atoms: C_1  and  C_29
    2  A    between atoms: C_2  and  C_10
    3  A    between atoms: C_3  and  N_49
    4  A    between atoms: N_4  and  C_48
    5  A    between atoms: C_5  and  C_27
    6  A    between atoms: C_5  and  C_36
    7  A    between atoms: C_8  and  C_32
    8  A    between atoms: C_9  and  C_40
    9  A    between atoms: C_12  and  C_25
   10  A    between atoms: C_21  and  C_45
   11  A    between atoms: C_21  and  C_51
   12  A    between atoms: C_27  and  C_45
   13  A    between atoms: C_32  and  N_49
                            x       y       z     vdW  Elec       q    Type
                         _______ _______ _______ _____ _____    ______ ____

>  <TORSDO>
F 13

$$$$
=
 OpenBabel11062414083D

 53 58  0  0  1  0  0  0  0  0999 V2000
  190.4830  176.9730  142.6500 C   0  0  2  0  0  3  0  0  0  0  0  0
  190.8100  175.8760  147.2360 C   0  0  0  0  0  2  0  0  0  0  0  0
  188.4430  176.6700  147.0890 C   0  0  0  0  0  1  0  0  0  0  0  0
  189.4110  178.3730  144.4800 C   0  0  0  0  0  2  0  0  0  0  0  0
  191.8860  176.1840  146.1960 C   0  0  0  0  0  2  0  0  0  0  0  0
  189.8390  178.3230  143.0120 C   0  0  2  0  0  3  0  0  0  0  0  0
  190.6440  178.2110  145.3520 C   0  0  2  0  0  3  0  0  0  0  0  0
  191.9660  175.3120  143.5330 O   0  0  0  0  0  0  0  0  0  0  0  0
  191.3190  176.3700  143.7590 C   0  0  0  0  0  0  0  0  0  0  0  0
  189.8530  177.0490  147.4970 C   0  0  2  0  0  3  0  0  0  0  0  0
  191.3020  176.9270  145.0840 N   0  0  0  0  0  0  0  0  0  0  0  0
  190.2840  178.3690  146.8380 C   0  0  0  0  0  2  0  0  0  0  0  0
  192.6120  177.4320  141.3830 C   0  0  0  0  0  3  0  0  0  0  0  0
  191.3850  176.8380  138.9450 C   0  0  0  0  0  3  0  0  0  0  0  0
  193.3440  177.5100  140.1960 C   0  0  0  0  0  3  0  0  0  0  0  0
  192.7310  177.2120  138.9770 C   0  0  0  0  0  3  0  0  0  0  0  0
  190.6420  176.7620  140.1280 C   0  0  0  0  0  0  0  0  0  0  0  0
  191.2590  177.0600  141.3610 C   0  0  0  0  0  0  0  0  0  0  0  0
  189.2030  176.3520  140.0430 C   0  0  0  0  0  2  0  0  0  0  0  0
  188.6100  176.6700  138.6760 C   0  0  0  0  0  2  0  0  0  0  0  0
  188.3540  178.1630  138.5100 C   0  0  2  0  0  3  0  0  0  0  0  0
  187.0430  178.4530  138.8930 O   0  0  0  0  0  1  0  0  0  0  0  0
  188.5760  178.5860  137.0590 C   0  0  2  0  0  3  0  0  0  0  0  0
  187.7170  179.6380  136.7170 O   0  0  0  0  0  1  0  0  0  0  0  0
  187.0990  177.5150  135.3040 C   0  0  0  0  0  1  0  0  0  0  0  0
  189.5690  177.3040  135.1530 C   0  0  0  0  0  1  0  0  0  0  0  0
  188.3900  177.4080  136.1010 C   0  0  0  0  0  3  0  0  0  0  0  0
  186.2800  177.7590  142.3870 C   0  0  0  0  0  3  0  0  0  0  0  0
  188.7150  178.6350  142.0560 C   0  0  0  0  0  3  0  0  0  0  0  0
  187.4930  178.1990  142.2100 C   0  0  0  0  0  0  0  0  0  0  0  0
  185.3510  178.5020  143.2820 C   0  0  0  0  0  2  0  0  0  0  0  0
  184.5550  179.4420  142.5060 N   0  0  0  0  0  2  0  0  0  0  0  0
  183.7760  179.0550  141.3690 C   0  0  0  0  0  0  0  0  0  0  0  0
  182.5130  178.4680  141.5130 C   0  0  0  0  0  3  0  0  0  0  0  0
  182.3160  178.3480  139.1110 C   0  0  0  0  0  0  0  0  0  0  0  0
  181.7810  178.1070  140.3840 C   0  0  0  0  0  3  0  0  0  0  0  0
  183.5490  178.9130  138.9950 N   0  0  0  0  0  0  0  0  0  0  0  0
  184.2790  179.2700  140.0840 C   0  0  0  0  0  3  0  0  0  0  0  0
  181.5750  177.9460  137.8700 C   0  0  1  0  0  3  0  0  0  0  0  0
  180.9600  176.5770  138.0600 C   0  0  1  0  0  3  0  0  0  0  0  0
  180.4470  178.8240  137.6170 N   0  0  0  0  0  0  0  0  0  0  0  0
  179.4580  176.7840  137.8820 C   0  0  0  0  0  3  0  0  0  0  0  0
  179.1910  178.2040  137.6660 N   0  0  0  0  0  0  0  0  0  0  0  0
  181.0130  184.5690  136.0030 Cl  0  0  0  0  0  0  0  0  0  0  0  0
  180.4660  180.5750  135.8860 C   0  0  0  0  0  3  0  0  0  0  0  0
  180.5980  181.9150  135.5090 C   0  0  0  0  0  3  0  0  0  0  0  0
  180.8390  181.1920  138.1950 C   0  0  0  0  0  3  0  0  0  0  0  0
  180.8510  182.8920  136.4740 C   0  0  0  0  0  0  0  0  0  0  0  0
  180.9710  182.5310  137.8180 C   0  0  0  0  0  3  0  0  0  0  0  0
  180.5840  180.2020  137.2340 C   0  0  0  0  0  0  0  0  0  0  0  0
  180.8560  175.3910  135.8200 N   0  0  0  0  0  2  0  0  0  0  0  0
  181.5140  175.5920  137.0680 C   0  0  0  0  0  0  0  0  0  0  0  0
  182.3700  174.7090  137.4650 N   0  0  0  0  0  1  0  0  0  0  0  0
  1 18  1  6  0  0  0
  1  6  1  0  0  0  0
  1  9  1  0  0  0  0
  2 10  1  0  0  0  0
  5  2  1  0  0  0  0
  6 29  1  6  0  0  0
  6  4  1  0  0  0  0
  7  4  1  6  0  0  0
  7 12  1  0  0  0  0
  8  9  2  0  0  0  0
  9 11  1  0  0  0  0
 10  3  1  6  0  0  0
 11  7  1  0  0  0  0
 11  5  1  0  0  0  0
 12 10  1  0  0  0  0
 14 16  2  0  0  0  0
 14 17  1  0  0  0  0
 15 13  2  0  0  0  0
 16 15  1  0  0  0  0
 17 18  2  0  0  0  0
 18 13  1  0  0  0  0
 19 17  1  0  0  0  0
 20 19  1  0  0  0  0
 21 20  1  0  0  0  0
 21 22  1  6  0  0  0
 23 24  1  6  0  0  0
 23 21  1  0  0  0  0
 25 27  1  0  0  0  0
 26 27  1  0  0  0  0
 27 23  1  0  0  0  0
 28 31  1  0  0  0  0
 29 30  2  0  0  0  0
 30 28  2  0  0  0  0
 32 31  1  0  0  0  0
 33 34  1  0  0  0  0
 33 32  1  0  0  0  0
 35 36  1  0  0  0  0
 36 34  2  0  0  0  0
 37 35  2  0  0  0  0
 37 38  1  0  0  0  0
 38 33  2  0  0  0  0
 39 40  1  0  0  0  0
 39 35  1  1  0  0  0
 40 52  1  6  0  0  0
 41 43  1  0  0  0  0
 41 39  1  0  0  0  0
 42 40  1  0  0  0  0
 43 42  2  0  0  0  0
 44 48  1  0  0  0  0
 45 50  1  0  0  0  0
 46 45  2  0  0  0  0
 46 48  1  0  0  0  0
 48 49  2  0  0  0  0
 49 47  1  0  0  0  0
 50 41  1  0  0  0  0
 50 47  2  0  0  0  0
 51 52  2  0  0  0  0
 52 53  1  0  0  0  0
M  END
>  <MODEL>
5

>  <REMARK>
 VINA RESULT:      -6.7      3.941     10.939
  Name = 
  13 active torsions:
  status: ('A' for Active; 'I' for Inactive)
    1  A    between atoms: C_1  and  C_29
    2  A    between atoms: C_2  and  C_10
    3  A    between atoms: C_3  and  N_49
    4  A    between atoms: N_4  and  C_48
    5  A    between atoms: C_5  and  C_27
    6  A    between atoms: C_5  and  C_36
    7  A    between atoms: C_8  and  C_32
    8  A    between atoms: C_9  and  C_40
    9  A    between atoms: C_12  and  C_25
   10  A    between atoms: C_21  and  C_45
   11  A    between atoms: C_21  and  C_51
   12  A    between atoms: C_27  and  C_45
   13  A    between atoms: C_32  and  N_49
                            x       y       z     vdW  Elec       q    Type
                         _______ _______ _______ _____ _____    ______ ____

>  <TORSDO>
F 13

$$$$
=
 OpenBabel11062414083D

 53 58  0  0  1  0  0  0  0  0999 V2000
  182.4850  176.9120  136.7320 C   0  0  2  0  0  3  0  0  0  0  0  0
  183.0180  172.2510  136.1550 C   0  0  0  0  0  2  0  0  0  0  0  0
  184.9740  172.7920  137.6170 C   0  0  0  0  0  1  0  0  0  0  0  0
  184.7550  175.8150  136.4120 C   0  0  0  0  0  2  0  0  0  0  0  0
  182.2450  173.2840  135.3370 C   0  0  0  0  0  2  0  0  0  0  0  0
  183.9730  177.1300  136.4020 C   0  0  2  0  0  3  0  0  0  0  0  0
  184.1830  174.8990  135.3440 C   0  0  2  0  0  3  0  0  0  0  0  0
  180.6800  175.3940  136.3170 O   0  0  0  0  0  0  0  0  0  0  0  0
  181.9130  175.6230  136.1830 C   0  0  0  0  0  0  0  0  0  0  0  0
  184.5320  172.5050  136.1950 C   0  0  2  0  0  3  0  0  0  0  0  0
  182.7670  174.6200  135.6070 N   0  0  0  0  0  0  0  0  0  0  0  0
  185.0090  173.6080  135.2360 C   0  0  0  0  0  2  0  0  0  0  0  0
  181.6130  178.5050  134.9860 C   0  0  0  0  0  3  0  0  0  0  0  0
  180.1210  179.9030  136.8900 C   0  0  0  0  0  3  0  0  0  0  0  0
  180.8380  179.6020  134.5990 C   0  0  0  0  0  3  0  0  0  0  0  0
  180.0920  180.2990  135.5510 C   0  0  0  0  0  3  0  0  0  0  0  0
  180.8980  178.8100  137.2890 C   0  0  0  0  0  0  0  0  0  0  0  0
  181.6510  178.1010  136.3300 C   0  0  0  0  0  0  0  0  0  0  0  0
  180.8940  178.4200  138.7360 C   0  0  0  0  0  2  0  0  0  0  0  0
  181.1410  179.6220  139.6400 C   0  0  0  0  0  2  0  0  0  0  0  0
  180.5500  179.4080  141.0280 C   0  0  2  0  0  3  0  0  0  0  0  0
  180.1980  180.6430  141.5770 O   0  0  0  0  0  1  0  0  0  0  0  0
  181.5580  178.7060  141.9360 C   0  0  2  0  0  3  0  0  0  0  0  0
  181.5150  179.2460  143.2280 O   0  0  0  0  0  1  0  0  0  0  0  0
  183.9760  179.3060  142.3890 C   0  0  0  0  0  1  0  0  0  0  0  0
  183.4210  177.4370  140.8500 C   0  0  0  0  0  1  0  0  0  0  0  0
  182.9760  178.7910  141.3650 C   0  0  0  0  0  3  0  0  0  0  0  0
  186.9080  177.9420  138.4250 C   0  0  0  0  0  3  0  0  0  0  0  0
  184.5590  178.1770  137.3140 C   0  0  0  0  0  3  0  0  0  0  0  0
  185.7330  178.0680  137.8790 C   0  0  0  0  0  0  0  0  0  0  0  0
  188.1230  178.3320  137.6580 C   0  0  0  0  0  2  0  0  0  0  0  0
  189.1890  178.7150  138.5710 N   0  0  0  0  0  2  0  0  0  0  0  0
  189.3420  178.1470  139.8760 C   0  0  0  0  0  0  0  0  0  0  0  0
  188.7950  178.7620  141.0100 C   0  0  0  0  0  3  0  0  0  0  0  0
  189.6650  176.9730  142.3750 C   0  0  0  0  0  0  0  0  0  0  0  0
  188.9600  178.1790  142.2640 C   0  0  0  0  0  3  0  0  0  0  0  0
  190.1940  176.3970  141.2620 N   0  0  0  0  0  0  0  0  0  0  0  0
  190.0460  176.9510  140.0290 C   0  0  0  0  0  3  0  0  0  0  0  0
  189.8930  176.3280  143.7120 C   0  0  1  0  0  3  0  0  0  0  0  0
  191.3730  176.1070  143.9280 C   0  0  1  0  0  3  0  0  0  0  0  0
  189.4890  177.2010  144.7980 N   0  0  0  0  0  0  0  0  0  0  0  0
  191.7170  176.8990  145.1880 C   0  0  0  0  0  3  0  0  0  0  0  0
  190.5250  177.6040  145.6520 N   0  0  0  0  0  0  0  0  0  0  0  0
  183.7920  178.6840  145.9300 Cl  0  0  0  0  0  0  0  0  0  0  0  0
  187.7900  178.2580  146.2350 C   0  0  0  0  0  3  0  0  0  0  0  0
  186.4620  178.6040  146.4990 C   0  0  0  0  0  3  0  0  0  0  0  0
  187.1010  177.2020  144.1700 C   0  0  0  0  0  3  0  0  0  0  0  0
  185.4540  178.2490  145.6010 C   0  0  0  0  0  0  0  0  0  0  0  0
  185.7730  177.5480  144.4360 C   0  0  0  0  0  3  0  0  0  0  0  0
  188.1210  177.5540  145.0660 C   0  0  0  0  0  0  0  0  0  0  0  0
  190.7810  173.6660  143.5760 N   0  0  0  0  0  2  0  0  0  0  0  0
  191.6860  174.6440  144.0800 C   0  0  0  0  0  0  0  0  0  0  0  0
  192.5820  174.2750  144.9350 N   0  0  0  0  0  1  0  0  0  0  0  0
  1 18  1  6  0  0  0
  2 10  1  0  0  0  0
  5 11  1  0  0  0  0
  5  2  1  0  0  0  0
  6  4  1  0  0  0  0
  6  1  1  0  0  0  0
  6 29  1  1  0  0  0
  7 12  1  1  0  0  0
  7 11  1  0  0  0  0
  7  4  1  0  0  0  0
  9  8  2  0  0  0  0
  9  1  1  0  0  0  0
 10  3  1  1  0  0  0
 11  9  1  0  0  0  0
 12 10  1  0  0  0  0
 13 18  1  0  0  0  0
 14 17  1  0  0  0  0
 15 13  2  0  0  0  0
 15 16  1  0  0  0  0
 16 14  2  0  0  0  0
 17 19  1  0  0  0  0
 18 17  2  0  0  0  0
 19 20  1  0  0  0  0
 20 21  1  0  0  0  0
 21 22  1  1  0  0  0
 21 23  1  0  0  0  0
 23 24  1  1  0  0  0
 26 27  1  0  0  0  0
 27 23  1  0  0  0  0
 27 25  1  0  0  0  0
 29 30  2  0  0  0  0
 30 28  2  0  0  0  0
 31 28  1  0  0  0  0
 31 32  1  0  0  0  0
 32 33  1  0  0  0  0
 33 38  2  0  0  0  0
 33 34  1  0  0  0  0
 34 36  2  0  0  0  0
 36 35  1  0  0  0  0
 37 35  2  0  0  0  0
 38 37  1  0  0  0  0
 39 35  1  6  0  0  0
 39 40  1  0  0  0  0
 39 41  1  0  0  0  0
 40 52  1  1  0  0  0
 40 42  1  0  0  0  0
 41 50  1  0  0  0  0
 41 43  1  0  0  0  0
 42 43  2  0  0  0  0
 45 46  1  0  0  0  0
 47 49  2  0  0  0  0
 47 50  1  0  0  0  0
 48 44  1  0  0  0  0
 48 46  2  0  0  0  0
 49 48  1  0  0  0  0
 50 45  2  0  0  0  0
 51 52  2  0  0  0  0
 52 53  1  0  0  0  0
M  END
>  <MODEL>
6

>  <REMARK>
 VINA RESULT:      -6.3      3.159      5.329
  Name = 
  13 active torsions:
  status: ('A' for Active; 'I' for Inactive)
    1  A    between atoms: C_1  and  C_29
    2  A    between atoms: C_2  and  C_10
    3  A    between atoms: C_3  and  N_49
    4  A    between atoms: N_4  and  C_48
    5  A    between atoms: C_5  and  C_27
    6  A    between atoms: C_5  and  C_36
    7  A    between atoms: C_8  and  C_32
    8  A    between atoms: C_9  and  C_40
    9  A    between atoms: C_12  and  C_25
   10  A    between atoms: C_21  and  C_45
   11  A    between atoms: C_21  and  C_51
   12  A    between atoms: C_27  and  C_45
   13  A    between atoms: C_32  and  N_49
                            x       y       z     vdW  Elec       q    Type
                         _______ _______ _______ _____ _____    ______ ____

>  <TORSDO>
F 13

$$$$
=
 OpenBabel11062414083D

 53 58  0  0  1  0  0  0  0  0999 V2000
  182.4720  176.7280  139.3960 C   0  0  2  0  0  3  0  0  0  0  0  0
  179.9550  173.3190  137.3030 C   0  0  0  0  0  2  0  0  0  0  0  0
  181.5230  173.9690  135.4670 C   0  0  0  0  0  1  0  0  0  0  0  0
  181.7310  176.8570  136.9690 C   0  0  0  0  0  2  0  0  0  0  0  0
  179.6520  174.1880  138.5230 C   0  0  0  0  0  2  0  0  0  0  0  0
  182.2790  177.6350  138.1670 C   0  0  2  0  0  3  0  0  0  0  0  0
  180.3680  176.2950  137.3350 C   0  0  2  0  0  3  0  0  0  0  0  0
  181.4300  174.9160  140.5650 O   0  0  0  0  0  0  0  0  0  0  0  0
  181.4170  175.6520  139.5410 C   0  0  0  0  0  0  0  0  0  0  0  0
  180.1130  174.1190  136.0010 C   0  0  2  0  0  3  0  0  0  0  0  0
  180.4740  175.3930  138.4880 N   0  0  0  0  0  0  0  0  0  0  0  0
  179.7230  175.6010  136.1250 C   0  0  0  0  0  2  0  0  0  0  0  0
  183.8610  177.6380  141.2910 C   0  0  0  0  0  3  0  0  0  0  0  0
  181.6540  178.9540  142.3860 C   0  0  0  0  0  3  0  0  0  0  0  0
  184.0050  178.3890  142.4600 C   0  0  0  0  0  3  0  0  0  0  0  0
  182.9020  179.0480  143.0070 C   0  0  0  0  0  3  0  0  0  0  0  0
  181.4980  178.2000  141.2180 C   0  0  0  0  0  0  0  0  0  0  0  0
  182.6110  177.5360  140.6610 C   0  0  0  0  0  0  0  0  0  0  0  0
  180.1410  178.1330  140.5860 C   0  0  0  0  0  2  0  0  0  0  0  0
  179.5460  179.5220  140.3890 C   0  0  0  0  0  2  0  0  0  0  0  0
  180.2790  180.2960  139.3000 C   0  0  2  0  0  3  0  0  0  0  0  0
  180.6820  181.5350  139.8020 O   0  0  0  0  0  1  0  0  0  0  0  0
  179.3740  180.4980  138.0850 C   0  0  2  0  0  3  0  0  0  0  0  0
  178.9390  179.2630  137.5880 O   0  0  0  0  0  1  0  0  0  0  0  0
  180.1220  180.5500  135.6670 C   0  0  0  0  0  1  0  0  0  0  0  0
  179.4060  182.6430  136.7980 C   0  0  0  0  0  1  0  0  0  0  0  0
  180.0810  181.3000  136.9910 C   0  0  0  0  0  3  0  0  0  0  0  0
  185.6890  177.1980  136.9230 C   0  0  0  0  0  3  0  0  0  0  0  0
  183.5570  178.3730  137.8610 C   0  0  0  0  0  3  0  0  0  0  0  0
  184.6330  177.7940  137.3950 C   0  0  0  0  0  0  0  0  0  0  0  0
  185.8080  176.9560  135.4590 C   0  0  0  0  0  2  0  0  0  0  0  0
  187.1770  176.5970  135.1210 N   0  0  0  0  0  2  0  0  0  0  0  0
  188.2230  176.5010  136.0930 C   0  0  0  0  0  0  0  0  0  0  0  0
  188.9150  177.6350  136.5380 C   0  0  0  0  0  3  0  0  0  0  0  0
  190.2300  176.2370  137.9990 C   0  0  0  0  0  0  0  0  0  0  0  0
  189.9250  177.5060  137.4880 C   0  0  0  0  0  3  0  0  0  0  0  0
  189.5500  175.1470  137.5480 N   0  0  0  0  0  0  0  0  0  0  0  0
  188.5630  175.2530  136.6200 C   0  0  0  0  0  3  0  0  0  0  0  0
  191.3320  176.0490  139.0000 C   0  0  1  0  0  3  0  0  0  0  0  0
  192.6680  176.3390  138.3530 C   0  0  1  0  0  3  0  0  0  0  0  0
  191.2330  177.0070  140.0860 N   0  0  0  0  0  0  0  0  0  0  0  0
  193.2640  177.4880  139.1630 C   0  0  0  0  0  3  0  0  0  0  0  0
  192.3080  177.9010  140.1880 N   0  0  0  0  0  0  0  0  0  0  0  0
  186.8470  176.9360  144.1710 Cl  0  0  0  0  0  0  0  0  0  0  0  0
  190.2020  176.0610  142.1120 C   0  0  0  0  0  3  0  0  0  0  0  0
  189.1790  176.0440  143.0650 C   0  0  0  0  0  3  0  0  0  0  0  0
  189.1150  177.9040  140.9840 C   0  0  0  0  0  3  0  0  0  0  0  0
  188.1250  176.9560  142.9770 C   0  0  0  0  0  0  0  0  0  0  0  0
  188.0930  177.8870  141.9370 C   0  0  0  0  0  3  0  0  0  0  0  0
  190.1780  176.9930  141.0620 C   0  0  0  0  0  0  0  0  0  0  0  0
  194.8410  175.1870  138.9710 N   0  0  0  0  0  1  0  0  0  0  0  0
  193.5520  175.1230  138.3670 C   0  0  0  0  0  0  0  0  0  0  0  0
  193.2930  174.1450  137.5630 N   0  0  0  0  0  2  0  0  0  0  0  0
  1  9  1  0  0  0  0
  1 18  1  1  0  0  0
  2  5  1  0  0  0  0
  4  7  1  0  0  0  0
  4  6  1  0  0  0  0
  6 29  1  6  0  0  0
  6  1  1  0  0  0  0
  7 12  1  6  0  0  0
  7 11  1  0  0  0  0
  9  8  2  0  0  0  0
 10  3  1  1  0  0  0
 10 12  1  0  0  0  0
 10  2  1  0  0  0  0
 11  5  1  0  0  0  0
 11  9  1  0  0  0  0
 13 15  1  0  0  0  0
 14 16  1  0  0  0  0
 15 16  2  0  0  0  0
 17 14  2  0  0  0  0
 18 17  1  0  0  0  0
 18 13  2  0  0  0  0
 19 17  1  0  0  0  0
 20 19  1  0  0  0  0
 21 22  1  1  0  0  0
 21 20  1  0  0  0  0
 23 24  1  6  0  0  0
 23 21  1  0  0  0  0
 25 27  1  0  0  0  0
 26 27  1  0  0  0  0
 27 23  1  0  0  0  0
 28 30  2  0  0  0  0
 30 29  2  0  0  0  0
 31 28  1  0  0  0  0
 32 31  1  0  0  0  0
 32 33  1  0  0  0  0
 33 34  2  0  0  0  0
 33 38  1  0  0  0  0
 34 36  1  0  0  0  0
 36 35  2  0  0  0  0
 37 35  1  0  0  0  0
 38 37  2  0  0  0  0
 39 35  1  6  0  0  0
 39 41  1  0  0  0  0
 40 52  1  1  0  0  0
 40 39  1  0  0  0  0
 40 42  1  0  0  0  0
 41 43  1  0  0  0  0
 41 50  1  0  0  0  0
 42 43  2  0  0  0  0
 45 46  1  0  0  0  0
 47 50  1  0  0  0  0
 47 49  2  0  0  0  0
 48 46  2  0  0  0  0
 48 44  1  0  0  0  0
 49 48  1  0  0  0  0
 50 45  2  0  0  0  0
 52 51  1  0  0  0  0
 53 52  2  0  0  0  0
M  END
>  <MODEL>
7

>  <REMARK>
 VINA RESULT:      -6.1      2.047      3.991
  Name = 
  13 active torsions:
  status: ('A' for Active; 'I' for Inactive)
    1  A    between atoms: C_1  and  C_29
    2  A    between atoms: C_2  and  C_10
    3  A    between atoms: C_3  and  N_49
    4  A    between atoms: N_4  and  C_48
    5  A    between atoms: C_5  and  C_27
    6  A    between atoms: C_5  and  C_36
    7  A    between atoms: C_8  and  C_32
    8  A    between atoms: C_9  and  C_40
    9  A    between atoms: C_12  and  C_25
   10  A    between atoms: C_21  and  C_45
   11  A    between atoms: C_21  and  C_51
   12  A    between atoms: C_27  and  C_45
   13  A    between atoms: C_32  and  N_49
                            x       y       z     vdW  Elec       q    Type
                         _______ _______ _______ _____ _____    ______ ____

>  <TORSDO>
F 13

$$$$
=
 OpenBabel11062414083D

 53 58  0  0  1  0  0  0  0  0999 V2000
  181.9390  176.7810  138.2000 C   0  0  2  0  0  3  0  0  0  0  0  0
  179.0440  178.3930  141.5700 C   0  0  0  0  0  2  0  0  0  0  0  0
  180.0350  180.5240  140.7130 C   0  0  0  0  0  1  0  0  0  0  0  0
  182.5600  178.6990  139.7450 C   0  0  0  0  0  2  0  0  0  0  0  0
  179.6530  177.0100  141.3440 C   0  0  0  0  0  2  0  0  0  0  0  0
  183.0760  177.6650  138.7430 C   0  0  2  0  0  3  0  0  0  0  0  0
  181.9490  177.9690  140.9290 C   0  0  2  0  0  3  0  0  0  0  0  0
  179.9390  175.6650  138.9010 O   0  0  0  0  0  0  0  0  0  0  0  0
  180.8660  176.4590  139.2180 C   0  0  0  0  0  0  0  0  0  0  0  0
  180.0880  179.4920  141.8220 C   0  0  2  0  0  3  0  0  0  0  0  0
  180.8330  177.1230  140.4930 N   0  0  0  0  0  0  0  0  0  0  0  0
  181.5190  178.9640  142.0180 C   0  0  0  0  0  2  0  0  0  0  0  0
  183.4890  174.7940  138.1840 C   0  0  0  0  0  3  0  0  0  0  0  0
  182.4670  173.9130  135.7390 C   0  0  0  0  0  3  0  0  0  0  0  0
  183.9890  173.6290  137.5970 C   0  0  0  0  0  3  0  0  0  0  0  0
  183.4780  173.1890  136.3750 C   0  0  0  0  0  3  0  0  0  0  0  0
  181.9620  175.0840  136.3150 C   0  0  0  0  0  0  0  0  0  0  0  0
  182.4750  175.5300  137.5520 C   0  0  0  0  0  0  0  0  0  0  0  0
  180.8760  175.8240  135.5970 C   0  0  0  0  0  2  0  0  0  0  0  0
  181.3100  177.2380  135.2300 C   0  0  0  0  0  2  0  0  0  0  0  0
  180.1770  178.2390  135.4230 C   0  0  2  0  0  3  0  0  0  0  0  0
  179.0340  177.7770  134.7670 O   0  0  0  0  0  1  0  0  0  0  0  0
  180.5740  179.6080  134.8720 C   0  0  2  0  0  3  0  0  0  0  0  0
  181.9450  179.6450  134.5940 O   0  0  0  0  0  1  0  0  0  0  0  0
  180.9830  180.6630  137.1370 C   0  0  0  0  0  1  0  0  0  0  0  0
  180.3910  182.0840  135.1880 C   0  0  0  0  0  1  0  0  0  0  0  0
  180.1910  180.7300  135.8400 C   0  0  0  0  0  3  0  0  0  0  0  0
  185.8650  177.0900  136.4500 C   0  0  0  0  0  3  0  0  0  0  0  0
  183.8480  178.2770  137.6020 C   0  0  0  0  0  3  0  0  0  0  0  0
  184.8630  177.6930  137.0200 C   0  0  0  0  0  0  0  0  0  0  0  0
  185.6110  176.0940  135.3740 C   0  0  0  0  0  2  0  0  0  0  0  0
  186.8670  175.6880  134.7610 N   0  0  0  0  0  2  0  0  0  0  0  0
  188.0820  175.5280  135.5000 C   0  0  0  0  0  0  0  0  0  0  0  0
  188.2590  174.4650  136.3940 C   0  0  0  0  0  3  0  0  0  0  0  0
  190.4790  175.2730  136.8860 C   0  0  0  0  0  0  0  0  0  0  0  0
  189.4560  174.3370  137.0950 C   0  0  0  0  0  3  0  0  0  0  0  0
  190.2830  176.3030  136.0180 N   0  0  0  0  0  0  0  0  0  0  0  0
  189.1210  176.4450  135.3270 C   0  0  0  0  0  3  0  0  0  0  0  0
  191.7720  175.1910  137.6440 C   0  0  1  0  0  3  0  0  0  0  0  0
  192.9260  175.0600  136.6760 C   0  0  1  0  0  3  0  0  0  0  0  0
  192.0390  176.4180  138.3710 N   0  0  0  0  0  0  0  0  0  0  0  0
  193.8140  176.2730  136.9430 C   0  0  0  0  0  3  0  0  0  0  0  0
  193.1870  177.1110  137.9630 N   0  0  0  0  0  0  0  0  0  0  0  0
  188.8280  178.2490  143.0900 Cl  0  0  0  0  0  0  0  0  0  0  0  0
  191.8850  177.0630  140.7430 C   0  0  0  0  0  3  0  0  0  0  0  0
  191.1370  177.4900  141.8440 C   0  0  0  0  0  3  0  0  0  0  0  0
  189.8860  177.0820  139.3800 C   0  0  0  0  0  3  0  0  0  0  0  0
  189.7640  177.7120  141.7130 C   0  0  0  0  0  0  0  0  0  0  0  0
  189.1380  177.5080  140.4820 C   0  0  0  0  0  3  0  0  0  0  0  0
  191.2650  176.8560  139.5000 C   0  0  0  0  0  0  0  0  0  0  0  0
  193.0760  172.5360  136.4690 N   0  0  0  0  0  2  0  0  0  0  0  0
  193.6640  173.7660  136.8840 C   0  0  0  0  0  0  0  0  0  0  0  0
  194.6520  173.7290  137.7160 N   0  0  0  0  0  1  0  0  0  0  0  0
  1 18  1  1  0  0  0
  1  6  1  0  0  0  0
  1  9  1  0  0  0  0
  2 10  1  0  0  0  0
  5  2  1  0  0  0  0
  6 29  1  6  0  0  0
  6  4  1  0  0  0  0
  7  4  1  6  0  0  0
  7 12  1  0  0  0  0
  8  9  2  0  0  0  0
  9 11  1  0  0  0  0
 10  3  1  6  0  0  0
 10 12  1  0  0  0  0
 11  7  1  0  0  0  0
 11  5  1  0  0  0  0
 14 17  2  0  0  0  0
 14 16  1  0  0  0  0
 15 13  1  0  0  0  0
 16 15  2  0  0  0  0
 17 18  1  0  0  0  0
 18 13  2  0  0  0  0
 19 17  1  0  0  0  0
 20 21  1  0  0  0  0
 20 19  1  0  0  0  0
 21 22  1  6  0  0  0
 23 24  1  1  0  0  0
 23 21  1  0  0  0  0
 23 27  1  0  0  0  0
 26 27  1  0  0  0  0
 27 25  1  0  0  0  0
 28 30  2  0  0  0  0
 30 29  2  0  0  0  0
 31 28  1  0  0  0  0
 32 31  1  0  0  0  0
 32 33  1  0  0  0  0
 33 34  1  0  0  0  0
 34 36  2  0  0  0  0
 35 36  1  0  0  0  0
 37 35  2  0  0  0  0
 38 33  2  0  0  0  0
 38 37  1  0  0  0  0
 39 35  1  6  0  0  0
 39 41  1  0  0  0  0
 40 52  1  1  0  0  0
 40 42  1  0  0  0  0
 40 39  1  0  0  0  0
 41 50  1  0  0  0  0
 42 43  2  0  0  0  0
 43 41  1  0  0  0  0
 45 46  1  0  0  0  0
 47 50  1  0  0  0  0
 47 49  2  0  0  0  0
 48 46  2  0  0  0  0
 48 44  1  0  0  0  0
 49 48  1  0  0  0  0
 50 45  2  0  0  0  0
 51 52  2  0  0  0  0
 52 53  1  0  0  0  0
M  END
>  <MODEL>
8

>  <REMARK>
 VINA RESULT:      -5.7      2.338      5.352
  Name = 
  13 active torsions:
  status: ('A' for Active; 'I' for Inactive)
    1  A    between atoms: C_1  and  C_29
    2  A    between atoms: C_2  and  C_10
    3  A    between atoms: C_3  and  N_49
    4  A    between atoms: N_4  and  C_48
    5  A    between atoms: C_5  and  C_27
    6  A    between atoms: C_5  and  C_36
    7  A    between atoms: C_8  and  C_32
    8  A    between atoms: C_9  and  C_40
    9  A    between atoms: C_12  and  C_25
   10  A    between atoms: C_21  and  C_45
   11  A    between atoms: C_21  and  C_51
   12  A    between atoms: C_27  and  C_45
   13  A    between atoms: C_32  and  N_49
                            x       y       z     vdW  Elec       q    Type
                         _______ _______ _______ _____ _____    ______ ____

>  <TORSDO>
F 13

$$$$
=
 OpenBabel11062414083D

 53 58  0  0  1  0  0  0  0  0999 V2000
  183.7420  177.6170  136.7430 C   0  0  2  0  0  3  0  0  0  0  0  0
  179.0910  177.1890  136.0260 C   0  0  0  0  0  2  0  0  0  0  0  0
  179.1440  178.7200  138.0030 C   0  0  0  0  0  1  0  0  0  0  0  0
  182.0690  177.4260  138.6450 C   0  0  0  0  0  2  0  0  0  0  0  0
  180.2610  176.3100  135.5880 C   0  0  0  0  0  2  0  0  0  0  0  0
  183.5440  177.3460  138.2450 C   0  0  2  0  0  3  0  0  0  0  0  0
  181.2990  176.3580  137.8870 C   0  0  2  0  0  3  0  0  0  0  0  0
  182.7460  177.1630  134.6120 O   0  0  0  0  0  0  0  0  0  0  0  0
  182.6330  177.0770  135.8650 C   0  0  0  0  0  0  0  0  0  0  0  0
  178.9330  177.2880  137.5510 C   0  0  2  0  0  3  0  0  0  0  0  0
  181.4180  176.5670  136.4390 N   0  0  0  0  0  0  0  0  0  0  0  0
  179.8310  176.3210  138.3400 C   0  0  0  0  0  2  0  0  0  0  0  0
  186.1610  178.0550  136.1880 C   0  0  0  0  0  3  0  0  0  0  0  0
  186.5730  175.3800  135.4980 C   0  0  0  0  0  3  0  0  0  0  0  0
  187.4210  177.6300  135.7590 C   0  0  0  0  0  3  0  0  0  0  0  0
  187.6270  176.2930  135.4160 C   0  0  0  0  0  3  0  0  0  0  0  0
  185.3050  175.7960  135.9210 C   0  0  0  0  0  0  0  0  0  0  0  0
  185.0950  177.1460  136.2720 C   0  0  0  0  0  0  0  0  0  0  0  0
  184.2070  174.7800  135.9970 C   0  0  0  0  0  2  0  0  0  0  0  0
  184.1080  173.9660  134.7130 C   0  0  0  0  0  2  0  0  0  0  0  0
  182.8040  173.1800  134.6470 C   0  0  2  0  0  3  0  0  0  0  0  0
  182.0250  173.4800  135.7670 O   0  0  0  0  0  1  0  0  0  0  0  0
  183.0860  171.6790  134.5980 C   0  0  2  0  0  3  0  0  0  0  0  0
  181.9280  170.9530  134.9030 O   0  0  0  0  0  1  0  0  0  0  0  0
  183.7230  170.5750  136.7850 C   0  0  0  0  0  1  0  0  0  0  0  0
  185.2420  170.4290  134.8250 C   0  0  0  0  0  1  0  0  0  0  0  0
  184.2260  171.2960  135.5440 C   0  0  0  0  0  3  0  0  0  0  0  0
  183.7410  179.1990  141.3910 C   0  0  0  0  0  3  0  0  0  0  0  0
  184.4290  178.2550  139.0580 C   0  0  0  0  0  3  0  0  0  0  0  0
  184.0930  178.7370  140.2260 C   0  0  0  0  0  0  0  0  0  0  0  0
  183.9520  178.3680  142.6080 C   0  0  0  0  0  2  0  0  0  0  0  0
  185.2280  178.7000  143.2250 N   0  0  0  0  0  2  0  0  0  0  0  0
  186.4820  178.2080  142.7410 C   0  0  0  0  0  0  0  0  0  0  0  0
  187.2150  178.9020  141.7700 C   0  0  0  0  0  3  0  0  0  0  0  0
  188.9200  177.1990  141.8650 C   0  0  0  0  0  0  0  0  0  0  0  0
  188.4340  178.3960  141.3240 C   0  0  0  0  0  3  0  0  0  0  0  0
  188.1890  176.5370  142.8030 N   0  0  0  0  0  0  0  0  0  0  0  0
  186.9960  177.0130  143.2490 C   0  0  0  0  0  3  0  0  0  0  0  0
  190.2130  176.6020  141.3910 C   0  0  1  0  0  3  0  0  0  0  0  0
  190.5310  177.1050  140.0010 C   0  0  1  0  0  3  0  0  0  0  0  0
  191.3310  177.0410  142.2050 N   0  0  0  0  0  0  0  0  0  0  0  0
  191.8750  177.8180  140.1300 C   0  0  0  0  0  3  0  0  0  0  0  0
  192.2970  177.7980  141.5280 N   0  0  0  0  0  0  0  0  0  0  0  0
  192.1040  175.4010  147.9190 Cl  0  0  0  0  0  0  0  0  0  0  0  0
  191.8340  175.3230  143.8970 C   0  0  0  0  0  3  0  0  0  0  0  0
  192.0140  174.9400  145.2290 C   0  0  0  0  0  3  0  0  0  0  0  0
  191.3780  177.5880  144.6130 C   0  0  0  0  0  3  0  0  0  0  0  0
  191.8750  175.8800  146.2520 C   0  0  0  0  0  0  0  0  0  0  0  0
  191.5580  177.2040  145.9450 C   0  0  0  0  0  3  0  0  0  0  0  0
  191.5140  176.6520  143.5770 C   0  0  0  0  0  0  0  0  0  0  0  0
  191.8460  175.4290  138.6250 N   0  0  0  0  0  1  0  0  0  0  0  0
  190.5870  175.9720  139.0140 C   0  0  0  0  0  0  0  0  0  0  0  0
  189.5510  175.7170  138.2850 N   0  0  0  0  0  2  0  0  0  0  0  0
  1 18  1  6  0  0  0
  1  6  1  0  0  0  0
  2 10  1  0  0  0  0
  5  2  1  0  0  0  0
  5 11  1  0  0  0  0
  6  4  1  0  0  0  0
  6 29  1  1  0  0  0
  7 12  1  1  0  0  0
  7  4  1  0  0  0  0
  8  9  2  0  0  0  0
  9 11  1  0  0  0  0
  9  1  1  0  0  0  0
 10  3  1  1  0  0  0
 10 12  1  0  0  0  0
 11  7  1  0  0  0  0
 13 18  1  0  0  0  0
 14 17  1  0  0  0  0
 15 13  2  0  0  0  0
 16 14  2  0  0  0  0
 16 15  1  0  0  0  0
 17 19  1  0  0  0  0
 17 18  2  0  0  0  0
 20 19  1  0  0  0  0
 21 20  1  0  0  0  0
 21 22  1  1  0  0  0
 23 21  1  0  0  0  0
 23 24  1  1  0  0  0
 23 27  1  0  0  0  0
 26 27  1  0  0  0  0
 27 25  1  0  0  0  0
 28 31  1  0  0  0  0
 29 30  2  0  0  0  0
 30 28  2  0  0  0  0
 31 32  1  0  0  0  0
 33 32  1  0  0  0  0
 33 38  1  0  0  0  0
 34 33  2  0  0  0  0
 35 37  1  0  0  0  0
 36 34  1  0  0  0  0
 36 35  2  0  0  0  0
 37 38  2  0  0  0  0
 39 35  1  1  0  0  0
 39 41  1  0  0  0  0
 40 52  1  6  0  0  0
 40 42  1  0  0  0  0
 40 39  1  0  0  0  0
 41 50  1  0  0  0  0
 42 43  2  0  0  0  0
 43 41  1  0  0  0  0
 45 46  1  0  0  0  0
 46 48  2  0  0  0  0
 47 49  2  0  0  0  0
 48 44  1  0  0  0  0
 49 48  1  0  0  0  0
 50 45  2  0  0  0  0
 50 47  1  0  0  0  0
 51 52  1  0  0  0  0
 53 52  2  0  0  0  0
M  END
>  <MODEL>
9

>  <REMARK>
 VINA RESULT:      -5.6      3.046      6.730
  Name = 
  13 active torsions:
  status: ('A' for Active; 'I' for Inactive)
    1  A    between atoms: C_1  and  C_29
    2  A    between atoms: C_2  and  C_10
    3  A    between atoms: C_3  and  N_49
    4  A    between atoms: N_4  and  C_48
    5  A    between atoms: C_5  and  C_27
    6  A    between atoms: C_5  and  C_36
    7  A    between atoms: C_8  and  C_32
    8  A    between atoms: C_9  and  C_40
    9  A    between atoms: C_12  and  C_25
   10  A    between atoms: C_21  and  C_45
   11  A    between atoms: C_21  and  C_51
   12  A    between atoms: C_27  and  C_45
   13  A    between atoms: C_32  and  N_49
                            x       y       z     vdW  Elec       q    Type
                         _______ _______ _______ _____ _____    ______ ____

>  <TORSDO>
F 13

$$$$
