=
 OpenBabel11062418023D

 58 61  0  0  1  0  0  0  0  0999 V2000
  184.4420  179.2100  140.6610 N   0  0  0  0  0  2  0  0  0  0  0  0
  183.1450  179.3710  140.0170 C   0  0  1  0  0  3  0  0  0  0  0  0
  183.1780  178.7590  138.6290 C   0  0  0  0  0  2  0  0  0  0  0  0
  182.5320  178.0070  139.7840 C   0  0  2  0  0  3  0  0  0  0  0  0
  181.0260  178.1940  139.7900 C   0  0  0  0  0  2  0  0  0  0  0  0
  180.3310  177.2420  138.8130 C   0  0  0  0  0  2  0  0  0  0  0  0
  181.0770  175.8990  138.6880 C   0  0  1  0  0  3  0  0  0  0  0  0
  180.1600  174.4130  140.4970 C   0  0  0  0  0  1  0  0  0  0  0  0
  180.2260  174.6610  139.0010 C   0  0  1  0  0  3  0  0  0  0  0  0
  178.9310  174.8570  138.5260 O   0  0  0  0  0  1  0  0  0  0  0  0
  181.8840  175.7740  137.5380 O   0  0  0  0  0  0  0  0  0  0  0  0
  181.2160  175.0120  136.5620 C   0  0  1  0  0  3  0  0  0  0  0  0
  180.6090  175.9220  135.5430 C   0  0  0  0  0  0  0  0  0  0  0  0
  179.7220  175.4260  134.5990 O   0  0  0  0  0  0  0  0  0  0  0  0
  180.8860  177.1490  135.5540 O   0  0  0  0  0  1  0  0  0  0  0  0
  182.1680  173.9870  135.9400 C   0  0  1  0  0  3  0  0  0  0  0  0
  180.2880  170.1190  135.6100 C   0  0  0  0  0  3  0  0  0  0  0  0
  180.4530  172.3020  136.6620 C   0  0  0  0  0  3  0  0  0  0  0  0
  179.8290  171.0510  136.5500 C   0  0  0  0  0  3  0  0  0  0  0  0
  181.3670  170.4390  134.7770 C   0  0  0  0  0  3  0  0  0  0  0  0
  181.9880  171.6920  134.8830 C   0  0  0  0  0  3  0  0  0  0  0  0
  181.5360  172.6250  135.8310 C   0  0  0  0  0  0  0  0  0  0  0  0
  182.6620  174.4300  134.7090 O   0  0  0  0  0  0  0  0  0  0  0  0
  183.7600  175.1640  135.0150 N   0  0  0  0  0  2  0  0  0  0  0  0
  185.3130  173.0710  134.5940 S   0  0  0  0  0  0  0  0  0  0  0  0
  185.0600  174.5820  135.1560 C   0  0  0  0  0  0  0  0  0  0  0  0
  186.2070  176.7290  135.9300 C   0  0  0  0  0  0  0  0  0  0  0  0
  187.7650  177.5120  136.3610 S   0  0  0  0  0  1  0  0  0  0  0  0
  186.1740  175.3190  135.6910 N   0  0  0  0  0  2  0  0  0  0  0  0
  185.1520  177.4230  135.8870 O   0  0  0  0  0  0  0  0  0  0  0  0
  185.4370  178.9970  139.6140 C   0  0  0  0  0  2  0  0  0  0  0  0
  186.6830  178.2980  140.1510 C   0  0  0  0  0  2  0  0  0  0  0  0
  186.8660  178.5490  141.6360 C   0  0  0  0  0  2  0  0  0  0  0  0
  186.8660  177.2830  142.3650 N   0  0  0  0  0  2  0  0  0  0  0  0
  187.6100  177.4770  143.5440 N   0  0  0  0  0  0  0  0  0  0  0  0
  190.6390  176.7810  141.7430 C   0  0  0  0  0  0  0  0  0  0  0  0
  189.8270  178.4010  143.8470 N   0  0  0  0  0  2  0  0  0  0  0  0
  191.2550  178.0800  143.8020 C   0  0  1  0  0  0  0  0  0  0  0  0
  189.0520  177.1960  143.5410 C   0  0  2  0  0  3  0  0  0  0  0  0
  191.5490  177.0640  144.6950 F   0  0  0  0  0  0  0  0  0  0  0  0
  191.6610  177.6680  142.3910 C   0  0  0  0  0  2  0  0  0  0  0  0
  192.0510  179.3090  144.1950 C   0  0  0  0  0  1  0  0  0  0  0  0
  189.4530  176.6300  142.2560 N   0  0  0  0  0  0  0  0  0  0  0  0
  190.9750  176.1480  140.5450 O   0  0  0  0  0  0  0  0  0  0  0  0
  190.8760  176.8030  139.2900 C   0  0  0  0  0  2  0  0  0  0  0  0
  193.4590  176.8750  138.0960 O   0  0  0  0  0  0  0  0  0  0  0  0
  192.6480  176.0120  137.6740 C   0  0  0  0  0  0  0  0  0  0  0  0
  191.3360  175.9130  138.2330 N   0  0  0  0  0  2  0  0  0  0  0  0
  193.0660  175.0690  136.6000 C   0  0  0  0  0  2  0  0  0  0  0  0
  194.2740  174.2710  137.0540 C   0  0  0  0  0  1  0  0  0  0  0  0
  185.7160  178.5750  144.6990 C   0  0  0  0  0  3  0  0  0  0  0  0
  186.9380  177.8860  144.7550 C   0  0  0  0  0  0  0  0  0  0  0  0
  185.6220  178.6610  147.1180 C   0  0  0  0  0  3  0  0  0  0  0  0
  186.8420  177.9740  147.1900 C   0  0  0  0  0  0  0  0  0  0  0  0
  185.0600  178.9580  145.8720 C   0  0  0  0  0  3  0  0  0  0  0  0
  187.4940  177.5970  146.0150 C   0  0  0  0  0  3  0  0  0  0  0  0
  187.4170  177.6600  148.4220 O   0  0  0  0  0  0  0  0  0  0  0  0
  188.4980  178.3170  148.8650 O   0  0  0  0  0  1  0  0  0  0  0  0
  2  1  1  1  0  0  0
  3  4  1  0  0  0  0
  3  2  1  0  0  0  0
  4  5  1  6  0  0  0
  4  2  1  0  0  0  0
  6  5  1  0  0  0  0
  7  6  1  6  0  0  0
  7  9  1  0  0  0  0
  9  8  1  1  0  0  0
 10  9  1  0  0  0  0
 11  7  1  0  0  0  0
 12 13  1  6  0  0  0
 12 11  1  0  0  0  0
 13 15  1  0  0  0  0
 14 13  2  0  0  0  0
 16 23  1  6  0  0  0
 16 12  1  0  0  0  0
 17 19  1  0  0  0  0
 19 18  2  0  0  0  0
 20 21  1  0  0  0  0
 20 17  2  0  0  0  0
 21 22  2  0  0  0  0
 22 16  1  0  0  0  0
 22 18  1  0  0  0  0
 23 24  1  0  0  0  0
 24 26  1  0  0  0  0
 25 26  2  0  0  0  0
 26 29  1  0  0  0  0
 27 28  1  0  0  0  0
 29 27  1  0  0  0  0
 30 27  2  0  0  0  0
 31 32  1  0  0  0  0
 31  1  1  0  0  0  0
 32 33  1  0  0  0  0
 33 34  1  0  0  0  0
 34 35  1  0  0  0  0
 35 52  1  0  0  0  0
 36 43  2  0  0  0  0
 36 41  1  0  0  0  0
 38 37  1  0  0  0  0
 38 42  1  1  0  0  0
 38 40  1  0  0  0  0
 39 35  1  6  0  0  0
 39 37  1  0  0  0  0
 41 38  1  0  0  0  0
 43 39  1  0  0  0  0
 44 36  1  0  0  0  0
 45 44  1  0  0  0  0
 47 46  2  0  0  0  0
 47 48  1  0  0  0  0
 48 45  1  0  0  0  0
 49 50  1  0  0  0  0
 49 47  1  0  0  0  0
 51 52  2  0  0  0  0
 51 55  1  0  0  0  0
 52 56  1  0  0  0  0
 53 54  1  0  0  0  0
 54 57  1  0  0  0  0
 55 53  2  0  0  0  0
 56 54  2  0  0  0  0
 57 58  1  0  0  0  0
M  END
>  <MODEL>
1

>  <REMARK>
 VINA RESULT:      -5.6      0.000      0.000
  Name = 
  26 active torsions:
  status: ('A' for Active; 'I' for Inactive)
    1  A    between atoms: C_2  and  C_15
    2  A    between atoms: C_2  and  C_55
    3  A    between atoms: N_3  and  O_48
    4  A    between atoms: N_3  and  C_56
    5  A    between atoms: C_4  and  O_50
    6  A    between atoms: C_5  and  C_53
    7  A    between atoms: C_7  and  O_8
    8  A    between atoms: C_7  and  C_21
    9  A    between atoms: C_7  and  C_44
   10  A    between atoms: O_8  and  C_55
   11  A    between atoms: C_11  and  N_45
   12  A    between atoms: C_11  and  O_50
   13  A    between atoms: C_14  and  N_28
   14  A    between atoms: C_15  and  C_38
   15  A    between atoms: C_16  and  C_55
   16  A    between atoms: N_17  and  C_20
   17  A    between atoms: N_17  and  C_46
   18  A    between atoms: C_22  and  N_28
   19  A    between atoms: O_24  and  C_35
   20  A    between atoms: N_26  and  N_28
   21  A    between atoms: N_26  and  C_29
   22  A    between atoms: C_29  and  C_47
   23  A    between atoms: N_34  and  C_56
   24  A    between atoms: C_44  and  O_48
   25  A    between atoms: C_44  and  C_52
   26  A    between atoms: C_46  and  C_47
                            x       y       z     vdW  Elec       q    Type
                         _______ _______ _______ _____ _____    ______ ____

>  <TORSDO>
F 26

$$$$
=
 OpenBabel11062418023D

 58 61  0  0  1  0  0  0  0  0999 V2000
  185.6110  179.3950  141.8300 N   0  0  0  0  0  2  0  0  0  0  0  0
  186.2490  178.1760  142.3080 C   0  0  1  0  0  3  0  0  0  0  0  0
  187.3050  177.7230  141.3190 C   0  0  0  0  0  2  0  0  0  0  0  0
  187.7100  178.4570  142.5900 C   0  0  2  0  0  3  0  0  0  0  0  0
  188.1450  177.4860  143.6710 C   0  0  0  0  0  2  0  0  0  0  0  0
  188.9890  176.3420  143.1030 C   0  0  0  0  0  2  0  0  0  0  0  0
  190.2920  176.8530  142.4560 C   0  0  1  0  0  3  0  0  0  0  0  0
  191.2760  178.7900  143.7200 C   0  0  0  0  0  1  0  0  0  0  0  0
  191.3700  177.2990  143.4520 C   0  0  1  0  0  3  0  0  0  0  0  0
  191.1980  176.6190  144.6550 O   0  0  0  0  0  1  0  0  0  0  0  0
  190.7740  176.0630  141.3910 O   0  0  0  0  0  0  0  0  0  0  0  0
  190.7470  176.8020  140.1940 C   0  0  1  0  0  3  0  0  0  0  0  0
  192.1440  177.1130  139.7630 C   0  0  0  0  0  0  0  0  0  0  0  0
  193.0890  177.5280  140.6890 O   0  0  0  0  0  1  0  0  0  0  0  0
  192.4720  176.9770  138.5560 O   0  0  0  0  0  0  0  0  0  0  0  0
  189.9540  176.0520  139.1210 C   0  0  1  0  0  3  0  0  0  0  0  0
  187.4590  178.7130  136.8200 C   0  0  0  0  0  3  0  0  0  0  0  0
  187.8060  176.5850  137.9370 C   0  0  0  0  0  3  0  0  0  0  0  0
  186.9840  177.4500  137.2010 C   0  0  0  0  0  3  0  0  0  0  0  0
  188.7520  179.1120  137.1800 C   0  0  0  0  0  3  0  0  0  0  0  0
  189.5710  178.2500  137.9220 C   0  0  0  0  0  3  0  0  0  0  0  0
  189.1020  176.9800  138.2980 C   0  0  0  0  0  0  0  0  0  0  0  0
  190.7930  175.2690  138.3200 O   0  0  0  0  0  0  0  0  0  0  0  0
  189.9560  174.5300  137.5530 N   0  0  0  0  0  2  0  0  0  0  0  0
  189.3510  172.8930  135.5720 S   0  0  0  0  0  0  0  0  0  0  0  0
  190.4300  173.6060  136.5680 C   0  0  0  0  0  0  0  0  0  0  0  0
  192.7240  174.1680  135.5960 C   0  0  0  0  0  0  0  0  0  0  0  0
  194.3790  173.5660  135.2430 S   0  0  0  0  0  1  0  0  0  0  0  0
  191.8320  173.3550  136.3650 N   0  0  0  0  0  2  0  0  0  0  0  0
  192.3830  175.3180  135.2010 O   0  0  0  0  0  0  0  0  0  0  0  0
  185.0580  179.1200  140.5060 C   0  0  0  0  0  2  0  0  0  0  0  0
  183.7090  178.4130  140.5930 C   0  0  0  0  0  2  0  0  0  0  0  0
  183.5130  177.4430  139.4430 C   0  0  0  0  0  2  0  0  0  0  0  0
  182.3900  176.5520  139.7200 N   0  0  0  0  0  2  0  0  0  0  0  0
  181.4910  176.6620  138.6410 N   0  0  0  0  0  0  0  0  0  0  0  0
  179.5490  179.1080  140.4160 C   0  0  0  0  0  0  0  0  0  0  0  0
  181.0680  178.9810  138.0950 N   0  0  0  0  0  2  0  0  0  0  0  0
  180.0560  180.0380  138.1390 C   0  0  1  0  0  0  0  0  0  0  0  0
  180.5000  177.7450  138.6370 C   0  0  2  0  0  3  0  0  0  0  0  0
  178.9310  179.6590  137.4270 F   0  0  0  0  0  0  0  0  0  0  0  0
  179.6780  180.3490  139.5830 C   0  0  0  0  0  2  0  0  0  0  0  0
  180.6220  181.2940  137.5060 C   0  0  0  0  0  1  0  0  0  0  0  0
  179.9780  177.9580  139.9840 N   0  0  0  0  0  0  0  0  0  0  0  0
  178.9950  179.2200  141.6920 O   0  0  0  0  0  0  0  0  0  0  0  0
  179.4660  180.1650  142.6410 C   0  0  0  0  0  2  0  0  0  0  0  0
  180.7470  178.2730  144.3390 O   0  0  0  0  0  0  0  0  0  0  0  0
  181.4800  179.0540  143.6810 C   0  0  0  0  0  0  0  0  0  0  0  0
  180.9070  180.0240  142.8020 N   0  0  0  0  0  2  0  0  0  0  0  0
  182.9610  178.9500  143.7990 C   0  0  0  0  0  2  0  0  0  0  0  0
  183.3590  178.8800  145.2620 C   0  0  0  0  0  1  0  0  0  0  0  0
  180.6210  175.7550  136.5080 C   0  0  0  0  0  3  0  0  0  0  0  0
  181.5120  175.6730  137.5890 C   0  0  0  0  0  0  0  0  0  0  0  0
  181.5760  173.7540  135.5320 C   0  0  0  0  0  3  0  0  0  0  0  0
  182.4710  173.6580  136.6050 C   0  0  0  0  0  0  0  0  0  0  0  0
  180.6530  174.8040  135.4850 C   0  0  0  0  0  3  0  0  0  0  0  0
  182.4320  174.6080  137.6270 C   0  0  0  0  0  3  0  0  0  0  0  0
  183.4050  172.6230  136.6700 O   0  0  0  0  0  0  0  0  0  0  0  0
  184.4890  172.6240  135.8800 O   0  0  0  0  0  1  0  0  0  0  0  0
  2  1  1  6  0  0  0
  2  4  1  0  0  0  0
  3  2  1  0  0  0  0
  3  4  1  0  0  0  0
  4  5  1  1  0  0  0
  6  5  1  0  0  0  0
  7  6  1  1  0  0  0
  7  9  1  0  0  0  0
  9  8  1  1  0  0  0
  9 10  1  0  0  0  0
 11  7  1  0  0  0  0
 12 13  1  6  0  0  0
 12 11  1  0  0  0  0
 13 14  1  0  0  0  0
 15 13  2  0  0  0  0
 16 23  1  6  0  0  0
 16 12  1  0  0  0  0
 17 20  2  0  0  0  0
 17 19  1  0  0  0  0
 18 22  1  0  0  0  0
 19 18  2  0  0  0  0
 20 21  1  0  0  0  0
 21 22  2  0  0  0  0
 22 16  1  0  0  0  0
 24 23  1  0  0  0  0
 25 26  2  0  0  0  0
 26 24  1  0  0  0  0
 27 29  1  0  0  0  0
 28 27  1  0  0  0  0
 29 26  1  0  0  0  0
 30 27  2  0  0  0  0
 31 32  1  0  0  0  0
 31  1  1  0  0  0  0
 33 34  1  0  0  0  0
 33 32  1  0  0  0  0
 35 34  1  0  0  0  0
 36 44  1  0  0  0  0
 37 38  1  0  0  0  0
 37 39  1  0  0  0  0
 38 42  1  6  0  0  0
 38 41  1  0  0  0  0
 39 35  1  1  0  0  0
 39 43  1  0  0  0  0
 40 38  1  0  0  0  0
 41 36  1  0  0  0  0
 43 36  2  0  0  0  0
 44 45  1  0  0  0  0
 45 48  1  0  0  0  0
 47 49  1  0  0  0  0
 47 46  2  0  0  0  0
 48 47  1  0  0  0  0
 49 50  1  0  0  0  0
 51 52  1  0  0  0  0
 52 56  2  0  0  0  0
 52 35  1  0  0  0  0
 53 54  2  0  0  0  0
 54 57  1  0  0  0  0
 54 56  1  0  0  0  0
 55 53  1  0  0  0  0
 55 51  2  0  0  0  0
 58 57  1  0  0  0  0
M  END
>  <MODEL>
2

>  <REMARK>
 VINA RESULT:      -5.5      3.490     10.385
  Name = 
  26 active torsions:
  status: ('A' for Active; 'I' for Inactive)
    1  A    between atoms: C_2  and  C_15
    2  A    between atoms: C_2  and  C_55
    3  A    between atoms: N_3  and  O_48
    4  A    between atoms: N_3  and  C_56
    5  A    between atoms: C_4  and  O_50
    6  A    between atoms: C_5  and  C_53
    7  A    between atoms: C_7  and  O_8
    8  A    between atoms: C_7  and  C_21
    9  A    between atoms: C_7  and  C_44
   10  A    between atoms: O_8  and  C_55
   11  A    between atoms: C_11  and  N_45
   12  A    between atoms: C_11  and  O_50
   13  A    between atoms: C_14  and  N_28
   14  A    between atoms: C_15  and  C_38
   15  A    between atoms: C_16  and  C_55
   16  A    between atoms: N_17  and  C_20
   17  A    between atoms: N_17  and  C_46
   18  A    between atoms: C_22  and  N_28
   19  A    between atoms: O_24  and  C_35
   20  A    between atoms: N_26  and  N_28
   21  A    between atoms: N_26  and  C_29
   22  A    between atoms: C_29  and  C_47
   23  A    between atoms: N_34  and  C_56
   24  A    between atoms: C_44  and  O_48
   25  A    between atoms: C_44  and  C_52
   26  A    between atoms: C_46  and  C_47
                            x       y       z     vdW  Elec       q    Type
                         _______ _______ _______ _____ _____    ______ ____

>  <TORSDO>
F 26

$$$$
=
 OpenBabel11062418023D

 58 61  0  0  1  0  0  0  0  0999 V2000
  182.8210  179.2140  142.9140 N   0  0  0  0  0  2  0  0  0  0  0  0
  181.7540  178.4680  142.2610 C   0  0  1  0  0  3  0  0  0  0  0  0
  180.4470  179.2270  142.3770 C   0  0  0  0  0  2  0  0  0  0  0  0
  181.2420  179.2630  141.0790 C   0  0  2  0  0  3  0  0  0  0  0  0
  180.7030  178.2620  140.0750 C   0  0  0  0  0  2  0  0  0  0  0  0
  181.2220  176.8470  140.3470 C   0  0  0  0  0  2  0  0  0  0  0  0
  180.3170  175.7700  139.7180 C   0  0  1  0  0  3  0  0  0  0  0  0
  178.9370  173.9130  140.7030 C   0  0  0  0  0  1  0  0  0  0  0  0
  179.0730  175.4160  140.5430 C   0  0  1  0  0  3  0  0  0  0  0  0
  179.1770  175.9900  141.8070 O   0  0  0  0  0  1  0  0  0  0  0  0
  180.0740  175.9310  138.3380 O   0  0  0  0  0  0  0  0  0  0  0  0
  181.0310  175.2170  137.5950 C   0  0  1  0  0  3  0  0  0  0  0  0
  180.3520  174.1620  136.7820 C   0  0  0  0  0  0  0  0  0  0  0  0
  180.8570  172.8710  136.7450 O   0  0  0  0  0  1  0  0  0  0  0  0
  179.3050  174.4400  136.1440 O   0  0  0  0  0  0  0  0  0  0  0  0
  181.8650  176.1730  136.7370 C   0  0  1  0  0  3  0  0  0  0  0  0
  179.8050  179.9190  136.1610 C   0  0  0  0  0  3  0  0  0  0  0  0
  179.8520  177.4940  136.0260 C   0  0  0  0  0  3  0  0  0  0  0  0
  179.1720  178.7070  135.8490 C   0  0  0  0  0  3  0  0  0  0  0  0
  181.1150  179.9160  136.6550 C   0  0  0  0  0  3  0  0  0  0  0  0
  181.7940  178.7040  136.8390 C   0  0  0  0  0  3  0  0  0  0  0  0
  181.1660  177.4880  136.5190 C   0  0  0  0  0  0  0  0  0  0  0  0
  183.1470  176.3490  137.2690 O   0  0  0  0  0  0  0  0  0  0  0  0
  183.9660  175.6450  136.4500 N   0  0  0  0  0  2  0  0  0  0  0  0
  185.9710  177.3460  136.6780 S   0  0  0  0  0  0  0  0  0  0  0  0
  185.3820  175.8470  136.4200 C   0  0  0  0  0  0  0  0  0  0  0  0
  186.3500  173.5730  137.0660 C   0  0  0  0  0  0  0  0  0  0  0  0
  187.7300  172.4370  136.8890 S   0  0  0  0  0  1  0  0  0  0  0  0
  186.3070  174.7560  136.2620 N   0  0  0  0  0  2  0  0  0  0  0  0
  185.4110  173.2920  137.8640 O   0  0  0  0  0  0  0  0  0  0  0  0
  183.9430  179.2970  141.9820 C   0  0  0  0  0  2  0  0  0  0  0  0
  184.6750  177.9630  141.8580 C   0  0  0  0  0  2  0  0  0  0  0  0
  186.0900  178.1500  141.3460 C   0  0  0  0  0  2  0  0  0  0  0  0
  186.8440  179.0150  142.2490 N   0  0  0  0  0  2  0  0  0  0  0  0
  187.7710  178.2040  142.9320 N   0  0  0  0  0  0  0  0  0  0  0  0
  188.3990  178.1430  146.4680 C   0  0  0  0  0  0  0  0  0  0  0  0
  186.2050  178.3120  144.7750 N   0  0  0  0  0  2  0  0  0  0  0  0
  185.9330  177.8110  146.1240 C   0  0  1  0  0  0  0  0  0  0  0  0
  187.4410  177.7060  144.2740 C   0  0  2  0  0  3  0  0  0  0  0  0
  185.8380  176.4290  146.1150 F   0  0  0  0  0  0  0  0  0  0  0  0
  187.0340  178.2500  147.0830 C   0  0  0  0  0  2  0  0  0  0  0  0
  184.6140  178.3790  146.6080 C   0  0  0  0  0  1  0  0  0  0  0  0
  188.5500  177.9510  145.1910 N   0  0  0  0  0  0  0  0  0  0  0  0
  189.5120  178.2970  147.2960 O   0  0  0  0  0  0  0  0  0  0  0  0
  190.2720  177.1900  147.7570 C   0  0  0  0  0  2  0  0  0  0  0  0
  192.5290  175.4580  147.8290 O   0  0  0  0  0  0  0  0  0  0  0  0
  191.9370  175.5950  146.7290 C   0  0  0  0  0  0  0  0  0  0  0  0
  190.7910  176.4430  146.6200 N   0  0  0  0  0  2  0  0  0  0  0  0
  192.4180  174.8480  145.5340 C   0  0  0  0  0  2  0  0  0  0  0  0
  191.7720  175.4070  144.2790 C   0  0  0  0  0  1  0  0  0  0  0  0
  190.2330  178.4500  142.8880 C   0  0  0  0  0  3  0  0  0  0  0  0
  189.0550  177.9260  142.3340 C   0  0  0  0  0  0  0  0  0  0  0  0
  191.5550  177.3620  141.1740 C   0  0  0  0  0  3  0  0  0  0  0  0
  190.3880  176.8310  140.6090 C   0  0  0  0  0  0  0  0  0  0  0  0
  191.4760  178.1690  142.3140 C   0  0  0  0  0  3  0  0  0  0  0  0
  189.1490  177.1190  141.1840 C   0  0  0  0  0  3  0  0  0  0  0  0
  190.4440  176.0180  139.4770 O   0  0  0  0  0  0  0  0  0  0  0  0
  189.8730  176.4000  138.3260 O   0  0  0  0  0  1  0  0  0  0  0  0
  2  3  1  0  0  0  0
  2  1  1  1  0  0  0
  4  5  1  6  0  0  0
  4  2  1  0  0  0  0
  4  3  1  0  0  0  0
  5  6  1  0  0  0  0
  7  6  1  1  0  0  0
  7  9  1  0  0  0  0
  9  8  1  1  0  0  0
  9 10  1  0  0  0  0
 11  7  1  0  0  0  0
 12 13  1  6  0  0  0
 12 11  1  0  0  0  0
 14 13  1  0  0  0  0
 15 13  2  0  0  0  0
 16 23  1  1  0  0  0
 16 12  1  0  0  0  0
 17 20  1  0  0  0  0
 18 22  2  0  0  0  0
 19 18  1  0  0  0  0
 19 17  2  0  0  0  0
 20 21  2  0  0  0  0
 22 16  1  0  0  0  0
 22 21  1  0  0  0  0
 24 23  1  0  0  0  0
 26 24  1  0  0  0  0
 26 25  2  0  0  0  0
 27 30  2  0  0  0  0
 28 27  1  0  0  0  0
 29 26  1  0  0  0  0
 29 27  1  0  0  0  0
 31  1  1  0  0  0  0
 32 31  1  0  0  0  0
 33 32  1  0  0  0  0
 33 34  1  0  0  0  0
 34 35  1  0  0  0  0
 36 41  1  0  0  0  0
 36 44  1  0  0  0  0
 37 38  1  0  0  0  0
 38 42  1  1  0  0  0
 38 41  1  0  0  0  0
 39 35  1  6  0  0  0
 39 37  1  0  0  0  0
 39 43  1  0  0  0  0
 40 38  1  0  0  0  0
 43 36  2  0  0  0  0
 44 45  1  0  0  0  0
 47 46  2  0  0  0  0
 48 47  1  0  0  0  0
 48 45  1  0  0  0  0
 49 47  1  0  0  0  0
 50 49  1  0  0  0  0
 52 51  1  0  0  0  0
 52 35  1  0  0  0  0
 53 55  1  0  0  0  0
 54 53  2  0  0  0  0
 54 56  1  0  0  0  0
 55 51  2  0  0  0  0
 56 52  2  0  0  0  0
 57 54  1  0  0  0  0
 58 57  1  0  0  0  0
M  END
>  <MODEL>
3

>  <REMARK>
 VINA RESULT:      -5.4      2.501      5.535
  Name = 
  26 active torsions:
  status: ('A' for Active; 'I' for Inactive)
    1  A    between atoms: C_2  and  C_15
    2  A    between atoms: C_2  and  C_55
    3  A    between atoms: N_3  and  O_48
    4  A    between atoms: N_3  and  C_56
    5  A    between atoms: C_4  and  O_50
    6  A    between atoms: C_5  and  C_53
    7  A    between atoms: C_7  and  O_8
    8  A    between atoms: C_7  and  C_21
    9  A    between atoms: C_7  and  C_44
   10  A    between atoms: O_8  and  C_55
   11  A    between atoms: C_11  and  N_45
   12  A    between atoms: C_11  and  O_50
   13  A    between atoms: C_14  and  N_28
   14  A    between atoms: C_15  and  C_38
   15  A    between atoms: C_16  and  C_55
   16  A    between atoms: N_17  and  C_20
   17  A    between atoms: N_17  and  C_46
   18  A    between atoms: C_22  and  N_28
   19  A    between atoms: O_24  and  C_35
   20  A    between atoms: N_26  and  N_28
   21  A    between atoms: N_26  and  C_29
   22  A    between atoms: C_29  and  C_47
   23  A    between atoms: N_34  and  C_56
   24  A    between atoms: C_44  and  O_48
   25  A    between atoms: C_44  and  C_52
   26  A    between atoms: C_46  and  C_47
                            x       y       z     vdW  Elec       q    Type
                         _______ _______ _______ _____ _____    ______ ____

>  <TORSDO>
F 26

$$$$
=
 OpenBabel11062418023D

 58 61  0  0  1  0  0  0  0  0999 V2000
  184.2480  178.1020  143.7410 N   0  0  0  0  0  2  0  0  0  0  0  0
  183.5500  178.8250  142.6870 C   0  0  1  0  0  3  0  0  0  0  0  0
  184.5410  179.2980  141.6400 C   0  0  0  0  0  2  0  0  0  0  0  0
  183.6880  178.0630  141.3860 C   0  0  2  0  0  3  0  0  0  0  0  0
  182.4690  178.3990  140.5470 C   0  0  0  0  0  2  0  0  0  0  0  0
  182.8560  179.0540  139.2180 C   0  0  0  0  0  2  0  0  0  0  0  0
  183.2930  178.0130  138.1680 C   0  0  1  0  0  3  0  0  0  0  0  0
  185.2340  177.3120  136.7320 C   0  0  0  0  0  1  0  0  0  0  0  0
  184.8030  177.7440  138.1210 C   0  0  1  0  0  3  0  0  0  0  0  0
  185.4900  178.9080  138.4580 O   0  0  0  0  0  1  0  0  0  0  0  0
  182.4930  176.8520  138.1150 O   0  0  0  0  0  0  0  0  0  0  0  0
  181.8820  176.7460  136.8530 C   0  0  1  0  0  3  0  0  0  0  0  0
  182.5030  175.6220  136.0860 C   0  0  0  0  0  0  0  0  0  0  0  0
  183.0540  174.5380  136.7530 O   0  0  0  0  0  1  0  0  0  0  0  0
  182.5080  175.6490  134.8290 O   0  0  0  0  0  0  0  0  0  0  0  0
  180.3670  176.5870  137.0040 C   0  0  1  0  0  3  0  0  0  0  0  0
  179.3210  175.5310  141.0530 C   0  0  0  0  0  3  0  0  0  0  0  0
  180.1170  174.9010  138.8470 C   0  0  0  0  0  3  0  0  0  0  0  0
  179.7910  174.5530  140.1660 C   0  0  0  0  0  3  0  0  0  0  0  0
  179.1810  176.8570  140.6230 C   0  0  0  0  0  3  0  0  0  0  0  0
  179.5130  177.2060  139.3070 C   0  0  0  0  0  3  0  0  0  0  0  0
  179.9760  176.2270  138.4120 C   0  0  0  0  0  0  0  0  0  0  0  0
  179.6870  177.7220  136.5510 O   0  0  0  0  0  0  0  0  0  0  0  0
  180.6600  178.6080  136.2280 N   0  0  0  0  0  2  0  0  0  0  0  0
  180.8330  180.6790  134.6000 S   0  0  0  0  0  0  0  0  0  0  0  0
  180.3960  179.9990  136.0170 C   0  0  0  0  0  0  0  0  0  0  0  0
  180.2580  181.6670  137.9470 C   0  0  0  0  0  0  0  0  0  0  0  0
  179.2170  182.3830  139.2240 S   0  0  0  0  0  1  0  0  0  0  0  0
  179.6740  180.7950  136.9750 N   0  0  0  0  0  2  0  0  0  0  0  0
  181.4810  181.9770  137.8940 O   0  0  0  0  0  0  0  0  0  0  0  0
  185.5460  178.7430  143.9370 C   0  0  0  0  0  2  0  0  0  0  0  0
  186.3560  178.0580  145.0340 C   0  0  0  0  0  2  0  0  0  0  0  0
  187.5910  177.3790  144.4730 C   0  0  0  0  0  2  0  0  0  0  0  0
  188.7780  178.1850  144.7480 N   0  0  0  0  0  2  0  0  0  0  0  0
  189.8370  177.6430  143.9950 N   0  0  0  0  0  0  0  0  0  0  0  0
  191.7290  177.5710  140.9420 C   0  0  0  0  0  0  0  0  0  0  0  0
  189.0730  177.3370  141.7190 N   0  0  0  0  0  2  0  0  0  0  0  0
  189.2990  177.7510  140.3330 C   0  0  1  0  0  0  0  0  0  0  0  0
  190.0060  178.0500  142.5940 C   0  0  2  0  0  3  0  0  0  0  0  0
  189.1450  179.1210  140.2070 F   0  0  0  0  0  0  0  0  0  0  0  0
  190.6950  177.3400  139.8790 C   0  0  0  0  0  2  0  0  0  0  0  0
  188.2800  177.0710  139.4400 C   0  0  0  0  0  1  0  0  0  0  0  0
  191.3870  177.8350  142.1690 N   0  0  0  0  0  0  0  0  0  0  0  0
  193.0750  177.4510  140.5950 O   0  0  0  0  0  0  0  0  0  0  0  0
  193.5220  177.5540  139.2510 C   0  0  0  0  0  2  0  0  0  0  0  0
  194.1470  176.9790  136.5350 O   0  0  0  0  0  0  0  0  0  0  0  0
  194.0670  176.0090  137.3300 C   0  0  0  0  0  0  0  0  0  0  0  0
  193.7650  176.2230  138.7110 N   0  0  0  0  0  2  0  0  0  0  0  0
  194.3140  174.6270  136.8350 C   0  0  0  0  0  2  0  0  0  0  0  0
  193.7820  173.6160  137.8340 C   0  0  0  0  0  1  0  0  0  0  0  0
  191.2180  175.5960  143.8190 C   0  0  0  0  0  3  0  0  0  0  0  0
  190.7010  176.6510  144.5890 C   0  0  0  0  0  0  0  0  0  0  0  0
  192.4030  174.7320  145.7470 C   0  0  0  0  0  3  0  0  0  0  0  0
  191.8950  175.7780  146.5290 C   0  0  0  0  0  0  0  0  0  0  0  0
  192.0650  174.6440  144.3930 C   0  0  0  0  0  3  0  0  0  0  0  0
  191.0460  176.7240  145.9510 C   0  0  0  0  0  3  0  0  0  0  0  0
  192.2250  175.8910  147.8800 O   0  0  0  0  0  0  0  0  0  0  0  0
  193.4970  176.0620  148.2660 O   0  0  0  0  0  1  0  0  0  0  0  0
  1 31  1  0  0  0  0
  2  1  1  1  0  0  0
  3  2  1  0  0  0  0
  4  5  1  6  0  0  0
  4  3  1  0  0  0  0
  4  2  1  0  0  0  0
  6  5  1  0  0  0  0
  7  6  1  1  0  0  0
  9  8  1  6  0  0  0
  9  7  1  0  0  0  0
  9 10  1  0  0  0  0
 11  7  1  0  0  0  0
 12 13  1  1  0  0  0
 12 16  1  0  0  0  0
 12 11  1  0  0  0  0
 13 14  1  0  0  0  0
 15 13  2  0  0  0  0
 16 23  1  1  0  0  0
 16 22  1  0  0  0  0
 18 19  1  0  0  0  0
 19 17  2  0  0  0  0
 20 17  1  0  0  0  0
 21 20  2  0  0  0  0
 22 18  2  0  0  0  0
 22 21  1  0  0  0  0
 24 23  1  0  0  0  0
 25 26  2  0  0  0  0
 26 24  1  0  0  0  0
 26 29  1  0  0  0  0
 27 28  1  0  0  0  0
 29 27  1  0  0  0  0
 30 27  2  0  0  0  0
 31 32  1  0  0  0  0
 33 34  1  0  0  0  0
 33 32  1  0  0  0  0
 35 52  1  0  0  0  0
 35 34  1  0  0  0  0
 36 43  2  0  0  0  0
 37 39  1  0  0  0  0
 38 42  1  6  0  0  0
 38 37  1  0  0  0  0
 39 35  1  1  0  0  0
 40 38  1  0  0  0  0
 41 38  1  0  0  0  0
 41 36  1  0  0  0  0
 43 39  1  0  0  0  0
 44 36  1  0  0  0  0
 45 44  1  0  0  0  0
 46 47  2  0  0  0  0
 47 48  1  0  0  0  0
 48 45  1  0  0  0  0
 49 47  1  0  0  0  0
 49 50  1  0  0  0  0
 51 55  2  0  0  0  0
 51 52  1  0  0  0  0
 52 56  2  0  0  0  0
 53 54  2  0  0  0  0
 54 57  1  0  0  0  0
 55 53  1  0  0  0  0
 56 54  1  0  0  0  0
 57 58  1  0  0  0  0
M  END
>  <MODEL>
4

>  <REMARK>
 VINA RESULT:      -5.4      3.094      4.994
  Name = 
  26 active torsions:
  status: ('A' for Active; 'I' for Inactive)
    1  A    between atoms: C_2  and  C_15
    2  A    between atoms: C_2  and  C_55
    3  A    between atoms: N_3  and  O_48
    4  A    between atoms: N_3  and  C_56
    5  A    between atoms: C_4  and  O_50
    6  A    between atoms: C_5  and  C_53
    7  A    between atoms: C_7  and  O_8
    8  A    between atoms: C_7  and  C_21
    9  A    between atoms: C_7  and  C_44
   10  A    between atoms: O_8  and  C_55
   11  A    between atoms: C_11  and  N_45
   12  A    between atoms: C_11  and  O_50
   13  A    between atoms: C_14  and  N_28
   14  A    between atoms: C_15  and  C_38
   15  A    between atoms: C_16  and  C_55
   16  A    between atoms: N_17  and  C_20
   17  A    between atoms: N_17  and  C_46
   18  A    between atoms: C_22  and  N_28
   19  A    between atoms: O_24  and  C_35
   20  A    between atoms: N_26  and  N_28
   21  A    between atoms: N_26  and  C_29
   22  A    between atoms: C_29  and  C_47
   23  A    between atoms: N_34  and  C_56
   24  A    between atoms: C_44  and  O_48
   25  A    between atoms: C_44  and  C_52
   26  A    between atoms: C_46  and  C_47
                            x       y       z     vdW  Elec       q    Type
                         _______ _______ _______ _____ _____    ______ ____

>  <TORSDO>
F 26

$$$$
=
 OpenBabel11062418023D

 58 61  0  0  1  0  0  0  0  0999 V2000
  186.3420  177.7690  138.4250 N   0  0  0  0  0  2  0  0  0  0  0  0
  187.4330  177.2030  137.6430 C   0  0  1  0  0  3  0  0  0  0  0  0
  187.2130  177.4850  136.1690 C   0  0  0  0  0  2  0  0  0  0  0  0
  188.1970  178.3240  136.9720 C   0  0  2  0  0  3  0  0  0  0  0  0
  189.6210  177.8340  136.7820 C   0  0  0  0  0  2  0  0  0  0  0  0
  190.0060  176.7860  137.8290 C   0  0  0  0  0  2  0  0  0  0  0  0
  191.2680  177.1930  138.6150 C   0  0  1  0  0  3  0  0  0  0  0  0
  189.6700  177.0600  140.5510 C   0  0  0  0  0  1  0  0  0  0  0  0
  191.0160  177.5770  140.0790 C   0  0  1  0  0  3  0  0  0  0  0  0
  192.0110  177.0230  140.8810 O   0  0  0  0  0  1  0  0  0  0  0  0
  192.3860  176.3540  138.4180 O   0  0  0  0  0  0  0  0  0  0  0  0
  192.3100  175.7410  137.1550 C   0  0  1  0  0  3  0  0  0  0  0  0
  193.3300  176.3430  136.2420 C   0  0  0  0  0  0  0  0  0  0  0  0
  193.1800  176.2540  134.8660 O   0  0  0  0  0  0  0  0  0  0  0  0
  194.3190  176.9530  136.7230 O   0  0  0  0  0  1  0  0  0  0  0  0
  192.4630  174.2240  137.2870 C   0  0  1  0  0  3  0  0  0  0  0  0
  189.5490  172.0300  134.9860 C   0  0  0  0  0  3  0  0  0  0  0  0
  191.8410  172.7380  135.3620 C   0  0  0  0  0  3  0  0  0  0  0  0
  190.9010  172.0110  134.6170 C   0  0  0  0  0  3  0  0  0  0  0  0
  189.1380  172.7690  136.1010 C   0  0  0  0  0  3  0  0  0  0  0  0
  190.0780  173.4900  136.8500 C   0  0  0  0  0  3  0  0  0  0  0  0
  191.4330  173.4820  136.4780 C   0  0  0  0  0  0  0  0  0  0  0  0
  193.7630  173.8130  136.9750 O   0  0  0  0  0  0  0  0  0  0  0  0
  194.0230  172.7930  137.8280 N   0  0  0  0  0  2  0  0  0  0  0  0
  195.3140  170.5060  137.5550 S   0  0  0  0  0  0  0  0  0  0  0  0
  195.2810  172.1110  137.8520 C   0  0  0  0  0  0  0  0  0  0  0  0
  196.7020  174.0300  138.7580 C   0  0  0  0  0  0  0  0  0  0  0  0
  198.2780  174.8870  138.6670 S   0  0  0  0  0  1  0  0  0  0  0  0
  196.5260  172.8080  138.0350 N   0  0  0  0  0  2  0  0  0  0  0  0
  195.7840  174.4910  139.4930 O   0  0  0  0  0  0  0  0  0  0  0  0
  185.4590  178.4840  137.5070 C   0  0  0  0  0  2  0  0  0  0  0  0
  184.1840  178.9560  138.2010 C   0  0  0  0  0  2  0  0  0  0  0  0
  184.4140  179.2050  139.6800 C   0  0  0  0  0  2  0  0  0  0  0  0
  184.4270  177.9380  140.4070 N   0  0  0  0  0  2  0  0  0  0  0  0
  183.0940  177.4940  140.5030 N   0  0  0  0  0  0  0  0  0  0  0  0
  182.7960  179.1990  143.6510 C   0  0  0  0  0  0  0  0  0  0  0  0
  181.2850  178.8640  141.3450 N   0  0  0  0  0  2  0  0  0  0  0  0
  180.5370  179.2180  142.5530 C   0  0  1  0  0  0  0  0  0  0  0  0
  182.2970  177.8590  141.6810 C   0  0  2  0  0  3  0  0  0  0  0  0
  179.9500  178.0910  143.1050 F   0  0  0  0  0  0  0  0  0  0  0  0
  181.4590  179.8770  143.5720 C   0  0  0  0  0  2  0  0  0  0  0  0
  179.4400  180.1990  142.1870 C   0  0  0  0  0  1  0  0  0  0  0  0
  183.1670  178.3340  142.7530 N   0  0  0  0  0  0  0  0  0  0  0  0
  183.6570  179.5500  144.6910 O   0  0  0  0  0  0  0  0  0  0  0  0
  184.3600  178.5800  145.4530 C   0  0  0  0  0  2  0  0  0  0  0  0
  186.6640  177.5140  146.7380 O   0  0  0  0  0  0  0  0  0  0  0  0
  186.7320  177.7170  145.5000 C   0  0  0  0  0  0  0  0  0  0  0  0
  185.6100  178.2430  144.7860 N   0  0  0  0  0  2  0  0  0  0  0  0
  187.9830  177.3840  144.7650 C   0  0  0  0  0  2  0  0  0  0  0  0
  189.1860  177.9170  145.5210 C   0  0  0  0  0  1  0  0  0  0  0  0
  181.2100  176.7520  139.0790 C   0  0  0  0  0  3  0  0  0  0  0  0
  182.5510  176.6360  139.4770 C   0  0  0  0  0  0  0  0  0  0  0  0
  181.5070  174.9740  137.4610 C   0  0  0  0  0  3  0  0  0  0  0  0
  182.8470  174.8450  137.8470 C   0  0  0  0  0  0  0  0  0  0  0  0
  180.6900  175.9290  138.0770 C   0  0  0  0  0  3  0  0  0  0  0  0
  183.3600  175.6680  138.8520 C   0  0  0  0  0  3  0  0  0  0  0  0
  183.6820  173.9050  137.2420 O   0  0  0  0  0  0  0  0  0  0  0  0
  184.7090  173.3630  137.9120 O   0  0  0  0  0  1  0  0  0  0  0  0
  2  1  1  1  0  0  0
  3  4  1  0  0  0  0
  3  2  1  0  0  0  0
  4  5  1  6  0  0  0
  4  2  1  0  0  0  0
  5  6  1  0  0  0  0
  7  6  1  1  0  0  0
  7  9  1  0  0  0  0
  9  8  1  1  0  0  0
  9 10  1  0  0  0  0
 11  7  1  0  0  0  0
 12 13  1  6  0  0  0
 12 16  1  0  0  0  0
 12 11  1  0  0  0  0
 13 15  1  0  0  0  0
 14 13  2  0  0  0  0
 16 23  1  6  0  0  0
 17 20  1  0  0  0  0
 18 22  2  0  0  0  0
 19 17  2  0  0  0  0
 19 18  1  0  0  0  0
 20 21  2  0  0  0  0
 22 21  1  0  0  0  0
 22 16  1  0  0  0  0
 23 24  1  0  0  0  0
 24 26  1  0  0  0  0
 25 26  2  0  0  0  0
 26 29  1  0  0  0  0
 27 30  2  0  0  0  0
 28 27  1  0  0  0  0
 29 27  1  0  0  0  0
 31 32  1  0  0  0  0
 31  1  1  0  0  0  0
 32 33  1  0  0  0  0
 33 34  1  0  0  0  0
 34 35  1  0  0  0  0
 36 44  1  0  0  0  0
 37 39  1  0  0  0  0
 37 38  1  0  0  0  0
 38 42  1  6  0  0  0
 38 40  1  0  0  0  0
 38 41  1  0  0  0  0
 39 35  1  6  0  0  0
 39 43  1  0  0  0  0
 41 36  1  0  0  0  0
 43 36  2  0  0  0  0
 44 45  1  0  0  0  0
 47 46  2  0  0  0  0
 48 45  1  0  0  0  0
 48 47  1  0  0  0  0
 49 47  1  0  0  0  0
 49 50  1  0  0  0  0
 51 52  1  0  0  0  0
 52 35  1  0  0  0  0
 53 54  2  0  0  0  0
 53 55  1  0  0  0  0
 54 56  1  0  0  0  0
 55 51  2  0  0  0  0
 56 52  2  0  0  0  0
 57 54  1  0  0  0  0
 57 58  1  0  0  0  0
M  END
>  <MODEL>
5

>  <REMARK>
 VINA RESULT:      -5.2      3.743      9.791
  Name = 
  26 active torsions:
  status: ('A' for Active; 'I' for Inactive)
    1  A    between atoms: C_2  and  C_15
    2  A    between atoms: C_2  and  C_55
    3  A    between atoms: N_3  and  O_48
    4  A    between atoms: N_3  and  C_56
    5  A    between atoms: C_4  and  O_50
    6  A    between atoms: C_5  and  C_53
    7  A    between atoms: C_7  and  O_8
    8  A    between atoms: C_7  and  C_21
    9  A    between atoms: C_7  and  C_44
   10  A    between atoms: O_8  and  C_55
   11  A    between atoms: C_11  and  N_45
   12  A    between atoms: C_11  and  O_50
   13  A    between atoms: C_14  and  N_28
   14  A    between atoms: C_15  and  C_38
   15  A    between atoms: C_16  and  C_55
   16  A    between atoms: N_17  and  C_20
   17  A    between atoms: N_17  and  C_46
   18  A    between atoms: C_22  and  N_28
   19  A    between atoms: O_24  and  C_35
   20  A    between atoms: N_26  and  N_28
   21  A    between atoms: N_26  and  C_29
   22  A    between atoms: C_29  and  C_47
   23  A    between atoms: N_34  and  C_56
   24  A    between atoms: C_44  and  O_48
   25  A    between atoms: C_44  and  C_52
   26  A    between atoms: C_46  and  C_47
                            x       y       z     vdW  Elec       q    Type
                         _______ _______ _______ _____ _____    ______ ____

>  <TORSDO>
F 26

$$$$
=
 OpenBabel11062418023D

 58 61  0  0  1  0  0  0  0  0999 V2000
  191.2870  178.5890  143.1700 N   0  0  0  0  0  2  0  0  0  0  0  0
  191.8970  177.7940  142.1130 C   0  0  1  0  0  3  0  0  0  0  0  0
  191.5820  176.3250  142.3230 C   0  0  0  0  0  2  0  0  0  0  0  0
  190.8060  177.1360  141.2940 C   0  0  2  0  0  3  0  0  0  0  0  0
  191.3660  176.9320  139.8980 C   0  0  0  0  0  2  0  0  0  0  0  0
  190.5820  175.8710  139.1210 C   0  0  0  0  0  2  0  0  0  0  0  0
  189.5490  176.5010  138.1660 C   0  0  1  0  0  3  0  0  0  0  0  0
  189.2170  178.9780  137.8950 C   0  0  0  0  0  1  0  0  0  0  0  0
  188.8510  177.7530  138.7120 C   0  0  1  0  0  3  0  0  0  0  0  0
  187.4710  177.5760  138.6540 O   0  0  0  0  0  1  0  0  0  0  0  0
  189.9710  176.6090  136.8240 O   0  0  0  0  0  0  0  0  0  0  0  0
  189.0360  175.9890  135.9750 C   0  0  1  0  0  3  0  0  0  0  0  0
  188.3690  177.0210  135.1220 C   0  0  0  0  0  0  0  0  0  0  0  0
  186.9960  176.9910  134.9300 O   0  0  0  0  0  1  0  0  0  0  0  0
  189.0530  177.9340  134.5940 O   0  0  0  0  0  0  0  0  0  0  0  0
  189.7100  174.8900  135.1490 C   0  0  1  0  0  3  0  0  0  0  0  0
  193.9450  174.7370  135.9490 C   0  0  0  0  0  3  0  0  0  0  0  0
  192.0370  175.7890  134.8750 C   0  0  0  0  0  3  0  0  0  0  0  0
  193.4140  175.7530  135.1420 C   0  0  0  0  0  3  0  0  0  0  0  0
  193.1010  173.7610  136.4920 C   0  0  0  0  0  3  0  0  0  0  0  0
  191.7240  173.8010  136.2320 C   0  0  0  0  0  3  0  0  0  0  0  0
  191.1890  174.8120  135.4160 C   0  0  0  0  0  0  0  0  0  0  0  0
  189.0820  173.6540  135.3350 O   0  0  0  0  0  0  0  0  0  0  0  0
  187.7700  173.9480  135.4980 N   0  0  0  0  0  2  0  0  0  0  0  0
  187.1750  171.3820  135.6700 S   0  0  0  0  0  0  0  0  0  0  0  0
  186.7480  172.9460  135.4800 C   0  0  0  0  0  0  0  0  0  0  0  0
  184.3210  172.7950  136.2590 C   0  0  0  0  0  0  0  0  0  0  0  0
  182.6020  173.1130  135.8460 S   0  0  0  0  0  1  0  0  0  0  0  0
  185.3510  173.2780  135.3920 N   0  0  0  0  0  2  0  0  0  0  0  0
  184.6010  172.1910  137.3320 O   0  0  0  0  0  0  0  0  0  0  0  0
  189.9070  178.1370  143.3300 C   0  0  0  0  0  2  0  0  0  0  0  0
  188.9380  178.9770  142.5040 C   0  0  0  0  0  2  0  0  0  0  0  0
  187.7370  178.1640  142.0570 C   0  0  0  0  0  2  0  0  0  0  0  0
  187.3360  177.2360  143.1120 N   0  0  0  0  0  2  0  0  0  0  0  0
  186.4990  177.9430  143.9970 N   0  0  0  0  0  0  0  0  0  0  0  0
  184.1000  178.4760  141.3770 C   0  0  0  0  0  0  0  0  0  0  0  0
  184.1030  178.2550  144.1450 N   0  0  0  0  0  2  0  0  0  0  0  0
  182.9690  178.9750  143.5640 C   0  0  1  0  0  0  0  0  0  0  0  0
  185.3350  178.6640  143.4660 C   0  0  2  0  0  3  0  0  0  0  0  0
  183.1600  180.3420  143.6700 F   0  0  0  0  0  0  0  0  0  0  0  0
  182.7900  178.5860  142.1000 C   0  0  0  0  0  2  0  0  0  0  0  0
  181.7080  178.6070  144.3200 C   0  0  0  0  0  1  0  0  0  0  0  0
  185.2280  178.4600  142.0240 N   0  0  0  0  0  0  0  0  0  0  0  0
  184.0810  178.3480  139.9880 O   0  0  0  0  0  0  0  0  0  0  0  0
  182.8840  178.0940  139.2670 C   0  0  0  0  0  2  0  0  0  0  0  0
  181.6690  178.7710  136.7850 O   0  0  0  0  0  0  0  0  0  0  0  0
  182.5440  177.8690  136.7760 C   0  0  0  0  0  0  0  0  0  0  0  0
  183.2030  177.4830  137.9840 N   0  0  0  0  0  2  0  0  0  0  0  0
  182.9170  177.2150  135.4910 C   0  0  0  0  0  2  0  0  0  0  0  0
  181.6650  176.8160  134.7320 C   0  0  0  0  0  1  0  0  0  0  0  0
  185.9980  178.6760  146.3080 C   0  0  0  0  0  3  0  0  0  0  0  0
  186.8320  178.0040  145.4000 C   0  0  0  0  0  0  0  0  0  0  0  0
  187.4760  178.0980  148.1380 C   0  0  0  0  0  3  0  0  0  0  0  0
  188.3190  177.4230  147.2450 C   0  0  0  0  0  0  0  0  0  0  0  0
  186.3150  178.7220  147.6680 C   0  0  0  0  0  3  0  0  0  0  0  0
  187.9990  177.3840  145.8870 C   0  0  0  0  0  3  0  0  0  0  0  0
  189.4770  176.7870  147.6920 O   0  0  0  0  0  0  0  0  0  0  0  0
  190.6800  177.1220  147.2020 O   0  0  0  0  0  1  0  0  0  0  0  0
  1 31  1  0  0  0  0
  2  3  1  0  0  0  0
  2  1  1  1  0  0  0
  4  5  1  6  0  0  0
  4  2  1  0  0  0  0
  4  3  1  0  0  0  0
  6  5  1  0  0  0  0
  7  9  1  0  0  0  0
  7  6  1  1  0  0  0
  9  8  1  6  0  0  0
 10  9  1  0  0  0  0
 11  7  1  0  0  0  0
 12 13  1  6  0  0  0
 12 11  1  0  0  0  0
 14 13  1  0  0  0  0
 15 13  2  0  0  0  0
 16 23  1  1  0  0  0
 16 22  1  0  0  0  0
 16 12  1  0  0  0  0
 17 20  1  0  0  0  0
 18 19  1  0  0  0  0
 18 22  2  0  0  0  0
 19 17  2  0  0  0  0
 21 20  2  0  0  0  0
 22 21  1  0  0  0  0
 23 24  1  0  0  0  0
 26 24  1  0  0  0  0
 26 25  2  0  0  0  0
 27 30  2  0  0  0  0
 28 27  1  0  0  0  0
 29 26  1  0  0  0  0
 29 27  1  0  0  0  0
 32 31  1  0  0  0  0
 33 32  1  0  0  0  0
 33 34  1  0  0  0  0
 34 35  1  0  0  0  0
 35 52  1  0  0  0  0
 36 43  2  0  0  0  0
 36 41  1  0  0  0  0
 38 40  1  0  0  0  0
 38 37  1  0  0  0  0
 38 42  1  1  0  0  0
 39 35  1  1  0  0  0
 39 37  1  0  0  0  0
 41 38  1  0  0  0  0
 43 39  1  0  0  0  0
 44 36  1  0  0  0  0
 45 44  1  0  0  0  0
 47 46  2  0  0  0  0
 47 48  1  0  0  0  0
 48 45  1  0  0  0  0
 49 47  1  0  0  0  0
 50 49  1  0  0  0  0
 51 55  1  0  0  0  0
 52 56  1  0  0  0  0
 52 51  2  0  0  0  0
 54 57  1  0  0  0  0
 54 53  1  0  0  0  0
 55 53  2  0  0  0  0
 56 54  2  0  0  0  0
 58 57  1  0  0  0  0
M  END
>  <MODEL>
6

>  <REMARK>
 VINA RESULT:      -5.1      2.987      7.851
  Name = 
  26 active torsions:
  status: ('A' for Active; 'I' for Inactive)
    1  A    between atoms: C_2  and  C_15
    2  A    between atoms: C_2  and  C_55
    3  A    between atoms: N_3  and  O_48
    4  A    between atoms: N_3  and  C_56
    5  A    between atoms: C_4  and  O_50
    6  A    between atoms: C_5  and  C_53
    7  A    between atoms: C_7  and  O_8
    8  A    between atoms: C_7  and  C_21
    9  A    between atoms: C_7  and  C_44
   10  A    between atoms: O_8  and  C_55
   11  A    between atoms: C_11  and  N_45
   12  A    between atoms: C_11  and  O_50
   13  A    between atoms: C_14  and  N_28
   14  A    between atoms: C_15  and  C_38
   15  A    between atoms: C_16  and  C_55
   16  A    between atoms: N_17  and  C_20
   17  A    between atoms: N_17  and  C_46
   18  A    between atoms: C_22  and  N_28
   19  A    between atoms: O_24  and  C_35
   20  A    between atoms: N_26  and  N_28
   21  A    between atoms: N_26  and  C_29
   22  A    between atoms: C_29  and  C_47
   23  A    between atoms: N_34  and  C_56
   24  A    between atoms: C_44  and  O_48
   25  A    between atoms: C_44  and  C_52
   26  A    between atoms: C_46  and  C_47
                            x       y       z     vdW  Elec       q    Type
                         _______ _______ _______ _____ _____    ______ ____

>  <TORSDO>
F 26

$$$$
=
 OpenBabel11062418023D

 58 61  0  0  1  0  0  0  0  0999 V2000
  182.8340  178.7050  143.9650 N   0  0  0  0  0  2  0  0  0  0  0  0
  184.1690  179.2710  143.8220 C   0  0  1  0  0  3  0  0  0  0  0  0
  184.9350  179.1240  145.1220 C   0  0  0  0  0  2  0  0  0  0  0  0
  185.1950  178.1670  143.9670 C   0  0  2  0  0  3  0  0  0  0  0  0
  186.4130  178.5900  143.1660 C   0  0  0  0  0  2  0  0  0  0  0  0
  186.9260  177.4580  142.2710 C   0  0  0  0  0  2  0  0  0  0  0  0
  188.3950  177.6720  141.8560 C   0  0  1  0  0  3  0  0  0  0  0  0
  189.0720  177.1780  139.4860 C   0  0  0  0  0  1  0  0  0  0  0  0
  188.5850  178.2470  140.4470 C   0  0  1  0  0  3  0  0  0  0  0  0
  187.3690  178.7430  139.9810 O   0  0  0  0  0  1  0  0  0  0  0  0
  189.2090  178.2670  142.8420 O   0  0  0  0  0  0  0  0  0  0  0  0
  189.7940  177.2730  143.6470 C   0  0  1  0  0  3  0  0  0  0  0  0
  190.8210  176.5260  142.8570 C   0  0  0  0  0  0  0  0  0  0  0  0
  191.7800  177.2120  142.1270 O   0  0  0  0  0  0  0  0  0  0  0  0
  190.8290  175.2690  142.8710 O   0  0  0  0  0  1  0  0  0  0  0  0
  190.3700  177.8890  144.9250 C   0  0  1  0  0  3  0  0  0  0  0  0
  187.5860  177.7510  148.2160 C   0  0  0  0  0  3  0  0  0  0  0  0
  189.7230  178.4370  147.2870 C   0  0  0  0  0  3  0  0  0  0  0  0
  188.8170  178.4070  148.3570 C   0  0  0  0  0  3  0  0  0  0  0  0
  187.2600  177.1290  147.0050 C   0  0  0  0  0  3  0  0  0  0  0  0
  188.1610  177.1640  145.9320 C   0  0  0  0  0  3  0  0  0  0  0  0
  189.4000  177.8130  146.0730 C   0  0  0  0  0  0  0  0  0  0  0  0
  191.6070  177.3230  145.2520 O   0  0  0  0  0  0  0  0  0  0  0  0
  191.5620  177.1330  146.5930 N   0  0  0  0  0  2  0  0  0  0  0  0
  191.6630  174.4950  146.6410 S   0  0  0  0  0  0  0  0  0  0  0  0
  192.0890  175.9600  147.2210 C   0  0  0  0  0  0  0  0  0  0  0  0
  193.1130  177.0420  149.2960 C   0  0  0  0  0  0  0  0  0  0  0  0
  194.5360  177.1110  150.3910 S   0  0  0  0  0  1  0  0  0  0  0  0
  193.0540  176.0300  148.2860 N   0  0  0  0  0  2  0  0  0  0  0  0
  192.1630  177.8570  149.4580 O   0  0  0  0  0  0  0  0  0  0  0  0
  182.0470  179.1190  142.8060 C   0  0  0  0  0  2  0  0  0  0  0  0
  182.5020  178.4150  141.5320 C   0  0  0  0  0  2  0  0  0  0  0  0
  181.6910  178.8590  140.3290 C   0  0  0  0  0  2  0  0  0  0  0  0
  182.4400  178.6160  139.0990 N   0  0  0  0  0  2  0  0  0  0  0  0
  181.5040  178.5100  138.0520 N   0  0  0  0  0  0  0  0  0  0  0  0
  182.0630  175.1370  136.9490 C   0  0  0  0  0  0  0  0  0  0  0  0
  180.5430  176.4450  138.8700 N   0  0  0  0  0  2  0  0  0  0  0  0
  180.0580  175.1250  138.4610 C   0  0  1  0  0  0  0  0  0  0  0  0
  180.9790  177.1880  137.6860 C   0  0  2  0  0  3  0  0  0  0  0  0
  179.0220  175.2540  137.5500 F   0  0  0  0  0  0  0  0  0  0  0  0
  181.1920  174.3110  137.8490 C   0  0  0  0  0  2  0  0  0  0  0  0
  179.5350  174.3890  139.6790 C   0  0  0  0  0  1  0  0  0  0  0  0
  181.9820  176.4350  136.9380 N   0  0  0  0  0  0  0  0  0  0  0  0
  183.0010  174.4810  136.1510 O   0  0  0  0  0  0  0  0  0  0  0  0
  184.3690  174.8600  136.1230 C   0  0  0  0  0  2  0  0  0  0  0  0
  185.5940  173.0360  137.9330 O   0  0  0  0  0  0  0  0  0  0  0  0
  185.7790  172.8480  136.7040 C   0  0  0  0  0  0  0  0  0  0  0  0
  185.1880  173.7190  135.7370 N   0  0  0  0  0  2  0  0  0  0  0  0
  186.6010  171.6920  136.2510 C   0  0  0  0  0  2  0  0  0  0  0  0
  188.0600  172.0980  136.1610 C   0  0  0  0  0  1  0  0  0  0  0  0
  180.6900  179.5920  135.9800 C   0  0  0  0  0  3  0  0  0  0  0  0
  181.1230  179.6890  137.3110 C   0  0  0  0  0  0  0  0  0  0  0  0
  180.3620  181.9900  135.8830 C   0  0  0  0  0  3  0  0  0  0  0  0
  180.7930  182.1040  137.2110 C   0  0  0  0  0  0  0  0  0  0  0  0
  180.3090  180.7340  135.2690 C   0  0  0  0  0  3  0  0  0  0  0  0
  181.1750  180.9600  137.9140 C   0  0  0  0  0  3  0  0  0  0  0  0
  180.8460  183.3460  137.8450 O   0  0  0  0  0  0  0  0  0  0  0  0
  180.7550  184.4830  137.1400 O   0  0  0  0  0  1  0  0  0  0  0  0
  2  1  1  1  0  0  0
  2  4  1  0  0  0  0
  2  3  1  0  0  0  0
  4  5  1  6  0  0  0
  4  3  1  0  0  0  0
  6  5  1  0  0  0  0
  7  6  1  1  0  0  0
  7 11  1  0  0  0  0
  9  8  1  6  0  0  0
  9  7  1  0  0  0  0
 10  9  1  0  0  0  0
 12 11  1  6  0  0  0
 12 16  1  0  0  0  0
 13 15  1  0  0  0  0
 13 12  1  0  0  0  0
 14 13  2  0  0  0  0
 16 23  1  1  0  0  0
 16 22  1  0  0  0  0
 17 19  1  0  0  0  0
 18 19  2  0  0  0  0
 20 17  2  0  0  0  0
 21 22  2  0  0  0  0
 21 20  1  0  0  0  0
 22 18  1  0  0  0  0
 23 24  1  0  0  0  0
 24 26  1  0  0  0  0
 25 26  2  0  0  0  0
 26 29  1  0  0  0  0
 27 30  2  0  0  0  0
 27 28  1  0  0  0  0
 29 27  1  0  0  0  0
 31  1  1  0  0  0  0
 32 31  1  0  0  0  0
 33 32  1  0  0  0  0
 34 33  1  0  0  0  0
 35 34  1  0  0  0  0
 36 41  1  0  0  0  0
 38 37  1  0  0  0  0
 38 42  1  1  0  0  0
 39 35  1  1  0  0  0
 39 37  1  0  0  0  0
 40 38  1  0  0  0  0
 41 38  1  0  0  0  0
 43 36  2  0  0  0  0
 43 39  1  0  0  0  0
 44 36  1  0  0  0  0
 45 44  1  0  0  0  0
 47 46  2  0  0  0  0
 48 45  1  0  0  0  0
 48 47  1  0  0  0  0
 49 47  1  0  0  0  0
 50 49  1  0  0  0  0
 51 52  1  0  0  0  0
 52 56  2  0  0  0  0
 52 35  1  0  0  0  0
 53 54  2  0  0  0  0
 54 57  1  0  0  0  0
 54 56  1  0  0  0  0
 55 53  1  0  0  0  0
 55 51  2  0  0  0  0
 58 57  1  0  0  0  0
M  END
>  <MODEL>
7

>  <REMARK>
 VINA RESULT:      -5.0      4.465     11.301
  Name = 
  26 active torsions:
  status: ('A' for Active; 'I' for Inactive)
    1  A    between atoms: C_2  and  C_15
    2  A    between atoms: C_2  and  C_55
    3  A    between atoms: N_3  and  O_48
    4  A    between atoms: N_3  and  C_56
    5  A    between atoms: C_4  and  O_50
    6  A    between atoms: C_5  and  C_53
    7  A    between atoms: C_7  and  O_8
    8  A    between atoms: C_7  and  C_21
    9  A    between atoms: C_7  and  C_44
   10  A    between atoms: O_8  and  C_55
   11  A    between atoms: C_11  and  N_45
   12  A    between atoms: C_11  and  O_50
   13  A    between atoms: C_14  and  N_28
   14  A    between atoms: C_15  and  C_38
   15  A    between atoms: C_16  and  C_55
   16  A    between atoms: N_17  and  C_20
   17  A    between atoms: N_17  and  C_46
   18  A    between atoms: C_22  and  N_28
   19  A    between atoms: O_24  and  C_35
   20  A    between atoms: N_26  and  N_28
   21  A    between atoms: N_26  and  C_29
   22  A    between atoms: C_29  and  C_47
   23  A    between atoms: N_34  and  C_56
   24  A    between atoms: C_44  and  O_48
   25  A    between atoms: C_44  and  C_52
   26  A    between atoms: C_46  and  C_47
                            x       y       z     vdW  Elec       q    Type
                         _______ _______ _______ _____ _____    ______ ____

>  <TORSDO>
F 26

$$$$
=
 OpenBabel11062418023D

 58 61  0  0  1  0  0  0  0  0999 V2000
  184.9770  178.9710  145.4710 N   0  0  0  0  0  2  0  0  0  0  0  0
  183.8620  179.6260  144.8010 C   0  0  1  0  0  3  0  0  0  0  0  0
  184.0990  179.6490  143.3030 C   0  0  0  0  0  2  0  0  0  0  0  0
  183.1560  178.6230  143.9140 C   0  0  2  0  0  3  0  0  0  0  0  0
  181.7100  179.0710  143.8060 C   0  0  0  0  0  2  0  0  0  0  0  0
  180.8610  178.0700  143.0170 C   0  0  0  0  0  2  0  0  0  0  0  0
  180.5630  178.5650  141.5890 C   0  0  1  0  0  3  0  0  0  0  0  0
  178.9310  180.3340  140.8620 C   0  0  0  0  0  1  0  0  0  0  0  0
  180.2940  180.0710  141.4750 C   0  0  1  0  0  3  0  0  0  0  0  0
  180.3280  180.6440  142.7450 O   0  0  0  0  0  1  0  0  0  0  0  0
  181.4190  178.0500  140.5920 O   0  0  0  0  0  0  0  0  0  0  0  0
  181.8800  179.0940  139.7690 C   0  0  1  0  0  3  0  0  0  0  0  0
  183.3710  179.0310  139.6650 C   0  0  0  0  0  0  0  0  0  0  0  0
  184.0890  180.1270  139.2130 O   0  0  0  0  0  0  0  0  0  0  0  0
  183.9790  177.9860  140.0110 O   0  0  0  0  0  1  0  0  0  0  0  0
  181.1940  179.0390  138.4010 C   0  0  1  0  0  3  0  0  0  0  0  0
  180.6800  182.9440  136.6430 C   0  0  0  0  0  3  0  0  0  0  0  0
  180.6400  180.5230  136.4540 C   0  0  0  0  0  3  0  0  0  0  0  0
  180.4580  181.7890  135.8800 C   0  0  0  0  0  3  0  0  0  0  0  0
  181.0780  182.8320  137.9810 C   0  0  0  0  0  3  0  0  0  0  0  0
  181.2530  181.5670  138.5580 C   0  0  0  0  0  3  0  0  0  0  0  0
  181.0410  180.4070  137.7930 C   0  0  0  0  0  0  0  0  0  0  0  0
  181.8490  178.1560  137.5360 O   0  0  0  0  0  0  0  0  0  0  0  0
  180.9410  177.8710  136.5720 N   0  0  0  0  0  2  0  0  0  0  0  0
  178.9450  176.4230  135.6290 S   0  0  0  0  0  0  0  0  0  0  0  0
  180.3680  176.5690  136.4150 C   0  0  0  0  0  0  0  0  0  0  0  0
  182.0480  174.6700  136.1020 C   0  0  0  0  0  0  0  0  0  0  0  0
  182.6030  173.0640  136.6810 S   0  0  0  0  0  1  0  0  0  0  0  0
  181.0490  175.3770  136.8440 N   0  0  0  0  0  2  0  0  0  0  0  0
  182.5760  175.1780  135.0730 O   0  0  0  0  0  0  0  0  0  0  0  0
  185.1480  177.6520  144.8670 C   0  0  0  0  0  2  0  0  0  0  0  0
  186.6220  177.3050  144.6750 C   0  0  0  0  0  2  0  0  0  0  0  0
  187.3450  178.3680  143.8690 C   0  0  0  0  0  2  0  0  0  0  0  0
  187.3470  178.0120  142.4530 N   0  0  0  0  0  2  0  0  0  0  0  0
  188.6770  177.7240  142.0940 N   0  0  0  0  0  0  0  0  0  0  0  0
  188.5190  178.0410  138.5190 C   0  0  0  0  0  0  0  0  0  0  0  0
  190.3870  177.2990  140.4340 N   0  0  0  0  0  2  0  0  0  0  0  0
  190.6180  176.7840  139.0830 C   0  0  1  0  0  0  0  0  0  0  0  0
  188.9630  177.1900  140.7560 C   0  0  2  0  0  3  0  0  0  0  0  0
  190.1900  175.4700  138.9880 F   0  0  0  0  0  0  0  0  0  0  0  0
  189.8900  177.6440  138.0570 C   0  0  0  0  0  2  0  0  0  0  0  0
  192.1040  176.8250  138.7840 C   0  0  0  0  0  1  0  0  0  0  0  0
  188.1480  177.8730  139.7550 N   0  0  0  0  0  0  0  0  0  0  0  0
  187.6560  178.6380  137.5990 O   0  0  0  0  0  0  0  0  0  0  0  0
  187.4520  178.1080  136.2980 C   0  0  0  0  0  2  0  0  0  0  0  0
  186.1200  175.6100  136.5980 O   0  0  0  0  0  0  0  0  0  0  0  0
  187.3550  175.5860  136.3650 C   0  0  0  0  0  0  0  0  0  0  0  0
  188.0880  176.8010  136.1940 N   0  0  0  0  0  2  0  0  0  0  0  0
  188.0560  174.2780  136.2410 C   0  0  0  0  0  2  0  0  0  0  0  0
  189.5380  174.4570  136.5120 C   0  0  0  0  0  1  0  0  0  0  0  0
  190.2600  179.1680  143.3330 C   0  0  0  0  0  3  0  0  0  0  0  0
  189.7330  177.8960  143.0640 C   0  0  0  0  0  0  0  0  0  0  0  0
  191.7740  178.2250  144.9720 C   0  0  0  0  0  3  0  0  0  0  0  0
  191.2590  176.9480  144.7140 C   0  0  0  0  0  0  0  0  0  0  0  0
  191.2730  179.3340  144.2820 C   0  0  0  0  0  3  0  0  0  0  0  0
  190.2510  176.7880  143.7620 C   0  0  0  0  0  3  0  0  0  0  0  0
  191.7390  175.8290  145.3950 O   0  0  0  0  0  0  0  0  0  0  0  0
  191.4780  175.6510  146.6980 O   0  0  0  0  0  1  0  0  0  0  0  0
  2  1  1  1  0  0  0
  3  4  1  0  0  0  0
  3  2  1  0  0  0  0
  4  5  1  6  0  0  0
  4  2  1  0  0  0  0
  6  5  1  0  0  0  0
  7  6  1  1  0  0  0
  9  8  1  1  0  0  0
  9  7  1  0  0  0  0
  9 10  1  0  0  0  0
 11  7  1  0  0  0  0
 12 13  1  6  0  0  0
 12 11  1  0  0  0  0
 13 15  1  0  0  0  0
 14 13  2  0  0  0  0
 16 23  1  6  0  0  0
 16 12  1  0  0  0  0
 17 20  1  0  0  0  0
 18 22  2  0  0  0  0
 19 18  1  0  0  0  0
 19 17  2  0  0  0  0
 20 21  2  0  0  0  0
 22 16  1  0  0  0  0
 22 21  1  0  0  0  0
 24 23  1  0  0  0  0
 25 26  2  0  0  0  0
 26 24  1  0  0  0  0
 26 29  1  0  0  0  0
 27 28  1  0  0  0  0
 27 29  1  0  0  0  0
 30 27  2  0  0  0  0
 31  1  1  0  0  0  0
 32 31  1  0  0  0  0
 33 32  1  0  0  0  0
 34 33  1  0  0  0  0
 35 34  1  0  0  0  0
 35 52  1  0  0  0  0
 36 43  2  0  0  0  0
 37 39  1  0  0  0  0
 38 42  1  6  0  0  0
 38 37  1  0  0  0  0
 39 35  1  1  0  0  0
 40 38  1  0  0  0  0
 41 36  1  0  0  0  0
 41 38  1  0  0  0  0
 43 39  1  0  0  0  0
 44 36  1  0  0  0  0
 45 44  1  0  0  0  0
 47 46  2  0  0  0  0
 48 45  1  0  0  0  0
 48 47  1  0  0  0  0
 49 47  1  0  0  0  0
 49 50  1  0  0  0  0
 51 55  1  0  0  0  0
 52 51  2  0  0  0  0
 52 56  1  0  0  0  0
 54 53  1  0  0  0  0
 54 57  1  0  0  0  0
 55 53  2  0  0  0  0
 56 54  2  0  0  0  0
 57 58  1  0  0  0  0
M  END
>  <MODEL>
8

>  <REMARK>
 VINA RESULT:      -5.0      3.120      5.902
  Name = 
  26 active torsions:
  status: ('A' for Active; 'I' for Inactive)
    1  A    between atoms: C_2  and  C_15
    2  A    between atoms: C_2  and  C_55
    3  A    between atoms: N_3  and  O_48
    4  A    between atoms: N_3  and  C_56
    5  A    between atoms: C_4  and  O_50
    6  A    between atoms: C_5  and  C_53
    7  A    between atoms: C_7  and  O_8
    8  A    between atoms: C_7  and  C_21
    9  A    between atoms: C_7  and  C_44
   10  A    between atoms: O_8  and  C_55
   11  A    between atoms: C_11  and  N_45
   12  A    between atoms: C_11  and  O_50
   13  A    between atoms: C_14  and  N_28
   14  A    between atoms: C_15  and  C_38
   15  A    between atoms: C_16  and  C_55
   16  A    between atoms: N_17  and  C_20
   17  A    between atoms: N_17  and  C_46
   18  A    between atoms: C_22  and  N_28
   19  A    between atoms: O_24  and  C_35
   20  A    between atoms: N_26  and  N_28
   21  A    between atoms: N_26  and  C_29
   22  A    between atoms: C_29  and  C_47
   23  A    between atoms: N_34  and  C_56
   24  A    between atoms: C_44  and  O_48
   25  A    between atoms: C_44  and  C_52
   26  A    between atoms: C_46  and  C_47
                            x       y       z     vdW  Elec       q    Type
                         _______ _______ _______ _____ _____    ______ ____

>  <TORSDO>
F 26

$$$$
=
 OpenBabel11062418023D

 58 61  0  0  1  0  0  0  0  0999 V2000
  191.1120  178.5460  143.3070 N   0  0  0  0  0  2  0  0  0  0  0  0
  191.7820  177.7760  142.2680 C   0  0  1  0  0  3  0  0  0  0  0  0
  191.4760  176.3000  142.4390 C   0  0  0  0  0  2  0  0  0  0  0  0
  190.7410  177.1180  141.3860 C   0  0  2  0  0  3  0  0  0  0  0  0
  191.3710  176.9440  140.0160 C   0  0  0  0  0  2  0  0  0  0  0  0
  190.6190  175.9110  139.1720 C   0  0  0  0  0  2  0  0  0  0  0  0
  189.6370  176.5760  138.1870 C   0  0  1  0  0  3  0  0  0  0  0  0
  189.1980  179.0490  138.0750 C   0  0  0  0  0  1  0  0  0  0  0  0
  188.8390  177.7490  138.7710 C   0  0  1  0  0  3  0  0  0  0  0  0
  187.4770  177.5140  138.5970 O   0  0  0  0  0  1  0  0  0  0  0  0
  190.1590  176.8120  136.8980 O   0  0  0  0  0  0  0  0  0  0  0  0
  189.4920  176.0090  135.9550 C   0  0  1  0  0  3  0  0  0  0  0  0
  188.6950  176.8740  135.0320 C   0  0  0  0  0  0  0  0  0  0  0  0
  189.1920  178.0990  134.6150 O   0  0  0  0  0  1  0  0  0  0  0  0
  187.5760  176.4800  134.6150 O   0  0  0  0  0  0  0  0  0  0  0  0
  190.4900  175.1190  135.2100 C   0  0  1  0  0  3  0  0  0  0  0  0
  194.5830  175.9020  136.3220 C   0  0  0  0  0  3  0  0  0  0  0  0
  192.4310  174.8740  136.7830 C   0  0  0  0  0  3  0  0  0  0  0  0
  193.7640  175.1140  137.1440 C   0  0  0  0  0  3  0  0  0  0  0  0
  194.0690  176.4450  135.1380 C   0  0  0  0  0  3  0  0  0  0  0  0
  192.7390  176.2000  134.7730 C   0  0  0  0  0  3  0  0  0  0  0  0
  191.9120  175.4190  135.5980 C   0  0  0  0  0  0  0  0  0  0  0  0
  190.1830  173.7630  135.3690 O   0  0  0  0  0  0  0  0  0  0  0  0
  188.8720  173.6590  135.0410 N   0  0  0  0  0  2  0  0  0  0  0  0
  189.1330  171.0400  134.8480 S   0  0  0  0  0  0  0  0  0  0  0  0
  188.2300  172.3980  134.8280 C   0  0  0  0  0  0  0  0  0  0  0  0
  185.8640  172.1810  135.7650 C   0  0  0  0  0  0  0  0  0  0  0  0
  184.1490  171.7840  135.4020 S   0  0  0  0  0  1  0  0  0  0  0  0
  186.8020  172.2800  134.6900 N   0  0  0  0  0  2  0  0  0  0  0  0
  186.2100  172.4120  136.9570 O   0  0  0  0  0  0  0  0  0  0  0  0
  189.7500  178.0330  143.4340 C   0  0  0  0  0  2  0  0  0  0  0  0
  188.7410  178.9210  142.7110 C   0  0  0  0  0  2  0  0  0  0  0  0
  187.5350  178.1270  142.2440 C   0  0  0  0  0  2  0  0  0  0  0  0
  187.1590  177.1410  143.2540 N   0  0  0  0  0  2  0  0  0  0  0  0
  186.1130  177.6980  144.0150 N   0  0  0  0  0  0  0  0  0  0  0  0
  188.1410  177.4980  146.9730 C   0  0  0  0  0  0  0  0  0  0  0  0
  186.1360  179.1320  145.9650 N   0  0  0  0  0  2  0  0  0  0  0  0
  186.2970  179.1430  147.4200 C   0  0  1  0  0  0  0  0  0  0  0  0
  186.2380  177.7550  145.4770 C   0  0  2  0  0  3  0  0  0  0  0  0
  185.3430  178.3350  148.0170 F   0  0  0  0  0  0  0  0  0  0  0  0
  187.6940  178.6670  147.8010 C   0  0  0  0  0  2  0  0  0  0  0  0
  186.1120  180.5590  147.9290 C   0  0  0  0  0  1  0  0  0  0  0  0
  187.4950  177.1440  145.9010 N   0  0  0  0  0  0  0  0  0  0  0  0
  189.2990  176.8190  147.3560 O   0  0  0  0  0  0  0  0  0  0  0  0
  190.5870  177.2030  146.9020 C   0  0  0  0  0  2  0  0  0  0  0  0
  192.4290  175.0340  146.9210 O   0  0  0  0  0  0  0  0  0  0  0  0
  192.4620  175.8330  147.8910 C   0  0  0  0  0  0  0  0  0  0  0  0
  191.5720  176.9500  147.9440 N   0  0  0  0  0  2  0  0  0  0  0  0
  193.4550  175.6270  148.9820 C   0  0  0  0  0  2  0  0  0  0  0  0
  193.5560  176.8800  149.8320 C   0  0  0  0  0  1  0  0  0  0  0  0
  183.7770  178.5120  144.1020 C   0  0  0  0  0  3  0  0  0  0  0  0
  184.9080  178.1440  143.3570 C   0  0  0  0  0  0  0  0  0  0  0  0
  182.5710  179.0330  142.0660 C   0  0  0  0  0  3  0  0  0  0  0  0
  183.6920  178.6690  141.3080 C   0  0  0  0  0  0  0  0  0  0  0  0
  182.6160  178.9560  143.4620 C   0  0  0  0  0  3  0  0  0  0  0  0
  184.8470  178.2230  141.9530 C   0  0  0  0  0  3  0  0  0  0  0  0
  183.6730  178.7460  139.9160 O   0  0  0  0  0  0  0  0  0  0  0  0
  183.2380  179.8510  139.2930 O   0  0  0  0  0  1  0  0  0  0  0  0
  1 31  1  0  0  0  0
  2  3  1  0  0  0  0
  2  1  1  1  0  0  0
  4  5  1  6  0  0  0
  4  2  1  0  0  0  0
  4  3  1  0  0  0  0
  6  5  1  0  0  0  0
  7  9  1  0  0  0  0
  7  6  1  1  0  0  0
  9  8  1  6  0  0  0
 10  9  1  0  0  0  0
 11  7  1  0  0  0  0
 12 13  1  6  0  0  0
 12 11  1  0  0  0  0
 14 13  1  0  0  0  0
 15 13  2  0  0  0  0
 16 23  1  1  0  0  0
 16 22  1  0  0  0  0
 16 12  1  0  0  0  0
 17 19  1  0  0  0  0
 18 19  2  0  0  0  0
 20 17  2  0  0  0  0
 21 20  1  0  0  0  0
 21 22  2  0  0  0  0
 22 18  1  0  0  0  0
 24 23  1  0  0  0  0
 26 25  2  0  0  0  0
 26 24  1  0  0  0  0
 27 30  2  0  0  0  0
 28 27  1  0  0  0  0
 29 26  1  0  0  0  0
 29 27  1  0  0  0  0
 32 31  1  0  0  0  0
 33 32  1  0  0  0  0
 33 34  1  0  0  0  0
 34 35  1  0  0  0  0
 36 44  1  0  0  0  0
 36 41  1  0  0  0  0
 37 38  1  0  0  0  0
 38 41  1  0  0  0  0
 38 42  1  1  0  0  0
 38 40  1  0  0  0  0
 39 35  1  6  0  0  0
 39 43  1  0  0  0  0
 39 37  1  0  0  0  0
 43 36  2  0  0  0  0
 45 44  1  0  0  0  0
 45 48  1  0  0  0  0
 46 47  2  0  0  0  0
 47 48  1  0  0  0  0
 47 49  1  0  0  0  0
 49 50  1  0  0  0  0
 52 35  1  0  0  0  0
 52 51  2  0  0  0  0
 53 55  2  0  0  0  0
 54 56  2  0  0  0  0
 54 53  1  0  0  0  0
 55 51  1  0  0  0  0
 56 52  1  0  0  0  0
 57 54  1  0  0  0  0
 58 57  1  0  0  0  0
M  END
>  <MODEL>
9

>  <REMARK>
 VINA RESULT:      -5.0      3.734      8.221
  Name = 
  26 active torsions:
  status: ('A' for Active; 'I' for Inactive)
    1  A    between atoms: C_2  and  C_15
    2  A    between atoms: C_2  and  C_55
    3  A    between atoms: N_3  and  O_48
    4  A    between atoms: N_3  and  C_56
    5  A    between atoms: C_4  and  O_50
    6  A    between atoms: C_5  and  C_53
    7  A    between atoms: C_7  and  O_8
    8  A    between atoms: C_7  and  C_21
    9  A    between atoms: C_7  and  C_44
   10  A    between atoms: O_8  and  C_55
   11  A    between atoms: C_11  and  N_45
   12  A    between atoms: C_11  and  O_50
   13  A    between atoms: C_14  and  N_28
   14  A    between atoms: C_15  and  C_38
   15  A    between atoms: C_16  and  C_55
   16  A    between atoms: N_17  and  C_20
   17  A    between atoms: N_17  and  C_46
   18  A    between atoms: C_22  and  N_28
   19  A    between atoms: O_24  and  C_35
   20  A    between atoms: N_26  and  N_28
   21  A    between atoms: N_26  and  C_29
   22  A    between atoms: C_29  and  C_47
   23  A    between atoms: N_34  and  C_56
   24  A    between atoms: C_44  and  O_48
   25  A    between atoms: C_44  and  C_52
   26  A    between atoms: C_46  and  C_47
                            x       y       z     vdW  Elec       q    Type
                         _______ _______ _______ _____ _____    ______ ____

>  <TORSDO>
F 26

$$$$
