=
 OpenBabel11062416183D

 29 33  0  0  1  0  0  0  0  0999 V2000
  185.7760  178.0480  143.1710 C   0  0  0  0  0  2  0  0  0  0  0  0
  189.0580  177.4040  144.5420 C   0  0  0  0  0  0  0  0  0  0  0  0
  191.5230  177.5590  141.0570 O   0  0  0  0  0  0  0  0  0  0  0  0
  190.0180  177.1710  143.3880 C   0  0  2  0  0  3  0  0  0  0  0  0
  188.3520  177.4530  147.0040 C   0  0  0  0  0  2  0  0  0  0  0  0
  187.7770  177.5320  144.2650 C   0  0  0  0  0  0  0  0  0  0  0  0
  190.2710  177.6420  140.9190 C   0  0  0  0  0  0  0  0  0  0  0  0
  187.0900  177.9800  146.5510 O   0  0  0  0  0  0  0  0  0  0  0  0
  189.4100  177.4840  142.0620 N   0  0  0  0  0  0  0  0  0  0  0  0
  187.2090  177.6450  142.9780 C   0  0  0  0  0  0  0  0  0  0  0  0
  186.7850  177.9000  145.1950 C   0  0  0  0  0  0  0  0  0  0  0  0
  189.5020  177.6550  145.9700 C   0  0  0  0  0  2  0  0  0  0  0  0
  187.9820  177.6800  141.9010 C   0  0  0  0  0  3  0  0  0  0  0  0
  185.6550  178.1990  144.6380 N   0  0  0  0  0  0  0  0  0  0  0  0
  189.7710  177.3180  137.1220 N   0  0  0  0  0  2  0  0  0  0  0  0
  188.2380  177.5250  139.4140 C   0  0  0  0  0  2  0  0  0  0  0  0
  187.6460  178.0660  138.1080 C   0  0  0  0  0  2  0  0  0  0  0  0
  189.6970  177.9510  139.5620 C   0  0  2  0  0  3  0  0  0  0  0  0
  190.5600  177.4880  138.3550 C   0  0  1  0  0  3  0  0  0  0  0  0
  188.7160  178.3250  137.0400 C   0  0  0  0  0  2  0  0  0  0  0  0
  191.3800  176.2230  138.6360 C   0  0  2  0  0  3  0  0  0  0  0  0
  191.7470  174.4050  137.2420 C   0  0  0  0  0  0  0  0  0  0  0  0
  191.5070  173.3060  136.6070 N   0  0  0  0  0  2  0  0  0  0  0  0
  192.7980  176.3400  138.0570 C   0  0  0  0  0  3  0  0  0  0  0  0
  190.7710  175.0530  138.0260 N   0  0  0  0  0  2  0  0  0  0  0  0
  193.0570  175.0780  137.2360 C   0  0  0  0  0  3  0  0  0  0  0  0
  190.5020  175.7240  143.4010 C   0  0  0  0  0  2  0  0  0  0  0  0
  192.1710  174.2940  144.3350 O   0  0  0  0  0  1  0  0  0  0  0  0
  191.9010  175.6170  143.9830 C   0  0  0  0  0  2  0  0  0  0  0  0
  1 14  1  0  0  0  0
  2 12  1  0  0  0  0
  4 27  1  6  0  0  0
  4  2  1  0  0  0  0
  6  2  2  0  0  0  0
  6 11  1  0  0  0  0
  7  3  2  0  0  0  0
  7  9  1  0  0  0  0
  8  5  1  0  0  0  0
  9  4  1  0  0  0  0
 10  1  1  0  0  0  0
 10  6  1  0  0  0  0
 11  8  1  0  0  0  0
 12  5  1  0  0  0  0
 13  9  1  0  0  0  0
 13 10  2  0  0  0  0
 14 11  2  0  0  0  0
 16 18  1  0  0  0  0
 17 16  1  0  0  0  0
 18  7  1  1  0  0  0
 19 15  1  6  0  0  0
 19 21  1  0  0  0  0
 19 18  1  0  0  0  0
 20 15  1  0  0  0  0
 20 17  1  0  0  0  0
 21 24  1  6  0  0  0
 22 25  1  0  0  0  0
 23 22  2  0  0  0  0
 25 21  1  0  0  0  0
 26 22  1  0  0  0  0
 26 24  2  0  0  0  0
 27 29  1  0  0  0  0
 29 28  1  0  0  0  0
M  END
>  <MODEL>
1

>  <REMARK>
 VINA RESULT:      -8.7      0.000      0.000
  Name = 
  4 active torsions:
  status: ('A' for Active; 'I' for Inactive)
    1  A    between atoms: C_1  and  C_15
    2  A    between atoms: C_7  and  C_12
    3  A    between atoms: C_7  and  C_25
    4  A    between atoms: C_11  and  C_17
                            x       y       z     vdW  Elec       q    Type
                         _______ _______ _______ _____ _____    ______ ____

>  <TORSDO>
F 4

$$$$
=
 OpenBabel11062416183D

 29 33  0  0  1  0  0  0  0  0999 V2000
  184.5810  178.6280  145.8320 C   0  0  0  0  0  2  0  0  0  0  0  0
  188.0120  177.7690  145.0860 C   0  0  0  0  0  0  0  0  0  0  0  0
  188.1340  178.2130  140.8390 O   0  0  0  0  0  0  0  0  0  0  0  0
  188.1500  177.6300  143.5790 C   0  0  2  0  0  3  0  0  0  0  0  0
  188.7960  177.5880  147.5180 C   0  0  0  0  0  2  0  0  0  0  0  0
  186.8070  177.9560  145.5820 C   0  0  0  0  0  0  0  0  0  0  0  0
  187.0270  178.3390  141.4310 C   0  0  0  0  0  0  0  0  0  0  0  0
  187.5380  178.1890  147.8860 O   0  0  0  0  0  0  0  0  0  0  0  0
  186.9350  178.0900  142.8450 N   0  0  0  0  0  0  0  0  0  0  0  0
  185.6310  178.2120  144.8440 C   0  0  0  0  0  0  0  0  0  0  0  0
  186.5280  178.2530  146.9310 C   0  0  0  0  0  0  0  0  0  0  0  0
  189.1910  177.8650  146.0340 C   0  0  0  0  0  2  0  0  0  0  0  0
  185.6770  178.3350  143.5250 C   0  0  0  0  0  3  0  0  0  0  0  0
  185.3050  178.6330  147.1230 N   0  0  0  0  0  0  0  0  0  0  0  0
  184.7580  178.8200  138.3660 N   0  0  0  0  0  2  0  0  0  0  0  0
  184.5490  178.0350  141.0090 C   0  0  0  0  0  2  0  0  0  0  0  0
  183.3250  178.6900  140.3600 C   0  0  0  0  0  2  0  0  0  0  0  0
  185.8220  178.7980  140.6520 C   0  0  2  0  0  3  0  0  0  0  0  0
  186.0250  178.8970  139.1140 C   0  0  1  0  0  3  0  0  0  0  0  0
  183.6830  179.4850  139.0980 C   0  0  0  0  0  2  0  0  0  0  0  0
  187.0290  177.8780  138.5600 C   0  0  2  0  0  3  0  0  0  0  0  0
  187.0580  176.8770  136.4670 C   0  0  0  0  0  0  0  0  0  0  0  0
  186.7270  176.0750  135.5110 N   0  0  0  0  0  2  0  0  0  0  0  0
  188.1100  178.5670  137.7140 C   0  0  0  0  0  3  0  0  0  0  0  0
  186.3740  176.9070  137.7000 N   0  0  0  0  0  2  0  0  0  0  0  0
  188.1890  177.8180  136.3840 C   0  0  0  0  0  3  0  0  0  0  0  0
  188.4480  176.1770  143.2180 C   0  0  0  0  0  2  0  0  0  0  0  0
  190.5540  177.2290  142.8160 O   0  0  0  0  0  1  0  0  0  0  0  0
  189.9090  175.9920  142.8440 C   0  0  0  0  0  2  0  0  0  0  0  0
  1 14  1  0  0  0  0
  2  6  2  0  0  0  0
  2 12  1  0  0  0  0
  3  7  2  0  0  0  0
  4 27  1  1  0  0  0
  4  2  1  0  0  0  0
  5  8  1  0  0  0  0
  6 11  1  0  0  0  0
  7  9  1  0  0  0  0
  9 13  1  0  0  0  0
  9  4  1  0  0  0  0
 10  6  1  0  0  0  0
 10  1  1  0  0  0  0
 11 14  2  0  0  0  0
 11  8  1  0  0  0  0
 12  5  1  0  0  0  0
 13 10  2  0  0  0  0
 15 20  1  0  0  0  0
 17 16  1  0  0  0  0
 18 16  1  0  0  0  0
 18  7  1  1  0  0  0
 19 15  1  6  0  0  0
 19 18  1  0  0  0  0
 20 17  1  0  0  0  0
 21 24  1  6  0  0  0
 21 19  1  0  0  0  0
 22 25  1  0  0  0  0
 23 22  2  0  0  0  0
 25 21  1  0  0  0  0
 26 22  1  0  0  0  0
 26 24  2  0  0  0  0
 28 29  1  0  0  0  0
 29 27  1  0  0  0  0
M  END
>  <MODEL>
2

>  <REMARK>
 VINA RESULT:      -8.6      2.856      3.724
  Name = 
  4 active torsions:
  status: ('A' for Active; 'I' for Inactive)
    1  A    between atoms: C_1  and  C_15
    2  A    between atoms: C_7  and  C_12
    3  A    between atoms: C_7  and  C_25
    4  A    between atoms: C_11  and  C_17
                            x       y       z     vdW  Elec       q    Type
                         _______ _______ _______ _____ _____    ______ ____

>  <TORSDO>
F 4

$$$$
=
 OpenBabel11062416183D

 29 33  0  0  1  0  0  0  0  0999 V2000
  187.9690  178.5030  140.1310 C   0  0  0  0  0  2  0  0  0  0  0  0
  186.2540  177.8470  143.2450 C   0  0  0  0  0  0  0  0  0  0  0  0
  182.1730  178.4960  142.1640 O   0  0  0  0  0  0  0  0  0  0  0  0
  184.8080  178.2860  143.0920 C   0  0  2  0  0  3  0  0  0  0  0  0
  188.3080  177.0200  144.5330 C   0  0  0  0  0  2  0  0  0  0  0  0
  187.0880  178.1150  142.2630 C   0  0  0  0  0  0  0  0  0  0  0  0
  183.0730  178.7460  141.3150 C   0  0  0  0  0  0  0  0  0  0  0  0
  188.9950  176.9930  143.2660 O   0  0  0  0  0  0  0  0  0  0  0  0
  184.4590  178.6400  141.6860 N   0  0  0  0  0  0  0  0  0  0  0  0
  186.7460  178.6260  140.9920 C   0  0  0  0  0  0  0  0  0  0  0  0
  188.4150  177.6470  142.1830 C   0  0  0  0  0  0  0  0  0  0  0  0
  186.7560  176.9810  144.3840 C   0  0  0  0  0  2  0  0  0  0  0  0
  185.4770  178.8360  140.6710 C   0  0  0  0  0  3  0  0  0  0  0  0
  188.9490  177.8360  141.0180 N   0  0  0  0  0  0  0  0  0  0  0  0
  181.7810  178.1880  137.7390 N   0  0  0  0  0  2  0  0  0  0  0  0
  181.4060  179.9500  139.8370 C   0  0  0  0  0  2  0  0  0  0  0  0
  181.1830  180.4760  138.4150 C   0  0  0  0  0  2  0  0  0  0  0  0
  182.6790  179.1090  139.9080 C   0  0  2  0  0  3  0  0  0  0  0  0
  182.6460  177.9240  138.9020 C   0  0  1  0  0  3  0  0  0  0  0  0
  181.8500  179.5950  137.3500 C   0  0  0  0  0  2  0  0  0  0  0  0
  182.2730  176.5830  139.5450 C   0  0  2  0  0  3  0  0  0  0  0  0
  180.3650  175.3060  139.2080 C   0  0  0  0  0  0  0  0  0  0  0  0
  179.1310  174.9380  139.3000 N   0  0  0  0  0  2  0  0  0  0  0  0
  182.6380  175.4060  138.6270 C   0  0  0  0  0  3  0  0  0  0  0  0
  180.8440  176.4960  139.7930 N   0  0  0  0  0  2  0  0  0  0  0  0
  181.3990  174.5200  138.5130 C   0  0  0  0  0  3  0  0  0  0  0  0
  184.5290  179.4770  144.0050 C   0  0  0  0  0  2  0  0  0  0  0  0
  184.5020  178.9840  146.3420 O   0  0  0  0  0  1  0  0  0  0  0  0
  183.6940  179.0650  145.2060 C   0  0  0  0  0  2  0  0  0  0  0  0
  1 10  1  0  0  0  0
  1 14  1  0  0  0  0
  2 12  1  0  0  0  0
  4  2  1  0  0  0  0
  4 27  1  1  0  0  0
  6  2  2  0  0  0  0
  7  9  1  0  0  0  0
  7  3  2  0  0  0  0
  8  5  1  0  0  0  0
  9  4  1  0  0  0  0
 10  6  1  0  0  0  0
 11  6  1  0  0  0  0
 11  8  1  0  0  0  0
 12  5  1  0  0  0  0
 13 10  2  0  0  0  0
 13  9  1  0  0  0  0
 14 11  2  0  0  0  0
 16 18  1  0  0  0  0
 17 16  1  0  0  0  0
 18  7  1  1  0  0  0
 19 15  1  6  0  0  0
 19 21  1  0  0  0  0
 19 18  1  0  0  0  0
 20 15  1  0  0  0  0
 20 17  1  0  0  0  0
 21 24  1  6  0  0  0
 21 25  1  0  0  0  0
 22 23  2  0  0  0  0
 22 25  1  0  0  0  0
 26 24  2  0  0  0  0
 26 22  1  0  0  0  0
 27 29  1  0  0  0  0
 29 28  1  0  0  0  0
M  END
>  <MODEL>
3

>  <REMARK>
 VINA RESULT:      -8.5      4.694      7.380
  Name = 
  4 active torsions:
  status: ('A' for Active; 'I' for Inactive)
    1  A    between atoms: C_1  and  C_15
    2  A    between atoms: C_7  and  C_12
    3  A    between atoms: C_7  and  C_25
    4  A    between atoms: C_11  and  C_17
                            x       y       z     vdW  Elec       q    Type
                         _______ _______ _______ _____ _____    ______ ____

>  <TORSDO>
F 4

$$$$
=
 OpenBabel11062416183D

 29 33  0  0  1  0  0  0  0  0999 V2000
  183.4130  178.7730  142.1690 C   0  0  0  0  0  2  0  0  0  0  0  0
  186.2610  178.1950  144.3190 C   0  0  0  0  0  0  0  0  0  0  0  0
  189.4900  178.1590  141.5230 O   0  0  0  0  0  0  0  0  0  0  0  0
  187.4660  177.9000  143.4420 C   0  0  2  0  0  3  0  0  0  0  0  0
  184.9870  178.3770  146.5340 C   0  0  0  0  0  2  0  0  0  0  0  0
  185.0860  178.3110  143.7360 C   0  0  0  0  0  0  0  0  0  0  0  0
  188.3090  178.2370  141.0850 C   0  0  0  0  0  0  0  0  0  0  0  0
  183.8780  178.8820  145.7640 O   0  0  0  0  0  0  0  0  0  0  0  0
  187.1980  178.1430  141.9950 N   0  0  0  0  0  0  0  0  0  0  0  0
  184.8440  178.3580  142.3460 C   0  0  0  0  0  0  0  0  0  0  0  0
  183.9050  178.7310  144.3810 C   0  0  0  0  0  0  0  0  0  0  0  0
  186.3540  178.5210  145.7960 C   0  0  0  0  0  2  0  0  0  0  0  0
  185.8520  178.3330  141.4860 C   0  0  0  0  0  3  0  0  0  0  0  0
  182.9460  179.0020  143.5550 N   0  0  0  0  0  0  0  0  0  0  0  0
  188.8610  177.8450  137.3020 N   0  0  0  0  0  2  0  0  0  0  0  0
  186.7670  177.8890  139.1070 C   0  0  0  0  0  2  0  0  0  0  0  0
  186.4840  178.3540  137.6750 C   0  0  0  0  0  2  0  0  0  0  0  0
  188.0820  178.4750  139.6160 C   0  0  2  0  0  3  0  0  0  0  0  0
  189.2760  178.1070  138.6910 C   0  0  1  0  0  3  0  0  0  0  0  0
  187.7620  178.7280  136.9140 C   0  0  0  0  0  2  0  0  0  0  0  0
  190.1240  176.9430  139.2180 C   0  0  2  0  0  3  0  0  0  0  0  0
  191.0620  175.1890  138.0230 C   0  0  0  0  0  0  0  0  0  0  0  0
  191.1310  174.0750  137.3730 N   0  0  0  0  0  2  0  0  0  0  0  0
  191.6240  177.2260  139.0470 C   0  0  0  0  0  3  0  0  0  0  0  0
  189.8410  175.7150  138.4930 N   0  0  0  0  0  2  0  0  0  0  0  0
  192.2390  176.0080  138.3600 C   0  0  0  0  0  3  0  0  0  0  0  0
  187.9110  176.4540  143.6440 C   0  0  0  0  0  2  0  0  0  0  0  0
  189.6450  177.6030  144.8170 O   0  0  0  0  0  1  0  0  0  0  0  0
  189.3150  176.3860  144.2190 C   0  0  0  0  0  2  0  0  0  0  0  0
  1 10  1  0  0  0  0
  1 14  1  0  0  0  0
  2 12  1  0  0  0  0
  4 27  1  6  0  0  0
  4  2  1  0  0  0  0
  6  2  2  0  0  0  0
  6 11  1  0  0  0  0
  7  3  2  0  0  0  0
  7  9  1  0  0  0  0
  8  5  1  0  0  0  0
  9  4  1  0  0  0  0
 10  6  1  0  0  0  0
 11  8  1  0  0  0  0
 12  5  1  0  0  0  0
 13  9  1  0  0  0  0
 13 10  2  0  0  0  0
 14 11  2  0  0  0  0
 16 18  1  0  0  0  0
 17 16  1  0  0  0  0
 18  7  1  1  0  0  0
 19 15  1  6  0  0  0
 19 21  1  0  0  0  0
 19 18  1  0  0  0  0
 20 15  1  0  0  0  0
 20 17  1  0  0  0  0
 21 24  1  6  0  0  0
 22 26  1  0  0  0  0
 22 25  1  0  0  0  0
 23 22  2  0  0  0  0
 25 21  1  0  0  0  0
 26 24  2  0  0  0  0
 27 29  1  0  0  0  0
 29 28  1  0  0  0  0
M  END
>  <MODEL>
4

>  <REMARK>
 VINA RESULT:      -8.3      1.799      2.398
  Name = 
  4 active torsions:
  status: ('A' for Active; 'I' for Inactive)
    1  A    between atoms: C_1  and  C_15
    2  A    between atoms: C_7  and  C_12
    3  A    between atoms: C_7  and  C_25
    4  A    between atoms: C_11  and  C_17
                            x       y       z     vdW  Elec       q    Type
                         _______ _______ _______ _____ _____    ______ ____

>  <TORSDO>
F 4

$$$$
=
 OpenBabel11062416183D

 29 33  0  0  1  0  0  0  0  0999 V2000
  187.1820  177.3900  146.9690 C   0  0  0  0  0  2  0  0  0  0  0  0
  189.2820  177.7480  144.0480 C   0  0  0  0  0  0  0  0  0  0  0  0
  186.4970  179.1240  141.1160 O   0  0  0  0  0  0  0  0  0  0  0  0
  188.3860  177.9870  142.8450 C   0  0  2  0  0  3  0  0  0  0  0  0
  191.5020  177.2760  145.2350 C   0  0  0  0  0  2  0  0  0  0  0  0
  188.7090  177.4640  145.1990 C   0  0  0  0  0  0  0  0  0  0  0  0
  186.0650  178.7910  142.2540 C   0  0  0  0  0  0  0  0  0  0  0  0
  190.7750  177.3910  146.4740 O   0  0  0  0  0  0  0  0  0  0  0  0
  186.9630  178.2230  143.2250 N   0  0  0  0  0  0  0  0  0  0  0  0
  187.3270  177.5230  145.4810 C   0  0  0  0  0  0  0  0  0  0  0  0
  189.3840  177.3660  146.4320 C   0  0  0  0  0  0  0  0  0  0  0  0
  190.7810  177.9720  144.0400 C   0  0  0  0  0  2  0  0  0  0  0  0
  186.4690  177.9390  144.5590 C   0  0  0  0  0  3  0  0  0  0  0  0
  188.5810  177.3240  147.4470 N   0  0  0  0  0  0  0  0  0  0  0  0
  182.2470  178.6340  141.8430 N   0  0  0  0  0  2  0  0  0  0  0  0
  184.1470  178.2530  143.8160 C   0  0  0  0  0  2  0  0  0  0  0  0
  182.7500  178.7130  144.2490 C   0  0  0  0  0  2  0  0  0  0  0  0
  184.6200  179.0390  142.5950 C   0  0  2  0  0  3  0  0  0  0  0  0
  183.6260  178.9140  141.4060 C   0  0  1  0  0  3  0  0  0  0  0  0
  181.9500  179.3280  143.0940 C   0  0  0  0  0  2  0  0  0  0  0  0
  184.0620  177.8950  140.3460 C   0  0  2  0  0  3  0  0  0  0  0  0
  182.7350  176.7050  138.8600 C   0  0  0  0  0  0  0  0  0  0  0  0
  181.9150  175.8040  138.4340 N   0  0  0  0  0  2  0  0  0  0  0  0
  184.1840  178.5510  138.9620 C   0  0  0  0  0  3  0  0  0  0  0  0
  183.0940  176.8190  140.2190 N   0  0  0  0  0  2  0  0  0  0  0  0
  183.3960  177.6850  137.9800 C   0  0  0  0  0  3  0  0  0  0  0  0
  188.4710  176.7990  141.8910 C   0  0  0  0  0  2  0  0  0  0  0  0
  190.5040  176.3830  140.7080 O   0  0  0  0  0  1  0  0  0  0  0  0
  189.3240  177.1280  140.6770 C   0  0  0  0  0  2  0  0  0  0  0  0
  1 14  1  0  0  0  0
  2  6  2  0  0  0  0
  3  7  2  0  0  0  0
  4 27  1  6  0  0  0
  4  9  1  0  0  0  0
  4  2  1  0  0  0  0
  5  8  1  0  0  0  0
  6 10  1  0  0  0  0
  6 11  1  0  0  0  0
  7  9  1  0  0  0  0
  9 13  1  0  0  0  0
 10  1  1  0  0  0  0
 11  8  1  0  0  0  0
 11 14  2  0  0  0  0
 12  2  1  0  0  0  0
 12  5  1  0  0  0  0
 13 10  2  0  0  0  0
 15 20  1  0  0  0  0
 16 17  1  0  0  0  0
 18  7  1  6  0  0  0
 18 16  1  0  0  0  0
 19 15  1  1  0  0  0
 19 18  1  0  0  0  0
 20 17  1  0  0  0  0
 21 24  1  6  0  0  0
 21 19  1  0  0  0  0
 22 25  1  0  0  0  0
 23 22  2  0  0  0  0
 25 21  1  0  0  0  0
 26 22  1  0  0  0  0
 26 24  2  0  0  0  0
 29 28  1  0  0  0  0
 29 27  1  0  0  0  0
M  END
>  <MODEL>
5

>  <REMARK>
 VINA RESULT:      -8.2      3.584      6.036
  Name = 
  4 active torsions:
  status: ('A' for Active; 'I' for Inactive)
    1  A    between atoms: C_1  and  C_15
    2  A    between atoms: C_7  and  C_12
    3  A    between atoms: C_7  and  C_25
    4  A    between atoms: C_11  and  C_17
                            x       y       z     vdW  Elec       q    Type
                         _______ _______ _______ _____ _____    ______ ____

>  <TORSDO>
F 4

$$$$
=
 OpenBabel11062416183D

 29 33  0  0  1  0  0  0  0  0999 V2000
  180.5550  178.9780  143.9960 C   0  0  0  0  0  2  0  0  0  0  0  0
  182.2120  178.2450  140.8680 C   0  0  0  0  0  0  0  0  0  0  0  0
  186.2270  177.5260  142.1380 O   0  0  0  0  0  0  0  0  0  0  0  0
  183.7100  178.2170  141.1190 C   0  0  2  0  0  3  0  0  0  0  0  0
  180.0970  178.2270  139.4230 C   0  0  0  0  0  2  0  0  0  0  0  0
  181.4270  178.6210  141.8560 C   0  0  0  0  0  0  0  0  0  0  0  0
  185.3830  177.9210  142.9890 C   0  0  0  0  0  0  0  0  0  0  0  0
  179.3490  178.2430  140.6550 O   0  0  0  0  0  0  0  0  0  0  0  0
  184.0520  178.2740  142.5700 N   0  0  0  0  0  0  0  0  0  0  0  0
  181.8160  178.8440  143.1940 C   0  0  0  0  0  0  0  0  0  0  0  0
  180.0190  178.5560  141.8340 C   0  0  0  0  0  0  0  0  0  0  0  0
  181.5600  177.7150  139.6060 C   0  0  0  0  0  2  0  0  0  0  0  0
  183.0680  178.6310  143.5750 C   0  0  0  0  0  3  0  0  0  0  0  0
  179.4860  178.7450  142.9990 N   0  0  0  0  0  0  0  0  0  0  0  0
  187.7180  177.8670  146.0410 N   0  0  0  0  0  2  0  0  0  0  0  0
  185.6050  179.3580  145.0620 C   0  0  0  0  0  2  0  0  0  0  0  0
  185.7920  179.2980  146.5820 C   0  0  0  0  0  2  0  0  0  0  0  0
  185.7700  177.9720  144.4430 C   0  0  2  0  0  3  0  0  0  0  0  0
  187.1520  177.3460  144.7840 C   0  0  1  0  0  3  0  0  0  0  0  0
  186.6630  178.1140  147.0210 C   0  0  0  0  0  2  0  0  0  0  0  0
  188.1780  177.4710  143.6510 C   0  0  2  0  0  3  0  0  0  0  0  0
  190.4930  177.5010  143.8020 C   0  0  0  0  0  0  0  0  0  0  0  0
  191.6790  177.9560  144.0310 N   0  0  0  0  0  2  0  0  0  0  0  0
  188.7050  176.0910  143.2260 C   0  0  0  0  0  3  0  0  0  0  0  0
  189.3300  178.2520  144.0660 N   0  0  0  0  0  2  0  0  0  0  0  0
  190.2310  176.1710  143.2230 C   0  0  0  0  0  3  0  0  0  0  0  0
  184.3790  179.3790  140.3900 C   0  0  0  0  0  2  0  0  0  0  0  0
  186.2280  178.6280  139.0790 O   0  0  0  0  0  1  0  0  0  0  0  0
  184.8730  178.9550  139.0170 C   0  0  0  0  0  2  0  0  0  0  0  0
  2  4  1  0  0  0  0
  2  6  2  0  0  0  0
  3  7  2  0  0  0  0
  4 27  1  6  0  0  0
  4  9  1  0  0  0  0
  5 12  1  0  0  0  0
  5  8  1  0  0  0  0
  6 10  1  0  0  0  0
  8 11  1  0  0  0  0
  9  7  1  0  0  0  0
  9 13  1  0  0  0  0
 10 13  2  0  0  0  0
 10  1  1  0  0  0  0
 11  6  1  0  0  0  0
 11 14  2  0  0  0  0
 12  2  1  0  0  0  0
 14  1  1  0  0  0  0
 15 20  1  0  0  0  0
 16 17  1  0  0  0  0
 17 20  1  0  0  0  0
 18  7  1  6  0  0  0
 18 19  1  0  0  0  0
 18 16  1  0  0  0  0
 19 15  1  1  0  0  0
 21 24  1  1  0  0  0
 21 25  1  0  0  0  0
 21 19  1  0  0  0  0
 22 23  2  0  0  0  0
 22 25  1  0  0  0  0
 26 24  2  0  0  0  0
 26 22  1  0  0  0  0
 29 28  1  0  0  0  0
 29 27  1  0  0  0  0
M  END
>  <MODEL>
6

>  <REMARK>
 VINA RESULT:      -7.9      4.304      7.618
  Name = 
  4 active torsions:
  status: ('A' for Active; 'I' for Inactive)
    1  A    between atoms: C_1  and  C_15
    2  A    between atoms: C_7  and  C_12
    3  A    between atoms: C_7  and  C_25
    4  A    between atoms: C_11  and  C_17
                            x       y       z     vdW  Elec       q    Type
                         _______ _______ _______ _____ _____    ______ ____

>  <TORSDO>
F 4

$$$$
=
 OpenBabel11062416183D

 29 33  0  0  1  0  0  0  0  0999 V2000
  187.6230  177.1940  145.8210 C   0  0  0  0  0  2  0  0  0  0  0  0
  189.2820  177.9440  142.6980 C   0  0  0  0  0  0  0  0  0  0  0  0
  186.0490  179.3680  140.2960 O   0  0  0  0  0  0  0  0  0  0  0  0
  188.2180  178.2220  141.6500 C   0  0  2  0  0  3  0  0  0  0  0  0
  191.6660  177.5270  143.5350 C   0  0  0  0  0  2  0  0  0  0  0  0
  188.8880  177.5240  143.8820 C   0  0  0  0  0  0  0  0  0  0  0  0
  185.7960  178.9110  141.4450 C   0  0  0  0  0  0  0  0  0  0  0  0
  191.1090  177.4860  144.8640 O   0  0  0  0  0  0  0  0  0  0  0  0
  186.8480  178.3260  142.2330 N   0  0  0  0  0  0  0  0  0  0  0  0
  187.5560  177.4630  144.3460 C   0  0  0  0  0  0  0  0  0  0  0  0
  189.7290  177.3680  145.0020 C   0  0  0  0  0  0  0  0  0  0  0  0
  190.7500  178.2710  142.5150 C   0  0  0  0  0  2  0  0  0  0  0  0
  186.5590  177.8950  143.5880 C   0  0  0  0  0  3  0  0  0  0  0  0
  189.0760  177.1840  146.1050 N   0  0  0  0  0  0  0  0  0  0  0  0
  182.0050  178.3140  141.6500 N   0  0  0  0  0  2  0  0  0  0  0  0
  184.2090  178.2930  143.3190 C   0  0  0  0  0  2  0  0  0  0  0  0
  182.8490  178.6340  143.9370 C   0  0  0  0  0  2  0  0  0  0  0  0
  184.3990  179.0280  141.9940 C   0  0  2  0  0  3  0  0  0  0  0  0
  183.2610  178.7060  140.9850 C   0  0  1  0  0  3  0  0  0  0  0  0
  181.8180  179.0670  142.8880 C   0  0  0  0  0  2  0  0  0  0  0  0
  183.6500  177.6590  139.9340 C   0  0  2  0  0  3  0  0  0  0  0  0
  182.2590  176.2830  138.6860 C   0  0  0  0  0  0  0  0  0  0  0  0
  181.4720  175.2970  138.4110 N   0  0  0  0  0  2  0  0  0  0  0  0
  183.5520  178.2370  138.5130 C   0  0  0  0  0  3  0  0  0  0  0  0
  182.7660  176.5070  139.9830 N   0  0  0  0  0  2  0  0  0  0  0  0
  182.7270  177.2550  137.6820 C   0  0  0  0  0  3  0  0  0  0  0  0
  188.2400  177.1280  140.5860 C   0  0  0  0  0  2  0  0  0  0  0  0
  189.0540  179.0190  139.3760 O   0  0  0  0  0  1  0  0  0  0  0  0
  188.7490  177.6620  139.2580 C   0  0  0  0  0  2  0  0  0  0  0  0
  1 14  1  0  0  0  0
  2  6  2  0  0  0  0
  3  7  2  0  0  0  0
  4 27  1  6  0  0  0
  4  9  1  0  0  0  0
  4  2  1  0  0  0  0
  5  8  1  0  0  0  0
  6 10  1  0  0  0  0
  6 11  1  0  0  0  0
  7  9  1  0  0  0  0
  8 11  1  0  0  0  0
  9 13  1  0  0  0  0
 10  1  1  0  0  0  0
 11 14  2  0  0  0  0
 12  2  1  0  0  0  0
 12  5  1  0  0  0  0
 13 10  2  0  0  0  0
 15 20  1  0  0  0  0
 16 17  1  0  0  0  0
 18  7  1  6  0  0  0
 18 16  1  0  0  0  0
 19 15  1  1  0  0  0
 19 18  1  0  0  0  0
 20 17  1  0  0  0  0
 21 24  1  6  0  0  0
 21 25  1  0  0  0  0
 21 19  1  0  0  0  0
 22 25  1  0  0  0  0
 23 22  2  0  0  0  0
 26 24  2  0  0  0  0
 26 22  1  0  0  0  0
 29 28  1  0  0  0  0
 29 27  1  0  0  0  0
M  END
>  <MODEL>
7

>  <REMARK>
 VINA RESULT:      -7.6      3.470      6.352
  Name = 
  4 active torsions:
  status: ('A' for Active; 'I' for Inactive)
    1  A    between atoms: C_1  and  C_15
    2  A    between atoms: C_7  and  C_12
    3  A    between atoms: C_7  and  C_25
    4  A    between atoms: C_11  and  C_17
                            x       y       z     vdW  Elec       q    Type
                         _______ _______ _______ _____ _____    ______ ____

>  <TORSDO>
F 4

$$$$
=
 OpenBabel11062416183D

 29 33  0  0  1  0  0  0  0  0999 V2000
  189.2340  177.4450  141.8900 C   0  0  0  0  0  2  0  0  0  0  0  0
  187.4270  177.7040  145.0100 C   0  0  0  0  0  0  0  0  0  0  0  0
  183.4080  178.2410  143.6660 O   0  0  0  0  0  0  0  0  0  0  0  0
  186.0090  178.1550  144.7020 C   0  0  2  0  0  3  0  0  0  0  0  0
  189.4080  177.1450  146.5340 C   0  0  0  0  0  2  0  0  0  0  0  0
  188.2930  177.6680  144.0190 C   0  0  0  0  0  0  0  0  0  0  0  0
  184.3360  178.2190  142.8110 C   0  0  0  0  0  0  0  0  0  0  0  0
  190.1160  176.7570  145.3400 O   0  0  0  0  0  0  0  0  0  0  0  0
  185.7070  178.1480  143.2410 N   0  0  0  0  0  0  0  0  0  0  0  0
  188.0030  177.8460  142.6490 C   0  0  0  0  0  0  0  0  0  0  0  0
  189.5930  177.1320  144.1060 C   0  0  0  0  0  0  0  0  0  0  0  0
  187.8590  177.1420  146.3500 C   0  0  0  0  0  2  0  0  0  0  0  0
  186.7540  178.0250  142.2430 C   0  0  0  0  0  3  0  0  0  0  0  0
  190.1590  176.9870  142.9500 N   0  0  0  0  0  0  0  0  0  0  0  0
  182.1280  178.6140  139.6890 N   0  0  0  0  0  2  0  0  0  0  0  0
  184.6360  179.3700  140.5760 C   0  0  0  0  0  2  0  0  0  0  0  0
  184.4360  179.1920  139.0660 C   0  0  0  0  0  2  0  0  0  0  0  0
  183.9890  178.2210  141.3450 C   0  0  2  0  0  3  0  0  0  0  0  0
  182.4740  178.0880  141.0220 C   0  0  1  0  0  3  0  0  0  0  0  0
  183.2000  178.3460  138.7330 C   0  0  0  0  0  2  0  0  0  0  0  0
  181.5620  178.7080  142.0880 C   0  0  2  0  0  3  0  0  0  0  0  0
  179.7990  180.1870  141.7910 C   0  0  0  0  0  0  0  0  0  0  0  0
  179.1870  181.3020  141.5700 N   0  0  0  0  0  2  0  0  0  0  0  0
  180.2480  177.9220  142.2190 C   0  0  0  0  0  3  0  0  0  0  0  0
  181.2040  180.0740  141.7460 N   0  0  0  0  0  2  0  0  0  0  0  0
  179.1060  178.9330  142.1350 C   0  0  0  0  0  3  0  0  0  0  0  0
  185.7780  179.5550  145.2660 C   0  0  0  0  0  2  0  0  0  0  0  0
  184.5620  178.3930  146.9620 O   0  0  0  0  0  1  0  0  0  0  0  0
  185.3830  179.4990  146.7320 C   0  0  0  0  0  2  0  0  0  0  0  0
  1 10  1  0  0  0  0
  1 14  1  0  0  0  0
  2 12  1  0  0  0  0
  4  2  1  0  0  0  0
  4 27  1  6  0  0  0
  6 11  1  0  0  0  0
  6  2  2  0  0  0  0
  7  9  1  0  0  0  0
  7  3  2  0  0  0  0
  8  5  1  0  0  0  0
  9  4  1  0  0  0  0
 10  6  1  0  0  0  0
 11  8  1  0  0  0  0
 12  5  1  0  0  0  0
 13 10  2  0  0  0  0
 13  9  1  0  0  0  0
 14 11  2  0  0  0  0
 16 18  1  0  0  0  0
 17 16  1  0  0  0  0
 18  7  1  1  0  0  0
 19 15  1  6  0  0  0
 19 18  1  0  0  0  0
 19 21  1  0  0  0  0
 20 17  1  0  0  0  0
 20 15  1  0  0  0  0
 21 24  1  6  0  0  0
 22 26  1  0  0  0  0
 23 22  2  0  0  0  0
 25 22  1  0  0  0  0
 25 21  1  0  0  0  0
 26 24  2  0  0  0  0
 27 29  1  0  0  0  0
 29 28  1  0  0  0  0
M  END
>  <MODEL>
8

>  <REMARK>
 VINA RESULT:      -7.6      3.699      7.738
  Name = 
  4 active torsions:
  status: ('A' for Active; 'I' for Inactive)
    1  A    between atoms: C_1  and  C_15
    2  A    between atoms: C_7  and  C_12
    3  A    between atoms: C_7  and  C_25
    4  A    between atoms: C_11  and  C_17
                            x       y       z     vdW  Elec       q    Type
                         _______ _______ _______ _____ _____    ______ ____

>  <TORSDO>
F 4

$$$$
=
 OpenBabel11062416183D

 29 33  0  0  1  0  0  0  0  0999 V2000
  185.6160  178.4680  146.6480 C   0  0  0  0  0  2  0  0  0  0  0  0
  184.6940  178.3400  143.1550 C   0  0  0  0  0  0  0  0  0  0  0  0
  188.2280  176.7430  141.3630 O   0  0  0  0  0  0  0  0  0  0  0  0
  185.9430  178.0310  142.3450 C   0  0  2  0  0  3  0  0  0  0  0  0
  182.2420  179.0030  143.4830 C   0  0  0  0  0  2  0  0  0  0  0  0
  184.8330  178.5560  144.4460 C   0  0  0  0  0  0  0  0  0  0  0  0
  188.2440  177.0210  142.5940 C   0  0  0  0  0  0  0  0  0  0  0  0
  182.4600  178.8080  144.8950 O   0  0  0  0  0  0  0  0  0  0  0  0
  187.1070  177.6600  143.2010 N   0  0  0  0  0  0  0  0  0  0  0  0
  186.0100  178.3660  145.2030 C   0  0  0  0  0  0  0  0  0  0  0  0
  183.7680  178.7030  145.3570 C   0  0  0  0  0  0  0  0  0  0  0  0
  183.2870  178.2560  142.5980 C   0  0  0  0  0  2  0  0  0  0  0  0
  187.1050  177.8820  144.6350 C   0  0  0  0  0  3  0  0  0  0  0  0
  184.1490  178.6590  146.5940 N   0  0  0  0  0  0  0  0  0  0  0  0
  191.9620  176.5330  143.4390 N   0  0  0  0  0  2  0  0  0  0  0  0
  189.6790  177.5680  144.6070 C   0  0  0  0  0  2  0  0  0  0  0  0
  190.7610  177.0020  145.5330 C   0  0  0  0  0  2  0  0  0  0  0  0
  189.4420  176.6360  143.4210 C   0  0  2  0  0  3  0  0  0  0  0  0
  190.7480  176.3780  142.6180 C   0  0  1  0  0  3  0  0  0  0  0  0
  191.7280  176.0620  144.8020 C   0  0  0  0  0  2  0  0  0  0  0  0
  190.8620  177.2230  141.3430 C   0  0  2  0  0  3  0  0  0  0  0  0
  192.6730  177.4280  139.9070 C   0  0  0  0  0  0  0  0  0  0  0  0
  193.8250  177.8120  139.4690 N   0  0  0  0  0  2  0  0  0  0  0  0
  190.5800  176.3780  140.0910 C   0  0  0  0  0  3  0  0  0  0  0  0
  192.1990  177.7700  141.1900 N   0  0  0  0  0  2  0  0  0  0  0  0
  191.7300  176.6190  139.1140 C   0  0  0  0  0  3  0  0  0  0  0  0
  186.3070  179.2330  141.4780 C   0  0  0  0  0  2  0  0  0  0  0  0
  184.7830  179.7530  139.7140 O   0  0  0  0  0  1  0  0  0  0  0  0
  185.9180  179.0030  140.0280 C   0  0  0  0  0  2  0  0  0  0  0  0
  2  6  2  0  0  0  0
  3  7  2  0  0  0  0
  4 27  1  1  0  0  0
  4  2  1  0  0  0  0
  4  9  1  0  0  0  0
  5  8  1  0  0  0  0
  6 10  1  0  0  0  0
  6 11  1  0  0  0  0
  7  9  1  0  0  0  0
  8 11  1  0  0  0  0
  9 13  1  0  0  0  0
 10  1  1  0  0  0  0
 11 14  2  0  0  0  0
 12  2  1  0  0  0  0
 12  5  1  0  0  0  0
 13 10  2  0  0  0  0
 14  1  1  0  0  0  0
 15 20  1  0  0  0  0
 16 17  1  0  0  0  0
 18  7  1  6  0  0  0
 18 16  1  0  0  0  0
 19 18  1  0  0  0  0
 19 15  1  1  0  0  0
 20 17  1  0  0  0  0
 21 24  1  6  0  0  0
 21 19  1  0  0  0  0
 22 25  1  0  0  0  0
 23 22  2  0  0  0  0
 25 21  1  0  0  0  0
 26 22  1  0  0  0  0
 26 24  2  0  0  0  0
 28 29  1  0  0  0  0
 29 27  1  0  0  0  0
M  END
>  <MODEL>
9

>  <REMARK>
 VINA RESULT:      -7.6      2.796      5.237
  Name = 
  4 active torsions:
  status: ('A' for Active; 'I' for Inactive)
    1  A    between atoms: C_1  and  C_15
    2  A    between atoms: C_7  and  C_12
    3  A    between atoms: C_7  and  C_25
    4  A    between atoms: C_11  and  C_17
                            x       y       z     vdW  Elec       q    Type
                         _______ _______ _______ _____ _____    ______ ____

>  <TORSDO>
F 4

$$$$
