=
 OpenBabel11062417553D

 39 46  0  0  1  0  0  0  0  0999 V2000
  184.9690  178.5770  140.3500 C   0  0  0  0  0  3  0  0  0  0  0  0
  187.1610  178.4070  139.2980 C   0  0  0  0  0  0  0  0  0  0  0  0
  185.5730  178.6280  141.6070 C   0  0  0  0  0  3  0  0  0  0  0  0
  183.5740  176.3510  137.7910 C   0  0  0  0  0  0  0  0  0  0  0  0
  187.5030  177.9610  136.7830 C   0  0  0  0  0  2  0  0  0  0  0  0
  185.0400  178.3660  137.8800 C   0  0  0  0  0  2  0  0  0  0  0  0
  187.9520  174.2470  136.2180 C   0  0  0  0  0  3  0  0  0  0  0  0
  185.8970  176.0500  137.1080 C   0  0  0  0  0  0  0  0  0  0  0  0
  184.3830  174.1200  137.4070 C   0  0  0  0  0  3  0  0  0  0  0  0
  185.7490  178.4780  139.1920 C   0  0  0  0  0  0  0  0  0  0  0  0
  185.6370  174.6410  137.0600 C   0  0  0  0  0  0  0  0  0  0  0  0
  183.3770  174.9980  137.7640 C   0  0  0  0  0  0  0  0  0  0  0  0
  188.1810  175.5590  136.2350 C   0  0  0  0  0  0  0  0  0  0  0  0
  188.1120  178.3530  138.1260 C   0  0  0  0  0  2  0  0  0  0  0  0
  187.1360  176.5020  136.7390 C   0  0  0  0  0  0  0  0  0  0  0  0
  182.1990  174.6660  138.1680 N   0  0  0  0  0  0  0  0  0  0  0  0
  186.7090  173.6350  136.7670 C   0  0  0  0  0  2  0  0  0  0  0  0
  181.5080  175.8440  138.4910 N   0  0  0  0  0  0  0  0  0  0  0  0
  186.9620  178.5770  141.7150 C   0  0  0  0  0  3  0  0  0  0  0  0
  182.2850  176.8590  138.2790 C   0  0  0  0  0  0  0  0  0  0  0  0
  184.8320  176.9210  137.5380 C   0  0  0  0  0  0  0  0  0  0  0  0
  187.7480  178.4710  140.5680 C   0  0  0  0  0  3  0  0  0  0  0  0
  181.4600  178.7400  139.6970 C   0  0  0  0  0  3  0  0  0  0  0  0
  180.9580  180.0430  139.8560 C   0  0  0  0  0  3  0  0  0  0  0  0
  180.3860  182.4860  137.2180 C   0  0  0  0  0  2  0  0  0  0  0  0
  180.3530  182.1160  138.6030 O   0  0  0  0  0  0  0  0  0  0  0  0
  181.8190  178.2510  138.4170 C   0  0  0  0  0  0  0  0  0  0  0  0
  180.8240  180.8240  138.7100 C   0  0  0  0  0  0  0  0  0  0  0  0
  181.1510  180.3570  137.4800 C   0  0  0  0  0  0  0  0  0  0  0  0
  181.6450  179.0710  137.2850 C   0  0  0  0  0  3  0  0  0  0  0  0
  180.9010  181.3340  136.5380 O   0  0  0  0  0  0  0  0  0  0  0  0
  189.4330  176.8020  134.6520 O   0  0  0  0  0  0  0  0  0  0  0  0
  191.9760  175.8680  135.5160 C   0  0  0  0  0  2  0  0  0  0  0  0
  189.4590  176.0460  135.6610 C   0  0  0  0  0  0  0  0  0  0  0  0
  190.9050  175.0340  137.5150 C   0  0  1  0  0  3  0  0  0  0  0  0
  193.0670  175.4320  136.4760 C   0  0  0  0  0  2  0  0  0  0  0  0
  190.5060  176.2120  138.8430 S   0  0  0  0  0  1  0  0  0  0  0  0
  190.7290  175.6670  136.2210 N   0  0  0  0  0  0  0  0  0  0  0  0
  192.3740  174.6690  137.5930 C   0  0  0  0  0  2  0  0  0  0  0  0
  1  3  1  0  0  0  0
  2 22  2  0  0  0  0
  3 19  2  0  0  0  0
  4 20  1  0  0  0  0
  5 14  1  0  0  0  0
  6 10  1  0  0  0  0
  7 13  2  0  0  0  0
  7 17  1  0  0  0  0
  8 21  1  0  0  0  0
  9 12  1  0  0  0  0
 10  2  1  0  0  0  0
 10  1  2  0  0  0  0
 11  8  1  0  0  0  0
 11  9  2  0  0  0  0
 12  4  1  0  0  0  0
 12 16  2  0  0  0  0
 13 15  1  0  0  0  0
 14  2  1  0  0  0  0
 15  5  1  0  0  0  0
 15  8  2  0  0  0  0
 16 18  1  0  0  0  0
 17 11  1  0  0  0  0
 20 27  1  0  0  0  0
 20 18  2  0  0  0  0
 21  4  2  0  0  0  0
 21  6  1  0  0  0  0
 22 19  1  0  0  0  0
 23 24  1  0  0  0  0
 25 26  1  0  0  0  0
 26 28  1  0  0  0  0
 27 23  2  0  0  0  0
 28 24  2  0  0  0  0
 29 28  1  0  0  0  0
 30 29  2  0  0  0  0
 30 27  1  0  0  0  0
 31 25  1  0  0  0  0
 31 29  1  0  0  0  0
 32 34  2  0  0  0  0
 33 38  1  0  0  0  0
 33 36  1  0  0  0  0
 34 38  1  0  0  0  0
 34 13  1  0  0  0  0
 35 39  1  0  0  0  0
 35 37  1  1  0  0  0
 36 39  1  0  0  0  0
 38 35  1  0  0  0  0
M  END
>  <MODEL>
1

>  <REMARK>
 VINA RESULT:      -7.4      0.000      0.000
  Name = 
  2 active torsions:
  status: ('A' for Active; 'I' for Inactive)
    1  A    between atoms: C_19  and  C_20
    2  A    between atoms: C_26  and  C_34
                            x       y       z     vdW  Elec       q    Type
                         _______ _______ _______ _____ _____    ______ ____

>  <TORSDO>
F 2

$$$$
=
 OpenBabel11062417553D

 39 46  0  0  1  0  0  0  0  0999 V2000
  185.9740  174.8640  137.3660 C   0  0  0  0  0  3  0  0  0  0  0  0
  183.6760  175.3250  136.7020 C   0  0  0  0  0  0  0  0  0  0  0  0
  185.6460  173.5270  137.5900 C   0  0  0  0  0  3  0  0  0  0  0  0
  186.1920  178.1870  138.9020 C   0  0  0  0  0  0  0  0  0  0  0  0
  182.7780  177.6940  136.2290 C   0  0  0  0  0  2  0  0  0  0  0  0
  185.4080  177.1980  136.7520 C   0  0  0  0  0  2  0  0  0  0  0  0
  181.1870  179.0810  139.3690 C   0  0  0  0  0  3  0  0  0  0  0  0
  183.7980  178.3060  138.4470 C   0  0  0  0  0  0  0  0  0  0  0  0
  184.7210  178.9240  140.6550 C   0  0  0  0  0  3  0  0  0  0  0  0
  185.0060  175.7670  136.9130 C   0  0  0  0  0  0  0  0  0  0  0  0
  183.6290  178.7870  139.7870 C   0  0  0  0  0  0  0  0  0  0  0  0
  185.9840  178.6190  140.1830 C   0  0  0  0  0  0  0  0  0  0  0  0
  181.3520  178.6620  138.1150 C   0  0  0  0  0  0  0  0  0  0  0  0
  182.5570  176.1850  136.1650 C   0  0  0  0  0  2  0  0  0  0  0  0
  182.6960  178.2130  137.6390 C   0  0  0  0  0  0  0  0  0  0  0  0
  187.0690  178.6320  140.8780 N   0  0  0  0  0  0  0  0  0  0  0  0
  182.2790  179.0500  140.3830 C   0  0  0  0  0  2  0  0  0  0  0  0
  188.1160  178.1990  140.0490 N   0  0  0  0  0  0  0  0  0  0  0  0
  184.3430  173.0830  137.3650 C   0  0  0  0  0  3  0  0  0  0  0  0
  187.6380  177.9300  138.8750 C   0  0  0  0  0  0  0  0  0  0  0  0
  185.1270  177.9500  138.0180 C   0  0  0  0  0  0  0  0  0  0  0  0
  183.3680  173.9770  136.9210 C   0  0  0  0  0  3  0  0  0  0  0  0
  188.4310  178.2980  136.5370 C   0  0  0  0  0  3  0  0  0  0  0  0
  189.1990  177.9310  135.4180 C   0  0  0  0  0  3  0  0  0  0  0  0
  191.4780  175.1030  135.1790 C   0  0  0  0  0  2  0  0  0  0  0  0
  190.8520  176.2530  134.5940 O   0  0  0  0  0  0  0  0  0  0  0  0
  188.5020  177.5540  137.7410 C   0  0  0  0  0  0  0  0  0  0  0  0
  190.0190  176.8120  135.5400 C   0  0  0  0  0  0  0  0  0  0  0  0
  190.0800  176.0880  136.6840 C   0  0  0  0  0  0  0  0  0  0  0  0
  189.3310  176.4170  137.8090 C   0  0  0  0  0  3  0  0  0  0  0  0
  190.9560  175.0340  136.5130 O   0  0  0  0  0  0  0  0  0  0  0  0
  179.3510  177.7950  137.1850 O   0  0  0  0  0  0  0  0  0  0  0  0
  179.0580  179.8280  135.2180 C   0  0  0  0  0  2  0  0  0  0  0  0
  180.1870  178.7400  137.2000 C   0  0  0  0  0  0  0  0  0  0  0  0
  180.7120  181.1200  136.4160 C   0  0  1  0  0  3  0  0  0  0  0  0
  179.0860  181.2180  134.6110 C   0  0  0  0  0  2  0  0  0  0  0  0
  180.1960  182.0170  137.9130 S   0  0  0  0  0  1  0  0  0  0  0  0
  179.9940  179.8620  136.3200 N   0  0  0  0  0  0  0  0  0  0  0  0
  180.3070  181.9140  135.1900 C   0  0  0  0  0  2  0  0  0  0  0  0
  1  3  1  0  0  0  0
  2 10  1  0  0  0  0
  2 22  2  0  0  0  0
  4 12  1  0  0  0  0
  5 15  1  0  0  0  0
  6 10  1  0  0  0  0
  6 21  1  0  0  0  0
  7 17  1  0  0  0  0
  8 11  1  0  0  0  0
 10  1  2  0  0  0  0
 11 17  1  0  0  0  0
 11  9  2  0  0  0  0
 12  9  1  0  0  0  0
 12 16  2  0  0  0  0
 13  7  2  0  0  0  0
 14  5  1  0  0  0  0
 14  2  1  0  0  0  0
 15 13  1  0  0  0  0
 15  8  2  0  0  0  0
 18 16  1  0  0  0  0
 19  3  2  0  0  0  0
 20  4  1  0  0  0  0
 20 18  2  0  0  0  0
 21  8  1  0  0  0  0
 21  4  2  0  0  0  0
 22 19  1  0  0  0  0
 23 27  1  0  0  0  0
 24 28  1  0  0  0  0
 24 23  2  0  0  0  0
 25 31  1  0  0  0  0
 26 25  1  0  0  0  0
 26 28  1  0  0  0  0
 27 30  2  0  0  0  0
 27 20  1  0  0  0  0
 28 29  2  0  0  0  0
 29 30  1  0  0  0  0
 31 29  1  0  0  0  0
 32 34  2  0  0  0  0
 33 38  1  0  0  0  0
 34 13  1  0  0  0  0
 35 37  1  1  0  0  0
 36 39  1  0  0  0  0
 36 33  1  0  0  0  0
 38 35  1  0  0  0  0
 38 34  1  0  0  0  0
 39 35  1  0  0  0  0
M  END
>  <MODEL>
2

>  <REMARK>
 VINA RESULT:      -7.3      2.907      8.684
  Name = 
  2 active torsions:
  status: ('A' for Active; 'I' for Inactive)
    1  A    between atoms: C_19  and  C_20
    2  A    between atoms: C_26  and  C_34
                            x       y       z     vdW  Elec       q    Type
                         _______ _______ _______ _____ _____    ______ ____

>  <TORSDO>
F 2

$$$$
=
 OpenBabel11062417553D

 39 46  0  0  1  0  0  0  0  0999 V2000
  183.9730  178.6190  141.1190 C   0  0  0  0  0  3  0  0  0  0  0  0
  186.1010  178.5650  139.9330 C   0  0  0  0  0  0  0  0  0  0  0  0
  184.6480  178.5600  142.3390 C   0  0  0  0  0  3  0  0  0  0  0  0
  182.4390  176.6260  138.4510 C   0  0  0  0  0  0  0  0  0  0  0  0
  186.2970  178.3560  137.3710 C   0  0  0  0  0  2  0  0  0  0  0  0
  183.9010  178.6370  138.6410 C   0  0  0  0  0  2  0  0  0  0  0  0
  186.7260  174.7140  136.4420 C   0  0  0  0  0  3  0  0  0  0  0  0
  184.7190  176.4090  137.6100 C   0  0  0  0  0  0  0  0  0  0  0  0
  183.2320  174.4470  137.8160 C   0  0  0  0  0  3  0  0  0  0  0  0
  184.6850  178.6340  139.9150 C   0  0  0  0  0  0  0  0  0  0  0  0
  184.4620  175.0090  137.4480 C   0  0  0  0  0  0  0  0  0  0  0  0
  182.2450  175.2800  138.3100 C   0  0  0  0  0  0  0  0  0  0  0  0
  186.9500  176.0210  136.5660 C   0  0  0  0  0  0  0  0  0  0  0  0
  186.9820  178.6280  138.7080 C   0  0  0  0  0  2  0  0  0  0  0  0
  185.9340  176.9040  137.2140 C   0  0  0  0  0  0  0  0  0  0  0  0
  181.0930  174.9030  138.7480 N   0  0  0  0  0  0  0  0  0  0  0  0
  185.5170  174.0430  137.0020 C   0  0  0  0  0  2  0  0  0  0  0  0
  180.4180  176.0400  139.2180 N   0  0  0  0  0  0  0  0  0  0  0  0
  186.0410  178.5110  142.3630 C   0  0  0  0  0  3  0  0  0  0  0  0
  181.1780  177.0770  139.0560 C   0  0  0  0  0  0  0  0  0  0  0  0
  183.6780  177.2280  138.1790 C   0  0  0  0  0  0  0  0  0  0  0  0
  186.7600  178.5180  141.1670 C   0  0  0  0  0  3  0  0  0  0  0  0
  180.5470  178.8490  140.6960 C   0  0  0  0  0  3  0  0  0  0  0  0
  180.0540  180.1280  141.0080 C   0  0  0  0  0  3  0  0  0  0  0  0
  179.0540  182.7080  138.6430 C   0  0  0  0  0  2  0  0  0  0  0  0
  179.2350  182.2550  139.9920 O   0  0  0  0  0  0  0  0  0  0  0  0
  180.7170  178.4460  139.3490 C   0  0  0  0  0  0  0  0  0  0  0  0
  179.7370  180.9710  139.9470 C   0  0  0  0  0  0  0  0  0  0  0  0
  179.8830  180.5870  138.6550 C   0  0  0  0  0  0  0  0  0  0  0  0
  180.3620  179.3270  138.3090 C   0  0  0  0  0  3  0  0  0  0  0  0
  179.4790  181.6120  137.8230 O   0  0  0  0  0  0  0  0  0  0  0  0
  188.1050  177.4330  135.0530 O   0  0  0  0  0  0  0  0  0  0  0  0
  190.6930  176.4090  135.6380 C   0  0  0  0  0  2  0  0  0  0  0  0
  188.1920  176.5690  135.9670 C   0  0  0  0  0  0  0  0  0  0  0  0
  189.7490  175.3560  137.5980 C   0  0  1  0  0  3  0  0  0  0  0  0
  191.8410  175.8700  136.4700 C   0  0  0  0  0  2  0  0  0  0  0  0
  189.4450  176.3790  139.0720 S   0  0  0  0  0  1  0  0  0  0  0  0
  189.4930  176.1300  136.3970 N   0  0  0  0  0  0  0  0  0  0  0  0
  191.2170  174.9860  137.5380 C   0  0  0  0  0  2  0  0  0  0  0  0
  1  3  1  0  0  0  0
  2 22  2  0  0  0  0
  3 19  2  0  0  0  0
  4 20  1  0  0  0  0
  5 14  1  0  0  0  0
  6 10  1  0  0  0  0
  7 13  2  0  0  0  0
  7 17  1  0  0  0  0
  8 21  1  0  0  0  0
  9 12  1  0  0  0  0
 10  2  1  0  0  0  0
 10  1  2  0  0  0  0
 11  8  1  0  0  0  0
 11  9  2  0  0  0  0
 12  4  1  0  0  0  0
 12 16  2  0  0  0  0
 13 15  1  0  0  0  0
 14  2  1  0  0  0  0
 15  5  1  0  0  0  0
 15  8  2  0  0  0  0
 16 18  1  0  0  0  0
 17 11  1  0  0  0  0
 20 18  2  0  0  0  0
 20 27  1  0  0  0  0
 21  4  2  0  0  0  0
 21  6  1  0  0  0  0
 22 19  1  0  0  0  0
 23 24  1  0  0  0  0
 25 26  1  0  0  0  0
 27 23  2  0  0  0  0
 28 26  1  0  0  0  0
 28 24  2  0  0  0  0
 29 28  1  0  0  0  0
 30 29  2  0  0  0  0
 30 27  1  0  0  0  0
 31 25  1  0  0  0  0
 31 29  1  0  0  0  0
 32 34  2  0  0  0  0
 33 38  1  0  0  0  0
 33 36  1  0  0  0  0
 34 38  1  0  0  0  0
 34 13  1  0  0  0  0
 35 37  1  1  0  0  0
 36 39  1  0  0  0  0
 38 35  1  0  0  0  0
 39 35  1  0  0  0  0
M  END
>  <MODEL>
3

>  <REMARK>
 VINA RESULT:      -6.8      1.150      1.399
  Name = 
  2 active torsions:
  status: ('A' for Active; 'I' for Inactive)
    1  A    between atoms: C_19  and  C_20
    2  A    between atoms: C_26  and  C_34
                            x       y       z     vdW  Elec       q    Type
                         _______ _______ _______ _____ _____    ______ ____

>  <TORSDO>
F 2

$$$$
=
 OpenBabel11062417553D

 39 46  0  0  1  0  0  0  0  0999 V2000
  181.2840  179.6670  140.4740 C   0  0  0  0  0  3  0  0  0  0  0  0
  179.8520  178.2050  139.1500 C   0  0  0  0  0  0  0  0  0  0  0  0
  180.4350  180.7420  140.2120 C   0  0  0  0  0  3  0  0  0  0  0  0
  184.2340  177.8300  139.3030 C   0  0  0  0  0  0  0  0  0  0  0  0
  180.4580  175.7710  138.5610 C   0  0  0  0  0  2  0  0  0  0  0  0
  181.9800  177.3000  140.2290 C   0  0  0  0  0  2  0  0  0  0  0  0
  182.1370  175.6830  135.1720 C   0  0  0  0  0  3  0  0  0  0  0  0
  182.6650  176.7150  137.8030 C   0  0  0  0  0  0  0  0  0  0  0  0
  184.8130  177.6170  136.9790 C   0  0  0  0  0  3  0  0  0  0  0  0
  180.9990  178.3960  139.9620 C   0  0  0  0  0  0  0  0  0  0  0  0
  183.6110  176.9360  136.7480 C   0  0  0  0  0  0  0  0  0  0  0  0
  185.0940  178.0480  138.2630 C   0  0  0  0  0  0  0  0  0  0  0  0
  181.2750  175.4540  136.1610 C   0  0  0  0  0  0  0  0  0  0  0  0
  179.4070  176.8780  138.5850 C   0  0  0  0  0  2  0  0  0  0  0  0
  181.5160  176.0250  137.5210 C   0  0  0  0  0  0  0  0  0  0  0  0
  186.1220  178.7410  138.6140 N   0  0  0  0  0  0  0  0  0  0  0  0
  183.3250  176.5720  135.3230 C   0  0  0  0  0  3  0  0  0  0  0  0
  186.0010  179.0250  139.9830 N   0  0  0  0  0  0  0  0  0  0  0  0
  179.2950  180.5560  139.4300 C   0  0  0  0  0  3  0  0  0  0  0  0
  184.9020  178.5020  140.4250 C   0  0  0  0  0  0  0  0  0  0  0  0
  182.9790  177.2290  139.1120 C   0  0  1  0  0  3  0  0  0  0  0  0
  179.0070  179.2950  138.9080 C   0  0  0  0  0  3  0  0  0  0  0  0
  183.2530  178.9960  142.2340 C   0  0  0  0  0  3  0  0  0  0  0  0
  182.8930  179.0880  143.5890 C   0  0  0  0  0  3  0  0  0  0  0  0
  184.9800  178.2550  146.4530 C   0  0  0  0  0  2  0  0  0  0  0  0
  183.7360  178.7160  145.9090 O   0  0  0  0  0  0  0  0  0  0  0  0
  184.5350  178.5280  141.8530 C   0  0  0  0  0  0  0  0  0  0  0  0
  183.8430  178.7090  144.5340 C   0  0  0  0  0  0  0  0  0  0  0  0
  185.0770  178.2740  144.1770 C   0  0  0  0  0  0  0  0  0  0  0  0
  185.4700  178.1760  142.8460 C   0  0  0  0  0  3  0  0  0  0  0  0
  185.8080  177.9870  145.3130 O   0  0  0  0  0  0  0  0  0  0  0  0
  179.1250  175.0030  135.2690 O   0  0  0  0  0  0  0  0  0  0  0  0
  178.9310  172.3730  136.3360 C   0  0  0  0  0  2  0  0  0  0  0  0
  180.1290  174.5520  135.8850 C   0  0  0  0  0  0  0  0  0  0  0  0
  181.3030  172.4630  136.7880 C   0  0  1  0  0  3  0  0  0  0  0  0
  179.3740  170.9830  136.7510 C   0  0  0  0  0  2  0  0  0  0  0  0
  182.4600  172.1880  135.4110 S   0  0  0  0  0  1  0  0  0  0  0  0
  180.1320  173.1790  136.3150 N   0  0  0  0  0  0  0  0  0  0  0  0
  180.7890  171.1280  137.2870 C   0  0  0  0  0  2  0  0  0  0  0  0
  2 10  1  0  0  0  0
  3  1  1  0  0  0  0
  4 20  2  0  0  0  0
  5 14  1  0  0  0  0
  7 17  2  0  0  0  0
  7 13  1  0  0  0  0
  8 21  1  0  0  0  0
  9 12  2  0  0  0  0
 10  6  1  0  0  0  0
 10  1  2  0  0  0  0
 11  9  1  0  0  0  0
 11  8  2  0  0  0  0
 12 16  1  0  0  0  0
 12  4  1  0  0  0  0
 13 15  2  0  0  0  0
 14  2  1  0  0  0  0
 15  8  1  0  0  0  0
 15  5  1  0  0  0  0
 16 18  2  0  0  0  0
 17 11  1  0  0  0  0
 18 20  1  0  0  0  0
 19  3  2  0  0  0  0
 20 27  1  0  0  0  0
 21  4  1  0  0  0  0
 21  6  1  6  0  0  0
 22  2  2  0  0  0  0
 22 19  1  0  0  0  0
 23 24  1  0  0  0  0
 24 28  2  0  0  0  0
 26 25  1  0  0  0  0
 27 23  2  0  0  0  0
 27 30  1  0  0  0  0
 28 26  1  0  0  0  0
 29 28  1  0  0  0  0
 29 31  1  0  0  0  0
 30 29  2  0  0  0  0
 31 25  1  0  0  0  0
 32 34  2  0  0  0  0
 33 36  1  0  0  0  0
 34 13  1  0  0  0  0
 34 38  1  0  0  0  0
 35 37  1  6  0  0  0
 35 39  1  0  0  0  0
 36 39  1  0  0  0  0
 38 33  1  0  0  0  0
 38 35  1  0  0  0  0
M  END
>  <MODEL>
4

>  <REMARK>
 VINA RESULT:      -6.6      4.510      7.621
  Name = 
  2 active torsions:
  status: ('A' for Active; 'I' for Inactive)
    1  A    between atoms: C_19  and  C_20
    2  A    between atoms: C_26  and  C_34
                            x       y       z     vdW  Elec       q    Type
                         _______ _______ _______ _____ _____    ______ ____

>  <TORSDO>
F 2

$$$$
=
 OpenBabel11062417553D

 39 46  0  0  1  0  0  0  0  0999 V2000
  182.1670  179.1900  140.4770 C   0  0  0  0  0  3  0  0  0  0  0  0
  184.5410  178.6410  140.5140 C   0  0  0  0  0  0  0  0  0  0  0  0
  182.0670  178.8670  141.8300 C   0  0  0  0  0  3  0  0  0  0  0  0
  181.9210  177.8750  137.0620 C   0  0  0  0  0  0  0  0  0  0  0  0
  186.0170  178.5590  138.4030 C   0  0  0  0  0  2  0  0  0  0  0  0
  183.4220  179.3950  138.3490 C   0  0  0  0  0  2  0  0  0  0  0  0
  186.1470  175.0100  137.1010 C   0  0  0  0  0  3  0  0  0  0  0  0
  184.2050  177.1040  137.4360 C   0  0  0  0  0  0  0  0  0  0  0  0
  182.4840  175.6110  136.4820 C   0  0  0  0  0  3  0  0  0  0  0  0
  183.3950  179.0930  139.8130 C   0  0  0  0  0  0  0  0  0  0  0  0
  183.8040  175.8400  136.8920 C   0  0  0  0  0  0  0  0  0  0  0  0
  181.5710  176.6450  136.5780 C   0  0  0  0  0  0  0  0  0  0  0  0
  186.5240  176.1950  137.5790 C   0  0  0  0  0  0  0  0  0  0  0  0
  185.9280  178.5440  139.9270 C   0  0  0  0  0  2  0  0  0  0  0  0
  185.5150  177.2760  137.8010 C   0  0  0  0  0  0  0  0  0  0  0  0
  180.3140  176.5660  136.3040 N   0  0  0  0  0  0  0  0  0  0  0  0
  184.7220  174.6560  136.8440 C   0  0  0  0  0  3  0  0  0  0  0  0
  179.7320  177.8090  136.5950 N   0  0  0  0  0  0  0  0  0  0  0  0
  183.1950  178.4400  142.5300 C   0  0  0  0  0  3  0  0  0  0  0  0
  180.6490  178.6090  137.0410 C   0  0  0  0  0  0  0  0  0  0  0  0
  183.2060  178.1340  137.5660 C   0  0  1  0  0  3  0  0  0  0  0  0
  184.4220  178.3320  141.8750 C   0  0  0  0  0  3  0  0  0  0  0  0
  179.6180  180.3710  138.4770 C   0  0  0  0  0  3  0  0  0  0  0  0
  179.2970  181.7110  138.7530 C   0  0  0  0  0  3  0  0  0  0  0  0
  180.2040  184.6190  136.7590 C   0  0  0  0  0  2  0  0  0  0  0  0
  179.5630  184.0440  137.9070 O   0  0  0  0  0  0  0  0  0  0  0  0
  180.3810  180.0290  137.3340 C   0  0  0  0  0  0  0  0  0  0  0  0
  179.7520  182.6790  137.8610 C   0  0  0  0  0  0  0  0  0  0  0  0
  180.4710  182.3560  136.7570 C   0  0  0  0  0  0  0  0  0  0  0  0
  180.8010  181.0410  136.4490 C   0  0  0  0  0  3  0  0  0  0  0  0
  180.7690  183.5060  136.0530 O   0  0  0  0  0  0  0  0  0  0  0  0
  188.3790  176.7550  138.9430 O   0  0  0  0  0  0  0  0  0  0  0  0
  190.2770  176.7980  136.8250 C   0  0  0  0  0  2  0  0  0  0  0  0
  187.9730  176.4250  137.7960 C   0  0  0  0  0  0  0  0  0  0  0  0
  188.6460  175.6700  135.4430 C   0  0  1  0  0  3  0  0  0  0  0  0
  190.9720  176.3750  135.5450 C   0  0  0  0  0  2  0  0  0  0  0  0
  188.4160  173.8780  135.6590 S   0  0  0  0  0  1  0  0  0  0  0  0
  188.9260  176.2920  136.7250 N   0  0  0  0  0  0  0  0  0  0  0  0
  189.8760  175.9200  134.5940 C   0  0  0  0  0  2  0  0  0  0  0  0
  1  3  1  0  0  0  0
  2 22  2  0  0  0  0
  3 19  2  0  0  0  0
  4 21  1  0  0  0  0
  5 14  1  0  0  0  0
  6 10  1  0  0  0  0
  7 13  1  0  0  0  0
  8 21  1  0  0  0  0
  8 15  1  0  0  0  0
  9 12  2  0  0  0  0
  9 11  1  0  0  0  0
 10  1  2  0  0  0  0
 10  2  1  0  0  0  0
 11  8  2  0  0  0  0
 12  4  1  0  0  0  0
 13 34  1  0  0  0  0
 13 15  2  0  0  0  0
 14  2  1  0  0  0  0
 15  5  1  0  0  0  0
 16 12  1  0  0  0  0
 16 18  2  0  0  0  0
 17 11  1  0  0  0  0
 17  7  2  0  0  0  0
 18 20  1  0  0  0  0
 20  4  2  0  0  0  0
 20 27  1  0  0  0  0
 21  6  1  1  0  0  0
 22 19  1  0  0  0  0
 23 24  1  0  0  0  0
 25 26  1  0  0  0  0
 27 23  2  0  0  0  0
 28 26  1  0  0  0  0
 28 24  2  0  0  0  0
 29 28  1  0  0  0  0
 30 29  2  0  0  0  0
 30 27  1  0  0  0  0
 31 29  1  0  0  0  0
 31 25  1  0  0  0  0
 34 32  2  0  0  0  0
 35 37  1  1  0  0  0
 35 38  1  0  0  0  0
 36 33  1  0  0  0  0
 38 33  1  0  0  0  0
 38 34  1  0  0  0  0
 39 35  1  0  0  0  0
 39 36  1  0  0  0  0
M  END
>  <MODEL>
5

>  <REMARK>
 VINA RESULT:      -5.3      1.878      2.772
  Name = 
  2 active torsions:
  status: ('A' for Active; 'I' for Inactive)
    1  A    between atoms: C_19  and  C_20
    2  A    between atoms: C_26  and  C_34
                            x       y       z     vdW  Elec       q    Type
                         _______ _______ _______ _____ _____    ______ ____

>  <TORSDO>
F 2

$$$$
