=
 OpenBabel11062414443D

 27 30  0  0  1  0  0  0  0  0999 V2000
  187.9600  175.8060  143.6370 O   0  0  0  0  0  0  0  0  0  0  0  0
  190.2700  178.1820  140.7850 N   0  0  0  0  0  2  0  0  0  0  0  0
  191.7440  176.9770  145.4740 C   0  0  0  0  0  2  0  0  0  0  0  0
  190.3380  176.8310  144.9180 C   0  0  0  0  0  0  0  0  0  0  0  0
  189.6310  176.2100  147.3160 C   0  0  0  0  0  2  0  0  0  0  0  0
  191.3070  177.0130  142.6900 C   0  0  0  0  0  3  0  0  0  0  0  0
  188.9220  178.3080  141.3090 C   0  0  0  0  0  2  0  0  0  0  0  0
  190.1280  176.8180  143.5750 C   0  0  0  0  0  0  0  0  0  0  0  0
  191.1480  176.1020  147.4550 C   0  0  0  0  0  2  0  0  0  0  0  0
  188.7840  176.5110  142.9950 C   0  0  0  0  0  0  0  0  0  0  0  0
  191.7450  177.2210  146.8590 O   0  0  0  0  0  0  0  0  0  0  0  0
  188.3840  176.9310  141.6200 C   0  0  0  0  0  2  0  0  0  0  0  0
  189.2020  176.6950  145.9180 C   0  0  1  0  0  3  0  0  0  0  0  0
  191.3660  177.5760  141.4770 C   0  0  0  0  0  3  0  0  0  0  0  0
  188.3350  177.9620  145.9650 C   0  0  2  0  0  3  0  0  0  0  0  0
  187.8540  178.4900  148.2760 O   0  0  0  0  0  1  0  0  0  0  0  0
  188.6170  178.8670  147.1690 C   0  0  0  0  0  2  0  0  0  0  0  0
  186.8520  177.6340  145.8080 C   0  0  0  0  0  2  0  0  0  0  0  0
  185.0220  179.0310  146.6380 N   0  0  0  0  0  0  0  0  0  0  0  0
  186.0210  178.8860  145.5550 C   0  0  2  0  0  3  0  0  0  0  0  0
  183.9130  178.8080  144.6220 C   0  0  0  0  0  0  0  0  0  0  0  0
  183.2960  178.6200  142.3160 C   0  0  0  0  0  3  0  0  0  0  0  0
  185.6490  178.6580  142.9720 C   0  0  0  0  0  3  0  0  0  0  0  0
  184.6620  178.5810  141.9720 C   0  0  0  0  0  3  0  0  0  0  0  0
  182.9060  178.7400  143.6620 C   0  0  0  0  0  3  0  0  0  0  0  0
  185.2270  178.7590  144.2990 C   0  0  0  0  0  0  0  0  0  0  0  0
  183.7610  178.9630  146.0100 N   0  0  0  0  0  0  0  0  0  0  0  0
  2  7  1  0  0  0  0
  2 14  1  0  0  0  0
  3 11  1  0  0  0  0
  4  3  1  0  0  0  0
  4 13  1  0  0  0  0
  5  9  1  0  0  0  0
  6  8  1  0  0  0  0
  7 12  1  0  0  0  0
  8  4  2  0  0  0  0
 10  8  1  0  0  0  0
 10  1  2  0  0  0  0
 11  9  1  0  0  0  0
 12 10  1  0  0  0  0
 13 15  1  1  0  0  0
 13  5  1  0  0  0  0
 14  6  2  0  0  0  0
 15 18  1  1  0  0  0
 15 17  1  0  0  0  0
 17 16  1  0  0  0  0
 20 18  1  1  0  0  0
 20 19  1  0  0  0  0
 21 27  1  0  0  0  0
 22 25  1  0  0  0  0
 23 26  2  0  0  0  0
 24 22  2  0  0  0  0
 24 23  1  0  0  0  0
 25 21  2  0  0  0  0
 26 21  1  0  0  0  0
 26 20  1  0  0  0  0
 27 19  2  0  0  0  0
M  END
>  <MODEL>
1

>  <REMARK>
 VINA RESULT:      -8.3      0.000      0.000
  Name = 
  4 active torsions:
  status: ('A' for Active; 'I' for Inactive)
    1  A    between atoms: C_2  and  C_14
    2  A    between atoms: C_2  and  C_20
    3  A    between atoms: C_2  and  C_26
    4  A    between atoms: C_5  and  C_20
                            x       y       z     vdW  Elec       q    Type
                         _______ _______ _______ _____ _____    ______ ____

>  <TORSDO>
F 4

$$$$
=
 OpenBabel11062414443D

 27 30  0  0  1  0  0  0  0  0999 V2000
  187.5430  176.0160  143.4940 O   0  0  0  0  0  0  0  0  0  0  0  0
  191.4010  177.7530  144.5950 N   0  0  0  0  0  2  0  0  0  0  0  0
  187.0590  178.4210  147.1060 C   0  0  0  0  0  2  0  0  0  0  0  0
  187.1990  177.8360  145.7120 C   0  0  0  0  0  0  0  0  0  0  0  0
  184.6250  177.8910  145.6080 C   0  0  0  0  0  2  0  0  0  0  0  0
  189.5580  177.4790  146.2070 C   0  0  0  0  0  3  0  0  0  0  0  0
  190.6230  177.7780  143.3700 C   0  0  0  0  0  2  0  0  0  0  0  0
  188.3960  177.3540  145.2870 C   0  0  0  0  0  0  0  0  0  0  0  0
  184.8320  178.1280  147.1020 C   0  0  0  0  0  2  0  0  0  0  0  0
  188.5310  176.6230  143.9870 C   0  0  0  0  0  0  0  0  0  0  0  0
  185.8340  179.0900  147.2800 O   0  0  0  0  0  0  0  0  0  0  0  0
  189.8300  176.4960  143.2650 C   0  0  0  0  0  2  0  0  0  0  0  0
  185.9570  177.8100  144.8360 C   0  0  1  0  0  3  0  0  0  0  0  0
  190.8550  177.6240  145.9120 C   0  0  0  0  0  3  0  0  0  0  0  0
  186.0490  178.8330  143.6940 C   0  0  2  0  0  3  0  0  0  0  0  0
  183.8790  179.9000  143.6410 O   0  0  0  0  0  1  0  0  0  0  0  0
  185.2300  180.1070  143.9290 C   0  0  0  0  0  2  0  0  0  0  0  0
  185.7630  178.1890  142.3400 C   0  0  0  0  0  2  0  0  0  0  0  0
  184.9610  179.4140  140.3790 N   0  0  0  0  0  0  0  0  0  0  0  0
  186.1620  179.1020  141.1850 C   0  0  2  0  0  3  0  0  0  0  0  0
  186.4970  178.3170  139.0430 C   0  0  0  0  0  0  0  0  0  0  0  0
  188.4290  177.2480  138.1180 C   0  0  0  0  0  3  0  0  0  0  0  0
  188.3980  177.9470  140.4580 C   0  0  0  0  0  3  0  0  0  0  0  0
  189.0650  177.3530  139.3720 C   0  0  0  0  0  3  0  0  0  0  0  0
  187.1240  177.7410  137.9410 C   0  0  0  0  0  3  0  0  0  0  0  0
  187.0970  178.4100  140.2520 C   0  0  0  0  0  0  0  0  0  0  0  0
  185.2200  178.9010  139.0900 N   0  0  0  0  0  0  0  0  0  0  0  0
  1 10  2  0  0  0  0
  2 14  1  0  0  0  0
  3 11  1  0  0  0  0
  4  3  1  0  0  0  0
  5  9  1  0  0  0  0
  7  2  1  0  0  0  0
  8  4  2  0  0  0  0
  8  6  1  0  0  0  0
  9 11  1  0  0  0  0
 10  8  1  0  0  0  0
 12  7  1  0  0  0  0
 12 10  1  0  0  0  0
 13 15  1  6  0  0  0
 13  5  1  0  0  0  0
 13  4  1  0  0  0  0
 14  6  2  0  0  0  0
 15 18  1  6  0  0  0
 15 17  1  0  0  0  0
 16 17  1  0  0  0  0
 19 20  1  0  0  0  0
 20 18  1  1  0  0  0
 21 27  1  0  0  0  0
 21 26  1  0  0  0  0
 22 24  2  0  0  0  0
 24 23  1  0  0  0  0
 25 22  1  0  0  0  0
 25 21  2  0  0  0  0
 26 23  2  0  0  0  0
 26 20  1  0  0  0  0
 27 19  2  0  0  0  0
M  END
>  <MODEL>
2

>  <REMARK>
 VINA RESULT:      -7.8      2.614      4.829
  Name = 
  4 active torsions:
  status: ('A' for Active; 'I' for Inactive)
    1  A    between atoms: C_2  and  C_14
    2  A    between atoms: C_2  and  C_20
    3  A    between atoms: C_2  and  C_26
    4  A    between atoms: C_5  and  C_20
                            x       y       z     vdW  Elec       q    Type
                         _______ _______ _______ _____ _____    ______ ____

>  <TORSDO>
F 4

$$$$
=
 OpenBabel11062414443D

 27 30  0  0  1  0  0  0  0  0999 V2000
  187.6270  175.9160  143.7110 O   0  0  0  0  0  0  0  0  0  0  0  0
  191.1030  178.0630  142.1540 N   0  0  0  0  0  2  0  0  0  0  0  0
  189.7120  177.8650  147.0160 C   0  0  0  0  0  2  0  0  0  0  0  0
  188.8630  177.4450  145.8290 C   0  0  0  0  0  0  0  0  0  0  0  0
  186.9420  177.1460  147.5210 C   0  0  0  0  0  2  0  0  0  0  0  0
  190.9120  177.3760  144.5120 C   0  0  0  0  0  3  0  0  0  0  0  0
  189.6920  178.0970  141.8180 C   0  0  0  0  0  2  0  0  0  0  0  0
  189.4420  177.1790  144.6290 C   0  0  0  0  0  0  0  0  0  0  0  0
  188.1220  177.2630  148.4830 C   0  0  0  0  0  2  0  0  0  0  0  0
  188.6590  176.6050  143.4900 C   0  0  0  0  0  0  0  0  0  0  0  0
  188.9330  178.3350  148.0870 O   0  0  0  0  0  0  0  0  0  0  0  0
  189.0930  176.7330  142.0680 C   0  0  0  0  0  2  0  0  0  0  0  0
  187.3630  177.3300  146.0490 C   0  0  1  0  0  3  0  0  0  0  0  0
  191.6320  177.7310  143.4420 C   0  0  0  0  0  3  0  0  0  0  0  0
  186.6000  178.4620  145.3460 C   0  0  2  0  0  3  0  0  0  0  0  0
  184.8400  179.0390  146.9010 O   0  0  0  0  0  1  0  0  0  0  0  0
  186.0120  179.5060  146.3010 C   0  0  0  0  0  2  0  0  0  0  0  0
  185.5700  177.9160  144.3600 C   0  0  0  0  0  2  0  0  0  0  0  0
  183.4180  178.9840  143.8950 N   0  0  0  0  0  0  0  0  0  0  0  0
  184.8670  179.0360  143.6010 C   0  0  2  0  0  3  0  0  0  0  0  0
  183.7330  178.6740  141.6260 C   0  0  0  0  0  0  0  0  0  0  0  0
  184.6050  178.4850  139.4040 C   0  0  0  0  0  3  0  0  0  0  0  0
  186.1030  178.8550  141.2980 C   0  0  0  0  0  3  0  0  0  0  0  0
  185.9050  178.6680  139.9180 C   0  0  0  0  0  3  0  0  0  0  0  0
  183.4940  178.4900  140.2660 C   0  0  0  0  0  3  0  0  0  0  0  0
  184.9790  178.8380  142.1270 C   0  0  0  0  0  0  0  0  0  0  0  0
  182.7820  178.7490  142.6570 N   0  0  0  0  0  0  0  0  0  0  0  0
  2 14  1  0  0  0  0
  3 11  1  0  0  0  0
  4 13  1  0  0  0  0
  4  3  1  0  0  0  0
  5  9  1  0  0  0  0
  6  8  1  0  0  0  0
  7 12  1  0  0  0  0
  7  2  1  0  0  0  0
  8  4  2  0  0  0  0
 10  1  2  0  0  0  0
 10  8  1  0  0  0  0
 11  9  1  0  0  0  0
 12 10  1  0  0  0  0
 13 15  1  1  0  0  0
 13  5  1  0  0  0  0
 14  6  2  0  0  0  0
 15 18  1  1  0  0  0
 15 17  1  0  0  0  0
 17 16  1  0  0  0  0
 20 19  1  0  0  0  0
 20 18  1  1  0  0  0
 21 26  1  0  0  0  0
 21 27  1  0  0  0  0
 22 24  2  0  0  0  0
 22 25  1  0  0  0  0
 23 26  2  0  0  0  0
 24 23  1  0  0  0  0
 25 21  2  0  0  0  0
 26 20  1  0  0  0  0
 27 19  2  0  0  0  0
M  END
>  <MODEL>
3

>  <REMARK>
 VINA RESULT:      -7.8      1.622      2.417
  Name = 
  4 active torsions:
  status: ('A' for Active; 'I' for Inactive)
    1  A    between atoms: C_2  and  C_14
    2  A    between atoms: C_2  and  C_20
    3  A    between atoms: C_2  and  C_26
    4  A    between atoms: C_5  and  C_20
                            x       y       z     vdW  Elec       q    Type
                         _______ _______ _______ _____ _____    ______ ____

>  <TORSDO>
F 4

$$$$
=
 OpenBabel11062414443D

 27 30  0  0  1  0  0  0  0  0999 V2000
  180.3160  179.6060  140.2390 O   0  0  0  0  0  0  0  0  0  0  0  0
  180.8630  182.2360  136.7890 N   0  0  0  0  0  2  0  0  0  0  0  0
  182.1550  177.3470  136.9860 C   0  0  0  0  0  2  0  0  0  0  0  0
  181.7850  178.2180  138.1740 C   0  0  0  0  0  0  0  0  0  0  0  0
  182.4800  176.2210  139.6450 C   0  0  0  0  0  2  0  0  0  0  0  0
  180.7900  179.7810  136.5910 C   0  0  0  0  0  3  0  0  0  0  0  0
  181.2720  182.3350  138.1780 C   0  0  0  0  0  2  0  0  0  0  0  0
  181.1010  179.3780  137.9890 C   0  0  0  0  0  0  0  0  0  0  0  0
  182.4170  175.5330  138.2830 C   0  0  0  0  0  2  0  0  0  0  0  0
  180.5770  180.1720  139.1440 C   0  0  0  0  0  0  0  0  0  0  0  0
  183.0650  176.3330  137.3340 O   0  0  0  0  0  0  0  0  0  0  0  0
  180.2550  181.6250  139.0420 C   0  0  0  0  0  2  0  0  0  0  0  0
  182.2020  177.7340  139.5520 C   0  0  1  0  0  3  0  0  0  0  0  0
  180.6610  181.0110  136.0780 C   0  0  0  0  0  3  0  0  0  0  0  0
  183.3420  178.5870  140.1300 C   0  0  2  0  0  3  0  0  0  0  0  0
  184.3380  180.4750  138.9930 O   0  0  0  0  0  1  0  0  0  0  0  0
  184.3450  179.0810  139.0820 C   0  0  0  0  0  2  0  0  0  0  0  0
  184.0160  177.8950  141.3120 C   0  0  0  0  0  2  0  0  0  0  0  0
  186.3800  178.3880  141.7070 N   0  0  0  0  0  0  0  0  0  0  0  0
  184.9990  178.8190  142.0210 C   0  0  2  0  0  3  0  0  0  0  0  0
  186.0490  178.2380  143.9900 C   0  0  0  0  0  0  0  0  0  0  0  0
  185.2100  178.3460  146.2300 C   0  0  0  0  0  3  0  0  0  0  0  0
  183.8130  179.0310  144.3470 C   0  0  0  0  0  3  0  0  0  0  0  0
  183.9890  178.8410  145.7300 C   0  0  0  0  0  3  0  0  0  0  0  0
  186.2650  178.0410  145.3520 C   0  0  0  0  0  3  0  0  0  0  0  0
  184.8750  178.7010  143.5020 C   0  0  0  0  0  0  0  0  0  0  0  0
  186.9630  178.0360  142.9430 N   0  0  0  0  0  0  0  0  0  0  0  0
  2  7  1  0  0  0  0
  3 11  1  0  0  0  0
  3  4  1  0  0  0  0
  4 13  1  0  0  0  0
  6  8  1  0  0  0  0
  7 12  1  0  0  0  0
  8  4  2  0  0  0  0
  8 10  1  0  0  0  0
  9  5  1  0  0  0  0
 10  1  2  0  0  0  0
 11  9  1  0  0  0  0
 12 10  1  0  0  0  0
 13  5  1  0  0  0  0
 13 15  1  6  0  0  0
 14  6  2  0  0  0  0
 14  2  1  0  0  0  0
 15 17  1  6  0  0  0
 15 18  1  0  0  0  0
 16 17  1  0  0  0  0
 19 20  1  0  0  0  0
 19 27  2  0  0  0  0
 20 18  1  6  0  0  0
 20 26  1  0  0  0  0
 21 25  1  0  0  0  0
 23 24  2  0  0  0  0
 24 22  1  0  0  0  0
 25 22  2  0  0  0  0
 26 21  2  0  0  0  0
 26 23  1  0  0  0  0
 27 21  1  0  0  0  0
M  END
>  <MODEL>
4

>  <REMARK>
 VINA RESULT:      -7.6      4.950      8.856
  Name = 
  4 active torsions:
  status: ('A' for Active; 'I' for Inactive)
    1  A    between atoms: C_2  and  C_14
    2  A    between atoms: C_2  and  C_20
    3  A    between atoms: C_2  and  C_26
    4  A    between atoms: C_5  and  C_20
                            x       y       z     vdW  Elec       q    Type
                         _______ _______ _______ _____ _____    ______ ____

>  <TORSDO>
F 4

$$$$
=
 OpenBabel11062414443D

 27 30  0  0  1  0  0  0  0  0999 V2000
  188.3120  175.6760  142.8730 O   0  0  0  0  0  0  0  0  0  0  0  0
  191.4820  177.4550  145.3020 N   0  0  0  0  0  2  0  0  0  0  0  0
  186.5520  178.5460  145.6530 C   0  0  0  0  0  2  0  0  0  0  0  0
  187.2160  177.7790  144.5230 C   0  0  0  0  0  0  0  0  0  0  0  0
  184.9300  177.8780  143.3360 C   0  0  0  0  0  2  0  0  0  0  0  0
  189.1200  177.4370  146.0040 C   0  0  0  0  0  3  0  0  0  0  0  0
  191.2880  177.3360  143.8680 C   0  0  0  0  0  2  0  0  0  0  0  0
  188.4410  177.2190  144.6990 C   0  0  0  0  0  0  0  0  0  0  0  0
  184.5140  178.3050  144.7420 C   0  0  0  0  0  2  0  0  0  0  0  0
  189.0480  176.3200  143.6670 C   0  0  0  0  0  0  0  0  0  0  0  0
  185.4210  179.2600  145.2200 O   0  0  0  0  0  0  0  0  0  0  0  0
  190.5160  176.0690  143.5800 C   0  0  0  0  0  2  0  0  0  0  0  0
  186.4530  177.6660  143.2130 C   0  0  1  0  0  3  0  0  0  0  0  0
  190.4290  177.5140  146.2700 C   0  0  0  0  0  3  0  0  0  0  0  0
  187.0880  178.5280  142.1120 C   0  0  2  0  0  3  0  0  0  0  0  0
  185.3100  179.4300  140.7430 O   0  0  0  0  0  1  0  0  0  0  0  0
  186.2560  179.7530  141.7190 C   0  0  0  0  0  2  0  0  0  0  0  0
  187.5010  177.6840  140.9080 C   0  0  0  0  0  2  0  0  0  0  0  0
  187.5400  178.6280  138.6510 N   0  0  0  0  0  0  0  0  0  0  0  0
  188.3150  178.4930  139.9050 C   0  0  2  0  0  3  0  0  0  0  0  0
  189.5110  177.5080  138.1960 C   0  0  0  0  0  0  0  0  0  0  0  0
  191.6760  176.4880  138.2700 C   0  0  0  0  0  3  0  0  0  0  0  0
  190.6790  177.4320  140.2910 C   0  0  0  0  0  3  0  0  0  0  0  0
  191.7440  176.7740  139.6490 C   0  0  0  0  0  3  0  0  0  0  0  0
  190.5450  176.8630  137.5230 C   0  0  0  0  0  3  0  0  0  0  0  0
  189.5640  177.7740  139.5220 C   0  0  0  0  0  0  0  0  0  0  0  0
  188.3130  178.0000  137.6520 N   0  0  0  0  0  0  0  0  0  0  0  0
  1 10  2  0  0  0  0
  2 14  1  0  0  0  0
  4  8  2  0  0  0  0
  4  3  1  0  0  0  0
  5  9  1  0  0  0  0
  6 14  2  0  0  0  0
  7  2  1  0  0  0  0
  8  6  1  0  0  0  0
  9 11  1  0  0  0  0
 10  8  1  0  0  0  0
 11  3  1  0  0  0  0
 12 10  1  0  0  0  0
 12  7  1  0  0  0  0
 13 15  1  6  0  0  0
 13  5  1  0  0  0  0
 13  4  1  0  0  0  0
 15 18  1  6  0  0  0
 16 17  1  0  0  0  0
 17 15  1  0  0  0  0
 19 20  1  0  0  0  0
 20 18  1  1  0  0  0
 21 26  1  0  0  0  0
 22 24  2  0  0  0  0
 24 23  1  0  0  0  0
 25 21  2  0  0  0  0
 25 22  1  0  0  0  0
 26 20  1  0  0  0  0
 26 23  2  0  0  0  0
 27 21  1  0  0  0  0
 27 19  2  0  0  0  0
M  END
>  <MODEL>
5

>  <REMARK>
 VINA RESULT:      -7.2      2.777      6.179
  Name = 
  4 active torsions:
  status: ('A' for Active; 'I' for Inactive)
    1  A    between atoms: C_2  and  C_14
    2  A    between atoms: C_2  and  C_20
    3  A    between atoms: C_2  and  C_26
    4  A    between atoms: C_5  and  C_20
                            x       y       z     vdW  Elec       q    Type
                         _______ _______ _______ _____ _____    ______ ____

>  <TORSDO>
F 4

$$$$
=
 OpenBabel11062414443D

 27 30  0  0  1  0  0  0  0  0999 V2000
  187.8510  175.4340  143.2180 O   0  0  0  0  0  0  0  0  0  0  0  0
  191.6860  177.2790  144.2200 N   0  0  0  0  0  2  0  0  0  0  0  0
  187.1850  178.6820  146.0590 C   0  0  0  0  0  2  0  0  0  0  0  0
  187.4140  177.7610  144.8730 C   0  0  0  0  0  0  0  0  0  0  0  0
  184.8640  177.8630  144.5130 C   0  0  0  0  0  2  0  0  0  0  0  0
  189.7000  177.4710  145.6650 C   0  0  0  0  0  3  0  0  0  0  0  0
  191.0180  177.0170  142.9580 C   0  0  0  0  0  2  0  0  0  0  0  0
  188.6160  177.1530  144.6970 C   0  0  0  0  0  0  0  0  0  0  0  0
  184.9540  178.4620  145.9140 C   0  0  0  0  0  2  0  0  0  0  0  0
  188.8230  176.1160  143.6380 C   0  0  0  0  0  0  0  0  0  0  0  0
  185.9870  179.4080  145.9440 O   0  0  0  0  0  0  0  0  0  0  0  0
  190.1710  175.7740  143.0980 C   0  0  0  0  0  2  0  0  0  0  0  0
  186.2520  177.5520  143.9160 C   0  0  1  0  0  3  0  0  0  0  0  0
  191.0230  177.5010  145.4690 C   0  0  0  0  0  3  0  0  0  0  0  0
  186.4940  178.2530  142.5710 C   0  0  2  0  0  3  0  0  0  0  0  0
  188.4730  178.8200  141.3010 O   0  0  0  0  0  1  0  0  0  0  0  0
  187.8030  179.0450  142.5060 C   0  0  0  0  0  2  0  0  0  0  0  0
  185.2830  179.0770  142.1420 C   0  0  0  0  0  2  0  0  0  0  0  0
  185.3050  179.3790  139.7140 N   0  0  0  0  0  0  0  0  0  0  0  0
  184.7090  178.5910  140.8160 C   0  0  2  0  0  3  0  0  0  0  0  0
  183.0160  179.7030  139.7140 C   0  0  0  0  0  0  0  0  0  0  0  0
  180.6570  179.6230  140.1120 C   0  0  0  0  0  3  0  0  0  0  0  0
  182.1940  178.3180  141.4920 C   0  0  0  0  0  3  0  0  0  0  0  0
  180.8850  178.7220  141.1730 C   0  0  0  0  0  3  0  0  0  0  0  0
  181.7360  180.1230  139.3620 C   0  0  0  0  0  3  0  0  0  0  0  0
  183.2430  178.8470  140.7380 C   0  0  0  0  0  0  0  0  0  0  0  0
  184.2280  180.0410  139.0890 N   0  0  0  0  0  0  0  0  0  0  0  0
  1 10  2  0  0  0  0
  2 14  1  0  0  0  0
  4  3  1  0  0  0  0
  5  9  1  0  0  0  0
  7 12  1  0  0  0  0
  7  2  1  0  0  0  0
  8  4  2  0  0  0  0
  8  6  1  0  0  0  0
  9 11  1  0  0  0  0
 10  8  1  0  0  0  0
 11  3  1  0  0  0  0
 12 10  1  0  0  0  0
 13 15  1  6  0  0  0
 13  5  1  0  0  0  0
 13  4  1  0  0  0  0
 14  6  2  0  0  0  0
 15 18  1  1  0  0  0
 16 17  1  0  0  0  0
 17 15  1  0  0  0  0
 19 20  1  0  0  0  0
 20 18  1  1  0  0  0
 21 26  1  0  0  0  0
 22 24  2  0  0  0  0
 24 23  1  0  0  0  0
 25 21  2  0  0  0  0
 25 22  1  0  0  0  0
 26 20  1  0  0  0  0
 26 23  2  0  0  0  0
 27 19  2  0  0  0  0
 27 21  1  0  0  0  0
M  END
>  <MODEL>
6

>  <REMARK>
 VINA RESULT:      -7.0      2.668      4.554
  Name = 
  4 active torsions:
  status: ('A' for Active; 'I' for Inactive)
    1  A    between atoms: C_2  and  C_14
    2  A    between atoms: C_2  and  C_20
    3  A    between atoms: C_2  and  C_26
    4  A    between atoms: C_5  and  C_20
                            x       y       z     vdW  Elec       q    Type
                         _______ _______ _______ _____ _____    ______ ____

>  <TORSDO>
F 4

$$$$
=
 OpenBabel11062414443D

 27 30  0  0  1  0  0  0  0  0999 V2000
  188.8740  174.8980  138.1520 O   0  0  0  0  0  0  0  0  0  0  0  0
  191.4230  176.1840  134.8400 N   0  0  0  0  0  2  0  0  0  0  0  0
  192.2800  177.1210  139.7390 C   0  0  0  0  0  2  0  0  0  0  0  0
  190.9800  176.6090  139.1460 C   0  0  0  0  0  0  0  0  0  0  0  0
  189.9760  176.9190  141.4980 C   0  0  0  0  0  2  0  0  0  0  0  0
  192.2450  175.9950  137.1560 C   0  0  0  0  0  3  0  0  0  0  0  0
  190.0100  176.3560  135.1200 C   0  0  0  0  0  2  0  0  0  0  0  0
  190.9650  176.0380  137.9120 C   0  0  0  0  0  0  0  0  0  0  0  0
  191.4610  177.0460  141.8290 C   0  0  0  0  0  2  0  0  0  0  0  0
  189.7380  175.3760  137.3690 C   0  0  0  0  0  0  0  0  0  0  0  0
  192.0690  177.8940  140.8940 O   0  0  0  0  0  0  0  0  0  0  0  0
  189.5150  175.1660  135.9090 C   0  0  0  0  0  2  0  0  0  0  0  0
  189.7220  176.7550  139.9860 C   0  0  1  0  0  3  0  0  0  0  0  0
  192.4430  176.0310  135.8330 C   0  0  0  0  0  3  0  0  0  0  0  0
  188.7840  177.8300  139.4180 C   0  0  2  0  0  3  0  0  0  0  0  0
  188.4660  179.3650  137.5750 O   0  0  0  0  0  1  0  0  0  0  0  0
  189.4310  178.7260  138.3560 C   0  0  0  0  0  2  0  0  0  0  0  0
  188.1060  178.6280  140.5290 C   0  0  0  0  0  2  0  0  0  0  0  0
  185.7250  179.0050  140.1090 N   0  0  0  0  0  0  0  0  0  0  0  0
  186.6930  178.1250  140.8030 C   0  0  2  0  0  3  0  0  0  0  0  0
  185.3180  179.0890  142.3830 C   0  0  0  0  0  0  0  0  0  0  0  0
  185.2860  178.7520  144.7530 C   0  0  0  0  0  3  0  0  0  0  0  0
  186.9030  177.5720  143.3540 C   0  0  0  0  0  3  0  0  0  0  0  0
  186.3590  177.8470  144.6220 C   0  0  0  0  0  3  0  0  0  0  0  0
  184.7480  179.3850  143.6190 C   0  0  0  0  0  3  0  0  0  0  0  0
  186.3560  178.2310  142.2510 C   0  0  0  0  0  0  0  0  0  0  0  0
  184.9250  179.5710  141.1240 N   0  0  0  0  0  0  0  0  0  0  0  0
  2  7  1  0  0  0  0
  2 14  1  0  0  0  0
  3 11  1  0  0  0  0
  4  3  1  0  0  0  0
  4 13  1  0  0  0  0
  5  9  1  0  0  0  0
  6  8  1  0  0  0  0
  7 12  1  0  0  0  0
  8  4  2  0  0  0  0
 10  8  1  0  0  0  0
 10  1  2  0  0  0  0
 11  9  1  0  0  0  0
 12 10  1  0  0  0  0
 13 15  1  6  0  0  0
 13  5  1  0  0  0  0
 14  6  2  0  0  0  0
 15 17  1  6  0  0  0
 15 18  1  0  0  0  0
 16 17  1  0  0  0  0
 19 20  1  0  0  0  0
 19 27  2  0  0  0  0
 20 18  1  1  0  0  0
 20 26  1  0  0  0  0
 21 25  1  0  0  0  0
 23 24  2  0  0  0  0
 24 22  1  0  0  0  0
 25 22  2  0  0  0  0
 26 21  2  0  0  0  0
 26 23  1  0  0  0  0
 27 21  1  0  0  0  0
M  END
>  <MODEL>
7

>  <REMARK>
 VINA RESULT:      -6.8      3.936      5.752
  Name = 
  4 active torsions:
  status: ('A' for Active; 'I' for Inactive)
    1  A    between atoms: C_2  and  C_14
    2  A    between atoms: C_2  and  C_20
    3  A    between atoms: C_2  and  C_26
    4  A    between atoms: C_5  and  C_20
                            x       y       z     vdW  Elec       q    Type
                         _______ _______ _______ _____ _____    ______ ____

>  <TORSDO>
F 4

$$$$
=
 OpenBabel11062414443D

 27 30  0  0  1  0  0  0  0  0999 V2000
  186.2300  178.6020  138.1080 O   0  0  0  0  0  0  0  0  0  0  0  0
  186.0710  174.9030  135.7810 N   0  0  0  0  0  2  0  0  0  0  0  0
  182.1510  177.9760  136.6800 C   0  0  0  0  0  2  0  0  0  0  0  0
  183.4930  178.0150  137.3900 C   0  0  0  0  0  0  0  0  0  0  0  0
  182.4320  179.7700  138.9490 C   0  0  0  0  0  2  0  0  0  0  0  0
  184.3920  176.6930  135.5510 C   0  0  0  0  0  3  0  0  0  0  0  0
  186.5320  175.2040  137.1240 C   0  0  0  0  0  2  0  0  0  0  0  0
  184.5820  177.4220  136.8330 C   0  0  0  0  0  0  0  0  0  0  0  0
  181.3870  179.7430  137.8360 C   0  0  0  0  0  2  0  0  0  0  0  0
  185.9490  177.5840  137.4210 C   0  0  0  0  0  0  0  0  0  0  0  0
  181.1000  178.4120  137.5060 O   0  0  0  0  0  0  0  0  0  0  0  0
  187.0580  176.6200  137.1590 C   0  0  0  0  0  2  0  0  0  0  0  0
  183.5580  178.7420  138.7220 C   0  0  1  0  0  3  0  0  0  0  0  0
  185.0490  175.6240  135.0840 C   0  0  0  0  0  3  0  0  0  0  0  0
  183.7180  177.7620  139.8940 C   0  0  2  0  0  3  0  0  0  0  0  0
  181.6440  176.5290  140.0600 O   0  0  0  0  0  1  0  0  0  0  0  0
  182.9880  176.4290  139.6970 C   0  0  0  0  0  2  0  0  0  0  0  0
  183.3850  178.4250  141.2290 C   0  0  0  0  0  2  0  0  0  0  0  0
  185.8290  178.5380  141.2480 N   0  0  0  0  0  0  0  0  0  0  0  0
  184.6000  179.1210  141.8310 C   0  0  2  0  0  3  0  0  0  0  0  0
  185.8450  178.1900  143.5340 C   0  0  0  0  0  0  0  0  0  0  0  0
  185.4000  178.1720  145.8860 C   0  0  0  0  0  3  0  0  0  0  0  0
  183.8450  179.2450  144.3360 C   0  0  0  0  0  3  0  0  0  0  0  0
  184.2070  178.8840  145.6470 C   0  0  0  0  0  3  0  0  0  0  0  0
  186.2410  177.8190  144.8170 C   0  0  0  0  0  3  0  0  0  0  0  0
  184.6950  178.8630  143.2960 C   0  0  0  0  0  0  0  0  0  0  0  0
  186.5390  177.9770  142.3310 N   0  0  0  0  0  0  0  0  0  0  0  0
  2  7  1  0  0  0  0
  3  4  1  0  0  0  0
  3 11  1  0  0  0  0
  4 13  1  0  0  0  0
  6  8  1  0  0  0  0
  7 12  1  0  0  0  0
  8  4  2  0  0  0  0
  8 10  1  0  0  0  0
  9  5  1  0  0  0  0
 10  1  2  0  0  0  0
 11  9  1  0  0  0  0
 12 10  1  0  0  0  0
 13  5  1  0  0  0  0
 13 15  1  1  0  0  0
 14  6  2  0  0  0  0
 14  2  1  0  0  0  0
 15 17  1  6  0  0  0
 15 18  1  0  0  0  0
 17 16  1  0  0  0  0
 19 20  1  0  0  0  0
 19 27  2  0  0  0  0
 20 18  1  6  0  0  0
 20 26  1  0  0  0  0
 21 25  1  0  0  0  0
 23 24  2  0  0  0  0
 24 22  1  0  0  0  0
 25 22  2  0  0  0  0
 26 21  2  0  0  0  0
 26 23  1  0  0  0  0
 27 21  1  0  0  0  0
M  END
>  <MODEL>
8

>  <REMARK>
 VINA RESULT:      -6.8      4.741      8.098
  Name = 
  4 active torsions:
  status: ('A' for Active; 'I' for Inactive)
    1  A    between atoms: C_2  and  C_14
    2  A    between atoms: C_2  and  C_20
    3  A    between atoms: C_2  and  C_26
    4  A    between atoms: C_5  and  C_20
                            x       y       z     vdW  Elec       q    Type
                         _______ _______ _______ _____ _____    ______ ____

>  <TORSDO>
F 4

$$$$
=
 OpenBabel11062414443D

 27 30  0  0  1  0  0  0  0  0999 V2000
  187.2660  179.7300  141.4160 O   0  0  0  0  0  0  0  0  0  0  0  0
  183.2670  177.9900  141.7360 N   0  0  0  0  0  2  0  0  0  0  0  0
  186.8940  177.6750  145.2510 C   0  0  0  0  0  2  0  0  0  0  0  0
  187.0850  178.1280  143.8140 C   0  0  0  0  0  0  0  0  0  0  0  0
  189.6100  178.1370  144.3250 C   0  0  0  0  0  2  0  0  0  0  0  0
  184.6740  178.4610  143.7040 C   0  0  0  0  0  3  0  0  0  0  0  0
  184.3140  177.8780  140.7380 C   0  0  0  0  0  2  0  0  0  0  0  0
  186.0200  178.5350  143.0760 C   0  0  0  0  0  0  0  0  0  0  0  0
  189.0570  178.0300  145.7440 C   0  0  0  0  0  2  0  0  0  0  0  0
  186.1930  179.1420  141.7180 C   0  0  0  0  0  0  0  0  0  0  0  0
  188.0470  177.0600  145.7720 O   0  0  0  0  0  0  0  0  0  0  0  0
  185.1010  179.1670  140.7020 C   0  0  0  0  0  2  0  0  0  0  0  0
  188.4990  178.1100  143.2570 C   0  0  1  0  0  3  0  0  0  0  0  0
  183.4850  178.2530  143.1270 C   0  0  0  0  0  3  0  0  0  0  0  0
  188.6870  176.9860  142.2280 C   0  0  2  0  0  3  0  0  0  0  0  0
  190.4200  175.4150  142.8430 O   0  0  0  0  0  1  0  0  0  0  0  0
  189.0400  175.6280  142.8430 C   0  0  0  0  0  2  0  0  0  0  0  0
  189.6500  177.3980  141.1170 C   0  0  0  0  0  2  0  0  0  0  0  0
  190.8970  176.1490  139.4220 N   0  0  0  0  0  0  0  0  0  0  0  0
  189.5370  176.4820  139.9040 C   0  0  2  0  0  3  0  0  0  0  0  0
  189.7560  177.2540  137.7420 C   0  0  0  0  0  0  0  0  0  0  0  0
  188.1290  178.3390  136.3610 C   0  0  0  0  0  3  0  0  0  0  0  0
  187.5680  177.6580  138.6390 C   0  0  0  0  0  3  0  0  0  0  0  0
  187.2000  178.2520  137.4180 C   0  0  0  0  0  3  0  0  0  0  0  0
  189.4310  177.8300  136.5160 C   0  0  0  0  0  3  0  0  0  0  0  0
  188.8730  177.1780  138.7650 C   0  0  0  0  0  0  0  0  0  0  0  0
  190.9730  176.6540  138.1070 N   0  0  0  0  0  0  0  0  0  0  0  0
  1 10  2  0  0  0  0
  2 14  1  0  0  0  0
  3 11  1  0  0  0  0
  4  3  1  0  0  0  0
  5  9  1  0  0  0  0
  7  2  1  0  0  0  0
  8  6  1  0  0  0  0
  8  4  2  0  0  0  0
  9 11  1  0  0  0  0
 10  8  1  0  0  0  0
 12  7  1  0  0  0  0
 12 10  1  0  0  0  0
 13 15  1  1  0  0  0
 13  4  1  0  0  0  0
 13  5  1  0  0  0  0
 14  6  2  0  0  0  0
 15 18  1  6  0  0  0
 15 17  1  0  0  0  0
 16 17  1  0  0  0  0
 19 20  1  0  0  0  0
 20 18  1  1  0  0  0
 21 27  1  0  0  0  0
 21 26  1  0  0  0  0
 22 25  1  0  0  0  0
 22 24  2  0  0  0  0
 23 26  2  0  0  0  0
 24 23  1  0  0  0  0
 25 21  2  0  0  0  0
 26 20  1  0  0  0  0
 27 19  2  0  0  0  0
M  END
>  <MODEL>
9

>  <REMARK>
 VINA RESULT:      -6.6      2.670      6.271
  Name = 
  4 active torsions:
  status: ('A' for Active; 'I' for Inactive)
    1  A    between atoms: C_2  and  C_14
    2  A    between atoms: C_2  and  C_20
    3  A    between atoms: C_2  and  C_26
    4  A    between atoms: C_5  and  C_20
                            x       y       z     vdW  Elec       q    Type
                         _______ _______ _______ _____ _____    ______ ____

>  <TORSDO>
F 4

$$$$
