=
 OpenBabel11062413333D

 28 31  0  0  1  0  0  0  0  0999 V2000
  188.4540  177.4420  139.0400 C   0  0  2  0  0  0  0  0  0  0  0  0
  187.3000  178.1400  137.7760 S   0  0  0  0  0  0  0  0  0  0  0  0
  190.7120  176.3900  139.1570 C   0  0  0  0  0  2  0  0  0  0  0  0
  191.6000  175.8410  136.8740 C   0  0  0  0  0  3  0  0  0  0  0  0
  189.0180  176.0120  137.0130 C   0  0  1  0  0  3  0  0  0  0  0  0
  189.9270  177.6400  138.7350 C   0  0  1  0  0  3  0  0  0  0  0  0
  190.2840  175.8570  136.2060 C   0  0  0  0  0  0  0  0  0  0  0  0
  188.9690  177.4500  137.5980 C   0  0  2  0  0  0  0  0  0  0  0  0
  191.8030  176.0750  138.1760 C   0  0  0  0  0  3  0  0  0  0  0  0
  190.2530  175.9830  134.9200 N   0  0  0  0  0  2  0  0  0  0  0  0
  187.9650  175.1960  134.9760 O   0  0  0  0  0  1  0  0  0  0  0  0
  187.7400  175.4620  136.3310 C   0  0  1  0  0  3  0  0  0  0  0  0
  188.1620  172.9880  136.7550 C   0  0  0  0  0  1  0  0  0  0  0  0
  187.2480  174.1820  137.0340 C   0  0  2  0  0  3  0  0  0  0  0  0
  185.7540  173.8670  136.8020 C   0  0  0  0  0  0  0  0  0  0  0  0
  184.9310  175.1440  136.8290 C   0  0  0  0  0  1  0  0  0  0  0  0
  185.5260  173.1690  135.4710 C   0  0  0  0  0  1  0  0  0  0  0  0
  185.2390  172.9700  137.9140 C   0  0  0  0  0  1  0  0  0  0  0  0
  188.3470  178.5650  140.0570 C   0  0  0  0  0  2  0  0  0  0  0  0
  187.9890  178.0120  141.4000 C   0  0  0  0  0  0  0  0  0  0  0  0
  185.7190  179.1190  141.3000 C   0  0  0  0  0  1  0  0  0  0  0  0
  187.4100  176.9860  143.9430 C   0  0  0  0  0  3  0  0  0  0  0  0
  186.4600  177.7640  143.2770 C   0  0  0  0  0  0  0  0  0  0  0  0
  188.9330  177.2340  142.0800 C   0  0  0  0  0  3  0  0  0  0  0  0
  189.5620  175.9670  143.9960 F   0  0  0  0  0  0  0  0  0  0  0  0
  186.7430  178.2860  142.0030 C   0  0  0  0  0  0  0  0  0  0  0  0
  185.2390  178.0170  143.8900 O   0  0  0  0  0  1  0  0  0  0  0  0
  188.6440  176.7210  143.3460 C   0  0  0  0  0  0  0  0  0  0  0  0
  1 19  1  1  0  0  0
  2  1  1  0  0  0  0
  4  9  2  0  0  0  0
  5 12  1  6  0  0  0
  5  8  1  0  0  0  0
  6  1  1  0  0  0  0
  6  3  1  1  0  0  0
  7  4  1  0  0  0  0
  7  5  1  0  0  0  0
  8  2  1  6  0  0  0
  8  6  1  0  0  0  0
  8  1  1  0  0  0  0
  9  3  1  0  0  0  0
 10  7  2  0  0  0  0
 12 11  1  6  0  0  0
 12 14  1  0  0  0  0
 14 13  1  6  0  0  0
 15 16  1  0  0  0  0
 15 14  1  0  0  0  0
 15 18  1  0  0  0  0
 17 15  1  0  0  0  0
 19 20  1  0  0  0  0
 20 26  2  0  0  0  0
 20 24  1  0  0  0  0
 21 26  1  0  0  0  0
 23 27  1  0  0  0  0
 23 22  2  0  0  0  0
 24 28  2  0  0  0  0
 26 23  1  0  0  0  0
 28 22  1  0  0  0  0
 28 25  1  0  0  0  0
M  END
>  <MODEL>
1

>  <REMARK>
 VINA RESULT:      -6.6      0.000      0.000
  Name = 
  5 active torsions:
  status: ('A' for Active; 'I' for Inactive)
    1  A    between atoms: C_1  and  C_11
    2  A    between atoms: C_2  and  C_11
    3  A    between atoms: C_3  and  C_28
    4  A    between atoms: C_12  and  C_24
    5  A    between atoms: C_24  and  C_28
                            x       y       z     vdW  Elec       q    Type
                         _______ _______ _______ _____ _____    ______ ____

>  <TORSDO>
F 5

$$$$
=
 OpenBabel11062413333D

 28 31  0  0  1  0  0  0  0  0999 V2000
  182.3000  178.2150  139.6580 C   0  0  2  0  0  0  0  0  0  0  0  0
  182.2120  176.3710  139.5780 S   0  0  0  0  0  0  0  0  0  0  0  0
  181.6890  180.1960  138.2720 C   0  0  0  0  0  2  0  0  0  0  0  0
  181.0070  179.5290  135.9500 C   0  0  0  0  0  3  0  0  0  0  0  0
  182.5350  177.8190  137.1570 C   0  0  1  0  0  3  0  0  0  0  0  0
  181.1570  178.9370  138.9710 C   0  0  1  0  0  3  0  0  0  0  0  0
  181.6670  178.2090  135.9860 C   0  0  0  0  0  0  0  0  0  0  0  0
  181.6340  177.6330  138.4090 C   0  0  2  0  0  0  0  0  0  0  0  0
  181.0090  180.4150  136.9530 C   0  0  0  0  0  3  0  0  0  0  0  0
  181.2930  177.3160  135.1280 N   0  0  0  0  0  2  0  0  0  0  0  0
  183.0080  175.6370  136.1850 O   0  0  0  0  0  1  0  0  0  0  0  0
  183.5870  176.7240  136.8500 C   0  0  1  0  0  3  0  0  0  0  0  0
  184.8580  176.5910  134.6500 C   0  0  0  0  0  1  0  0  0  0  0  0
  184.7430  177.2920  136.0040 C   0  0  2  0  0  3  0  0  0  0  0  0
  186.0900  177.3850  136.7540 C   0  0  0  0  0  0  0  0  0  0  0  0
  185.9100  178.0960  138.0840 C   0  0  0  0  0  1  0  0  0  0  0  0
  186.6870  176.0110  137.0130 C   0  0  0  0  0  1  0  0  0  0  0  0
  187.0780  178.1960  135.9340 C   0  0  0  0  0  1  0  0  0  0  0  0
  181.7700  178.3830  141.0720 C   0  0  0  0  0  2  0  0  0  0  0  0
  182.8980  178.6600  142.0160 C   0  0  0  0  0  0  0  0  0  0  0  0
  181.3140  178.6310  143.9850 C   0  0  0  0  0  1  0  0  0  0  0  0
  185.0500  179.2310  143.7170 C   0  0  0  0  0  3  0  0  0  0  0  0
  183.7680  179.0760  144.2490 C   0  0  0  0  0  0  0  0  0  0  0  0
  184.1860  178.8210  141.4950 C   0  0  0  0  0  3  0  0  0  0  0  0
  186.5040  179.2560  141.8300 F   0  0  0  0  0  0  0  0  0  0  0  0
  182.6820  178.7930  143.4040 C   0  0  0  0  0  0  0  0  0  0  0  0
  183.5810  179.2080  145.6210 O   0  0  0  0  0  1  0  0  0  0  0  0
  185.2600  179.1030  142.3430 C   0  0  0  0  0  0  0  0  0  0  0  0
  1 19  1  6  0  0  0
  2  1  1  0  0  0  0
  4  7  1  0  0  0  0
  4  9  2  0  0  0  0
  5 12  1  6  0  0  0
  5  8  1  0  0  0  0
  6  3  1  6  0  0  0
  6  1  1  0  0  0  0
  7  5  1  0  0  0  0
  8  6  1  0  0  0  0
  8  2  1  1  0  0  0
  8  1  1  0  0  0  0
  9  3  1  0  0  0  0
 10  7  2  0  0  0  0
 12 11  1  6  0  0  0
 14 13  1  6  0  0  0
 14 15  1  0  0  0  0
 14 12  1  0  0  0  0
 15 17  1  0  0  0  0
 15 16  1  0  0  0  0
 18 15  1  0  0  0  0
 19 20  1  0  0  0  0
 20 26  1  0  0  0  0
 22 23  1  0  0  0  0
 23 27  1  0  0  0  0
 24 20  2  0  0  0  0
 24 28  1  0  0  0  0
 25 28  1  0  0  0  0
 26 21  1  0  0  0  0
 26 23  2  0  0  0  0
 28 22  2  0  0  0  0
M  END
>  <MODEL>
2

>  <REMARK>
 VINA RESULT:      -6.5      4.205      6.395
  Name = 
  5 active torsions:
  status: ('A' for Active; 'I' for Inactive)
    1  A    between atoms: C_1  and  C_11
    2  A    between atoms: C_2  and  C_11
    3  A    between atoms: C_3  and  C_28
    4  A    between atoms: C_12  and  C_24
    5  A    between atoms: C_24  and  C_28
                            x       y       z     vdW  Elec       q    Type
                         _______ _______ _______ _____ _____    ______ ____

>  <TORSDO>
F 5

$$$$
=
 OpenBabel11062413333D

 28 31  0  0  1  0  0  0  0  0999 V2000
  188.5790  177.5090  139.0620 C   0  0  2  0  0  0  0  0  0  0  0  0
  187.4630  178.3480  137.8500 S   0  0  0  0  0  0  0  0  0  0  0  0
  190.6710  176.1530  139.0740 C   0  0  0  0  0  2  0  0  0  0  0  0
  191.3430  175.4610  136.7570 C   0  0  0  0  0  3  0  0  0  0  0  0
  188.8220  175.9930  137.0340 C   0  0  1  0  0  3  0  0  0  0  0  0
  190.0450  177.4950  138.6730 C   0  0  1  0  0  3  0  0  0  0  0  0
  190.0060  175.6530  136.1620 C   0  0  0  0  0  0  0  0  0  0  0  0
  189.0080  177.4300  137.5940 C   0  0  2  0  0  0  0  0  0  0  0  0
  191.6500  175.6780  138.0410 C   0  0  0  0  0  3  0  0  0  0  0  0
  189.9210  175.7680  134.8770 N   0  0  0  0  0  2  0  0  0  0  0  0
  187.4650  175.6900  135.0360 O   0  0  0  0  0  1  0  0  0  0  0  0
  187.4440  175.6190  136.4330 C   0  0  1  0  0  3  0  0  0  0  0  0
  187.7890  173.1160  136.1300 C   0  0  0  0  0  1  0  0  0  0  0  0
  187.0150  174.2060  136.8730 C   0  0  2  0  0  3  0  0  0  0  0  0
  185.4880  173.9760  136.8660 C   0  0  0  0  0  0  0  0  0  0  0  0
  184.7550  175.2620  137.2120 C   0  0  0  0  0  1  0  0  0  0  0  0
  184.9990  173.4870  135.5120 C   0  0  0  0  0  1  0  0  0  0  0  0
  185.1190  172.9440  137.9160 C   0  0  0  0  0  1  0  0  0  0  0  0
  188.6870  178.6470  140.0620 C   0  0  0  0  0  2  0  0  0  0  0  0
  188.0750  178.2460  141.3670 C   0  0  0  0  0  0  0  0  0  0  0  0
  190.3400  177.5880  142.2760 C   0  0  0  0  0  1  0  0  0  0  0  0
  186.8520  177.4670  143.7650 C   0  0  0  0  0  3  0  0  0  0  0  0
  188.2370  177.3430  143.6200 C   0  0  0  0  0  0  0  0  0  0  0  0
  186.6900  178.3620  141.5240 C   0  0  0  0  0  3  0  0  0  0  0  0
  184.7390  178.0940  142.8640 F   0  0  0  0  0  0  0  0  0  0  0  0
  188.8570  177.7270  142.4200 C   0  0  0  0  0  0  0  0  0  0  0  0
  188.9860  176.8320  144.6740 O   0  0  0  0  0  1  0  0  0  0  0  0
  186.0800  177.9760  142.7200 C   0  0  0  0  0  0  0  0  0  0  0  0
  1 19  1  1  0  0  0
  2  1  1  0  0  0  0
  4  9  2  0  0  0  0
  5 12  1  6  0  0  0
  5  8  1  0  0  0  0
  6  1  1  0  0  0  0
  6  3  1  1  0  0  0
  7  4  1  0  0  0  0
  7  5  1  0  0  0  0
  8  2  1  6  0  0  0
  8  6  1  0  0  0  0
  8  1  1  0  0  0  0
  9  3  1  0  0  0  0
 10  7  2  0  0  0  0
 12 11  1  6  0  0  0
 12 14  1  0  0  0  0
 14 13  1  6  0  0  0
 15 14  1  0  0  0  0
 15 16  1  0  0  0  0
 15 18  1  0  0  0  0
 17 15  1  0  0  0  0
 19 20  1  0  0  0  0
 20 24  2  0  0  0  0
 20 26  1  0  0  0  0
 21 26  1  0  0  0  0
 23 22  1  0  0  0  0
 23 27  1  0  0  0  0
 24 28  1  0  0  0  0
 26 23  2  0  0  0  0
 28 25  1  0  0  0  0
 28 22  2  0  0  0  0
M  END
>  <MODEL>
3

>  <REMARK>
 VINA RESULT:      -6.3      1.370      1.861
  Name = 
  5 active torsions:
  status: ('A' for Active; 'I' for Inactive)
    1  A    between atoms: C_1  and  C_11
    2  A    between atoms: C_2  and  C_11
    3  A    between atoms: C_3  and  C_28
    4  A    between atoms: C_12  and  C_24
    5  A    between atoms: C_24  and  C_28
                            x       y       z     vdW  Elec       q    Type
                         _______ _______ _______ _____ _____    ______ ____

>  <TORSDO>
F 5

$$$$
=
 OpenBabel11062413333D

 28 31  0  0  1  0  0  0  0  0999 V2000
  185.7370  178.3090  141.9950 C   0  0  2  0  0  0  0  0  0  0  0  0
  187.5140  178.6310  141.5990 S   0  0  0  0  0  0  0  0  0  0  0  0
  184.2080  178.3390  143.9640 C   0  0  0  0  0  2  0  0  0  0  0  0
  185.4700  178.6070  146.1170 C   0  0  0  0  0  3  0  0  0  0  0  0
  186.8610  177.6150  144.1680 C   0  0  1  0  0  3  0  0  0  0  0  0
  185.1660  179.1730  143.1030 C   0  0  1  0  0  3  0  0  0  0  0  0
  186.7670  178.1570  145.5740 C   0  0  0  0  0  0  0  0  0  0  0  0
  186.6080  178.7740  143.1660 C   0  0  2  0  0  0  0  0  0  0  0  0
  184.3330  178.6920  145.4160 C   0  0  0  0  0  3  0  0  0  0  0  0
  187.8410  178.4640  146.2250 N   0  0  0  0  0  2  0  0  0  0  0  0
  187.6870  175.5380  143.2030 O   0  0  0  0  0  1  0  0  0  0  0  0
  188.0710  176.6820  143.9120 C   0  0  1  0  0  3  0  0  0  0  0  0
  189.4600  176.7740  141.7810 C   0  0  0  0  0  1  0  0  0  0  0  0
  189.1820  177.4200  143.1400 C   0  0  2  0  0  3  0  0  0  0  0  0
  190.4650  177.6730  143.9620 C   0  0  0  0  0  0  0  0  0  0  0  0
  190.6780  179.1630  144.1690 C   0  0  0  0  0  1  0  0  0  0  0  0
  190.4040  176.9970  145.3220 C   0  0  0  0  0  1  0  0  0  0  0  0
  191.6710  177.1400  143.2090 C   0  0  0  0  0  1  0  0  0  0  0  0
  185.1280  179.0930  140.8460 C   0  0  0  0  0  2  0  0  0  0  0  0
  184.2710  178.1980  140.0080 C   0  0  0  0  0  0  0  0  0  0  0  0
  185.9210  178.3370  138.0980 C   0  0  0  0  0  1  0  0  0  0  0  0
  182.5900  176.5600  138.4770 C   0  0  0  0  0  3  0  0  0  0  0  0
  183.7920  177.0210  137.9330 C   0  0  0  0  0  0  0  0  0  0  0  0
  183.0640  177.7310  140.5390 C   0  0  0  0  0  3  0  0  0  0  0  0
  181.0610  176.4640  140.3000 F   0  0  0  0  0  0  0  0  0  0  0  0
  184.6380  177.8470  138.6910 C   0  0  0  0  0  0  0  0  0  0  0  0
  184.1330  176.6580  136.6350 O   0  0  0  0  0  1  0  0  0  0  0  0
  182.2270  176.9130  139.7770 C   0  0  0  0  0  0  0  0  0  0  0  0
  1 19  1  1  0  0  0
  1  6  1  0  0  0  0
  1  8  1  0  0  0  0
  2  1  1  0  0  0  0
  3  9  1  0  0  0  0
  5 12  1  6  0  0  0
  5  7  1  0  0  0  0
  6  8  1  0  0  0  0
  6  3  1  1  0  0  0
  7  4  1  0  0  0  0
  7 10  2  0  0  0  0
  8  2  1  6  0  0  0
  8  5  1  0  0  0  0
  9  4  2  0  0  0  0
 12 11  1  6  0  0  0
 14 13  1  6  0  0  0
 14 12  1  0  0  0  0
 14 15  1  0  0  0  0
 15 16  1  0  0  0  0
 15 17  1  0  0  0  0
 18 15  1  0  0  0  0
 20 24  1  0  0  0  0
 20 19  1  0  0  0  0
 21 26  1  0  0  0  0
 22 28  1  0  0  0  0
 23 22  2  0  0  0  0
 23 26  1  0  0  0  0
 26 20  2  0  0  0  0
 27 23  1  0  0  0  0
 28 25  1  0  0  0  0
 28 24  2  0  0  0  0
M  END
>  <MODEL>
4

>  <REMARK>
 VINA RESULT:      -6.1      4.445      7.887
  Name = 
  5 active torsions:
  status: ('A' for Active; 'I' for Inactive)
    1  A    between atoms: C_1  and  C_11
    2  A    between atoms: C_2  and  C_11
    3  A    between atoms: C_3  and  C_28
    4  A    between atoms: C_12  and  C_24
    5  A    between atoms: C_24  and  C_28
                            x       y       z     vdW  Elec       q    Type
                         _______ _______ _______ _____ _____    ______ ____

>  <TORSDO>
F 5

$$$$
=
 OpenBabel11062413333D

 28 31  0  0  1  0  0  0  0  0999 V2000
  185.4830  178.3900  142.9510 C   0  0  2  0  0  0  0  0  0  0  0  0
  187.0740  178.8000  142.1040 S   0  0  0  0  0  0  0  0  0  0  0  0
  184.5820  178.1580  145.2640 C   0  0  0  0  0  2  0  0  0  0  0  0
  186.4110  178.2130  146.9830 C   0  0  0  0  0  3  0  0  0  0  0  0
  187.1770  177.4840  144.6170 C   0  0  1  0  0  3  0  0  0  0  0  0
  185.2590  179.1080  144.2680 C   0  0  1  0  0  3  0  0  0  0  0  0
  187.4940  177.8620  146.0440 C   0  0  0  0  0  0  0  0  0  0  0  0
  186.6560  178.7420  143.8700 C   0  0  2  0  0  0  0  0  0  0  0  0
  185.1210  178.3480  146.6510 C   0  0  0  0  0  3  0  0  0  0  0  0
  188.7120  178.1200  146.3920 N   0  0  0  0  0  2  0  0  0  0  0  0
  187.6740  175.5710  143.1960 O   0  0  0  0  0  1  0  0  0  0  0  0
  188.2560  176.6180  143.9190 C   0  0  1  0  0  3  0  0  0  0  0  0
  189.0360  177.0020  141.5280 C   0  0  0  0  0  1  0  0  0  0  0  0
  189.1270  177.4730  142.9800 C   0  0  2  0  0  3  0  0  0  0  0  0
  190.5810  177.6640  143.4640 C   0  0  0  0  0  0  0  0  0  0  0  0
  190.7880  179.0780  143.9800 C   0  0  0  0  0  1  0  0  0  0  0  0
  190.9400  176.6850  144.5700 C   0  0  0  0  0  1  0  0  0  0  0  0
  191.5400  177.4580  142.3040 C   0  0  0  0  0  1  0  0  0  0  0  0
  184.5750  179.2830  142.1230 C   0  0  0  0  0  2  0  0  0  0  0  0
  183.5240  178.4620  141.4440 C   0  0  0  0  0  0  0  0  0  0  0  0
  181.7640  179.3130  143.0470 C   0  0  0  0  0  1  0  0  0  0  0  0
  181.6200  176.8590  140.1560 C   0  0  0  0  0  3  0  0  0  0  0  0
  181.2370  177.6590  141.2360 C   0  0  0  0  0  0  0  0  0  0  0  0
  183.8950  177.6550  140.3640 C   0  0  0  0  0  3  0  0  0  0  0  0
  183.3140  176.0800  138.6730 F   0  0  0  0  0  0  0  0  0  0  0  0
  182.1850  178.4620  141.8900 C   0  0  0  0  0  0  0  0  0  0  0  0
  179.9110  177.6440  141.6550 O   0  0  0  0  0  1  0  0  0  0  0  0
  182.9460  176.8570  139.7200 C   0  0  0  0  0  0  0  0  0  0  0  0
  1 19  1  6  0  0  0
  1  8  1  0  0  0  0
  1  6  1  0  0  0  0
  2  1  1  0  0  0  0
  3  9  1  0  0  0  0
  5 12  1  6  0  0  0
  5  7  1  0  0  0  0
  6  3  1  1  0  0  0
  7 10  2  0  0  0  0
  7  4  1  0  0  0  0
  8  2  1  6  0  0  0
  8  6  1  0  0  0  0
  8  5  1  0  0  0  0
  9  4  2  0  0  0  0
 12 11  1  6  0  0  0
 14 13  1  6  0  0  0
 14 15  1  0  0  0  0
 14 12  1  0  0  0  0
 15 16  1  0  0  0  0
 15 17  1  0  0  0  0
 18 15  1  0  0  0  0
 20 26  1  0  0  0  0
 20 19  1  0  0  0  0
 22 23  1  0  0  0  0
 23 27  1  0  0  0  0
 23 26  2  0  0  0  0
 24 20  2  0  0  0  0
 25 28  1  0  0  0  0
 26 21  1  0  0  0  0
 28 22  2  0  0  0  0
 28 24  1  0  0  0  0
M  END
>  <MODEL>
5

>  <REMARK>
 VINA RESULT:      -6.1      4.877      7.852
  Name = 
  5 active torsions:
  status: ('A' for Active; 'I' for Inactive)
    1  A    between atoms: C_1  and  C_11
    2  A    between atoms: C_2  and  C_11
    3  A    between atoms: C_3  and  C_28
    4  A    between atoms: C_12  and  C_24
    5  A    between atoms: C_24  and  C_28
                            x       y       z     vdW  Elec       q    Type
                         _______ _______ _______ _____ _____    ______ ____

>  <TORSDO>
F 5

$$$$
=
 OpenBabel11062413333D

 28 31  0  0  1  0  0  0  0  0999 V2000
  186.8330  177.7980  142.3120 C   0  0  2  0  0  0  0  0  0  0  0  0
  186.9770  179.3890  141.3820 S   0  0  0  0  0  0  0  0  0  0  0  0
  188.3060  176.0020  143.2190 C   0  0  0  0  0  2  0  0  0  0  0  0
  190.6700  176.2420  142.4080 C   0  0  0  0  0  3  0  0  0  0  0  0
  188.8900  177.3510  140.8850 C   0  0  1  0  0  3  0  0  0  0  0  0
  187.9870  177.5030  143.2510 C   0  0  1  0  0  3  0  0  0  0  0  0
  190.3320  177.0850  141.2440 C   0  0  0  0  0  0  0  0  0  0  0  0
  188.2580  178.2510  141.9820 C   0  0  2  0  0  0  0  0  0  0  0  0
  189.7850  175.7580  143.2870 C   0  0  0  0  0  3  0  0  0  0  0  0
  191.2760  177.7800  140.6980 N   0  0  0  0  0  2  0  0  0  0  0  0
  189.6240  178.6280  138.9460 O   0  0  0  0  0  1  0  0  0  0  0  0
  188.6490  177.7340  139.4030 C   0  0  1  0  0  3  0  0  0  0  0  0
  190.0280  176.1470  137.9690 C   0  0  0  0  0  1  0  0  0  0  0  0
  188.6350  176.4820  138.5050 C   0  0  2  0  0  3  0  0  0  0  0  0
  187.5520  176.5030  137.4050 C   0  0  0  0  0  0  0  0  0  0  0  0
  188.1500  176.9440  136.0790 C   0  0  0  0  0  1  0  0  0  0  0  0
  186.9100  175.1380  137.2190 C   0  0  0  0  0  1  0  0  0  0  0  0
  186.4690  177.5020  137.7700 C   0  0  0  0  0  1  0  0  0  0  0  0
  185.8690  178.2750  143.3840 C   0  0  0  0  0  2  0  0  0  0  0  0
  184.4900  178.4050  142.8180 C   0  0  0  0  0  0  0  0  0  0  0  0
  183.5660  179.0030  145.0930 C   0  0  0  0  0  1  0  0  0  0  0  0
  181.9280  178.5790  141.6970 C   0  0  0  0  0  3  0  0  0  0  0  0
  182.1070  178.8260  143.0610 C   0  0  0  0  0  0  0  0  0  0  0  0
  184.2970  178.1570  141.4550 C   0  0  0  0  0  3  0  0  0  0  0  0
  182.8430  178.0060  139.5740 F   0  0  0  0  0  0  0  0  0  0  0  0
  183.3870  178.7380  143.6320 C   0  0  0  0  0  0  0  0  0  0  0  0
  181.0040  179.1560  143.8410 O   0  0  0  0  0  1  0  0  0  0  0  0
  183.0210  178.2460  140.8950 C   0  0  0  0  0  0  0  0  0  0  0  0
  1  6  1  0  0  0  0
  1 19  1  6  0  0  0
  2  1  1  0  0  0  0
  3  9  1  0  0  0  0
  4  9  2  0  0  0  0
  5 12  1  6  0  0  0
  5  7  1  0  0  0  0
  5  8  1  0  0  0  0
  6  3  1  6  0  0  0
  7  4  1  0  0  0  0
  8  2  1  1  0  0  0
  8  1  1  0  0  0  0
  8  6  1  0  0  0  0
 10  7  2  0  0  0  0
 12 11  1  6  0  0  0
 14 13  1  6  0  0  0
 14 12  1  0  0  0  0
 15 18  1  0  0  0  0
 15 14  1  0  0  0  0
 16 15  1  0  0  0  0
 17 15  1  0  0  0  0
 20 19  1  0  0  0  0
 20 26  1  0  0  0  0
 22 23  1  0  0  0  0
 23 26  2  0  0  0  0
 23 27  1  0  0  0  0
 24 20  2  0  0  0  0
 25 28  1  0  0  0  0
 26 21  1  0  0  0  0
 28 24  1  0  0  0  0
 28 22  2  0  0  0  0
M  END
>  <MODEL>
6

>  <REMARK>
 VINA RESULT:      -6.0      3.102      4.771
  Name = 
  5 active torsions:
  status: ('A' for Active; 'I' for Inactive)
    1  A    between atoms: C_1  and  C_11
    2  A    between atoms: C_2  and  C_11
    3  A    between atoms: C_3  and  C_28
    4  A    between atoms: C_12  and  C_24
    5  A    between atoms: C_24  and  C_28
                            x       y       z     vdW  Elec       q    Type
                         _______ _______ _______ _____ _____    ______ ____

>  <TORSDO>
F 5

$$$$
=
 OpenBabel11062413333D

 28 31  0  0  1  0  0  0  0  0999 V2000
  188.7200  177.7370  142.7650 C   0  0  2  0  0  0  0  0  0  0  0  0
  188.2340  176.0230  143.2590 S   0  0  0  0  0  0  0  0  0  0  0  0
  190.5500  179.3760  143.1910 C   0  0  0  0  0  2  0  0  0  0  0  0
  192.0550  178.6240  145.0540 C   0  0  0  0  0  3  0  0  0  0  0  0
  189.6700  177.6140  145.1210 C   0  0  1  0  0  3  0  0  0  0  0  0
  190.2150  177.9720  142.6690 C   0  0  1  0  0  3  0  0  0  0  0  0
  191.0830  177.6850  145.6470 C   0  0  0  0  0  0  0  0  0  0  0  0
  189.6970  177.0070  143.6920 C   0  0  2  0  0  0  0  0  0  0  0  0
  191.8330  179.3760  143.9690 C   0  0  0  0  0  3  0  0  0  0  0  0
  191.5270  176.7680  146.4430 N   0  0  0  0  0  2  0  0  0  0  0  0
  189.2540  176.3730  147.1740 O   0  0  0  0  0  1  0  0  0  0  0  0
  188.6300  177.0600  146.1270 C   0  0  1  0  0  3  0  0  0  0  0  0
  187.8680  178.2860  148.2220 C   0  0  0  0  0  1  0  0  0  0  0  0
  187.7570  178.1930  146.7000 C   0  0  2  0  0  3  0  0  0  0  0  0
  186.2970  178.1840  146.1980 C   0  0  0  0  0  0  0  0  0  0  0  0
  186.0240  176.9330  145.3800 C   0  0  0  0  0  1  0  0  0  0  0  0
  185.3050  178.2370  147.3500 C   0  0  0  0  0  1  0  0  0  0  0  0
  186.0560  179.3800  145.2950 C   0  0  0  0  0  1  0  0  0  0  0  0
  188.4820  177.5940  141.2720 C   0  0  0  0  0  2  0  0  0  0  0  0
  187.1230  178.1090  140.9150 C   0  0  0  0  0  0  0  0  0  0  0  0
  187.6290  177.8570  138.4510 C   0  0  0  0  0  1  0  0  0  0  0  0
  184.5830  179.1320  140.3200 C   0  0  0  0  0  3  0  0  0  0  0  0
  185.4410  178.7600  139.2820 C   0  0  0  0  0  0  0  0  0  0  0  0
  186.2550  178.4890  141.9440 C   0  0  0  0  0  3  0  0  0  0  0  0
  184.1540  179.3590  142.6520 F   0  0  0  0  0  0  0  0  0  0  0  0
  186.7180  178.2500  139.5710 C   0  0  0  0  0  0  0  0  0  0  0  0
  185.0180  178.9050  137.9660 O   0  0  0  0  0  1  0  0  0  0  0  0
  184.9890  178.9960  141.6490 C   0  0  0  0  0  0  0  0  0  0  0  0
  1 19  1  1  0  0  0
  1  2  1  0  0  0  0
  1  8  1  0  0  0  0
  3  9  1  0  0  0  0
  4  7  1  0  0  0  0
  5  7  1  0  0  0  0
  5 12  1  1  0  0  0
  6  1  1  0  0  0  0
  6  3  1  1  0  0  0
  6  8  1  0  0  0  0
  7 10  2  0  0  0  0
  8  2  1  6  0  0  0
  8  5  1  0  0  0  0
  9  4  2  0  0  0  0
 12 14  1  0  0  0  0
 12 11  1  1  0  0  0
 14 13  1  1  0  0  0
 15 14  1  0  0  0  0
 15 17  1  0  0  0  0
 16 15  1  0  0  0  0
 18 15  1  0  0  0  0
 20 19  1  0  0  0  0
 20 24  1  0  0  0  0
 21 26  1  0  0  0  0
 22 28  1  0  0  0  0
 23 26  1  0  0  0  0
 23 22  2  0  0  0  0
 26 20  2  0  0  0  0
 27 23  1  0  0  0  0
 28 24  2  0  0  0  0
 28 25  1  0  0  0  0
M  END
>  <MODEL>
7

>  <REMARK>
 VINA RESULT:      -5.7      4.351      7.764
  Name = 
  5 active torsions:
  status: ('A' for Active; 'I' for Inactive)
    1  A    between atoms: C_1  and  C_11
    2  A    between atoms: C_2  and  C_11
    3  A    between atoms: C_3  and  C_28
    4  A    between atoms: C_12  and  C_24
    5  A    between atoms: C_24  and  C_28
                            x       y       z     vdW  Elec       q    Type
                         _______ _______ _______ _____ _____    ______ ____

>  <TORSDO>
F 5

$$$$
=
 OpenBabel11062413333D

 28 31  0  0  1  0  0  0  0  0999 V2000
  185.8940  178.4590  142.4770 C   0  0  2  0  0  0  0  0  0  0  0  0
  187.6090  178.8220  141.8910 S   0  0  0  0  0  0  0  0  0  0  0  0
  184.6370  178.2530  144.6200 C   0  0  0  0  0  2  0  0  0  0  0  0
  186.1760  178.2560  146.6030 C   0  0  0  0  0  3  0  0  0  0  0  0
  187.2810  177.5040  144.3830 C   0  0  1  0  0  3  0  0  0  0  0  0
  185.4890  179.1840  143.7460 C   0  0  1  0  0  3  0  0  0  0  0  0
  187.3820  177.8730  145.8430 C   0  0  0  0  0  0  0  0  0  0  0  0
  186.9200  178.7770  143.5690 C   0  0  2  0  0  0  0  0  0  0  0  0
  184.9580  178.4280  146.0760 C   0  0  0  0  0  3  0  0  0  0  0  0
  188.5380  178.0960  146.3790 N   0  0  0  0  0  2  0  0  0  0  0  0
  187.9300  175.4710  143.2110 O   0  0  0  0  0  1  0  0  0  0  0  0
  188.4300  176.6070  143.8590 C   0  0  1  0  0  3  0  0  0  0  0  0
  189.3920  176.7520  141.5070 C   0  0  0  0  0  1  0  0  0  0  0  0
  189.3450  177.3890  142.8970 C   0  0  2  0  0  3  0  0  0  0  0  0
  190.7470  177.6990  143.4680 C   0  0  0  0  0  0  0  0  0  0  0  0
  191.8120  177.4870  142.4050 C   0  0  0  0  0  1  0  0  0  0  0  0
  190.8450  179.1280  143.9770 C   0  0  0  0  0  1  0  0  0  0  0  0
  191.0540  176.7530  144.6150 C   0  0  0  0  0  1  0  0  0  0  0  0
  185.1530  179.3780  141.5220 C   0  0  0  0  0  2  0  0  0  0  0  0
  184.3780  178.5710  140.5270 C   0  0  0  0  0  0  0  0  0  0  0  0
  182.3330  178.6280  142.0110 C   0  0  0  0  0  1  0  0  0  0  0  0
  183.0070  177.0150  138.6440 C   0  0  0  0  0  3  0  0  0  0  0  0
  182.3570  177.4220  139.8120 C   0  0  0  0  0  0  0  0  0  0  0  0
  185.0180  178.1540  139.3550 C   0  0  0  0  0  3  0  0  0  0  0  0
  184.9600  176.9830  137.2820 F   0  0  0  0  0  0  0  0  0  0  0  0
  183.0380  178.1990  140.7640 C   0  0  0  0  0  0  0  0  0  0  0  0
  181.0350  177.0460  140.0200 O   0  0  0  0  0  1  0  0  0  0  0  0
  184.3340  177.3810  138.4150 C   0  0  0  0  0  0  0  0  0  0  0  0
  1 19  1  6  0  0  0
  1  8  1  0  0  0  0
  1  6  1  0  0  0  0
  2  1  1  0  0  0  0
  3  9  1  0  0  0  0
  5 12  1  6  0  0  0
  5  7  1  0  0  0  0
  6  3  1  1  0  0  0
  7 10  2  0  0  0  0
  7  4  1  0  0  0  0
  8  2  1  6  0  0  0
  8  6  1  0  0  0  0
  8  5  1  0  0  0  0
  9  4  2  0  0  0  0
 12 11  1  6  0  0  0
 14 13  1  6  0  0  0
 14 15  1  0  0  0  0
 14 12  1  0  0  0  0
 15 17  1  0  0  0  0
 15 18  1  0  0  0  0
 16 15  1  0  0  0  0
 20 26  1  0  0  0  0
 20 19  1  0  0  0  0
 22 23  1  0  0  0  0
 23 27  1  0  0  0  0
 23 26  2  0  0  0  0
 24 20  2  0  0  0  0
 25 28  1  0  0  0  0
 26 21  1  0  0  0  0
 28 22  2  0  0  0  0
 28 24  1  0  0  0  0
M  END
>  <MODEL>
8

>  <REMARK>
 VINA RESULT:      -5.7      4.647      7.686
  Name = 
  5 active torsions:
  status: ('A' for Active; 'I' for Inactive)
    1  A    between atoms: C_1  and  C_11
    2  A    between atoms: C_2  and  C_11
    3  A    between atoms: C_3  and  C_28
    4  A    between atoms: C_12  and  C_24
    5  A    between atoms: C_24  and  C_28
                            x       y       z     vdW  Elec       q    Type
                         _______ _______ _______ _____ _____    ______ ____

>  <TORSDO>
F 5

$$$$
=
 OpenBabel11062413333D

 28 31  0  0  1  0  0  0  0  0999 V2000
  187.9870  177.9870  141.4440 C   0  0  2  0  0  0  0  0  0  0  0  0
  189.4680  178.5380  142.4020 S   0  0  0  0  0  0  0  0  0  0  0  0
  185.5060  177.9110  141.6830 C   0  0  0  0  0  2  0  0  0  0  0  0
  184.7800  178.4850  144.0160 C   0  0  0  0  0  3  0  0  0  0  0  0
  187.2060  177.5920  143.8320 C   0  0  1  0  0  3  0  0  0  0  0  0
  186.7400  178.8230  141.6630 C   0  0  1  0  0  3  0  0  0  0  0  0
  186.0850  178.1970  144.6420 C   0  0  0  0  0  0  0  0  0  0  0  0
  187.7000  178.6410  142.7990 C   0  0  2  0  0  0  0  0  0  0  0  0
  184.5110  178.3640  142.7110 C   0  0  0  0  0  3  0  0  0  0  0  0
  186.3250  178.6930  145.8120 N   0  0  0  0  0  2  0  0  0  0  0  0
  189.1690  176.1510  143.8300 O   0  0  0  0  0  1  0  0  0  0  0  0
  188.2700  176.8300  144.6610 C   0  0  1  0  0  3  0  0  0  0  0  0
  190.3740  178.2300  144.9650 C   0  0  0  0  0  1  0  0  0  0  0  0
  189.0440  177.7930  145.5820 C   0  0  2  0  0  3  0  0  0  0  0  0
  189.1870  177.2980  147.0380 C   0  0  0  0  0  0  0  0  0  0  0  0
  189.1230  178.4690  148.0050 C   0  0  0  0  0  1  0  0  0  0  0  0
  188.0970  176.3040  147.4050 C   0  0  0  0  0  1  0  0  0  0  0  0
  190.5370  176.6280  147.2230 C   0  0  0  0  0  1  0  0  0  0  0  0
  188.3650  178.6060  140.1100 C   0  0  0  0  0  2  0  0  0  0  0  0
  188.6490  177.5340  139.1050 C   0  0  0  0  0  0  0  0  0  0  0  0
  186.3900  177.8860  138.0280 C   0  0  0  0  0  1  0  0  0  0  0  0
  189.2280  175.4780  137.2910 C   0  0  0  0  0  3  0  0  0  0  0  0
  188.0040  176.1480  137.2120 C   0  0  0  0  0  0  0  0  0  0  0  0
  189.8690  176.8520  139.1750 C   0  0  0  0  0  3  0  0  0  0  0  0
  191.3440  175.1770  138.3430 F   0  0  0  0  0  0  0  0  0  0  0  0
  187.7040  177.1770  138.1200 C   0  0  0  0  0  0  0  0  0  0  0  0
  187.0910  175.7810  136.2310 O   0  0  0  0  0  1  0  0  0  0  0  0
  190.1590  175.8300  138.2700 C   0  0  0  0  0  0  0  0  0  0  0  0
  1 19  1  6  0  0  0
  1  6  1  0  0  0  0
  1  2  1  0  0  0  0
  1  8  1  0  0  0  0
  3  9  1  0  0  0  0
  4  7  1  0  0  0  0
  5  7  1  0  0  0  0
  5 12  1  1  0  0  0
  6  3  1  1  0  0  0
  6  8  1  0  0  0  0
  7 10  2  0  0  0  0
  8  2  1  1  0  0  0
  8  5  1  0  0  0  0
  9  4  2  0  0  0  0
 12 11  1  6  0  0  0
 12 14  1  0  0  0  0
 14 13  1  6  0  0  0
 14 15  1  0  0  0  0
 15 18  1  0  0  0  0
 15 17  1  0  0  0  0
 15 16  1  0  0  0  0
 20 24  1  0  0  0  0
 20 19  1  0  0  0  0
 21 26  1  0  0  0  0
 22 28  1  0  0  0  0
 23 22  2  0  0  0  0
 23 26  1  0  0  0  0
 26 20  2  0  0  0  0
 27 23  1  0  0  0  0
 28 25  1  0  0  0  0
 28 24  2  0  0  0  0
M  END
>  <MODEL>
9

>  <REMARK>
 VINA RESULT:      -5.7      3.439      7.948
  Name = 
  5 active torsions:
  status: ('A' for Active; 'I' for Inactive)
    1  A    between atoms: C_1  and  C_11
    2  A    between atoms: C_2  and  C_11
    3  A    between atoms: C_3  and  C_28
    4  A    between atoms: C_12  and  C_24
    5  A    between atoms: C_24  and  C_28
                            x       y       z     vdW  Elec       q    Type
                         _______ _______ _______ _____ _____    ______ ____

>  <TORSDO>
F 5

$$$$
