=
 OpenBabel11062414073D

 53 56  0  0  1  0  0  0  0  0999 V2000
  185.8000  174.5190  135.7860 C   0  0  0  0  0  2  0  0  0  0  0  0
  182.8060  177.5460  140.9220 O   0  0  0  0  0  0  0  0  0  0  0  0
  183.6290  173.6560  136.4780 C   0  0  0  0  0  2  0  0  0  0  0  0
  186.0530  178.7880  140.8500 O   0  0  0  0  0  0  0  0  0  0  0  0
  182.1240  175.6830  136.6450 C   0  0  2  0  0  3  0  0  0  0  0  0
  185.6050  177.1940  136.8850 P   0  0  2  0  0  0  0  0  0  0  0  0
  183.1150  176.5680  139.9260 C   0  0  0  0  0  2  0  0  0  0  0  0
  182.3770  174.2770  137.0520 C   0  0  0  0  0  2  0  0  0  0  0  0
  183.6440  178.6550  141.1010 C   0  0  1  0  0  0  0  0  0  0  0  0
  184.9690  178.6270  140.2930 C   0  0  0  0  0  0  0  0  0  0  0  0
  182.0310  175.8350  135.2330 O   0  0  0  0  0  1  0  0  0  0  0  0
  185.1580  178.5240  138.8960 C   0  0  0  0  0  2  0  0  0  0  0  0
  186.0200  178.5000  136.1460 O   0  0  0  0  0  0  0  0  0  0  0  0
  182.5350  177.1280  138.6310 C   0  0  1  0  0  3  0  0  0  0  0  0
  187.0940  176.1780  134.7320 C   0  0  0  0  0  1  0  0  0  0  0  0
  183.1900  176.5010  137.2780 C   0  0  2  0  0  3  0  0  0  0  0  0
  185.7270  177.2810  138.6280 O   0  0  0  0  0  0  0  0  0  0  0  0
  182.9190  179.8410  140.7610 F   0  0  0  0  0  0  0  0  0  0  0  0
  186.6190  175.8380  136.1580 C   0  0  2  0  0  0  0  0  0  0  0  0
  184.9610  174.0880  136.9740 C   0  0  0  0  0  2  0  0  0  0  0  0
  184.0850  176.8100  136.2130 O   0  0  0  0  0  0  0  0  0  0  0  0
  179.4970  178.8350  139.8080 C   0  0  0  0  0  2  0  0  0  0  0  0
  181.3050  183.1930  137.3040 O   0  0  0  0  0  0  0  0  0  0  0  0
  179.0980  180.2320  137.7800 C   0  0  0  0  0  2  0  0  0  0  0  0
  181.9310  181.1810  138.3420 C   0  0  0  0  0  2  0  0  0  0  0  0
  181.1340  180.3790  139.3410 C   0  0  0  0  0  2  0  0  0  0  0  0
  179.5440  181.5660  137.4250 O   0  0  0  0  0  0  0  0  0  0  0  0
  180.8440  178.5920  137.7990 O   0  0  0  0  0  0  0  0  0  0  0  0
  180.4610  177.7460  140.0180 C   0  0  2  0  0  3  0  0  0  0  0  0
  181.0110  177.4940  138.5540 C   0  0  2  0  0  3  0  0  0  0  0  0
  180.1440  179.4820  138.5880 C   0  0  1  0  0  0  0  0  0  0  0  0
  180.9390  181.9830  137.5820 C   0  0  0  0  0  0  0  0  0  0  0  0
  179.9060  176.4810  140.6320 C   0  0  0  0  0  2  0  0  0  0  0  0
  179.4020  175.6330  139.5970 O   0  0  0  0  0  0  0  0  0  0  0  0
  179.3200  173.3800  138.6820 N   0  0  0  0  0  2  0  0  0  0  0  0
  179.4140  174.2540  139.8570 C   0  0  0  0  0  0  0  0  0  0  0  0
  179.4480  173.7410  141.1040 N   0  0  0  0  0  1  0  0  0  0  0  0
  184.4930  179.8600  143.0570 F   0  0  0  0  0  0  0  0  0  0  0  0
  184.5440  177.5930  143.0370 F   0  0  0  0  0  0  0  0  0  0  0  0
  182.5170  178.6480  143.2230 F   0  0  0  0  0  0  0  0  0  0  0  0
  183.8020  178.7250  142.6480 C   0  0  0  0  0  0  0  0  0  0  0  0
  187.9720  175.4690  136.9620 C   0  0  1  0  0  3  0  0  0  0  0  0
  188.6840  174.2380  136.5600 C   0  0  0  0  0  0  0  0  0  0  0  0
  188.5090  173.0860  137.2080 O   0  0  0  0  0  1  0  0  0  0  0  0
  189.7160  174.3580  135.5240 O   0  0  0  0  0  0  0  0  0  0  0  0
  188.9070  176.6180  136.9130 O   0  0  0  0  0  0  0  0  0  0  0  0
  189.1430  177.0080  138.2360 C   0  0  1  0  0  3  0  0  0  0  0  0
  190.9300  175.4050  138.6810 O   0  0  0  0  0  0  0  0  0  0  0  0
  190.4650  176.5700  138.8760 C   0  0  0  0  0  0  0  0  0  0  0  0
  190.9220  177.5040  139.8660 O   0  0  0  0  0  0  0  0  0  0  0  0
  190.9620  177.1000  141.2140 C   0  0  0  0  0  1  0  0  0  0  0  0
  189.0560  179.3510  137.2190 C   0  0  0  0  0  1  0  0  0  0  0  0
  188.9040  178.5050  138.5100 C   0  0  0  0  0  2  0  0  0  0  0  0
  1 19  1  0  0  0  0
  1 20  1  0  0  0  0
  2  9  1  0  0  0  0
  3 20  1  0  0  0  0
  3  8  1  0  0  0  0
  5 11  1  6  0  0  0
  5  8  1  0  0  0  0
  5 16  1  0  0  0  0
  6 13  2  6  0  0  0
  6 17  1  0  0  0  0
  7  2  1  0  0  0  0
  9 18  1  6  0  0  0
  9 41  1  0  0  0  0
 10  4  2  0  0  0  0
 10  9  1  0  0  0  0
 12 10  1  0  0  0  0
 14  7  1  1  0  0  0
 16 21  1  6  0  0  0
 16 14  1  0  0  0  0
 17 12  1  0  0  0  0
 19 15  1  6  0  0  0
 19  6  1  0  0  0  0
 19 42  1  0  0  0  0
 21  6  1  0  0  0  0
 22 29  1  0  0  0  0
 23 32  2  0  0  0  0
 25 26  1  0  0  0  0
 27 32  1  0  0  0  0
 27 24  1  0  0  0  0
 28 31  1  0  0  0  0
 29 33  1  6  0  0  0
 30 28  1  6  0  0  0
 30 14  1  0  0  0  0
 30 29  1  0  0  0  0
 31 24  1  6  0  0  0
 31 26  1  0  0  0  0
 31 22  1  0  0  0  0
 32 25  1  0  0  0  0
 34 36  1  0  0  0  0
 34 33  1  0  0  0  0
 35 36  2  0  0  0  0
 36 37  1  0  0  0  0
 41 39  1  0  0  0  0
 41 38  1  0  0  0  0
 41 40  1  0  0  0  0
 42 43  1  6  0  0  0
 43 44  1  0  0  0  0
 45 43  2  0  0  0  0
 46 42  1  0  0  0  0
 46 47  1  0  0  0  0
 47 53  1  6  0  0  0
 47 49  1  0  0  0  0
 48 49  2  0  0  0  0
 49 50  1  0  0  0  0
 50 51  1  0  0  0  0
 52 53  1  0  0  0  0
M  END
>  <MODEL>
1

>  <REMARK>
 VINA RESULT:      -6.1      0.000      0.000
  Name = 
  12 active torsions:
  status: ('A' for Active; 'I' for Inactive)
    1  A    between atoms: C_2  and  C_30
    2  A    between atoms: C_2  and  O_31
    3  A    between atoms: C_5  and  C_15
    4  A    between atoms: O_6  and  C_44
    5  A    between atoms: C_15  and  O_26
    6  A    between atoms: C_15  and  C_51
    7  A    between atoms: C_18  and  O_31
    8  A    between atoms: C_22  and  C_32
    9  A    between atoms: O_26  and  C_39
   10  A    between atoms: C_36  and  C_45
   11  A    between atoms: C_39  and  C_44
   12  A    between atoms: C_39  and  C_49
                            x       y       z     vdW  Elec       q    Type
                         _______ _______ _______ _____ _____    ______ ____

>  <TORSDO>
F 12

$$$$
=
 OpenBabel11062414073D

 53 56  0  0  1  0  0  0  0  0999 V2000
  186.8950  175.4630  136.5090 C   0  0  0  0  0  2  0  0  0  0  0  0
  182.2760  177.6060  140.8210 O   0  0  0  0  0  0  0  0  0  0  0  0
  184.7630  174.2850  136.5380 C   0  0  0  0  0  2  0  0  0  0  0  0
  185.2230  179.2280  141.7030 O   0  0  0  0  0  0  0  0  0  0  0  0
  182.9960  176.0920  136.4140 C   0  0  2  0  0  3  0  0  0  0  0  0
  186.0470  177.9790  137.6750 P   0  0  2  0  0  0  0  0  0  0  0  0
  182.9670  176.7710  139.8890 C   0  0  0  0  0  2  0  0  0  0  0  0
  183.3310  174.6940  136.7890 C   0  0  0  0  0  2  0  0  0  0  0  0
  182.8740  178.7850  141.2860 C   0  0  1  0  0  0  0  0  0  0  0  0
  184.3540  178.9930  140.8660 C   0  0  0  0  0  0  0  0  0  0  0  0
  183.2520  176.3660  135.0410 O   0  0  0  0  0  1  0  0  0  0  0  0
  184.9120  179.0470  139.5680 C   0  0  0  0  0  2  0  0  0  0  0  0
  186.4520  179.3900  137.1560 O   0  0  0  0  0  0  0  0  0  0  0  0
  182.6710  177.3800  138.5210 C   0  0  1  0  0  3  0  0  0  0  0  0
  188.1710  177.3590  135.9460 C   0  0  0  0  0  1  0  0  0  0  0  0
  183.7360  176.9680  137.3590 C   0  0  2  0  0  3  0  0  0  0  0  0
  185.6990  177.9130  139.3890 O   0  0  0  0  0  0  0  0  0  0  0  0
  182.1040  179.9020  140.8360 F   0  0  0  0  0  0  0  0  0  0  0  0
  187.3960  176.8290  137.1680 C   0  0  2  0  0  0  0  0  0  0  0  0
  185.8460  174.8240  137.3990 C   0  0  0  0  0  2  0  0  0  0  0  0
  184.8230  177.4820  136.5960 O   0  0  0  0  0  0  0  0  0  0  0  0
  179.2480  178.6740  138.8880 C   0  0  0  0  0  2  0  0  0  0  0  0
  181.0820  183.3010  136.9510 O   0  0  0  0  0  0  0  0  0  0  0  0
  179.2070  180.0860  136.8330 C   0  0  0  0  0  2  0  0  0  0  0  0
  181.6660  181.3410  138.1060 C   0  0  0  0  0  2  0  0  0  0  0  0
  180.7460  180.4150  138.8630 C   0  0  0  0  0  2  0  0  0  0  0  0
  179.5620  181.4750  136.6100 O   0  0  0  0  0  0  0  0  0  0  0  0
  181.0790  178.6630  137.2910 O   0  0  0  0  0  0  0  0  0  0  0  0
  180.2520  177.6990  139.3330 C   0  0  2  0  0  3  0  0  0  0  0  0
  181.1830  177.5660  138.0580 C   0  0  2  0  0  3  0  0  0  0  0  0
  180.0980  179.4360  137.8790 C   0  0  1  0  0  0  0  0  0  0  0  0
  180.8090  182.0470  137.1210 C   0  0  0  0  0  0  0  0  0  0  0  0
  179.7200  176.3560  139.7800 C   0  0  0  0  0  2  0  0  0  0  0  0
  179.7970  175.4310  138.6920 O   0  0  0  0  0  0  0  0  0  0  0  0
  179.5420  173.7620  140.4440 N   0  0  0  0  0  1  0  0  0  0  0  0
  179.7560  174.0690  139.0250 C   0  0  0  0  0  0  0  0  0  0  0  0
  179.9580  173.0850  138.1240 N   0  0  0  0  0  2  0  0  0  0  0  0
  183.5000  177.8730  143.4710 F   0  0  0  0  0  0  0  0  0  0  0  0
  181.3100  178.2230  142.9960 F   0  0  0  0  0  0  0  0  0  0  0  0
  182.6710  180.0390  143.3260 F   0  0  0  0  0  0  0  0  0  0  0  0
  182.6140  178.7240  142.8200 C   0  0  0  0  0  0  0  0  0  0  0  0
  188.5320  176.5500  138.2840 C   0  0  1  0  0  3  0  0  0  0  0  0
  189.8010  175.9500  137.8210 C   0  0  0  0  0  0  0  0  0  0  0  0
  190.0520  174.6480  137.9670 O   0  0  0  0  0  1  0  0  0  0  0  0
  190.8470  176.8590  137.3410 O   0  0  0  0  0  0  0  0  0  0  0  0
  188.8190  177.8010  139.0230 O   0  0  0  0  0  0  0  0  0  0  0  0
  188.9840  177.4510  140.3670 C   0  0  1  0  0  3  0  0  0  0  0  0
  191.4140  177.6830  140.3090 O   0  0  0  0  0  0  0  0  0  0  0  0
  190.4050  177.1290  140.8440 C   0  0  0  0  0  0  0  0  0  0  0  0
  190.4360  175.9970  141.7280 O   0  0  0  0  0  0  0  0  0  0  0  0
  190.9140  176.1720  143.0400 C   0  0  0  0  0  1  0  0  0  0  0  0
  187.6880  177.6480  142.5610 C   0  0  0  0  0  1  0  0  0  0  0  0
  188.3090  178.4130  141.3630 C   0  0  0  0  0  2  0  0  0  0  0  0
  1 19  1  0  0  0  0
  1 20  1  0  0  0  0
  2  9  1  0  0  0  0
  3  8  1  0  0  0  0
  3 20  1  0  0  0  0
  5 11  1  6  0  0  0
  5  8  1  0  0  0  0
  5 16  1  0  0  0  0
  6 13  2  6  0  0  0
  6 17  1  0  0  0  0
  7  2  1  0  0  0  0
  9 18  1  6  0  0  0
  9 41  1  0  0  0  0
 10  9  1  0  0  0  0
 10  4  2  0  0  0  0
 12 10  1  0  0  0  0
 14  7  1  1  0  0  0
 16 21  1  6  0  0  0
 16 14  1  0  0  0  0
 17 12  1  0  0  0  0
 19 15  1  6  0  0  0
 19  6  1  0  0  0  0
 19 42  1  0  0  0  0
 21  6  1  0  0  0  0
 22 29  1  0  0  0  0
 23 32  2  0  0  0  0
 25 26  1  0  0  0  0
 27 24  1  0  0  0  0
 27 32  1  0  0  0  0
 28 31  1  0  0  0  0
 29 33  1  6  0  0  0
 30 28  1  6  0  0  0
 30 14  1  0  0  0  0
 30 29  1  0  0  0  0
 31 24  1  6  0  0  0
 31 26  1  0  0  0  0
 31 22  1  0  0  0  0
 32 25  1  0  0  0  0
 34 36  1  0  0  0  0
 34 33  1  0  0  0  0
 36 35  1  0  0  0  0
 37 36  2  0  0  0  0
 41 39  1  0  0  0  0
 41 40  1  0  0  0  0
 41 38  1  0  0  0  0
 42 43  1  6  0  0  0
 42 46  1  0  0  0  0
 43 44  1  0  0  0  0
 45 43  2  0  0  0  0
 46 47  1  0  0  0  0
 47 49  1  0  0  0  0
 47 53  1  1  0  0  0
 48 49  2  0  0  0  0
 49 50  1  0  0  0  0
 50 51  1  0  0  0  0
 53 52  1  0  0  0  0
M  END
>  <MODEL>
2

>  <REMARK>
 VINA RESULT:      -6.0      1.295      1.778
  Name = 
  12 active torsions:
  status: ('A' for Active; 'I' for Inactive)
    1  A    between atoms: C_2  and  C_30
    2  A    between atoms: C_2  and  O_31
    3  A    between atoms: C_5  and  C_15
    4  A    between atoms: O_6  and  C_44
    5  A    between atoms: C_15  and  O_26
    6  A    between atoms: C_15  and  C_51
    7  A    between atoms: C_18  and  O_31
    8  A    between atoms: C_22  and  C_32
    9  A    between atoms: O_26  and  C_39
   10  A    between atoms: C_36  and  C_45
   11  A    between atoms: C_39  and  C_44
   12  A    between atoms: C_39  and  C_49
                            x       y       z     vdW  Elec       q    Type
                         _______ _______ _______ _____ _____    ______ ____

>  <TORSDO>
F 12

$$$$
=
 OpenBabel11062414073D

 53 56  0  0  1  0  0  0  0  0999 V2000
  186.6210  175.5040  135.5990 C   0  0  0  0  0  2  0  0  0  0  0  0
  183.0210  177.6170  140.8040 O   0  0  0  0  0  0  0  0  0  0  0  0
  184.5150  174.3600  136.0380 C   0  0  0  0  0  2  0  0  0  0  0  0
  186.1180  179.1700  141.1000 O   0  0  0  0  0  0  0  0  0  0  0  0
  182.7980  176.1980  136.3140 C   0  0  2  0  0  3  0  0  0  0  0  0
  186.0800  178.0040  136.9640 P   0  0  2  0  0  0  0  0  0  0  0  0
  183.4910  176.7930  139.7340 C   0  0  0  0  0  2  0  0  0  0  0  0
  183.1730  174.7850  136.5840 C   0  0  0  0  0  2  0  0  0  0  0  0
  183.7260  178.7740  141.1620 C   0  0  1  0  0  0  0  0  0  0  0  0
  185.0930  178.9690  140.4530 C   0  0  0  0  0  0  0  0  0  0  0  0
  182.7750  176.5010  134.9230 O   0  0  0  0  0  1  0  0  0  0  0  0
  185.3760  179.0450  139.0690 C   0  0  0  0  0  2  0  0  0  0  0  0
  186.4000  179.4210  136.4020 O   0  0  0  0  0  0  0  0  0  0  0  0
  182.9350  177.4390  138.4680 C   0  0  1  0  0  3  0  0  0  0  0  0
  187.7940  177.3920  134.8260 C   0  0  0  0  0  1  0  0  0  0  0  0
  183.7320  177.0380  137.1060 C   0  0  2  0  0  3  0  0  0  0  0  0
  186.0870  177.9030  138.7110 O   0  0  0  0  0  0  0  0  0  0  0  0
  182.9030  179.9140  140.9000 F   0  0  0  0  0  0  0  0  0  0  0  0
  187.2730  176.8460  136.1690 C   0  0  2  0  0  0  0  0  0  0  0  0
  185.7620  174.8610  136.6710 C   0  0  0  0  0  2  0  0  0  0  0  0
  184.6520  177.5530  136.1470 O   0  0  0  0  0  0  0  0  0  0  0  0
  179.6870  178.7860  139.5470 C   0  0  0  0  0  2  0  0  0  0  0  0
  181.1840  183.4160  137.3440 O   0  0  0  0  0  0  0  0  0  0  0  0
  179.2570  180.2380  137.5640 C   0  0  0  0  0  2  0  0  0  0  0  0
  181.9510  181.4250  138.3260 C   0  0  0  0  0  2  0  0  0  0  0  0
  181.1850  180.5010  139.2420 C   0  0  0  0  0  2  0  0  0  0  0  0
  179.5880  181.6240  137.2940 O   0  0  0  0  0  0  0  0  0  0  0  0
  181.1530  178.7740  137.6090 O   0  0  0  0  0  0  0  0  0  0  0  0
  180.7400  177.7860  139.7620 C   0  0  2  0  0  3  0  0  0  0  0  0
  181.3880  177.6600  138.3220 C   0  0  2  0  0  3  0  0  0  0  0  0
  180.3290  179.5520  138.3960 C   0  0  1  0  0  0  0  0  0  0  0  0
  180.9250  182.1650  137.5480 C   0  0  0  0  0  0  0  0  0  0  0  0
  180.2820  176.4440  140.2880 C   0  0  0  0  0  2  0  0  0  0  0  0
  179.8990  175.6110  139.1900 O   0  0  0  0  0  0  0  0  0  0  0  0
  179.9230  173.3510  138.2900 N   0  0  0  0  0  2  0  0  0  0  0  0
  179.7990  174.2370  139.4530 C   0  0  0  0  0  0  0  0  0  0  0  0
  179.5470  173.7400  140.6820 N   0  0  0  0  0  1  0  0  0  0  0  0
  184.3180  179.8270  143.2920 F   0  0  0  0  0  0  0  0  0  0  0  0
  184.6200  177.5950  143.0310 F   0  0  0  0  0  0  0  0  0  0  0  0
  182.4810  178.4070  143.1840 F   0  0  0  0  0  0  0  0  0  0  0  0
  183.7820  178.6810  142.7150 C   0  0  0  0  0  0  0  0  0  0  0  0
  188.6070  176.5220  137.0240 C   0  0  1  0  0  3  0  0  0  0  0  0
  188.9810  177.4830  138.0820 C   0  0  0  0  0  0  0  0  0  0  0  0
  189.4050  178.7140  137.7900 O   0  0  0  0  0  0  0  0  0  0  0  0
  189.0280  176.9890  139.4630 O   0  0  0  0  0  1  0  0  0  0  0  0
  188.5060  175.1630  137.6060 O   0  0  0  0  0  0  0  0  0  0  0  0
  189.3840  174.3460  136.8860 C   0  0  1  0  0  3  0  0  0  0  0  0
  191.2780  174.7700  138.3660 O   0  0  0  0  0  0  0  0  0  0  0  0
  190.8790  174.4670  137.1990 C   0  0  0  0  0  0  0  0  0  0  0  0
  191.6840  174.4560  136.0100 O   0  0  0  0  0  0  0  0  0  0  0  0
  191.3660  175.3440  134.9650 C   0  0  0  0  0  1  0  0  0  0  0  0
  188.4180  172.4600  135.4580 C   0  0  0  0  0  1  0  0  0  0  0  0
  188.9820  172.8590  136.8460 C   0  0  0  0  0  2  0  0  0  0  0  0
  1 19  1  0  0  0  0
  1 20  1  0  0  0  0
  2  9  1  0  0  0  0
  3  8  1  0  0  0  0
  3 20  1  0  0  0  0
  5 11  1  6  0  0  0
  5  8  1  0  0  0  0
  5 16  1  0  0  0  0
  6 13  2  6  0  0  0
  6 17  1  0  0  0  0
  7  2  1  0  0  0  0
  9 18  1  6  0  0  0
  9 41  1  0  0  0  0
 10  4  2  0  0  0  0
 10  9  1  0  0  0  0
 12 10  1  0  0  0  0
 14  7  1  1  0  0  0
 16 21  1  6  0  0  0
 16 14  1  0  0  0  0
 17 12  1  0  0  0  0
 19 15  1  6  0  0  0
 19  6  1  0  0  0  0
 19 42  1  0  0  0  0
 21  6  1  0  0  0  0
 22 29  1  0  0  0  0
 23 32  2  0  0  0  0
 25 26  1  0  0  0  0
 27 32  1  0  0  0  0
 27 24  1  0  0  0  0
 28 31  1  0  0  0  0
 29 33  1  6  0  0  0
 30 28  1  6  0  0  0
 30 14  1  0  0  0  0
 30 29  1  0  0  0  0
 31 24  1  6  0  0  0
 31 26  1  0  0  0  0
 31 22  1  0  0  0  0
 32 25  1  0  0  0  0
 34 36  1  0  0  0  0
 34 33  1  0  0  0  0
 35 36  2  0  0  0  0
 36 37  1  0  0  0  0
 41 39  1  0  0  0  0
 41 40  1  0  0  0  0
 41 38  1  0  0  0  0
 42 46  1  1  0  0  0
 42 43  1  0  0  0  0
 43 45  1  0  0  0  0
 44 43  2  0  0  0  0
 47 53  1  1  0  0  0
 47 49  1  0  0  0  0
 47 46  1  0  0  0  0
 49 48  2  0  0  0  0
 50 49  1  0  0  0  0
 51 50  1  0  0  0  0
 52 53  1  0  0  0  0
M  END
>  <MODEL>
3

>  <REMARK>
 VINA RESULT:      -5.1      1.057      2.222
  Name = 
  12 active torsions:
  status: ('A' for Active; 'I' for Inactive)
    1  A    between atoms: C_2  and  C_30
    2  A    between atoms: C_2  and  O_31
    3  A    between atoms: C_5  and  C_15
    4  A    between atoms: O_6  and  C_44
    5  A    between atoms: C_15  and  O_26
    6  A    between atoms: C_15  and  C_51
    7  A    between atoms: C_18  and  O_31
    8  A    between atoms: C_22  and  C_32
    9  A    between atoms: O_26  and  C_39
   10  A    between atoms: C_36  and  C_45
   11  A    between atoms: C_39  and  C_44
   12  A    between atoms: C_39  and  C_49
                            x       y       z     vdW  Elec       q    Type
                         _______ _______ _______ _____ _____    ______ ____

>  <TORSDO>
F 12

$$$$
=
 OpenBabel11062414073D

 53 56  0  0  1  0  0  0  0  0999 V2000
  185.6610  175.8520  135.7710 C   0  0  0  0  0  2  0  0  0  0  0  0
  183.2140  177.7140  141.6920 O   0  0  0  0  0  0  0  0  0  0  0  0
  183.5510  174.8530  136.4710 C   0  0  0  0  0  2  0  0  0  0  0  0
  186.4600  178.9560  141.5730 O   0  0  0  0  0  0  0  0  0  0  0  0
  182.1020  176.7940  137.2040 C   0  0  2  0  0  3  0  0  0  0  0  0
  185.6140  178.2340  137.4220 P   0  0  2  0  0  0  0  0  0  0  0  0
  183.4120  176.9690  140.4880 C   0  0  0  0  0  2  0  0  0  0  0  0
  182.3700  175.3340  137.2800 C   0  0  0  0  0  2  0  0  0  0  0  0
  184.0840  178.7640  142.0200 C   0  0  1  0  0  0  0  0  0  0  0  0
  185.3260  178.9120  141.1010 C   0  0  0  0  0  0  0  0  0  0  0  0
  181.8780  177.2400  135.8710 O   0  0  0  0  0  1  0  0  0  0  0  0
  185.3810  179.1070  139.7020 C   0  0  0  0  0  2  0  0  0  0  0  0
  185.9790  179.6680  136.9390 O   0  0  0  0  0  0  0  0  0  0  0  0
  182.7220  177.7890  139.4010 C   0  0  1  0  0  3  0  0  0  0  0  0
  186.8760  177.7010  134.9710 C   0  0  0  0  0  1  0  0  0  0  0  0
  183.2360  177.4640  137.8900 C   0  0  2  0  0  3  0  0  0  0  0  0
  185.9020  177.9510  139.1250 O   0  0  0  0  0  0  0  0  0  0  0  0
  183.3500  179.9910  142.0080 F   0  0  0  0  0  0  0  0  0  0  0  0
  186.5330  177.0650  136.3330 C   0  0  2  0  0  0  0  0  0  0  0  0
  184.9300  175.1770  136.9160 C   0  0  0  0  0  2  0  0  0  0  0  0
  184.0310  177.9950  136.8330 O   0  0  0  0  0  0  0  0  0  0  0  0
  179.9480  179.9240  140.5270 C   0  0  0  0  0  2  0  0  0  0  0  0
  180.9030  182.9590  136.2370 O   0  0  0  0  0  0  0  0  0  0  0  0
  179.0230  180.4760  138.2780 C   0  0  0  0  0  2  0  0  0  0  0  0
  181.8550  181.4590  137.7740 C   0  0  0  0  0  2  0  0  0  0  0  0
  181.3500  181.1190  139.1550 C   0  0  0  0  0  2  0  0  0  0  0  0
  179.3050  181.5630  137.3590 O   0  0  0  0  0  0  0  0  0  0  0  0
  180.8110  178.8980  138.5010 O   0  0  0  0  0  0  0  0  0  0  0  0
  180.9900  178.9580  140.8980 C   0  0  2  0  0  3  0  0  0  0  0  0
  181.2040  178.1560  139.5490 C   0  0  2  0  0  3  0  0  0  0  0  0
  180.2640  180.0440  139.0410 C   0  0  1  0  0  0  0  0  0  0  0  0
  180.6750  181.9560  137.0220 C   0  0  0  0  0  0  0  0  0  0  0  0
  180.6580  178.0350  142.0500 C   0  0  0  0  0  2  0  0  0  0  0  0
  180.7770  178.7540  143.2810 O   0  0  0  0  0  0  0  0  0  0  0  0
  179.6190  177.1580  144.7060 N   0  0  0  0  0  1  0  0  0  0  0  0
  179.7670  178.5380  144.2300 C   0  0  0  0  0  0  0  0  0  0  0  0
  178.9320  179.5110  144.6510 N   0  0  0  0  0  2  0  0  0  0  0  0
  183.2450  178.1780  144.2450 F   0  0  0  0  0  0  0  0  0  0  0  0
  184.9120  179.7030  144.0490 F   0  0  0  0  0  0  0  0  0  0  0  0
  185.3750  177.5010  143.6050 F   0  0  0  0  0  0  0  0  0  0  0  0
  184.3880  178.5050  143.5250 C   0  0  0  0  0  0  0  0  0  0  0  0
  187.9500  176.5410  136.9080 C   0  0  1  0  0  3  0  0  0  0  0  0
  188.6690  177.4290  137.8450 C   0  0  0  0  0  0  0  0  0  0  0  0
  189.3580  178.4880  137.4160 O   0  0  0  0  0  0  0  0  0  0  0  0
  188.7380  177.0190  139.2520 O   0  0  0  0  0  1  0  0  0  0  0  0
  187.7700  175.2090  137.5300 O   0  0  0  0  0  0  0  0  0  0  0  0
  188.5540  174.3090  136.7990 C   0  0  1  0  0  3  0  0  0  0  0  0
  190.5580  174.8990  138.0620 O   0  0  0  0  0  0  0  0  0  0  0  0
  189.9940  174.0820  137.2710 C   0  0  0  0  0  0  0  0  0  0  0  0
  190.6480  173.0400  136.5300 O   0  0  0  0  0  0  0  0  0  0  0  0
  191.2150  173.3480  135.2790 C   0  0  0  0  0  1  0  0  0  0  0  0
  187.2810  172.8910  135.0970 C   0  0  0  0  0  1  0  0  0  0  0  0
  187.8780  172.9520  136.5270 C   0  0  0  0  0  2  0  0  0  0  0  0
  1 19  1  0  0  0  0
  1 20  1  0  0  0  0
  2  9  1  0  0  0  0
  3 20  1  0  0  0  0
  3  8  1  0  0  0  0
  5 11  1  6  0  0  0
  5  8  1  0  0  0  0
  5 16  1  0  0  0  0
  6 13  2  6  0  0  0
  6 17  1  0  0  0  0
  7  2  1  0  0  0  0
  9 18  1  6  0  0  0
  9 41  1  0  0  0  0
 10  4  2  0  0  0  0
 10  9  1  0  0  0  0
 12 10  1  0  0  0  0
 14 30  1  0  0  0  0
 14  7  1  1  0  0  0
 16 21  1  6  0  0  0
 16 14  1  0  0  0  0
 17 12  1  0  0  0  0
 19 15  1  6  0  0  0
 19 42  1  0  0  0  0
 19  6  1  0  0  0  0
 21  6  1  0  0  0  0
 22 29  1  0  0  0  0
 23 32  2  0  0  0  0
 25 26  1  0  0  0  0
 27 24  1  0  0  0  0
 28 31  1  0  0  0  0
 29 33  1  1  0  0  0
 30 28  1  6  0  0  0
 30 29  1  0  0  0  0
 31 24  1  6  0  0  0
 31 26  1  0  0  0  0
 31 22  1  0  0  0  0
 32 27  1  0  0  0  0
 32 25  1  0  0  0  0
 33 34  1  0  0  0  0
 34 36  1  0  0  0  0
 36 37  2  0  0  0  0
 36 35  1  0  0  0  0
 41 40  1  0  0  0  0
 41 39  1  0  0  0  0
 41 38  1  0  0  0  0
 42 46  1  1  0  0  0
 42 43  1  0  0  0  0
 43 45  1  0  0  0  0
 44 43  2  0  0  0  0
 47 53  1  1  0  0  0
 47 49  1  0  0  0  0
 47 46  1  0  0  0  0
 49 48  2  0  0  0  0
 50 49  1  0  0  0  0
 51 50  1  0  0  0  0
 52 53  1  0  0  0  0
M  END
>  <MODEL>
4

>  <REMARK>
 VINA RESULT:      -3.6      1.936      3.007
  Name = 
  12 active torsions:
  status: ('A' for Active; 'I' for Inactive)
    1  A    between atoms: C_2  and  C_30
    2  A    between atoms: C_2  and  O_31
    3  A    between atoms: C_5  and  C_15
    4  A    between atoms: O_6  and  C_44
    5  A    between atoms: C_15  and  O_26
    6  A    between atoms: C_15  and  C_51
    7  A    between atoms: C_18  and  O_31
    8  A    between atoms: C_22  and  C_32
    9  A    between atoms: O_26  and  C_39
   10  A    between atoms: C_36  and  C_45
   11  A    between atoms: C_39  and  C_44
   12  A    between atoms: C_39  and  C_49
                            x       y       z     vdW  Elec       q    Type
                         _______ _______ _______ _____ _____    ______ ____

>  <TORSDO>
F 12

$$$$
=
 OpenBabel11062414073D

 53 56  0  0  1  0  0  0  0  0999 V2000
  188.4340  175.9670  136.9220 C   0  0  0  0  0  2  0  0  0  0  0  0
  182.4640  177.1300  139.6650 O   0  0  0  0  0  0  0  0  0  0  0  0
  186.7740  174.1880  136.7810 C   0  0  0  0  0  2  0  0  0  0  0  0
  184.5230  179.7170  140.7420 O   0  0  0  0  0  0  0  0  0  0  0  0
  184.6700  175.3000  135.9220 C   0  0  2  0  0  3  0  0  0  0  0  0
  186.6580  178.2230  137.3240 P   0  0  2  0  0  0  0  0  0  0  0  0
  183.5720  176.4330  139.0910 C   0  0  0  0  0  2  0  0  0  0  0  0
  185.2700  174.1510  136.6490 C   0  0  0  0  0  2  0  0  0  0  0  0
  182.5750  178.4930  139.9730 C   0  0  1  0  0  0  0  0  0  0  0  0
  183.9960  179.0980  139.8200 C   0  0  0  0  0  0  0  0  0  0  0  0
  185.1820  175.4380  134.6000 O   0  0  0  0  0  1  0  0  0  0  0  0
  184.8290  179.1370  138.6780 C   0  0  0  0  0  2  0  0  0  0  0  0
  186.7760  179.5980  136.6040 O   0  0  0  0  0  0  0  0  0  0  0  0
  183.4780  176.7090  137.5930 C   0  0  1  0  0  3  0  0  0  0  0  0
  189.2380  178.0660  136.2270 C   0  0  0  0  0  1  0  0  0  0  0  0
  184.8740  176.4930  136.7830 C   0  0  2  0  0  3  0  0  0  0  0  0
  185.9170  178.3000  138.9080 O   0  0  0  0  0  0  0  0  0  0  0  0
  181.6670  179.2280  139.1480 F   0  0  0  0  0  0  0  0  0  0  0  0
  188.3540  177.5010  137.3560 C   0  0  2  0  0  0  0  0  0  0  0  0
  187.4110  175.1630  137.7020 C   0  0  0  0  0  2  0  0  0  0  0  0
  185.9350  177.2100  136.1570 O   0  0  0  0  0  0  0  0  0  0  0  0
  179.8340  176.7300  137.0940 C   0  0  0  0  0  2  0  0  0  0  0  0
  180.4170  181.6290  135.0470 O   0  0  0  0  0  0  0  0  0  0  0  0
  179.8060  177.9580  134.9230 C   0  0  0  0  0  2  0  0  0  0  0  0
  181.3350  180.0450  136.5190 C   0  0  0  0  0  2  0  0  0  0  0  0
  180.6270  178.8840  137.1740 C   0  0  0  0  0  2  0  0  0  0  0  0
  179.7180  179.3730  134.6170 O   0  0  0  0  0  0  0  0  0  0  0  0
  181.8830  177.3030  135.9200 O   0  0  0  0  0  0  0  0  0  0  0  0
  180.9730  176.1890  137.8470 C   0  0  2  0  0  3  0  0  0  0  0  0
  182.1650  176.3420  136.8150 C   0  0  2  0  0  3  0  0  0  0  0  0
  180.5920  177.7030  136.1980 C   0  0  1  0  0  0  0  0  0  0  0  0
  180.5460  180.3670  135.3030 C   0  0  0  0  0  0  0  0  0  0  0  0
  180.8310  174.7620  138.3280 C   0  0  0  0  0  2  0  0  0  0  0  0
  179.8080  174.1070  137.5730 O   0  0  0  0  0  0  0  0  0  0  0  0
  179.9850  171.7080  137.2080 N   0  0  0  0  0  1  0  0  0  0  0  0
  180.2240  173.0720  136.7230 C   0  0  0  0  0  0  0  0  0  0  0  0
  180.8600  173.2920  135.5530 N   0  0  0  0  0  2  0  0  0  0  0  0
  182.8580  178.1810  142.3850 F   0  0  0  0  0  0  0  0  0  0  0  0
  180.8610  177.6970  141.4270 F   0  0  0  0  0  0  0  0  0  0  0  0
  181.4960  179.8930  141.6010 F   0  0  0  0  0  0  0  0  0  0  0  0
  181.9600  178.5770  141.4010 C   0  0  0  0  0  0  0  0  0  0  0  0
  189.2000  177.7640  138.7080 C   0  0  1  0  0  3  0  0  0  0  0  0
  188.4810  178.3740  139.8470 C   0  0  0  0  0  0  0  0  0  0  0  0
  188.6530  179.6540  140.1770 O   0  0  0  0  0  0  0  0  0  0  0  0
  187.6930  177.4840  140.7070 O   0  0  0  0  0  1  0  0  0  0  0  0
  189.8390  176.5020  139.1470 O   0  0  0  0  0  0  0  0  0  0  0  0
  191.0170  176.8540  139.8150 C   0  0  1  0  0  3  0  0  0  0  0  0
  190.3550  175.8410  141.9350 O   0  0  0  0  0  0  0  0  0  0  0  0
  191.0210  176.7450  141.3440 C   0  0  0  0  0  0  0  0  0  0  0  0
  191.6210  177.8920  141.9670 O   0  0  0  0  0  0  0  0  0  0  0  0
  191.2960  178.1880  143.3040 C   0  0  0  0  0  1  0  0  0  0  0  0
  193.5720  176.8280  139.8570 C   0  0  0  0  0  1  0  0  0  0  0  0
  192.2910  176.2010  139.2470 C   0  0  0  0  0  2  0  0  0  0  0  0
  1 19  1  0  0  0  0
  1 20  1  0  0  0  0
  2  9  1  0  0  0  0
  3 20  1  0  0  0  0
  5 11  1  6  0  0  0
  5  8  1  0  0  0  0
  5 16  1  0  0  0  0
  6 13  2  6  0  0  0
  6 19  1  0  0  0  0
  6 17  1  0  0  0  0
  7  2  1  0  0  0  0
  8  3  1  0  0  0  0
  9 18  1  6  0  0  0
  9 41  1  0  0  0  0
 10  9  1  0  0  0  0
 10  4  2  0  0  0  0
 12 17  1  0  0  0  0
 12 10  1  0  0  0  0
 14  7  1  1  0  0  0
 16 21  1  6  0  0  0
 16 14  1  0  0  0  0
 19 15  1  6  0  0  0
 19 42  1  0  0  0  0
 21  6  1  0  0  0  0
 22 29  1  0  0  0  0
 23 32  2  0  0  0  0
 25 26  1  0  0  0  0
 27 24  1  0  0  0  0
 27 32  1  0  0  0  0
 28 31  1  0  0  0  0
 29 33  1  6  0  0  0
 30 28  1  6  0  0  0
 30 14  1  0  0  0  0
 30 29  1  0  0  0  0
 31 24  1  6  0  0  0
 31 22  1  0  0  0  0
 31 26  1  0  0  0  0
 32 25  1  0  0  0  0
 34 33  1  0  0  0  0
 36 35  1  0  0  0  0
 36 34  1  0  0  0  0
 37 36  2  0  0  0  0
 41 39  1  0  0  0  0
 41 40  1  0  0  0  0
 41 38  1  0  0  0  0
 42 46  1  1  0  0  0
 42 43  1  0  0  0  0
 43 44  2  0  0  0  0
 43 45  1  0  0  0  0
 46 47  1  0  0  0  0
 47 53  1  6  0  0  0
 47 49  1  0  0  0  0
 49 48  2  0  0  0  0
 49 50  1  0  0  0  0
 50 51  1  0  0  0  0
 53 52  1  0  0  0  0
M  END
>  <MODEL>
5

>  <REMARK>
 VINA RESULT:      -3.3      2.039      3.122
  Name = 
  12 active torsions:
  status: ('A' for Active; 'I' for Inactive)
    1  A    between atoms: C_2  and  C_30
    2  A    between atoms: C_2  and  O_31
    3  A    between atoms: C_5  and  C_15
    4  A    between atoms: O_6  and  C_44
    5  A    between atoms: C_15  and  O_26
    6  A    between atoms: C_15  and  C_51
    7  A    between atoms: C_18  and  O_31
    8  A    between atoms: C_22  and  C_32
    9  A    between atoms: O_26  and  C_39
   10  A    between atoms: C_36  and  C_45
   11  A    between atoms: C_39  and  C_44
   12  A    between atoms: C_39  and  C_49
                            x       y       z     vdW  Elec       q    Type
                         _______ _______ _______ _____ _____    ______ ____

>  <TORSDO>
F 12

$$$$
=
 OpenBabel11062414073D

 53 56  0  0  1  0  0  0  0  0999 V2000
  185.2510  175.5970  136.1700 C   0  0  0  0  0  2  0  0  0  0  0  0
  182.8590  177.9730  141.9280 O   0  0  0  0  0  0  0  0  0  0  0  0
  182.9870  174.9460  136.7920 C   0  0  0  0  0  2  0  0  0  0  0  0
  186.2570  178.7120  141.9350 O   0  0  0  0  0  0  0  0  0  0  0  0
  181.8160  177.1020  137.4140 C   0  0  2  0  0  3  0  0  0  0  0  0
  185.4920  178.0060  137.7660 P   0  0  2  0  0  0  0  0  0  0  0  0
  182.9940  177.1730  140.7510 C   0  0  0  0  0  2  0  0  0  0  0  0
  181.8570  175.6210  137.5340 C   0  0  0  0  0  2  0  0  0  0  0  0
  183.8620  178.8900  142.2740 C   0  0  1  0  0  0  0  0  0  0  0  0
  185.1510  178.8250  141.4110 C   0  0  0  0  0  0  0  0  0  0  0  0
  181.7200  177.5380  136.0620 O   0  0  0  0  0  1  0  0  0  0  0  0
  185.2950  178.9690  140.0120 C   0  0  0  0  0  2  0  0  0  0  0  0
  186.0900  179.3560  137.2690 O   0  0  0  0  0  0  0  0  0  0  0  0
  182.4840  178.0550  139.6150 C   0  0  1  0  0  3  0  0  0  0  0  0
  186.7640  177.2210  135.3890 C   0  0  0  0  0  1  0  0  0  0  0  0
  183.0080  177.6140  138.1370 C   0  0  2  0  0  3  0  0  0  0  0  0
  185.6600  177.7330  139.4860 O   0  0  0  0  0  0  0  0  0  0  0  0
  183.3220  180.2120  142.2000 F   0  0  0  0  0  0  0  0  0  0  0  0
  186.2710  176.6830  136.7460 C   0  0  2  0  0  0  0  0  0  0  0  0
  184.3780  175.0720  137.2950 C   0  0  0  0  0  2  0  0  0  0  0  0
  183.9180  177.9890  137.1080 O   0  0  0  0  0  0  0  0  0  0  0  0
  180.0660  180.8170  139.8440 C   0  0  0  0  0  2  0  0  0  0  0  0
  180.7690  181.5030  134.5940 O   0  0  0  0  0  0  0  0  0  0  0  0
  178.9320  180.4440  137.6540 C   0  0  0  0  0  2  0  0  0  0  0  0
  181.7600  180.7180  136.5730 C   0  0  0  0  0  2  0  0  0  0  0  0
  181.3960  181.0890  137.9900 C   0  0  0  0  0  2  0  0  0  0  0  0
  179.1980  180.9680  136.3280 O   0  0  0  0  0  0  0  0  0  0  0  0
  180.5850  178.9010  138.4430 O   0  0  0  0  0  0  0  0  0  0  0  0
  181.0540  179.9820  140.5390 C   0  0  2  0  0  3  0  0  0  0  0  0
  181.0320  178.6490  139.6840 C   0  0  2  0  0  3  0  0  0  0  0  0
  180.2120  180.2290  138.4450 C   0  0  1  0  0  0  0  0  0  0  0  0
  180.5470  180.9870  135.7590 C   0  0  0  0  0  0  0  0  0  0  0  0
  180.7820  179.7120  142.0010 C   0  0  0  0  0  2  0  0  0  0  0  0
  179.4820  179.1320  142.1420 O   0  0  0  0  0  0  0  0  0  0  0  0
  179.0370  176.8080  141.5760 N   0  0  0  0  0  2  0  0  0  0  0  0
  179.4350  177.8010  142.5800 C   0  0  0  0  0  0  0  0  0  0  0  0
  179.6800  177.4380  143.8570 N   0  0  0  0  0  1  0  0  0  0  0  0
  184.7430  179.6680  144.4210 F   0  0  0  0  0  0  0  0  0  0  0  0
  184.8270  177.4580  143.9180 F   0  0  0  0  0  0  0  0  0  0  0  0
  182.7900  178.4090  144.3700 F   0  0  0  0  0  0  0  0  0  0  0  0
  184.0580  178.6320  143.7960 C   0  0  0  0  0  0  0  0  0  0  0  0
  187.5660  175.9690  137.3980 C   0  0  1  0  0  3  0  0  0  0  0  0
  187.9520  174.6470  136.8620 C   0  0  0  0  0  0  0  0  0  0  0  0
  188.4680  174.5120  135.6390 O   0  0  0  0  0  0  0  0  0  0  0  0
  187.6000  173.4640  137.6540 O   0  0  0  0  0  1  0  0  0  0  0  0
  188.7260  176.8870  137.3290 O   0  0  0  0  0  0  0  0  0  0  0  0
  189.0250  177.2670  138.6420 C   0  0  1  0  0  3  0  0  0  0  0  0
  190.5710  176.9010  140.4960 O   0  0  0  0  0  0  0  0  0  0  0  0
  190.1990  176.5610  139.3310 C   0  0  0  0  0  0  0  0  0  0  0  0
  190.9270  175.7140  138.4290 O   0  0  0  0  0  0  0  0  0  0  0  0
  191.5050  176.2840  137.2790 C   0  0  0  0  0  1  0  0  0  0  0  0
  189.2450  179.5450  137.5070 C   0  0  0  0  0  1  0  0  0  0  0  0
  189.1380  178.7880  138.8560 C   0  0  0  0  0  2  0  0  0  0  0  0
  1 19  1  0  0  0  0
  1 20  1  0  0  0  0
  2  9  1  0  0  0  0
  3 20  1  0  0  0  0
  3  8  1  0  0  0  0
  5 11  1  6  0  0  0
  5  8  1  0  0  0  0
  5 16  1  0  0  0  0
  6 13  2  6  0  0  0
  6 17  1  0  0  0  0
  7  2  1  0  0  0  0
  9 18  1  6  0  0  0
  9 41  1  0  0  0  0
 10  4  2  0  0  0  0
 10  9  1  0  0  0  0
 12 10  1  0  0  0  0
 14 30  1  0  0  0  0
 14  7  1  1  0  0  0
 16 21  1  6  0  0  0
 16 14  1  0  0  0  0
 17 12  1  0  0  0  0
 19 15  1  6  0  0  0
 19 42  1  0  0  0  0
 19  6  1  0  0  0  0
 21  6  1  0  0  0  0
 22 29  1  0  0  0  0
 23 32  2  0  0  0  0
 25 26  1  0  0  0  0
 26 31  1  0  0  0  0
 27 24  1  0  0  0  0
 28 31  1  0  0  0  0
 29 33  1  1  0  0  0
 30 28  1  6  0  0  0
 30 29  1  0  0  0  0
 31 24  1  6  0  0  0
 31 22  1  0  0  0  0
 32 27  1  0  0  0  0
 32 25  1  0  0  0  0
 33 34  1  0  0  0  0
 34 36  1  0  0  0  0
 35 36  2  0  0  0  0
 36 37  1  0  0  0  0
 41 39  1  0  0  0  0
 41 40  1  0  0  0  0
 41 38  1  0  0  0  0
 42 43  1  6  0  0  0
 43 45  1  0  0  0  0
 44 43  2  0  0  0  0
 46 42  1  0  0  0  0
 46 47  1  0  0  0  0
 47 53  1  6  0  0  0
 47 49  1  0  0  0  0
 49 48  2  0  0  0  0
 50 49  1  0  0  0  0
 51 50  1  0  0  0  0
 52 53  1  0  0  0  0
M  END
>  <MODEL>
6

>  <REMARK>
 VINA RESULT:      -3.2      1.577      2.022
  Name = 
  12 active torsions:
  status: ('A' for Active; 'I' for Inactive)
    1  A    between atoms: C_2  and  C_30
    2  A    between atoms: C_2  and  O_31
    3  A    between atoms: C_5  and  C_15
    4  A    between atoms: O_6  and  C_44
    5  A    between atoms: C_15  and  O_26
    6  A    between atoms: C_15  and  C_51
    7  A    between atoms: C_18  and  O_31
    8  A    between atoms: C_22  and  C_32
    9  A    between atoms: O_26  and  C_39
   10  A    between atoms: C_36  and  C_45
   11  A    between atoms: C_39  and  C_44
   12  A    between atoms: C_39  and  C_49
                            x       y       z     vdW  Elec       q    Type
                         _______ _______ _______ _____ _____    ______ ____

>  <TORSDO>
F 12

$$$$
