=
 OpenBabel11062414183D

 45 48  0  0  1  0  0  0  0  0999 V2000
  186.5700  178.0070  143.1730 C   0  0  2  0  0  3  0  0  0  0  0  0
  183.7400  178.4710  143.5130 F   0  0  0  0  0  0  0  0  0  0  0  0
  184.2380  178.2500  142.2670 C   0  0  0  0  0  0  0  0  0  0  0  0
  185.5460  178.0430  142.0680 C   0  0  0  0  0  3  0  0  0  0  0  0
  182.8380  176.9550  140.3560 O   0  0  0  0  0  0  0  0  0  0  0  0
  181.6990  179.0940  141.3430 O   0  0  0  0  0  1  0  0  0  0  0  0
  183.1410  178.3460  140.8590 P   0  0  1  0  0  0  0  0  0  0  0  0
  183.9290  179.2290  139.6410 O   0  0  0  0  0  0  0  0  0  0  0  0
  183.4940  178.7000  138.4230 C   0  0  0  0  0  2  0  0  0  0  0  0
  184.5970  177.8540  137.8060 C   0  0  0  0  0  2  0  0  0  0  0  0
  184.0320  176.7830  136.8780 C   0  0  2  0  0  3  0  0  0  0  0  0
  184.3500  175.4170  137.4610 C   0  0  0  0  0  2  0  0  0  0  0  0
  184.7280  176.8260  135.5180 C   0  0  0  0  0  2  0  0  0  0  0  0
  185.4390  174.8930  136.6650 N   0  0  0  0  0  0  0  0  0  0  0  0
  185.7520  172.9760  137.9590 O   0  0  0  0  0  0  0  0  0  0  0  0
  185.7690  175.7240  135.5270 C   0  0  0  0  0  2  0  0  0  0  0  0
  186.1170  173.6680  136.9690 C   0  0  0  0  0  0  0  0  0  0  0  0
  187.2630  173.2080  136.1220 C   0  0  2  0  0  3  0  0  0  0  0  0
  187.7410  171.1000  135.6300 C   0  0  0  0  0  1  0  0  0  0  0  0
  186.8620  172.1390  135.3140 O   0  0  0  0  0  0  0  0  0  0  0  0
  188.4240  172.7880  137.0100 C   0  0  0  0  0  2  0  0  0  0  0  0
  190.7290  173.4820  136.4390 C   0  0  0  0  0  1  0  0  0  0  0  0
  189.4410  173.9090  137.1100 C   0  0  0  0  0  2  0  0  0  0  0  0
  187.7650  177.1270  142.8260 C   0  0  0  0  0  2  0  0  0  0  0  0
  188.8130  177.8890  142.2810 O   0  0  0  0  0  0  0  0  0  0  0  0
  189.7630  177.0190  141.6970 C   0  0  2  0  0  3  0  0  0  0  0  0
  191.5630  178.1790  144.3960 N   0  0  0  0  0  0  0  0  0  0  0  0
  191.3120  176.2100  143.3750 O   0  0  0  0  0  0  0  0  0  0  0  0
  191.7280  176.2410  145.8600 C   0  0  0  0  0  1  0  0  0  0  0  0
  191.3430  178.4930  142.9920 C   0  0  0  0  0  2  0  0  0  0  0  0
  191.1680  177.1320  142.3080 C   0  0  2  0  0  3  0  0  0  0  0  0
  191.5350  176.9030  144.5440 C   0  0  0  0  0  0  0  0  0  0  0  0
  189.7360  177.0270  140.1920 C   0  0  0  0  0  0  0  0  0  0  0  0
  189.9280  177.6570  137.4450 C   0  0  0  0  0  2  0  0  0  0  0  0
  188.6320  177.4260  139.5560 C   0  0  0  0  0  3  0  0  0  0  0  0
  190.9190  176.6320  139.3980 C   0  0  0  0  0  3  0  0  0  0  0  0
  190.9740  176.8890  138.1250 N   0  0  0  0  0  0  0  0  0  0  0  0
  188.5550  177.3690  138.0570 C   0  0  0  0  0  2  0  0  0  0  0  0
  185.9910  177.6170  144.4160 O   0  0  0  0  0  0  0  0  0  0  0  0
  187.7380  178.3650  148.1250 N   0  0  0  0  0  0  0  0  0  0  0  0
  186.4710  178.7910  147.8770 C   0  0  0  0  0  3  0  0  0  0  0  0
  186.5960  177.8620  145.6530 C   0  0  0  0  0  0  0  0  0  0  0  0
  188.4580  177.6950  147.1850 C   0  0  0  0  0  3  0  0  0  0  0  0
  187.9000  177.4320  145.9330 C   0  0  0  0  0  3  0  0  0  0  0  0
  185.8780  178.5460  146.6360 C   0  0  0  0  0  3  0  0  0  0  0  0
  1  4  1  6  0  0  0
  1 39  1  0  0  0  0
  3  2  1  0  0  0  0
  4  3  2  0  0  0  0
  7  5  2  6  0  0  0
  7  6  1  0  0  0  0
  7  3  1  0  0  0  0
  8  7  1  0  0  0  0
  9  8  1  0  0  0  0
 10  9  1  0  0  0  0
 11 12  1  0  0  0  0
 11 10  1  1  0  0  0
 13 16  1  0  0  0  0
 13 11  1  0  0  0  0
 14 17  1  0  0  0  0
 14 12  1  0  0  0  0
 16 14  1  0  0  0  0
 17 15  2  0  0  0  0
 18 17  1  0  0  0  0
 18 21  1  1  0  0  0
 20 19  1  0  0  0  0
 20 18  1  0  0  0  0
 21 23  1  0  0  0  0
 22 23  1  0  0  0  0
 24  1  1  0  0  0  0
 25 24  1  0  0  0  0
 26 25  1  1  0  0  0
 27 32  2  0  0  0  0
 28 32  1  0  0  0  0
 30 27  1  0  0  0  0
 31 26  1  1  0  0  0
 31 30  1  0  0  0  0
 31 28  1  0  0  0  0
 32 29  1  0  0  0  0
 33 26  1  0  0  0  0
 34 38  1  0  0  0  0
 34 37  1  0  0  0  0
 35 33  2  0  0  0  0
 36 33  1  0  0  0  0
 37 36  2  0  0  0  0
 38 35  1  0  0  0  0
 39 42  1  0  0  0  0
 41 40  1  0  0  0  0
 42 44  2  0  0  0  0
 42 45  1  0  0  0  0
 43 40  2  0  0  0  0
 44 43  1  0  0  0  0
 45 41  2  0  0  0  0
M  END
>  <MODEL>
1

>  <REMARK>
 VINA RESULT:      -7.1      0.000      0.000
  Name = 
  17 active torsions:
  status: ('A' for Active; 'I' for Inactive)
    1  A    between atoms: C_1  and  C_27
    2  A    between atoms: C_1  and  O_32
    3  A    between atoms: C_1  and  C_35
    4  A    between atoms: C_5  and  C_29
    5  A    between atoms: O_7  and  C_16
    6  A    between atoms: O_7  and  C_31
    7  A    between atoms: C_11  and  C_41
    8  A    between atoms: O_12  and  C_18
    9  A    between atoms: O_12  and  C_41
   10  A    between atoms: O_13  and  C_24
   11  A    between atoms: O_13  and  P_26
   12  A    between atoms: C_16  and  C_18
   13  A    between atoms: C_16  and  C_28
   14  A    between atoms: C_21  and  P_26
   15  A    between atoms: C_24  and  C_29
   16  A    between atoms: C_27  and  C_40
   17  A    between atoms: C_37  and  C_41
                            x       y       z     vdW  Elec       q    Type
                         _______ _______ _______ _____ _____    ______ ____

>  <TORSDO>
F 17

$$$$
=
 OpenBabel11062414183D

 45 48  0  0  1  0  0  0  0  0999 V2000
  189.8990  177.4060  140.0600 C   0  0  2  0  0  3  0  0  0  0  0  0
  189.6310  179.3140  137.9090 F   0  0  0  0  0  0  0  0  0  0  0  0
  188.7190  178.3120  138.0350 C   0  0  0  0  0  0  0  0  0  0  0  0
  188.8170  177.4020  139.0110 C   0  0  0  0  0  3  0  0  0  0  0  0
  186.6880  179.4540  136.6710 O   0  0  0  0  0  1  0  0  0  0  0  0
  188.1430  177.7490  135.3210 O   0  0  0  0  0  0  0  0  0  0  0  0
  187.4300  178.1460  136.8070 P   0  0  1  0  0  0  0  0  0  0  0  0
  186.3580  176.9390  137.3340 O   0  0  0  0  0  0  0  0  0  0  0  0
  185.0870  177.3200  136.8960 C   0  0  0  0  0  2  0  0  0  0  0  0
  184.0390  176.8610  137.8980 C   0  0  0  0  0  2  0  0  0  0  0  0
  183.3590  178.0430  138.5820 C   0  0  2  0  0  3  0  0  0  0  0  0
  184.4010  178.8100  139.3780 C   0  0  0  0  0  2  0  0  0  0  0  0
  182.3320  177.5560  139.6040 C   0  0  0  0  0  2  0  0  0  0  0  0
  184.1770  178.4570  140.7630 N   0  0  0  0  0  0  0  0  0  0  0  0
  186.0270  179.6180  141.5850 O   0  0  0  0  0  0  0  0  0  0  0  0
  182.9960  177.6450  140.9640 C   0  0  0  0  0  2  0  0  0  0  0  0
  185.0330  178.8800  141.8310 C   0  0  0  0  0  0  0  0  0  0  0  0
  184.7600  178.4440  143.2370 C   0  0  2  0  0  3  0  0  0  0  0  0
  182.9290  179.1630  144.2590 C   0  0  0  0  0  1  0  0  0  0  0  0
  184.2530  179.5130  143.9800 O   0  0  0  0  0  0  0  0  0  0  0  0
  186.0400  177.9230  143.8720 C   0  0  0  0  0  2  0  0  0  0  0  0
  187.0940  177.5550  146.0810 C   0  0  0  0  0  1  0  0  0  0  0  0
  186.1860  178.4660  145.2820 C   0  0  0  0  0  2  0  0  0  0  0  0
  191.2100  176.8280  139.5420 C   0  0  0  0  0  2  0  0  0  0  0  0
  190.9820  175.6880  138.7510 O   0  0  0  0  0  0  0  0  0  0  0  0
  191.4920  175.9160  137.4520 C   0  0  2  0  0  3  0  0  0  0  0  0
  190.3140  173.0950  135.8620 N   0  0  0  0  0  0  0  0  0  0  0  0
  189.3920  174.8590  136.8710 O   0  0  0  0  0  0  0  0  0  0  0  0
  188.1980  172.6420  136.9770 C   0  0  0  0  0  1  0  0  0  0  0  0
  191.2280  174.2040  135.6230 C   0  0  0  0  0  2  0  0  0  0  0  0
  190.5810  175.4030  136.3260 C   0  0  2  0  0  3  0  0  0  0  0  0
  189.3200  173.5210  136.5570 C   0  0  0  0  0  0  0  0  0  0  0  0
  192.9420  175.5340  137.3030 C   0  0  0  0  0  0  0  0  0  0  0  0
  195.4450  174.5290  136.4640 C   0  0  0  0  0  2  0  0  0  0  0  0
  193.3830  174.4000  137.8510 C   0  0  0  0  0  3  0  0  0  0  0  0
  193.8830  176.3750  136.5330 C   0  0  0  0  0  3  0  0  0  0  0  0
  195.0510  175.9150  136.1930 N   0  0  0  0  0  0  0  0  0  0  0  0
  194.8400  174.0390  137.7810 C   0  0  0  0  0  2  0  0  0  0  0  0
  189.4810  176.7390  141.2490 O   0  0  0  0  0  0  0  0  0  0  0  0
  191.1000  177.5560  145.0020 N   0  0  0  0  0  0  0  0  0  0  0  0
  190.3040  178.4760  144.3950 C   0  0  0  0  0  3  0  0  0  0  0  0
  190.0370  176.9960  142.5070 C   0  0  0  0  0  0  0  0  0  0  0  0
  191.3860  176.3660  144.4110 C   0  0  0  0  0  3  0  0  0  0  0  0
  190.8600  176.0640  143.1530 C   0  0  0  0  0  3  0  0  0  0  0  0
  189.7580  178.2110  143.1360 C   0  0  0  0  0  3  0  0  0  0  0  0
  1  4  1  6  0  0  0
  1 39  1  0  0  0  0
  2  3  1  0  0  0  0
  3  4  2  0  0  0  0
  5  7  1  0  0  0  0
  7  6  2  6  0  0  0
  7  8  1  0  0  0  0
  7  3  1  0  0  0  0
  9  8  1  0  0  0  0
  9 10  1  0  0  0  0
 11 10  1  1  0  0  0
 11 12  1  0  0  0  0
 11 13  1  0  0  0  0
 12 14  1  0  0  0  0
 13 16  1  0  0  0  0
 14 16  1  0  0  0  0
 14 17  1  0  0  0  0
 15 17  2  0  0  0  0
 17 18  1  0  0  0  0
 18 21  1  1  0  0  0
 18 20  1  0  0  0  0
 20 19  1  0  0  0  0
 21 23  1  0  0  0  0
 23 22  1  0  0  0  0
 24  1  1  0  0  0  0
 25 24  1  0  0  0  0
 26 25  1  1  0  0  0
 27 32  2  0  0  0  0
 30 27  1  0  0  0  0
 30 31  1  0  0  0  0
 31 28  1  0  0  0  0
 31 26  1  1  0  0  0
 32 28  1  0  0  0  0
 32 29  1  0  0  0  0
 33 26  1  0  0  0  0
 33 35  2  0  0  0  0
 34 38  1  0  0  0  0
 36 33  1  0  0  0  0
 37 34  1  0  0  0  0
 37 36  2  0  0  0  0
 38 35  1  0  0  0  0
 39 42  1  0  0  0  0
 41 40  2  0  0  0  0
 42 45  2  0  0  0  0
 42 44  1  0  0  0  0
 43 40  1  0  0  0  0
 44 43  2  0  0  0  0
 45 41  1  0  0  0  0
M  END
>  <MODEL>
2

>  <REMARK>
 VINA RESULT:      -7.1      3.054      6.803
  Name = 
  17 active torsions:
  status: ('A' for Active; 'I' for Inactive)
    1  A    between atoms: C_1  and  C_27
    2  A    between atoms: C_1  and  O_32
    3  A    between atoms: C_1  and  C_35
    4  A    between atoms: C_5  and  C_29
    5  A    between atoms: O_7  and  C_16
    6  A    between atoms: O_7  and  C_31
    7  A    between atoms: C_11  and  C_41
    8  A    between atoms: O_12  and  C_18
    9  A    between atoms: O_12  and  C_41
   10  A    between atoms: O_13  and  C_24
   11  A    between atoms: O_13  and  P_26
   12  A    between atoms: C_16  and  C_18
   13  A    between atoms: C_16  and  C_28
   14  A    between atoms: C_21  and  P_26
   15  A    between atoms: C_24  and  C_29
   16  A    between atoms: C_27  and  C_40
   17  A    between atoms: C_37  and  C_41
                            x       y       z     vdW  Elec       q    Type
                         _______ _______ _______ _____ _____    ______ ____

>  <TORSDO>
F 17

$$$$
=
 OpenBabel11062414183D

 45 48  0  0  1  0  0  0  0  0999 V2000
  188.7780  177.4050  141.4360 C   0  0  2  0  0  3  0  0  0  0  0  0
  189.5730  176.4300  138.8370 F   0  0  0  0  0  0  0  0  0  0  0  0
  188.7620  177.5190  138.9260 C   0  0  0  0  0  0  0  0  0  0  0  0
  188.3630  177.9920  140.1120 C   0  0  0  0  0  3  0  0  0  0  0  0
  186.6660  178.5850  137.5980 O   0  0  0  0  0  1  0  0  0  0  0  0
  188.9900  179.6920  137.1260 O   0  0  0  0  0  0  0  0  0  0  0  0
  188.1310  178.2620  137.4260 P   0  0  1  0  0  0  0  0  0  0  0  0
  188.3190  177.1380  136.1670 O   0  0  0  0  0  0  0  0  0  0  0  0
  187.1640  176.3520  136.1620 C   0  0  0  0  0  2  0  0  0  0  0  0
  187.4470  175.0180  136.8370 C   0  0  0  0  0  2  0  0  0  0  0  0
  186.5810  173.9020  136.2610 C   0  0  2  0  0  3  0  0  0  0  0  0
  185.3130  174.5140  135.6910 C   0  0  0  0  0  2  0  0  0  0  0  0
  186.1220  172.9520  137.3670 C   0  0  0  0  0  2  0  0  0  0  0  0
  184.2690  174.2190  136.6480 N   0  0  0  0  0  0  0  0  0  0  0  0
  182.6180  175.4560  135.5560 O   0  0  0  0  0  0  0  0  0  0  0  0
  184.7020  173.3480  137.7200 C   0  0  0  0  0  2  0  0  0  0  0  0
  182.9350  174.7300  136.5380 C   0  0  0  0  0  0  0  0  0  0  0  0
  181.9150  174.4130  137.5890 C   0  0  2  0  0  3  0  0  0  0  0  0
  181.0480  172.4880  136.9110 C   0  0  0  0  0  1  0  0  0  0  0  0
  180.7760  173.8560  136.9980 O   0  0  0  0  0  0  0  0  0  0  0  0
  181.5470  175.6790  138.3470 C   0  0  0  0  0  2  0  0  0  0  0  0
  183.3220  177.2720  139.0050 C   0  0  0  0  0  1  0  0  0  0  0  0
  182.6050  175.9940  139.3880 C   0  0  0  0  0  2  0  0  0  0  0  0
  187.9320  177.9270  142.5920 C   0  0  0  0  0  2  0  0  0  0  0  0
  187.2400  176.8780  143.2240 O   0  0  0  0  0  0  0  0  0  0  0  0
  186.3400  177.4220  144.1700 C   0  0  2  0  0  3  0  0  0  0  0  0
  183.6380  178.5310  142.3430 N   0  0  0  0  0  0  0  0  0  0  0  0
  184.4000  178.8520  144.4160 O   0  0  0  0  0  0  0  0  0  0  0  0
  181.9120  178.8920  144.0210 C   0  0  0  0  0  1  0  0  0  0  0  0
  185.0880  178.4520  142.2430 C   0  0  0  0  0  2  0  0  0  0  0  0
  185.5930  178.6690  143.6740 C   0  0  2  0  0  3  0  0  0  0  0  0
  183.3200  178.7540  143.5690 C   0  0  0  0  0  0  0  0  0  0  0  0
  186.9320  177.5580  145.5490 C   0  0  0  0  0  0  0  0  0  0  0  0
  188.2250  178.4120  147.9100 C   0  0  0  0  0  2  0  0  0  0  0  0
  188.1790  177.1370  145.7740 C   0  0  0  0  0  3  0  0  0  0  0  0
  186.1710  178.1780  146.6550 C   0  0  0  0  0  3  0  0  0  0  0  0
  186.7720  178.5240  147.7540 N   0  0  0  0  0  0  0  0  0  0  0  0
  188.7610  177.1910  147.1580 C   0  0  0  0  0  2  0  0  0  0  0  0
  190.1670  177.6060  141.6880 O   0  0  0  0  0  0  0  0  0  0  0  0
  191.8720  177.2380  145.4730 N   0  0  0  0  0  0  0  0  0  0  0  0
  191.5930  178.4710  144.9760 C   0  0  0  0  0  3  0  0  0  0  0  0
  190.7440  177.4610  142.9550 C   0  0  0  0  0  0  0  0  0  0  0  0
  191.6080  176.1090  144.7620 C   0  0  0  0  0  3  0  0  0  0  0  0
  191.0400  176.2010  143.4900 C   0  0  0  0  0  3  0  0  0  0  0  0
  191.0230  178.6050  143.7070 C   0  0  0  0  0  3  0  0  0  0  0  0
  1  4  1  6  0  0  0
  1 39  1  0  0  0  0
  1 24  1  0  0  0  0
  2  3  1  0  0  0  0
  3  4  2  0  0  0  0
  7  6  2  6  0  0  0
  7  5  1  0  0  0  0
  7  3  1  0  0  0  0
  8  7  1  0  0  0  0
  9  8  1  0  0  0  0
  9 10  1  0  0  0  0
 11 10  1  1  0  0  0
 11 13  1  0  0  0  0
 12 11  1  0  0  0  0
 12 14  1  0  0  0  0
 13 16  1  0  0  0  0
 14 16  1  0  0  0  0
 15 17  2  0  0  0  0
 17 14  1  0  0  0  0
 17 18  1  0  0  0  0
 18 21  1  6  0  0  0
 19 20  1  0  0  0  0
 20 18  1  0  0  0  0
 21 23  1  0  0  0  0
 22 23  1  0  0  0  0
 24 25  1  0  0  0  0
 26 25  1  6  0  0  0
 26 33  1  0  0  0  0
 27 32  2  0  0  0  0
 30 27  1  0  0  0  0
 30 31  1  0  0  0  0
 31 26  1  1  0  0  0
 31 28  1  0  0  0  0
 32 29  1  0  0  0  0
 32 28  1  0  0  0  0
 33 35  2  0  0  0  0
 33 36  1  0  0  0  0
 35 38  1  0  0  0  0
 36 37  2  0  0  0  0
 37 34  1  0  0  0  0
 38 34  1  0  0  0  0
 39 42  1  0  0  0  0
 41 40  1  0  0  0  0
 42 44  2  0  0  0  0
 42 45  1  0  0  0  0
 43 40  2  0  0  0  0
 44 43  1  0  0  0  0
 45 41  2  0  0  0  0
M  END
>  <MODEL>
3

>  <REMARK>
 VINA RESULT:      -7.0      2.842      6.262
  Name = 
  17 active torsions:
  status: ('A' for Active; 'I' for Inactive)
    1  A    between atoms: C_1  and  C_27
    2  A    between atoms: C_1  and  O_32
    3  A    between atoms: C_1  and  C_35
    4  A    between atoms: C_5  and  C_29
    5  A    between atoms: O_7  and  C_16
    6  A    between atoms: O_7  and  C_31
    7  A    between atoms: C_11  and  C_41
    8  A    between atoms: O_12  and  C_18
    9  A    between atoms: O_12  and  C_41
   10  A    between atoms: O_13  and  C_24
   11  A    between atoms: O_13  and  P_26
   12  A    between atoms: C_16  and  C_18
   13  A    between atoms: C_16  and  C_28
   14  A    between atoms: C_21  and  P_26
   15  A    between atoms: C_24  and  C_29
   16  A    between atoms: C_27  and  C_40
   17  A    between atoms: C_37  and  C_41
                            x       y       z     vdW  Elec       q    Type
                         _______ _______ _______ _____ _____    ______ ____

>  <TORSDO>
F 17

$$$$
=
 OpenBabel11062414183D

 45 48  0  0  1  0  0  0  0  0999 V2000
  183.4730  178.7260  139.5090 C   0  0  2  0  0  3  0  0  0  0  0  0
  185.8490  178.9610  137.8840 F   0  0  0  0  0  0  0  0  0  0  0  0
  184.9740  177.9460  137.6510 C   0  0  0  0  0  0  0  0  0  0  0  0
  183.8690  177.7970  138.3900 C   0  0  0  0  0  3  0  0  0  0  0  0
  184.1280  175.9320  136.0630 O   0  0  0  0  0  1  0  0  0  0  0  0
  185.9210  177.5250  135.0160 O   0  0  0  0  0  0  0  0  0  0  0  0
  185.3670  176.7260  136.4040 P   0  0  1  0  0  0  0  0  0  0  0  0
  186.5470  175.6850  137.0440 O   0  0  0  0  0  0  0  0  0  0  0  0
  187.7840  176.2690  136.7610 C   0  0  0  0  0  2  0  0  0  0  0  0
  188.8170  175.8010  137.7750 C   0  0  0  0  0  2  0  0  0  0  0  0
  189.7590  176.9300  138.1810 C   0  0  2  0  0  3  0  0  0  0  0  0
  190.4710  176.5320  139.4630 C   0  0  0  0  0  2  0  0  0  0  0  0
  188.9700  178.1940  138.5200 C   0  0  0  0  0  2  0  0  0  0  0  0
  189.8340  177.2900  140.5180 N   0  0  0  0  0  0  0  0  0  0  0  0
  191.0150  176.2770  142.2570 O   0  0  0  0  0  0  0  0  0  0  0  0
  188.8690  178.2520  140.0310 C   0  0  0  0  0  2  0  0  0  0  0  0
  190.1360  177.1110  141.9070 C   0  0  0  0  0  0  0  0  0  0  0  0
  189.4080  177.9050  142.9480 C   0  0  2  0  0  3  0  0  0  0  0  0
  191.0880  178.7860  144.0940 C   0  0  0  0  0  1  0  0  0  0  0  0
  190.0770  179.1090  143.1870 O   0  0  0  0  0  0  0  0  0  0  0  0
  189.3050  177.0970  144.2330 C   0  0  0  0  0  2  0  0  0  0  0  0
  188.0590  177.4200  146.3460 C   0  0  0  0  0  1  0  0  0  0  0  0
  187.9270  177.2600  144.8460 C   0  0  0  0  0  2  0  0  0  0  0  0
  183.0630  180.1030  139.0000 C   0  0  0  0  0  2  0  0  0  0  0  0
  181.8890  180.0280  138.2300 O   0  0  0  0  0  0  0  0  0  0  0  0
  181.0020  181.0520  138.6360 C   0  0  2  0  0  3  0  0  0  0  0  0
  179.6830  178.8720  140.9560 N   0  0  0  0  0  0  0  0  0  0  0  0
  179.5440  181.0660  140.5710 O   0  0  0  0  0  0  0  0  0  0  0  0
  179.4070  180.2430  142.9490 C   0  0  0  0  0  1  0  0  0  0  0  0
  179.7940  179.0230  139.5120 C   0  0  0  0  0  2  0  0  0  0  0  0
  179.7010  180.5330  139.2670 C   0  0  2  0  0  3  0  0  0  0  0  0
  179.5480  180.0360  141.4840 C   0  0  0  0  0  0  0  0  0  0  0  0
  180.8070  182.1220  137.5950 C   0  0  0  0  0  0  0  0  0  0  0  0
  180.9020  183.7820  135.3110 C   0  0  0  0  0  2  0  0  0  0  0  0
  181.5330  183.2400  137.6560 C   0  0  0  0  0  3  0  0  0  0  0  0
  179.8470  181.9480  136.4830 C   0  0  0  0  0  3  0  0  0  0  0  0
  179.8740  182.7480  135.4590 N   0  0  0  0  0  0  0  0  0  0  0  0
  181.3000  184.3530  136.6740 C   0  0  0  0  0  2  0  0  0  0  0  0
  184.4980  178.8300  140.4950 O   0  0  0  0  0  0  0  0  0  0  0  0
  183.6530  179.0570  144.5700 N   0  0  0  0  0  0  0  0  0  0  0  0
  182.6510  178.8110  143.6850 C   0  0  0  0  0  3  0  0  0  0  0  0
  184.2340  178.9140  141.8660 C   0  0  0  0  0  0  0  0  0  0  0  0
  184.9370  179.2340  144.1560 C   0  0  0  0  0  3  0  0  0  0  0  0
  185.2500  179.1660  142.7980 C   0  0  0  0  0  3  0  0  0  0  0  0
  182.9240  178.7350  142.3170 C   0  0  0  0  0  3  0  0  0  0  0  0
  1  4  1  6  0  0  0
  1 39  1  0  0  0  0
  3  2  1  0  0  0  0
  3  4  2  0  0  0  0
  5  7  1  0  0  0  0
  7  6  2  6  0  0  0
  7  8  1  0  0  0  0
  7  3  1  0  0  0  0
  9  8  1  0  0  0  0
  9 10  1  0  0  0  0
 11 10  1  1  0  0  0
 11 13  1  0  0  0  0
 11 12  1  0  0  0  0
 12 14  1  0  0  0  0
 13 16  1  0  0  0  0
 14 17  1  0  0  0  0
 16 14  1  0  0  0  0
 17 15  2  0  0  0  0
 17 18  1  0  0  0  0
 18 20  1  0  0  0  0
 18 21  1  1  0  0  0
 20 19  1  0  0  0  0
 21 23  1  0  0  0  0
 23 22  1  0  0  0  0
 24  1  1  0  0  0  0
 25 24  1  0  0  0  0
 26 25  1  6  0  0  0
 27 32  2  0  0  0  0
 28 32  1  0  0  0  0
 30 27  1  0  0  0  0
 31 26  1  1  0  0  0
 31 30  1  0  0  0  0
 31 28  1  0  0  0  0
 32 29  1  0  0  0  0
 33 35  2  0  0  0  0
 33 26  1  0  0  0  0
 34 37  1  0  0  0  0
 34 38  1  0  0  0  0
 36 33  1  0  0  0  0
 37 36  2  0  0  0  0
 38 35  1  0  0  0  0
 39 42  1  0  0  0  0
 41 40  2  0  0  0  0
 42 45  2  0  0  0  0
 42 44  1  0  0  0  0
 43 40  1  0  0  0  0
 44 43  2  0  0  0  0
 45 41  1  0  0  0  0
M  END
>  <MODEL>
4

>  <REMARK>
 VINA RESULT:      -6.8      3.736      8.535
  Name = 
  17 active torsions:
  status: ('A' for Active; 'I' for Inactive)
    1  A    between atoms: C_1  and  C_27
    2  A    between atoms: C_1  and  O_32
    3  A    between atoms: C_1  and  C_35
    4  A    between atoms: C_5  and  C_29
    5  A    between atoms: O_7  and  C_16
    6  A    between atoms: O_7  and  C_31
    7  A    between atoms: C_11  and  C_41
    8  A    between atoms: O_12  and  C_18
    9  A    between atoms: O_12  and  C_41
   10  A    between atoms: O_13  and  C_24
   11  A    between atoms: O_13  and  P_26
   12  A    between atoms: C_16  and  C_18
   13  A    between atoms: C_16  and  C_28
   14  A    between atoms: C_21  and  P_26
   15  A    between atoms: C_24  and  C_29
   16  A    between atoms: C_27  and  C_40
   17  A    between atoms: C_37  and  C_41
                            x       y       z     vdW  Elec       q    Type
                         _______ _______ _______ _____ _____    ______ ____

>  <TORSDO>
F 17

$$$$
=
 OpenBabel11062414183D

 45 48  0  0  1  0  0  0  0  0999 V2000
  185.5530  176.5670  136.8920 C   0  0  2  0  0  3  0  0  0  0  0  0
  188.3810  176.0210  137.1090 F   0  0  0  0  0  0  0  0  0  0  0  0
  187.8460  177.0710  137.7890 C   0  0  0  0  0  0  0  0  0  0  0  0
  186.5430  177.3620  137.7040 C   0  0  0  0  0  3  0  0  0  0  0  0
  189.0360  179.4830  138.0340 O   0  0  0  0  0  0  0  0  0  0  0  0
  188.2680  178.3640  140.2720 O   0  0  0  0  0  1  0  0  0  0  0  0
  188.9270  178.1450  138.7260 P   0  0  1  0  0  0  0  0  0  0  0  0
  190.4590  177.4160  138.7920 O   0  0  0  0  0  0  0  0  0  0  0  0
  190.5620  176.8250  140.0540 C   0  0  0  0  0  2  0  0  0  0  0  0
  191.6330  177.5340  140.8680 C   0  0  0  0  0  2  0  0  0  0  0  0
  191.6750  177.0260  142.3060 C   0  0  2  0  0  3  0  0  0  0  0  0
  190.4040  176.2440  142.5840 C   0  0  0  0  0  2  0  0  0  0  0  0
  191.6670  178.1950  143.2910 C   0  0  0  0  0  2  0  0  0  0  0  0
  189.5750  177.1140  143.3910 N   0  0  0  0  0  0  0  0  0  0  0  0
  187.7240  175.6920  143.4130 O   0  0  0  0  0  0  0  0  0  0  0  0
  190.2420  178.3350  143.7880 C   0  0  0  0  0  2  0  0  0  0  0  0
  188.2300  176.7920  143.7670 C   0  0  0  0  0  0  0  0  0  0  0  0
  187.4180  177.7590  144.5720 C   0  0  2  0  0  3  0  0  0  0  0  0
  188.1650  177.6720  146.6570 C   0  0  0  0  0  1  0  0  0  0  0  0
  187.1360  177.2170  145.8300 O   0  0  0  0  0  0  0  0  0  0  0  0
  186.1260  178.0830  143.8380 C   0  0  0  0  0  2  0  0  0  0  0  0
  184.2660  179.6860  144.1400 C   0  0  0  0  0  1  0  0  0  0  0  0
  185.0850  178.6040  144.8100 C   0  0  0  0  0  2  0  0  0  0  0  0
  184.3150  177.3790  136.5300 C   0  0  0  0  0  2  0  0  0  0  0  0
  183.2030  176.9680  137.2860 O   0  0  0  0  0  0  0  0  0  0  0  0
  182.9880  177.8930  138.3340 C   0  0  2  0  0  3  0  0  0  0  0  0
  182.4210  178.4780  141.6820 N   0  0  0  0  0  0  0  0  0  0  0  0
  181.2580  177.5810  140.0010 O   0  0  0  0  0  0  0  0  0  0  0  0
  180.0140  178.8120  141.8130 C   0  0  0  0  0  1  0  0  0  0  0  0
  183.4080  177.8470  140.8170 C   0  0  0  0  0  2  0  0  0  0  0  0
  182.5940  177.2420  139.6680 C   0  0  2  0  0  3  0  0  0  0  0  0
  181.2530  178.2960  141.1780 C   0  0  0  0  0  0  0  0  0  0  0  0
  182.1260  179.0610  137.9320 C   0  0  0  0  0  0  0  0  0  0  0  0
  180.1560  181.0740  137.7140 C   0  0  0  0  0  2  0  0  0  0  0  0
  181.1250  178.8750  137.0700 C   0  0  0  0  0  3  0  0  0  0  0  0
  182.3460  180.4100  138.4990 C   0  0  0  0  0  3  0  0  0  0  0  0
  181.4500  181.3400  138.3510 N   0  0  0  0  0  0  0  0  0  0  0  0
  180.3020  180.0400  136.5960 C   0  0  0  0  0  2  0  0  0  0  0  0
  185.1940  175.3510  137.5450 O   0  0  0  0  0  0  0  0  0  0  0  0
  185.1070  171.6890  135.5580 N   0  0  0  0  0  0  0  0  0  0  0  0
  185.8940  172.6930  135.0890 C   0  0  0  0  0  3  0  0  0  0  0  0
  185.1470  174.1160  136.8900 C   0  0  0  0  0  0  0  0  0  0  0  0
  184.3390  171.8490  136.6690 C   0  0  0  0  0  3  0  0  0  0  0  0
  184.3450  173.0650  137.3540 C   0  0  0  0  0  3  0  0  0  0  0  0
  185.9280  173.9250  135.7470 C   0  0  0  0  0  3  0  0  0  0  0  0
  1 24  1  1  0  0  0
  1 39  1  0  0  0  0
  1  4  1  0  0  0  0
  2  3  1  0  0  0  0
  3  7  1  0  0  0  0
  4  3  2  0  0  0  0
  7  5  2  6  0  0  0
  7  8  1  0  0  0  0
  7  6  1  0  0  0  0
  8  9  1  0  0  0  0
  9 10  1  0  0  0  0
 11 10  1  6  0  0  0
 11 12  1  0  0  0  0
 11 13  1  0  0  0  0
 12 14  1  0  0  0  0
 13 16  1  0  0  0  0
 14 17  1  0  0  0  0
 14 16  1  0  0  0  0
 15 17  2  0  0  0  0
 17 18  1  0  0  0  0
 18 21  1  6  0  0  0
 18 20  1  0  0  0  0
 20 19  1  0  0  0  0
 21 23  1  0  0  0  0
 22 23  1  0  0  0  0
 24 25  1  0  0  0  0
 26 25  1  6  0  0  0
 28 32  1  0  0  0  0
 30 27  1  0  0  0  0
 31 26  1  6  0  0  0
 31 28  1  0  0  0  0
 31 30  1  0  0  0  0
 32 27  2  0  0  0  0
 32 29  1  0  0  0  0
 33 26  1  0  0  0  0
 33 36  1  0  0  0  0
 34 37  1  0  0  0  0
 35 33  2  0  0  0  0
 37 36  2  0  0  0  0
 38 35  1  0  0  0  0
 38 34  1  0  0  0  0
 40 43  1  0  0  0  0
 41 40  2  0  0  0  0
 41 45  1  0  0  0  0
 42 44  1  0  0  0  0
 42 39  1  0  0  0  0
 43 44  2  0  0  0  0
 45 42  2  0  0  0  0
M  END
>  <MODEL>
5

>  <REMARK>
 VINA RESULT:      -6.7      3.087      9.403
  Name = 
  17 active torsions:
  status: ('A' for Active; 'I' for Inactive)
    1  A    between atoms: C_1  and  C_27
    2  A    between atoms: C_1  and  O_32
    3  A    between atoms: C_1  and  C_35
    4  A    between atoms: C_5  and  C_29
    5  A    between atoms: O_7  and  C_16
    6  A    between atoms: O_7  and  C_31
    7  A    between atoms: C_11  and  C_41
    8  A    between atoms: O_12  and  C_18
    9  A    between atoms: O_12  and  C_41
   10  A    between atoms: O_13  and  C_24
   11  A    between atoms: O_13  and  P_26
   12  A    between atoms: C_16  and  C_18
   13  A    between atoms: C_16  and  C_28
   14  A    between atoms: C_21  and  P_26
   15  A    between atoms: C_24  and  C_29
   16  A    between atoms: C_27  and  C_40
   17  A    between atoms: C_37  and  C_41
                            x       y       z     vdW  Elec       q    Type
                         _______ _______ _______ _____ _____    ______ ____

>  <TORSDO>
F 17

$$$$
=
 OpenBabel11062414183D

 45 48  0  0  1  0  0  0  0  0999 V2000
  185.5390  178.8210  142.1970 C   0  0  2  0  0  3  0  0  0  0  0  0
  182.7530  178.6900  142.9460 F   0  0  0  0  0  0  0  0  0  0  0  0
  183.0980  178.6250  141.6320 C   0  0  0  0  0  0  0  0  0  0  0  0
  184.3770  178.6940  141.2460 C   0  0  0  0  0  3  0  0  0  0  0  0
  181.5180  177.1140  140.0470 O   0  0  0  0  0  0  0  0  0  0  0  0
  180.4100  179.2740  141.0250 O   0  0  0  0  0  1  0  0  0  0  0  0
  181.8090  178.5540  140.3940 P   0  0  1  0  0  0  0  0  0  0  0  0
  182.3670  179.3680  139.0120 O   0  0  0  0  0  0  0  0  0  0  0  0
  181.7590  178.7510  137.9170 C   0  0  0  0  0  2  0  0  0  0  0  0
  182.8130  178.0660  137.0610 C   0  0  0  0  0  2  0  0  0  0  0  0
  182.1880  177.3250  135.8830 C   0  0  2  0  0  3  0  0  0  0  0  0
  181.6060  176.0150  136.3850 C   0  0  0  0  0  2  0  0  0  0  0  0
  183.2560  176.9390  134.8610 C   0  0  0  0  0  2  0  0  0  0  0  0
  182.5310  174.9860  135.9620 N   0  0  0  0  0  0  0  0  0  0  0  0
  181.4370  173.2440  137.0650 O   0  0  0  0  0  0  0  0  0  0  0  0
  183.5880  175.4810  135.1070 C   0  0  0  0  0  2  0  0  0  0  0  0
  182.4050  173.6110  136.3440 C   0  0  0  0  0  0  0  0  0  0  0  0
  183.4230  172.6060  135.8990 C   0  0  2  0  0  3  0  0  0  0  0  0
  183.1310  170.4100  135.8520 C   0  0  0  0  0  1  0  0  0  0  0  0
  182.8030  171.5850  135.1720 O   0  0  0  0  0  0  0  0  0  0  0  0
  184.1400  172.0280  137.1100 C   0  0  0  0  0  2  0  0  0  0  0  0
  186.5300  172.6570  137.2220 C   0  0  0  0  0  1  0  0  0  0  0  0
  185.1320  173.0340  137.6630 C   0  0  0  0  0  2  0  0  0  0  0  0
  186.8780  178.8810  141.4710 C   0  0  0  0  0  2  0  0  0  0  0  0
  186.7060  178.7430  140.0820 O   0  0  0  0  0  0  0  0  0  0  0  0
  187.6480  177.8100  139.5900 C   0  0  2  0  0  3  0  0  0  0  0  0
  190.6830  176.4130  140.4310 N   0  0  0  0  0  0  0  0  0  0  0  0
  189.9700  177.8750  138.9020 O   0  0  0  0  0  0  0  0  0  0  0  0
  191.9030  176.3650  138.3250 C   0  0  0  0  0  1  0  0  0  0  0  0
  189.5780  177.1240  141.0560 C   0  0  0  0  0  2  0  0  0  0  0  0
  189.0980  178.1190  139.9930 C   0  0  2  0  0  3  0  0  0  0  0  0
  190.8510  176.8730  139.2420 C   0  0  0  0  0  0  0  0  0  0  0  0
  187.4620  177.4860  138.1310 C   0  0  0  0  0  0  0  0  0  0  0  0
  187.7530  177.0560  135.3540 C   0  0  0  0  0  2  0  0  0  0  0  0
  187.0310  178.4340  137.2960 C   0  0  0  0  0  3  0  0  0  0  0  0
  187.7770  176.1450  137.5950 C   0  0  0  0  0  3  0  0  0  0  0  0
  187.8630  175.9520  136.3120 N   0  0  0  0  0  0  0  0  0  0  0  0
  186.7650  178.1120  135.8530 C   0  0  0  0  0  2  0  0  0  0  0  0
  185.5340  177.7840  143.1760 O   0  0  0  0  0  0  0  0  0  0  0  0
  186.9210  178.3180  147.0690 N   0  0  0  0  0  0  0  0  0  0  0  0
  187.7090  177.6990  146.1500 C   0  0  0  0  0  3  0  0  0  0  0  0
  185.9790  177.9690  144.4880 C   0  0  0  0  0  0  0  0  0  0  0  0
  185.6800  178.7700  146.7490 C   0  0  0  0  0  3  0  0  0  0  0  0
  185.1870  178.6040  145.4530 C   0  0  0  0  0  3  0  0  0  0  0  0
  187.2520  177.5140  144.8430 C   0  0  0  0  0  3  0  0  0  0  0  0
  1  4  1  6  0  0  0
  1 39  1  0  0  0  0
  3  2  1  0  0  0  0
  4  3  2  0  0  0  0
  7  5  2  6  0  0  0
  7  6  1  0  0  0  0
  7  3  1  0  0  0  0
  8  7  1  0  0  0  0
  9  8  1  0  0  0  0
 10  9  1  0  0  0  0
 11 12  1  0  0  0  0
 11 10  1  1  0  0  0
 13 16  1  0  0  0  0
 13 11  1  0  0  0  0
 14 17  1  0  0  0  0
 14 12  1  0  0  0  0
 16 14  1  0  0  0  0
 17 15  2  0  0  0  0
 18 17  1  0  0  0  0
 18 21  1  1  0  0  0
 20 19  1  0  0  0  0
 20 18  1  0  0  0  0
 21 23  1  0  0  0  0
 22 23  1  0  0  0  0
 24  1  1  0  0  0  0
 25 24  1  0  0  0  0
 26 25  1  6  0  0  0
 27 30  1  0  0  0  0
 28 32  1  0  0  0  0
 28 31  1  0  0  0  0
 29 32  1  0  0  0  0
 31 26  1  6  0  0  0
 31 30  1  0  0  0  0
 32 27  2  0  0  0  0
 33 26  1  0  0  0  0
 34 38  1  0  0  0  0
 34 37  1  0  0  0  0
 35 33  2  0  0  0  0
 36 33  1  0  0  0  0
 37 36  2  0  0  0  0
 38 35  1  0  0  0  0
 39 42  1  0  0  0  0
 41 40  2  0  0  0  0
 42 45  2  0  0  0  0
 42 44  1  0  0  0  0
 43 40  1  0  0  0  0
 44 43  2  0  0  0  0
 45 41  1  0  0  0  0
M  END
>  <MODEL>
6

>  <REMARK>
 VINA RESULT:      -6.7      2.321      3.239
  Name = 
  17 active torsions:
  status: ('A' for Active; 'I' for Inactive)
    1  A    between atoms: C_1  and  C_27
    2  A    between atoms: C_1  and  O_32
    3  A    between atoms: C_1  and  C_35
    4  A    between atoms: C_5  and  C_29
    5  A    between atoms: O_7  and  C_16
    6  A    between atoms: O_7  and  C_31
    7  A    between atoms: C_11  and  C_41
    8  A    between atoms: O_12  and  C_18
    9  A    between atoms: O_12  and  C_41
   10  A    between atoms: O_13  and  C_24
   11  A    between atoms: O_13  and  P_26
   12  A    between atoms: C_16  and  C_18
   13  A    between atoms: C_16  and  C_28
   14  A    between atoms: C_21  and  P_26
   15  A    between atoms: C_24  and  C_29
   16  A    between atoms: C_27  and  C_40
   17  A    between atoms: C_37  and  C_41
                            x       y       z     vdW  Elec       q    Type
                         _______ _______ _______ _____ _____    ______ ____

>  <TORSDO>
F 17

$$$$
=
 OpenBabel11062414183D

 45 48  0  0  1  0  0  0  0  0999 V2000
  182.0320  178.4330  139.3190 C   0  0  2  0  0  3  0  0  0  0  0  0
  179.9050  177.5350  141.0530 F   0  0  0  0  0  0  0  0  0  0  0  0
  180.7950  178.4570  141.5060 C   0  0  0  0  0  0  0  0  0  0  0  0
  181.8010  178.8890  140.7360 C   0  0  0  0  0  3  0  0  0  0  0  0
  180.4220  180.5080  143.2230 O   0  0  0  0  0  0  0  0  0  0  0  0
  179.3970  178.2140  143.9560 O   0  0  0  0  0  1  0  0  0  0  0  0
  180.6820  179.0210  143.2000 P   0  0  1  0  0  0  0  0  0  0  0  0
  182.1650  178.6940  143.9600 O   0  0  0  0  0  0  0  0  0  0  0  0
  182.8490  179.9100  144.0330 C   0  0  0  0  0  2  0  0  0  0  0  0
  184.3420  179.6530  144.1690 C   0  0  0  0  0  2  0  0  0  0  0  0
  184.7070  178.2270  143.7680 C   0  0  2  0  0  3  0  0  0  0  0  0
  185.8120  177.7310  144.6840 C   0  0  0  0  0  2  0  0  0  0  0  0
  185.2930  178.1970  142.3570 C   0  0  0  0  0  2  0  0  0  0  0  0
  187.0260  177.7830  143.9000 N   0  0  0  0  0  0  0  0  0  0  0  0
  188.4440  177.1780  145.6520 O   0  0  0  0  0  0  0  0  0  0  0  0
  186.7990  178.1290  142.5130 C   0  0  0  0  0  2  0  0  0  0  0  0
  188.3250  177.5090  144.4410 C   0  0  0  0  0  0  0  0  0  0  0  0
  189.5430  177.6200  143.5770 C   0  0  2  0  0  3  0  0  0  0  0  0
  190.2950  175.6350  142.9400 C   0  0  0  0  0  1  0  0  0  0  0  0
  189.4770  176.6910  142.5340 O   0  0  0  0  0  0  0  0  0  0  0  0
  190.7910  177.3820  144.4140 C   0  0  0  0  0  2  0  0  0  0  0  0
  190.9600  179.8210  144.0320 C   0  0  0  0  0  1  0  0  0  0  0  0
  191.7470  178.5510  144.2740 C   0  0  0  0  0  2  0  0  0  0  0  0
  183.3480  178.9510  138.7510 C   0  0  0  0  0  2  0  0  0  0  0  0
  184.3450  177.9610  138.8020 O   0  0  0  0  0  0  0  0  0  0  0  0
  184.9660  177.8630  137.5350 C   0  0  2  0  0  3  0  0  0  0  0  0
  182.4960  175.4830  137.2030 N   0  0  0  0  0  0  0  0  0  0  0  0
  183.3850  177.0530  135.8880 O   0  0  0  0  0  0  0  0  0  0  0  0
  180.9490  176.4720  135.6040 C   0  0  0  0  0  1  0  0  0  0  0  0
  183.8920  175.5860  137.6050 C   0  0  0  0  0  2  0  0  0  0  0  0
  184.4840  176.6690  136.6970 C   0  0  2  0  0  3  0  0  0  0  0  0
  182.2780  176.3190  136.2510 C   0  0  0  0  0  0  0  0  0  0  0  0
  186.4620  178.0230  137.5880 C   0  0  0  0  0  0  0  0  0  0  0  0
  189.1220  178.9730  137.6560 C   0  0  0  0  0  2  0  0  0  0  0  0
  187.1650  178.0160  136.4530 C   0  0  0  0  0  3  0  0  0  0  0  0
  187.1700  178.2220  138.8710 C   0  0  0  0  0  3  0  0  0  0  0  0
  188.4080  178.6160  138.8860 N   0  0  0  0  0  0  0  0  0  0  0  0
  188.6650  178.0960  136.4880 C   0  0  0  0  0  2  0  0  0  0  0  0
  180.9390  178.7770  138.4700 O   0  0  0  0  0  0  0  0  0  0  0  0
  180.6790  182.4530  136.5240 N   0  0  0  0  0  0  0  0  0  0  0  0
  180.7150  182.4100  137.8820 C   0  0  0  0  0  3  0  0  0  0  0  0
  180.8470  180.0010  137.7980 C   0  0  0  0  0  0  0  0  0  0  0  0
  180.7250  181.3180  135.7760 C   0  0  0  0  0  3  0  0  0  0  0  0
  180.8100  180.0720  136.4000 C   0  0  0  0  0  3  0  0  0  0  0  0
  180.8000  181.1820  138.5430 C   0  0  0  0  0  3  0  0  0  0  0  0
  1 24  1  6  0  0  0
  1  4  1  0  0  0  0
  2  3  1  0  0  0  0
  3  7  1  0  0  0  0
  4  3  2  0  0  0  0
  7  5  2  1  0  0  0
  7  6  1  0  0  0  0
  7  8  1  0  0  0  0
  8  9  1  0  0  0  0
  9 10  1  0  0  0  0
 11 10  1  1  0  0  0
 11 12  1  0  0  0  0
 13 16  1  0  0  0  0
 13 11  1  0  0  0  0
 14 17  1  0  0  0  0
 14 12  1  0  0  0  0
 16 14  1  0  0  0  0
 17 15  2  0  0  0  0
 18 21  1  1  0  0  0
 18 17  1  0  0  0  0
 20 19  1  0  0  0  0
 20 18  1  0  0  0  0
 22 23  1  0  0  0  0
 23 21  1  0  0  0  0
 24 25  1  0  0  0  0
 26 33  1  0  0  0  0
 26 25  1  1  0  0  0
 27 30  1  0  0  0  0
 28 32  1  0  0  0  0
 28 31  1  0  0  0  0
 29 32  1  0  0  0  0
 31 26  1  1  0  0  0
 31 30  1  0  0  0  0
 32 27  2  0  0  0  0
 33 36  1  0  0  0  0
 34 37  1  0  0  0  0
 35 38  1  0  0  0  0
 35 33  2  0  0  0  0
 36 37  2  0  0  0  0
 38 34  1  0  0  0  0
 39  1  1  0  0  0  0
 40 41  1  0  0  0  0
 41 45  2  0  0  0  0
 42 39  1  0  0  0  0
 42 45  1  0  0  0  0
 43 44  1  0  0  0  0
 43 40  2  0  0  0  0
 44 42  2  0  0  0  0
M  END
>  <MODEL>
7

>  <REMARK>
 VINA RESULT:      -6.6      3.007      8.317
  Name = 
  17 active torsions:
  status: ('A' for Active; 'I' for Inactive)
    1  A    between atoms: C_1  and  C_27
    2  A    between atoms: C_1  and  O_32
    3  A    between atoms: C_1  and  C_35
    4  A    between atoms: C_5  and  C_29
    5  A    between atoms: O_7  and  C_16
    6  A    between atoms: O_7  and  C_31
    7  A    between atoms: C_11  and  C_41
    8  A    between atoms: O_12  and  C_18
    9  A    between atoms: O_12  and  C_41
   10  A    between atoms: O_13  and  C_24
   11  A    between atoms: O_13  and  P_26
   12  A    between atoms: C_16  and  C_18
   13  A    between atoms: C_16  and  C_28
   14  A    between atoms: C_21  and  P_26
   15  A    between atoms: C_24  and  C_29
   16  A    between atoms: C_27  and  C_40
   17  A    between atoms: C_37  and  C_41
                            x       y       z     vdW  Elec       q    Type
                         _______ _______ _______ _____ _____    ______ ____

>  <TORSDO>
F 17

$$$$
=
 OpenBabel11062414183D

 45 48  0  0  1  0  0  0  0  0999 V2000
  182.5730  177.2540  139.7140 C   0  0  2  0  0  3  0  0  0  0  0  0
  180.5700  179.2130  140.4110 F   0  0  0  0  0  0  0  0  0  0  0  0
  181.3130  178.6350  141.3930 C   0  0  0  0  0  0  0  0  0  0  0  0
  182.2410  177.7150  141.1100 C   0  0  0  0  0  3  0  0  0  0  0  0
  180.5600  180.4850  143.2100 O   0  0  0  0  0  0  0  0  0  0  0  0
  179.6890  178.0550  143.6380 O   0  0  0  0  0  1  0  0  0  0  0  0
  180.9640  179.0350  143.1000 P   0  0  1  0  0  0  0  0  0  0  0  0
  182.3810  178.7720  143.9990 O   0  0  0  0  0  0  0  0  0  0  0  0
  183.0830  179.9800  143.9920 C   0  0  0  0  0  2  0  0  0  0  0  0
  184.5750  179.7090  144.1040 C   0  0  0  0  0  2  0  0  0  0  0  0
  184.9040  178.2460  143.8240 C   0  0  2  0  0  3  0  0  0  0  0  0
  185.8730  177.7530  144.8840 C   0  0  0  0  0  2  0  0  0  0  0  0
  185.6390  178.1030  142.4920 C   0  0  0  0  0  2  0  0  0  0  0  0
  187.1670  177.6990  144.2400 N   0  0  0  0  0  0  0  0  0  0  0  0
  188.3490  177.1330  146.1720 O   0  0  0  0  0  0  0  0  0  0  0  0
  187.1130  177.9720  142.8200 C   0  0  0  0  0  2  0  0  0  0  0  0
  188.3810  177.3960  144.9380 C   0  0  0  0  0  0  0  0  0  0  0  0
  189.6910  177.3960  144.2120 C   0  0  2  0  0  3  0  0  0  0  0  0
  190.1340  176.3930  142.2860 C   0  0  0  0  0  1  0  0  0  0  0  0
  189.9240  176.1400  143.6440 O   0  0  0  0  0  0  0  0  0  0  0  0
  190.8130  177.7530  145.1750 C   0  0  0  0  0  2  0  0  0  0  0  0
  191.6900  176.3640  147.0250 C   0  0  0  0  0  1  0  0  0  0  0  0
  191.6220  176.5170  145.5210 C   0  0  0  0  0  2  0  0  0  0  0  0
  183.4660  178.2420  138.9740 C   0  0  0  0  0  2  0  0  0  0  0  0
  184.8250  177.9420  139.1730 O   0  0  0  0  0  0  0  0  0  0  0  0
  185.4790  177.9010  137.9200 C   0  0  2  0  0  3  0  0  0  0  0  0
  185.9040  176.3870  134.8540 N   0  0  0  0  0  0  0  0  0  0  0  0
  186.2590  175.8090  136.9810 O   0  0  0  0  0  0  0  0  0  0  0  0
  187.7910  174.8890  135.2040 C   0  0  0  0  0  1  0  0  0  0  0  0
  184.8710  177.0680  135.6220 C   0  0  0  0  0  2  0  0  0  0  0  0
  185.1330  176.6640  137.0770 C   0  0  2  0  0  3  0  0  0  0  0  0
  186.6390  175.7080  135.6610 C   0  0  0  0  0  0  0  0  0  0  0  0
  186.9520  178.2070  138.0030 C   0  0  0  0  0  0  0  0  0  0  0  0
  189.7740  178.1790  137.8800 C   0  0  0  0  0  2  0  0  0  0  0  0
  187.6290  177.8840  139.1070 C   0  0  0  0  0  3  0  0  0  0  0  0
  187.6730  178.8300  136.8730 C   0  0  0  0  0  3  0  0  0  0  0  0
  188.9730  178.8500  136.8520 N   0  0  0  0  0  0  0  0  0  0  0  0
  189.0800  178.2490  139.2430 C   0  0  0  0  0  2  0  0  0  0  0  0
  181.3960  176.9660  138.9610 O   0  0  0  0  0  0  0  0  0  0  0  0
  179.9910  173.1000  138.2920 N   0  0  0  0  0  0  0  0  0  0  0  0
  179.5160  173.8180  139.3440 C   0  0  0  0  0  3  0  0  0  0  0  0
  180.9410  175.6650  138.7220 C   0  0  0  0  0  0  0  0  0  0  0  0
  180.9220  173.6140  137.4440 C   0  0  0  0  0  3  0  0  0  0  0  0
  181.4130  174.9050  137.6440 C   0  0  0  0  0  3  0  0  0  0  0  0
  179.9830  175.1140  139.5770 C   0  0  0  0  0  3  0  0  0  0  0  0
  1 24  1  6  0  0  0
  1  4  1  0  0  0  0
  2  3  1  0  0  0  0
  3  7  1  0  0  0  0
  4  3  2  0  0  0  0
  7  5  2  1  0  0  0
  7  6  1  0  0  0  0
  7  8  1  0  0  0  0
  9  8  1  0  0  0  0
  9 10  1  0  0  0  0
 11 10  1  1  0  0  0
 11 12  1  0  0  0  0
 13 16  1  0  0  0  0
 13 11  1  0  0  0  0
 14 12  1  0  0  0  0
 14 17  1  0  0  0  0
 16 14  1  0  0  0  0
 17 15  2  0  0  0  0
 18 17  1  0  0  0  0
 18 21  1  1  0  0  0
 19 20  1  0  0  0  0
 20 18  1  0  0  0  0
 21 23  1  0  0  0  0
 23 22  1  0  0  0  0
 24 25  1  0  0  0  0
 26 33  1  0  0  0  0
 26 25  1  1  0  0  0
 27 30  1  0  0  0  0
 27 32  2  0  0  0  0
 28 31  1  0  0  0  0
 29 32  1  0  0  0  0
 30 31  1  0  0  0  0
 31 26  1  1  0  0  0
 32 28  1  0  0  0  0
 33 35  2  0  0  0  0
 34 38  1  0  0  0  0
 35 38  1  0  0  0  0
 36 33  1  0  0  0  0
 37 36  2  0  0  0  0
 37 34  1  0  0  0  0
 39  1  1  0  0  0  0
 40 41  1  0  0  0  0
 41 45  2  0  0  0  0
 42 39  1  0  0  0  0
 42 45  1  0  0  0  0
 43 44  1  0  0  0  0
 43 40  2  0  0  0  0
 44 42  2  0  0  0  0
M  END
>  <MODEL>
8

>  <REMARK>
 VINA RESULT:      -6.6      2.595      7.924
  Name = 
  17 active torsions:
  status: ('A' for Active; 'I' for Inactive)
    1  A    between atoms: C_1  and  C_27
    2  A    between atoms: C_1  and  O_32
    3  A    between atoms: C_1  and  C_35
    4  A    between atoms: C_5  and  C_29
    5  A    between atoms: O_7  and  C_16
    6  A    between atoms: O_7  and  C_31
    7  A    between atoms: C_11  and  C_41
    8  A    between atoms: O_12  and  C_18
    9  A    between atoms: O_12  and  C_41
   10  A    between atoms: O_13  and  C_24
   11  A    between atoms: O_13  and  P_26
   12  A    between atoms: C_16  and  C_18
   13  A    between atoms: C_16  and  C_28
   14  A    between atoms: C_21  and  P_26
   15  A    between atoms: C_24  and  C_29
   16  A    between atoms: C_27  and  C_40
   17  A    between atoms: C_37  and  C_41
                            x       y       z     vdW  Elec       q    Type
                         _______ _______ _______ _____ _____    ______ ____

>  <TORSDO>
F 17

$$$$
=
 OpenBabel11062414183D

 45 48  0  0  1  0  0  0  0  0999 V2000
  186.6610  177.8870  144.1670 C   0  0  2  0  0  3  0  0  0  0  0  0
  184.4330  178.9050  145.6960 F   0  0  0  0  0  0  0  0  0  0  0  0
  184.2700  178.6330  144.3740 C   0  0  0  0  0  0  0  0  0  0  0  0
  185.2830  178.1720  143.6300 C   0  0  0  0  0  3  0  0  0  0  0  0
  181.6000  178.2440  144.2870 O   0  0  0  0  0  1  0  0  0  0  0  0
  182.4110  180.6670  143.7250 O   0  0  0  0  0  0  0  0  0  0  0  0
  182.7050  179.0030  143.5930 P   0  0  1  0  0  0  0  0  0  0  0  0
  182.7990  178.5080  141.9710 O   0  0  0  0  0  0  0  0  0  0  0  0
  181.5110  178.6270  141.4450 C   0  0  0  0  0  2  0  0  0  0  0  0
  181.5440  179.4860  140.1900 C   0  0  0  0  0  2  0  0  0  0  0  0
  180.5900  178.9610  139.1230 C   0  0  2  0  0  3  0  0  0  0  0  0
  180.3930  177.4700  139.3350 C   0  0  0  0  0  2  0  0  0  0  0  0
  181.2050  179.1040  137.7310 C   0  0  0  0  0  2  0  0  0  0  0  0
  181.1810  176.8190  138.3110 N   0  0  0  0  0  0  0  0  0  0  0  0
  180.7990  174.6510  139.0860 O   0  0  0  0  0  0  0  0  0  0  0  0
  181.7590  177.7430  137.3590 C   0  0  0  0  0  2  0  0  0  0  0  0
  181.3620  175.4000  138.2410 C   0  0  0  0  0  0  0  0  0  0  0  0
  182.2240  174.7990  137.1730 C   0  0  2  0  0  3  0  0  0  0  0  0
  180.8030  174.0570  135.6420 C   0  0  0  0  0  1  0  0  0  0  0  0
  181.6330  173.6310  136.6810 O   0  0  0  0  0  0  0  0  0  0  0  0
  183.6030  174.4930  137.7360 C   0  0  0  0  0  2  0  0  0  0  0  0
  185.5730  173.0020  137.5930 C   0  0  0  0  0  1  0  0  0  0  0  0
  184.1500  173.2180  137.1230 C   0  0  0  0  0  2  0  0  0  0  0  0
  187.5090  177.0830  143.1890 C   0  0  0  0  0  2  0  0  0  0  0  0
  188.4550  177.9030  142.5480 O   0  0  0  0  0  0  0  0  0  0  0  0
  189.0190  177.1960  141.4600 C   0  0  2  0  0  3  0  0  0  0  0  0
  191.6830  177.3320  143.6410 N   0  0  0  0  0  0  0  0  0  0  0  0
  190.6720  175.7330  142.4560 O   0  0  0  0  0  0  0  0  0  0  0  0
  191.6960  175.1300  144.6790 C   0  0  0  0  0  1  0  0  0  0  0  0
  191.2050  177.9850  142.4310 C   0  0  0  0  0  2  0  0  0  0  0  0
  190.5110  176.8750  141.6330 C   0  0  2  0  0  3  0  0  0  0  0  0
  191.3580  176.0890  143.5960 C   0  0  0  0  0  0  0  0  0  0  0  0
  188.6580  177.7770  140.1190 C   0  0  0  0  0  0  0  0  0  0  0  0
  187.8020  178.2390  137.4670 C   0  0  0  0  0  2  0  0  0  0  0  0
  189.5830  177.8390  139.1580 C   0  0  0  0  0  3  0  0  0  0  0  0
  187.2880  178.2530  139.8300 C   0  0  0  0  0  3  0  0  0  0  0  0
  186.9220  178.5050  138.6080 N   0  0  0  0  0  0  0  0  0  0  0  0
  189.2660  178.4850  137.8390 C   0  0  0  0  0  2  0  0  0  0  0  0
  186.6080  177.2490  145.4420 O   0  0  0  0  0  0  0  0  0  0  0  0
  189.4590  177.9180  148.4070 N   0  0  0  0  0  0  0  0  0  0  0  0
  189.8350  177.3730  147.2200 C   0  0  0  0  0  3  0  0  0  0  0  0
  187.5490  177.4780  146.4510 C   0  0  0  0  0  0  0  0  0  0  0  0
  188.1650  178.2530  148.6560 C   0  0  0  0  0  3  0  0  0  0  0  0
  187.1870  178.0390  147.6830 C   0  0  0  0  0  3  0  0  0  0  0  0
  188.8860  177.1430  146.2200 C   0  0  0  0  0  3  0  0  0  0  0  0
  1 24  1  6  0  0  0
  1 39  1  0  0  0  0
  3  2  1  0  0  0  0
  4  1  1  0  0  0  0
  4  3  2  0  0  0  0
  7  6  2  1  0  0  0
  7  5  1  0  0  0  0
  7  3  1  0  0  0  0
  8  7  1  0  0  0  0
  9  8  1  0  0  0  0
 10  9  1  0  0  0  0
 11 12  1  0  0  0  0
 11 10  1  1  0  0  0
 13 11  1  0  0  0  0
 14 12  1  0  0  0  0
 16 13  1  0  0  0  0
 16 14  1  0  0  0  0
 17 14  1  0  0  0  0
 17 15  2  0  0  0  0
 18 21  1  1  0  0  0
 18 17  1  0  0  0  0
 19 20  1  0  0  0  0
 20 18  1  0  0  0  0
 23 22  1  0  0  0  0
 23 21  1  0  0  0  0
 25 24  1  0  0  0  0
 26 25  1  1  0  0  0
 28 32  1  0  0  0  0
 30 27  1  0  0  0  0
 31 26  1  1  0  0  0
 31 30  1  0  0  0  0
 31 28  1  0  0  0  0
 32 27  2  0  0  0  0
 32 29  1  0  0  0  0
 33 26  1  0  0  0  0
 34 38  1  0  0  0  0
 34 37  1  0  0  0  0
 35 33  2  0  0  0  0
 36 33  1  0  0  0  0
 37 36  2  0  0  0  0
 38 35  1  0  0  0  0
 39 42  1  0  0  0  0
 40 43  1  0  0  0  0
 41 40  2  0  0  0  0
 42 44  1  0  0  0  0
 44 43  2  0  0  0  0
 45 42  2  0  0  0  0
 45 41  1  0  0  0  0
M  END
>  <MODEL>
9

>  <REMARK>
 VINA RESULT:      -6.6      2.438      3.500
  Name = 
  17 active torsions:
  status: ('A' for Active; 'I' for Inactive)
    1  A    between atoms: C_1  and  C_27
    2  A    between atoms: C_1  and  O_32
    3  A    between atoms: C_1  and  C_35
    4  A    between atoms: C_5  and  C_29
    5  A    between atoms: O_7  and  C_16
    6  A    between atoms: O_7  and  C_31
    7  A    between atoms: C_11  and  C_41
    8  A    between atoms: O_12  and  C_18
    9  A    between atoms: O_12  and  C_41
   10  A    between atoms: O_13  and  C_24
   11  A    between atoms: O_13  and  P_26
   12  A    between atoms: C_16  and  C_18
   13  A    between atoms: C_16  and  C_28
   14  A    between atoms: C_21  and  P_26
   15  A    between atoms: C_24  and  C_29
   16  A    between atoms: C_27  and  C_40
   17  A    between atoms: C_37  and  C_41
                            x       y       z     vdW  Elec       q    Type
                         _______ _______ _______ _____ _____    ______ ____

>  <TORSDO>
F 17

$$$$
