=
 OpenBabel11062417293D

 47 51  0  0  1  0  0  0  0  0999 V2000
  189.0100  177.6740  144.8330 C   0  0  2  0  0  3  0  0  0  0  0  0
  191.7280  177.4010  146.3020 C   0  0  0  0  0  2  0  0  0  0  0  0
  190.4020  177.6000  144.1780 C   0  0  1  0  0  3  0  0  0  0  0  0
  189.6530  176.0060  146.7970 C   0  0  0  0  0  2  0  0  0  0  0  0
  190.9970  176.5240  147.3140 C   0  0  1  0  0  3  0  0  0  0  0  0
  188.7410  177.1050  146.2450 C   0  0  1  0  0  3  0  0  0  0  0  0
  191.5380  176.8720  144.8910 C   0  0  0  0  0  2  0  0  0  0  0  0
  189.3250  176.5830  143.8300 C   0  0  2  0  0  3  0  0  0  0  0  0
  191.8020  175.4420  147.6650 O   0  0  0  0  0  1  0  0  0  0  0  0
  188.7080  176.9350  142.4910 C   0  0  0  0  0  2  0  0  0  0  0  0
  189.6640  177.5710  141.6970 O   0  0  0  0  0  0  0  0  0  0  0  0
  188.9410  178.2750  140.7300 C   0  0  2  0  0  3  0  0  0  0  0  0
  187.7810  178.8080  141.2960 O   0  0  0  0  0  1  0  0  0  0  0  0
  188.5870  177.3570  139.5610 C   0  0  0  0  0  2  0  0  0  0  0  0
  188.9840  179.1940  138.0670 O   0  0  0  0  0  1  0  0  0  0  0  0
  188.1220  178.1250  138.3230 C   0  0  1  0  0  3  0  0  0  0  0  0
  189.2490  176.8210  136.5210 C   0  0  0  0  0  0  0  0  0  0  0  0
  183.7660  175.2760  134.8600 N   0  0  0  0  0  1  0  0  0  0  0  0
  186.7230  176.8930  136.6270 C   0  0  0  0  0  0  0  0  0  0  0  0
  184.7630  175.9800  135.5930 C   0  0  0  0  0  0  0  0  0  0  0  0
  186.4130  175.6970  135.4690 S   0  0  0  0  0  0  0  0  0  0  0  0
  184.4800  176.9400  136.4950 N   0  0  0  0  0  0  0  0  0  0  0  0
  188.0220  177.2560  137.1450 N   0  0  0  0  0  0  0  0  0  0  0  0
  189.2490  176.3550  135.3510 O   0  0  0  0  0  0  0  0  0  0  0  0
  185.5690  177.4430  137.0740 N   0  0  0  0  0  0  0  0  0  0  0  0
  190.5540  176.9160  137.2440 C   0  0  0  0  0  2  0  0  0  0  0  0
  191.1680  175.5620  137.3890 C   0  0  0  0  0  0  0  0  0  0  0  0
  190.9080  174.8760  138.3640 O   0  0  0  0  0  0  0  0  0  0  0  0
  192.6810  173.7130  136.7630 C   0  0  0  0  0  1  0  0  0  0  0  0
  192.1420  175.0740  136.3670 C   0  0  0  0  0  2  0  0  0  0  0  0
  188.4440  178.4350  147.4570 S   0  0  0  0  0  0  0  0  0  0  0  0
  186.6470  178.4360  147.1870 C   0  0  0  0  0  2  0  0  0  0  0  0
  186.3440  177.7770  145.9650 O   0  0  0  0  0  0  0  0  0  0  0  0
  183.1670  179.0210  143.5160 C   0  0  0  0  0  3  0  0  0  0  0  0
  184.3190  178.4800  142.9240 C   0  0  0  0  0  0  0  0  0  0  0  0
  183.0800  179.1390  144.9050 C   0  0  0  0  0  3  0  0  0  0  0  0
  184.1420  178.7200  145.7100 C   0  0  0  0  0  3  0  0  0  0  0  0
  185.3780  178.0630  143.7360 C   0  0  0  0  0  3  0  0  0  0  0  0
  185.2960  178.1800  145.1330 C   0  0  0  0  0  0  0  0  0  0  0  0
  184.4380  178.3610  141.5040 N   0  0  0  0  0  2  0  0  0  0  0  0
  183.6670  179.5580  139.2390 S   0  0  0  0  0  0  0  0  0  0  0  0
  183.3010  178.4070  140.5960 C   0  0  1  0  0  3  0  0  0  0  0  0
  181.6820  176.9780  139.3460 C   0  0  0  0  0  2  0  0  0  0  0  0
  181.5450  177.9920  138.3040 N   0  0  0  0  0  2  0  0  0  0  0  0
  181.2830  180.5810  137.8100 S   0  0  0  0  0  0  0  0  0  0  0  0
  183.0550  177.0240  140.0050 C   0  0  0  0  0  2  0  0  0  0  0  0
  182.0690  179.3110  138.4650 C   0  0  0  0  0  0  0  0  0  0  0  0
  1  6  1  0  0  0  0
  2  5  1  0  0  0  0
  3  1  1  0  0  0  0
  3  7  1  0  0  0  0
  4  5  1  0  0  0  0
  5  9  1  0  0  0  0
  6  4  1  0  0  0  0
  6 31  1  0  0  0  0
  7  2  1  0  0  0  0
  8  3  1  0  0  0  0
  8  1  1  0  0  0  0
 10  8  1  0  0  0  0
 11 10  1  0  0  0  0
 12 13  1  0  0  0  0
 12 11  1  0  0  0  0
 14 12  1  0  0  0  0
 15 16  1  0  0  0  0
 16 14  1  0  0  0  0
 17 23  1  0  0  0  0
 17 26  1  0  0  0  0
 18 20  1  0  0  0  0
 19 25  2  0  0  0  0
 19 23  1  0  0  0  0
 20 22  2  0  0  0  0
 21 20  1  0  0  0  0
 21 19  1  0  0  0  0
 22 25  1  0  0  0  0
 23 16  1  0  0  0  0
 24 17  2  0  0  0  0
 26 27  1  0  0  0  0
 27 28  2  0  0  0  0
 30 29  1  0  0  0  0
 30 27  1  0  0  0  0
 32 31  1  0  0  0  0
 33 32  1  0  0  0  0
 34 36  1  0  0  0  0
 35 34  2  0  0  0  0
 35 38  1  0  0  0  0
 36 37  2  0  0  0  0
 38 39  2  0  0  0  0
 39 37  1  0  0  0  0
 39 33  1  0  0  0  0
 40 35  1  0  0  0  0
 41 42  1  0  0  0  0
 42 40  1  0  0  0  0
 43 46  1  0  0  0  0
 44 47  1  0  0  0  0
 44 43  1  0  0  0  0
 45 47  2  0  0  0  0
 46 42  1  0  0  0  0
 47 41  1  0  0  0  0
M  END
>  <MODEL>
1

>  <REMARK>
 VINA RESULT:      -7.7      0.000      0.000
  Name = 
  15 active torsions:
  status: ('A' for Active; 'I' for Inactive)
    1  A    between atoms: C_1  and  C_41
    2  A    between atoms: C_4  and  N_44
    3  A    between atoms: C_7  and  N_44
    4  A    between atoms: O_8  and  C_11
    5  A    between atoms: O_8  and  C_40
    6  A    between atoms: C_11  and  S_26
    7  A    between atoms: C_13  and  C_41
    8  A    between atoms: C_13  and  C_42
    9  A    between atoms: C_15  and  C_34
   10  A    between atoms: C_15  and  N_36
   11  A    between atoms: C_21  and  C_34
   12  A    between atoms: C_21  and  O_39
   13  A    between atoms: C_24  and  C_38
   14  A    between atoms: C_24  and  O_39
   15  A    between atoms: S_26  and  C_30
                            x       y       z     vdW  Elec       q    Type
                         _______ _______ _______ _____ _____    ______ ____

>  <TORSDO>
F 15

$$$$
=
 OpenBabel11062417293D

 47 51  0  0  1  0  0  0  0  0999 V2000
  187.5820  178.0430  144.4160 C   0  0  2  0  0  3  0  0  0  0  0  0
  188.9910  178.1810  147.1750 C   0  0  0  0  0  2  0  0  0  0  0  0
  189.0940  177.9160  144.6790 C   0  0  1  0  0  3  0  0  0  0  0  0
  186.9080  176.8030  146.6660 C   0  0  0  0  0  2  0  0  0  0  0  0
  187.7640  177.4740  147.7420 C   0  0  1  0  0  3  0  0  0  0  0  0
  186.5330  177.7340  145.5090 C   0  0  1  0  0  3  0  0  0  0  0  0
  189.5870  177.3910  146.0240 C   0  0  0  0  0  2  0  0  0  0  0  0
  188.3320  176.8000  143.9790 C   0  0  2  0  0  3  0  0  0  0  0  0
  188.1630  176.5170  148.6740 O   0  0  0  0  0  1  0  0  0  0  0  0
  188.5930  176.8650  142.4870 C   0  0  0  0  0  2  0  0  0  0  0  0
  189.0440  178.1440  142.1550 O   0  0  0  0  0  0  0  0  0  0  0  0
  188.4660  178.4350  140.9160 C   0  0  2  0  0  3  0  0  0  0  0  0
  187.0820  178.5670  141.0540 O   0  0  0  0  0  1  0  0  0  0  0  0
  188.7960  177.3380  139.9060 C   0  0  0  0  0  2  0  0  0  0  0  0
  189.0950  179.1090  138.3140 O   0  0  0  0  0  1  0  0  0  0  0  0
  188.6370  177.7970  138.4560 C   0  0  1  0  0  3  0  0  0  0  0  0
  188.5610  176.2930  136.4680 C   0  0  0  0  0  0  0  0  0  0  0  0
  194.4100  175.7040  137.2820 N   0  0  0  0  0  1  0  0  0  0  0  0
  190.7460  176.6490  137.6920 C   0  0  0  0  0  0  0  0  0  0  0  0
  193.0800  176.1120  137.5850 C   0  0  0  0  0  0  0  0  0  0  0  0
  191.7610  175.8890  136.5690 S   0  0  0  0  0  0  0  0  0  0  0  0
  192.7420  176.7540  138.7200 N   0  0  0  0  0  0  0  0  0  0  0  0
  189.3350  176.9090  137.5200 N   0  0  0  0  0  0  0  0  0  0  0  0
  189.0030  175.2950  135.8400 O   0  0  0  0  0  0  0  0  0  0  0  0
  191.4460  177.0570  138.7770 N   0  0  0  0  0  0  0  0  0  0  0  0
  187.2110  176.8190  136.0990 C   0  0  0  0  0  2  0  0  0  0  0  0
  186.1420  176.0440  136.7960 C   0  0  0  0  0  0  0  0  0  0  0  0
  186.2250  174.8290  136.8770 O   0  0  0  0  0  0  0  0  0  0  0  0
  185.3450  178.1120  137.8880 C   0  0  0  0  0  1  0  0  0  0  0  0
  184.9480  176.7520  137.3460 C   0  0  0  0  0  2  0  0  0  0  0  0
  185.6970  179.2510  146.0810 S   0  0  0  0  0  0  0  0  0  0  0  0
  184.0980  178.7800  145.3560 C   0  0  0  0  0  2  0  0  0  0  0  0
  184.2040  178.7460  143.9390 O   0  0  0  0  0  0  0  0  0  0  0  0
  180.8110  178.8880  141.4690 C   0  0  0  0  0  3  0  0  0  0  0  0
  182.0720  178.6750  140.8910 C   0  0  0  0  0  0  0  0  0  0  0  0
  180.6890  179.0470  142.8510 C   0  0  0  0  0  3  0  0  0  0  0  0
  181.8240  178.9960  143.6640 C   0  0  0  0  0  3  0  0  0  0  0  0
  183.2040  178.6250  141.7100 C   0  0  0  0  0  3  0  0  0  0  0  0
  183.0880  178.7850  143.1000 C   0  0  0  0  0  0  0  0  0  0  0  0
  182.2260  178.5230  139.4770 N   0  0  0  0  0  2  0  0  0  0  0  0
  181.9280  180.9780  138.4560 S   0  0  0  0  0  0  0  0  0  0  0  0
  181.4150  179.2360  138.5010 C   0  0  1  0  0  3  0  0  0  0  0  0
  180.5370  179.1250  136.1670 C   0  0  0  0  0  2  0  0  0  0  0  0
  180.5150  180.5820  136.0750 N   0  0  0  0  0  2  0  0  0  0  0  0
  179.9110  182.8330  137.3340 S   0  0  0  0  0  0  0  0  0  0  0  0
  181.6230  178.6340  137.1170 C   0  0  0  0  0  2  0  0  0  0  0  0
  180.7030  181.4120  137.2220 C   0  0  0  0  0  0  0  0  0  0  0  0
  1  3  1  0  0  0  0
  1  6  1  0  0  0  0
  2  5  1  0  0  0  0
  3  7  1  0  0  0  0
  4  5  1  0  0  0  0
  5  9  1  0  0  0  0
  6 31  1  0  0  0  0
  6  4  1  0  0  0  0
  7  2  1  0  0  0  0
  8  1  1  0  0  0  0
  8  3  1  0  0  0  0
 10  8  1  0  0  0  0
 11 10  1  0  0  0  0
 12 13  1  0  0  0  0
 12 11  1  0  0  0  0
 14 12  1  0  0  0  0
 15 16  1  0  0  0  0
 16 14  1  0  0  0  0
 17 23  1  0  0  0  0
 18 20  1  0  0  0  0
 19 25  2  0  0  0  0
 20 22  2  0  0  0  0
 21 20  1  0  0  0  0
 21 19  1  0  0  0  0
 22 25  1  0  0  0  0
 23 19  1  0  0  0  0
 23 16  1  0  0  0  0
 24 17  2  0  0  0  0
 26 17  1  0  0  0  0
 26 27  1  0  0  0  0
 27 28  2  0  0  0  0
 27 30  1  0  0  0  0
 30 29  1  0  0  0  0
 32 31  1  0  0  0  0
 33 32  1  0  0  0  0
 34 36  1  0  0  0  0
 35 34  2  0  0  0  0
 35 38  1  0  0  0  0
 36 37  2  0  0  0  0
 38 39  2  0  0  0  0
 39 37  1  0  0  0  0
 39 33  1  0  0  0  0
 40 35  1  0  0  0  0
 41 42  1  0  0  0  0
 42 40  1  0  0  0  0
 43 46  1  0  0  0  0
 44 43  1  0  0  0  0
 44 47  1  0  0  0  0
 46 42  1  0  0  0  0
 47 45  2  0  0  0  0
 47 41  1  0  0  0  0
M  END
>  <MODEL>
2

>  <REMARK>
 VINA RESULT:      -7.6      2.321      4.066
  Name = 
  15 active torsions:
  status: ('A' for Active; 'I' for Inactive)
    1  A    between atoms: C_1  and  C_41
    2  A    between atoms: C_4  and  N_44
    3  A    between atoms: C_7  and  N_44
    4  A    between atoms: O_8  and  C_11
    5  A    between atoms: O_8  and  C_40
    6  A    between atoms: C_11  and  S_26
    7  A    between atoms: C_13  and  C_41
    8  A    between atoms: C_13  and  C_42
    9  A    between atoms: C_15  and  C_34
   10  A    between atoms: C_15  and  N_36
   11  A    between atoms: C_21  and  C_34
   12  A    between atoms: C_21  and  O_39
   13  A    between atoms: C_24  and  C_38
   14  A    between atoms: C_24  and  O_39
   15  A    between atoms: S_26  and  C_30
                            x       y       z     vdW  Elec       q    Type
                         _______ _______ _______ _____ _____    ______ ____

>  <TORSDO>
F 15

$$$$
=
 OpenBabel11062417293D

 47 51  0  0  1  0  0  0  0  0999 V2000
  188.8510  178.0190  142.4630 C   0  0  2  0  0  3  0  0  0  0  0  0
  191.7810  177.4200  143.2860 C   0  0  0  0  0  2  0  0  0  0  0  0
  190.1060  178.2150  141.5910 C   0  0  1  0  0  3  0  0  0  0  0  0
  189.8090  175.8500  143.6610 C   0  0  0  0  0  2  0  0  0  0  0  0
  191.2280  176.2400  144.0790 C   0  0  1  0  0  3  0  0  0  0  0  0
  188.8270  177.0250  143.6480 C   0  0  1  0  0  3  0  0  0  0  0  0
  191.3400  177.3520  141.8350 C   0  0  0  0  0  2  0  0  0  0  0  0
  188.9720  177.3110  141.1290 C   0  0  2  0  0  3  0  0  0  0  0  0
  192.0690  175.1390  143.9280 O   0  0  0  0  0  1  0  0  0  0  0  0
  188.1350  178.0360  140.0940 C   0  0  0  0  0  2  0  0  0  0  0  0
  188.7730  177.9660  138.8540 O   0  0  0  0  0  0  0  0  0  0  0  0
  187.7470  177.9030  137.9070 C   0  0  2  0  0  3  0  0  0  0  0  0
  186.5900  178.4980  138.4170 O   0  0  0  0  0  1  0  0  0  0  0  0
  187.4710  176.4520  137.5200 C   0  0  0  0  0  2  0  0  0  0  0  0
  188.2310  177.2800  135.3990 O   0  0  0  0  0  1  0  0  0  0  0  0
  187.5840  176.2070  136.0140 C   0  0  1  0  0  3  0  0  0  0  0  0
  189.7230  174.9780  135.6450 C   0  0  0  0  0  0  0  0  0  0  0  0
  186.3020  170.1730  134.9950 N   0  0  0  0  0  1  0  0  0  0  0  0
  187.5200  173.7480  135.4660 C   0  0  0  0  0  0  0  0  0  0  0  0
  186.6020  171.5570  135.1490 C   0  0  0  0  0  0  0  0  0  0  0  0
  188.1450  172.1760  135.3830 S   0  0  0  0  0  0  0  0  0  0  0  0
  185.6620  172.5230  135.1530 N   0  0  0  0  0  0  0  0  0  0  0  0
  188.2810  174.9510  135.7140 N   0  0  0  0  0  0  0  0  0  0  0  0
  190.3610  174.0450  135.0900 O   0  0  0  0  0  0  0  0  0  0  0  0
  186.1720  173.7390  135.3350 N   0  0  0  0  0  0  0  0  0  0  0  0
  190.4980  176.1190  136.2240 C   0  0  0  0  0  2  0  0  0  0  0  0
  191.2700  175.6670  137.4200 C   0  0  0  0  0  0  0  0  0  0  0  0
  190.6860  175.1930  138.3800 O   0  0  0  0  0  0  0  0  0  0  0  0
  193.1500  176.6680  138.6730 C   0  0  0  0  0  1  0  0  0  0  0  0
  192.7530  175.8490  137.4600 C   0  0  0  0  0  2  0  0  0  0  0  0
  188.7630  177.8950  145.2490 S   0  0  0  0  0  0  0  0  0  0  0  0
  187.0280  177.4490  145.5520 C   0  0  0  0  0  2  0  0  0  0  0  0
  186.2070  178.6040  145.4410 O   0  0  0  0  0  0  0  0  0  0  0  0
  182.8040  178.7790  142.9870 C   0  0  0  0  0  3  0  0  0  0  0  0
  184.0560  178.5230  142.4070 C   0  0  0  0  0  0  0  0  0  0  0  0
  182.6940  178.9680  144.3660 C   0  0  0  0  0  3  0  0  0  0  0  0
  183.8320  178.9060  145.1730 C   0  0  0  0  0  3  0  0  0  0  0  0
  185.1910  178.4620  143.2200 C   0  0  0  0  0  3  0  0  0  0  0  0
  185.0870  178.6530  144.6070 C   0  0  0  0  0  0  0  0  0  0  0  0
  184.1970  178.3390  140.9950 N   0  0  0  0  0  2  0  0  0  0  0  0
  183.1990  179.6800  138.9060 S   0  0  0  0  0  0  0  0  0  0  0  0
  183.0700  178.2950  140.0750 C   0  0  1  0  0  3  0  0  0  0  0  0
  181.7570  176.7760  138.5920 C   0  0  0  0  0  2  0  0  0  0  0  0
  181.4220  177.8850  137.7040 N   0  0  0  0  0  2  0  0  0  0  0  0
  180.6570  180.4180  137.5790 S   0  0  0  0  0  0  0  0  0  0  0  0
  183.0970  176.9920  139.2860 C   0  0  0  0  0  2  0  0  0  0  0  0
  181.6780  179.2430  138.0650 C   0  0  0  0  0  0  0  0  0  0  0  0
  1  6  1  0  0  0  0
  2  5  1  0  0  0  0
  3  7  1  0  0  0  0
  3  1  1  0  0  0  0
  4  5  1  0  0  0  0
  6  4  1  0  0  0  0
  6 31  1  0  0  0  0
  7  2  1  0  0  0  0
  8  3  1  0  0  0  0
  8  1  1  0  0  0  0
  9  5  1  0  0  0  0
 10  8  1  0  0  0  0
 11 10  1  0  0  0  0
 12 13  1  0  0  0  0
 12 11  1  0  0  0  0
 14 12  1  0  0  0  0
 15 16  1  0  0  0  0
 16 14  1  0  0  0  0
 17 23  1  0  0  0  0
 17 26  1  0  0  0  0
 18 20  1  0  0  0  0
 19 23  1  0  0  0  0
 20 22  2  0  0  0  0
 20 21  1  0  0  0  0
 21 19  1  0  0  0  0
 22 25  1  0  0  0  0
 23 16  1  0  0  0  0
 24 17  2  0  0  0  0
 25 19  2  0  0  0  0
 26 27  1  0  0  0  0
 27 30  1  0  0  0  0
 27 28  2  0  0  0  0
 30 29  1  0  0  0  0
 31 32  1  0  0  0  0
 33 32  1  0  0  0  0
 34 36  1  0  0  0  0
 35 34  2  0  0  0  0
 35 38  1  0  0  0  0
 36 37  2  0  0  0  0
 38 39  2  0  0  0  0
 39 37  1  0  0  0  0
 39 33  1  0  0  0  0
 40 35  1  0  0  0  0
 41 42  1  0  0  0  0
 42 40  1  0  0  0  0
 43 46  1  0  0  0  0
 44 47  1  0  0  0  0
 44 43  1  0  0  0  0
 45 47  2  0  0  0  0
 46 42  1  0  0  0  0
 47 41  1  0  0  0  0
M  END
>  <MODEL>
3

>  <REMARK>
 VINA RESULT:      -7.6      2.024      2.598
  Name = 
  15 active torsions:
  status: ('A' for Active; 'I' for Inactive)
    1  A    between atoms: C_1  and  C_41
    2  A    between atoms: C_4  and  N_44
    3  A    between atoms: C_7  and  N_44
    4  A    between atoms: O_8  and  C_11
    5  A    between atoms: O_8  and  C_40
    6  A    between atoms: C_11  and  S_26
    7  A    between atoms: C_13  and  C_41
    8  A    between atoms: C_13  and  C_42
    9  A    between atoms: C_15  and  C_34
   10  A    between atoms: C_15  and  N_36
   11  A    between atoms: C_21  and  C_34
   12  A    between atoms: C_21  and  O_39
   13  A    between atoms: C_24  and  C_38
   14  A    between atoms: C_24  and  O_39
   15  A    between atoms: S_26  and  C_30
                            x       y       z     vdW  Elec       q    Type
                         _______ _______ _______ _____ _____    ______ ____

>  <TORSDO>
F 15

$$$$
=
 OpenBabel11062417293D

 47 51  0  0  1  0  0  0  0  0999 V2000
  188.9070  177.5810  143.2220 C   0  0  2  0  0  3  0  0  0  0  0  0
  191.3000  178.5010  144.9670 C   0  0  0  0  0  2  0  0  0  0  0  0
  190.2360  178.1720  142.7160 C   0  0  1  0  0  3  0  0  0  0  0  0
  190.0480  176.2980  145.2490 C   0  0  0  0  0  2  0  0  0  0  0  0
  190.9530  177.3450  145.9010 C   0  0  1  0  0  3  0  0  0  0  0  0
  188.7930  176.8900  144.6000 C   0  0  1  0  0  3  0  0  0  0  0  0
  191.5050  178.0060  143.5470 C   0  0  0  0  0  2  0  0  0  0  0  0
  189.7770  176.7950  142.2610 C   0  0  2  0  0  3  0  0  0  0  0  0
  192.1240  176.7290  146.3390 O   0  0  0  0  0  1  0  0  0  0  0  0
  189.1980  176.8880  140.8630 C   0  0  0  0  0  2  0  0  0  0  0  0
  188.7110  178.1790  140.6520 O   0  0  0  0  0  0  0  0  0  0  0  0
  188.3220  178.2190  139.3100 C   0  0  2  0  0  3  0  0  0  0  0  0
  186.9730  178.5670  139.2140 O   0  0  0  0  0  1  0  0  0  0  0  0
  188.5700  176.8660  138.6470 C   0  0  0  0  0  2  0  0  0  0  0  0
  189.3920  178.2260  136.8480 O   0  0  0  0  0  1  0  0  0  0  0  0
  188.8350  176.9800  137.1450 C   0  0  1  0  0  3  0  0  0  0  0  0
  189.0980  174.8350  135.9000 C   0  0  0  0  0  0  0  0  0  0  0  0
  194.8800  175.3880  137.1110 N   0  0  0  0  0  1  0  0  0  0  0  0
  191.1150  175.9200  136.9740 C   0  0  0  0  0  0  0  0  0  0  0  0
  193.4930  175.6990  137.1770 C   0  0  0  0  0  0  0  0  0  0  0  0
  192.3010  174.9310  136.2780 S   0  0  0  0  0  0  0  0  0  0  0  0
  192.9890  176.6750  137.9580 N   0  0  0  0  0  0  0  0  0  0  0  0
  189.7050  175.9030  136.6580 N   0  0  0  0  0  0  0  0  0  0  0  0
  189.6980  173.7420  135.7290 O   0  0  0  0  0  0  0  0  0  0  0  0
  191.6680  176.8010  137.8410 N   0  0  0  0  0  0  0  0  0  0  0  0
  187.7370  174.9960  135.3010 C   0  0  0  0  0  2  0  0  0  0  0  0
  186.7650  174.0780  135.9670 C   0  0  0  0  0  0  0  0  0  0  0  0
  186.6080  174.1300  137.1760 O   0  0  0  0  0  0  0  0  0  0  0  0
  184.9680  172.3830  136.0060 C   0  0  0  0  0  1  0  0  0  0  0  0
  186.0270  173.0620  135.1590 C   0  0  0  0  0  2  0  0  0  0  0  0
  187.8110  177.8880  145.7690 S   0  0  0  0  0  0  0  0  0  0  0  0
  186.2350  177.5080  144.9470 C   0  0  0  0  0  2  0  0  0  0  0  0
  185.6110  178.7130  144.5230 O   0  0  0  0  0  0  0  0  0  0  0  0
  182.0660  178.7850  142.2750 C   0  0  0  0  0  3  0  0  0  0  0  0
  183.2680  178.4220  141.6480 C   0  0  0  0  0  0  0  0  0  0  0  0
  182.0510  179.1140  143.6320 C   0  0  0  0  0  3  0  0  0  0  0  0
  183.2360  179.0850  144.3710 C   0  0  0  0  0  3  0  0  0  0  0  0
  184.4500  178.3950  142.3930 C   0  0  0  0  0  3  0  0  0  0  0  0
  184.4420  178.7250  143.7580 C   0  0  0  0  0  0  0  0  0  0  0  0
  183.3110  178.0940  140.2570 N   0  0  0  0  0  2  0  0  0  0  0  0
  181.0600  176.9080  139.4300 S   0  0  0  0  0  0  0  0  0  0  0  0
  182.8520  176.8220  139.7170 C   0  0  1  0  0  3  0  0  0  0  0  0
  183.3460  175.0860  137.9940 C   0  0  0  0  0  2  0  0  0  0  0  0
  181.9320  174.7350  137.9000 N   0  0  0  0  0  2  0  0  0  0  0  0
  179.7080  174.2790  139.2640 S   0  0  0  0  0  0  0  0  0  0  0  0
  183.5420  176.5450  138.3870 C   0  0  0  0  0  2  0  0  0  0  0  0
  180.9720  175.2180  138.8400 C   0  0  0  0  0  0  0  0  0  0  0  0
  1  6  1  0  0  0  0
  2  5  1  0  0  0  0
  3  1  1  0  0  0  0
  3  7  1  0  0  0  0
  4  5  1  0  0  0  0
  5  9  1  0  0  0  0
  6  4  1  0  0  0  0
  6 31  1  0  0  0  0
  7  2  1  0  0  0  0
  8  3  1  0  0  0  0
  8  1  1  0  0  0  0
 10  8  1  0  0  0  0
 11 10  1  0  0  0  0
 12 11  1  0  0  0  0
 13 12  1  0  0  0  0
 14 12  1  0  0  0  0
 15 16  1  0  0  0  0
 16 14  1  0  0  0  0
 17 23  1  0  0  0  0
 18 20  1  0  0  0  0
 19 25  2  0  0  0  0
 20 22  2  0  0  0  0
 21 19  1  0  0  0  0
 21 20  1  0  0  0  0
 23 19  1  0  0  0  0
 23 16  1  0  0  0  0
 24 17  2  0  0  0  0
 25 22  1  0  0  0  0
 26 17  1  0  0  0  0
 26 27  1  0  0  0  0
 27 28  2  0  0  0  0
 30 27  1  0  0  0  0
 30 29  1  0  0  0  0
 32 31  1  0  0  0  0
 33 32  1  0  0  0  0
 34 36  1  0  0  0  0
 35 34  2  0  0  0  0
 35 38  1  0  0  0  0
 36 37  2  0  0  0  0
 38 39  2  0  0  0  0
 39 37  1  0  0  0  0
 39 33  1  0  0  0  0
 40 35  1  0  0  0  0
 41 42  1  0  0  0  0
 42 40  1  0  0  0  0
 43 46  1  0  0  0  0
 44 43  1  0  0  0  0
 44 47  1  0  0  0  0
 46 42  1  0  0  0  0
 47 45  2  0  0  0  0
 47 41  1  0  0  0  0
M  END
>  <MODEL>
4

>  <REMARK>
 VINA RESULT:      -7.6      2.649      3.960
  Name = 
  15 active torsions:
  status: ('A' for Active; 'I' for Inactive)
    1  A    between atoms: C_1  and  C_41
    2  A    between atoms: C_4  and  N_44
    3  A    between atoms: C_7  and  N_44
    4  A    between atoms: O_8  and  C_11
    5  A    between atoms: O_8  and  C_40
    6  A    between atoms: C_11  and  S_26
    7  A    between atoms: C_13  and  C_41
    8  A    between atoms: C_13  and  C_42
    9  A    between atoms: C_15  and  C_34
   10  A    between atoms: C_15  and  N_36
   11  A    between atoms: C_21  and  C_34
   12  A    between atoms: C_21  and  O_39
   13  A    between atoms: C_24  and  C_38
   14  A    between atoms: C_24  and  O_39
   15  A    between atoms: S_26  and  C_30
                            x       y       z     vdW  Elec       q    Type
                         _______ _______ _______ _____ _____    ______ ____

>  <TORSDO>
F 15

$$$$
=
 OpenBabel11062417293D

 47 51  0  0  1  0  0  0  0  0999 V2000
  183.7540  177.5390  138.9770 C   0  0  2  0  0  3  0  0  0  0  0  0
  180.7150  177.7320  138.3860 C   0  0  0  0  0  2  0  0  0  0  0  0
  182.9830  176.7760  137.8830 C   0  0  1  0  0  3  0  0  0  0  0  0
  182.2630  179.7240  138.7480 C   0  0  0  0  0  2  0  0  0  0  0  0
  180.8230  179.2070  138.7590 C   0  0  1  0  0  3  0  0  0  0  0  0
  183.2310  178.8670  139.5690 C   0  0  1  0  0  3  0  0  0  0  0  0
  181.7100  177.3760  137.2950 C   0  0  0  0  0  2  0  0  0  0  0  0
  184.1510  177.6810  137.5220 C   0  0  2  0  0  3  0  0  0  0  0  0
  180.0550  179.9700  137.8800 O   0  0  0  0  0  1  0  0  0  0  0  0
  185.3820  176.8390  137.2480 C   0  0  0  0  0  2  0  0  0  0  0  0
  186.2790  177.5740  136.4700 O   0  0  0  0  0  0  0  0  0  0  0  0
  187.1360  178.2020  137.3780 C   0  0  2  0  0  3  0  0  0  0  0  0
  187.4400  179.4900  136.9330 O   0  0  0  0  0  1  0  0  0  0  0  0
  188.4140  177.3850  137.5510 C   0  0  0  0  0  2  0  0  0  0  0  0
  189.4900  177.4040  135.4050 O   0  0  0  0  0  1  0  0  0  0  0  0
  188.7880  176.5910  136.2980 C   0  0  1  0  0  3  0  0  0  0  0  0
  188.9190  174.1100  136.5050 C   0  0  0  0  0  0  0  0  0  0  0  0
  194.5870  175.0100  138.0140 N   0  0  0  0  0  1  0  0  0  0  0  0
  190.9370  175.5270  137.0710 C   0  0  0  0  0  0  0  0  0  0  0  0
  193.2440  175.3610  137.6980 C   0  0  0  0  0  0  0  0  0  0  0  0
  192.0620  174.2700  137.2170 S   0  0  0  0  0  0  0  0  0  0  0  0
  192.7840  176.6270  137.7250 N   0  0  0  0  0  0  0  0  0  0  0  0
  189.5700  175.3930  136.6200 N   0  0  0  0  0  0  0  0  0  0  0  0
  189.4040  173.0870  137.0580 O   0  0  0  0  0  0  0  0  0  0  0  0
  191.5030  176.7200  137.3710 N   0  0  0  0  0  0  0  0  0  0  0  0
  187.6480  173.9600  135.7320 C   0  0  0  0  0  2  0  0  0  0  0  0
  186.7910  172.9000  136.3410 C   0  0  0  0  0  0  0  0  0  0  0  0
  186.6810  171.8150  135.7940 O   0  0  0  0  0  0  0  0  0  0  0  0
  184.5350  173.0900  137.3310 C   0  0  0  0  0  1  0  0  0  0  0  0
  186.0260  173.1900  137.5920 C   0  0  0  0  0  2  0  0  0  0  0  0
  182.6810  178.6590  141.2960 S   0  0  0  0  0  0  0  0  0  0  0  0
  184.3320  178.9880  141.9810 C   0  0  0  0  0  2  0  0  0  0  0  0
  184.7350  177.9020  142.8060 O   0  0  0  0  0  0  0  0  0  0  0  0
  186.4040  178.4630  146.6170 C   0  0  0  0  0  3  0  0  0  0  0  0
  187.2260  178.0320  145.5650 C   0  0  0  0  0  0  0  0  0  0  0  0
  185.0470  178.7060  146.3950 C   0  0  0  0  0  3  0  0  0  0  0  0
  184.5030  178.5180  145.1220 C   0  0  0  0  0  3  0  0  0  0  0  0
  186.6750  177.8450  144.2940 C   0  0  0  0  0  3  0  0  0  0  0  0
  185.3110  178.0880  144.0650 C   0  0  0  0  0  0  0  0  0  0  0  0
  188.6160  177.7630  145.7700 N   0  0  0  0  0  2  0  0  0  0  0  0
  189.7100  178.3540  143.4010 S   0  0  0  0  0  0  0  0  0  0  0  0
  189.4770  177.1680  144.7570 C   0  0  1  0  0  3  0  0  0  0  0  0
  191.6130  175.9200  144.4300 C   0  0  0  0  0  2  0  0  0  0  0  0
  191.7830  176.5010  143.1020 N   0  0  0  0  0  2  0  0  0  0  0  0
  190.5700  177.1470  140.8370 S   0  0  0  0  0  0  0  0  0  0  0  0
  190.8390  176.8480  145.3600 C   0  0  0  0  0  2  0  0  0  0  0  0
  190.7360  177.2280  142.4580 C   0  0  0  0  0  0  0  0  0  0  0  0
  1  6  1  0  0  0  0
  2  5  1  0  0  0  0
  3  1  1  0  0  0  0
  4  5  1  0  0  0  0
  4  6  1  0  0  0  0
  6 31  1  0  0  0  0
  7  3  1  0  0  0  0
  7  2  1  0  0  0  0
  8  3  1  0  0  0  0
  8  1  1  0  0  0  0
  9  5  1  0  0  0  0
 10  8  1  0  0  0  0
 11 10  1  0  0  0  0
 11 12  1  0  0  0  0
 12 14  1  0  0  0  0
 13 12  1  0  0  0  0
 15 16  1  0  0  0  0
 16 23  1  0  0  0  0
 16 14  1  0  0  0  0
 17 23  1  0  0  0  0
 17 24  2  0  0  0  0
 19 21  1  0  0  0  0
 19 25  2  0  0  0  0
 20 22  2  0  0  0  0
 20 18  1  0  0  0  0
 21 20  1  0  0  0  0
 23 19  1  0  0  0  0
 25 22  1  0  0  0  0
 26 27  1  0  0  0  0
 26 17  1  0  0  0  0
 27 30  1  0  0  0  0
 28 27  2  0  0  0  0
 29 30  1  0  0  0  0
 31 32  1  0  0  0  0
 32 33  1  0  0  0  0
 33 39  1  0  0  0  0
 35 40  1  0  0  0  0
 35 34  2  0  0  0  0
 36 34  1  0  0  0  0
 37 36  2  0  0  0  0
 38 35  1  0  0  0  0
 39 38  2  0  0  0  0
 39 37  1  0  0  0  0
 41 42  1  0  0  0  0
 42 46  1  0  0  0  0
 42 40  1  0  0  0  0
 43 46  1  0  0  0  0
 44 43  1  0  0  0  0
 45 47  2  0  0  0  0
 47 44  1  0  0  0  0
 47 41  1  0  0  0  0
M  END
>  <MODEL>
5

>  <REMARK>
 VINA RESULT:      -7.5      3.342      7.703
  Name = 
  15 active torsions:
  status: ('A' for Active; 'I' for Inactive)
    1  A    between atoms: C_1  and  C_41
    2  A    between atoms: C_4  and  N_44
    3  A    between atoms: C_7  and  N_44
    4  A    between atoms: O_8  and  C_11
    5  A    between atoms: O_8  and  C_40
    6  A    between atoms: C_11  and  S_26
    7  A    between atoms: C_13  and  C_41
    8  A    between atoms: C_13  and  C_42
    9  A    between atoms: C_15  and  C_34
   10  A    between atoms: C_15  and  N_36
   11  A    between atoms: C_21  and  C_34
   12  A    between atoms: C_21  and  O_39
   13  A    between atoms: C_24  and  C_38
   14  A    between atoms: C_24  and  O_39
   15  A    between atoms: S_26  and  C_30
                            x       y       z     vdW  Elec       q    Type
                         _______ _______ _______ _____ _____    ______ ____

>  <TORSDO>
F 15

$$$$
=
 OpenBabel11062417293D

 47 51  0  0  1  0  0  0  0  0999 V2000
  185.2640  175.3480  136.2980 C   0  0  2  0  0  3  0  0  0  0  0  0
  183.6810  172.8180  135.4510 C   0  0  0  0  0  2  0  0  0  0  0  0
  183.8360  175.3110  135.7200 C   0  0  1  0  0  3  0  0  0  0  0  0
  184.9680  173.0730  137.6370 C   0  0  0  0  0  2  0  0  0  0  0  0
  184.3590  172.1070  136.6190 C   0  0  1  0  0  3  0  0  0  0  0  0
  185.8870  174.1260  137.0120 C   0  0  1  0  0  3  0  0  0  0  0  0
  182.9680  174.0730  135.9230 C   0  0  0  0  0  2  0  0  0  0  0  0
  184.1070  175.9360  137.0800 C   0  0  2  0  0  3  0  0  0  0  0  0
  183.4390  171.2810  137.2630 O   0  0  0  0  0  1  0  0  0  0  0  0
  184.1260  177.4460  136.9510 C   0  0  0  0  0  2  0  0  0  0  0  0
  183.4130  178.0070  138.0120 O   0  0  0  0  0  0  0  0  0  0  0  0
  184.1830  179.0880  138.4510 C   0  0  2  0  0  3  0  0  0  0  0  0
  185.5400  178.8120  138.2720 O   0  0  0  0  0  1  0  0  0  0  0  0
  183.8910  179.3850  139.9200 C   0  0  0  0  0  2  0  0  0  0  0  0
  183.5970  177.1260  140.6760 O   0  0  0  0  0  1  0  0  0  0  0  0
  182.9530  178.3590  140.5590 C   0  0  1  0  0  3  0  0  0  0  0  0
  181.0990  179.2700  141.9560 C   0  0  0  0  0  0  0  0  0  0  0  0
  184.9180  178.8200  146.4760 N   0  0  0  0  0  1  0  0  0  0  0  0
  183.3510  178.8010  143.0080 C   0  0  0  0  0  0  0  0  0  0  0  0
  184.4830  178.7930  145.1210 C   0  0  0  0  0  0  0  0  0  0  0  0
  182.8940  179.0110  144.6250 S   0  0  0  0  0  0  0  0  0  0  0  0
  185.3100  178.5560  144.0830 N   0  0  0  0  0  0  0  0  0  0  0  0
  182.4630  178.8050  141.8680 N   0  0  0  0  0  0  0  0  0  0  0  0
  180.7120  179.9530  142.9400 O   0  0  0  0  0  0  0  0  0  0  0  0
  184.6790  178.5550  142.9090 N   0  0  0  0  0  0  0  0  0  0  0  0
  180.1100  178.9580  140.8790 C   0  0  0  0  0  2  0  0  0  0  0  0
  179.4880  177.6210  141.1160 C   0  0  0  0  0  0  0  0  0  0  0  0
  179.3420  177.2100  142.2550 O   0  0  0  0  0  0  0  0  0  0  0  0
  180.3230  176.3720  139.1550 C   0  0  0  0  0  1  0  0  0  0  0  0
  179.0970  176.7670  139.9550 C   0  0  0  0  0  2  0  0  0  0  0  0
  187.2240  173.3810  136.0200 S   0  0  0  0  0  0  0  0  0  0  0  0
  187.7340  174.9710  135.3030 C   0  0  0  0  0  2  0  0  0  0  0  0
  188.9120  175.4340  135.9480 O   0  0  0  0  0  0  0  0  0  0  0  0
  188.9270  178.7970  138.4630 C   0  0  0  0  0  3  0  0  0  0  0  0
  188.6400  177.5350  139.0060 C   0  0  0  0  0  0  0  0  0  0  0  0
  189.2090  178.9290  137.1020 C   0  0  0  0  0  3  0  0  0  0  0  0
  189.2030  177.8030  136.2750 C   0  0  0  0  0  3  0  0  0  0  0  0
  188.6350  176.4130  138.1730 C   0  0  0  0  0  3  0  0  0  0  0  0
  188.9170  176.5390  136.8030 C   0  0  0  0  0  0  0  0  0  0  0  0
  188.3350  177.3760  140.3950 N   0  0  0  0  0  2  0  0  0  0  0  0
  188.7120  176.7110  142.9590 S   0  0  0  0  0  0  0  0  0  0  0  0
  189.3190  177.5320  141.4560 C   0  0  1  0  0  3  0  0  0  0  0  0
  191.7530  177.3330  141.9720 C   0  0  0  0  0  2  0  0  0  0  0  0
  191.4610  177.0210  143.3680 N   0  0  0  0  0  2  0  0  0  0  0  0
  189.9740  177.6410  145.4710 S   0  0  0  0  0  0  0  0  0  0  0  0
  190.6320  176.8780  141.0440 C   0  0  0  0  0  2  0  0  0  0  0  0
  190.1520  177.1780  143.9170 C   0  0  0  0  0  0  0  0  0  0  0  0
  1  6  1  0  0  0  0
  1  8  1  0  0  0  0
  2  7  1  0  0  0  0
  2  5  1  0  0  0  0
  3  7  1  0  0  0  0
  3  1  1  0  0  0  0
  3  8  1  0  0  0  0
  5  9  1  0  0  0  0
  5  4  1  0  0  0  0
  6  4  1  0  0  0  0
 10  8  1  0  0  0  0
 10 11  1  0  0  0  0
 11 12  1  0  0  0  0
 12 14  1  0  0  0  0
 13 12  1  0  0  0  0
 14 16  1  0  0  0  0
 16 15  1  0  0  0  0
 16 23  1  0  0  0  0
 17 24  2  0  0  0  0
 19 21  1  0  0  0  0
 20 18  1  0  0  0  0
 21 20  1  0  0  0  0
 22 20  2  0  0  0  0
 23 17  1  0  0  0  0
 23 19  1  0  0  0  0
 25 19  2  0  0  0  0
 25 22  1  0  0  0  0
 26 27  1  0  0  0  0
 26 17  1  0  0  0  0
 27 28  2  0  0  0  0
 29 30  1  0  0  0  0
 30 27  1  0  0  0  0
 31  6  1  0  0  0  0
 32 33  1  0  0  0  0
 32 31  1  0  0  0  0
 33 39  1  0  0  0  0
 34 35  1  0  0  0  0
 35 40  1  0  0  0  0
 36 34  2  0  0  0  0
 37 39  2  0  0  0  0
 37 36  1  0  0  0  0
 38 35  2  0  0  0  0
 39 38  1  0  0  0  0
 40 42  1  0  0  0  0
 41 47  1  0  0  0  0
 42 41  1  0  0  0  0
 43 44  1  0  0  0  0
 44 47  1  0  0  0  0
 46 42  1  0  0  0  0
 46 43  1  0  0  0  0
 47 45  2  0  0  0  0
M  END
>  <MODEL>
6

>  <REMARK>
 VINA RESULT:      -7.4      3.499      9.872
  Name = 
  15 active torsions:
  status: ('A' for Active; 'I' for Inactive)
    1  A    between atoms: C_1  and  C_41
    2  A    between atoms: C_4  and  N_44
    3  A    between atoms: C_7  and  N_44
    4  A    between atoms: O_8  and  C_11
    5  A    between atoms: O_8  and  C_40
    6  A    between atoms: C_11  and  S_26
    7  A    between atoms: C_13  and  C_41
    8  A    between atoms: C_13  and  C_42
    9  A    between atoms: C_15  and  C_34
   10  A    between atoms: C_15  and  N_36
   11  A    between atoms: C_21  and  C_34
   12  A    between atoms: C_21  and  O_39
   13  A    between atoms: C_24  and  C_38
   14  A    between atoms: C_24  and  O_39
   15  A    between atoms: S_26  and  C_30
                            x       y       z     vdW  Elec       q    Type
                         _______ _______ _______ _____ _____    ______ ____

>  <TORSDO>
F 15

$$$$
=
 OpenBabel11062417293D

 47 51  0  0  1  0  0  0  0  0999 V2000
  187.6360  177.9810  143.7910 C   0  0  2  0  0  3  0  0  0  0  0  0
  189.0540  178.2300  146.5380 C   0  0  0  0  0  2  0  0  0  0  0  0
  189.1530  177.9140  144.0480 C   0  0  1  0  0  3  0  0  0  0  0  0
  187.0200  176.7670  146.0710 C   0  0  0  0  0  2  0  0  0  0  0  0
  187.8560  177.4920  147.1280 C   0  0  1  0  0  3  0  0  0  0  0  0
  186.6050  177.6580  144.8970 C   0  0  1  0  0  3  0  0  0  0  0  0
  189.6720  177.4370  145.4010 C   0  0  0  0  0  2  0  0  0  0  0  0
  188.4290  176.7570  143.3770 C   0  0  2  0  0  3  0  0  0  0  0  0
  188.2950  176.5700  148.0770 O   0  0  0  0  0  1  0  0  0  0  0  0
  188.6790  176.7990  141.8820 C   0  0  0  0  0  2  0  0  0  0  0  0
  189.2050  178.0460  141.5390 O   0  0  0  0  0  0  0  0  0  0  0  0
  188.7410  178.3060  140.2460 C   0  0  2  0  0  3  0  0  0  0  0  0
  187.3820  178.6280  140.2830 O   0  0  0  0  0  1  0  0  0  0  0  0
  188.9760  177.0950  139.3460 C   0  0  0  0  0  2  0  0  0  0  0  0
  189.4290  178.7520  137.6690 O   0  0  0  0  0  1  0  0  0  0  0  0
  188.9630  177.4490  137.8580 C   0  0  1  0  0  3  0  0  0  0  0  0
  189.0670  175.7150  136.0680 C   0  0  0  0  0  0  0  0  0  0  0  0
  194.9010  175.6270  137.1500 N   0  0  0  0  0  1  0  0  0  0  0  0
  191.1710  176.3630  137.3140 C   0  0  0  0  0  0  0  0  0  0  0  0
  193.5360  175.9770  137.3540 C   0  0  0  0  0  0  0  0  0  0  0  0
  192.2790  175.5450  136.3280 S   0  0  0  0  0  0  0  0  0  0  0  0
  193.1110  176.7260  138.3900 N   0  0  0  0  0  0  0  0  0  0  0  0
  189.7550  176.5040  137.0630 N   0  0  0  0  0  0  0  0  0  0  0  0
  189.5980  174.6820  135.5830 O   0  0  0  0  0  0  0  0  0  0  0  0
  191.7970  176.9450  138.3640 N   0  0  0  0  0  0  0  0  0  0  0  0
  187.7030  176.1010  135.5910 C   0  0  0  0  0  2  0  0  0  0  0  0
  186.7360  174.9890  135.8290 C   0  0  0  0  0  0  0  0  0  0  0  0
  186.1170  174.5080  134.8940 O   0  0  0  0  0  0  0  0  0  0  0  0
  186.1640  173.0230  137.2120 C   0  0  0  0  0  1  0  0  0  0  0  0
  186.4860  174.5060  137.2200 C   0  0  0  0  0  2  0  0  0  0  0  0
  185.7170  179.1550  145.4410 S   0  0  0  0  0  0  0  0  0  0  0  0
  184.0820  178.4650  145.0520 C   0  0  0  0  0  2  0  0  0  0  0  0
  183.3420  179.3910  144.2680 O   0  0  0  0  0  0  0  0  0  0  0  0
  180.0320  178.2480  141.9520 C   0  0  0  0  0  3  0  0  0  0  0  0
  181.2200  178.6290  141.3100 C   0  0  0  0  0  0  0  0  0  0  0  0
  179.9560  178.2460  143.3470 C   0  0  0  0  0  3  0  0  0  0  0  0
  181.0640  178.6270  144.1070 C   0  0  0  0  0  3  0  0  0  0  0  0
  182.3250  179.0080  142.0770 C   0  0  0  0  0  3  0  0  0  0  0  0
  182.2540  179.0100  143.4790 C   0  0  0  0  0  0  0  0  0  0  0  0
  181.3180  178.6520  139.8830 N   0  0  0  0  0  2  0  0  0  0  0  0
  181.0180  176.6850  138.0950 S   0  0  0  0  0  0  0  0  0  0  0  0
  182.1180  177.7060  139.1180 C   0  0  1  0  0  3  0  0  0  0  0  0
  184.1390  177.5100  137.6670 C   0  0  0  0  0  2  0  0  0  0  0  0
  183.5530  176.3800  136.9520 N   0  0  0  0  0  2  0  0  0  0  0  0
  182.1940  174.1200  137.1960 S   0  0  0  0  0  0  0  0  0  0  0  0
  183.0720  178.4600  138.1990 C   0  0  0  0  0  2  0  0  0  0  0  0
  182.3720  175.7260  137.4180 C   0  0  0  0  0  0  0  0  0  0  0  0
  1  3  1  0  0  0  0
  1  6  1  0  0  0  0
  2  5  1  0  0  0  0
  3  7  1  0  0  0  0
  4  5  1  0  0  0  0
  5  9  1  0  0  0  0
  6 31  1  0  0  0  0
  6  4  1  0  0  0  0
  7  2  1  0  0  0  0
  8  1  1  0  0  0  0
  8  3  1  0  0  0  0
 10  8  1  0  0  0  0
 11 10  1  0  0  0  0
 12 13  1  0  0  0  0
 12 11  1  0  0  0  0
 14 12  1  0  0  0  0
 15 16  1  0  0  0  0
 16 14  1  0  0  0  0
 17 23  1  0  0  0  0
 18 20  1  0  0  0  0
 19 25  2  0  0  0  0
 20 22  2  0  0  0  0
 21 19  1  0  0  0  0
 21 20  1  0  0  0  0
 23 19  1  0  0  0  0
 23 16  1  0  0  0  0
 24 17  2  0  0  0  0
 25 22  1  0  0  0  0
 26 27  1  0  0  0  0
 26 17  1  0  0  0  0
 27 30  1  0  0  0  0
 28 27  2  0  0  0  0
 29 30  1  0  0  0  0
 32 31  1  0  0  0  0
 33 32  1  0  0  0  0
 34 36  1  0  0  0  0
 35 34  2  0  0  0  0
 35 38  1  0  0  0  0
 36 37  2  0  0  0  0
 38 39  2  0  0  0  0
 39 37  1  0  0  0  0
 39 33  1  0  0  0  0
 40 35  1  0  0  0  0
 41 42  1  0  0  0  0
 42 40  1  0  0  0  0
 43 46  1  0  0  0  0
 44 47  1  0  0  0  0
 44 43  1  0  0  0  0
 45 47  2  0  0  0  0
 46 42  1  0  0  0  0
 47 41  1  0  0  0  0
M  END
>  <MODEL>
7

>  <REMARK>
 VINA RESULT:      -7.3      2.648      4.190
  Name = 
  15 active torsions:
  status: ('A' for Active; 'I' for Inactive)
    1  A    between atoms: C_1  and  C_41
    2  A    between atoms: C_4  and  N_44
    3  A    between atoms: C_7  and  N_44
    4  A    between atoms: O_8  and  C_11
    5  A    between atoms: O_8  and  C_40
    6  A    between atoms: C_11  and  S_26
    7  A    between atoms: C_13  and  C_41
    8  A    between atoms: C_13  and  C_42
    9  A    between atoms: C_15  and  C_34
   10  A    between atoms: C_15  and  N_36
   11  A    between atoms: C_21  and  C_34
   12  A    between atoms: C_21  and  O_39
   13  A    between atoms: C_24  and  C_38
   14  A    between atoms: C_24  and  O_39
   15  A    between atoms: S_26  and  C_30
                            x       y       z     vdW  Elec       q    Type
                         _______ _______ _______ _____ _____    ______ ____

>  <TORSDO>
F 15

$$$$
=
 OpenBabel11062417293D

 47 51  0  0  1  0  0  0  0  0999 V2000
  188.0480  177.2180  143.2970 C   0  0  2  0  0  3  0  0  0  0  0  0
  190.5450  176.7900  145.0860 C   0  0  0  0  0  2  0  0  0  0  0  0
  188.0550  176.9750  144.8180 C   0  0  1  0  0  3  0  0  0  0  0  0
  190.2990  178.6270  143.3370 C   0  0  0  0  0  2  0  0  0  0  0  0
  191.2610  177.7870  144.1800 C   0  0  1  0  0  3  0  0  0  0  0  0
  189.2770  177.7950  142.5570 C   0  0  1  0  0  3  0  0  0  0  0  0
  189.2670  177.3880  145.6460 C   0  0  0  0  0  2  0  0  0  0  0  0
  187.4220  178.2290  144.2350 C   0  0  2  0  0  3  0  0  0  0  0  0
  192.0550  178.6340  144.9510 O   0  0  0  0  0  1  0  0  0  0  0  0
  185.9140  178.0740  144.2120 C   0  0  0  0  0  2  0  0  0  0  0  0
  185.4900  177.9000  142.8930 O   0  0  0  0  0  0  0  0  0  0  0  0
  184.5270  178.8890  142.6750 C   0  0  2  0  0  3  0  0  0  0  0  0
  184.3850  179.6780  143.8200 O   0  0  0  0  0  1  0  0  0  0  0  0
  183.1900  178.2540  142.3010 C   0  0  0  0  0  2  0  0  0  0  0  0
  181.9800  177.0770  140.5930 O   0  0  0  0  0  1  0  0  0  0  0  0
  183.1090  177.8670  140.8230 C   0  0  1  0  0  3  0  0  0  0  0  0
  184.3000  179.3630  139.2230 C   0  0  0  0  0  0  0  0  0  0  0  0
  179.1570  182.3020  138.8730 N   0  0  0  0  0  1  0  0  0  0  0  0
  181.9050  179.8620  139.8630 C   0  0  0  0  0  0  0  0  0  0  0  0
  180.0880  181.3450  139.3670 C   0  0  0  0  0  0  0  0  0  0  0  0
  181.6120  181.0740  138.7170 S   0  0  0  0  0  0  0  0  0  0  0  0
  179.8270  180.5240  140.4040 N   0  0  0  0  0  0  0  0  0  0  0  0
  183.0940  179.0450  139.9480 N   0  0  0  0  0  0  0  0  0  0  0  0
  184.4690  180.5040  138.7180 O   0  0  0  0  0  0  0  0  0  0  0  0
  180.8340  179.6970  140.6760 N   0  0  0  0  0  0  0  0  0  0  0  0
  185.3860  178.3480  139.0550 C   0  0  0  0  0  2  0  0  0  0  0  0
  185.3560  177.7800  137.6740 C   0  0  0  0  0  0  0  0  0  0  0  0
  184.2900  177.4950  137.1540 O   0  0  0  0  0  0  0  0  0  0  0  0
  187.4670  178.7760  136.8640 C   0  0  0  0  0  1  0  0  0  0  0  0
  186.6370  177.5100  136.9530 C   0  0  0  0  0  2  0  0  0  0  0  0
  190.0680  176.5420  141.4940 S   0  0  0  0  0  0  0  0  0  0  0  0
  189.8890  177.5410  139.9870 C   0  0  0  0  0  2  0  0  0  0  0  0
  189.6300  176.6930  138.8760 O   0  0  0  0  0  0  0  0  0  0  0  0
  192.4930  175.8370  135.9270 C   0  0  0  0  0  3  0  0  0  0  0  0
  192.8790  175.8460  137.2760 C   0  0  0  0  0  0  0  0  0  0  0  0
  191.1690  176.1050  135.5720 C   0  0  0  0  0  3  0  0  0  0  0  0
  190.2240  176.3870  136.5620 C   0  0  0  0  0  3  0  0  0  0  0  0
  191.9290  176.1290  138.2610 C   0  0  0  0  0  3  0  0  0  0  0  0
  190.5960  176.4010  137.9110 C   0  0  0  0  0  0  0  0  0  0  0  0
  194.2320  175.5870  137.6640 N   0  0  0  0  0  2  0  0  0  0  0  0
  196.6320  174.8770  136.7190 S   0  0  0  0  0  0  0  0  0  0  0  0
  194.9670  174.3960  137.2640 C   0  0  1  0  0  3  0  0  0  0  0  0
  195.5460  172.0730  137.9690 C   0  0  0  0  0  2  0  0  0  0  0  0
  196.8100  172.1350  137.2400 N   0  0  0  0  0  2  0  0  0  0  0  0
  197.9900  172.8910  134.9930 S   0  0  0  0  0  0  0  0  0  0  0  0
  195.1010  173.4490  138.4510 C   0  0  0  0  0  2  0  0  0  0  0  0
  197.1000  173.1930  136.3260 C   0  0  0  0  0  0  0  0  0  0  0  0
  1  8  1  0  0  0  0
  1  3  1  0  0  0  0
  2  7  1  0  0  0  0
  3  7  1  0  0  0  0
  4  5  1  0  0  0  0
  5  9  1  0  0  0  0
  5  2  1  0  0  0  0
  6  1  1  0  0  0  0
  6  4  1  0  0  0  0
  8  3  1  0  0  0  0
 10  8  1  0  0  0  0
 11 10  1  0  0  0  0
 12 11  1  0  0  0  0
 12 13  1  0  0  0  0
 14 12  1  0  0  0  0
 15 16  1  0  0  0  0
 16 14  1  0  0  0  0
 17 23  1  0  0  0  0
 18 20  1  0  0  0  0
 19 23  1  0  0  0  0
 19 25  2  0  0  0  0
 20 22  2  0  0  0  0
 21 20  1  0  0  0  0
 21 19  1  0  0  0  0
 22 25  1  0  0  0  0
 23 16  1  0  0  0  0
 24 17  2  0  0  0  0
 26 17  1  0  0  0  0
 27 26  1  0  0  0  0
 28 27  2  0  0  0  0
 29 30  1  0  0  0  0
 30 27  1  0  0  0  0
 31  6  1  0  0  0  0
 32 31  1  0  0  0  0
 33 32  1  0  0  0  0
 34 35  1  0  0  0  0
 35 40  1  0  0  0  0
 35 38  2  0  0  0  0
 36 34  2  0  0  0  0
 36 37  1  0  0  0  0
 37 39  2  0  0  0  0
 39 38  1  0  0  0  0
 39 33  1  0  0  0  0
 41 42  1  0  0  0  0
 42 40  1  0  0  0  0
 42 46  1  0  0  0  0
 43 46  1  0  0  0  0
 44 43  1  0  0  0  0
 45 47  2  0  0  0  0
 47 41  1  0  0  0  0
 47 44  1  0  0  0  0
M  END
>  <MODEL>
8

>  <REMARK>
 VINA RESULT:      -7.3      3.904      8.746
  Name = 
  15 active torsions:
  status: ('A' for Active; 'I' for Inactive)
    1  A    between atoms: C_1  and  C_41
    2  A    between atoms: C_4  and  N_44
    3  A    between atoms: C_7  and  N_44
    4  A    between atoms: O_8  and  C_11
    5  A    between atoms: O_8  and  C_40
    6  A    between atoms: C_11  and  S_26
    7  A    between atoms: C_13  and  C_41
    8  A    between atoms: C_13  and  C_42
    9  A    between atoms: C_15  and  C_34
   10  A    between atoms: C_15  and  N_36
   11  A    between atoms: C_21  and  C_34
   12  A    between atoms: C_21  and  O_39
   13  A    between atoms: C_24  and  C_38
   14  A    between atoms: C_24  and  O_39
   15  A    between atoms: S_26  and  C_30
                            x       y       z     vdW  Elec       q    Type
                         _______ _______ _______ _____ _____    ______ ____

>  <TORSDO>
F 15

$$$$
=
 OpenBabel11062417293D

 47 51  0  0  1  0  0  0  0  0999 V2000
  187.4620  178.0770  144.1630 C   0  0  2  0  0  3  0  0  0  0  0  0
  188.9530  178.1590  146.8820 C   0  0  0  0  0  2  0  0  0  0  0  0
  188.9810  177.9420  144.3790 C   0  0  1  0  0  3  0  0  0  0  0  0
  186.8530  176.7940  146.4080 C   0  0  0  0  0  2  0  0  0  0  0  0
  187.7420  177.4430  147.4710 C   0  0  1  0  0  3  0  0  0  0  0  0
  186.4460  177.7480  145.2820 C   0  0  1  0  0  3  0  0  0  0  0  0
  189.5130  177.3900  145.6980 C   0  0  0  0  0  2  0  0  0  0  0  0
  188.1960  176.8420  143.6810 C   0  0  2  0  0  3  0  0  0  0  0  0
  188.1660  176.4670  148.3710 O   0  0  0  0  0  1  0  0  0  0  0  0
  188.4120  176.9360  142.1830 C   0  0  0  0  0  2  0  0  0  0  0  0
  188.9860  178.1720  141.8780 O   0  0  0  0  0  0  0  0  0  0  0  0
  188.3300  178.6160  140.7260 C   0  0  2  0  0  3  0  0  0  0  0  0
  186.9480  178.6030  140.9290 O   0  0  0  0  0  1  0  0  0  0  0  0
  188.6990  177.7350  139.5340 C   0  0  0  0  0  2  0  0  0  0  0  0
  188.7560  179.1750  137.6140 O   0  0  0  0  0  1  0  0  0  0  0  0
  188.0130  178.1710  138.2380 C   0  0  1  0  0  3  0  0  0  0  0  0
  188.9530  176.5380  136.6050 C   0  0  0  0  0  0  0  0  0  0  0  0
  183.4390  174.3610  136.3280 N   0  0  0  0  0  1  0  0  0  0  0  0
  186.4800  176.5020  137.1360 C   0  0  0  0  0  0  0  0  0  0  0  0
  184.4720  175.2690  136.6960 C   0  0  0  0  0  0  0  0  0  0  0  0
  186.1010  175.0510  136.3490 S   0  0  0  0  0  0  0  0  0  0  0  0
  184.2500  176.3990  137.3960 N   0  0  0  0  0  0  0  0  0  0  0  0
  187.8070  177.0440  137.3220 N   0  0  0  0  0  0  0  0  0  0  0  0
  188.8090  175.8090  135.5880 O   0  0  0  0  0  0  0  0  0  0  0  0
  185.3670  177.0810  137.6450 N   0  0  0  0  0  0  0  0  0  0  0  0
  190.3430  176.8690  137.0460 C   0  0  0  0  0  2  0  0  0  0  0  0
  191.0940  175.6220  137.3760 C   0  0  0  0  0  0  0  0  0  0  0  0
  190.8530  175.0200  138.4100 O   0  0  0  0  0  0  0  0  0  0  0  0
  192.4260  173.6620  136.6770 C   0  0  0  0  0  1  0  0  0  0  0  0
  192.1780  175.1440  136.4670 C   0  0  0  0  0  2  0  0  0  0  0  0
  185.6300  179.2550  145.9080 S   0  0  0  0  0  0  0  0  0  0  0  0
  183.9870  178.7470  145.3210 C   0  0  0  0  0  2  0  0  0  0  0  0
  183.7320  179.3220  144.0460 O   0  0  0  0  0  0  0  0  0  0  0  0
  180.3860  178.2520  141.7460 C   0  0  0  0  0  3  0  0  0  0  0  0
  181.6320  178.3970  141.1180 C   0  0  0  0  0  0  0  0  0  0  0  0
  180.2640  178.4570  143.1230 C   0  0  0  0  0  3  0  0  0  0  0  0
  181.3850  178.8110  143.8780 C   0  0  0  0  0  3  0  0  0  0  0  0
  182.7490  178.7520  141.8800 C   0  0  0  0  0  3  0  0  0  0  0  0
  182.6330  178.9600  143.2640 C   0  0  0  0  0  0  0  0  0  0  0  0
  181.7800  178.2060  139.7080 N   0  0  0  0  0  2  0  0  0  0  0  0
  182.1010  180.6310  138.6240 S   0  0  0  0  0  0  0  0  0  0  0  0
  181.1690  179.0730  138.7120 C   0  0  1  0  0  3  0  0  0  0  0  0
  180.2830  179.1260  136.3790 C   0  0  0  0  0  2  0  0  0  0  0  0
  180.6240  180.5390  136.2500 N   0  0  0  0  0  2  0  0  0  0  0  0
  180.6050  182.9010  137.4500 S   0  0  0  0  0  0  0  0  0  0  0  0
  181.2160  178.4030  137.3440 C   0  0  0  0  0  2  0  0  0  0  0  0
  181.0180  181.3250  137.3760 C   0  0  0  0  0  0  0  0  0  0  0  0
  1  3  1  0  0  0  0
  1  6  1  0  0  0  0
  2  5  1  0  0  0  0
  3  7  1  0  0  0  0
  4  5  1  0  0  0  0
  5  9  1  0  0  0  0
  6 31  1  0  0  0  0
  6  4  1  0  0  0  0
  7  2  1  0  0  0  0
  8  1  1  0  0  0  0
  8  3  1  0  0  0  0
 10  8  1  0  0  0  0
 11 10  1  0  0  0  0
 12 13  1  0  0  0  0
 12 11  1  0  0  0  0
 14 12  1  0  0  0  0
 15 16  1  0  0  0  0
 16 14  1  0  0  0  0
 17 26  1  0  0  0  0
 17 23  1  0  0  0  0
 18 20  1  0  0  0  0
 19 23  1  0  0  0  0
 19 25  2  0  0  0  0
 20 22  2  0  0  0  0
 21 20  1  0  0  0  0
 21 19  1  0  0  0  0
 22 25  1  0  0  0  0
 23 16  1  0  0  0  0
 24 17  2  0  0  0  0
 26 27  1  0  0  0  0
 27 28  2  0  0  0  0
 30 29  1  0  0  0  0
 30 27  1  0  0  0  0
 32 31  1  0  0  0  0
 33 32  1  0  0  0  0
 34 36  1  0  0  0  0
 35 34  2  0  0  0  0
 35 38  1  0  0  0  0
 36 37  2  0  0  0  0
 38 39  2  0  0  0  0
 39 37  1  0  0  0  0
 39 33  1  0  0  0  0
 40 35  1  0  0  0  0
 41 42  1  0  0  0  0
 42 40  1  0  0  0  0
 43 46  1  0  0  0  0
 44 43  1  0  0  0  0
 44 47  1  0  0  0  0
 46 42  1  0  0  0  0
 47 45  2  0  0  0  0
 47 41  1  0  0  0  0
M  END
>  <MODEL>
9

>  <REMARK>
 VINA RESULT:      -7.3      1.643      2.303
  Name = 
  15 active torsions:
  status: ('A' for Active; 'I' for Inactive)
    1  A    between atoms: C_1  and  C_41
    2  A    between atoms: C_4  and  N_44
    3  A    between atoms: C_7  and  N_44
    4  A    between atoms: O_8  and  C_11
    5  A    between atoms: O_8  and  C_40
    6  A    between atoms: C_11  and  S_26
    7  A    between atoms: C_13  and  C_41
    8  A    between atoms: C_13  and  C_42
    9  A    between atoms: C_15  and  C_34
   10  A    between atoms: C_15  and  N_36
   11  A    between atoms: C_21  and  C_34
   12  A    between atoms: C_21  and  O_39
   13  A    between atoms: C_24  and  C_38
   14  A    between atoms: C_24  and  O_39
   15  A    between atoms: S_26  and  C_30
                            x       y       z     vdW  Elec       q    Type
                         _______ _______ _______ _____ _____    ______ ____

>  <TORSDO>
F 15

$$$$
