=
 OpenBabel11062417573D

 40 44  0  0  1  0  0  0  0  0999 V2000
  186.6790  177.7890  146.1550 C   0  0  1  0  0  3  0  0  0  0  0  0
  185.5800  178.7980  146.2920 C   0  0  0  0  0  0  0  0  0  0  0  0
  186.8470  177.2540  143.7010 C   0  0  2  0  0  3  0  0  0  0  0  0
  187.5790  177.9010  148.4030 O   0  0  0  0  0  0  0  0  0  0  0  0
  185.3060  177.2310  143.5930 C   0  0  0  0  0  2  0  0  0  0  0  0
  185.7500  179.8260  146.9340 O   0  0  0  0  0  0  0  0  0  0  0  0
  184.4740  178.4840  143.9810 C   0  0  1  0  0  0  0  0  0  0  0  0
  188.8980  177.7890  145.1390 C   0  0  0  0  0  2  0  0  0  0  0  0
  187.4170  178.0750  144.8590 C   0  0  2  0  0  3  0  0  0  0  0  0
  187.7640  177.8900  147.1580 C   0  0  0  0  0  0  0  0  0  0  0  0
  184.2980  178.5700  145.5300 C   0  0  2  0  0  3  0  0  0  0  0  0
  189.0520  177.9040  146.5790 N   0  0  0  0  0  2  0  0  0  0  0  0
  183.3480  179.5320  145.8880 O   0  0  0  0  0  1  0  0  0  0  0  0
  185.1420  179.7520  143.4430 C   0  0  0  0  0  1  0  0  0  0  0  0
  183.1170  178.6280  141.8050 C   0  0  0  0  0  3  0  0  0  0  0  0
  180.7920  177.8190  141.3930 C   0  0  0  0  0  3  0  0  0  0  0  0
  181.9820  179.0040  143.9890 C   0  0  0  0  0  3  0  0  0  0  0  0
  183.1020  178.3060  143.2730 C   0  0  2  0  0  3  0  0  0  0  0  0
  182.1000  178.3650  140.9840 C   0  0  0  0  0  3  0  0  0  0  0  0
  180.6960  178.8320  143.6880 C   0  0  0  0  0  3  0  0  0  0  0  0
  180.1820  178.0220  142.5670 C   0  0  0  0  0  3  0  0  0  0  0  0
  187.4950  177.5350  142.3720 C   0  0  0  0  0  0  0  0  0  0  0  0
  189.2740  177.1210  140.7740 C   0  0  0  0  0  3  0  0  0  0  0  0
  187.4890  178.6460  140.2120 C   0  0  0  0  0  3  0  0  0  0  0  0
  188.6780  177.9990  139.8570 C   0  0  0  0  0  0  0  0  0  0  0  0
  186.9000  178.4130  141.4550 C   0  0  0  0  0  3  0  0  0  0  0  0
  188.6890  176.8800  142.0280 C   0  0  0  0  0  0  0  0  0  0  0  0
  189.8560  177.2320  137.7270 N   0  0  0  0  0  0  0  0  0  0  0  0
  189.3770  179.4680  138.1390 O   0  0  0  0  0  0  0  0  0  0  0  0
  189.0330  177.4020  134.7660 C   0  0  0  0  0  1  0  0  0  0  0  0
  189.3050  178.2760  138.5430 C   0  0  0  0  0  0  0  0  0  0  0  0
  190.5610  177.5410  136.6130 O   0  0  0  0  0  0  0  0  0  0  0  0
  190.0460  176.6710  135.6310 C   0  0  1  0  0  3  0  0  0  0  0  0
  189.2410  175.9330  137.6450 C   0  0  0  0  0  2  0  0  0  0  0  0
  189.4180  175.5160  136.2730 N   0  0  0  0  0  2  0  0  0  0  0  0
  189.2830  176.0020  142.9450 O   0  0  0  0  0  0  0  0  0  0  0  0
  190.6240  175.5390  142.8300 C   0  0  0  0  0  2  0  0  0  0  0  0
  191.9760  177.4620  143.2350 O   0  0  0  0  0  0  0  0  0  0  0  0
  191.8760  175.9430  144.9490 O   0  0  0  0  0  1  0  0  0  0  0  0
  191.5290  176.3700  143.6740 C   0  0  0  0  0  0  0  0  0  0  0  0
  1  2  1  1  0  0  0
  1 10  1  0  0  0  0
  2  6  2  0  0  0  0
  3 22  1  6  0  0  0
  3  9  1  0  0  0  0
  5  3  1  0  0  0  0
  5  7  1  0  0  0  0
  7 14  1  6  0  0  0
  7 11  1  0  0  0  0
  8 12  1  0  0  0  0
  9  8  1  1  0  0  0
  9  1  1  0  0  0  0
 10  4  2  0  0  0  0
 11 13  1  6  0  0  0
 11  2  1  0  0  0  0
 12 10  1  0  0  0  0
 16 21  2  0  0  0  0
 18 15  1  6  0  0  0
 18  7  1  0  0  0  0
 18 17  1  0  0  0  0
 19 16  1  0  0  0  0
 19 15  2  0  0  0  0
 20 17  2  0  0  0  0
 21 20  1  0  0  0  0
 23 27  2  0  0  0  0
 24 26  1  0  0  0  0
 25 24  2  0  0  0  0
 25 23  1  0  0  0  0
 26 22  2  0  0  0  0
 27 22  1  0  0  0  0
 27 36  1  0  0  0  0
 28 31  1  0  0  0  0
 29 31  2  0  0  0  0
 31 25  1  0  0  0  0
 32 28  1  0  0  0  0
 33 30  1  1  0  0  0
 33 35  1  0  0  0  0
 33 32  1  0  0  0  0
 34 28  1  0  0  0  0
 35 34  1  0  0  0  0
 37 36  1  0  0  0  0
 37 40  1  0  0  0  0
 38 40  2  0  0  0  0
 40 39  1  0  0  0  0
M  END
>  <MODEL>
1

>  <REMARK>
 VINA RESULT:      -9.0      0.000      0.000
  Name = 
  6 active torsions:
  status: ('A' for Active; 'I' for Inactive)
    1  A    between atoms: C_3  and  C_6
    2  A    between atoms: C_14  and  C_18
    3  A    between atoms: C_15  and  O_25
    4  A    between atoms: C_15  and  C_31
    5  A    between atoms: C_17  and  C_28
    6  A    between atoms: O_25  and  C_33
                            x       y       z     vdW  Elec       q    Type
                         _______ _______ _______ _____ _____    ______ ____

>  <TORSDO>
F 6

$$$$
=
 OpenBabel11062417573D

 40 44  0  0  1  0  0  0  0  0999 V2000
  182.3160  176.7280  136.4560 C   0  0  1  0  0  3  0  0  0  0  0  0
  180.8520  176.9710  136.6630 C   0  0  0  0  0  0  0  0  0  0  0  0
  183.5130  178.0780  138.2110 C   0  0  2  0  0  3  0  0  0  0  0  0
  182.1760  174.9080  134.8600 O   0  0  0  0  0  0  0  0  0  0  0  0
  182.5450  179.2600  137.9730 C   0  0  0  0  0  2  0  0  0  0  0  0
  180.0640  176.0370  136.7250 O   0  0  0  0  0  0  0  0  0  0  0  0
  181.0150  179.0670  138.1600 C   0  0  1  0  0  0  0  0  0  0  0  0
  184.0750  175.6250  137.7390 C   0  0  0  0  0  2  0  0  0  0  0  0
  182.9820  176.6980  137.8210 C   0  0  2  0  0  3  0  0  0  0  0  0
  182.6680  175.3970  135.9110 C   0  0  0  0  0  0  0  0  0  0  0  0
  180.3870  178.3860  136.9040 C   0  0  2  0  0  3  0  0  0  0  0  0
  183.6770  174.7450  136.6540 N   0  0  0  0  0  2  0  0  0  0  0  0
  178.9890  178.4340  136.9340 O   0  0  0  0  0  1  0  0  0  0  0  0
  180.7330  178.2420  139.4180 C   0  0  0  0  0  1  0  0  0  0  0  0
  181.3230  181.5990  137.8500 C   0  0  0  0  0  3  0  0  0  0  0  0
  179.6440  183.4050  138.2330 C   0  0  0  0  0  3  0  0  0  0  0  0
  179.9960  180.7490  139.7770 C   0  0  0  0  0  3  0  0  0  0  0  0
  180.4410  180.4970  138.3650 C   0  0  2  0  0  3  0  0  0  0  0  0
  180.9360  182.8710  137.7610 C   0  0  0  0  0  3  0  0  0  0  0  0
  179.2930  181.8190  140.1470 C   0  0  0  0  0  3  0  0  0  0  0  0
  178.9310  182.9480  139.2700 C   0  0  0  0  0  3  0  0  0  0  0  0
  184.1330  178.1330  139.5810 C   0  0  0  0  0  0  0  0  0  0  0  0
  186.0290  178.6380  141.0100 C   0  0  0  0  0  3  0  0  0  0  0  0
  183.9560  177.8850  141.9910 C   0  0  0  0  0  3  0  0  0  0  0  0
  185.2810  178.3080  142.1490 C   0  0  0  0  0  0  0  0  0  0  0  0
  183.3850  177.8030  140.7200 C   0  0  0  0  0  3  0  0  0  0  0  0
  185.4640  178.5590  139.7260 C   0  0  0  0  0  0  0  0  0  0  0  0
  186.7490  177.3350  143.9960 N   0  0  0  0  0  0  0  0  0  0  0  0
  185.6030  179.3400  144.2530 O   0  0  0  0  0  0  0  0  0  0  0  0
  189.3020  178.3980  145.3460 C   0  0  0  0  0  1  0  0  0  0  0  0
  185.8810  178.3660  143.5020 C   0  0  0  0  0  0  0  0  0  0  0  0
  187.1460  177.3430  145.2900 O   0  0  0  0  0  0  0  0  0  0  0  0
  188.5310  177.0950  145.2230 C   0  0  1  0  0  3  0  0  0  0  0  0
  187.6890  176.6640  143.1360 C   0  0  0  0  0  2  0  0  0  0  0  0
  188.8560  176.4370  143.9570 N   0  0  0  0  0  2  0  0  0  0  0  0
  186.2100  178.8890  138.5860 O   0  0  0  0  0  0  0  0  0  0  0  0
  186.9920  177.9470  137.8620 C   0  0  0  0  0  2  0  0  0  0  0  0
  189.1360  178.1180  136.8310 O   0  0  0  0  0  0  0  0  0  0  0  0
  188.9570  179.0680  138.9090 O   0  0  0  0  0  1  0  0  0  0  0  0
  188.4190  178.3760  137.8330 C   0  0  0  0  0  0  0  0  0  0  0  0
  1 10  1  1  0  0  0
  1  2  1  0  0  0  0
  1  9  1  0  0  0  0
  2  6  2  0  0  0  0
  2 11  1  0  0  0  0
  3 22  1  1  0  0  0
  4 10  2  0  0  0  0
  5  7  1  0  0  0  0
  5  3  1  0  0  0  0
  7 18  1  0  0  0  0
  7 14  1  1  0  0  0
  9  8  1  6  0  0  0
  9  3  1  0  0  0  0
 10 12  1  0  0  0  0
 11 13  1  1  0  0  0
 11  7  1  0  0  0  0
 12  8  1  0  0  0  0
 16 21  2  0  0  0  0
 17 20  2  0  0  0  0
 18 15  1  1  0  0  0
 18 17  1  0  0  0  0
 19 15  2  0  0  0  0
 19 16  1  0  0  0  0
 21 20  1  0  0  0  0
 22 27  2  0  0  0  0
 22 26  1  0  0  0  0
 23 25  2  0  0  0  0
 24 25  1  0  0  0  0
 25 31  1  0  0  0  0
 26 24  2  0  0  0  0
 27 23  1  0  0  0  0
 28 32  1  0  0  0  0
 31 28  1  0  0  0  0
 31 29  2  0  0  0  0
 33 32  1  0  0  0  0
 33 30  1  6  0  0  0
 34 35  1  0  0  0  0
 34 28  1  0  0  0  0
 35 33  1  0  0  0  0
 36 27  1  0  0  0  0
 37 36  1  0  0  0  0
 38 40  2  0  0  0  0
 40 37  1  0  0  0  0
 40 39  1  0  0  0  0
M  END
>  <MODEL>
2

>  <REMARK>
 VINA RESULT:      -8.8      4.294      7.893
  Name = 
  6 active torsions:
  status: ('A' for Active; 'I' for Inactive)
    1  A    between atoms: C_3  and  C_6
    2  A    between atoms: C_14  and  C_18
    3  A    between atoms: C_15  and  O_25
    4  A    between atoms: C_15  and  C_31
    5  A    between atoms: C_17  and  C_28
    6  A    between atoms: O_25  and  C_33
                            x       y       z     vdW  Elec       q    Type
                         _______ _______ _______ _____ _____    ______ ____

>  <TORSDO>
F 6

$$$$
=
 OpenBabel11062417573D

 40 44  0  0  1  0  0  0  0  0999 V2000
  180.3480  180.1790  137.0240 C   0  0  1  0  0  3  0  0  0  0  0  0
  180.7420  179.2780  135.8930 C   0  0  0  0  0  0  0  0  0  0  0  0
  181.2270  179.1050  139.1240 C   0  0  2  0  0  3  0  0  0  0  0  0
  179.5710  182.0820  135.7390 O   0  0  0  0  0  0  0  0  0  0  0  0
  180.7810  177.7170  138.6100 C   0  0  0  0  0  2  0  0  0  0  0  0
  181.2890  179.7270  134.8950 O   0  0  0  0  0  0  0  0  0  0  0  0
  181.3250  177.1690  137.2630 C   0  0  1  0  0  0  0  0  0  0  0  0
  181.5620  181.5890  138.6020 C   0  0  0  0  0  2  0  0  0  0  0  0
  181.4710  180.1630  138.0460 C   0  0  2  0  0  3  0  0  0  0  0  0
  180.2560  181.6180  136.6870 C   0  0  0  0  0  0  0  0  0  0  0  0
  180.5470  177.7910  136.0600 C   0  0  2  0  0  3  0  0  0  0  0  0
  180.9660  182.4420  137.5880 N   0  0  0  0  0  2  0  0  0  0  0  0
  180.8360  177.1300  134.8610 O   0  0  0  0  0  1  0  0  0  0  0  0
  182.8240  177.4540  137.1400 C   0  0  0  0  0  1  0  0  0  0  0  0
  180.2900  175.1660  138.4950 C   0  0  0  0  0  3  0  0  0  0  0  0
  180.1570  172.7960  137.7250 C   0  0  0  0  0  3  0  0  0  0  0  0
  182.3990  174.8610  137.2070 C   0  0  0  0  0  3  0  0  0  0  0  0
  181.1150  175.6310  137.3270 C   0  0  2  0  0  3  0  0  0  0  0  0
  179.8420  173.9180  138.6290 C   0  0  0  0  0  3  0  0  0  0  0  0
  182.4530  173.5410  137.0360 C   0  0  0  0  0  3  0  0  0  0  0  0
  181.2920  172.6320  137.0330 C   0  0  0  0  0  3  0  0  0  0  0  0
  182.3340  178.9940  140.1370 C   0  0  0  0  0  0  0  0  0  0  0  0
  183.0680  178.5320  142.4040 C   0  0  0  0  0  3  0  0  0  0  0  0
  184.6970  179.0430  140.6980 C   0  0  0  0  0  3  0  0  0  0  0  0
  184.4050  178.7140  142.0270 C   0  0  0  0  0  0  0  0  0  0  0  0
  183.6720  179.1760  139.7610 C   0  0  0  0  0  3  0  0  0  0  0  0
  182.0290  178.6650  141.4680 C   0  0  0  0  0  0  0  0  0  0  0  0
  185.3740  179.0950  144.3580 N   0  0  0  0  0  0  0  0  0  0  0  0
  186.5910  178.0710  142.6640 O   0  0  0  0  0  0  0  0  0  0  0  0
  186.3440  177.1230  146.5110 C   0  0  0  0  0  1  0  0  0  0  0  0
  185.5020  178.6000  143.0160 C   0  0  0  0  0  0  0  0  0  0  0  0
  186.4490  179.1180  145.1790 O   0  0  0  0  0  0  0  0  0  0  0  0
  185.9630  178.5890  146.3910 C   0  0  1  0  0  3  0  0  0  0  0  0
  184.1310  179.0060  145.0800 C   0  0  0  0  0  2  0  0  0  0  0  0
  184.5080  178.7360  146.4480 N   0  0  0  0  0  2  0  0  0  0  0  0
  180.6900  178.4820  141.8440 O   0  0  0  0  0  0  0  0  0  0  0  0
  179.9090  179.4910  142.4750 C   0  0  0  0  0  2  0  0  0  0  0  0
  178.9430  179.8530  144.6250 O   0  0  0  0  0  1  0  0  0  0  0  0
  179.7080  177.7300  144.2290 O   0  0  0  0  0  0  0  0  0  0  0  0
  179.4940  179.0430  143.8350 C   0  0  0  0  0  0  0  0  0  0  0  0
  1  2  1  6  0  0  0
  1  9  1  0  0  0  0
  2 11  1  0  0  0  0
  3 22  1  6  0  0  0
  4 10  2  0  0  0  0
  5  3  1  0  0  0  0
  6  2  2  0  0  0  0
  7 14  1  6  0  0  0
  7 18  1  0  0  0  0
  7  5  1  0  0  0  0
  9  8  1  1  0  0  0
  9  3  1  0  0  0  0
 10  1  1  0  0  0  0
 10 12  1  0  0  0  0
 11 13  1  6  0  0  0
 11  7  1  0  0  0  0
 12  8  1  0  0  0  0
 15 19  2  0  0  0  0
 16 19  1  0  0  0  0
 18 17  1  1  0  0  0
 18 15  1  0  0  0  0
 20 17  2  0  0  0  0
 21 20  1  0  0  0  0
 21 16  2  0  0  0  0
 22 27  1  0  0  0  0
 24 25  2  0  0  0  0
 25 23  1  0  0  0  0
 25 31  1  0  0  0  0
 26 22  2  0  0  0  0
 26 24  1  0  0  0  0
 27 36  1  0  0  0  0
 27 23  2  0  0  0  0
 28 34  1  0  0  0  0
 28 32  1  0  0  0  0
 29 31  2  0  0  0  0
 31 28  1  0  0  0  0
 32 33  1  0  0  0  0
 33 35  1  0  0  0  0
 33 30  1  6  0  0  0
 34 35  1  0  0  0  0
 36 37  1  0  0  0  0
 37 40  1  0  0  0  0
 40 39  2  0  0  0  0
 40 38  1  0  0  0  0
M  END
>  <MODEL>
3

>  <REMARK>
 VINA RESULT:      -8.6      4.784      9.491
  Name = 
  6 active torsions:
  status: ('A' for Active; 'I' for Inactive)
    1  A    between atoms: C_3  and  C_6
    2  A    between atoms: C_14  and  C_18
    3  A    between atoms: C_15  and  O_25
    4  A    between atoms: C_15  and  C_31
    5  A    between atoms: C_17  and  C_28
    6  A    between atoms: O_25  and  C_33
                            x       y       z     vdW  Elec       q    Type
                         _______ _______ _______ _____ _____    ______ ____

>  <TORSDO>
F 6

$$$$
=
 OpenBabel11062417573D

 40 44  0  0  1  0  0  0  0  0999 V2000
  181.2390  180.2440  137.4530 C   0  0  1  0  0  3  0  0  0  0  0  0
  180.4600  180.3420  138.7290 C   0  0  0  0  0  0  0  0  0  0  0  0
  182.9000  178.3810  137.7790 C   0  0  2  0  0  3  0  0  0  0  0  0
  179.8940  181.7150  136.0740 O   0  0  0  0  0  0  0  0  0  0  0  0
  183.1880  178.8790  139.2140 C   0  0  0  0  0  2  0  0  0  0  0  0
  179.2370  180.3740  138.7160 O   0  0  0  0  0  0  0  0  0  0  0  0
  182.0380  178.9810  140.2520 C   0  0  1  0  0  0  0  0  0  0  0  0
  181.4400  178.5750  135.6850 C   0  0  0  0  0  2  0  0  0  0  0  0
  181.5410  178.7770  137.2020 C   0  0  2  0  0  3  0  0  0  0  0  0
  180.5000  180.6230  136.2270 C   0  0  0  0  0  0  0  0  0  0  0  0
  181.2140  180.2890  140.0360 C   0  0  2  0  0  3  0  0  0  0  0  0
  180.6000  179.6570  135.2010 N   0  0  0  0  0  2  0  0  0  0  0  0
  180.3440  180.5340  141.1030 O   0  0  0  0  0  1  0  0  0  0  0  0
  181.1310  177.7510  140.1630 C   0  0  0  0  0  1  0  0  0  0  0  0
  184.0420  178.2440  141.6820 C   0  0  0  0  0  3  0  0  0  0  0  0
  184.6190  178.9670  143.9990 C   0  0  0  0  0  3  0  0  0  0  0  0
  181.8180  178.5640  142.7550 C   0  0  0  0  0  3  0  0  0  0  0  0
  182.7350  178.9850  141.6420 C   0  0  2  0  0  3  0  0  0  0  0  0
  184.8790  178.2840  142.7180 C   0  0  0  0  0  3  0  0  0  0  0  0
  182.1260  178.6800  144.0460 C   0  0  0  0  0  3  0  0  0  0  0  0
  183.4240  179.1390  144.5760 C   0  0  0  0  0  3  0  0  0  0  0  0
  183.2360  176.9230  137.6170 C   0  0  0  0  0  0  0  0  0  0  0  0
  184.7370  175.1890  136.8230 C   0  0  0  0  0  3  0  0  0  0  0  0
  182.7410  174.5830  138.0380 C   0  0  0  0  0  3  0  0  0  0  0  0
  183.9100  174.1980  137.3710 C   0  0  0  0  0  0  0  0  0  0  0  0
  182.4090  175.9320  138.1650 C   0  0  0  0  0  3  0  0  0  0  0  0
  184.4110  176.5500  136.9450 C   0  0  0  0  0  0  0  0  0  0  0  0
  183.2770  171.8080  136.7390 N   0  0  0  0  0  0  0  0  0  0  0  0
  185.3840  172.3560  137.5520 O   0  0  0  0  0  0  0  0  0  0  0  0
  184.3900  169.9030  134.5940 C   0  0  0  0  0  1  0  0  0  0  0  0
  184.2360  172.7610  137.2230 C   0  0  0  0  0  0  0  0  0  0  0  0
  183.5600  170.4850  136.7700 O   0  0  0  0  0  0  0  0  0  0  0  0
  183.1740  170.0240  135.4950 C   0  0  1  0  0  3  0  0  0  0  0  0
  182.3340  172.1450  135.7040 C   0  0  0  0  0  2  0  0  0  0  0  0
  182.2030  170.9470  134.9080 N   0  0  0  0  0  2  0  0  0  0  0  0
  185.2380  177.5420  136.3980 O   0  0  0  0  0  0  0  0  0  0  0  0
  186.6590  177.5020  136.4650 C   0  0  0  0  0  2  0  0  0  0  0  0
  187.9640  179.3490  137.2190 O   0  0  0  0  0  0  0  0  0  0  0  0
  186.7070  178.3050  138.8250 O   0  0  0  0  0  1  0  0  0  0  0  0
  187.1510  178.4370  137.5160 C   0  0  0  0  0  0  0  0  0  0  0  0
  1 10  1  6  0  0  0
  1  2  1  0  0  0  0
  2 11  1  0  0  0  0
  3 22  1  1  0  0  0
  3  5  1  0  0  0  0
  4 10  2  0  0  0  0
  5  7  1  0  0  0  0
  6  2  2  0  0  0  0
  7 14  1  6  0  0  0
  7 18  1  0  0  0  0
  9  8  1  6  0  0  0
  9  1  1  0  0  0  0
  9  3  1  0  0  0  0
 11  7  1  0  0  0  0
 11 13  1  1  0  0  0
 12  8  1  0  0  0  0
 12 10  1  0  0  0  0
 15 19  2  0  0  0  0
 16 21  2  0  0  0  0
 17 20  2  0  0  0  0
 18 15  1  6  0  0  0
 18 17  1  0  0  0  0
 19 16  1  0  0  0  0
 20 21  1  0  0  0  0
 22 26  1  0  0  0  0
 23 27  1  0  0  0  0
 23 25  2  0  0  0  0
 24 26  2  0  0  0  0
 25 24  1  0  0  0  0
 27 22  2  0  0  0  0
 28 32  1  0  0  0  0
 28 31  1  0  0  0  0
 31 25  1  0  0  0  0
 31 29  2  0  0  0  0
 33 30  1  6  0  0  0
 33 32  1  0  0  0  0
 34 28  1  0  0  0  0
 35 33  1  0  0  0  0
 35 34  1  0  0  0  0
 36 37  1  0  0  0  0
 36 27  1  0  0  0  0
 37 40  1  0  0  0  0
 38 40  2  0  0  0  0
 40 39  1  0  0  0  0
M  END
>  <MODEL>
4

>  <REMARK>
 VINA RESULT:      -8.5      5.328      8.037
  Name = 
  6 active torsions:
  status: ('A' for Active; 'I' for Inactive)
    1  A    between atoms: C_3  and  C_6
    2  A    between atoms: C_14  and  C_18
    3  A    between atoms: C_15  and  O_25
    4  A    between atoms: C_15  and  C_31
    5  A    between atoms: C_17  and  C_28
    6  A    between atoms: O_25  and  C_33
                            x       y       z     vdW  Elec       q    Type
                         _______ _______ _______ _____ _____    ______ ____

>  <TORSDO>
F 6

$$$$
=
 OpenBabel11062417573D

 40 44  0  0  1  0  0  0  0  0999 V2000
  180.4950  180.0540  137.6130 C   0  0  1  0  0  3  0  0  0  0  0  0
  180.4370  179.2630  136.3420 C   0  0  0  0  0  0  0  0  0  0  0  0
  182.1760  178.9000  139.0890 C   0  0  2  0  0  3  0  0  0  0  0  0
  179.2050  181.9850  136.9170 O   0  0  0  0  0  0  0  0  0  0  0  0
  181.6100  177.5240  138.6700 C   0  0  0  0  0  2  0  0  0  0  0  0
  180.5250  179.8160  135.2540 O   0  0  0  0  0  0  0  0  0  0  0  0
  181.5900  177.1090  137.1740 C   0  0  1  0  0  0  0  0  0  0  0  0
  182.1880  181.4320  138.7050 C   0  0  0  0  0  2  0  0  0  0  0  0
  181.9320  180.0440  138.1030 C   0  0  2  0  0  3  0  0  0  0  0  0
  180.2270  181.5040  137.4710 C   0  0  0  0  0  0  0  0  0  0  0  0
  180.3770  177.7580  136.4370 C   0  0  2  0  0  3  0  0  0  0  0  0
  181.2080  182.3100  138.0890 N   0  0  0  0  0  2  0  0  0  0  0  0
  180.1860  177.2030  135.1670 O   0  0  0  0  0  1  0  0  0  0  0  0
  182.9050  177.5020  136.4960 C   0  0  0  0  0  1  0  0  0  0  0  0
  180.5160  175.0090  138.1930 C   0  0  0  0  0  3  0  0  0  0  0  0
  180.6630  172.6590  137.3680 C   0  0  0  0  0  3  0  0  0  0  0  0
  182.8140  174.8770  137.2430 C   0  0  0  0  0  3  0  0  0  0  0  0
  181.4770  175.5590  137.1760 C   0  0  2  0  0  3  0  0  0  0  0  0
  180.1380  173.7320  138.2330 C   0  0  0  0  0  3  0  0  0  0  0  0
  182.9820  173.5680  137.0570 C   0  0  0  0  0  3  0  0  0  0  0  0
  181.8980  172.5880  136.8580 C   0  0  0  0  0  3  0  0  0  0  0  0
  183.5980  178.7950  139.5690 C   0  0  0  0  0  0  0  0  0  0  0  0
  185.2200  178.9090  141.3710 C   0  0  0  0  0  3  0  0  0  0  0  0
  185.9370  178.2920  139.1500 C   0  0  0  0  0  3  0  0  0  0  0  0
  186.2470  178.5310  140.4940 C   0  0  0  0  0  0  0  0  0  0  0  0
  184.6250  178.4170  138.6930 C   0  0  0  0  0  3  0  0  0  0  0  0
  183.8960  179.0390  140.9200 C   0  0  0  0  0  0  0  0  0  0  0  0
  187.9800  178.2360  142.3440 N   0  0  0  0  0  0  0  0  0  0  0  0
  188.5820  178.5060  140.1160 O   0  0  0  0  0  0  0  0  0  0  0  0
  190.0760  176.0390  142.8440 C   0  0  0  0  0  1  0  0  0  0  0  0
  187.6490  178.4180  140.9590 C   0  0  0  0  0  0  0  0  0  0  0  0
  189.2700  178.2990  142.7480 O   0  0  0  0  0  0  0  0  0  0  0  0
  189.4170  177.1830  143.5960 C   0  0  1  0  0  3  0  0  0  0  0  0
  187.1710  177.4220  143.2130 C   0  0  0  0  0  2  0  0  0  0  0  0
  188.1070  176.7660  144.0970 N   0  0  0  0  0  2  0  0  0  0  0  0
  182.8690  179.4150  141.7960 O   0  0  0  0  0  0  0  0  0  0  0  0
  182.4610  178.6280  142.9100 C   0  0  0  0  0  2  0  0  0  0  0  0
  180.3840  178.1450  143.9770 O   0  0  0  0  0  1  0  0  0  0  0  0
  180.4830  180.1450  142.8610 O   0  0  0  0  0  0  0  0  0  0  0  0
  181.0540  178.9510  143.2800 C   0  0  0  0  0  0  0  0  0  0  0  0
  1  2  1  6  0  0  0
  1  9  1  0  0  0  0
  2 11  1  0  0  0  0
  3 22  1  6  0  0  0
  4 10  2  0  0  0  0
  5  3  1  0  0  0  0
  6  2  2  0  0  0  0
  7 14  1  6  0  0  0
  7 18  1  0  0  0  0
  7  5  1  0  0  0  0
  9  8  1  1  0  0  0
  9  3  1  0  0  0  0
 10  1  1  0  0  0  0
 10 12  1  0  0  0  0
 11 13  1  6  0  0  0
 11  7  1  0  0  0  0
 12  8  1  0  0  0  0
 15 19  2  0  0  0  0
 16 19  1  0  0  0  0
 18 17  1  1  0  0  0
 18 15  1  0  0  0  0
 20 17  2  0  0  0  0
 21 20  1  0  0  0  0
 21 16  2  0  0  0  0
 22 27  1  0  0  0  0
 24 25  2  0  0  0  0
 25 31  1  0  0  0  0
 25 23  1  0  0  0  0
 26 24  1  0  0  0  0
 26 22  2  0  0  0  0
 27 23  2  0  0  0  0
 27 36  1  0  0  0  0
 28 32  1  0  0  0  0
 28 34  1  0  0  0  0
 29 31  2  0  0  0  0
 31 28  1  0  0  0  0
 32 33  1  0  0  0  0
 33 30  1  6  0  0  0
 33 35  1  0  0  0  0
 34 35  1  0  0  0  0
 36 37  1  0  0  0  0
 37 40  1  0  0  0  0
 39 40  2  0  0  0  0
 40 38  1  0  0  0  0
M  END
>  <MODEL>
5

>  <REMARK>
 VINA RESULT:      -8.0      4.740      8.447
  Name = 
  6 active torsions:
  status: ('A' for Active; 'I' for Inactive)
    1  A    between atoms: C_3  and  C_6
    2  A    between atoms: C_14  and  C_18
    3  A    between atoms: C_15  and  O_25
    4  A    between atoms: C_15  and  C_31
    5  A    between atoms: C_17  and  C_28
    6  A    between atoms: O_25  and  C_33
                            x       y       z     vdW  Elec       q    Type
                         _______ _______ _______ _____ _____    ______ ____

>  <TORSDO>
F 6

$$$$
=
 OpenBabel11062417573D

 40 44  0  0  1  0  0  0  0  0999 V2000
  185.2490  177.8840  137.1480 C   0  0  1  0  0  3  0  0  0  0  0  0
  183.8390  177.4700  136.8610 C   0  0  0  0  0  0  0  0  0  0  0  0
  185.2470  178.8400  139.4760 C   0  0  2  0  0  3  0  0  0  0  0  0
  186.3400  176.8650  135.2370 O   0  0  0  0  0  0  0  0  0  0  0  0
  183.9180  179.5730  139.1820 C   0  0  0  0  0  2  0  0  0  0  0  0
  183.5900  176.3570  136.4170 O   0  0  0  0  0  0  0  0  0  0  0  0
  182.6600  178.7710  138.7530 C   0  0  1  0  0  0  0  0  0  0  0  0
  186.9840  177.1310  138.6900 C   0  0  0  0  0  2  0  0  0  0  0  0
  185.5280  177.6080  138.6150 C   0  0  2  0  0  3  0  0  0  0  0  0
  186.2970  177.0810  136.4770 C   0  0  0  0  0  0  0  0  0  0  0  0
  182.7230  178.4150  137.2340 C   0  0  2  0  0  3  0  0  0  0  0  0
  187.2990  176.6290  137.3640 N   0  0  0  0  0  2  0  0  0  0  0  0
  181.5000  177.9240  136.7670 O   0  0  0  0  0  1  0  0  0  0  0  0
  182.5260  177.5010  139.5980 C   0  0  0  0  0  1  0  0  0  0  0  0
  181.6110  181.1070  138.5530 C   0  0  0  0  0  3  0  0  0  0  0  0
  179.2770  181.7910  139.1130 C   0  0  0  0  0  3  0  0  0  0  0  0
  181.0420  179.6660  140.5030 C   0  0  0  0  0  3  0  0  0  0  0  0
  181.4520  179.7000  139.0580 C   0  0  2  0  0  3  0  0  0  0  0  0
  180.6240  182.0020  138.5480 C   0  0  0  0  0  3  0  0  0  0  0  0
  179.9190  180.2190  140.9610 C   0  0  0  0  0  3  0  0  0  0  0  0
  178.9710  181.0170  140.1610 C   0  0  0  0  0  3  0  0  0  0  0  0
  185.4450  178.6160  140.9510 C   0  0  0  0  0  0  0  0  0  0  0  0
  186.9220  178.4490  142.8700 C   0  0  0  0  0  3  0  0  0  0  0  0
  184.5350  178.2610  143.1750 C   0  0  0  0  0  3  0  0  0  0  0  0
  185.8230  178.2710  143.7220 C   0  0  0  0  0  0  0  0  0  0  0  0
  184.3470  178.4380  141.8040 C   0  0  0  0  0  3  0  0  0  0  0  0
  186.7430  178.6260  141.4880 C   0  0  0  0  0  0  0  0  0  0  0  0
  187.0840  177.2630  145.6990 N   0  0  0  0  0  0  0  0  0  0  0  0
  185.1840  178.5700  145.9800 O   0  0  0  0  0  0  0  0  0  0  0  0
  188.5680  178.5750  148.0540 C   0  0  0  0  0  1  0  0  0  0  0  0
  186.0090  178.0570  145.1760 C   0  0  0  0  0  0  0  0  0  0  0  0
  187.1260  176.9600  147.0170 O   0  0  0  0  0  0  0  0  0  0  0  0
  188.4620  177.2160  147.3840 C   0  0  1  0  0  3  0  0  0  0  0  0
  188.3910  177.2710  145.0950 C   0  0  0  0  0  2  0  0  0  0  0  0
  189.3190  177.1720  146.1990 N   0  0  0  0  0  2  0  0  0  0  0  0
  187.8410  178.8060  140.6350 O   0  0  0  0  0  0  0  0  0  0  0  0
  189.1930  178.7480  141.0760 C   0  0  0  0  0  2  0  0  0  0  0  0
  189.5980  176.5000  141.7610 O   0  0  0  0  0  1  0  0  0  0  0  0
  190.4090  177.0660  139.6930 O   0  0  0  0  0  0  0  0  0  0  0  0
  189.7420  177.3780  140.8700 C   0  0  0  0  0  0  0  0  0  0  0  0
  1 10  1  6  0  0  0
  1  9  1  0  0  0  0
  2  1  1  0  0  0  0
  2 11  1  0  0  0  0
  3 22  1  1  0  0  0
  4 10  2  0  0  0  0
  5  3  1  0  0  0  0
  6  2  2  0  0  0  0
  7 18  1  0  0  0  0
  7  5  1  0  0  0  0
  7 14  1  1  0  0  0
  9  8  1  6  0  0  0
  9  3  1  0  0  0  0
 10 12  1  0  0  0  0
 11 13  1  1  0  0  0
 11  7  1  0  0  0  0
 12  8  1  0  0  0  0
 16 21  2  0  0  0  0
 17 20  2  0  0  0  0
 18 15  1  1  0  0  0
 18 17  1  0  0  0  0
 19 15  2  0  0  0  0
 19 16  1  0  0  0  0
 21 20  1  0  0  0  0
 22 27  2  0  0  0  0
 22 26  1  0  0  0  0
 23 25  2  0  0  0  0
 24 25  1  0  0  0  0
 25 31  1  0  0  0  0
 26 24  2  0  0  0  0
 27 23  1  0  0  0  0
 28 32  1  0  0  0  0
 31 28  1  0  0  0  0
 31 29  2  0  0  0  0
 32 33  1  0  0  0  0
 33 30  1  6  0  0  0
 34 28  1  0  0  0  0
 34 35  1  0  0  0  0
 35 33  1  0  0  0  0
 36 37  1  0  0  0  0
 36 27  1  0  0  0  0
 39 40  2  0  0  0  0
 40 37  1  0  0  0  0
 40 38  1  0  0  0  0
M  END
>  <MODEL>
6

>  <REMARK>
 VINA RESULT:      -7.9      3.042      7.297
  Name = 
  6 active torsions:
  status: ('A' for Active; 'I' for Inactive)
    1  A    between atoms: C_3  and  C_6
    2  A    between atoms: C_14  and  C_18
    3  A    between atoms: C_15  and  O_25
    4  A    between atoms: C_15  and  C_31
    5  A    between atoms: C_17  and  C_28
    6  A    between atoms: O_25  and  C_33
                            x       y       z     vdW  Elec       q    Type
                         _______ _______ _______ _____ _____    ______ ____

>  <TORSDO>
F 6

$$$$
=
 OpenBabel11062417573D

 40 44  0  0  1  0  0  0  0  0999 V2000
  186.1830  178.9170  142.1370 C   0  0  1  0  0  3  0  0  0  0  0  0
  185.8790  177.9830  143.2680 C   0  0  0  0  0  0  0  0  0  0  0  0
  188.5840  178.5040  141.5040 C   0  0  2  0  0  3  0  0  0  0  0  0
  183.9340  179.6930  141.6710 O   0  0  0  0  0  0  0  0  0  0  0  0
  188.9710  178.4160  142.9980 C   0  0  0  0  0  2  0  0  0  0  0  0
  184.8790  177.2780  143.2480 O   0  0  0  0  0  0  0  0  0  0  0  0
  188.2980  177.3620  143.9190 C   0  0  1  0  0  0  0  0  0  0  0  0
  186.7050  178.6390  139.7700 C   0  0  0  0  0  2  0  0  0  0  0  0
  187.1200  178.2020  141.1800 C   0  0  2  0  0  3  0  0  0  0  0  0
  185.0370  179.2470  141.2600 C   0  0  0  0  0  0  0  0  0  0  0  0
  186.8900  177.8520  144.3810 C   0  0  2  0  0  3  0  0  0  0  0  0
  185.3250  179.0770  139.8870 N   0  0  0  0  0  2  0  0  0  0  0  0
  186.3750  177.0510  145.4060 O   0  0  0  0  0  1  0  0  0  0  0  0
  188.1910  176.0170  143.1970 C   0  0  0  0  0  1  0  0  0  0  0  0
  188.9830  178.1440  146.2690 C   0  0  0  0  0  3  0  0  0  0  0  0
  190.6210  177.0780  147.8220 C   0  0  0  0  0  3  0  0  0  0  0  0
  190.7060  177.2090  144.7340 C   0  0  0  0  0  3  0  0  0  0  0  0
  189.2580  177.2010  145.1320 C   0  0  2  0  0  3  0  0  0  0  0  0
  189.5660  178.0460  147.4630 C   0  0  0  0  0  3  0  0  0  0  0  0
  191.6990  176.8890  145.5630 C   0  0  0  0  0  3  0  0  0  0  0  0
  191.5470  176.5760  146.9960 C   0  0  0  0  0  3  0  0  0  0  0  0
  189.5700  177.7780  140.6290 C   0  0  0  0  0  0  0  0  0  0  0  0
  190.5790  177.4190  138.4510 C   0  0  0  0  0  3  0  0  0  0  0  0
  191.3850  176.1850  140.3640 C   0  0  0  0  0  3  0  0  0  0  0  0
  191.4610  176.4750  138.9960 C   0  0  0  0  0  0  0  0  0  0  0  0
  190.4520  176.8340  141.1740 C   0  0  0  0  0  3  0  0  0  0  0  0
  189.6360  178.0760  139.2580 C   0  0  0  0  0  0  0  0  0  0  0  0
  192.1580  174.4710  137.5780 N   0  0  0  0  0  0  0  0  0  0  0  0
  193.5630  176.2890  137.9260 O   0  0  0  0  0  0  0  0  0  0  0  0
  192.8860  174.2360  134.5970 C   0  0  0  0  0  1  0  0  0  0  0  0
  192.4390  175.7600  138.1440 C   0  0  0  0  0  0  0  0  0  0  0  0
  193.1340  173.7820  136.9410 O   0  0  0  0  0  0  0  0  0  0  0  0
  192.5160  173.3300  135.7590 C   0  0  1  0  0  3  0  0  0  0  0  0
  190.8430  174.1240  137.1080 C   0  0  0  0  0  2  0  0  0  0  0  0
  191.0630  173.3080  135.9360 N   0  0  0  0  0  2  0  0  0  0  0  0
  188.7530  179.0210  138.7150 O   0  0  0  0  0  0  0  0  0  0  0  0
  188.8610  179.5190  137.3860 C   0  0  0  0  0  2  0  0  0  0  0  0
  188.8260  178.0330  135.5210 O   0  0  0  0  0  0  0  0  0  0  0  0
  186.8110  178.3620  136.5630 O   0  0  0  0  0  1  0  0  0  0  0  0
  188.1730  178.6000  136.4360 C   0  0  0  0  0  0  0  0  0  0  0  0
  1 10  1  6  0  0  0
  1  2  1  0  0  0  0
  2 11  1  0  0  0  0
  3 22  1  6  0  0  0
  3  5  1  0  0  0  0
  5  7  1  0  0  0  0
  6  2  2  0  0  0  0
  7 14  1  6  0  0  0
  7 11  1  0  0  0  0
  7 18  1  0  0  0  0
  8 12  1  0  0  0  0
  9  8  1  6  0  0  0
  9  3  1  0  0  0  0
  9  1  1  0  0  0  0
 10  4  2  0  0  0  0
 11 13  1  1  0  0  0
 12 10  1  0  0  0  0
 15 19  2  0  0  0  0
 17 20  2  0  0  0  0
 18 17  1  6  0  0  0
 18 15  1  0  0  0  0
 19 16  1  0  0  0  0
 20 21  1  0  0  0  0
 21 16  2  0  0  0  0
 22 26  1  0  0  0  0
 23 25  2  0  0  0  0
 23 27  1  0  0  0  0
 24 26  2  0  0  0  0
 25 24  1  0  0  0  0
 27 22  2  0  0  0  0
 28 31  1  0  0  0  0
 29 31  2  0  0  0  0
 31 25  1  0  0  0  0
 32 28  1  0  0  0  0
 33 30  1  6  0  0  0
 33 35  1  0  0  0  0
 33 32  1  0  0  0  0
 34 28  1  0  0  0  0
 35 34  1  0  0  0  0
 36 27  1  0  0  0  0
 37 36  1  0  0  0  0
 38 40  2  0  0  0  0
 40 39  1  0  0  0  0
 40 37  1  0  0  0  0
M  END
>  <MODEL>
7

>  <REMARK>
 VINA RESULT:      -7.7      3.052      6.254
  Name = 
  6 active torsions:
  status: ('A' for Active; 'I' for Inactive)
    1  A    between atoms: C_3  and  C_6
    2  A    between atoms: C_14  and  C_18
    3  A    between atoms: C_15  and  O_25
    4  A    between atoms: C_15  and  C_31
    5  A    between atoms: C_17  and  C_28
    6  A    between atoms: O_25  and  C_33
                            x       y       z     vdW  Elec       q    Type
                         _______ _______ _______ _____ _____    ______ ____

>  <TORSDO>
F 6

$$$$
=
 OpenBabel11062417573D

 40 44  0  0  1  0  0  0  0  0999 V2000
  180.4300  179.9650  138.3570 C   0  0  1  0  0  3  0  0  0  0  0  0
  179.8110  179.2090  137.2220 C   0  0  0  0  0  0  0  0  0  0  0  0
  182.5170  178.7090  138.9900 C   0  0  2  0  0  3  0  0  0  0  0  0
  179.0570  181.9620  138.2760 O   0  0  0  0  0  0  0  0  0  0  0  0
  181.7650  177.3670  138.8360 C   0  0  0  0  0  2  0  0  0  0  0  0
  179.4630  179.7850  136.2000 O   0  0  0  0  0  0  0  0  0  0  0  0
  181.1050  176.9910  137.4820 C   0  0  1  0  0  0  0  0  0  0  0  0
  182.4850  181.2470  138.6530 C   0  0  0  0  0  2  0  0  0  0  0  0
  181.9390  179.8860  138.2040 C   0  0  2  0  0  3  0  0  0  0  0  0
  180.1940  181.4270  138.3510 C   0  0  0  0  0  0  0  0  0  0  0  0
  179.7260  177.7060  137.3230 C   0  0  2  0  0  3  0  0  0  0  0  0
  181.3800  182.1780  138.5080 N   0  0  0  0  0  2  0  0  0  0  0  0
  178.9990  177.1910  136.2450 O   0  0  0  0  0  1  0  0  0  0  0  0
  182.0350  177.3500  136.3200 C   0  0  0  0  0  1  0  0  0  0  0  0
  180.1910  174.9370  138.7260 C   0  0  0  0  0  3  0  0  0  0  0  0
  180.0600  172.5830  137.9070 C   0  0  0  0  0  3  0  0  0  0  0  0
  182.2230  174.7100  137.3040 C   0  0  0  0  0  3  0  0  0  0  0  0
  180.9320  175.4470  137.5210 C   0  0  2  0  0  3  0  0  0  0  0  0
  179.7780  173.6770  138.8570 C   0  0  0  0  0  3  0  0  0  0  0  0
  182.2930  173.3950  137.0970 C   0  0  0  0  0  3  0  0  0  0  0  0
  181.1530  172.4610  137.1440 C   0  0  0  0  0  3  0  0  0  0  0  0
  184.0040  178.5360  138.8320 C   0  0  0  0  0  0  0  0  0  0  0  0
  186.2290  178.5060  139.8010 C   0  0  0  0  0  3  0  0  0  0  0  0
  185.9320  177.9860  137.4630 C   0  0  0  0  0  3  0  0  0  0  0  0
  186.7810  178.1440  138.5650 C   0  0  0  0  0  0  0  0  0  0  0  0
  184.5560  178.1740  137.5960 C   0  0  0  0  0  3  0  0  0  0  0  0
  184.8450  178.6990  139.9460 C   0  0  0  0  0  0  0  0  0  0  0  0
  188.8480  176.6650  138.3260 N   0  0  0  0  0  0  0  0  0  0  0  0
  188.9830  178.9850  138.3490 O   0  0  0  0  0  0  0  0  0  0  0  0
  190.8980  176.3770  136.0490 C   0  0  0  0  0  1  0  0  0  0  0  0
  188.2430  177.9650  138.4010 C   0  0  0  0  0  0  0  0  0  0  0  0
  190.1950  176.5420  138.3390 O   0  0  0  0  0  0  0  0  0  0  0  0
  190.4640  175.6300  137.2990 C   0  0  1  0  0  3  0  0  0  0  0  0
  188.2010  175.5700  137.6510 C   0  0  0  0  0  2  0  0  0  0  0  0
  189.2700  174.8320  137.0180 N   0  0  0  0  0  2  0  0  0  0  0  0
  184.2910  179.0600  141.1820 O   0  0  0  0  0  0  0  0  0  0  0  0
  184.3180  178.2170  142.3280 C   0  0  0  0  0  2  0  0  0  0  0  0
  182.9340  178.6390  144.2230 O   0  0  0  0  0  1  0  0  0  0  0  0
  184.6830  180.0910  143.9310 O   0  0  0  0  0  0  0  0  0  0  0  0
  183.9340  178.9880  143.5430 C   0  0  0  0  0  0  0  0  0  0  0  0
  1  2  1  6  0  0  0
  2 11  1  0  0  0  0
  3 22  1  6  0  0  0
  4 10  2  0  0  0  0
  5  3  1  0  0  0  0
  6  2  2  0  0  0  0
  7 14  1  6  0  0  0
  7 18  1  0  0  0  0
  7  5  1  0  0  0  0
  9  1  1  0  0  0  0
  9  8  1  1  0  0  0
  9  3  1  0  0  0  0
 10  1  1  0  0  0  0
 10 12  1  0  0  0  0
 11 13  1  6  0  0  0
 11  7  1  0  0  0  0
 12  8  1  0  0  0  0
 15 19  2  0  0  0  0
 16 19  1  0  0  0  0
 18 17  1  1  0  0  0
 18 15  1  0  0  0  0
 20 21  1  0  0  0  0
 20 17  2  0  0  0  0
 21 16  2  0  0  0  0
 22 27  1  0  0  0  0
 23 27  2  0  0  0  0
 24 26  1  0  0  0  0
 24 25  2  0  0  0  0
 25 23  1  0  0  0  0
 26 22  2  0  0  0  0
 27 36  1  0  0  0  0
 28 32  1  0  0  0  0
 28 31  1  0  0  0  0
 29 31  2  0  0  0  0
 31 25  1  0  0  0  0
 33 30  1  6  0  0  0
 33 32  1  0  0  0  0
 34 28  1  0  0  0  0
 35 33  1  0  0  0  0
 35 34  1  0  0  0  0
 36 37  1  0  0  0  0
 37 40  1  0  0  0  0
 40 39  2  0  0  0  0
 40 38  1  0  0  0  0
M  END
>  <MODEL>
8

>  <REMARK>
 VINA RESULT:      -7.6      4.606      7.424
  Name = 
  6 active torsions:
  status: ('A' for Active; 'I' for Inactive)
    1  A    between atoms: C_3  and  C_6
    2  A    between atoms: C_14  and  C_18
    3  A    between atoms: C_15  and  O_25
    4  A    between atoms: C_15  and  C_31
    5  A    between atoms: C_17  and  C_28
    6  A    between atoms: O_25  and  C_33
                            x       y       z     vdW  Elec       q    Type
                         _______ _______ _______ _____ _____    ______ ____

>  <TORSDO>
F 6

$$$$
=
 OpenBabel11062417573D

 40 44  0  0  1  0  0  0  0  0999 V2000
  181.3250  180.2210  139.3390 C   0  0  1  0  0  3  0  0  0  0  0  0
  180.8770  179.6410  140.6450 C   0  0  0  0  0  0  0  0  0  0  0  0
  183.4260  178.9890  138.7010 C   0  0  2  0  0  3  0  0  0  0  0  0
  179.3660  181.5500  138.8210 O   0  0  0  0  0  0  0  0  0  0  0  0
  183.9170  179.0540  140.1660 C   0  0  0  0  0  2  0  0  0  0  0  0
  179.7180  179.2820  140.8070 O   0  0  0  0  0  0  0  0  0  0  0  0
  183.0620  178.4370  141.3060 C   0  0  1  0  0  0  0  0  0  0  0  0
  181.5050  179.3810  137.0550 C   0  0  0  0  0  2  0  0  0  0  0  0
  181.9130  179.0960  138.5050 C   0  0  2  0  0  3  0  0  0  0  0  0
  180.2430  180.7240  138.4610 C   0  0  0  0  0  0  0  0  0  0  0  0
  181.9110  179.4070  141.7190 C   0  0  2  0  0  3  0  0  0  0  0  0
  180.3310  180.2330  137.1400 N   0  0  0  0  0  2  0  0  0  0  0  0
  181.2900  178.9970  142.9030 O   0  0  0  0  0  1  0  0  0  0  0  0
  182.4960  177.0830  140.8710 C   0  0  0  0  0  1  0  0  0  0  0  0
  183.7740  179.0550  143.6960 C   0  0  0  0  0  3  0  0  0  0  0  0
  185.4660  177.9160  145.1330 C   0  0  0  0  0  3  0  0  0  0  0  0
  185.4880  178.2840  142.0630 C   0  0  0  0  0  3  0  0  0  0  0  0
  184.0490  178.2080  142.4850 C   0  0  2  0  0  3  0  0  0  0  0  0
  184.3820  178.8820  144.8690 C   0  0  0  0  0  3  0  0  0  0  0  0
  186.5050  177.9270  142.8480 C   0  0  0  0  0  3  0  0  0  0  0  0
  186.3880  177.5030  144.2550 C   0  0  0  0  0  3  0  0  0  0  0  0
  184.0650  177.8530  137.9490 C   0  0  0  0  0  0  0  0  0  0  0  0
  186.0570  176.6660  137.2320 C   0  0  0  0  0  3  0  0  0  0  0  0
  183.8760  175.8100  136.6510 C   0  0  0  0  0  3  0  0  0  0  0  0
  185.2700  175.6900  136.6040 C   0  0  0  0  0  0  0  0  0  0  0  0
  183.2790  176.8770  137.3210 C   0  0  0  0  0  3  0  0  0  0  0  0
  185.4650  177.7450  137.9090 C   0  0  0  0  0  0  0  0  0  0  0  0
  187.3140  174.4050  135.7760 N   0  0  0  0  0  0  0  0  0  0  0  0
  185.1450  173.7310  135.2830 O   0  0  0  0  0  0  0  0  0  0  0  0
  188.2820  171.5370  136.3320 C   0  0  0  0  0  1  0  0  0  0  0  0
  185.8900  174.5640  135.8670 C   0  0  0  0  0  0  0  0  0  0  0  0
  187.8400  173.4590  134.9630 O   0  0  0  0  0  0  0  0  0  0  0  0
  188.8230  172.8360  135.7580 C   0  0  1  0  0  3  0  0  0  0  0  0
  188.1820  174.7280  136.8790 C   0  0  0  0  0  2  0  0  0  0  0  0
  189.2290  173.7330  136.8400 N   0  0  0  0  0  2  0  0  0  0  0  0
  186.2510  178.7220  138.5380 O   0  0  0  0  0  0  0  0  0  0  0  0
  187.4390  178.4230  139.2630 C   0  0  0  0  0  2  0  0  0  0  0  0
  189.6080  177.7810  138.5090 O   0  0  0  0  0  1  0  0  0  0  0  0
  188.6580  179.5480  137.4010 O   0  0  0  0  0  0  0  0  0  0  0  0
  188.6290  178.5610  138.3770 C   0  0  0  0  0  0  0  0  0  0  0  0
  1 10  1  6  0  0  0
  1  2  1  0  0  0  0
  2  6  2  0  0  0  0
  2 11  1  0  0  0  0
  3 22  1  1  0  0  0
  3  5  1  0  0  0  0
  5  7  1  0  0  0  0
  7 14  1  6  0  0  0
  7 11  1  0  0  0  0
  7 18  1  0  0  0  0
  8 12  1  0  0  0  0
  9  8  1  6  0  0  0
  9  3  1  0  0  0  0
  9  1  1  0  0  0  0
 10  4  2  0  0  0  0
 11 13  1  1  0  0  0
 12 10  1  0  0  0  0
 15 19  2  0  0  0  0
 17 20  2  0  0  0  0
 18 17  1  6  0  0  0
 18 15  1  0  0  0  0
 19 16  1  0  0  0  0
 20 21  1  0  0  0  0
 21 16  2  0  0  0  0
 23 27  2  0  0  0  0
 24 26  1  0  0  0  0
 25 24  2  0  0  0  0
 25 23  1  0  0  0  0
 26 22  2  0  0  0  0
 27 22  1  0  0  0  0
 27 36  1  0  0  0  0
 28 31  1  0  0  0  0
 28 34  1  0  0  0  0
 29 31  2  0  0  0  0
 31 25  1  0  0  0  0
 32 33  1  0  0  0  0
 32 28  1  0  0  0  0
 33 30  1  1  0  0  0
 33 35  1  0  0  0  0
 35 34  1  0  0  0  0
 36 37  1  0  0  0  0
 39 40  2  0  0  0  0
 40 38  1  0  0  0  0
 40 37  1  0  0  0  0
M  END
>  <MODEL>
9

>  <REMARK>
 VINA RESULT:      -7.6      3.690      6.623
  Name = 
  6 active torsions:
  status: ('A' for Active; 'I' for Inactive)
    1  A    between atoms: C_3  and  C_6
    2  A    between atoms: C_14  and  C_18
    3  A    between atoms: C_15  and  O_25
    4  A    between atoms: C_15  and  C_31
    5  A    between atoms: C_17  and  C_28
    6  A    between atoms: O_25  and  C_33
                            x       y       z     vdW  Elec       q    Type
                         _______ _______ _______ _____ _____    ______ ____

>  <TORSDO>
F 6

$$$$
