=
 OpenBabel11062417333D

 47 50  0  0  1  0  0  0  0  0999 V2000
  188.2000  178.4800  137.6000 C   0  0  0  0  0  0  0  0  0  0  0  0
  189.1620  178.9030  136.8550 N   0  0  0  0  0  2  0  0  0  0  0  0
  186.8710  178.4660  137.0650 N   0  0  0  0  0  2  0  0  0  0  0  0
  188.3330  179.0120  139.9740 C   0  0  0  0  0  3  0  0  0  0  0  0
  188.4880  178.1160  139.0020 C   0  0  0  0  0  0  0  0  0  0  0  0
  188.9840  176.8130  139.3140 N   0  0  0  0  0  2  0  0  0  0  0  0
  188.4840  176.7100  142.9420 C   0  0  0  0  0  0  0  0  0  0  0  0
  189.4580  176.4730  140.6570 C   0  0  0  0  0  2  0  0  0  0  0  0
  188.6000  175.4610  143.0980 O   0  0  0  0  0  0  0  0  0  0  0  0
  188.7690  177.2850  141.6580 N   0  0  0  0  0  0  0  0  0  0  0  0
  188.6660  178.7200  141.4110 C   0  0  0  0  0  2  0  0  0  0  0  0
  187.9690  177.5470  144.0970 C   0  0  2  0  0  3  0  0  0  0  0  0
  188.0850  177.5020  146.6400 C   0  0  0  0  0  3  0  0  0  0  0  0
  190.1080  177.2090  145.3360 C   0  0  0  0  0  3  0  0  0  0  0  0
  190.8430  177.0790  146.5170 C   0  0  0  0  0  3  0  0  0  0  0  0
  190.1990  177.1520  147.7580 C   0  0  0  0  0  3  0  0  0  0  0  0
  188.8220  177.3640  147.8180 C   0  0  0  0  0  3  0  0  0  0  0  0
  188.7270  177.4110  145.3900 C   0  0  0  0  0  0  0  0  0  0  0  0
  186.5280  177.3950  144.3030 N   0  0  0  0  0  2  0  0  0  0  0  0
  185.9000  177.4110  143.0940 O   0  0  0  0  0  0  0  0  0  0  0  0
  184.9350  178.8130  143.1000 P   0  0  0  0  0  0  0  0  0  0  0  0
  185.4640  179.7730  142.0590 O   0  0  0  0  0  0  0  0  0  0  0  0
  185.0280  179.5560  144.6280 O   0  0  0  0  0  1  0  0  0  0  0  0
  183.3090  178.4440  142.7500 O   0  0  0  0  0  1  0  0  0  0  0  0
  185.7290  177.8720  137.7470 C   0  0  2  0  0  3  0  0  0  0  0  0
  183.6420  176.6790  137.2470 C   0  0  0  0  0  3  0  0  0  0  0  0
  184.8770  177.0050  136.8390 C   0  0  0  0  0  0  0  0  0  0  0  0
  184.8570  178.9410  138.3890 C   0  0  0  0  0  2  0  0  0  0  0  0
  183.8130  178.2400  139.2300 C   0  0  0  0  0  2  0  0  0  0  0  0
  183.0690  177.2450  138.4460 N   0  0  0  0  0  0  0  0  0  0  0  0
  181.6970  176.9090  138.8680 C   0  0  1  0  0  3  0  0  0  0  0  0
  181.6040  175.5480  139.5690 C   0  0  0  0  0  1  0  0  0  0  0  0
  180.5360  177.4990  140.9050 O   0  0  0  0  0  1  0  0  0  0  0  0
  181.1090  178.0260  139.7390 C   0  0  2  0  0  3  0  0  0  0  0  0
  180.0780  178.8460  138.9780 C   0  0  0  0  0  2  0  0  0  0  0  0
  179.4910  179.7990  139.8380 O   0  0  0  0  0  1  0  0  0  0  0  0
  185.3910  176.3840  135.6000 C   0  0  0  0  0  3  0  0  0  0  0  0
  186.1800  175.3030  135.5640 C   0  0  0  0  0  3  0  0  0  0  0  0
  186.6950  174.6050  136.7890 C   0  0  0  0  0  2  0  0  0  0  0  0
  186.2850  173.2600  136.8130 O   0  0  0  0  0  0  0  0  0  0  0  0
  185.2250  173.2150  137.7250 C   0  0  0  0  0  2  0  0  0  0  0  0
  182.8400  173.0440  136.9040 C   0  0  0  0  0  2  0  0  0  0  0  0
  184.6070  171.5120  136.0420 C   0  0  0  0  0  2  0  0  0  0  0  0
  184.1170  172.2760  137.2670 C   0  0  0  0  0  3  0  0  0  0  0  0
  181.7620  172.0730  136.4290 C   0  0  0  0  0  2  0  0  0  0  0  0
  182.2510  171.3100  135.1980 C   0  0  0  0  0  2  0  0  0  0  0  0
  183.5350  170.5530  135.5310 C   0  0  0  0  0  2  0  0  0  0  0  0
  1  5  1  0  0  0  0
  2  1  2  0  0  0  0
  3  1  1  0  0  0  0
  4 11  1  0  0  0  0
  5  6  1  0  0  0  0
  5  4  2  0  0  0  0
  6  8  1  0  0  0  0
  7  9  2  0  0  0  0
  8 10  1  0  0  0  0
 10  7  1  0  0  0  0
 11 10  1  0  0  0  0
 12  7  1  6  0  0  0
 12 19  1  0  0  0  0
 12 18  1  0  0  0  0
 13 17  1  0  0  0  0
 14 18  1  0  0  0  0
 14 15  2  0  0  0  0
 15 16  1  0  0  0  0
 16 17  2  0  0  0  0
 18 13  2  0  0  0  0
 20 21  1  0  0  0  0
 20 19  1  0  0  0  0
 21 23  1  0  0  0  0
 22 21  2  0  0  0  0
 24 21  1  0  0  0  0
 25  3  1  6  0  0  0
 25 28  1  0  0  0  0
 26 30  1  0  0  0  0
 27 26  2  0  0  0  0
 27 25  1  0  0  0  0
 28 29  1  0  0  0  0
 30 31  1  0  0  0  0
 30 29  1  0  0  0  0
 31 32  1  1  0  0  0
 31 34  1  0  0  0  0
 34 33  1  1  0  0  0
 35 34  1  0  0  0  0
 35 36  1  0  0  0  0
 37 27  1  0  0  0  0
 38 37  2  0  0  0  0
 38 39  1  0  0  0  0
 39 40  1  0  0  0  0
 40 41  1  0  0  0  0
 42 44  1  0  0  0  0
 43 44  1  0  0  0  0
 44 41  1  0  0  0  0
 45 42  1  0  0  0  0
 46 47  1  0  0  0  0
 46 45  1  0  0  0  0
 47 43  1  0  0  0  0
M  END
>  <MODEL>
1

>  <REMARK>
 VINA RESULT:      -7.0      0.000      0.000
  Name = 
  15 active torsions:
  status: ('A' for Active; 'I' for Inactive)
    1  A    between atoms: C_3  and  N_40
    2  A    between atoms: C_3  and  C_46
    3  A    between atoms: C_4  and  O_15
    4  A    between atoms: C_4  and  C_22
    5  A    between atoms: C_6  and  C_19
    6  A    between atoms: C_8  and  N_25
    7  A    between atoms: O_12  and  P_18
    8  A    between atoms: O_12  and  N_42
    9  A    between atoms: C_14  and  C_28
   10  A    between atoms: O_15  and  C_45
   11  A    between atoms: C_16  and  C_46
   12  A    between atoms: C_24  and  C_30
   13  A    between atoms: C_30  and  C_37
   14  A    between atoms: C_30  and  N_42
   15  A    between atoms: C_45  and  C_47
                            x       y       z     vdW  Elec       q    Type
                         _______ _______ _______ _____ _____    ______ ____

>  <TORSDO>
F 15

$$$$
=
 OpenBabel11062417333D

 47 50  0  0  1  0  0  0  0  0999 V2000
  188.3260  178.4010  137.7140 C   0  0  0  0  0  0  0  0  0  0  0  0
  189.3420  178.8090  137.0350 N   0  0  0  0  0  2  0  0  0  0  0  0
  187.0430  178.3690  137.0800 N   0  0  0  0  0  2  0  0  0  0  0  0
  188.2900  178.9980  140.0770 C   0  0  0  0  0  3  0  0  0  0  0  0
  188.5070  178.0740  139.1440 C   0  0  0  0  0  0  0  0  0  0  0  0
  188.9650  176.7760  139.5270 N   0  0  0  0  0  2  0  0  0  0  0  0
  188.1990  176.7780  143.1090 C   0  0  0  0  0  0  0  0  0  0  0  0
  189.3350  176.4690  140.9090 C   0  0  0  0  0  2  0  0  0  0  0  0
  188.2900  175.5330  143.3070 O   0  0  0  0  0  0  0  0  0  0  0  0
  188.5830  177.3140  141.8340 N   0  0  0  0  0  0  0  0  0  0  0  0
  188.5140  178.7430  141.5420 C   0  0  0  0  0  2  0  0  0  0  0  0
  187.6090  177.6510  144.2000 C   0  0  2  0  0  3  0  0  0  0  0  0
  189.6640  177.2880  145.6570 C   0  0  0  0  0  3  0  0  0  0  0  0
  187.5240  177.7640  146.6910 C   0  0  0  0  0  3  0  0  0  0  0  0
  188.1230  177.6960  147.9510 C   0  0  0  0  0  3  0  0  0  0  0  0
  189.4940  177.4330  148.0630 C   0  0  0  0  0  3  0  0  0  0  0  0
  190.2620  177.2280  146.9180 C   0  0  0  0  0  3  0  0  0  0  0  0
  188.2900  177.5700  145.5400 C   0  0  0  0  0  0  0  0  0  0  0  0
  186.1600  177.4910  144.3260 N   0  0  0  0  0  2  0  0  0  0  0  0
  185.6030  177.4720  143.0820 O   0  0  0  0  0  0  0  0  0  0  0  0
  184.7090  178.9150  142.9610 P   0  0  0  0  0  0  0  0  0  0  0  0
  185.3210  179.7780  141.8800 O   0  0  0  0  0  0  0  0  0  0  0  0
  184.7850  179.7530  144.4400 O   0  0  0  0  0  1  0  0  0  0  0  0
  183.0800  178.6010  142.5740 O   0  0  0  0  0  1  0  0  0  0  0  0
  185.8520  177.7890  137.6870 C   0  0  2  0  0  3  0  0  0  0  0  0
  183.8500  176.5100  137.0700 C   0  0  0  0  0  3  0  0  0  0  0  0
  185.1110  176.8430  136.7610 C   0  0  0  0  0  0  0  0  0  0  0  0
  184.9000  178.8720  138.1720 C   0  0  0  0  0  2  0  0  0  0  0  0
  183.7940  178.1970  138.9540 C   0  0  0  0  0  2  0  0  0  0  0  0
  183.1510  177.1340  138.1700 N   0  0  0  0  0  0  0  0  0  0  0  0
  181.7520  176.7880  138.4810 C   0  0  1  0  0  3  0  0  0  0  0  0
  181.5850  175.3370  138.9440 C   0  0  0  0  0  1  0  0  0  0  0  0
  180.5880  177.0840  140.5780 O   0  0  0  0  0  1  0  0  0  0  0  0
  181.1640  177.7710  139.5010 C   0  0  2  0  0  3  0  0  0  0  0  0
  180.1370  178.6940  138.8630 C   0  0  0  0  0  2  0  0  0  0  0  0
  180.4880  180.0410  139.1000 O   0  0  0  0  0  1  0  0  0  0  0  0
  185.7550  176.1590  135.6210 C   0  0  0  0  0  3  0  0  0  0  0  0
  186.6580  175.1770  135.7350 C   0  0  0  0  0  3  0  0  0  0  0  0
  187.1780  174.6720  137.0500 C   0  0  0  0  0  2  0  0  0  0  0  0
  188.5060  174.2240  136.9290 O   0  0  0  0  0  0  0  0  0  0  0  0
  189.1150  175.1170  136.0410 C   0  0  0  0  0  2  0  0  0  0  0  0
  191.2770  175.8690  137.1150 C   0  0  0  0  0  2  0  0  0  0  0  0
  190.9850  173.5230  136.3240 C   0  0  0  0  0  2  0  0  0  0  0  0
  190.6320  174.9800  136.0440 C   0  0  0  0  0  3  0  0  0  0  0  0
  192.7930  175.6870  137.1030 C   0  0  0  0  0  2  0  0  0  0  0  0
  193.1470  174.2280  137.3880 C   0  0  0  0  0  2  0  0  0  0  0  0
  192.4980  173.3210  136.3450 C   0  0  0  0  0  2  0  0  0  0  0  0
  1  5  1  0  0  0  0
  2  1  2  0  0  0  0
  3  1  1  0  0  0  0
  4 11  1  0  0  0  0
  5  6  1  0  0  0  0
  5  4  2  0  0  0  0
  6  8  1  0  0  0  0
  7  9  2  0  0  0  0
  8 10  1  0  0  0  0
 10  7  1  0  0  0  0
 11 10  1  0  0  0  0
 12  7  1  6  0  0  0
 12 19  1  0  0  0  0
 12 18  1  0  0  0  0
 13 17  1  0  0  0  0
 14 15  2  0  0  0  0
 15 16  1  0  0  0  0
 17 16  2  0  0  0  0
 18 13  2  0  0  0  0
 18 14  1  0  0  0  0
 20 19  1  0  0  0  0
 21 20  1  0  0  0  0
 21 23  1  0  0  0  0
 22 21  2  0  0  0  0
 24 21  1  0  0  0  0
 25  3  1  6  0  0  0
 25 28  1  0  0  0  0
 26 30  1  0  0  0  0
 27 26  2  0  0  0  0
 27 25  1  0  0  0  0
 28 29  1  0  0  0  0
 30 31  1  0  0  0  0
 30 29  1  0  0  0  0
 31 32  1  1  0  0  0
 31 34  1  0  0  0  0
 34 33  1  1  0  0  0
 35 36  1  0  0  0  0
 35 34  1  0  0  0  0
 37 38  2  0  0  0  0
 37 27  1  0  0  0  0
 38 39  1  0  0  0  0
 40 39  1  0  0  0  0
 41 44  1  0  0  0  0
 41 40  1  0  0  0  0
 43 47  1  0  0  0  0
 44 43  1  0  0  0  0
 44 42  1  0  0  0  0
 45 42  1  0  0  0  0
 45 46  1  0  0  0  0
 47 46  1  0  0  0  0
M  END
>  <MODEL>
2

>  <REMARK>
 VINA RESULT:      -6.7      1.856      3.543
  Name = 
  15 active torsions:
  status: ('A' for Active; 'I' for Inactive)
    1  A    between atoms: C_3  and  N_40
    2  A    between atoms: C_3  and  C_46
    3  A    between atoms: C_4  and  O_15
    4  A    between atoms: C_4  and  C_22
    5  A    between atoms: C_6  and  C_19
    6  A    between atoms: C_8  and  N_25
    7  A    between atoms: O_12  and  P_18
    8  A    between atoms: O_12  and  N_42
    9  A    between atoms: C_14  and  C_28
   10  A    between atoms: O_15  and  C_45
   11  A    between atoms: C_16  and  C_46
   12  A    between atoms: C_24  and  C_30
   13  A    between atoms: C_30  and  C_37
   14  A    between atoms: C_30  and  N_42
   15  A    between atoms: C_45  and  C_47
                            x       y       z     vdW  Elec       q    Type
                         _______ _______ _______ _____ _____    ______ ____

>  <TORSDO>
F 15

$$$$
=
 OpenBabel11062417333D

 47 50  0  0  1  0  0  0  0  0999 V2000
  188.1260  178.8240  138.1060 C   0  0  0  0  0  0  0  0  0  0  0  0
  189.0460  179.4520  137.4590 N   0  0  0  0  0  2  0  0  0  0  0  0
  186.8100  178.7640  137.5460 N   0  0  0  0  0  2  0  0  0  0  0  0
  188.2890  179.0250  140.5300 C   0  0  0  0  0  3  0  0  0  0  0  0
  188.4400  178.2750  139.4410 C   0  0  0  0  0  0  0  0  0  0  0  0
  188.9550  176.9470  139.5640 N   0  0  0  0  0  2  0  0  0  0  0  0
  188.5110  176.3380  143.1490 C   0  0  0  0  0  0  0  0  0  0  0  0
  189.4530  176.4320  140.8390 C   0  0  0  0  0  2  0  0  0  0  0  0
  188.6440  175.0820  143.1290 O   0  0  0  0  0  0  0  0  0  0  0  0
  188.7700  177.0890  141.9520 N   0  0  0  0  0  0  0  0  0  0  0  0
  188.6480  178.5420  141.9080 C   0  0  0  0  0  2  0  0  0  0  0  0
  188.0040  177.0010  144.4150 C   0  0  2  0  0  3  0  0  0  0  0  0
  186.1310  178.4400  145.3650 C   0  0  0  0  0  3  0  0  0  0  0  0
  185.9700  177.5970  143.0980 C   0  0  0  0  0  3  0  0  0  0  0  0
  184.7360  178.2350  142.9540 C   0  0  0  0  0  3  0  0  0  0  0  0
  184.2030  178.9810  144.0120 C   0  0  0  0  0  3  0  0  0  0  0  0
  184.9010  179.0830  145.2150 C   0  0  0  0  0  3  0  0  0  0  0  0
  186.6770  177.7030  144.2970 C   0  0  0  0  0  0  0  0  0  0  0  0
  189.0100  177.8600  145.0410 N   0  0  0  0  0  2  0  0  0  0  0  0
  189.6290  177.1670  146.0390 O   0  0  0  0  0  0  0  0  0  0  0  0
  191.2660  177.0810  145.5850 P   0  0  0  0  0  0  0  0  0  0  0  0
  191.4710  175.8520  144.7290 O   0  0  0  0  0  1  0  0  0  0  0  0
  192.2330  176.9460  146.9780 O   0  0  0  0  0  1  0  0  0  0  0  0
  191.7360  178.4630  144.7050 O   0  0  0  0  0  0  0  0  0  0  0  0
  185.7280  177.9620  138.1000 C   0  0  2  0  0  3  0  0  0  0  0  0
  183.8450  176.5680  137.3690 C   0  0  0  0  0  3  0  0  0  0  0  0
  185.0410  177.0900  137.0660 C   0  0  0  0  0  0  0  0  0  0  0  0
  184.6940  178.8370  138.7920 C   0  0  0  0  0  2  0  0  0  0  0  0
  183.7160  177.9250  139.5000 C   0  0  0  0  0  2  0  0  0  0  0  0
  183.1480  176.9280  138.5820 N   0  0  0  0  0  0  0  0  0  0  0  0
  181.8160  176.3770  138.8910 C   0  0  1  0  0  3  0  0  0  0  0  0
  181.0870  177.1570  139.9900 C   0  0  0  0  0  1  0  0  0  0  0  0
  179.9380  177.2300  137.6300 O   0  0  0  0  0  1  0  0  0  0  0  0
  180.9640  176.2750  137.6200 C   0  0  2  0  0  3  0  0  0  0  0  0
  180.3750  174.8820  137.4500 C   0  0  0  0  0  2  0  0  0  0  0  0
  181.4000  173.9140  137.5270 O   0  0  0  0  0  1  0  0  0  0  0  0
  185.6880  176.6710  135.8050 C   0  0  0  0  0  3  0  0  0  0  0  0
  186.6590  175.7530  135.7180 C   0  0  0  0  0  3  0  0  0  0  0  0
  187.2600  175.0590  136.9060 C   0  0  0  0  0  2  0  0  0  0  0  0
  188.4800  174.4470  136.5700 O   0  0  0  0  0  0  0  0  0  0  0  0
  189.3750  175.5020  136.3590 C   0  0  0  0  0  2  0  0  0  0  0  0
  191.6300  175.8570  135.2730 C   0  0  0  0  0  2  0  0  0  0  0  0
  191.4510  175.1240  137.6480 C   0  0  0  0  0  2  0  0  0  0  0  0
  190.8160  175.0190  136.2660 C   0  0  0  0  0  3  0  0  0  0  0  0
  193.0720  175.3580  135.2250 C   0  0  0  0  0  2  0  0  0  0  0  0
  193.7100  175.4680  136.6090 C   0  0  0  0  0  2  0  0  0  0  0  0
  192.9040  174.6560  137.6200 C   0  0  0  0  0  2  0  0  0  0  0  0
  1  5  1  0  0  0  0
  2  1  2  0  0  0  0
  3  1  1  0  0  0  0
  4 11  1  0  0  0  0
  5  6  1  0  0  0  0
  5  4  2  0  0  0  0
  6  8  1  0  0  0  0
  8 10  1  0  0  0  0
  9  7  2  0  0  0  0
 10  7  1  0  0  0  0
 11 10  1  0  0  0  0
 12  7  1  6  0  0  0
 12 19  1  0  0  0  0
 14 18  1  0  0  0  0
 15 14  2  0  0  0  0
 15 16  1  0  0  0  0
 16 17  2  0  0  0  0
 17 13  1  0  0  0  0
 18 12  1  0  0  0  0
 18 13  2  0  0  0  0
 19 20  1  0  0  0  0
 21 20  1  0  0  0  0
 21 23  1  0  0  0  0
 22 21  1  0  0  0  0
 24 21  2  0  0  0  0
 25  3  1  6  0  0  0
 25 28  1  0  0  0  0
 26 30  1  0  0  0  0
 27 26  2  0  0  0  0
 27 25  1  0  0  0  0
 28 29  1  0  0  0  0
 30 31  1  0  0  0  0
 30 29  1  0  0  0  0
 31 32  1  1  0  0  0
 34 33  1  1  0  0  0
 34 31  1  0  0  0  0
 35 36  1  0  0  0  0
 35 34  1  0  0  0  0
 37 27  1  0  0  0  0
 38 37  2  0  0  0  0
 38 39  1  0  0  0  0
 40 39  1  0  0  0  0
 41 40  1  0  0  0  0
 42 44  1  0  0  0  0
 44 41  1  0  0  0  0
 44 43  1  0  0  0  0
 45 42  1  0  0  0  0
 45 46  1  0  0  0  0
 46 47  1  0  0  0  0
 47 43  1  0  0  0  0
M  END
>  <MODEL>
3

>  <REMARK>
 VINA RESULT:      -6.3      2.942      4.975
  Name = 
  15 active torsions:
  status: ('A' for Active; 'I' for Inactive)
    1  A    between atoms: C_3  and  N_40
    2  A    between atoms: C_3  and  C_46
    3  A    between atoms: C_4  and  O_15
    4  A    between atoms: C_4  and  C_22
    5  A    between atoms: C_6  and  C_19
    6  A    between atoms: C_8  and  N_25
    7  A    between atoms: O_12  and  P_18
    8  A    between atoms: O_12  and  N_42
    9  A    between atoms: C_14  and  C_28
   10  A    between atoms: O_15  and  C_45
   11  A    between atoms: C_16  and  C_46
   12  A    between atoms: C_24  and  C_30
   13  A    between atoms: C_30  and  C_37
   14  A    between atoms: C_30  and  N_42
   15  A    between atoms: C_45  and  C_47
                            x       y       z     vdW  Elec       q    Type
                         _______ _______ _______ _____ _____    ______ ____

>  <TORSDO>
F 15

$$$$
=
 OpenBabel11062417333D

 47 50  0  0  1  0  0  0  0  0999 V2000
  186.2860  178.4880  142.6920 C   0  0  0  0  0  0  0  0  0  0  0  0
  185.9430  178.7650  143.9020 N   0  0  0  0  0  2  0  0  0  0  0  0
  187.6660  178.2280  142.4110 N   0  0  0  0  0  2  0  0  0  0  0  0
  184.1640  177.7960  141.7130 C   0  0  0  0  0  3  0  0  0  0  0  0
  185.2620  178.5430  141.6290 C   0  0  0  0  0  0  0  0  0  0  0  0
  185.4730  179.3640  140.4780 N   0  0  0  0  0  2  0  0  0  0  0  0
  182.1040  179.4530  139.0410 C   0  0  0  0  0  0  0  0  0  0  0  0
  184.5800  179.3050  139.3200 C   0  0  0  0  0  2  0  0  0  0  0  0
  182.2720  180.4380  138.2680 O   0  0  0  0  0  0  0  0  0  0  0  0
  183.2360  178.9080  139.7360 N   0  0  0  0  0  0  0  0  0  0  0  0
  183.1170  177.7650  140.6350 C   0  0  0  0  0  2  0  0  0  0  0  0
  180.6980  178.9320  139.2700 C   0  0  2  0  0  3  0  0  0  0  0  0
  179.8720  178.1690  141.5540 C   0  0  0  0  0  3  0  0  0  0  0  0
  179.7940  180.5200  140.9680 C   0  0  0  0  0  3  0  0  0  0  0  0
  179.2510  180.8090  142.2230 C   0  0  0  0  0  3  0  0  0  0  0  0
  179.0260  179.7790  143.1450 C   0  0  0  0  0  3  0  0  0  0  0  0
  179.3370  178.4620  142.8090 C   0  0  0  0  0  3  0  0  0  0  0  0
  180.1150  179.2040  140.6310 C   0  0  0  0  0  0  0  0  0  0  0  0
  180.5530  177.5250  138.8970 N   0  0  0  0  0  2  0  0  0  0  0  0
  181.1380  177.3220  137.6830 O   0  0  0  0  0  0  0  0  0  0  0  0
  181.6200  175.6900  137.6770 P   0  0  0  0  0  0  0  0  0  0  0  0
  181.2080  175.0640  136.3630 O   0  0  0  0  0  0  0  0  0  0  0  0
  180.8400  174.8650  138.9450 O   0  0  0  0  0  1  0  0  0  0  0  0
  183.3080  175.5440  137.8640 O   0  0  0  0  0  1  0  0  0  0  0  0
  188.1570  177.7570  141.1230 C   0  0  2  0  0  3  0  0  0  0  0  0
  190.0340  176.5010  140.1610 C   0  0  0  0  0  3  0  0  0  0  0  0
  189.2880  176.7530  141.2460 C   0  0  0  0  0  0  0  0  0  0  0  0
  188.6030  178.9180  140.2470 C   0  0  0  0  0  2  0  0  0  0  0  0
  188.9120  178.3670  138.8720 C   0  0  0  0  0  2  0  0  0  0  0  0
  189.8730  177.2570  138.9410 N   0  0  0  0  0  0  0  0  0  0  0  0
  190.7220  176.9980  137.7640 C   0  0  1  0  0  3  0  0  0  0  0  0
  192.1470  176.5730  138.1380 C   0  0  0  0  0  1  0  0  0  0  0  0
  188.7350  175.7340  137.2190 O   0  0  0  0  0  1  0  0  0  0  0  0
  190.0610  175.9730  136.8330 C   0  0  2  0  0  3  0  0  0  0  0  0
  190.8370  174.6650  136.8000 C   0  0  0  0  0  2  0  0  0  0  0  0
  190.1440  173.6760  137.5320 O   0  0  0  0  0  1  0  0  0  0  0  0
  189.5140  175.9360  142.4560 C   0  0  0  0  0  3  0  0  0  0  0  0
  190.3880  176.2380  143.4240 C   0  0  0  0  0  3  0  0  0  0  0  0
  191.2990  177.4310  143.3820 C   0  0  0  0  0  2  0  0  0  0  0  0
  191.6120  177.8740  144.6800 O   0  0  0  0  0  0  0  0  0  0  0  0
  190.9260  177.0080  145.5390 C   0  0  0  0  0  2  0  0  0  0  0  0
  188.4570  177.2180  146.0410 C   0  0  0  0  0  2  0  0  0  0  0  0
  190.1610  177.5140  147.8350 C   0  0  0  0  0  2  0  0  0  0  0  0
  189.8660  177.7350  146.3560 C   0  0  0  0  0  3  0  0  0  0  0  0
  187.4260  177.9540  146.8940 C   0  0  0  0  0  2  0  0  0  0  0  0
  187.7190  177.7290  148.3770 C   0  0  0  0  0  2  0  0  0  0  0  0
  189.1260  178.2180  148.7100 C   0  0  0  0  0  2  0  0  0  0  0  0
  1  2  2  0  0  0  0
  3  1  1  0  0  0  0
  5  4  2  0  0  0  0
  5  1  1  0  0  0  0
  6  5  1  0  0  0  0
  7 12  1  0  0  0  0
  7 10  1  0  0  0  0
  8 10  1  0  0  0  0
  8  6  1  0  0  0  0
  9  7  2  0  0  0  0
 10 11  1  0  0  0  0
 11  4  1  0  0  0  0
 12 19  1  1  0  0  0
 12 18  1  0  0  0  0
 13 17  1  0  0  0  0
 14 15  2  0  0  0  0
 15 16  1  0  0  0  0
 17 16  2  0  0  0  0
 18 14  1  0  0  0  0
 18 13  2  0  0  0  0
 20 19  1  0  0  0  0
 21 20  1  0  0  0  0
 21 24  1  0  0  0  0
 21 23  1  0  0  0  0
 22 21  2  0  0  0  0
 25 27  1  0  0  0  0
 25  3  1  1  0  0  0
 26 27  2  0  0  0  0
 27 37  1  0  0  0  0
 28 25  1  0  0  0  0
 29 30  1  0  0  0  0
 29 28  1  0  0  0  0
 30 26  1  0  0  0  0
 31 32  1  1  0  0  0
 31 30  1  0  0  0  0
 34 33  1  1  0  0  0
 34 31  1  0  0  0  0
 35 34  1  0  0  0  0
 35 36  1  0  0  0  0
 37 38  2  0  0  0  0
 39 38  1  0  0  0  0
 39 40  1  0  0  0  0
 40 41  1  0  0  0  0
 41 44  1  0  0  0  0
 42 44  1  0  0  0  0
 42 45  1  0  0  0  0
 43 47  1  0  0  0  0
 44 43  1  0  0  0  0
 45 46  1  0  0  0  0
 46 47  1  0  0  0  0
M  END
>  <MODEL>
4

>  <REMARK>
 VINA RESULT:      -6.3      3.959      9.329
  Name = 
  15 active torsions:
  status: ('A' for Active; 'I' for Inactive)
    1  A    between atoms: C_3  and  N_40
    2  A    between atoms: C_3  and  C_46
    3  A    between atoms: C_4  and  O_15
    4  A    between atoms: C_4  and  C_22
    5  A    between atoms: C_6  and  C_19
    6  A    between atoms: C_8  and  N_25
    7  A    between atoms: O_12  and  P_18
    8  A    between atoms: O_12  and  N_42
    9  A    between atoms: C_14  and  C_28
   10  A    between atoms: O_15  and  C_45
   11  A    between atoms: C_16  and  C_46
   12  A    between atoms: C_24  and  C_30
   13  A    between atoms: C_30  and  C_37
   14  A    between atoms: C_30  and  N_42
   15  A    between atoms: C_45  and  C_47
                            x       y       z     vdW  Elec       q    Type
                         _______ _______ _______ _____ _____    ______ ____

>  <TORSDO>
F 15

$$$$
=
 OpenBabel11062417333D

 47 50  0  0  1  0  0  0  0  0999 V2000
  186.5420  179.2980  141.5370 C   0  0  0  0  0  0  0  0  0  0  0  0
  186.4020  180.1510  142.4910 N   0  0  0  0  0  2  0  0  0  0  0  0
  187.8650  178.8960  141.1620 N   0  0  0  0  0  2  0  0  0  0  0  0
  184.4350  178.0790  141.4120 C   0  0  0  0  0  3  0  0  0  0  0  0
  185.3430  178.8390  140.8050 C   0  0  0  0  0  0  0  0  0  0  0  0
  185.1800  179.1710  139.4250 N   0  0  0  0  0  2  0  0  0  0  0  0
  181.6410  178.3720  138.9150 C   0  0  0  0  0  0  0  0  0  0  0  0
  184.1090  178.5850  138.6170 C   0  0  0  0  0  2  0  0  0  0  0  0
  181.4770  178.9950  137.8280 O   0  0  0  0  0  0  0  0  0  0  0  0
  182.9640  178.2490  139.4600 N   0  0  0  0  0  0  0  0  0  0  0  0
  183.2270  177.5330  140.7040 C   0  0  0  0  0  2  0  0  0  0  0  0
  180.4230  177.8440  139.6480 C   0  0  2  0  0  3  0  0  0  0  0  0
  179.7000  179.9850  140.8200 C   0  0  0  0  0  3  0  0  0  0  0  0
  179.9700  177.9440  142.0990 C   0  0  0  0  0  3  0  0  0  0  0  0
  179.5970  178.6270  143.2590 C   0  0  0  0  0  3  0  0  0  0  0  0
  179.2670  179.9860  143.1980 C   0  0  0  0  0  3  0  0  0  0  0  0
  179.3200  180.6630  141.9800 C   0  0  0  0  0  3  0  0  0  0  0  0
  180.0150  178.6140  140.8750 C   0  0  0  0  0  0  0  0  0  0  0  0
  180.5080  176.4090  139.9200 N   0  0  0  0  0  2  0  0  0  0  0  0
  179.4940  175.7700  139.2720 O   0  0  0  0  0  0  0  0  0  0  0  0
  180.2320  174.9190  137.9980 P   0  0  0  0  0  0  0  0  0  0  0  0
  179.7500  173.4850  138.0250 O   0  0  0  0  0  1  0  0  0  0  0  0
  181.9210  174.9320  138.2120 O   0  0  0  0  0  1  0  0  0  0  0  0
  179.8500  175.6110  136.4890 O   0  0  0  0  0  0  0  0  0  0  0  0
  188.1510  177.8320  140.2090 C   0  0  2  0  0  3  0  0  0  0  0  0
  190.0540  176.6020  139.2670 C   0  0  0  0  0  3  0  0  0  0  0  0
  189.5800  177.3280  140.2880 C   0  0  0  0  0  0  0  0  0  0  0  0
  187.8470  178.2730  138.7850 C   0  0  0  0  0  2  0  0  0  0  0  0
  187.9830  177.0620  137.8880 C   0  0  0  0  0  2  0  0  0  0  0  0
  189.2910  176.4140  138.0540 N   0  0  0  0  0  0  0  0  0  0  0  0
  189.8350  175.6430  136.9210 C   0  0  1  0  0  3  0  0  0  0  0  0
  191.2860  176.0130  136.5900 C   0  0  0  0  0  1  0  0  0  0  0  0
  190.8980  173.4720  136.9370 O   0  0  0  0  0  1  0  0  0  0  0  0
  189.6860  174.1370  137.1690 C   0  0  2  0  0  3  0  0  0  0  0  0
  188.5890  173.5330  136.3050 C   0  0  0  0  0  2  0  0  0  0  0  0
  188.3630  174.3500  135.1750 O   0  0  0  0  0  1  0  0  0  0  0  0
  190.4220  177.4750  141.4930 C   0  0  0  0  0  3  0  0  0  0  0  0
  190.2790  176.7520  142.6120 C   0  0  0  0  0  3  0  0  0  0  0  0
  189.2010  175.7260  142.8100 C   0  0  0  0  0  2  0  0  0  0  0  0
  188.0900  176.2830  143.4690 O   0  0  0  0  0  0  0  0  0  0  0  0
  188.6090  176.8900  144.6170 C   0  0  0  0  0  2  0  0  0  0  0  0
  186.1910  177.6190  144.7390 C   0  0  0  0  0  2  0  0  0  0  0  0
  187.6460  177.6560  146.7620 C   0  0  0  0  0  2  0  0  0  0  0  0
  187.6170  177.8560  145.2510 C   0  0  0  0  0  3  0  0  0  0  0  0
  185.2240  178.5890  145.4130 C   0  0  0  0  0  2  0  0  0  0  0  0
  185.2490  178.3850  146.9280 C   0  0  0  0  0  2  0  0  0  0  0  0
  186.6660  178.5960  147.4580 C   0  0  0  0  0  2  0  0  0  0  0  0
  1  2  2  0  0  0  0
  3  1  1  0  0  0  0
  5  4  2  0  0  0  0
  5  1  1  0  0  0  0
  6  5  1  0  0  0  0
  7 10  1  0  0  0  0
  8  6  1  0  0  0  0
  8 10  1  0  0  0  0
  9  7  2  0  0  0  0
 10 11  1  0  0  0  0
 11  4  1  0  0  0  0
 12  7  1  1  0  0  0
 12 19  1  0  0  0  0
 12 18  1  0  0  0  0
 13 18  2  0  0  0  0
 13 17  1  0  0  0  0
 14 15  2  0  0  0  0
 16 15  1  0  0  0  0
 17 16  2  0  0  0  0
 18 14  1  0  0  0  0
 20 19  1  0  0  0  0
 21 22  1  0  0  0  0
 21 23  1  0  0  0  0
 21 20  1  0  0  0  0
 24 21  2  0  0  0  0
 25 27  1  0  0  0  0
 25  3  1  1  0  0  0
 26 27  2  0  0  0  0
 27 37  1  0  0  0  0
 28 25  1  0  0  0  0
 29 30  1  0  0  0  0
 29 28  1  0  0  0  0
 30 26  1  0  0  0  0
 31 32  1  1  0  0  0
 31 34  1  0  0  0  0
 31 30  1  0  0  0  0
 34 33  1  6  0  0  0
 35 34  1  0  0  0  0
 36 35  1  0  0  0  0
 37 38  2  0  0  0  0
 38 39  1  0  0  0  0
 39 40  1  0  0  0  0
 40 41  1  0  0  0  0
 41 44  1  0  0  0  0
 42 44  1  0  0  0  0
 42 45  1  0  0  0  0
 43 47  1  0  0  0  0
 44 43  1  0  0  0  0
 45 46  1  0  0  0  0
 46 47  1  0  0  0  0
M  END
>  <MODEL>
5

>  <REMARK>
 VINA RESULT:      -6.0      3.273      8.796
  Name = 
  15 active torsions:
  status: ('A' for Active; 'I' for Inactive)
    1  A    between atoms: C_3  and  N_40
    2  A    between atoms: C_3  and  C_46
    3  A    between atoms: C_4  and  O_15
    4  A    between atoms: C_4  and  C_22
    5  A    between atoms: C_6  and  C_19
    6  A    between atoms: C_8  and  N_25
    7  A    between atoms: O_12  and  P_18
    8  A    between atoms: O_12  and  N_42
    9  A    between atoms: C_14  and  C_28
   10  A    between atoms: O_15  and  C_45
   11  A    between atoms: C_16  and  C_46
   12  A    between atoms: C_24  and  C_30
   13  A    between atoms: C_30  and  C_37
   14  A    between atoms: C_30  and  N_42
   15  A    between atoms: C_45  and  C_47
                            x       y       z     vdW  Elec       q    Type
                         _______ _______ _______ _____ _____    ______ ____

>  <TORSDO>
F 15

$$$$
=
 OpenBabel11062417333D

 47 50  0  0  1  0  0  0  0  0999 V2000
  182.5290  178.2240  138.1160 C   0  0  0  0  0  0  0  0  0  0  0  0
  181.6710  179.1500  137.8600 N   0  0  0  0  0  2  0  0  0  0  0  0
  182.4800  177.0110  137.3550 N   0  0  0  0  0  2  0  0  0  0  0  0
  183.3260  177.6940  140.3570 C   0  0  0  0  0  3  0  0  0  0  0  0
  183.4650  178.4090  139.2430 C   0  0  0  0  0  0  0  0  0  0  0  0
  184.4970  179.3950  139.1600 N   0  0  0  0  0  2  0  0  0  0  0  0
  186.6580  178.4020  141.9460 C   0  0  0  0  0  0  0  0  0  0  0  0
  185.3230  179.7400  140.3170 C   0  0  0  0  0  2  0  0  0  0  0  0
  187.6850  179.0580  141.6120 O   0  0  0  0  0  0  0  0  0  0  0  0
  185.4350  178.5960  141.2190 N   0  0  0  0  0  0  0  0  0  0  0  0
  184.2100  177.8800  141.5590 C   0  0  0  0  0  2  0  0  0  0  0  0
  186.7770  177.3710  143.0520 C   0  0  2  0  0  3  0  0  0  0  0  0
  187.2180  177.5920  145.5490 C   0  0  0  0  0  3  0  0  0  0  0  0
  185.2040  178.5440  144.5930 C   0  0  0  0  0  3  0  0  0  0  0  0
  184.8260  179.0010  145.8580 C   0  0  0  0  0  3  0  0  0  0  0  0
  185.6470  178.7600  146.9660 C   0  0  0  0  0  3  0  0  0  0  0  0
  186.8410  178.0560  146.8110 C   0  0  0  0  0  3  0  0  0  0  0  0
  186.4030  177.8470  144.4300 C   0  0  0  0  0  0  0  0  0  0  0  0
  188.0740  176.6940  143.0530 N   0  0  0  0  0  2  0  0  0  0  0  0
  189.0650  177.6280  143.0220 O   0  0  0  0  0  0  0  0  0  0  0  0
  190.4720  176.8160  143.5270 P   0  0  0  0  0  0  0  0  0  0  0  0
  190.4600  176.7110  145.0360 O   0  0  0  0  0  1  0  0  0  0  0  0
  191.8410  177.7080  143.0520 O   0  0  0  0  0  1  0  0  0  0  0  0
  190.5570  175.2520  142.8560 O   0  0  0  0  0  0  0  0  0  0  0  0
  183.4820  175.9570  137.4430 C   0  0  2  0  0  3  0  0  0  0  0  0
  185.2040  174.8700  136.0730 C   0  0  0  0  0  3  0  0  0  0  0  0
  184.4580  175.9640  136.2810 C   0  0  0  0  0  0  0  0  0  0  0  0
  182.8300  174.5870  137.5480 C   0  0  0  0  0  2  0  0  0  0  0  0
  183.9210  173.5770  137.8280 C   0  0  0  0  0  2  0  0  0  0  0  0
  184.9980  173.6590  136.8320 N   0  0  0  0  0  0  0  0  0  0  0  0
  185.7990  172.4480  136.5720 C   0  0  1  0  0  3  0  0  0  0  0  0
  185.0230  171.3720  135.8040 C   0  0  0  0  0  1  0  0  0  0  0  0
  187.3020  171.9930  134.7340 O   0  0  0  0  0  1  0  0  0  0  0  0
  187.1080  172.8080  135.8580 C   0  0  2  0  0  3  0  0  0  0  0  0
  188.3040  172.7000  136.7920 C   0  0  0  0  0  2  0  0  0  0  0  0
  189.0090  173.9230  136.8150 O   0  0  0  0  0  1  0  0  0  0  0  0
  184.7310  177.1630  135.4620 C   0  0  0  0  0  3  0  0  0  0  0  0
  185.7820  177.9760  135.6310 C   0  0  0  0  0  3  0  0  0  0  0  0
  186.8030  177.8030  136.7180 C   0  0  0  0  0  2  0  0  0  0  0  0
  187.8450  178.7380  136.5850 O   0  0  0  0  0  0  0  0  0  0  0  0
  188.9710  177.9860  136.2330 C   0  0  0  0  0  2  0  0  0  0  0  0
  190.9600  176.7060  137.1260 C   0  0  0  0  0  2  0  0  0  0  0  0
  189.6200  178.1950  138.6100 C   0  0  0  0  0  2  0  0  0  0  0  0
  189.5530  177.2370  137.4240 C   0  0  0  0  0  3  0  0  0  0  0  0
  191.5170  175.9830  138.3490 C   0  0  0  0  0  2  0  0  0  0  0  0
  191.5900  176.9430  139.5360 C   0  0  0  0  0  2  0  0  0  0  0  0
  190.2020  177.5020  139.8390 C   0  0  0  0  0  2  0  0  0  0  0  0
  1  5  1  0  0  0  0
  2  1  2  0  0  0  0
  3  1  1  0  0  0  0
  4 11  1  0  0  0  0
  5  4  2  0  0  0  0
  6  5  1  0  0  0  0
  6  8  1  0  0  0  0
  8 10  1  0  0  0  0
  9  7  2  0  0  0  0
 10 11  1  0  0  0  0
 10  7  1  0  0  0  0
 12  7  1  6  0  0  0
 12 19  1  0  0  0  0
 12 18  1  0  0  0  0
 13 17  1  0  0  0  0
 14 15  2  0  0  0  0
 15 16  1  0  0  0  0
 17 16  2  0  0  0  0
 18 14  1  0  0  0  0
 18 13  2  0  0  0  0
 20 19  1  0  0  0  0
 20 21  1  0  0  0  0
 21 22  1  0  0  0  0
 23 21  1  0  0  0  0
 24 21  2  0  0  0  0
 25  3  1  6  0  0  0
 25 28  1  0  0  0  0
 26 27  2  0  0  0  0
 26 30  1  0  0  0  0
 27 25  1  0  0  0  0
 28 29  1  0  0  0  0
 30 29  1  0  0  0  0
 31 32  1  6  0  0  0
 31 30  1  0  0  0  0
 34 33  1  6  0  0  0
 34 31  1  0  0  0  0
 34 35  1  0  0  0  0
 35 36  1  0  0  0  0
 37 38  2  0  0  0  0
 37 27  1  0  0  0  0
 38 39  1  0  0  0  0
 40 39  1  0  0  0  0
 41 40  1  0  0  0  0
 41 44  1  0  0  0  0
 42 44  1  0  0  0  0
 42 45  1  0  0  0  0
 43 47  1  0  0  0  0
 44 43  1  0  0  0  0
 45 46  1  0  0  0  0
 46 47  1  0  0  0  0
M  END
>  <MODEL>
6

>  <REMARK>
 VINA RESULT:      -5.7      2.954      6.290
  Name = 
  15 active torsions:
  status: ('A' for Active; 'I' for Inactive)
    1  A    between atoms: C_3  and  N_40
    2  A    between atoms: C_3  and  C_46
    3  A    between atoms: C_4  and  O_15
    4  A    between atoms: C_4  and  C_22
    5  A    between atoms: C_6  and  C_19
    6  A    between atoms: C_8  and  N_25
    7  A    between atoms: O_12  and  P_18
    8  A    between atoms: O_12  and  N_42
    9  A    between atoms: C_14  and  C_28
   10  A    between atoms: O_15  and  C_45
   11  A    between atoms: C_16  and  C_46
   12  A    between atoms: C_24  and  C_30
   13  A    between atoms: C_30  and  C_37
   14  A    between atoms: C_30  and  N_42
   15  A    between atoms: C_45  and  C_47
                            x       y       z     vdW  Elec       q    Type
                         _______ _______ _______ _____ _____    ______ ____

>  <TORSDO>
F 15

$$$$
=
 OpenBabel11062417333D

 47 50  0  0  1  0  0  0  0  0999 V2000
  190.9030  175.5510  138.3040 C   0  0  0  0  0  0  0  0  0  0  0  0
  191.8700  174.7670  137.9730 N   0  0  0  0  0  2  0  0  0  0  0  0
  190.8820  176.0950  139.6290 N   0  0  0  0  0  2  0  0  0  0  0  0
  188.8190  174.8970  137.2230 C   0  0  0  0  0  3  0  0  0  0  0  0
  189.8070  175.7810  137.3410 C   0  0  0  0  0  0  0  0  0  0  0  0
  189.8310  176.9330  136.4950 N   0  0  0  0  0  2  0  0  0  0  0  0
  186.3830  176.9790  135.2580 C   0  0  0  0  0  0  0  0  0  0  0  0
  188.8710  177.1030  135.4030 C   0  0  0  0  0  2  0  0  0  0  0  0
  186.3710  178.1650  134.8220 O   0  0  0  0  0  0  0  0  0  0  0  0
  187.6210  176.4140  135.7160 N   0  0  0  0  0  0  0  0  0  0  0  0
  187.7090  175.0470  136.2200 C   0  0  0  0  0  2  0  0  0  0  0  0
  185.0730  176.2210  135.3560 C   0  0  2  0  0  3  0  0  0  0  0  0
  183.7570  177.4090  137.1830 C   0  0  0  0  0  3  0  0  0  0  0  0
  182.8990  177.3640  134.9160 C   0  0  0  0  0  3  0  0  0  0  0  0
  181.7880  178.1050  135.3280 C   0  0  0  0  0  3  0  0  0  0  0  0
  181.6670  178.5050  136.6640 C   0  0  0  0  0  3  0  0  0  0  0  0
  182.6500  178.1560  137.5900 C   0  0  0  0  0  3  0  0  0  0  0  0
  183.8920  177.0210  135.8370 C   0  0  0  0  0  0  0  0  0  0  0  0
  185.2050  174.9640  136.0930 N   0  0  0  0  0  2  0  0  0  0  0  0
  184.2510  174.0920  135.6610 O   0  0  0  0  0  0  0  0  0  0  0  0
  184.4720  172.6810  136.5860 P   0  0  0  0  0  0  0  0  0  0  0  0
  185.1760  171.6470  135.7370 O   0  0  0  0  0  0  0  0  0  0  0  0
  182.9550  172.0660  137.0510 O   0  0  0  0  0  1  0  0  0  0  0  0
  185.4030  172.9950  137.9780 O   0  0  0  0  0  1  0  0  0  0  0  0
  189.9340  177.1070  140.0760 C   0  0  2  0  0  3  0  0  0  0  0  0
  188.2880  177.4980  141.8540 C   0  0  0  0  0  3  0  0  0  0  0  0
  189.3920  176.8430  141.4680 C   0  0  0  0  0  0  0  0  0  0  0  0
  188.7760  177.2430  139.0990 C   0  0  0  0  0  2  0  0  0  0  0  0
  187.9480  178.4350  139.5290 C   0  0  0  0  0  2  0  0  0  0  0  0
  187.5410  178.3270  140.9370 N   0  0  0  0  0  0  0  0  0  0  0  0
  186.3080  179.0160  141.3600 C   0  0  1  0  0  3  0  0  0  0  0  0
  185.2160  179.0000  140.2850 C   0  0  0  0  0  1  0  0  0  0  0  0
  184.7780  177.5030  142.4610 O   0  0  0  0  0  1  0  0  0  0  0  0
  185.7950  178.4410  142.6860 C   0  0  2  0  0  3  0  0  0  0  0  0
  185.2940  179.5380  143.6150 C   0  0  0  0  0  2  0  0  0  0  0  0
  184.3180  179.0160  144.4920 O   0  0  0  0  0  1  0  0  0  0  0  0
  190.0990  176.0140  142.4660 C   0  0  0  0  0  3  0  0  0  0  0  0
  190.8720  176.4990  143.4460 C   0  0  0  0  0  3  0  0  0  0  0  0
  191.1670  177.9600  143.6290 C   0  0  0  0  0  2  0  0  0  0  0  0
  190.5450  178.4590  144.7880 O   0  0  0  0  0  0  0  0  0  0  0  0
  190.6210  177.4210  145.7220 C   0  0  0  0  0  2  0  0  0  0  0  0
  189.2700  178.0580  147.7620 C   0  0  0  0  0  2  0  0  0  0  0  0
  188.1660  177.6660  145.5620 C   0  0  0  0  0  2  0  0  0  0  0  0
  189.3090  177.2300  146.4720 C   0  0  0  0  0  3  0  0  0  0  0  0
  187.9330  177.8590  148.4720 C   0  0  0  0  0  2  0  0  0  0  0  0
  186.7870  178.3010  147.5630 C   0  0  0  0  0  2  0  0  0  0  0  0
  186.8180  177.5030  146.2610 C   0  0  0  0  0  2  0  0  0  0  0  0
  1  3  1  0  0  0  0
  2  1  2  0  0  0  0
  4  5  2  0  0  0  0
  5  1  1  0  0  0  0
  6  5  1  0  0  0  0
  7 10  1  0  0  0  0
  8 10  1  0  0  0  0
  8  6  1  0  0  0  0
  9  7  2  0  0  0  0
 10 11  1  0  0  0  0
 11  4  1  0  0  0  0
 12  7  1  1  0  0  0
 12 18  1  0  0  0  0
 12 19  1  0  0  0  0
 13 17  1  0  0  0  0
 14 15  2  0  0  0  0
 14 18  1  0  0  0  0
 15 16  1  0  0  0  0
 16 17  2  0  0  0  0
 18 13  2  0  0  0  0
 20 19  1  0  0  0  0
 20 21  1  0  0  0  0
 21 23  1  0  0  0  0
 21 24  1  0  0  0  0
 22 21  2  0  0  0  0
 25  3  1  6  0  0  0
 25 27  1  0  0  0  0
 27 26  2  0  0  0  0
 27 37  1  0  0  0  0
 28 29  1  0  0  0  0
 28 25  1  0  0  0  0
 29 30  1  0  0  0  0
 30 31  1  0  0  0  0
 30 26  1  0  0  0  0
 31 32  1  6  0  0  0
 31 34  1  0  0  0  0
 34 33  1  6  0  0  0
 34 35  1  0  0  0  0
 35 36  1  0  0  0  0
 37 38  2  0  0  0  0
 38 39  1  0  0  0  0
 39 40  1  0  0  0  0
 40 41  1  0  0  0  0
 41 44  1  0  0  0  0
 42 45  1  0  0  0  0
 43 47  1  0  0  0  0
 43 44  1  0  0  0  0
 44 42  1  0  0  0  0
 46 45  1  0  0  0  0
 47 46  1  0  0  0  0
M  END
>  <MODEL>
7

>  <REMARK>
 VINA RESULT:      -5.7      3.095      8.983
  Name = 
  15 active torsions:
  status: ('A' for Active; 'I' for Inactive)
    1  A    between atoms: C_3  and  N_40
    2  A    between atoms: C_3  and  C_46
    3  A    between atoms: C_4  and  O_15
    4  A    between atoms: C_4  and  C_22
    5  A    between atoms: C_6  and  C_19
    6  A    between atoms: C_8  and  N_25
    7  A    between atoms: O_12  and  P_18
    8  A    between atoms: O_12  and  N_42
    9  A    between atoms: C_14  and  C_28
   10  A    between atoms: O_15  and  C_45
   11  A    between atoms: C_16  and  C_46
   12  A    between atoms: C_24  and  C_30
   13  A    between atoms: C_30  and  C_37
   14  A    between atoms: C_30  and  N_42
   15  A    between atoms: C_45  and  C_47
                            x       y       z     vdW  Elec       q    Type
                         _______ _______ _______ _____ _____    ______ ____

>  <TORSDO>
F 15

$$$$
=
 OpenBabel11062417333D

 47 50  0  0  1  0  0  0  0  0999 V2000
  179.6360  178.6750  139.4860 C   0  0  0  0  0  0  0  0  0  0  0  0
  178.9340  179.7520  139.5650 N   0  0  0  0  0  2  0  0  0  0  0  0
  179.2030  177.6350  138.6020 N   0  0  0  0  0  2  0  0  0  0  0  0
  181.8120  177.7220  140.0290 C   0  0  0  0  0  3  0  0  0  0  0  0
  180.8020  178.5150  140.3780 C   0  0  0  0  0  0  0  0  0  0  0  0
  180.8270  179.1740  141.6460 N   0  0  0  0  0  2  0  0  0  0  0  0
  184.3630  178.8510  142.5490 C   0  0  0  0  0  0  0  0  0  0  0  0
  181.8690  178.8970  142.6350 C   0  0  0  0  0  2  0  0  0  0  0  0
  184.3890  179.7240  143.4620 O   0  0  0  0  0  0  0  0  0  0  0  0
  183.1020  178.4810  141.9690 N   0  0  0  0  0  0  0  0  0  0  0  0
  182.9970  177.4730  140.9200 C   0  0  0  0  0  2  0  0  0  0  0  0
  185.6730  178.2830  142.0410 C   0  0  2  0  0  3  0  0  0  0  0  0
  186.3450  177.8770  144.4620 C   0  0  0  0  0  3  0  0  0  0  0  0
  188.0020  177.6810  142.7040 C   0  0  0  0  0  3  0  0  0  0  0  0
  188.9690  177.3550  143.6590 C   0  0  0  0  0  3  0  0  0  0  0  0
  188.6220  177.2820  145.0130 C   0  0  0  0  0  3  0  0  0  0  0  0
  187.3120  177.5440  145.4130 C   0  0  0  0  0  3  0  0  0  0  0  0
  186.6870  177.9340  143.0980 C   0  0  0  0  0  0  0  0  0  0  0  0
  186.2660  179.0980  140.9790 N   0  0  0  0  0  2  0  0  0  0  0  0
  186.6940  178.2810  139.9760 O   0  0  0  0  0  0  0  0  0  0  0  0
  185.7000  178.6380  138.6420 P   0  0  0  0  0  0  0  0  0  0  0  0
  184.9270  177.3950  138.2640 O   0  0  0  0  0  1  0  0  0  0  0  0
  186.6690  179.1040  137.3230 O   0  0  0  0  0  0  0  0  0  0  0  0
  184.6050  179.8920  139.0070 O   0  0  0  0  0  1  0  0  0  0  0  0
  179.9840  176.4400  138.3100 C   0  0  2  0  0  3  0  0  0  0  0  0
  180.2780  174.7620  136.5440 C   0  0  0  0  0  3  0  0  0  0  0  0
  179.8870  176.0040  136.8600 C   0  0  0  0  0  0  0  0  0  0  0  0
  179.5800  175.2860  139.2140 C   0  0  0  0  0  2  0  0  0  0  0  0
  180.5590  174.1550  138.9840 C   0  0  0  0  0  2  0  0  0  0  0  0
  180.6500  173.8040  137.5600 N   0  0  0  0  0  0  0  0  0  0  0  0
  181.0450  172.4290  137.2050 C   0  0  1  0  0  3  0  0  0  0  0  0
  179.8440  171.4970  136.9990 C   0  0  0  0  0  1  0  0  0  0  0  0
  182.0180  171.1560  135.3950 O   0  0  0  0  0  1  0  0  0  0  0  0
  181.9680  172.4280  135.9810 C   0  0  2  0  0  3  0  0  0  0  0  0
  183.3730  172.8920  136.3380 C   0  0  0  0  0  2  0  0  0  0  0  0
  183.7820  172.2930  137.5500 O   0  0  0  0  0  1  0  0  0  0  0  0
  179.5220  176.9230  135.7630 C   0  0  0  0  0  3  0  0  0  0  0  0
  180.2110  178.0230  135.4320 C   0  0  0  0  0  3  0  0  0  0  0  0
  181.4260  178.5000  136.1740 C   0  0  0  0  0  2  0  0  0  0  0  0
  181.2240  179.7880  136.7000 O   0  0  0  0  0  0  0  0  0  0  0  0
  180.4360  180.4520  135.7530 C   0  0  0  0  0  2  0  0  0  0  0  0
  181.0300  182.3200  137.3510 C   0  0  0  0  0  2  0  0  0  0  0  0
  180.6080  182.7810  134.9380 C   0  0  0  0  0  2  0  0  0  0  0  0
  180.2050  181.9110  136.1240 C   0  0  0  0  0  3  0  0  0  0  0  0
  180.7890  183.7910  137.6770 C   0  0  0  0  0  2  0  0  0  0  0  0
  181.1980  184.6640  136.4900 C   0  0  0  0  0  2  0  0  0  0  0  0
  180.4030  184.2610  135.2500 C   0  0  0  0  0  2  0  0  0  0  0  0
  1  2  2  0  0  0  0
  1  5  1  0  0  0  0
  3  1  1  0  0  0  0
  4  5  2  0  0  0  0
  4 11  1  0  0  0  0
  5  6  1  0  0  0  0
  6  8  1  0  0  0  0
  7  9  2  0  0  0  0
 10  7  1  0  0  0  0
 10  8  1  0  0  0  0
 11 10  1  0  0  0  0
 12 19  1  6  0  0  0
 12  7  1  0  0  0  0
 12 18  1  0  0  0  0
 13 17  1  0  0  0  0
 14 18  1  0  0  0  0
 14 15  2  0  0  0  0
 15 16  1  0  0  0  0
 16 17  2  0  0  0  0
 18 13  2  0  0  0  0
 20 19  1  0  0  0  0
 21 24  1  0  0  0  0
 21 20  1  0  0  0  0
 22 21  1  0  0  0  0
 23 21  2  0  0  0  0
 25  3  1  6  0  0  0
 25 28  1  0  0  0  0
 26 27  2  0  0  0  0
 26 30  1  0  0  0  0
 27 25  1  0  0  0  0
 29 28  1  0  0  0  0
 30 29  1  0  0  0  0
 31 32  1  6  0  0  0
 31 30  1  0  0  0  0
 34 33  1  1  0  0  0
 34 35  1  0  0  0  0
 34 31  1  0  0  0  0
 35 36  1  0  0  0  0
 37 27  1  0  0  0  0
 38 37  2  0  0  0  0
 38 39  1  0  0  0  0
 39 40  1  0  0  0  0
 41 44  1  0  0  0  0
 41 40  1  0  0  0  0
 42 45  1  0  0  0  0
 43 47  1  0  0  0  0
 43 44  1  0  0  0  0
 44 42  1  0  0  0  0
 46 45  1  0  0  0  0
 47 46  1  0  0  0  0
M  END
>  <MODEL>
8

>  <REMARK>
 VINA RESULT:      -5.5      3.392      7.194
  Name = 
  15 active torsions:
  status: ('A' for Active; 'I' for Inactive)
    1  A    between atoms: C_3  and  N_40
    2  A    between atoms: C_3  and  C_46
    3  A    between atoms: C_4  and  O_15
    4  A    between atoms: C_4  and  C_22
    5  A    between atoms: C_6  and  C_19
    6  A    between atoms: C_8  and  N_25
    7  A    between atoms: O_12  and  P_18
    8  A    between atoms: O_12  and  N_42
    9  A    between atoms: C_14  and  C_28
   10  A    between atoms: O_15  and  C_45
   11  A    between atoms: C_16  and  C_46
   12  A    between atoms: C_24  and  C_30
   13  A    between atoms: C_30  and  C_37
   14  A    between atoms: C_30  and  N_42
   15  A    between atoms: C_45  and  C_47
                            x       y       z     vdW  Elec       q    Type
                         _______ _______ _______ _____ _____    ______ ____

>  <TORSDO>
F 15

$$$$
=
 OpenBabel11062417333D

 47 50  0  0  1  0  0  0  0  0999 V2000
  181.2730  178.4370  141.0210 C   0  0  0  0  0  0  0  0  0  0  0  0
  180.3970  179.0050  141.7750 N   0  0  0  0  0  2  0  0  0  0  0  0
  180.8250  177.5280  140.0100 N   0  0  0  0  0  2  0  0  0  0  0  0
  183.1460  178.7960  142.5390 C   0  0  0  0  0  3  0  0  0  0  0  0
  182.7070  178.6720  141.2890 C   0  0  0  0  0  0  0  0  0  0  0  0
  183.6220  178.8160  140.2000 N   0  0  0  0  0  2  0  0  0  0  0  0
  186.8360  178.4430  141.9180 C   0  0  0  0  0  0  0  0  0  0  0  0
  185.0080  179.2330  140.4140 C   0  0  0  0  0  2  0  0  0  0  0  0
  187.5530  178.2310  140.9000 O   0  0  0  0  0  0  0  0  0  0  0  0
  185.4630  178.8220  141.7410 N   0  0  0  0  0  0  0  0  0  0  0  0
  184.5810  179.0940  142.8720 C   0  0  0  0  0  2  0  0  0  0  0  0
  187.4310  178.2130  143.2940 C   0  0  2  0  0  3  0  0  0  0  0  0
  188.9560  176.1820  143.1200 C   0  0  0  0  0  3  0  0  0  0  0  0
  189.9070  178.3670  143.5600 C   0  0  0  0  0  3  0  0  0  0  0  0
  191.1830  177.8010  143.5890 C   0  0  0  0  0  3  0  0  0  0  0  0
  191.3470  176.4260  143.3750 C   0  0  0  0  0  3  0  0  0  0  0  0
  190.2340  175.6190  143.1420 C   0  0  0  0  0  3  0  0  0  0  0  0
  188.7900  177.5650  143.3170 C   0  0  0  0  0  0  0  0  0  0  0  0
  186.5020  177.5390  144.2020 N   0  0  0  0  0  2  0  0  0  0  0  0
  187.0840  177.4200  145.4290 O   0  0  0  0  0  0  0  0  0  0  0  0
  186.1410  178.3760  146.4740 P   0  0  0  0  0  0  0  0  0  0  0  0
  186.0480  179.7740  145.9060 O   0  0  0  0  0  0  0  0  0  0  0  0
  186.8910  178.4540  148.0000 O   0  0  0  0  0  1  0  0  0  0  0  0
  184.5720  177.7350  146.6490 O   0  0  0  0  0  1  0  0  0  0  0  0
  181.6960  176.9420  139.0010 C   0  0  2  0  0  3  0  0  0  0  0  0
  181.5940  175.9870  136.7420 C   0  0  0  0  0  3  0  0  0  0  0  0
  181.0280  176.7980  137.6460 C   0  0  0  0  0  0  0  0  0  0  0  0
  182.2240  175.5880  139.4500 C   0  0  0  0  0  2  0  0  0  0  0  0
  183.2620  175.1400  138.4440 C   0  0  0  0  0  2  0  0  0  0  0  0
  182.7270  175.1560  137.0760 N   0  0  0  0  0  0  0  0  0  0  0  0
  183.3220  174.2400  136.0850 C   0  0  1  0  0  3  0  0  0  0  0  0
  184.6850  174.7190  135.5730 C   0  0  0  0  0  1  0  0  0  0  0  0
  184.4230  172.0900  136.0110 O   0  0  0  0  0  1  0  0  0  0  0  0
  183.4050  172.8150  136.6450 C   0  0  2  0  0  3  0  0  0  0  0  0
  182.0790  172.0810  136.5060 C   0  0  0  0  0  2  0  0  0  0  0  0
  182.2160  171.0110  135.5950 O   0  0  0  0  0  1  0  0  0  0  0  0
  179.8710  177.6160  137.2260 C   0  0  0  0  0  3  0  0  0  0  0  0
  179.9430  178.9020  136.8590 C   0  0  0  0  0  3  0  0  0  0  0  0
  181.2120  179.7040  136.8770 C   0  0  0  0  0  2  0  0  0  0  0  0
  181.2230  180.6050  137.9570 O   0  0  0  0  0  0  0  0  0  0  0  0
  179.9510  181.1880  137.9640 C   0  0  0  0  0  2  0  0  0  0  0  0
  181.4400  183.1980  137.5940 C   0  0  0  0  0  2  0  0  0  0  0  0
  179.3700  182.8680  136.2450 C   0  0  0  0  0  2  0  0  0  0  0  0
  180.0000  182.6710  137.6200 C   0  0  0  0  0  3  0  0  0  0  0  0
  181.4490  184.6790  137.2240 C   0  0  0  0  0  2  0  0  0  0  0  0
  180.8220  184.8770  135.8440 C   0  0  0  0  0  2  0  0  0  0  0  0
  179.3930  184.3400  135.8400 C   0  0  0  0  0  2  0  0  0  0  0  0
  1  5  1  0  0  0  0
  1  2  2  0  0  0  0
  3  1  1  0  0  0  0
  4 11  1  0  0  0  0
  5  4  2  0  0  0  0
  6  8  1  0  0  0  0
  6  5  1  0  0  0  0
  8 10  1  0  0  0  0
  9  7  2  0  0  0  0
 10  7  1  0  0  0  0
 10 11  1  0  0  0  0
 12  7  1  6  0  0  0
 12 18  1  0  0  0  0
 12 19  1  0  0  0  0
 13 17  2  0  0  0  0
 13 18  1  0  0  0  0
 14 15  1  0  0  0  0
 16 15  2  0  0  0  0
 17 16  1  0  0  0  0
 18 14  2  0  0  0  0
 19 20  1  0  0  0  0
 20 21  1  0  0  0  0
 21 24  1  0  0  0  0
 21 23  1  0  0  0  0
 22 21  2  0  0  0  0
 25 28  1  0  0  0  0
 25  3  1  1  0  0  0
 26 30  1  0  0  0  0
 26 27  2  0  0  0  0
 27 25  1  0  0  0  0
 29 28  1  0  0  0  0
 30 29  1  0  0  0  0
 31 32  1  1  0  0  0
 31 34  1  0  0  0  0
 31 30  1  0  0  0  0
 34 33  1  6  0  0  0
 35 34  1  0  0  0  0
 36 35  1  0  0  0  0
 37 27  1  0  0  0  0
 38 39  1  0  0  0  0
 38 37  2  0  0  0  0
 39 40  1  0  0  0  0
 40 41  1  0  0  0  0
 42 44  1  0  0  0  0
 43 44  1  0  0  0  0
 44 41  1  0  0  0  0
 45 42  1  0  0  0  0
 46 45  1  0  0  0  0
 47 46  1  0  0  0  0
 47 43  1  0  0  0  0
M  END
>  <MODEL>
9

>  <REMARK>
 VINA RESULT:      -5.4      3.034      6.824
  Name = 
  15 active torsions:
  status: ('A' for Active; 'I' for Inactive)
    1  A    between atoms: C_3  and  N_40
    2  A    between atoms: C_3  and  C_46
    3  A    between atoms: C_4  and  O_15
    4  A    between atoms: C_4  and  C_22
    5  A    between atoms: C_6  and  C_19
    6  A    between atoms: C_8  and  N_25
    7  A    between atoms: O_12  and  P_18
    8  A    between atoms: O_12  and  N_42
    9  A    between atoms: C_14  and  C_28
   10  A    between atoms: O_15  and  C_45
   11  A    between atoms: C_16  and  C_46
   12  A    between atoms: C_24  and  C_30
   13  A    between atoms: C_30  and  C_37
   14  A    between atoms: C_30  and  N_42
   15  A    between atoms: C_45  and  C_47
                            x       y       z     vdW  Elec       q    Type
                         _______ _______ _______ _____ _____    ______ ____

>  <TORSDO>
F 15

$$$$
