=
 OpenBabel11062414433D

 27 30  0  0  1  0  0  0  0  0999 V2000
  191.4060  177.6470  143.7410 C   0  0  0  0  0  2  0  0  0  0  0  0
  190.1260  176.3580  141.9850 C   0  0  1  0  0  3  0  0  0  0  0  0
  191.4060  176.8380  141.4360 N   0  0  2  0  0  0  0  0  0  0  0  0
  190.3710  175.3360  142.9070 O   0  0  0  0  0  1  0  0  0  0  0  0
  190.6680  177.6620  142.4080 C   0  0  2  0  0  3  0  0  0  0  0  0
  189.5210  176.4770  138.5760 C   0  0  0  0  0  2  0  0  0  0  0  0
  191.7790  176.5120  139.0530 C   0  0  0  0  0  2  0  0  0  0  0  0
  191.1310  177.3830  140.1140 C   0  0  1  0  0  3  0  0  0  0  0  0
  189.6470  177.3060  139.8320 C   0  0  0  0  0  2  0  0  0  0  0  0
  190.7400  175.6910  138.4470 N   0  0  2  0  0  0  0  0  0  0  0  0
  192.3740  174.8810  136.8370 C   0  0  0  0  0  2  0  0  0  0  0  0
  190.8280  174.0120  135.2610 O   0  0  0  0  0  1  0  0  0  0  0  0
  191.0420  175.5830  137.0280 C   0  0  1  0  0  3  0  0  0  0  0  0
  191.0840  174.1190  136.6270 C   0  0  2  0  0  3  0  0  0  0  0  0
  190.6320  178.4640  144.7590 C   0  0  0  0  0  2  0  0  0  0  0  0
  187.2980  177.1120  144.6120 C   0  0  0  0  0  3  0  0  0  0  0  0
  189.6960  177.5940  145.5260 C   0  0  0  0  0  0  0  0  0  0  0  0
  188.4950  177.3550  145.0750 C   0  0  0  0  0  0  0  0  0  0  0  0
  190.0730  177.1340  146.8900 C   0  0  0  0  0  1  0  0  0  0  0  0
  183.7650  179.2940  145.5080 N   0  0  0  0  0  0  0  0  0  0  0  0
  184.0780  179.0280  144.2160 C   0  0  0  0  0  3  0  0  0  0  0  0
  186.4680  177.7840  147.4110 N   0  0  0  0  0  1  0  0  0  0  0  0
  185.2360  178.3140  143.9180 C   0  0  0  0  0  0  0  0  0  0  0  0
  185.5480  178.0400  142.4850 C   0  0  0  0  0  1  0  0  0  0  0  0
  184.5450  178.8870  146.5090 N   0  0  0  0  0  0  0  0  0  0  0  0
  185.6890  178.1860  146.2890 C   0  0  0  0  0  0  0  0  0  0  0  0
  186.0720  177.8740  144.9620 C   0  0  0  0  0  0  0  0  0  0  0  0
  1 15  1  0  0  0  0
  2  5  1  0  0  0  0
  2  4  1  1  0  0  0
  3  8  1  6  0  0  0
  3  2  1  0  0  0  0
  3  5  1  0  0  0  0
  5  1  1  1  0  0  0
  6  9  1  0  0  0  0
  8  7  1  6  0  0  0
  9  8  1  0  0  0  0
 10  6  1  6  0  0  0
 10  7  1  0  0  0  0
 13 11  1  1  0  0  0
 13 10  1  0  0  0  0
 14 12  1  6  0  0  0
 14 11  1  0  0  0  0
 14 13  1  0  0  0  0
 15 17  1  0  0  0  0
 16 27  1  0  0  0  0
 16 18  2  0  0  0  0
 17 19  1  0  0  0  0
 18 17  2  0  0  0  0
 20 25  1  0  0  0  0
 21 20  2  0  0  0  0
 23 21  1  0  0  0  0
 23 27  2  0  0  0  0
 24 23  1  0  0  0  0
 26 25  2  0  0  0  0
 26 22  1  0  0  0  0
 27 26  1  0  0  0  0
M  END
>  <MODEL>
1

>  <REMARK>
 VINA RESULT:      -8.5      0.000      0.000
  Name = 
  6 active torsions:
  status: ('A' for Active; 'I' for Inactive)
    1  A    between atoms: C_8  and  C_12
    2  A    between atoms: C_8  and  C_25
    3  A    between atoms: C_10  and  N_27
    4  A    between atoms: C_11  and  C_26
    5  A    between atoms: C_14  and  N_17
    6  A    between atoms: CA_23  and  C_25
                            x       y       z     vdW  Elec       q    Type
                         _______ _______ _______ _____ _____    ______ ____

>  <TORSDO>
F 6

$$$$
=
 OpenBabel11062414433D

 27 30  0  0  1  0  0  0  0  0999 V2000
  189.9310  178.2810  145.2750 C   0  0  0  0  0  2  0  0  0  0  0  0
  191.7570  178.1740  143.5310 C   0  0  1  0  0  3  0  0  0  0  0  0
  190.4320  178.0870  142.8920 N   0  0  2  0  0  0  0  0  0  0  0  0
  191.9540  179.4730  144.0120 O   0  0  0  0  0  1  0  0  0  0  0  0
  190.6550  177.4680  144.2090 C   0  0  2  0  0  3  0  0  0  0  0  0
  191.5090  177.2510  139.7290 C   0  0  0  0  0  2  0  0  0  0  0  0
  189.4710  177.2660  140.8120 C   0  0  0  0  0  2  0  0  0  0  0  0
  190.5010  177.0230  141.9000 C   0  0  1  0  0  3  0  0  0  0  0  0
  191.8380  177.0750  141.1930 C   0  0  0  0  0  2  0  0  0  0  0  0
  190.1630  177.7980  139.6460 N   0  0  2  0  0  0  0  0  0  0  0  0
  188.1270  177.7810  138.3150 C   0  0  0  0  0  2  0  0  0  0  0  0
  189.1690  177.7690  136.1840 O   0  0  0  0  0  1  0  0  0  0  0  0
  189.5310  177.2270  138.4660 C   0  0  1  0  0  3  0  0  0  0  0  0
  189.2470  178.3270  137.4580 C   0  0  2  0  0  3  0  0  0  0  0  0
  189.9520  177.5260  146.5920 C   0  0  0  0  0  2  0  0  0  0  0  0
  186.5360  176.9480  145.6130 C   0  0  0  0  0  3  0  0  0  0  0  0
  188.5790  177.4340  147.1640 C   0  0  0  0  0  0  0  0  0  0  0  0
  187.5550  177.1970  146.3910 C   0  0  0  0  0  0  0  0  0  0  0  0
  188.3550  177.7820  148.5930 C   0  0  0  0  0  1  0  0  0  0  0  0
  184.0770  179.8630  143.7410 N   0  0  0  0  0  0  0  0  0  0  0  0
  185.0180  179.2130  143.0130 C   0  0  0  0  0  3  0  0  0  0  0  0
  184.4160  178.4730  147.0820 N   0  0  0  0  0  1  0  0  0  0  0  0
  185.8270  178.2580  143.6220 C   0  0  0  0  0  0  0  0  0  0  0  0
  186.8520  177.5630  142.7890 C   0  0  0  0  0  1  0  0  0  0  0  0
  183.9060  179.6090  145.0370 N   0  0  0  0  0  0  0  0  0  0  0  0
  184.6610  178.6890  145.6950 C   0  0  0  0  0  0  0  0  0  0  0  0
  185.6600  177.9740  144.9910 C   0  0  0  0  0  0  0  0  0  0  0  0
  1 15  1  0  0  0  0
  2  4  1  1  0  0  0
  2  5  1  0  0  0  0
  3  8  1  6  0  0  0
  3  2  1  0  0  0  0
  3  5  1  0  0  0  0
  5  1  1  1  0  0  0
  6  9  1  0  0  0  0
  8  7  1  6  0  0  0
  9  8  1  0  0  0  0
 10  6  1  1  0  0  0
 10  7  1  0  0  0  0
 13 11  1  1  0  0  0
 13 10  1  0  0  0  0
 14 12  1  6  0  0  0
 14 11  1  0  0  0  0
 14 13  1  0  0  0  0
 15 17  1  0  0  0  0
 16 18  2  0  0  0  0
 17 19  1  0  0  0  0
 18 17  2  0  0  0  0
 20 25  1  0  0  0  0
 21 23  1  0  0  0  0
 21 20  2  0  0  0  0
 23 27  2  0  0  0  0
 24 23  1  0  0  0  0
 25 26  2  0  0  0  0
 26 22  1  0  0  0  0
 27 16  1  0  0  0  0
 27 26  1  0  0  0  0
M  END
>  <MODEL>
2

>  <REMARK>
 VINA RESULT:      -8.5      2.009      2.625
  Name = 
  6 active torsions:
  status: ('A' for Active; 'I' for Inactive)
    1  A    between atoms: C_8  and  C_12
    2  A    between atoms: C_8  and  C_25
    3  A    between atoms: C_10  and  N_27
    4  A    between atoms: C_11  and  C_26
    5  A    between atoms: C_14  and  N_17
    6  A    between atoms: CA_23  and  C_25
                            x       y       z     vdW  Elec       q    Type
                         _______ _______ _______ _____ _____    ______ ____

>  <TORSDO>
F 6

$$$$
=
 OpenBabel11062414433D

 27 30  0  0  1  0  0  0  0  0999 V2000
  191.4580  175.8390  144.0950 C   0  0  0  0  0  2  0  0  0  0  0  0
  191.7280  176.5980  146.4910 C   0  0  1  0  0  3  0  0  0  0  0  0
  190.3040  176.5980  146.1100 N   0  0  2  0  0  0  0  0  0  0  0  0
  192.1770  175.2780  146.6010 O   0  0  0  0  0  1  0  0  0  0  0  0
  191.3300  176.9610  145.1180 C   0  0  2  0  0  3  0  0  0  0  0  0
  188.0730  177.9760  148.3450 C   0  0  0  0  0  2  0  0  0  0  0  0
  188.3240  178.0120  146.0510 C   0  0  0  0  0  2  0  0  0  0  0  0
  189.7270  177.8410  146.6040 C   0  0  1  0  0  3  0  0  0  0  0  0
  189.5490  177.7560  148.1040 C   0  0  0  0  0  2  0  0  0  0  0  0
  187.3780  177.6680  147.1030 N   0  0  2  0  0  0  0  0  0  0  0  0
  186.0800  179.0190  145.5510 C   0  0  0  0  0  2  0  0  0  0  0  0
  183.9420  178.5340  146.4560 O   0  0  0  0  0  1  0  0  0  0  0  0
  186.2530  178.5840  146.9950 C   0  0  1  0  0  3  0  0  0  0  0  0
  185.1700  177.9600  146.1320 C   0  0  2  0  0  3  0  0  0  0  0  0
  190.3180  175.9280  143.0970 C   0  0  0  0  0  2  0  0  0  0  0  0
  188.3660  178.6750  141.8280 C   0  0  0  0  0  3  0  0  0  0  0  0
  190.4470  177.1590  142.2650 C   0  0  0  0  0  0  0  0  0  0  0  0
  189.4080  177.9160  142.0410 C   0  0  0  0  0  0  0  0  0  0  0  0
  191.7230  177.4310  141.5510 C   0  0  0  0  0  1  0  0  0  0  0  0
  185.7040  178.4400  138.5260 N   0  0  0  0  0  0  0  0  0  0  0  0
  185.2110  178.6630  139.7700 C   0  0  0  0  0  3  0  0  0  0  0  0
  189.2950  178.1830  139.0220 N   0  0  0  0  0  1  0  0  0  0  0  0
  186.0800  178.7400  140.8550 C   0  0  0  0  0  0  0  0  0  0  0  0
  185.5020  178.9880  142.2080 C   0  0  0  0  0  1  0  0  0  0  0  0
  187.0100  178.2890  138.3160 N   0  0  0  0  0  0  0  0  0  0  0  0
  187.9150  178.3520  139.3290 C   0  0  0  0  0  0  0  0  0  0  0  0
  187.4640  178.5850  140.6510 C   0  0  0  0  0  0  0  0  0  0  0  0
  2  4  1  6  0  0  0
  3  2  1  0  0  0  0
  3  8  1  1  0  0  0
  5  1  1  6  0  0  0
  5  3  1  0  0  0  0
  5  2  1  0  0  0  0
  8  7  1  6  0  0  0
  8  9  1  0  0  0  0
  9  6  1  0  0  0  0
 10  7  1  6  0  0  0
 10  6  1  0  0  0  0
 11 14  1  0  0  0  0
 13 11  1  6  0  0  0
 13 10  1  0  0  0  0
 14 12  1  1  0  0  0
 14 13  1  0  0  0  0
 15  1  1  0  0  0  0
 16 18  2  0  0  0  0
 17 15  1  0  0  0  0
 18 17  2  0  0  0  0
 19 17  1  0  0  0  0
 20 21  1  0  0  0  0
 21 23  2  0  0  0  0
 22 26  1  0  0  0  0
 23 24  1  0  0  0  0
 25 20  2  0  0  0  0
 25 26  1  0  0  0  0
 26 27  2  0  0  0  0
 27 23  1  0  0  0  0
 27 16  1  0  0  0  0
M  END
>  <MODEL>
3

>  <REMARK>
 VINA RESULT:      -8.3      3.508      7.262
  Name = 
  6 active torsions:
  status: ('A' for Active; 'I' for Inactive)
    1  A    between atoms: C_8  and  C_12
    2  A    between atoms: C_8  and  C_25
    3  A    between atoms: C_10  and  N_27
    4  A    between atoms: C_11  and  C_26
    5  A    between atoms: C_14  and  N_17
    6  A    between atoms: CA_23  and  C_25
                            x       y       z     vdW  Elec       q    Type
                         _______ _______ _______ _____ _____    ______ ____

>  <TORSDO>
F 6

$$$$
=
 OpenBabel11062414433D

 27 30  0  0  1  0  0  0  0  0999 V2000
  186.1170  178.4960  146.4680 C   0  0  0  0  0  2  0  0  0  0  0  0
  188.1110  177.5170  147.6740 C   0  0  1  0  0  3  0  0  0  0  0  0
  188.4890  177.9320  146.3120 N   0  0  2  0  0  0  0  0  0  0  0  0
  187.8850  178.6530  148.4580 O   0  0  0  0  0  1  0  0  0  0  0  0
  187.1490  177.3780  146.5650 C   0  0  2  0  0  3  0  0  0  0  0  0
  191.4050  177.1870  144.6340 C   0  0  0  0  0  2  0  0  0  0  0  0
  189.1560  176.8580  144.2320 C   0  0  0  0  0  2  0  0  0  0  0  0
  189.2960  176.8610  145.7430 C   0  0  1  0  0  3  0  0  0  0  0  0
  190.7610  177.1380  146.0010 C   0  0  0  0  0  2  0  0  0  0  0  0
  190.3540  177.4640  143.6660 N   0  0  2  0  0  0  0  0  0  0  0  0
  189.5130  176.8070  141.4800 C   0  0  0  0  0  2  0  0  0  0  0  0
  191.5260  177.1580  140.2740 O   0  0  0  0  0  1  0  0  0  0  0  0
  190.6780  176.7340  142.4500 C   0  0  1  0  0  3  0  0  0  0  0  0
  190.7200  177.6960  141.2750 C   0  0  2  0  0  3  0  0  0  0  0  0
  185.9740  178.9310  145.0210 C   0  0  0  0  0  2  0  0  0  0  0  0
  184.2090  177.7870  142.0990 C   0  0  0  0  0  3  0  0  0  0  0  0
  184.5930  178.6630  144.5280 C   0  0  0  0  0  0  0  0  0  0  0  0
  184.3980  178.2300  143.3130 C   0  0  0  0  0  0  0  0  0  0  0  0
  183.4280  179.0520  145.3660 C   0  0  0  0  0  1  0  0  0  0  0  0
  183.2910  180.2000  138.7260 N   0  0  0  0  0  0  0  0  0  0  0  0
  182.2880  179.7460  139.5180 C   0  0  0  0  0  3  0  0  0  0  0  0
  186.3070  178.8640  140.2500 N   0  0  0  0  0  1  0  0  0  0  0  0
  182.5840  178.9540  140.6240 C   0  0  0  0  0  0  0  0  0  0  0  0
  181.4550  178.4740  141.4720 C   0  0  0  0  0  1  0  0  0  0  0  0
  184.5640  179.9030  138.9810 N   0  0  0  0  0  0  0  0  0  0  0  0
  184.9240  179.1350  140.0440 C   0  0  0  0  0  0  0  0  0  0  0  0
  183.9240  178.6310  140.9110 C   0  0  0  0  0  0  0  0  0  0  0  0
  2  4  1  1  0  0  0
  3  8  1  6  0  0  0
  3  5  1  0  0  0  0
  3  2  1  0  0  0  0
  5  1  1  1  0  0  0
  5  2  1  0  0  0  0
  6  9  1  0  0  0  0
  8  7  1  6  0  0  0
  8  9  1  0  0  0  0
 10  7  1  1  0  0  0
 10  6  1  0  0  0  0
 13 11  1  6  0  0  0
 13 10  1  0  0  0  0
 14 12  1  6  0  0  0
 14 11  1  0  0  0  0
 14 13  1  0  0  0  0
 15  1  1  0  0  0  0
 16 18  2  0  0  0  0
 17 15  1  0  0  0  0
 17 19  1  0  0  0  0
 18 17  2  0  0  0  0
 20 25  2  0  0  0  0
 20 21  1  0  0  0  0
 21 23  2  0  0  0  0
 23 27  1  0  0  0  0
 23 24  1  0  0  0  0
 25 26  1  0  0  0  0
 26 22  1  0  0  0  0
 26 27  2  0  0  0  0
 27 16  1  0  0  0  0
M  END
>  <MODEL>
4

>  <REMARK>
 VINA RESULT:      -8.1      3.210      5.831
  Name = 
  6 active torsions:
  status: ('A' for Active; 'I' for Inactive)
    1  A    between atoms: C_8  and  C_12
    2  A    between atoms: C_8  and  C_25
    3  A    between atoms: C_10  and  N_27
    4  A    between atoms: C_11  and  C_26
    5  A    between atoms: C_14  and  N_17
    6  A    between atoms: CA_23  and  C_25
                            x       y       z     vdW  Elec       q    Type
                         _______ _______ _______ _____ _____    ______ ____

>  <TORSDO>
F 6

$$$$
=
 OpenBabel11062414433D

 27 30  0  0  1  0  0  0  0  0999 V2000
  189.4630  177.2230  141.3360 C   0  0  0  0  0  2  0  0  0  0  0  0
  188.7910  178.3010  139.1510 C   0  0  1  0  0  3  0  0  0  0  0  0
  188.8530  176.8360  139.0020 N   0  0  2  0  0  0  0  0  0  0  0  0
  187.6860  178.6390  139.9400 O   0  0  0  0  0  1  0  0  0  0  0  0
  189.8100  177.5270  139.8840 C   0  0  2  0  0  3  0  0  0  0  0  0
  190.4910  174.4290  137.1600 C   0  0  0  0  0  2  0  0  0  0  0  0
  191.0440  176.5100  137.9910 C   0  0  0  0  0  2  0  0  0  0  0  0
  189.5450  176.5600  137.7510 C   0  0  1  0  0  3  0  0  0  0  0  0
  189.1800  175.1750  137.2640 C   0  0  0  0  0  2  0  0  0  0  0  0
  191.4510  175.1120  138.0140 N   0  0  2  0  0  0  0  0  0  0  0  0
  193.3190  176.4190  137.1660 C   0  0  0  0  0  2  0  0  0  0  0  0
  195.0510  175.0000  137.9510 O   0  0  0  0  0  1  0  0  0  0  0  0
  192.7500  175.0260  137.3660 C   0  0  1  0  0  3  0  0  0  0  0  0
  193.8220  175.5560  138.3020 C   0  0  2  0  0  3  0  0  0  0  0  0
  190.4590  177.9120  142.2510 C   0  0  0  0  0  2  0  0  0  0  0  0
  187.9310  176.7230  144.5230 C   0  0  0  0  0  3  0  0  0  0  0  0
  190.2850  177.4480  143.6570 C   0  0  0  0  0  0  0  0  0  0  0  0
  189.1090  177.0900  144.0940 C   0  0  0  0  0  0  0  0  0  0  0  0
  191.4220  177.5550  144.6100 C   0  0  0  0  0  1  0  0  0  0  0  0
  185.1100  179.2480  146.4490 N   0  0  0  0  0  0  0  0  0  0  0  0
  185.0300  179.0540  145.1090 C   0  0  0  0  0  3  0  0  0  0  0  0
  187.9730  177.2570  147.4710 N   0  0  0  0  0  1  0  0  0  0  0  0
  185.9540  178.2280  144.4740 C   0  0  0  0  0  0  0  0  0  0  0  0
  185.8340  178.0370  142.9980 C   0  0  0  0  0  1  0  0  0  0  0  0
  186.0590  178.6640  147.1780 N   0  0  0  0  0  0  0  0  0  0  0  0
  186.9920  177.8460  146.6230 C   0  0  0  0  0  0  0  0  0  0  0  0
  186.9630  177.6000  145.2290 C   0  0  0  0  0  0  0  0  0  0  0  0
  1 15  1  0  0  0  0
  2  5  1  0  0  0  0
  2  4  1  1  0  0  0
  3  8  1  6  0  0  0
  3  2  1  0  0  0  0
  3  5  1  0  0  0  0
  5  1  1  1  0  0  0
  6  9  1  0  0  0  0
  7 10  1  0  0  0  0
  8  9  1  1  0  0  0
  8  7  1  0  0  0  0
 10  6  1  6  0  0  0
 11 14  1  0  0  0  0
 13 11  1  6  0  0  0
 13 10  1  0  0  0  0
 13 14  1  0  0  0  0
 14 12  1  6  0  0  0
 15 17  1  0  0  0  0
 16 27  1  0  0  0  0
 17 18  2  0  0  0  0
 17 19  1  0  0  0  0
 18 16  2  0  0  0  0
 20 25  1  0  0  0  0
 21 20  2  0  0  0  0
 23 21  1  0  0  0  0
 23 27  2  0  0  0  0
 24 23  1  0  0  0  0
 26 25  2  0  0  0  0
 26 22  1  0  0  0  0
 27 26  1  0  0  0  0
M  END
>  <MODEL>
5

>  <REMARK>
 VINA RESULT:      -8.1      1.907      2.570
  Name = 
  6 active torsions:
  status: ('A' for Active; 'I' for Inactive)
    1  A    between atoms: C_8  and  C_12
    2  A    between atoms: C_8  and  C_25
    3  A    between atoms: C_10  and  N_27
    4  A    between atoms: C_11  and  C_26
    5  A    between atoms: C_14  and  N_17
    6  A    between atoms: CA_23  and  C_25
                            x       y       z     vdW  Elec       q    Type
                         _______ _______ _______ _____ _____    ______ ____

>  <TORSDO>
F 6

$$$$
=
 OpenBabel11062414433D

 27 30  0  0  1  0  0  0  0  0999 V2000
  184.5890  178.6350  141.1870 C   0  0  0  0  0  2  0  0  0  0  0  0
  183.4410  179.0820  138.9810 C   0  0  1  0  0  3  0  0  0  0  0  0
  184.2370  177.8450  138.9020 N   0  0  2  0  0  0  0  0  0  0  0  0
  182.3260  178.8640  139.7960 O   0  0  0  0  0  1  0  0  0  0  0  0
  184.7190  178.9790  139.7090 C   0  0  2  0  0  3  0  0  0  0  0  0
  186.4810  176.1700  136.8970 C   0  0  0  0  0  2  0  0  0  0  0  0
  186.4110  178.2530  137.8860 C   0  0  0  0  0  2  0  0  0  0  0  0
  184.9610  177.8780  137.6390 C   0  0  1  0  0  3  0  0  0  0  0  0
  185.0110  176.4870  137.0470 C   0  0  0  0  0  2  0  0  0  0  0  0
  187.2110  177.0390  137.8080 N   0  0  2  0  0  0  0  0  0  0  0  0
  189.0560  178.6250  137.8180 C   0  0  0  0  0  2  0  0  0  0  0  0
  190.7980  177.0520  137.4770 O   0  0  0  0  0  1  0  0  0  0  0  0
  188.4690  177.3870  137.1650 C   0  0  1  0  0  3  0  0  0  0  0  0
  189.6050  177.2590  138.1650 C   0  0  2  0  0  3  0  0  0  0  0  0
  185.6840  179.3350  141.9710 C   0  0  0  0  0  2  0  0  0  0  0  0
  186.8310  177.0660  144.5200 C   0  0  0  0  0  3  0  0  0  0  0  0
  186.7980  178.3910  142.2710 C   0  0  0  0  0  0  0  0  0  0  0  0
  186.8200  177.7310  143.3960 C   0  0  0  0  0  0  0  0  0  0  0  0
  187.9720  178.3290  141.3590 C   0  0  0  0  0  1  0  0  0  0  0  0
  188.7380  178.3020  148.1100 N   0  0  0  0  0  0  0  0  0  0  0  0
  187.3980  178.4630  147.9730 C   0  0  0  0  0  3  0  0  0  0  0  0
  189.7790  176.7830  144.9770 N   0  0  0  0  0  1  0  0  0  0  0  0
  186.7690  178.0600  146.7980 C   0  0  0  0  0  0  0  0  0  0  0  0
  185.2940  178.2530  146.6830 C   0  0  0  0  0  1  0  0  0  0  0  0
  189.4740  177.7640  147.1390 N   0  0  0  0  0  0  0  0  0  0  0  0
  188.9250  177.3490  145.9660 C   0  0  0  0  0  0  0  0  0  0  0  0
  187.5300  177.4880  145.7610 C   0  0  0  0  0  0  0  0  0  0  0  0
  1 15  1  0  0  0  0
  2  5  1  0  0  0  0
  2  4  1  1  0  0  0
  3  8  1  6  0  0  0
  3  2  1  0  0  0  0
  3  5  1  0  0  0  0
  5  1  1  1  0  0  0
  6  9  1  0  0  0  0
  8  9  1  1  0  0  0
  8  7  1  0  0  0  0
 10  6  1  6  0  0  0
 10  7  1  0  0  0  0
 11 14  1  0  0  0  0
 13 10  1  0  0  0  0
 13 11  1  1  0  0  0
 13 14  1  0  0  0  0
 14 12  1  6  0  0  0
 15 17  1  0  0  0  0
 16 27  1  0  0  0  0
 17 18  2  0  0  0  0
 18 16  2  0  0  0  0
 19 17  1  0  0  0  0
 21 20  1  0  0  0  0
 22 26  1  0  0  0  0
 23 21  2  0  0  0  0
 24 23  1  0  0  0  0
 25 20  2  0  0  0  0
 26 25  1  0  0  0  0
 27 26  2  0  0  0  0
 27 23  1  0  0  0  0
M  END
>  <MODEL>
6

>  <REMARK>
 VINA RESULT:      -8.0      3.474      5.248
  Name = 
  6 active torsions:
  status: ('A' for Active; 'I' for Inactive)
    1  A    between atoms: C_8  and  C_12
    2  A    between atoms: C_8  and  C_25
    3  A    between atoms: C_10  and  N_27
    4  A    between atoms: C_11  and  C_26
    5  A    between atoms: C_14  and  N_17
    6  A    between atoms: CA_23  and  C_25
                            x       y       z     vdW  Elec       q    Type
                         _______ _______ _______ _____ _____    ______ ____

>  <TORSDO>
F 6

$$$$
=
 OpenBabel11062414433D

 27 30  0  0  1  0  0  0  0  0999 V2000
  190.2450  177.8050  141.5250 C   0  0  0  0  0  2  0  0  0  0  0  0
  190.6520  176.7070  139.2860 C   0  0  1  0  0  3  0  0  0  0  0  0
  189.6600  177.7880  139.1530 N   0  0  2  0  0  0  0  0  0  0  0  0
  191.9140  177.2630  139.5180 O   0  0  0  0  0  1  0  0  0  0  0  0
  189.6950  176.9690  140.3760 C   0  0  2  0  0  3  0  0  0  0  0  0
  187.0870  178.6550  137.0320 C   0  0  0  0  0  2  0  0  0  0  0  0
  187.2460  177.5010  139.0240 C   0  0  0  0  0  2  0  0  0  0  0  0
  188.5750  177.2780  138.3250 C   0  0  1  0  0  3  0  0  0  0  0  0
  188.4870  178.0870  137.0500 C   0  0  0  0  0  2  0  0  0  0  0  0
  186.5950  178.6450  138.4020 N   0  0  2  0  0  0  0  0  0  0  0  0
  184.6320  178.1620  139.7570 C   0  0  0  0  0  2  0  0  0  0  0  0
  183.1000  179.5070  138.5440 O   0  0  0  0  0  1  0  0  0  0  0  0
  185.1690  178.3590  138.3510 C   0  0  1  0  0  3  0  0  0  0  0  0
  184.4020  179.4750  139.0400 C   0  0  2  0  0  3  0  0  0  0  0  0
  190.4950  176.9140  142.7280 C   0  0  0  0  0  2  0  0  0  0  0  0
  188.6630  177.1520  145.8180 C   0  0  0  0  0  3  0  0  0  0  0  0
  190.4400  177.7090  143.9880 C   0  0  0  0  0  0  0  0  0  0  0  0
  189.5500  177.4360  144.9020 C   0  0  0  0  0  0  0  0  0  0  0  0
  191.2900  178.9210  144.1280 C   0  0  0  0  0  1  0  0  0  0  0  0
  184.8310  178.9620  146.1010 N   0  0  0  0  0  0  0  0  0  0  0  0
  185.2300  178.4180  144.9250 C   0  0  0  0  0  3  0  0  0  0  0  0
  187.6360  178.3990  148.3420 N   0  0  0  0  0  1  0  0  0  0  0  0
  186.4860  177.8250  144.8270 C   0  0  0  0  0  0  0  0  0  0  0  0
  186.8900  177.2370  143.5170 C   0  0  0  0  0  1  0  0  0  0  0  0
  185.6180  178.9430  147.1750 N   0  0  0  0  0  0  0  0  0  0  0  0
  186.8560  178.3800  147.1500 C   0  0  0  0  0  0  0  0  0  0  0  0
  187.3310  177.7940  145.9520 C   0  0  0  0  0  0  0  0  0  0  0  0
  1 15  1  0  0  0  0
  2  4  1  1  0  0  0
  2  5  1  0  0  0  0
  3  8  1  6  0  0  0
  3  2  1  0  0  0  0
  3  5  1  0  0  0  0
  5  1  1  1  0  0  0
  6  9  1  0  0  0  0
  8  9  1  6  0  0  0
  8  7  1  0  0  0  0
 10  6  1  6  0  0  0
 10  7  1  0  0  0  0
 13 10  1  0  0  0  0
 13 14  1  0  0  0  0
 13 11  1  1  0  0  0
 14 12  1  6  0  0  0
 14 11  1  0  0  0  0
 15 17  1  0  0  0  0
 16 27  1  0  0  0  0
 17 19  1  0  0  0  0
 17 18  2  0  0  0  0
 18 16  2  0  0  0  0
 20 25  1  0  0  0  0
 21 20  2  0  0  0  0
 23 21  1  0  0  0  0
 23 27  2  0  0  0  0
 24 23  1  0  0  0  0
 26 25  2  0  0  0  0
 26 22  1  0  0  0  0
 27 26  1  0  0  0  0
M  END
>  <MODEL>
7

>  <REMARK>
 VINA RESULT:      -7.8      2.885      4.191
  Name = 
  6 active torsions:
  status: ('A' for Active; 'I' for Inactive)
    1  A    between atoms: C_8  and  C_12
    2  A    between atoms: C_8  and  C_25
    3  A    between atoms: C_10  and  N_27
    4  A    between atoms: C_11  and  C_26
    5  A    between atoms: C_14  and  N_17
    6  A    between atoms: CA_23  and  C_25
                            x       y       z     vdW  Elec       q    Type
                         _______ _______ _______ _____ _____    ______ ____

>  <TORSDO>
F 6

$$$$
=
 OpenBabel11062414433D

 27 30  0  0  1  0  0  0  0  0999 V2000
  185.3380  179.2380  145.3050 C   0  0  0  0  0  2  0  0  0  0  0  0
  186.8600  177.4600  146.2580 C   0  0  1  0  0  3  0  0  0  0  0  0
  187.5600  178.2260  145.2130 N   0  0  2  0  0  0  0  0  0  0  0  0
  186.6890  178.2660  147.3880 O   0  0  0  0  0  1  0  0  0  0  0  0
  186.1190  177.9490  145.0810 C   0  0  2  0  0  3  0  0  0  0  0  0
  190.0470  177.8280  142.8630 C   0  0  0  0  0  2  0  0  0  0  0  0
  187.7810  177.3930  142.9360 C   0  0  0  0  0  2  0  0  0  0  0  0
  188.2610  177.2660  144.3710 C   0  0  1  0  0  3  0  0  0  0  0  0
  189.7320  177.6120  144.3250 C   0  0  0  0  0  2  0  0  0  0  0  0
  188.7930  178.1250  142.1860 N   0  0  2  0  0  0  0  0  0  0  0  0
  187.6900  178.0070  140.0210 C   0  0  0  0  0  2  0  0  0  0  0  0
  189.6510  178.0820  138.6880 O   0  0  0  0  0  1  0  0  0  0  0  0
  188.8630  177.5330  140.8590 C   0  0  1  0  0  3  0  0  0  0  0  0
  189.0550  178.6280  139.8230 C   0  0  2  0  0  3  0  0  0  0  0  0
  184.7840  179.7330  143.9810 C   0  0  0  0  0  2  0  0  0  0  0  0
  183.3440  178.1920  141.0630 C   0  0  0  0  0  3  0  0  0  0  0  0
  183.6180  178.9060  143.5600 C   0  0  0  0  0  0  0  0  0  0  0  0
  183.4760  178.5520  142.3120 C   0  0  0  0  0  0  0  0  0  0  0  0
  182.5270  178.6280  144.5320 C   0  0  0  0  0  1  0  0  0  0  0  0
  180.9930  180.2290  138.1700 N   0  0  0  0  0  0  0  0  0  0  0  0
  180.3980  179.3650  139.0290 C   0  0  0  0  0  3  0  0  0  0  0  0
  184.5070  180.1280  139.0940 N   0  0  0  0  0  1  0  0  0  0  0  0
  181.1650  178.6950  139.9790 C   0  0  0  0  0  0  0  0  0  0  0  0
  180.4750  177.7520  140.9070 C   0  0  0  0  0  1  0  0  0  0  0  0
  182.3060  180.4530  138.2110 N   0  0  0  0  0  0  0  0  0  0  0  0
  183.1130  179.8330  139.1120 C   0  0  0  0  0  0  0  0  0  0  0  0
  182.5530  178.9200  140.0380 C   0  0  0  0  0  0  0  0  0  0  0  0
  2  4  1  1  0  0  0
  3  8  1  6  0  0  0
  3  2  1  0  0  0  0
  5  3  1  0  0  0  0
  5  1  1  1  0  0  0
  5  2  1  0  0  0  0
  6  9  1  0  0  0  0
  8  7  1  6  0  0  0
  9  8  1  0  0  0  0
 10  6  1  1  0  0  0
 10  7  1  0  0  0  0
 13 11  1  6  0  0  0
 13 10  1  0  0  0  0
 14 12  1  6  0  0  0
 14 11  1  0  0  0  0
 14 13  1  0  0  0  0
 15  1  1  0  0  0  0
 16 18  2  0  0  0  0
 17 15  1  0  0  0  0
 17 19  1  0  0  0  0
 18 17  2  0  0  0  0
 20 25  2  0  0  0  0
 20 21  1  0  0  0  0
 21 23  2  0  0  0  0
 22 26  1  0  0  0  0
 23 27  1  0  0  0  0
 23 24  1  0  0  0  0
 25 26  1  0  0  0  0
 26 27  2  0  0  0  0
 27 16  1  0  0  0  0
M  END
>  <MODEL>
8

>  <REMARK>
 VINA RESULT:      -7.7      3.879      6.234
  Name = 
  6 active torsions:
  status: ('A' for Active; 'I' for Inactive)
    1  A    between atoms: C_8  and  C_12
    2  A    between atoms: C_8  and  C_25
    3  A    between atoms: C_10  and  N_27
    4  A    between atoms: C_11  and  C_26
    5  A    between atoms: C_14  and  N_17
    6  A    between atoms: CA_23  and  C_25
                            x       y       z     vdW  Elec       q    Type
                         _______ _______ _______ _____ _____    ______ ____

>  <TORSDO>
F 6

$$$$
=
 OpenBabel11062414433D

 27 30  0  0  1  0  0  0  0  0999 V2000
  190.7590  177.2980  140.7110 C   0  0  0  0  0  2  0  0  0  0  0  0
  190.8600  176.3390  138.3760 C   0  0  1  0  0  3  0  0  0  0  0  0
  189.9760  177.5170  138.4080 N   0  0  2  0  0  0  0  0  0  0  0  0
  192.1870  176.7520  138.5270 O   0  0  0  0  0  1  0  0  0  0  0  0
  190.0310  176.6070  139.5650 C   0  0  2  0  0  3  0  0  0  0  0  0
  187.1780  178.7800  136.8450 C   0  0  0  0  0  2  0  0  0  0  0  0
  187.5580  177.2710  138.5500 C   0  0  0  0  0  2  0  0  0  0  0  0
  188.7780  177.1770  137.6510 C   0  0  1  0  0  3  0  0  0  0  0  0
  188.5510  178.2110  136.5710 C   0  0  0  0  0  2  0  0  0  0  0  0
  186.8660  178.5160  138.2420 N   0  0  2  0  0  0  0  0  0  0  0  0
  185.0040  178.2370  139.7820 C   0  0  0  0  0  2  0  0  0  0  0  0
  183.4000  179.4530  138.5280 O   0  0  0  0  0  1  0  0  0  0  0  0
  185.4380  178.2530  138.3280 C   0  0  1  0  0  3  0  0  0  0  0  0
  184.7340  179.4570  138.9300 C   0  0  2  0  0  3  0  0  0  0  0  0
  189.7620  178.0740  141.5530 C   0  0  0  0  0  2  0  0  0  0  0  0
  188.0070  176.8480  144.4480 C   0  0  0  0  0  3  0  0  0  0  0  0
  189.9660  177.7890  143.0020 C   0  0  0  0  0  0  0  0  0  0  0  0
  188.9880  177.3230  143.7280 C   0  0  0  0  0  0  0  0  0  0  0  0
  191.2380  178.1960  143.6560 C   0  0  0  0  0  1  0  0  0  0  0  0
  185.3780  179.1590  146.8550 N   0  0  0  0  0  0  0  0  0  0  0  0
  186.4890  178.6150  147.4090 C   0  0  0  0  0  3  0  0  0  0  0  0
  185.5120  178.1140  143.3770 N   0  0  0  0  0  1  0  0  0  0  0  0
  187.3530  177.8560  146.6240 C   0  0  0  0  0  0  0  0  0  0  0  0
  188.5660  177.2720  147.2690 C   0  0  0  0  0  1  0  0  0  0  0  0
  185.0890  178.9840  145.5670 N   0  0  0  0  0  0  0  0  0  0  0  0
  185.8880  178.2540  144.7430 C   0  0  0  0  0  0  0  0  0  0  0  0
  187.0650  177.6600  145.2600 C   0  0  0  0  0  0  0  0  0  0  0  0
  1 15  1  0  0  0  0
  2  3  1  0  0  0  0
  2  4  1  1  0  0  0
  2  5  1  0  0  0  0
  3  8  1  6  0  0  0
  3  5  1  0  0  0  0
  5  1  1  1  0  0  0
  8  9  1  6  0  0  0
  8  7  1  0  0  0  0
  9  6  1  0  0  0  0
 10  6  1  6  0  0  0
 10 13  1  0  0  0  0
 10  7  1  0  0  0  0
 13 14  1  0  0  0  0
 13 11  1  1  0  0  0
 14 12  1  6  0  0  0
 14 11  1  0  0  0  0
 15 17  1  0  0  0  0
 16 27  1  0  0  0  0
 17 19  1  0  0  0  0
 17 18  2  0  0  0  0
 18 16  2  0  0  0  0
 20 21  1  0  0  0  0
 22 26  1  0  0  0  0
 23 24  1  0  0  0  0
 23 21  2  0  0  0  0
 25 20  2  0  0  0  0
 26 27  2  0  0  0  0
 26 25  1  0  0  0  0
 27 23  1  0  0  0  0
M  END
>  <MODEL>
9

>  <REMARK>
 VINA RESULT:      -7.7      2.905      4.527
  Name = 
  6 active torsions:
  status: ('A' for Active; 'I' for Inactive)
    1  A    between atoms: C_8  and  C_12
    2  A    between atoms: C_8  and  C_25
    3  A    between atoms: C_10  and  N_27
    4  A    between atoms: C_11  and  C_26
    5  A    between atoms: C_14  and  N_17
    6  A    between atoms: CA_23  and  C_25
                            x       y       z     vdW  Elec       q    Type
                         _______ _______ _______ _____ _____    ______ ____

>  <TORSDO>
F 6

$$$$
