=
 OpenBabel11062414583D

 51 57  0  0  1  0  0  0  0  0999 V2000
  182.9400  172.9600  137.1880 O   0  0  0  0  0  1  0  0  0  0  0  0
  180.5840  173.3520  137.0560 C   0  0  0  0  0  2  0  0  0  0  0  0
  182.4990  177.4260  134.6140 C   0  0  0  0  0  2  0  0  0  0  0  0
  182.2680  175.1380  136.3210 C   0  0  2  0  0  3  0  0  0  0  0  0
  180.9840  176.0020  139.8990 C   0  0  0  0  0  1  0  0  0  0  0  0
  183.8600  177.5260  134.9420 O   0  0  0  0  0  0  0  0  0  0  0  0
  181.6010  175.9750  137.4470 C   0  0  2  0  0  3  0  0  0  0  0  0
  180.1380  177.7980  136.5740 C   0  0  0  0  0  0  0  0  0  0  0  0
  181.3980  175.1390  138.7120 C   0  0  2  0  0  3  0  0  0  0  0  0
  184.1550  176.8040  136.1290 C   0  0  2  0  0  3  0  0  0  0  0  0
  179.1060  174.3270  138.6600 O   0  0  0  0  0  1  0  0  0  0  0  0
  181.3010  178.7370  136.3680 C   0  0  1  0  0  3  0  0  0  0  0  0
  178.9630  178.1740  136.3010 O   0  0  0  0  0  0  0  0  0  0  0  0
  181.9610  173.6150  136.4390 C   0  0  1  0  0  3  0  0  0  0  0  0
  180.4390  173.9500  138.4720 C   0  0  1  0  0  3  0  0  0  0  0  0
  181.7770  178.7250  134.9220 C   0  0  0  0  0  2  0  0  0  0  0  0
  180.3440  176.4780  137.0020 O   0  0  0  0  0  0  0  0  0  0  0  0
  183.7280  175.3820  136.1900 N   0  0  0  0  0  0  0  0  0  0  0  0
  180.3980  182.7500  137.6370 C   0  0  0  0  0  3  0  0  0  0  0  0
  180.6640  181.7680  138.5960 C   0  0  0  0  0  3  0  0  0  0  0  0
  180.9740  180.4620  138.1940 C   0  0  0  0  0  3  0  0  0  0  0  0
  180.7590  181.1180  135.8800 C   0  0  0  0  0  3  0  0  0  0  0  0
  181.0340  180.1370  136.8300 C   0  0  0  0  0  0  0  0  0  0  0  0
  180.4460  182.4300  136.2760 C   0  0  0  0  0  0  0  0  0  0  0  0
  179.8650  184.8000  135.9430 C   0  0  0  0  0  1  0  0  0  0  0  0
  180.0610  183.4530  135.2610 C   0  0  0  0  0  2  0  0  0  0  0  0
  183.8710  177.5450  137.3520 N   0  0  0  0  0  2  0  0  0  0  0  0
  184.8590  177.9360  138.2750 N   0  0  0  0  0  0  0  0  0  0  0  0
  183.4120  178.2500  140.2520 C   0  0  0  0  0  3  0  0  0  0  0  0
  188.1380  178.6600  139.3630 N   0  0  0  0  0  0  0  0  0  0  0  0
  188.9180  178.4620  138.2540 C   0  0  0  0  0  3  0  0  0  0  0  0
  184.6390  178.9420  142.2600 C   0  0  0  0  0  3  0  0  0  0  0  0
  186.9520  177.8450  136.9380 C   0  0  0  0  0  3  0  0  0  0  0  0
  185.8570  178.9310  141.5580 C   0  0  0  0  0  3  0  0  0  0  0  0
  183.4250  178.6020  141.6140 C   0  0  0  0  0  3  0  0  0  0  0  0
  185.8140  178.5780  140.2140 C   0  0  0  0  0  0  0  0  0  0  0  0
  184.6340  178.2530  139.5710 C   0  0  0  0  0  0  0  0  0  0  0  0
  186.8010  178.4590  139.2610 C   0  0  0  0  0  0  0  0  0  0  0  0
  188.3410  178.0520  137.0290 C   0  0  0  0  0  3  0  0  0  0  0  0
  186.1970  178.0650  138.0870 C   0  0  0  0  0  0  0  0  0  0  0  0
  184.2280  174.7060  134.9910 C   0  0  0  0  0  2  0  0  0  0  0  0
  185.7160  174.9600  134.8090 C   0  0  0  0  0  2  0  0  0  0  0  0
  186.4480  174.3100  135.8060 O   0  0  0  0  0  0  0  0  0  0  0  0
  187.3610  173.5120  135.1150 C   0  0  0  0  0  2  0  0  0  0  0  0
  189.3600  174.8790  134.6310 C   0  0  0  0  0  3  0  0  0  0  0  0
  190.8360  175.6420  136.4980 C   0  0  1  0  0  3  0  0  0  0  0  0
  192.1620  175.7410  136.8730 F   0  0  0  0  0  0  0  0  0  0  0  0
  190.7450  175.3410  134.9930 C   0  0  0  0  0  2  0  0  0  0  0  0
  188.7600  173.9610  135.4030 C   0  0  0  0  0  0  0  0  0  0  0  0
  189.4750  173.4470  136.6230 C   0  0  0  0  0  2  0  0  0  0  0  0
  190.1150  174.6090  137.3970 C   0  0  0  0  0  2  0  0  0  0  0  0
  2 15  1  0  0  0  0
  3 16  1  0  0  0  0
  3  6  1  0  0  0  0
  4 18  1  1  0  0  0
  4 14  1  0  0  0  0
  4  7  1  0  0  0  0
  6 10  1  0  0  0  0
  7 17  1  6  0  0  0
  7  9  1  0  0  0  0
  8 17  1  0  0  0  0
  9  5  1  1  0  0  0
 10 18  1  0  0  0  0
 10 27  1  1  0  0  0
 12  8  1  0  0  0  0
 12 23  1  6  0  0  0
 13  8  2  0  0  0  0
 14  2  1  0  0  0  0
 14  1  1  1  0  0  0
 15 11  1  6  0  0  0
 15  9  1  0  0  0  0
 16 12  1  0  0  0  0
 19 20  1  0  0  0  0
 21 20  2  0  0  0  0
 22 24  1  0  0  0  0
 22 23  2  0  0  0  0
 23 21  1  0  0  0  0
 24 19  2  0  0  0  0
 26 25  1  0  0  0  0
 26 24  1  0  0  0  0
 27 28  1  0  0  0  0
 28 37  1  0  0  0  0
 29 35  1  0  0  0  0
 31 30  2  0  0  0  0
 33 39  2  0  0  0  0
 33 40  1  0  0  0  0
 34 32  1  0  0  0  0
 35 32  2  0  0  0  0
 36 34  2  0  0  0  0
 37 36  1  0  0  0  0
 37 29  2  0  0  0  0
 38 30  1  0  0  0  0
 38 36  1  0  0  0  0
 39 31  1  0  0  0  0
 40 28  1  0  0  0  0
 40 38  2  0  0  0  0
 41 18  1  0  0  0  0
 42 41  1  0  0  0  0
 42 43  1  0  0  0  0
 44 49  1  0  0  0  0
 44 43  1  0  0  0  0
 45 48  1  0  0  0  0
 45 49  2  0  0  0  0
 46 47  1  1  0  0  0
 46 51  1  0  0  0  0
 48 46  1  0  0  0  0
 49 50  1  0  0  0  0
 50 51  1  0  0  0  0
M  END
>  <MODEL>
1

>  <REMARK>
 VINA RESULT:      -6.7      0.000      0.000
  Name = 
  9 active torsions:
  status: ('A' for Active; 'I' for Inactive)
    1  A    between atoms: N_2  and  N_6
    2  A    between atoms: N_2  and  C_27
    3  A    between atoms: C_3  and  C_30
    4  A    between atoms: C_3  and  N_51
    5  A    between atoms: O_13  and  C_22
    6  A    between atoms: O_13  and  C_30
    7  A    between atoms: C_21  and  C_22
    8  A    between atoms: C_32  and  C_43
    9  A    between atoms: C_47  and  C_49
                            x       y       z     vdW  Elec       q    Type
                         _______ _______ _______ _____ _____    ______ ____

>  <TORSDO>
F 9

$$$$
=
 OpenBabel11062414583D

 51 57  0  0  1  0  0  0  0  0999 V2000
  182.8120  180.5410  138.5120 O   0  0  0  0  0  1  0  0  0  0  0  0
  180.6640  180.3380  137.4800 C   0  0  0  0  0  2  0  0  0  0  0  0
  181.2870  175.7190  139.6030 C   0  0  0  0  0  2  0  0  0  0  0  0
  181.8410  178.3030  138.5010 C   0  0  2  0  0  3  0  0  0  0  0  0
  182.3560  178.2590  134.6380 C   0  0  0  0  0  1  0  0  0  0  0  0
  182.6470  175.5660  139.9130 O   0  0  0  0  0  0  0  0  0  0  0  0
  181.7760  177.7600  137.0470 C   0  0  2  0  0  3  0  0  0  0  0  0
  180.0960  175.9380  136.7600 C   0  0  0  0  0  0  0  0  0  0  0  0
  182.1680  178.8380  136.0350 C   0  0  2  0  0  3  0  0  0  0  0  0
  183.4470  176.4730  139.1680 C   0  0  2  0  0  3  0  0  0  0  0  0
  180.1000  179.8220  135.2170 O   0  0  0  0  0  1  0  0  0  0  0  0
  181.0440  174.8790  137.2650 C   0  0  1  0  0  3  0  0  0  0  0  0
  178.9310  175.6210  136.3860 O   0  0  0  0  0  0  0  0  0  0  0  0
  181.6060  179.8420  138.5810 C   0  0  1  0  0  3  0  0  0  0  0  0
  181.1930  180.0380  136.0610 C   0  0  1  0  0  3  0  0  0  0  0  0
  180.8010  174.5710  138.7370 C   0  0  0  0  0  2  0  0  0  0  0  0
  180.4610  177.2920  136.7600 O   0  0  0  0  0  0  0  0  0  0  0  0
  183.0800  177.9120  139.2230 N   0  0  0  0  0  0  0  0  0  0  0  0
  181.1050  171.2080  135.0180 C   0  0  0  0  0  3  0  0  0  0  0  0
  179.8950  171.6750  135.5410 C   0  0  0  0  0  3  0  0  0  0  0  0
  179.8610  172.8760  136.2610 C   0  0  0  0  0  3  0  0  0  0  0  0
  182.2380  173.1480  135.9320 C   0  0  0  0  0  3  0  0  0  0  0  0
  181.0350  173.6230  136.4490 C   0  0  0  0  0  0  0  0  0  0  0  0
  182.2800  171.9430  135.2090 C   0  0  0  0  0  0  0  0  0  0  0  0
  183.8980  170.1090  135.4990 C   0  0  0  0  0  1  0  0  0  0  0  0
  183.5830  171.3900  134.7400 C   0  0  0  0  0  2  0  0  0  0  0  0
  183.7650  176.0090  137.8240 N   0  0  0  0  0  2  0  0  0  0  0  0
  185.0750  175.7510  137.3770 N   0  0  0  0  0  0  0  0  0  0  0  0
  185.8060  178.0820  137.0150 C   0  0  0  0  0  3  0  0  0  0  0  0
  187.8510  173.7360  136.5450 N   0  0  0  0  0  0  0  0  0  0  0  0
  187.4230  172.4540  136.7710 C   0  0  0  0  0  3  0  0  0  0  0  0
  188.1190  178.2680  136.2210 C   0  0  0  0  0  3  0  0  0  0  0  0
  185.2300  173.2720  137.4780 C   0  0  0  0  0  3  0  0  0  0  0  0
  188.2700  176.8700  136.2340 C   0  0  0  0  0  3  0  0  0  0  0  0
  186.8980  178.8700  136.6100 C   0  0  0  0  0  3  0  0  0  0  0  0
  187.1740  176.1160  136.6410 C   0  0  0  0  0  0  0  0  0  0  0  0
  185.9750  176.6930  137.0150 C   0  0  0  0  0  0  0  0  0  0  0  0
  186.9900  174.7570  136.7760 C   0  0  0  0  0  0  0  0  0  0  0  0
  186.1120  172.2020  137.2400 C   0  0  0  0  0  3  0  0  0  0  0  0
  185.7040  174.5580  137.2290 C   0  0  0  0  0  0  0  0  0  0  0  0
  182.9650  178.2990  140.6310 C   0  0  0  0  0  2  0  0  0  0  0  0
  184.3280  178.6490  141.2070 C   0  0  0  0  0  2  0  0  0  0  0  0
  184.7130  177.7030  142.1590 O   0  0  0  0  0  0  0  0  0  0  0  0
  186.0680  177.9510  142.3820 C   0  0  0  0  0  2  0  0  0  0  0  0
  185.3320  178.8450  144.5640 C   0  0  0  0  0  3  0  0  0  0  0  0
  186.2580  177.8960  146.6820 C   0  0  1  0  0  3  0  0  0  0  0  0
  186.7880  178.2610  147.9050 F   0  0  0  0  0  0  0  0  0  0  0  0
  185.5940  179.1140  146.0200 C   0  0  0  0  0  2  0  0  0  0  0  0
  186.3010  178.2890  143.8220 C   0  0  0  0  0  0  0  0  0  0  0  0
  187.6060  177.9220  144.4750 C   0  0  0  0  0  2  0  0  0  0  0  0
  187.3530  177.2220  145.8190 C   0  0  0  0  0  2  0  0  0  0  0  0
  2 14  1  0  0  0  0
  3  6  1  0  0  0  0
  4 14  1  0  0  0  0
  4 18  1  6  0  0  0
  7 17  1  6  0  0  0
  7  4  1  0  0  0  0
  8 12  1  0  0  0  0
  9  5  1  6  0  0  0
  9 15  1  0  0  0  0
  9  7  1  0  0  0  0
 10 27  1  6  0  0  0
 10 18  1  0  0  0  0
 10  6  1  0  0  0  0
 12 23  1  6  0  0  0
 12 16  1  0  0  0  0
 13  8  2  0  0  0  0
 14  1  1  6  0  0  0
 15 11  1  6  0  0  0
 15  2  1  0  0  0  0
 16  3  1  0  0  0  0
 17  8  1  0  0  0  0
 18 41  1  0  0  0  0
 19 24  2  0  0  0  0
 19 20  1  0  0  0  0
 20 21  2  0  0  0  0
 21 23  1  0  0  0  0
 22 23  2  0  0  0  0
 24 22  1  0  0  0  0
 26 24  1  0  0  0  0
 26 25  1  0  0  0  0
 28 27  1  0  0  0  0
 30 31  2  0  0  0  0
 30 38  1  0  0  0  0
 31 39  1  0  0  0  0
 32 34  2  0  0  0  0
 32 35  1  0  0  0  0
 34 36  1  0  0  0  0
 35 29  2  0  0  0  0
 36 38  1  0  0  0  0
 36 37  2  0  0  0  0
 37 29  1  0  0  0  0
 37 28  1  0  0  0  0
 38 40  2  0  0  0  0
 39 33  2  0  0  0  0
 40 28  1  0  0  0  0
 40 33  1  0  0  0  0
 41 42  1  0  0  0  0
 42 43  1  0  0  0  0
 43 44  1  0  0  0  0
 44 49  1  0  0  0  0
 45 48  1  0  0  0  0
 46 47  1  1  0  0  0
 48 46  1  0  0  0  0
 49 50  1  0  0  0  0
 49 45  2  0  0  0  0
 50 51  1  0  0  0  0
 51 46  1  0  0  0  0
M  END
>  <MODEL>
2

>  <REMARK>
 VINA RESULT:      -6.2      3.065      7.427
  Name = 
  9 active torsions:
  status: ('A' for Active; 'I' for Inactive)
    1  A    between atoms: N_2  and  N_6
    2  A    between atoms: N_2  and  C_27
    3  A    between atoms: C_3  and  C_30
    4  A    between atoms: C_3  and  N_51
    5  A    between atoms: O_13  and  C_22
    6  A    between atoms: O_13  and  C_30
    7  A    between atoms: C_21  and  C_22
    8  A    between atoms: C_32  and  C_43
    9  A    between atoms: C_47  and  C_49
                            x       y       z     vdW  Elec       q    Type
                         _______ _______ _______ _____ _____    ______ ____

>  <TORSDO>
F 9

$$$$
=
 OpenBabel11062414583D

 51 57  0  0  1  0  0  0  0  0999 V2000
  182.7450  180.4620  138.3690 O   0  0  0  0  0  1  0  0  0  0  0  0
  180.6200  180.1990  137.3030 C   0  0  0  0  0  2  0  0  0  0  0  0
  181.2220  175.6860  139.6470 C   0  0  0  0  0  2  0  0  0  0  0  0
  181.7860  178.2210  138.4400 C   0  0  2  0  0  3  0  0  0  0  0  0
  182.3800  178.0040  134.5940 C   0  0  0  0  0  1  0  0  0  0  0  0
  182.5760  175.5550  139.9910 O   0  0  0  0  0  0  0  0  0  0  0  0
  181.7530  177.6120  137.0110 C   0  0  2  0  0  3  0  0  0  0  0  0
  180.0890  175.7690  136.7730 C   0  0  0  0  0  0  0  0  0  0  0  0
  182.1610  178.6450  135.9590 C   0  0  2  0  0  3  0  0  0  0  0  0
  183.3860  176.4330  139.2220 C   0  0  2  0  0  3  0  0  0  0  0  0
  180.1050  179.5780  135.0540 O   0  0  0  0  0  1  0  0  0  0  0  0
  181.0320  174.7390  137.3450 C   0  0  1  0  0  3  0  0  0  0  0  0
  178.9330  175.4280  136.3900 O   0  0  0  0  0  0  0  0  0  0  0  0
  181.5410  179.7600  138.4440 C   0  0  1  0  0  3  0  0  0  0  0  0
  181.1790  179.8390  135.9100 C   0  0  1  0  0  3  0  0  0  0  0  0
  180.7600  174.4970  138.8240 C   0  0  0  0  0  2  0  0  0  0  0  0
  180.4470  177.1230  136.7190 O   0  0  0  0  0  0  0  0  0  0  0  0
  183.0110  177.8700  139.2040 N   0  0  0  0  0  0  0  0  0  0  0  0
  181.1800  170.9800  135.2530 C   0  0  0  0  0  3  0  0  0  0  0  0
  180.0150  171.3420  135.9370 C   0  0  0  0  0  3  0  0  0  0  0  0
  179.9500  172.5700  136.6080 C   0  0  0  0  0  3  0  0  0  0  0  0
  182.2060  173.0770  135.9110 C   0  0  0  0  0  3  0  0  0  0  0  0
  181.0450  173.4470  136.5870 C   0  0  0  0  0  0  0  0  0  0  0  0
  182.2780  171.8460  135.2360 C   0  0  0  0  0  0  0  0  0  0  0  0
  184.1730  170.2820  135.4040 C   0  0  0  0  0  1  0  0  0  0  0  0
  183.5530  171.4110  134.5940 C   0  0  0  0  0  2  0  0  0  0  0  0
  183.7350  175.9100  137.9070 N   0  0  0  0  0  2  0  0  0  0  0  0
  185.0580  175.7770  137.4450 N   0  0  0  0  0  0  0  0  0  0  0  0
  185.2140  173.3120  137.4780 C   0  0  0  0  0  3  0  0  0  0  0  0
  188.1790  176.9190  136.2560 N   0  0  0  0  0  0  0  0  0  0  0  0
  188.0580  178.2840  136.2320 C   0  0  0  0  0  3  0  0  0  0  0  0
  187.3850  172.4610  136.7200 C   0  0  0  0  0  3  0  0  0  0  0  0
  185.7650  178.1300  137.0690 C   0  0  0  0  0  3  0  0  0  0  0  0
  187.8580  173.7680  136.5040 C   0  0  0  0  0  3  0  0  0  0  0  0
  186.0730  172.2340  137.2020 C   0  0  0  0  0  3  0  0  0  0  0  0
  186.9870  174.8150  136.7850 C   0  0  0  0  0  0  0  0  0  0  0  0
  185.7060  174.6040  137.2630 C   0  0  0  0  0  0  0  0  0  0  0  0
  187.1230  176.1810  136.6780 C   0  0  0  0  0  0  0  0  0  0  0  0
  186.8540  178.9090  136.6360 C   0  0  0  0  0  3  0  0  0  0  0  0
  185.9350  176.7480  137.0840 C   0  0  0  0  0  0  0  0  0  0  0  0
  182.8650  178.3200  140.5900 C   0  0  0  0  0  2  0  0  0  0  0  0
  184.0630  179.1550  141.0150 C   0  0  0  0  0  2  0  0  0  0  0  0
  184.8260  178.4680  141.9610 O   0  0  0  0  0  0  0  0  0  0  0  0
  186.1160  178.4400  141.4270 C   0  0  0  0  0  2  0  0  0  0  0  0
  186.7180  177.7590  143.7240 C   0  0  0  0  0  3  0  0  0  0  0  0
  188.8620  176.5480  144.1480 C   0  0  1  0  0  3  0  0  0  0  0  0
  189.9580  176.5260  144.9880 F   0  0  0  0  0  0  0  0  0  0  0  0
  187.7600  177.4300  144.7570 C   0  0  0  0  0  2  0  0  0  0  0  0
  187.1150  178.1550  142.5050 C   0  0  0  0  0  0  0  0  0  0  0  0
  188.5860  178.2240  142.1990 C   0  0  0  0  0  2  0  0  0  0  0  0
  189.3020  176.9710  142.7260 C   0  0  0  0  0  2  0  0  0  0  0  0
  2 14  1  0  0  0  0
  3  6  1  0  0  0  0
  4 14  1  0  0  0  0
  4 18  1  6  0  0  0
  7 17  1  6  0  0  0
  7  4  1  0  0  0  0
  8 12  1  0  0  0  0
  9  5  1  6  0  0  0
  9  7  1  0  0  0  0
 10 27  1  6  0  0  0
 10  6  1  0  0  0  0
 12 23  1  6  0  0  0
 12 16  1  0  0  0  0
 13  8  2  0  0  0  0
 14  1  1  6  0  0  0
 15 11  1  6  0  0  0
 15  9  1  0  0  0  0
 15  2  1  0  0  0  0
 16  3  1  0  0  0  0
 17  8  1  0  0  0  0
 18 10  1  0  0  0  0
 18 41  1  0  0  0  0
 19 20  1  0  0  0  0
 20 21  2  0  0  0  0
 22 23  2  0  0  0  0
 23 21  1  0  0  0  0
 24 19  2  0  0  0  0
 24 22  1  0  0  0  0
 26 24  1  0  0  0  0
 26 25  1  0  0  0  0
 28 27  1  0  0  0  0
 30 38  1  0  0  0  0
 31 30  2  0  0  0  0
 31 39  1  0  0  0  0
 32 35  1  0  0  0  0
 33 40  1  0  0  0  0
 34 32  2  0  0  0  0
 34 36  1  0  0  0  0
 35 29  2  0  0  0  0
 36 37  2  0  0  0  0
 37 28  1  0  0  0  0
 37 29  1  0  0  0  0
 38 36  1  0  0  0  0
 38 40  2  0  0  0  0
 39 33  2  0  0  0  0
 40 28  1  0  0  0  0
 41 42  1  0  0  0  0
 42 43  1  0  0  0  0
 44 43  1  0  0  0  0
 44 49  1  0  0  0  0
 45 48  1  0  0  0  0
 46 48  1  0  0  0  0
 46 47  1  1  0  0  0
 49 45  2  0  0  0  0
 50 49  1  0  0  0  0
 50 51  1  0  0  0  0
 51 46  1  0  0  0  0
M  END
>  <MODEL>
3

>  <REMARK>
 VINA RESULT:      -6.1      2.709      6.939
  Name = 
  9 active torsions:
  status: ('A' for Active; 'I' for Inactive)
    1  A    between atoms: N_2  and  N_6
    2  A    between atoms: N_2  and  C_27
    3  A    between atoms: C_3  and  C_30
    4  A    between atoms: C_3  and  N_51
    5  A    between atoms: O_13  and  C_22
    6  A    between atoms: O_13  and  C_30
    7  A    between atoms: C_21  and  C_22
    8  A    between atoms: C_32  and  C_43
    9  A    between atoms: C_47  and  C_49
                            x       y       z     vdW  Elec       q    Type
                         _______ _______ _______ _____ _____    ______ ____

>  <TORSDO>
F 9

$$$$
=
 OpenBabel11062414583D

 51 57  0  0  1  0  0  0  0  0999 V2000
  190.4630  173.4590  135.7400 O   0  0  0  0  0  1  0  0  0  0  0  0
  188.6390  172.3610  134.6500 C   0  0  0  0  0  2  0  0  0  0  0  0
  187.1410  177.2580  134.5970 C   0  0  0  0  0  2  0  0  0  0  0  0
  188.4980  174.8360  135.3000 C   0  0  2  0  0  3  0  0  0  0  0  0
  186.5980  172.7150  137.9620 C   0  0  0  0  0  1  0  0  0  0  0  0
  187.9220  177.9580  135.5290 O   0  0  0  0  0  0  0  0  0  0  0  0
  187.3060  174.3540  136.1720 C   0  0  2  0  0  3  0  0  0  0  0  0
  185.0880  175.0460  135.2630 C   0  0  0  0  0  0  0  0  0  0  0  0
  187.6500  173.0610  136.9150 C   0  0  2  0  0  3  0  0  0  0  0  0
  188.5160  177.0730  136.4670 C   0  0  2  0  0  3  0  0  0  0  0  0
  186.7570  171.2280  135.5890 O   0  0  0  0  0  1  0  0  0  0  0  0
  185.1740  176.4180  135.8850 C   0  0  1  0  0  3  0  0  0  0  0  0
  184.0670  174.7150  134.5940 O   0  0  0  0  0  0  0  0  0  0  0  0
  189.4180  173.6660  134.8380 C   0  0  1  0  0  3  0  0  0  0  0  0
  187.9350  171.8930  135.9420 C   0  0  1  0  0  3  0  0  0  0  0  0
  185.6630  177.4530  134.8810 C   0  0  0  0  0  2  0  0  0  0  0  0
  186.1570  174.1430  135.3550 O   0  0  0  0  0  0  0  0  0  0  0  0
  189.2890  175.9240  135.9300 N   0  0  0  0  0  0  0  0  0  0  0  0
  181.5910  177.7180  137.8850 C   0  0  0  0  0  3  0  0  0  0  0  0
  182.1000  178.4740  136.8240 C   0  0  0  0  0  3  0  0  0  0  0  0
  183.2570  178.0520  136.1550 C   0  0  0  0  0  3  0  0  0  0  0  0
  183.3940  176.1210  137.6010 C   0  0  0  0  0  3  0  0  0  0  0  0
  183.9020  176.8640  136.5370 C   0  0  0  0  0  0  0  0  0  0  0  0
  182.2350  176.5400  138.2760 C   0  0  0  0  0  0  0  0  0  0  0  0
  180.3770  175.2000  139.1830 C   0  0  0  0  0  1  0  0  0  0  0  0
  181.7490  175.7940  139.4730 C   0  0  0  0  0  2  0  0  0  0  0  0
  187.6360  176.7110  137.5720 N   0  0  0  0  0  2  0  0  0  0  0  0
  187.7470  177.2520  138.8670 N   0  0  0  0  0  0  0  0  0  0  0  0
  185.4740  178.2000  139.0640 C   0  0  0  0  0  3  0  0  0  0  0  0
  189.3530  177.9670  141.9280 N   0  0  0  0  0  0  0  0  0  0  0  0
  190.6000  177.4160  141.7960 C   0  0  0  0  0  3  0  0  0  0  0  0
  185.0590  179.2990  141.2170 C   0  0  0  0  0  3  0  0  0  0  0  0
  190.0570  176.6340  139.5440 C   0  0  0  0  0  3  0  0  0  0  0  0
  186.3610  179.0010  141.6570 C   0  0  0  0  0  3  0  0  0  0  0  0
  184.6170  178.9000  139.9320 C   0  0  0  0  0  3  0  0  0  0  0  0
  187.1860  178.3070  140.7790 C   0  0  0  0  0  0  0  0  0  0  0  0
  186.7680  177.9200  139.5190 C   0  0  0  0  0  0  0  0  0  0  0  0
  188.4830  177.8570  140.8940 C   0  0  0  0  0  0  0  0  0  0  0  0
  190.9720  176.7440  140.6080 C   0  0  0  0  0  3  0  0  0  0  0  0
  188.8030  177.2150  139.7180 C   0  0  0  0  0  0  0  0  0  0  0  0
  190.2600  176.4410  134.9630 C   0  0  0  0  0  2  0  0  0  0  0  0
  191.6560  176.4760  135.5650 C   0  0  0  0  0  2  0  0  0  0  0  0
  191.7160  175.6680  136.7030 O   0  0  0  0  0  0  0  0  0  0  0  0
  192.8390  176.1170  137.4010 C   0  0  0  0  0  2  0  0  0  0  0  0
  194.6540  174.8790  138.5290 C   0  0  0  0  0  3  0  0  0  0  0  0
  195.0040  172.4530  138.0430 C   0  0  1  0  0  3  0  0  0  0  0  0
  195.9860  171.5260  137.7530 F   0  0  0  0  0  0  0  0  0  0  0  0
  195.6500  173.7530  138.5480 C   0  0  0  0  0  2  0  0  0  0  0  0
  193.8830  175.0460  137.4440 C   0  0  0  0  0  0  0  0  0  0  0  0
  194.0150  174.0830  136.2960 C   0  0  0  0  0  2  0  0  0  0  0  0
  194.0820  172.6380  136.8130 C   0  0  0  0  0  2  0  0  0  0  0  0
  2 14  1  0  0  0  0
  2 15  1  0  0  0  0
  3 16  1  0  0  0  0
  3  6  1  0  0  0  0
  4 18  1  1  0  0  0
  4  7  1  0  0  0  0
  6 10  1  0  0  0  0
  7 17  1  6  0  0  0
  7  9  1  0  0  0  0
  8 17  1  0  0  0  0
  8 12  1  0  0  0  0
  9  5  1  1  0  0  0
 10 27  1  6  0  0  0
 12 23  1  6  0  0  0
 13  8  2  0  0  0  0
 14  4  1  0  0  0  0
 14  1  1  1  0  0  0
 15 11  1  6  0  0  0
 15  9  1  0  0  0  0
 16 12  1  0  0  0  0
 18 10  1  0  0  0  0
 19 24  1  0  0  0  0
 20 19  2  0  0  0  0
 21 23  2  0  0  0  0
 21 20  1  0  0  0  0
 22 24  2  0  0  0  0
 23 22  1  0  0  0  0
 24 26  1  0  0  0  0
 25 26  1  0  0  0  0
 27 28  1  0  0  0  0
 28 37  1  0  0  0  0
 28 40  1  0  0  0  0
 29 37  2  0  0  0  0
 29 35  1  0  0  0  0
 31 30  1  0  0  0  0
 32 34  1  0  0  0  0
 33 40  2  0  0  0  0
 33 39  1  0  0  0  0
 35 32  2  0  0  0  0
 36 38  1  0  0  0  0
 36 34  2  0  0  0  0
 37 36  1  0  0  0  0
 38 30  2  0  0  0  0
 39 31  2  0  0  0  0
 40 38  1  0  0  0  0
 41 42  1  0  0  0  0
 41 18  1  0  0  0  0
 42 43  1  0  0  0  0
 43 44  1  0  0  0  0
 44 49  1  0  0  0  0
 45 48  1  0  0  0  0
 46 47  1  6  0  0  0
 46 48  1  0  0  0  0
 49 45  2  0  0  0  0
 50 51  1  0  0  0  0
 50 49  1  0  0  0  0
 51 46  1  0  0  0  0
M  END
>  <MODEL>
4

>  <REMARK>
 VINA RESULT:      -5.7      2.921      5.554
  Name = 
  9 active torsions:
  status: ('A' for Active; 'I' for Inactive)
    1  A    between atoms: N_2  and  N_6
    2  A    between atoms: N_2  and  C_27
    3  A    between atoms: C_3  and  C_30
    4  A    between atoms: C_3  and  N_51
    5  A    between atoms: O_13  and  C_22
    6  A    between atoms: O_13  and  C_30
    7  A    between atoms: C_21  and  C_22
    8  A    between atoms: C_32  and  C_43
    9  A    between atoms: C_47  and  C_49
                            x       y       z     vdW  Elec       q    Type
                         _______ _______ _______ _____ _____    ______ ____

>  <TORSDO>
F 9

$$$$
=
 OpenBabel11062414583D

 51 57  0  0  1  0  0  0  0  0999 V2000
  190.3740  173.4450  135.7210 O   0  0  0  0  0  1  0  0  0  0  0  0
  188.5520  172.3380  134.6370 C   0  0  0  0  0  2  0  0  0  0  0  0
  187.0280  177.2270  134.5940 C   0  0  0  0  0  2  0  0  0  0  0  0
  188.4000  174.8110  135.2900 C   0  0  2  0  0  3  0  0  0  0  0  0
  186.5210  172.6780  137.9560 C   0  0  0  0  0  1  0  0  0  0  0  0
  187.8090  177.9300  135.5240 O   0  0  0  0  0  0  0  0  0  0  0  0
  187.2140  174.3220  136.1650 C   0  0  2  0  0  3  0  0  0  0  0  0
  184.9890  175.0030  135.2650 C   0  0  0  0  0  0  0  0  0  0  0  0
  187.5670  173.0310  136.9060 C   0  0  2  0  0  3  0  0  0  0  0  0
  188.4110  177.0470  136.4600 C   0  0  2  0  0  3  0  0  0  0  0  0
  186.6790  171.1940  135.5810 O   0  0  0  0  0  1  0  0  0  0  0  0
  185.0710  176.3750  135.8880 C   0  0  1  0  0  3  0  0  0  0  0  0
  183.9680  174.6680  134.6000 O   0  0  0  0  0  0  0  0  0  0  0  0
  189.3240  173.6460  134.8230 C   0  0  1  0  0  3  0  0  0  0  0  0
  187.8550  171.8650  135.9300 C   0  0  1  0  0  3  0  0  0  0  0  0
  185.5500  177.4140  134.8840 C   0  0  0  0  0  2  0  0  0  0  0  0
  186.0640  174.1060  135.3520 O   0  0  0  0  0  0  0  0  0  0  0  0
  189.1880  175.9030  135.9180 N   0  0  0  0  0  0  0  0  0  0  0  0
  181.4880  177.6550  137.9020 C   0  0  0  0  0  3  0  0  0  0  0  0
  181.9870  178.4110  136.8370 C   0  0  0  0  0  3  0  0  0  0  0  0
  183.1430  177.9960  136.1640 C   0  0  0  0  0  3  0  0  0  0  0  0
  183.3010  176.0700  137.6130 C   0  0  0  0  0  3  0  0  0  0  0  0
  183.7980  176.8140  136.5460 C   0  0  0  0  0  0  0  0  0  0  0  0
  182.1420  176.4820  138.2940 C   0  0  0  0  0  0  0  0  0  0  0  0
  180.5070  176.4840  140.1360 C   0  0  0  0  0  1  0  0  0  0  0  0
  181.6670  175.7350  139.4950 C   0  0  0  0  0  2  0  0  0  0  0  0
  187.5370  176.6800  137.5670 N   0  0  0  0  0  2  0  0  0  0  0  0
  187.6180  177.2540  138.8490 N   0  0  0  0  0  0  0  0  0  0  0  0
  189.9540  176.6480  139.3760 C   0  0  0  0  0  3  0  0  0  0  0  0
  186.4420  179.0550  141.6480 N   0  0  0  0  0  0  0  0  0  0  0  0
  185.1540  179.3920  141.3210 C   0  0  0  0  0  3  0  0  0  0  0  0
  190.6960  177.4390  141.5760 C   0  0  0  0  0  3  0  0  0  0  0  0
  185.3710  178.2690  139.1600 C   0  0  0  0  0  3  0  0  0  0  0  0
  189.4400  178.0190  141.8270 C   0  0  0  0  0  3  0  0  0  0  0  0
  190.9530  176.7600  140.3600 C   0  0  0  0  0  3  0  0  0  0  0  0
  188.4720  177.8940  140.8360 C   0  0  0  0  0  0  0  0  0  0  0  0
  188.7090  177.2260  139.6480 C   0  0  0  0  0  0  0  0  0  0  0  0
  187.1720  178.3420  140.7560 C   0  0  0  0  0  0  0  0  0  0  0  0
  184.6000  179.0070  140.0780 C   0  0  0  0  0  3  0  0  0  0  0  0
  186.6720  177.9430  139.5360 C   0  0  0  0  0  0  0  0  0  0  0  0
  190.1530  176.4260  134.9480 C   0  0  0  0  0  2  0  0  0  0  0  0
  191.4360  176.8550  135.6420 C   0  0  0  0  0  2  0  0  0  0  0  0
  192.3910  175.8380  135.5750 O   0  0  0  0  0  0  0  0  0  0  0  0
  193.1230  175.9560  136.7570 C   0  0  0  0  0  2  0  0  0  0  0  0
  195.4280  175.2160  136.2680 C   0  0  0  0  0  3  0  0  0  0  0  0
  196.5750  173.6040  137.7950 C   0  0  1  0  0  3  0  0  0  0  0  0
  197.3340  172.4500  137.7970 F   0  0  0  0  0  0  0  0  0  0  0  0
  196.5180  174.1850  136.3730 C   0  0  0  0  0  2  0  0  0  0  0  0
  194.2220  174.9410  136.7870 C   0  0  0  0  0  0  0  0  0  0  0  0
  194.0080  173.6260  137.4870 C   0  0  0  0  0  2  0  0  0  0  0  0
  195.1880  173.3170  138.4200 C   0  0  0  0  0  2  0  0  0  0  0  0
  2 14  1  0  0  0  0
  2 15  1  0  0  0  0
  3 16  1  0  0  0  0
  3  6  1  0  0  0  0
  4 18  1  1  0  0  0
  4  7  1  0  0  0  0
  6 10  1  0  0  0  0
  7 17  1  6  0  0  0
  7  9  1  0  0  0  0
  8 17  1  0  0  0  0
  8 12  1  0  0  0  0
  9  5  1  1  0  0  0
 10 27  1  1  0  0  0
 12 23  1  6  0  0  0
 13  8  2  0  0  0  0
 14  4  1  0  0  0  0
 14  1  1  1  0  0  0
 15 11  1  6  0  0  0
 15  9  1  0  0  0  0
 16 12  1  0  0  0  0
 18 10  1  0  0  0  0
 19 24  1  0  0  0  0
 20 19  2  0  0  0  0
 21 23  2  0  0  0  0
 21 20  1  0  0  0  0
 22 24  2  0  0  0  0
 23 22  1  0  0  0  0
 24 26  1  0  0  0  0
 26 25  1  0  0  0  0
 27 28  1  0  0  0  0
 28 40  1  0  0  0  0
 28 37  1  0  0  0  0
 29 37  2  0  0  0  0
 29 35  1  0  0  0  0
 31 30  1  0  0  0  0
 32 34  1  0  0  0  0
 33 40  2  0  0  0  0
 33 39  1  0  0  0  0
 35 32  2  0  0  0  0
 36 34  2  0  0  0  0
 37 36  1  0  0  0  0
 38 36  1  0  0  0  0
 38 30  2  0  0  0  0
 39 31  2  0  0  0  0
 40 38  1  0  0  0  0
 41 42  1  0  0  0  0
 41 18  1  0  0  0  0
 43 42  1  0  0  0  0
 43 44  1  0  0  0  0
 44 49  1  0  0  0  0
 45 48  1  0  0  0  0
 45 49  2  0  0  0  0
 46 47  1  6  0  0  0
 46 51  1  0  0  0  0
 48 46  1  0  0  0  0
 49 50  1  0  0  0  0
 50 51  1  0  0  0  0
M  END
>  <MODEL>
5

>  <REMARK>
 VINA RESULT:      -5.7      2.954      5.806
  Name = 
  9 active torsions:
  status: ('A' for Active; 'I' for Inactive)
    1  A    between atoms: N_2  and  N_6
    2  A    between atoms: N_2  and  C_27
    3  A    between atoms: C_3  and  C_30
    4  A    between atoms: C_3  and  N_51
    5  A    between atoms: O_13  and  C_22
    6  A    between atoms: O_13  and  C_30
    7  A    between atoms: C_21  and  C_22
    8  A    between atoms: C_32  and  C_43
    9  A    between atoms: C_47  and  C_49
                            x       y       z     vdW  Elec       q    Type
                         _______ _______ _______ _____ _____    ______ ____

>  <TORSDO>
F 9

$$$$
=
 OpenBabel11062414583D

 51 57  0  0  1  0  0  0  0  0999 V2000
  183.6110  172.9750  137.3520 O   0  0  0  0  0  1  0  0  0  0  0  0
  181.3330  173.0350  136.6270 C   0  0  0  0  0  2  0  0  0  0  0  0
  183.2300  177.3370  134.5960 C   0  0  0  0  0  2  0  0  0  0  0  0
  182.8900  175.0390  136.2710 C   0  0  2  0  0  3  0  0  0  0  0  0
  180.6470  175.7140  139.3860 C   0  0  0  0  0  1  0  0  0  0  0  0
  184.4380  177.6260  135.2470 O   0  0  0  0  0  0  0  0  0  0  0  0
  181.8550  175.7740  137.1660 C   0  0  2  0  0  3  0  0  0  0  0  0
  180.4260  177.3760  135.8950 C   0  0  0  0  0  0  0  0  0  0  0  0
  181.4570  174.9180  138.3700 C   0  0  2  0  0  3  0  0  0  0  0  0
  184.5220  176.9520  136.4950 C   0  0  2  0  0  3  0  0  0  0  0  0
  179.3830  173.7940  137.7800 O   0  0  0  0  0  1  0  0  0  0  0  0
  181.4650  178.4680  135.9520 C   0  0  1  0  0  3  0  0  0  0  0  0
  179.3160  177.5840  135.3270 O   0  0  0  0  0  0  0  0  0  0  0  0
  182.7710  173.4880  136.3620 C   0  0  1  0  0  3  0  0  0  0  0  0
  180.7580  173.6060  137.9410 C   0  0  1  0  0  3  0  0  0  0  0  0
  182.2840  178.5230  134.6700 C   0  0  0  0  0  2  0  0  0  0  0  0
  180.6940  176.0980  136.4060 O   0  0  0  0  0  0  0  0  0  0  0  0
  184.2890  175.4850  136.4970 N   0  0  0  0  0  0  0  0  0  0  0  0
  179.9660  182.3650  136.9990 C   0  0  0  0  0  3  0  0  0  0  0  0
  180.3280  182.1000  135.6740 C   0  0  0  0  0  3  0  0  0  0  0  0
  180.8030  180.8300  135.3190 C   0  0  0  0  0  3  0  0  0  0  0  0
  180.5490  180.0900  137.6040 C   0  0  0  0  0  3  0  0  0  0  0  0
  180.9040  179.8170  136.2850 C   0  0  0  0  0  0  0  0  0  0  0  0
  180.0730  181.3620  137.9680 C   0  0  0  0  0  0  0  0  0  0  0  0
  179.2250  180.4460  140.0910 C   0  0  0  0  0  1  0  0  0  0  0  0
  179.7850  181.6800  139.3970 C   0  0  0  0  0  2  0  0  0  0  0  0
  183.8430  177.6460  137.5830 N   0  0  0  0  0  2  0  0  0  0  0  0
  184.4630  177.9810  138.8010 N   0  0  0  0  0  0  0  0  0  0  0  0
  186.8160  177.8920  138.0520 C   0  0  0  0  0  3  0  0  0  0  0  0
  184.5760  178.8980  142.2080 N   0  0  0  0  0  0  0  0  0  0  0  0
  183.2620  178.9560  142.5900 C   0  0  0  0  0  3  0  0  0  0  0  0
  188.4250  178.4330  139.8230 C   0  0  0  0  0  3  0  0  0  0  0  0
  182.5420  178.3310  140.3390 C   0  0  0  0  0  3  0  0  0  0  0  0
  187.3870  178.6270  140.7520 C   0  0  0  0  0  3  0  0  0  0  0  0
  188.1430  178.0710  138.4830 C   0  0  0  0  0  3  0  0  0  0  0  0
  186.0850  178.4450  140.2980 C   0  0  0  0  0  0  0  0  0  0  0  0
  185.7980  178.0830  138.9940 C   0  0  0  0  0  0  0  0  0  0  0  0
  184.8650  178.5620  140.9270 C   0  0  0  0  0  0  0  0  0  0  0  0
  182.2270  178.6750  141.6660 C   0  0  0  0  0  3  0  0  0  0  0  0
  183.8910  178.2770  139.9950 C   0  0  0  0  0  0  0  0  0  0  0  0
  185.1600  174.8850  135.4830 C   0  0  0  0  0  2  0  0  0  0  0  0
  186.5370  174.5930  136.0590 C   0  0  0  0  0  2  0  0  0  0  0  0
  187.5240  175.2540  135.3240 O   0  0  0  0  0  0  0  0  0  0  0  0
  188.5930  175.3980  136.2100 C   0  0  0  0  0  2  0  0  0  0  0  0
  190.8870  175.8390  135.4080 C   0  0  0  0  0  3  0  0  0  0  0  0
  192.5830  174.0040  135.3990 C   0  0  1  0  0  3  0  0  0  0  0  0
  193.5570  173.4180  134.6130 F   0  0  0  0  0  0  0  0  0  0  0  0
  192.1690  175.3550  134.7910 C   0  0  0  0  0  2  0  0  0  0  0  0
  189.8690  174.9770  135.5510 C   0  0  0  0  0  0  0  0  0  0  0  0
  190.0540  173.5470  135.1220 C   0  0  0  0  0  2  0  0  0  0  0  0
  191.4120  173.0140  135.6040 C   0  0  0  0  0  2  0  0  0  0  0  0
  2 15  1  0  0  0  0
  3 16  1  0  0  0  0
  3  6  1  0  0  0  0
  4 14  1  0  0  0  0
  4 18  1  1  0  0  0
  4  7  1  0  0  0  0
  6 10  1  0  0  0  0
  7 17  1  6  0  0  0
  7  9  1  0  0  0  0
  8 12  1  0  0  0  0
  8 17  1  0  0  0  0
  9  5  1  1  0  0  0
 10 18  1  0  0  0  0
 10 27  1  1  0  0  0
 12 23  1  6  0  0  0
 13  8  2  0  0  0  0
 14  2  1  0  0  0  0
 14  1  1  1  0  0  0
 15 11  1  6  0  0  0
 15  9  1  0  0  0  0
 16 12  1  0  0  0  0
 19 24  1  0  0  0  0
 20 19  2  0  0  0  0
 21 20  1  0  0  0  0
 21 23  2  0  0  0  0
 22 24  2  0  0  0  0
 23 22  1  0  0  0  0
 24 26  1  0  0  0  0
 26 25  1  0  0  0  0
 27 28  1  0  0  0  0
 28 37  1  0  0  0  0
 28 40  1  0  0  0  0
 29 35  2  0  0  0  0
 29 37  1  0  0  0  0
 30 31  1  0  0  0  0
 32 34  2  0  0  0  0
 33 39  1  0  0  0  0
 35 32  1  0  0  0  0
 36 34  1  0  0  0  0
 36 38  1  0  0  0  0
 37 36  2  0  0  0  0
 38 30  2  0  0  0  0
 39 31  2  0  0  0  0
 40 33  2  0  0  0  0
 40 38  1  0  0  0  0
 41 42  1  0  0  0  0
 41 18  1  0  0  0  0
 43 42  1  0  0  0  0
 43 44  1  0  0  0  0
 45 49  2  0  0  0  0
 46 47  1  6  0  0  0
 46 51  1  0  0  0  0
 48 46  1  0  0  0  0
 48 45  1  0  0  0  0
 49 44  1  0  0  0  0
 50 49  1  0  0  0  0
 50 51  1  0  0  0  0
M  END
>  <MODEL>
6

>  <REMARK>
 VINA RESULT:      -5.5      1.306      2.786
  Name = 
  9 active torsions:
  status: ('A' for Active; 'I' for Inactive)
    1  A    between atoms: N_2  and  N_6
    2  A    between atoms: N_2  and  C_27
    3  A    between atoms: C_3  and  C_30
    4  A    between atoms: C_3  and  N_51
    5  A    between atoms: O_13  and  C_22
    6  A    between atoms: O_13  and  C_30
    7  A    between atoms: C_21  and  C_22
    8  A    between atoms: C_32  and  C_43
    9  A    between atoms: C_47  and  C_49
                            x       y       z     vdW  Elec       q    Type
                         _______ _______ _______ _____ _____    ______ ____

>  <TORSDO>
F 9

$$$$
=
 OpenBabel11062414583D

 51 57  0  0  1  0  0  0  0  0999 V2000
  190.7100  174.0900  137.1580 O   0  0  0  0  0  1  0  0  0  0  0  0
  189.0710  173.8890  135.4270 C   0  0  0  0  0  2  0  0  0  0  0  0
  188.4190  178.7260  136.9780 C   0  0  0  0  0  2  0  0  0  0  0  0
  189.1590  175.9600  136.9340 C   0  0  2  0  0  3  0  0  0  0  0  0
  186.3420  173.5850  138.2050 C   0  0  0  0  0  1  0  0  0  0  0  0
  189.0390  178.8650  138.2290 O   0  0  0  0  0  0  0  0  0  0  0  0
  187.7260  175.5110  137.3300 C   0  0  2  0  0  3  0  0  0  0  0  0
  185.9450  176.9750  136.3750 C   0  0  0  0  0  0  0  0  0  0  0  0
  187.6650  174.0020  137.5730 C   0  0  2  0  0  3  0  0  0  0  0  0
  189.2320  177.6020  138.8490 C   0  0  2  0  0  3  0  0  0  0  0  0
  186.8600  172.9890  135.5140 O   0  0  0  0  0  1  0  0  0  0  0  0
  186.0850  177.9950  137.4780 C   0  0  1  0  0  3  0  0  0  0  0  0
  185.0870  177.1400  135.4620 O   0  0  0  0  0  0  0  0  0  0  0  0
  189.9710  174.8300  136.2320 C   0  0  1  0  0  3  0  0  0  0  0  0
  188.0000  173.1970  136.2960 C   0  0  1  0  0  3  0  0  0  0  0  0
  186.9660  179.1600  137.0480 C   0  0  0  0  0  2  0  0  0  0  0  0
  186.8020  175.8670  136.3050 O   0  0  0  0  0  0  0  0  0  0  0  0
  189.9260  176.5520  138.0600 N   0  0  0  0  0  0  0  0  0  0  0  0
  182.3420  179.3230  139.1390 C   0  0  0  0  0  3  0  0  0  0  0  0
  183.3580  180.2540  138.8990 C   0  0  0  0  0  3  0  0  0  0  0  0
  184.5740  179.8360  138.3440 C   0  0  0  0  0  3  0  0  0  0  0  0
  183.7620  177.5620  138.2650 C   0  0  0  0  0  3  0  0  0  0  0  0
  184.7750  178.4860  138.0140 C   0  0  0  0  0  0  0  0  0  0  0  0
  182.5400  177.9750  138.8220 C   0  0  0  0  0  0  0  0  0  0  0  0
  182.1540  175.6300  139.4680 C   0  0  0  0  0  1  0  0  0  0  0  0
  181.4950  176.9710  139.1760 C   0  0  0  0  0  2  0  0  0  0  0  0
  188.0560  177.1110  139.5570 N   0  0  0  0  0  2  0  0  0  0  0  0
  187.8570  177.2680  140.9420 N   0  0  0  0  0  0  0  0  0  0  0  0
  190.0230  176.3780  141.7280 C   0  0  0  0  0  3  0  0  0  0  0  0
  186.1010  178.2230  143.8510 N   0  0  0  0  0  0  0  0  0  0  0  0
  184.9150  178.7270  143.3850 C   0  0  0  0  0  3  0  0  0  0  0  0
  190.2700  176.4220  144.1680 C   0  0  0  0  0  3  0  0  0  0  0  0
  185.5960  178.2910  141.0770 C   0  0  0  0  0  3  0  0  0  0  0  0
  188.9890  176.9830  144.3190 C   0  0  0  0  0  3  0  0  0  0  0  0
  190.7840  176.1230  142.8830 C   0  0  0  0  0  3  0  0  0  0  0  0
  188.2590  177.2250  143.1600 C   0  0  0  0  0  0  0  0  0  0  0  0
  188.7490  176.9300  141.9010 C   0  0  0  0  0  0  0  0  0  0  0  0
  187.0080  177.7630  142.9550 C   0  0  0  0  0  0  0  0  0  0  0  0
  184.6450  178.7700  141.9970 C   0  0  0  0  0  3  0  0  0  0  0  0
  186.7840  177.7810  141.5950 C   0  0  0  0  0  0  0  0  0  0  0  0
  191.1780  177.1170  137.5520 C   0  0  0  0  0  2  0  0  0  0  0  0
  192.3350  176.7880  138.4820 C   0  0  0  0  0  2  0  0  0  0  0  0
  193.5550  176.9840  137.8300 O   0  0  0  0  0  0  0  0  0  0  0  0
  193.5420  176.0790  136.7670 C   0  0  0  0  0  2  0  0  0  0  0  0
  195.7690  175.2510  136.0920 C   0  0  0  0  0  3  0  0  0  0  0  0
  197.2650  174.1710  137.7760 C   0  0  1  0  0  3  0  0  0  0  0  0
  198.0860  173.0770  137.9680 F   0  0  0  0  0  0  0  0  0  0  0  0
  196.9230  174.3080  136.2830 C   0  0  0  0  0  2  0  0  0  0  0  0
  194.6920  175.1290  136.8830 C   0  0  0  0  0  0  0  0  0  0  0  0
  194.6880  174.0760  137.9580 C   0  0  0  0  0  2  0  0  0  0  0  0
  196.0310  174.0680  138.7040 C   0  0  0  0  0  2  0  0  0  0  0  0
  2 14  1  0  0  0  0
  2 15  1  0  0  0  0
  3 16  1  0  0  0  0
  3  6  1  0  0  0  0
  4  7  1  0  0  0  0
  4 18  1  1  0  0  0
  6 10  1  0  0  0  0
  7 17  1  6  0  0  0
  7  9  1  0  0  0  0
  8 12  1  0  0  0  0
  9  5  1  6  0  0  0
 10 27  1  6  0  0  0
 12 23  1  6  0  0  0
 13  8  2  0  0  0  0
 14  4  1  0  0  0  0
 14  1  1  1  0  0  0
 15 11  1  6  0  0  0
 15  9  1  0  0  0  0
 16 12  1  0  0  0  0
 17  8  1  0  0  0  0
 18 10  1  0  0  0  0
 20 19  1  0  0  0  0
 21 20  2  0  0  0  0
 22 24  1  0  0  0  0
 23 22  2  0  0  0  0
 23 21  1  0  0  0  0
 24 19  2  0  0  0  0
 24 26  1  0  0  0  0
 26 25  1  0  0  0  0
 27 28  1  0  0  0  0
 28 40  1  0  0  0  0
 28 37  1  0  0  0  0
 29 37  2  0  0  0  0
 29 35  1  0  0  0  0
 31 30  1  0  0  0  0
 32 34  1  0  0  0  0
 33 40  2  0  0  0  0
 33 39  1  0  0  0  0
 35 32  2  0  0  0  0
 36 34  2  0  0  0  0
 37 36  1  0  0  0  0
 38 36  1  0  0  0  0
 38 30  2  0  0  0  0
 39 31  2  0  0  0  0
 40 38  1  0  0  0  0
 41 18  1  0  0  0  0
 41 42  1  0  0  0  0
 43 42  1  0  0  0  0
 44 49  1  0  0  0  0
 44 43  1  0  0  0  0
 45 48  1  0  0  0  0
 45 49  2  0  0  0  0
 46 47  1  6  0  0  0
 46 51  1  0  0  0  0
 48 46  1  0  0  0  0
 49 50  1  0  0  0  0
 50 51  1  0  0  0  0
M  END
>  <MODEL>
7

>  <REMARK>
 VINA RESULT:      -5.0      3.415      6.303
  Name = 
  9 active torsions:
  status: ('A' for Active; 'I' for Inactive)
    1  A    between atoms: N_2  and  N_6
    2  A    between atoms: N_2  and  C_27
    3  A    between atoms: C_3  and  C_30
    4  A    between atoms: C_3  and  N_51
    5  A    between atoms: O_13  and  C_22
    6  A    between atoms: O_13  and  C_30
    7  A    between atoms: C_21  and  C_22
    8  A    between atoms: C_32  and  C_43
    9  A    between atoms: C_47  and  C_49
                            x       y       z     vdW  Elec       q    Type
                         _______ _______ _______ _____ _____    ______ ____

>  <TORSDO>
F 9

$$$$
=
 OpenBabel11062414583D

 51 57  0  0  1  0  0  0  0  0999 V2000
  188.1740  177.3430  139.6010 O   0  0  0  0  0  1  0  0  0  0  0  0
  188.1940  177.5240  137.2160 C   0  0  0  0  0  2  0  0  0  0  0  0
  183.7510  179.7600  138.4340 C   0  0  0  0  0  2  0  0  0  0  0  0
  186.1130  178.1460  138.5750 C   0  0  2  0  0  3  0  0  0  0  0  0
  185.6350  174.5750  137.0870 C   0  0  0  0  0  1  0  0  0  0  0  0
  183.4290  179.3930  139.7500 O   0  0  0  0  0  0  0  0  0  0  0  0
  185.4520  177.0080  137.7480 C   0  0  2  0  0  3  0  0  0  0  0  0
  183.8790  177.8520  136.0060 C   0  0  0  0  0  0  0  0  0  0  0  0
  186.3630  175.7810  137.6700 C   0  0  2  0  0  3  0  0  0  0  0  0
  184.1360  178.2250  140.1430 C   0  0  2  0  0  3  0  0  0  0  0  0
  187.5590  175.9250  135.5580 O   0  0  0  0  0  1  0  0  0  0  0  0
  182.7430  177.9920  136.9900 C   0  0  1  0  0  3  0  0  0  0  0  0
  183.7030  178.1420  134.7880 O   0  0  0  0  0  0  0  0  0  0  0  0
  187.6690  178.0930  138.5370 C   0  0  1  0  0  3  0  0  0  0  0  0
  187.6900  176.0910  136.9400 C   0  0  1  0  0  3  0  0  0  0  0  0
  182.6120  179.4240  137.4890 C   0  0  0  0  0  2  0  0  0  0  0  0
  185.1580  177.4680  136.4320 O   0  0  0  0  0  0  0  0  0  0  0  0
  185.6120  178.2290  139.9710 N   0  0  0  0  0  0  0  0  0  0  0  0
  178.9930  176.4150  135.5810 C   0  0  0  0  0  3  0  0  0  0  0  0
  179.0070  177.6030  136.3190 C   0  0  0  0  0  3  0  0  0  0  0  0
  180.2230  178.1330  136.7700 C   0  0  0  0  0  3  0  0  0  0  0  0
  181.4100  176.2970  135.7440 C   0  0  0  0  0  3  0  0  0  0  0  0
  181.4320  177.4850  136.4720 C   0  0  0  0  0  0  0  0  0  0  0  0
  180.1940  175.7590  135.2900 C   0  0  0  0  0  0  0  0  0  0  0  0
  178.9610  173.6380  135.0670 C   0  0  0  0  0  1  0  0  0  0  0  0
  180.1660  174.4400  134.5940 C   0  0  0  0  0  2  0  0  0  0  0  0
  183.5080  176.9840  139.7090 N   0  0  0  0  0  2  0  0  0  0  0  0
  182.1500  176.6790  139.9250 N   0  0  0  0  0  0  0  0  0  0  0  0
  182.0140  174.6210  138.5650 C   0  0  0  0  0  3  0  0  0  0  0  0
  178.9310  177.1340  141.2990 N   0  0  0  0  0  0  0  0  0  0  0  0
  179.0400  178.2690  142.0590 C   0  0  0  0  0  3  0  0  0  0  0  0
  179.7910  173.5850  138.5810 C   0  0  0  0  0  3  0  0  0  0  0  0
  181.3970  178.4940  141.4480 C   0  0  0  0  0  3  0  0  0  0  0  0
  179.2930  174.5930  139.4270 C   0  0  0  0  0  3  0  0  0  0  0  0
  181.1420  173.5980  138.1550 C   0  0  0  0  0  3  0  0  0  0  0  0
  180.1780  175.5910  139.8180 C   0  0  0  0  0  0  0  0  0  0  0  0
  181.4960  175.6180  139.4010 C   0  0  0  0  0  0  0  0  0  0  0  0
  180.0240  176.6940  140.6290 C   0  0  0  0  0  0  0  0  0  0  0  0
  180.2700  178.9640  142.1460 C   0  0  0  0  0  3  0  0  0  0  0  0
  181.2390  177.3410  140.6820 C   0  0  0  0  0  0  0  0  0  0  0  0
  186.1410  179.4380  140.6060 C   0  0  0  0  0  2  0  0  0  0  0  0
  185.9190  179.4000  142.1100 C   0  0  0  0  0  2  0  0  0  0  0  0
  186.3590  178.1840  142.6370 O   0  0  0  0  0  0  0  0  0  0  0  0
  185.7970  178.1230  143.9130 C   0  0  0  0  0  2  0  0  0  0  0  0
  188.1050  177.5240  144.5570 C   0  0  0  0  0  3  0  0  0  0  0  0
  188.8910  177.9120  146.8970 C   0  0  1  0  0  3  0  0  0  0  0  0
  189.5730  177.3090  147.9360 F   0  0  0  0  0  0  0  0  0  0  0  0
  189.1020  177.1090  145.6030 C   0  0  0  0  0  2  0  0  0  0  0  0
  186.8160  177.6580  144.9060 C   0  0  0  0  0  0  0  0  0  0  0  0
  186.4150  177.4220  146.3360 C   0  0  0  0  0  2  0  0  0  0  0  0
  187.4070  178.1060  147.2900 C   0  0  0  0  0  2  0  0  0  0  0  0
  2 14  1  0  0  0  0
  3  6  1  0  0  0  0
  4 18  1  1  0  0  0
  6 10  1  0  0  0  0
  7 17  1  6  0  0  0
  7  4  1  0  0  0  0
  8 17  1  0  0  0  0
  8 12  1  0  0  0  0
  9  5  1  6  0  0  0
  9  7  1  0  0  0  0
 10 27  1  6  0  0  0
 12 23  1  6  0  0  0
 12 16  1  0  0  0  0
 13  8  2  0  0  0  0
 14  4  1  0  0  0  0
 14  1  1  1  0  0  0
 15 11  1  6  0  0  0
 15  2  1  0  0  0  0
 15  9  1  0  0  0  0
 16  3  1  0  0  0  0
 18 10  1  0  0  0  0
 18 41  1  0  0  0  0
 19 20  1  0  0  0  0
 20 21  2  0  0  0  0
 22 23  2  0  0  0  0
 23 21  1  0  0  0  0
 24 19  2  0  0  0  0
 24 22  1  0  0  0  0
 26 25  1  0  0  0  0
 26 24  1  0  0  0  0
 27 28  1  0  0  0  0
 28 40  1  0  0  0  0
 29 37  1  0  0  0  0
 30 31  1  0  0  0  0
 31 39  2  0  0  0  0
 32 34  2  0  0  0  0
 33 39  1  0  0  0  0
 34 36  1  0  0  0  0
 35 29  2  0  0  0  0
 35 32  1  0  0  0  0
 36 38  1  0  0  0  0
 37 36  2  0  0  0  0
 37 28  1  0  0  0  0
 38 40  1  0  0  0  0
 38 30  2  0  0  0  0
 40 33  2  0  0  0  0
 41 42  1  0  0  0  0
 42 43  1  0  0  0  0
 43 44  1  0  0  0  0
 44 49  1  0  0  0  0
 45 49  2  0  0  0  0
 45 48  1  0  0  0  0
 46 51  1  0  0  0  0
 46 47  1  1  0  0  0
 48 46  1  0  0  0  0
 49 50  1  0  0  0  0
 50 51  1  0  0  0  0
M  END
>  <MODEL>
8

>  <REMARK>
 VINA RESULT:      -5.0      3.347      7.371
  Name = 
  9 active torsions:
  status: ('A' for Active; 'I' for Inactive)
    1  A    between atoms: N_2  and  N_6
    2  A    between atoms: N_2  and  C_27
    3  A    between atoms: C_3  and  C_30
    4  A    between atoms: C_3  and  N_51
    5  A    between atoms: O_13  and  C_22
    6  A    between atoms: O_13  and  C_30
    7  A    between atoms: C_21  and  C_22
    8  A    between atoms: C_32  and  C_43
    9  A    between atoms: C_47  and  C_49
                            x       y       z     vdW  Elec       q    Type
                         _______ _______ _______ _____ _____    ______ ____

>  <TORSDO>
F 9

$$$$
=
 OpenBabel11062414583D

 51 57  0  0  1  0  0  0  0  0999 V2000
  181.3800  176.1230  135.0690 O   0  0  0  0  0  1  0  0  0  0  0  0
  179.7070  175.3520  136.5950 C   0  0  0  0  0  2  0  0  0  0  0  0
  181.0310  179.8620  138.6280 C   0  0  0  0  0  2  0  0  0  0  0  0
  181.1050  177.4380  137.1050 C   0  0  2  0  0  3  0  0  0  0  0  0
  182.5710  174.4140  139.0800 C   0  0  0  0  0  1  0  0  0  0  0  0
  182.2560  180.2480  138.0620 O   0  0  0  0  0  0  0  0  0  0  0  0
  181.5630  176.6110  138.3370 C   0  0  2  0  0  3  0  0  0  0  0  0
  180.5850  177.4290  140.4820 C   0  0  0  0  0  0  0  0  0  0  0  0
  181.8830  175.1660  137.9470 C   0  0  2  0  0  3  0  0  0  0  0  0
  182.9330  179.1340  137.4980 C   0  0  2  0  0  3  0  0  0  0  0  0
  179.9000  173.8480  138.4400 O   0  0  0  0  0  1  0  0  0  0  0  0
  181.6310  178.5060  140.6360 C   0  0  1  0  0  3  0  0  0  0  0  0
  179.6890  177.2840  141.3610 O   0  0  0  0  0  0  0  0  0  0  0  0
  180.4390  176.5600  136.0030 C   0  0  1  0  0  3  0  0  0  0  0  0
  180.6390  174.4250  137.4040 C   0  0  1  0  0  3  0  0  0  0  0  0
  181.1190  179.8530  140.1440 C   0  0  0  0  0  2  0  0  0  0  0  0
  180.5470  176.6210  139.3370 O   0  0  0  0  0  0  0  0  0  0  0  0
  182.1790  178.2910  136.5340 N   0  0  0  0  0  0  0  0  0  0  0  0
  183.2720  178.9540  144.5910 C   0  0  0  0  0  3  0  0  0  0  0  0
  181.8860  178.9950  144.4120 C   0  0  0  0  0  3  0  0  0  0  0  0
  181.3400  178.8350  143.1320 C   0  0  0  0  0  3  0  0  0  0  0  0
  183.5590  178.5880  142.2110 C   0  0  0  0  0  3  0  0  0  0  0  0
  182.1780  178.6190  142.0260 C   0  0  0  0  0  0  0  0  0  0  0  0
  184.1130  178.7490  143.4920 C   0  0  0  0  0  0  0  0  0  0  0  0
  185.9900  178.0120  144.9060 C   0  0  0  0  0  1  0  0  0  0  0  0
  185.5930  178.8090  143.6720 C   0  0  0  0  0  2  0  0  0  0  0  0
  183.6970  178.3590  138.4680 N   0  0  0  0  0  2  0  0  0  0  0  0
  185.0130  177.9100  138.2460 N   0  0  0  0  0  0  0  0  0  0  0  0
  184.6770  176.8700  136.0300 C   0  0  0  0  0  3  0  0  0  0  0  0
  188.4330  177.4730  139.0010 N   0  0  0  0  0  0  0  0  0  0  0  0
  188.5930  178.0730  140.2230 C   0  0  0  0  0  3  0  0  0  0  0  0
  186.7220  175.8960  135.0890 C   0  0  0  0  0  3  0  0  0  0  0  0
  186.2250  178.6790  140.2750 C   0  0  0  0  0  3  0  0  0  0  0  0
  187.4650  176.2830  136.2190 C   0  0  0  0  0  3  0  0  0  0  0  0
  185.3390  176.1880  134.9940 C   0  0  0  0  0  3  0  0  0  0  0  0
  186.7840  176.9570  137.2270 C   0  0  0  0  0  0  0  0  0  0  0  0
  185.4330  177.2400  137.1480 C   0  0  0  0  0  0  0  0  0  0  0  0
  187.2020  177.4740  138.4340 C   0  0  0  0  0  0  0  0  0  0  0  0
  187.4970  178.6830  140.8770 C   0  0  0  0  0  3  0  0  0  0  0  0
  186.1060  178.0520  139.0370 C   0  0  0  0  0  0  0  0  0  0  0  0
  181.6090  179.1710  135.5110 C   0  0  0  0  0  2  0  0  0  0  0  0
  180.1790  179.5490  135.8600 C   0  0  0  0  0  2  0  0  0  0  0  0
  179.8030  180.7130  135.1860 O   0  0  0  0  0  0  0  0  0  0  0  0
  178.9350  181.3690  136.0610 C   0  0  0  0  0  2  0  0  0  0  0  0
  180.5360  183.2500  136.0960 C   0  0  0  0  0  3  0  0  0  0  0  0
  180.1340  185.2060  137.5990 C   0  0  1  0  0  3  0  0  0  0  0  0
  180.7640  186.0370  138.5040 F   0  0  0  0  0  0  0  0  0  0  0  0
  181.1840  184.3980  136.8180 C   0  0  0  0  0  2  0  0  0  0  0  0
  179.6480  182.4880  136.7530 C   0  0  0  0  0  0  0  0  0  0  0  0
  179.3040  182.8270  138.1790 C   0  0  0  0  0  2  0  0  0  0  0  0
  179.0810  184.3390  138.3310 C   0  0  0  0  0  2  0  0  0  0  0  0
  2 15  1  0  0  0  0
  3 16  1  0  0  0  0
  4 18  1  6  0  0  0
  4  7  1  0  0  0  0
  6  3  1  0  0  0  0
  7 17  1  1  0  0  0
  8 12  1  0  0  0  0
  8 13  2  0  0  0  0
  9  7  1  0  0  0  0
  9  5  1  1  0  0  0
 10  6  1  0  0  0  0
 10 27  1  1  0  0  0
 12 23  1  1  0  0  0
 14  1  1  6  0  0  0
 14  2  1  0  0  0  0
 14  4  1  0  0  0  0
 15  9  1  0  0  0  0
 15 11  1  1  0  0  0
 16 12  1  0  0  0  0
 17  8  1  0  0  0  0
 18 10  1  0  0  0  0
 20 19  1  0  0  0  0
 21 20  2  0  0  0  0
 22 24  1  0  0  0  0
 23 22  2  0  0  0  0
 23 21  1  0  0  0  0
 24 26  1  0  0  0  0
 24 19  2  0  0  0  0
 26 25  1  0  0  0  0
 28 27  1  0  0  0  0
 28 40  1  0  0  0  0
 29 37  1  0  0  0  0
 30 31  1  0  0  0  0
 31 39  2  0  0  0  0
 32 34  2  0  0  0  0
 33 39  1  0  0  0  0
 34 36  1  0  0  0  0
 35 32  1  0  0  0  0
 35 29  2  0  0  0  0
 36 38  1  0  0  0  0
 37 36  2  0  0  0  0
 37 28  1  0  0  0  0
 38 30  2  0  0  0  0
 38 40  1  0  0  0  0
 40 33  2  0  0  0  0
 41 42  1  0  0  0  0
 41 18  1  0  0  0  0
 43 42  1  0  0  0  0
 43 44  1  0  0  0  0
 44 49  1  0  0  0  0
 45 49  2  0  0  0  0
 45 48  1  0  0  0  0
 46 51  1  0  0  0  0
 46 47  1  1  0  0  0
 48 46  1  0  0  0  0
 49 50  1  0  0  0  0
 50 51  1  0  0  0  0
M  END
>  <MODEL>
9

>  <REMARK>
 VINA RESULT:      -4.8      2.961      7.247
  Name = 
  9 active torsions:
  status: ('A' for Active; 'I' for Inactive)
    1  A    between atoms: N_2  and  N_6
    2  A    between atoms: N_2  and  C_27
    3  A    between atoms: C_3  and  C_30
    4  A    between atoms: C_3  and  N_51
    5  A    between atoms: O_13  and  C_22
    6  A    between atoms: O_13  and  C_30
    7  A    between atoms: C_21  and  C_22
    8  A    between atoms: C_32  and  C_43
    9  A    between atoms: C_47  and  C_49
                            x       y       z     vdW  Elec       q    Type
                         _______ _______ _______ _____ _____    ______ ____

>  <TORSDO>
F 9

$$$$
