=
 OpenBabel11062414223D

 45 50  0  0  1  0  0  0  0  0999 V2000
  191.2860  175.5870  135.5300 C   0  0  1  0  0  3  0  0  0  0  0  0
  191.9680  172.8220  135.4360 C   0  0  2  0  0  3  0  0  0  0  0  0
  189.2000  176.6490  137.4210 C   0  0  1  0  0  0  0  0  0  0  0  0
  189.4930  172.8040  135.3630 C   0  0  0  0  0  1  0  0  0  0  0  0
  193.1440  173.7860  135.6570 C   0  0  1  0  0  3  0  0  0  0  0  0
  189.2640  175.1570  137.0330 C   0  0  0  0  0  2  0  0  0  0  0  0
  191.2250  177.0560  135.9310 C   0  0  0  0  0  2  0  0  0  0  0  0
  192.7540  175.2210  135.2640 C   0  0  0  0  0  2  0  0  0  0  0  0
  189.7930  177.4750  136.2620 C   0  0  0  0  0  2  0  0  0  0  0  0
  190.6660  174.6920  136.6160 C   0  0  1  0  0  3  0  0  0  0  0  0
  190.6970  173.2020  136.2090 C   0  0  2  0  0  3  0  0  0  0  0  0
  192.3330  171.4990  135.7080 O   0  0  0  0  0  1  0  0  0  0  0  0
  186.7200  175.9310  137.4600 C   0  0  0  0  0  2  0  0  0  0  0  0
  186.1340  177.6000  135.8220 C   0  0  0  0  0  2  0  0  0  0  0  0
  187.7170  177.0770  137.6320 C   0  0  2  0  0  3  0  0  0  0  0  0
  187.2670  178.1690  136.6580 C   0  0  0  0  0  2  0  0  0  0  0  0
  186.1510  176.1100  136.0700 C   0  0  2  0  0  3  0  0  0  0  0  0
  184.7730  175.4770  135.9040 C   0  0  0  0  0  2  0  0  0  0  0  0
  183.9120  175.8030  136.9820 O   0  0  0  0  0  0  0  0  0  0  0  0
  180.3260  180.6180  138.0830 C   0  0  0  0  0  1  0  0  0  0  0  0
  183.8140  179.3610  139.0450 C   0  0  0  0  0  0  0  0  0  0  0  0
  181.4000  179.6040  138.3970 C   0  0  2  0  0  3  0  0  0  0  0  0
  182.8120  177.8090  137.4310 C   0  0  0  0  0  0  0  0  0  0  0  0
  182.6760  180.3240  138.8400 C   0  0  0  0  0  2  0  0  0  0  0  0
  184.8330  179.6930  139.9220 O   0  0  0  0  0  1  0  0  0  0  0  0
  181.6700  178.7430  137.1700 C   0  0  0  0  0  2  0  0  0  0  0  0
  183.8810  178.2100  138.3710 C   0  0  0  0  0  3  0  0  0  0  0  0
  182.8660  176.6800  136.8010 N   0  0  0  0  0  0  0  0  0  0  0  0
  190.0380  176.8920  138.7030 C   0  0  2  0  0  3  0  0  0  0  0  0
  190.6730  175.7410  139.1780 O   0  0  0  0  0  1  0  0  0  0  0  0
  189.3120  177.6790  139.8050 C   0  0  0  0  0  2  0  0  0  0  0  0
  189.6920  177.8650  142.2200 C   0  0  0  0  0  2  0  0  0  0  0  0
  188.1980  177.6480  142.0490 C   0  0  1  0  0  3  0  0  0  0  0  0
  189.1880  176.9420  141.1330 C   0  0  1  0  0  3  0  0  0  0  0  0
  187.7320  176.7660  143.2120 C   0  0  0  0  0  2  0  0  0  0  0  0
  186.8590  177.4860  144.2000 C   0  0  0  0  0  0  0  0  0  0  0  0
  184.8140  178.6850  144.7290 C   0  0  0  0  0  3  0  0  0  0  0  0
  185.6240  178.0260  143.7980 C   0  0  0  0  0  0  0  0  0  0  0  0
  185.2100  177.9190  142.5110 F   0  0  0  0  0  0  0  0  0  0  0  0
  187.2730  177.6130  145.5310 C   0  0  0  0  0  3  0  0  0  0  0  0
  186.4620  178.2720  146.4590 C   0  0  0  0  0  3  0  0  0  0  0  0
  185.2310  178.8080  146.0590 C   0  0  0  0  0  3  0  0  0  0  0  0
  193.6680  173.7580  137.0940 C   0  0  0  0  0  2  0  0  0  0  0  0
  194.5880  174.9390  137.3650 C   0  0  0  0  0  2  0  0  0  0  0  0
  194.0040  175.7870  138.3050 O   0  0  0  0  0  1  0  0  0  0  0  0
  1  8  1  1  0  0  0
  1  7  1  0  0  0  0
  1 10  1  0  0  0  0
  2  5  1  0  0  0  0
  2 12  1  1  0  0  0
  2 11  1  0  0  0  0
  3 15  1  0  0  0  0
  3 29  1  1  0  0  0
  5 43  1  1  0  0  0
  6  3  1  0  0  0  0
  7  9  1  0  0  0  0
  8  5  1  0  0  0  0
  9  3  1  0  0  0  0
 10  6  1  6  0  0  0
 11  4  1  6  0  0  0
 11 10  1  0  0  0  0
 13 15  1  0  0  0  0
 14 17  1  0  0  0  0
 14 16  1  0  0  0  0
 15 16  1  6  0  0  0
 17 18  1  1  0  0  0
 17 13  1  0  0  0  0
 18 19  1  0  0  0  0
 21 25  1  0  0  0  0
 22 20  1  6  0  0  0
 22 24  1  0  0  0  0
 23 27  1  0  0  0  0
 24 21  1  0  0  0  0
 26 23  1  0  0  0  0
 26 22  1  0  0  0  0
 27 21  2  0  0  0  0
 28 19  1  0  0  0  0
 28 23  2  0  0  0  0
 29 30  1  1  0  0  0
 29 31  1  0  0  0  0
 33 32  1  0  0  0  0
 33 35  1  1  0  0  0
 34 31  1  6  0  0  0
 34 33  1  0  0  0  0
 34 32  1  0  0  0  0
 35 36  1  0  0  0  0
 36 40  1  0  0  0  0
 37 42  2  0  0  0  0
 38 36  2  0  0  0  0
 38 37  1  0  0  0  0
 39 38  1  0  0  0  0
 40 41  2  0  0  0  0
 42 41  1  0  0  0  0
 43 44  1  0  0  0  0
 44 45  1  0  0  0  0
M  END
>  <MODEL>
1

>  <REMARK>
 VINA RESULT:      -7.9      0.000      0.000
  Name = 
  11 active torsions:
  status: ('A' for Active; 'I' for Inactive)
    1  A    between atoms: C_3  and  C_8
    2  A    between atoms: C_3  and  C_23
    3  A    between atoms: C_4  and  C_7
    4  A    between atoms: C_6  and  C_8
    5  A    between atoms: C_6  and  C_28
    6  A    between atoms: C_7  and  C_25
    7  A    between atoms: O_10  and  C_31
    8  A    between atoms: O_10  and  N_43
    9  A    between atoms: C_15  and  C_26
   10  A    between atoms: C_16  and  C_26
   11  A    between atoms: C_29  and  C_31
                            x       y       z     vdW  Elec       q    Type
                         _______ _______ _______ _____ _____    ______ ____

>  <TORSDO>
F 11

$$$$
=
 OpenBabel11062414223D

 45 50  0  0  1  0  0  0  0  0999 V2000
  183.9830  176.2780  138.1650 C   0  0  1  0  0  3  0  0  0  0  0  0
  185.5800  176.3090  135.8040 C   0  0  2  0  0  3  0  0  0  0  0  0
  183.8640  178.6300  140.0380 C   0  0  1  0  0  0  0  0  0  0  0  0
  187.1300  177.1210  137.5560 C   0  0  0  0  0  1  0  0  0  0  0  0
  184.0960  175.9720  135.5940 C   0  0  1  0  0  3  0  0  0  0  0  0
  185.0250  178.4410  139.0390 C   0  0  0  0  0  2  0  0  0  0  0  0
  182.8320  176.4790  139.1440 C   0  0  0  0  0  2  0  0  0  0  0  0
  183.4370  175.5590  136.9210 C   0  0  0  0  0  2  0  0  0  0  0  0
  183.2970  177.2380  140.3860 C   0  0  0  0  0  2  0  0  0  0  0  0
  184.6400  177.6200  137.8010 C   0  0  1  0  0  3  0  0  0  0  0  0
  185.8260  177.4260  136.8300 C   0  0  2  0  0  3  0  0  0  0  0  0
  186.2140  176.6040  134.5940 O   0  0  0  0  0  1  0  0  0  0  0  0
  185.8570  178.9700  141.6440 C   0  0  0  0  0  2  0  0  0  0  0  0
  184.5790  178.1620  143.5210 C   0  0  0  0  0  2  0  0  0  0  0  0
  184.3930  179.2940  141.3440 C   0  0  2  0  0  3  0  0  0  0  0  0
  183.6100  178.8690  142.5890 C   0  0  0  0  0  2  0  0  0  0  0  0
  185.8120  177.8840  142.6960 C   0  0  2  0  0  3  0  0  0  0  0  0
  187.0780  177.8230  143.5440 C   0  0  0  0  0  2  0  0  0  0  0  0
  186.8240  178.1740  144.8940 O   0  0  0  0  0  0  0  0  0  0  0  0
  191.8530  175.9930  147.5770 C   0  0  0  0  0  1  0  0  0  0  0  0
  190.8980  177.8950  144.3930 C   0  0  0  0  0  0  0  0  0  0  0  0
  190.9860  176.4040  146.4120 C   0  0  2  0  0  3  0  0  0  0  0  0
  188.8980  177.5830  145.7790 C   0  0  0  0  0  0  0  0  0  0  0  0
  191.7620  177.3600  145.5030 C   0  0  0  0  0  2  0  0  0  0  0  0
  191.4910  178.3070  143.2100 O   0  0  0  0  0  1  0  0  0  0  0  0
  189.7150  177.0680  146.9240 C   0  0  0  0  0  2  0  0  0  0  0  0
  189.5770  178.0170  144.5380 C   0  0  0  0  0  3  0  0  0  0  0  0
  187.6130  177.6760  145.9050 N   0  0  0  0  0  0  0  0  0  0  0  0
  182.7480  179.4880  139.3890 C   0  0  2  0  0  3  0  0  0  0  0  0
  183.2160  180.6880  138.8450 O   0  0  0  0  0  1  0  0  0  0  0  0
  181.4910  179.6670  140.2530 C   0  0  0  0  0  2  0  0  0  0  0  0
  179.2180  180.5580  140.4800 C   0  0  0  0  0  2  0  0  0  0  0  0
  179.9760  181.5640  139.6310 C   0  0  1  0  0  3  0  0  0  0  0  0
  180.2430  180.0720  139.4790 C   0  0  1  0  0  3  0  0  0  0  0  0
  178.9970  182.1020  138.5820 C   0  0  0  0  0  2  0  0  0  0  0  0
  179.6230  183.0680  137.6170 C   0  0  0  0  0  0  0  0  0  0  0  0
  180.8690  183.5060  135.5780 C   0  0  0  0  0  3  0  0  0  0  0  0
  180.2990  182.5970  136.4760 C   0  0  0  0  0  0  0  0  0  0  0  0
  180.4100  181.2670  136.2390 F   0  0  0  0  0  0  0  0  0  0  0  0
  179.5260  184.4450  137.8480 C   0  0  0  0  0  3  0  0  0  0  0  0
  180.0960  185.3500  136.9500 C   0  0  0  0  0  3  0  0  0  0  0  0
  180.7670  184.8810  135.8120 C   0  0  0  0  0  3  0  0  0  0  0  0
  183.3140  177.1210  134.9540 C   0  0  0  0  0  2  0  0  0  0  0  0
  181.8200  176.9740  135.2020 C   0  0  0  0  0  2  0  0  0  0  0  0
  181.3110  178.1560  135.7360 O   0  0  0  0  0  1  0  0  0  0  0  0
  1  8  1  6  0  0  0
  1  7  1  0  0  0  0
  2 12  1  6  0  0  0
  2 11  1  0  0  0  0
  3 29  1  6  0  0  0
  3  9  1  0  0  0  0
  3 15  1  0  0  0  0
  5 43  1  1  0  0  0
  5  2  1  0  0  0  0
  5  8  1  0  0  0  0
  6  3  1  0  0  0  0
  7  9  1  0  0  0  0
 10  1  1  0  0  0  0
 10  6  1  1  0  0  0
 11  4  1  1  0  0  0
 11 10  1  0  0  0  0
 13 17  1  0  0  0  0
 15 13  1  1  0  0  0
 15 16  1  0  0  0  0
 16 14  1  0  0  0  0
 17 14  1  0  0  0  0
 17 18  1  1  0  0  0
 18 19  1  0  0  0  0
 19 28  1  0  0  0  0
 21 27  2  0  0  0  0
 21 24  1  0  0  0  0
 22 26  1  0  0  0  0
 22 20  1  1  0  0  0
 23 28  2  0  0  0  0
 23 26  1  0  0  0  0
 24 22  1  0  0  0  0
 25 21  1  0  0  0  0
 27 23  1  0  0  0  0
 29 30  1  1  0  0  0
 29 31  1  0  0  0  0
 33 35  1  6  0  0  0
 33 32  1  0  0  0  0
 34 33  1  0  0  0  0
 34 31  1  1  0  0  0
 34 32  1  0  0  0  0
 36 40  1  0  0  0  0
 36 35  1  0  0  0  0
 37 42  2  0  0  0  0
 37 38  1  0  0  0  0
 38 36  2  0  0  0  0
 39 38  1  0  0  0  0
 41 40  2  0  0  0  0
 42 41  1  0  0  0  0
 43 44  1  0  0  0  0
 44 45  1  0  0  0  0
M  END
>  <MODEL>
2

>  <REMARK>
 VINA RESULT:      -7.6      4.224      9.676
  Name = 
  11 active torsions:
  status: ('A' for Active; 'I' for Inactive)
    1  A    between atoms: C_3  and  C_8
    2  A    between atoms: C_3  and  C_23
    3  A    between atoms: C_4  and  C_7
    4  A    between atoms: C_6  and  C_8
    5  A    between atoms: C_6  and  C_28
    6  A    between atoms: C_7  and  C_25
    7  A    between atoms: O_10  and  C_31
    8  A    between atoms: O_10  and  N_43
    9  A    between atoms: C_15  and  C_26
   10  A    between atoms: C_16  and  C_26
   11  A    between atoms: C_29  and  C_31
                            x       y       z     vdW  Elec       q    Type
                         _______ _______ _______ _____ _____    ______ ____

>  <TORSDO>
F 11

$$$$
=
 OpenBabel11062414223D

 45 50  0  0  1  0  0  0  0  0999 V2000
  179.4020  176.9050  138.0700 C   0  0  1  0  0  3  0  0  0  0  0  0
  180.0900  174.1460  137.8710 C   0  0  2  0  0  3  0  0  0  0  0  0
  180.3170  178.6120  140.3730 C   0  0  1  0  0  0  0  0  0  0  0  0
  179.2830  174.3690  140.2020 C   0  0  0  0  0  1  0  0  0  0  0  0
  180.4510  175.0070  136.6510 C   0  0  1  0  0  3  0  0  0  0  0  0
  180.2820  177.0720  140.4630 C   0  0  0  0  0  2  0  0  0  0  0  0
  179.4530  178.4250  137.9830 C   0  0  0  0  0  2  0  0  0  0  0  0
  179.6710  176.3330  136.6690 C   0  0  0  0  0  2  0  0  0  0  0  0
  179.2450  179.0590  139.3580 C   0  0  0  0  0  2  0  0  0  0  0  0
  180.4120  176.3750  139.1020 C   0  0  1  0  0  3  0  0  0  0  0  0
  180.3500  174.8360  139.2190 C   0  0  2  0  0  3  0  0  0  0  0  0
  180.7270  172.9010  137.8250 O   0  0  0  0  0  1  0  0  0  0  0  0
  181.2070  179.7420  142.5170 C   0  0  0  0  0  2  0  0  0  0  0  0
  180.1960  178.0590  143.9140 C   0  0  0  0  0  2  0  0  0  0  0  0
  179.9790  179.2310  141.7610 C   0  0  2  0  0  3  0  0  0  0  0  0
  179.2930  178.2410  142.7060 C   0  0  0  0  0  2  0  0  0  0  0  0
  181.5250  178.6630  143.5270 C   0  0  2  0  0  3  0  0  0  0  0  0
  182.3000  179.1850  144.7330 C   0  0  0  0  0  2  0  0  0  0  0  0
  183.6490  178.7490  144.7190 O   0  0  0  0  0  0  0  0  0  0  0  0
  188.4490  177.9020  148.3910 C   0  0  0  0  0  1  0  0  0  0  0  0
  187.4930  177.2830  144.7340 C   0  0  0  0  0  0  0  0  0  0  0  0
  187.5400  177.5940  147.2260 C   0  0  2  0  0  3  0  0  0  0  0  0
  185.6610  178.4640  145.8610 C   0  0  0  0  0  0  0  0  0  0  0  0
  188.3680  177.4660  145.9450 C   0  0  0  0  0  2  0  0  0  0  0  0
  188.0010  176.6310  143.6230 O   0  0  0  0  0  1  0  0  0  0  0  0
  186.4990  178.6960  147.0810 C   0  0  0  0  0  2  0  0  0  0  0  0
  186.2500  177.7690  144.6960 C   0  0  0  0  0  3  0  0  0  0  0  0
  184.4460  178.9090  145.8290 N   0  0  0  0  0  0  0  0  0  0  0  0
  181.7120  179.0760  139.8800 C   0  0  2  0  0  3  0  0  0  0  0  0
  181.6540  180.1360  138.9700 O   0  0  0  0  0  1  0  0  0  0  0  0
  182.6430  177.9420  139.4270 C   0  0  0  0  0  2  0  0  0  0  0  0
  184.9170  178.6690  138.8680 C   0  0  0  0  0  2  0  0  0  0  0  0
  184.7310  177.3230  138.1880 C   0  0  1  0  0  3  0  0  0  0  0  0
  183.5730  178.3070  138.2760 C   0  0  1  0  0  3  0  0  0  0  0  0
  185.4650  177.3890  136.8440 C   0  0  0  0  0  2  0  0  0  0  0  0
  186.9600  177.4280  136.9770 C   0  0  0  0  0  0  0  0  0  0  0  0
  189.0690  176.3120  137.4360 C   0  0  0  0  0  3  0  0  0  0  0  0
  187.6750  176.2670  137.3250 C   0  0  0  0  0  0  0  0  0  0  0  0
  187.0250  175.1000  137.5590 F   0  0  0  0  0  0  0  0  0  0  0  0
  187.6490  178.6250  136.7470 C   0  0  0  0  0  3  0  0  0  0  0  0
  189.0410  178.6670  136.8580 C   0  0  0  0  0  3  0  0  0  0  0  0
  189.7530  177.5100  137.2020 C   0  0  0  0  0  3  0  0  0  0  0  0
  181.9510  175.2810  136.5440 C   0  0  0  0  0  2  0  0  0  0  0  0
  182.4920  174.8570  135.1860 C   0  0  0  0  0  2  0  0  0  0  0  0
  182.6790  173.4750  135.1640 O   0  0  0  0  0  1  0  0  0  0  0  0
  1  8  1  6  0  0  0
  1 10  1  0  0  0  0
  2 12  1  1  0  0  0
  2 11  1  0  0  0  0
  3 29  1  6  0  0  0
  3  6  1  0  0  0  0
  3 15  1  0  0  0  0
  5 43  1  1  0  0  0
  5  8  1  0  0  0  0
  5  2  1  0  0  0  0
  7  1  1  0  0  0  0
  7  9  1  0  0  0  0
  9  3  1  0  0  0  0
 10 11  1  0  0  0  0
 10  6  1  1  0  0  0
 11  4  1  1  0  0  0
 13 17  1  0  0  0  0
 15 13  1  1  0  0  0
 15 16  1  0  0  0  0
 16 14  1  0  0  0  0
 17 14  1  0  0  0  0
 17 18  1  1  0  0  0
 19 18  1  0  0  0  0
 19 28  1  0  0  0  0
 21 24  1  0  0  0  0
 22 20  1  1  0  0  0
 23 26  1  0  0  0  0
 24 22  1  0  0  0  0
 25 21  1  0  0  0  0
 26 22  1  0  0  0  0
 27 21  2  0  0  0  0
 27 23  1  0  0  0  0
 28 23  2  0  0  0  0
 29 30  1  6  0  0  0
 31 29  1  0  0  0  0
 33 35  1  6  0  0  0
 33 34  1  0  0  0  0
 33 32  1  0  0  0  0
 34 32  1  0  0  0  0
 34 31  1  1  0  0  0
 35 36  1  0  0  0  0
 36 38  1  0  0  0  0
 38 37  2  0  0  0  0
 38 39  1  0  0  0  0
 40 41  1  0  0  0  0
 40 36  2  0  0  0  0
 41 42  2  0  0  0  0
 42 37  1  0  0  0  0
 44 43  1  0  0  0  0
 45 44  1  0  0  0  0
M  END
>  <MODEL>
3

>  <REMARK>
 VINA RESULT:      -7.3      3.644      9.781
  Name = 
  11 active torsions:
  status: ('A' for Active; 'I' for Inactive)
    1  A    between atoms: C_3  and  C_8
    2  A    between atoms: C_3  and  C_23
    3  A    between atoms: C_4  and  C_7
    4  A    between atoms: C_6  and  C_8
    5  A    between atoms: C_6  and  C_28
    6  A    between atoms: C_7  and  C_25
    7  A    between atoms: O_10  and  C_31
    8  A    between atoms: O_10  and  N_43
    9  A    between atoms: C_15  and  C_26
   10  A    between atoms: C_16  and  C_26
   11  A    between atoms: C_29  and  C_31
                            x       y       z     vdW  Elec       q    Type
                         _______ _______ _______ _____ _____    ______ ____

>  <TORSDO>
F 11

$$$$
=
 OpenBabel11062414223D

 45 50  0  0  1  0  0  0  0  0999 V2000
  184.2790  176.2870  138.1380 C   0  0  1  0  0  3  0  0  0  0  0  0
  186.1540  176.3190  135.9910 C   0  0  2  0  0  3  0  0  0  0  0  0
  183.9090  178.6500  139.9640 C   0  0  1  0  0  0  0  0  0  0  0  0
  187.4700  177.1590  137.9140 C   0  0  0  0  0  1  0  0  0  0  0  0
  184.7110  175.9650  135.6030 C   0  0  1  0  0  3  0  0  0  0  0  0
  185.1850  178.4670  139.1160 C   0  0  0  0  0  2  0  0  0  0  0  0
  183.0150  176.4820  138.9660 C   0  0  0  0  0  2  0  0  0  0  0  0
  183.8970  175.5540  136.8420 C   0  0  0  0  0  2  0  0  0  0  0  0
  183.3160  177.2540  140.2500 C   0  0  0  0  0  2  0  0  0  0  0  0
  184.9630  177.6330  137.8470 C   0  0  1  0  0  3  0  0  0  0  0  0
  186.2620  177.4450  137.0300 C   0  0  2  0  0  3  0  0  0  0  0  0
  186.9300  176.6130  134.8650 O   0  0  0  0  0  1  0  0  0  0  0  0
  185.6880  179.0300  141.7950 C   0  0  0  0  0  2  0  0  0  0  0  0
  184.2070  178.2100  143.5100 C   0  0  0  0  0  2  0  0  0  0  0  0
  184.2660  179.3280  141.3190 C   0  0  2  0  0  3  0  0  0  0  0  0
  183.3460  178.8970  142.4640 C   0  0  0  0  0  2  0  0  0  0  0  0
  185.5340  177.9480  142.8400 C   0  0  2  0  0  3  0  0  0  0  0  0
  186.6900  177.9110  143.8340 C   0  0  0  0  0  2  0  0  0  0  0  0
  187.4130  176.6940  143.7540 O   0  0  0  0  0  0  0  0  0  0  0  0
  191.8810  176.9700  139.6050 C   0  0  0  0  0  1  0  0  0  0  0  0
  191.2370  178.1100  143.2050 C   0  0  0  0  0  0  0  0  0  0  0  0
  191.0730  177.4480  140.7880 C   0  0  2  0  0  3  0  0  0  0  0  0
  189.3200  176.7960  142.4170 C   0  0  0  0  0  0  0  0  0  0  0  0
  192.0060  177.7500  141.9620 C   0  0  0  0  0  2  0  0  0  0  0  0
  191.8350  178.9100  144.1650 O   0  0  0  0  0  1  0  0  0  0  0  0
  190.0520  176.3860  141.1760 C   0  0  0  0  0  2  0  0  0  0  0  0
  190.0030  177.6460  143.4170 C   0  0  0  0  0  3  0  0  0  0  0  0
  188.1140  176.3710  142.6150 N   0  0  0  0  0  0  0  0  0  0  0  0
  182.8730  179.4920  139.1750 C   0  0  2  0  0  3  0  0  0  0  0  0
  183.3140  180.7860  138.8860 O   0  0  0  0  0  1  0  0  0  0  0  0
  181.4470  179.4540  139.7460 C   0  0  0  0  0  2  0  0  0  0  0  0
  179.0440  179.8670  139.4860 C   0  0  0  0  0  2  0  0  0  0  0  0
  179.7370  181.1280  139.0010 C   0  0  1  0  0  3  0  0  0  0  0  0
  180.3510  179.7600  138.7320 C   0  0  1  0  0  3  0  0  0  0  0  0
  178.9310  181.6610  137.8120 C   0  0  0  0  0  2  0  0  0  0  0  0
  179.6250  182.7590  137.0580 C   0  0  0  0  0  0  0  0  0  0  0  0
  180.8140  183.5430  135.0910 C   0  0  0  0  0  3  0  0  0  0  0  0
  180.1790  182.5110  135.7890 C   0  0  0  0  0  0  0  0  0  0  0  0
  180.1080  181.2760  135.2330 F   0  0  0  0  0  0  0  0  0  0  0  0
  179.7160  184.0380  137.6180 C   0  0  0  0  0  3  0  0  0  0  0  0
  180.3510  185.0680  136.9190 C   0  0  0  0  0  3  0  0  0  0  0  0
  180.9000  184.8210  135.6540 C   0  0  0  0  0  3  0  0  0  0  0  0
  184.0020  177.1010  134.8630 C   0  0  0  0  0  2  0  0  0  0  0  0
  182.4940  177.0200  135.0470 C   0  0  0  0  0  2  0  0  0  0  0  0
  182.0020  178.2600  135.4520 O   0  0  0  0  0  1  0  0  0  0  0  0
  1  8  1  6  0  0  0
  1  7  1  0  0  0  0
  2 12  1  6  0  0  0
  2 11  1  0  0  0  0
  3 29  1  6  0  0  0
  3  9  1  0  0  0  0
  3 15  1  0  0  0  0
  5 43  1  1  0  0  0
  5  2  1  0  0  0  0
  5  8  1  0  0  0  0
  6  3  1  0  0  0  0
  7  9  1  0  0  0  0
 10  1  1  0  0  0  0
 10  6  1  1  0  0  0
 11 10  1  0  0  0  0
 11  4  1  1  0  0  0
 13 17  1  0  0  0  0
 15 13  1  1  0  0  0
 15 16  1  0  0  0  0
 16 14  1  0  0  0  0
 17 14  1  0  0  0  0
 17 18  1  1  0  0  0
 19 18  1  0  0  0  0
 21 27  2  0  0  0  0
 21 25  1  0  0  0  0
 22 20  1  6  0  0  0
 22 26  1  0  0  0  0
 22 24  1  0  0  0  0
 23 28  2  0  0  0  0
 23 27  1  0  0  0  0
 24 21  1  0  0  0  0
 26 23  1  0  0  0  0
 28 19  1  0  0  0  0
 29 30  1  1  0  0  0
 29 31  1  0  0  0  0
 33 35  1  6  0  0  0
 33 32  1  0  0  0  0
 34 33  1  0  0  0  0
 34 32  1  0  0  0  0
 34 31  1  1  0  0  0
 36 40  1  0  0  0  0
 36 35  1  0  0  0  0
 37 42  2  0  0  0  0
 37 38  1  0  0  0  0
 38 36  2  0  0  0  0
 39 38  1  0  0  0  0
 41 40  2  0  0  0  0
 42 41  1  0  0  0  0
 43 44  1  0  0  0  0
 44 45  1  0  0  0  0
M  END
>  <MODEL>
4

>  <REMARK>
 VINA RESULT:      -7.1      3.664      9.192
  Name = 
  11 active torsions:
  status: ('A' for Active; 'I' for Inactive)
    1  A    between atoms: C_3  and  C_8
    2  A    between atoms: C_3  and  C_23
    3  A    between atoms: C_4  and  C_7
    4  A    between atoms: C_6  and  C_8
    5  A    between atoms: C_6  and  C_28
    6  A    between atoms: C_7  and  C_25
    7  A    between atoms: O_10  and  C_31
    8  A    between atoms: O_10  and  N_43
    9  A    between atoms: C_15  and  C_26
   10  A    between atoms: C_16  and  C_26
   11  A    between atoms: C_29  and  C_31
                            x       y       z     vdW  Elec       q    Type
                         _______ _______ _______ _____ _____    ______ ____

>  <TORSDO>
F 11

$$$$
=
 OpenBabel11062414223D

 45 50  0  0  1  0  0  0  0  0999 V2000
  182.0660  176.7040  137.8780 C   0  0  1  0  0  3  0  0  0  0  0  0
  179.9070  177.9630  136.5090 C   0  0  2  0  0  3  0  0  0  0  0  0
  184.7950  177.9600  138.0440 C   0  0  1  0  0  0  0  0  0  0  0  0
  181.7740  178.1070  134.8890 C   0  0  0  0  0  1  0  0  0  0  0  0
  179.6270  177.5740  137.9680 C   0  0  1  0  0  3  0  0  0  0  0  0
  183.7720  178.3740  136.9650 C   0  0  0  0  0  2  0  0  0  0  0  0
  183.0770  176.3120  138.9490 C   0  0  0  0  0  2  0  0  0  0  0  0
  180.6550  176.5430  138.4640 C   0  0  0  0  0  2  0  0  0  0  0  0
  184.5080  176.4990  138.4470 C   0  0  0  0  0  2  0  0  0  0  0  0
  182.3140  178.1380  137.3830 C   0  0  1  0  0  3  0  0  0  0  0  0
  181.3120  178.5380  136.2750 C   0  0  2  0  0  3  0  0  0  0  0  0
  178.9310  178.8350  136.0160 O   0  0  0  0  0  1  0  0  0  0  0  0
  186.5820  176.8950  136.5150 C   0  0  0  0  0  2  0  0  0  0  0  0
  188.1730  176.7880  138.3220 C   0  0  0  0  0  2  0  0  0  0  0  0
  186.2380  178.0440  137.4640 C   0  0  2  0  0  3  0  0  0  0  0  0
  187.3200  178.0240  138.5480 C   0  0  0  0  0  2  0  0  0  0  0  0
  187.4050  175.9330  137.3430 C   0  0  2  0  0  3  0  0  0  0  0  0
  188.3190  175.0510  136.4990 C   0  0  0  0  0  2  0  0  0  0  0  0
  189.3950  174.5280  137.2610 O   0  0  0  0  0  0  0  0  0  0  0  0
  194.9760  172.9970  135.3250 C   0  0  0  0  0  1  0  0  0  0  0  0
  193.3690  175.4550  137.7830 C   0  0  0  0  0  0  0  0  0  0  0  0
  193.9180  173.9260  135.8680 C   0  0  2  0  0  3  0  0  0  0  0  0
  191.6270  174.0260  136.8120 C   0  0  0  0  0  0  0  0  0  0  0  0
  194.4340  174.6130  137.1340 C   0  0  0  0  0  2  0  0  0  0  0  0
  193.7420  176.5340  138.5670 O   0  0  0  0  0  1  0  0  0  0  0  0
  192.6480  173.1400  136.1660 C   0  0  0  0  0  2  0  0  0  0  0  0
  192.0740  175.1620  137.6470 C   0  0  0  0  0  3  0  0  0  0  0  0
  190.3690  173.7630  136.6610 N   0  0  0  0  0  0  0  0  0  0  0  0
  184.6420  178.8730  139.2880 C   0  0  2  0  0  3  0  0  0  0  0  0
  184.5750  180.2330  138.9740 O   0  0  0  0  0  1  0  0  0  0  0  0
  185.6180  178.5650  140.4340 C   0  0  0  0  0  2  0  0  0  0  0  0
  183.9960  178.2600  142.2480 C   0  0  0  0  0  2  0  0  0  0  0  0
  185.3620  178.0190  142.8660 C   0  0  1  0  0  3  0  0  0  0  0  0
  185.1790  179.0870  141.7970 C   0  0  1  0  0  3  0  0  0  0  0  0
  185.3240  178.5900  144.2880 C   0  0  0  0  0  2  0  0  0  0  0  0
  186.4970  178.1810  145.1310 C   0  0  0  0  0  0  0  0  0  0  0  0
  187.5320  177.8930  147.3100 C   0  0  0  0  0  3  0  0  0  0  0  0
  186.4370  178.2860  146.5330 C   0  0  0  0  0  0  0  0  0  0  0  0
  185.3270  178.7710  147.1430 F   0  0  0  0  0  0  0  0  0  0  0  0
  187.6550  177.6860  144.5210 C   0  0  0  0  0  3  0  0  0  0  0  0
  188.7480  177.2940  145.2990 C   0  0  0  0  0  3  0  0  0  0  0  0
  188.6860  177.3960  146.6950 C   0  0  0  0  0  3  0  0  0  0  0  0
  179.5990  178.7810  138.9070 C   0  0  0  0  0  2  0  0  0  0  0  0
  179.4660  178.3450  140.3590 C   0  0  0  0  0  2  0  0  0  0  0  0
  180.0120  179.3170  141.1950 O   0  0  0  0  0  1  0  0  0  0  0  0
  1  8  1  1  0  0  0
  1  7  1  0  0  0  0
  2 12  1  1  0  0  0
  2  5  1  0  0  0  0
  3  9  1  0  0  0  0
  3 29  1  1  0  0  0
  5  8  1  0  0  0  0
  5 43  1  1  0  0  0
  6  3  1  0  0  0  0
  9  7  1  0  0  0  0
 10  6  1  6  0  0  0
 10  1  1  0  0  0  0
 11  4  1  6  0  0  0
 11  2  1  0  0  0  0
 11 10  1  0  0  0  0
 13 17  1  0  0  0  0
 14 16  1  0  0  0  0
 15 13  1  6  0  0  0
 15  3  1  0  0  0  0
 15 16  1  0  0  0  0
 17 18  1  6  0  0  0
 17 14  1  0  0  0  0
 18 19  1  0  0  0  0
 21 25  1  0  0  0  0
 22 20  1  1  0  0  0
 22 26  1  0  0  0  0
 22 24  1  0  0  0  0
 23 27  1  0  0  0  0
 24 21  1  0  0  0  0
 26 23  1  0  0  0  0
 27 21  2  0  0  0  0
 28 23  2  0  0  0  0
 28 19  1  0  0  0  0
 29 30  1  6  0  0  0
 29 31  1  0  0  0  0
 32 33  1  0  0  0  0
 33 35  1  1  0  0  0
 34 31  1  6  0  0  0
 34 32  1  0  0  0  0
 34 33  1  0  0  0  0
 35 36  1  0  0  0  0
 36 38  1  0  0  0  0
 38 39  1  0  0  0  0
 38 37  2  0  0  0  0
 40 36  2  0  0  0  0
 40 41  1  0  0  0  0
 41 42  2  0  0  0  0
 42 37  1  0  0  0  0
 43 44  1  0  0  0  0
 44 45  1  0  0  0  0
M  END
>  <MODEL>
5

>  <REMARK>
 VINA RESULT:      -6.8      2.375      8.896
  Name = 
  11 active torsions:
  status: ('A' for Active; 'I' for Inactive)
    1  A    between atoms: C_3  and  C_8
    2  A    between atoms: C_3  and  C_23
    3  A    between atoms: C_4  and  C_7
    4  A    between atoms: C_6  and  C_8
    5  A    between atoms: C_6  and  C_28
    6  A    between atoms: C_7  and  C_25
    7  A    between atoms: O_10  and  C_31
    8  A    between atoms: O_10  and  N_43
    9  A    between atoms: C_15  and  C_26
   10  A    between atoms: C_16  and  C_26
   11  A    between atoms: C_29  and  C_31
                            x       y       z     vdW  Elec       q    Type
                         _______ _______ _______ _____ _____    ______ ____

>  <TORSDO>
F 11

$$$$
=
 OpenBabel11062414223D

 45 50  0  0  1  0  0  0  0  0999 V2000
  190.8620  178.0070  144.6690 C   0  0  1  0  0  3  0  0  0  0  0  0
  192.0570  175.9470  146.2350 C   0  0  2  0  0  3  0  0  0  0  0  0
  188.7880  177.4130  142.5710 C   0  0  1  0  0  0  0  0  0  0  0  0
  192.2300  175.0820  143.9210 C   0  0  0  0  0  1  0  0  0  0  0  0
  191.4110  177.0920  147.0300 C   0  0  1  0  0  3  0  0  0  0  0  0
  189.7520  176.3280  143.0940 C   0  0  0  0  0  2  0  0  0  0  0  0
  189.8960  179.0700  144.1580 C   0  0  0  0  0  2  0  0  0  0  0  0
  191.1960  178.3240  146.1350 C   0  0  0  0  0  2  0  0  0  0  0  0
  189.4810  178.7840  142.7150 C   0  0  0  0  0  2  0  0  0  0  0  0
  190.2660  176.5980  144.5150 C   0  0  1  0  0  3  0  0  0  0  0  0
  191.2480  175.5100  145.0040 C   0  0  2  0  0  3  0  0  0  0  0  0
  192.3370  174.8490  147.0540 O   0  0  0  0  0  1  0  0  0  0  0  0
  189.5710  176.3760  140.3400 C   0  0  0  0  0  2  0  0  0  0  0  0
  189.3930  178.4950  139.2060 C   0  0  0  0  0  2  0  0  0  0  0  0
  188.4800  177.1650  141.0650 C   0  0  2  0  0  3  0  0  0  0  0  0
  188.3090  178.4620  140.2690 C   0  0  0  0  0  2  0  0  0  0  0  0
  190.3750  177.4130  139.5890 C   0  0  2  0  0  3  0  0  0  0  0  0
  191.1080  176.8390  138.3810 C   0  0  0  0  0  2  0  0  0  0  0  0
  190.2480  176.6970  137.2620 O   0  0  0  0  0  0  0  0  0  0  0  0
  185.7260  172.6290  136.7720 C   0  0  0  0  0  1  0  0  0  0  0  0
  186.1470  176.4220  137.0930 C   0  0  0  0  0  0  0  0  0  0  0  0
  186.3680  173.9230  137.2090 C   0  0  2  0  0  3  0  0  0  0  0  0
  188.3590  175.3740  136.9270 C   0  0  0  0  0  0  0  0  0  0  0  0
  185.4890  175.1030  136.7890 C   0  0  0  0  0  2  0  0  0  0  0  0
  185.3580  177.5420  137.2990 O   0  0  0  0  0  1  0  0  0  0  0  0
  187.7550  174.0440  136.5940 C   0  0  0  0  0  2  0  0  0  0  0  0
  187.4760  176.5430  137.1310 C   0  0  0  0  0  3  0  0  0  0  0  0
  189.6460  175.4900  136.9920 N   0  0  0  0  0  0  0  0  0  0  0  0
  187.4870  177.4080  143.4140 C   0  0  2  0  0  3  0  0  0  0  0  0
  187.1280  176.1370  143.8730 O   0  0  0  0  0  1  0  0  0  0  0  0
  186.3130  178.1760  142.7880 C   0  0  0  0  0  2  0  0  0  0  0  0
  184.9380  179.3680  144.4320 C   0  0  0  0  0  2  0  0  0  0  0  0
  184.0820  179.2460  143.1830 C   0  0  1  0  0  3  0  0  0  0  0  0
  185.0180  178.1150  143.5870 C   0  0  1  0  0  3  0  0  0  0  0  0
  182.6390  179.0160  143.6430 C   0  0  0  0  0  2  0  0  0  0  0  0
  181.6920  178.7080  142.5180 C   0  0  0  0  0  0  0  0  0  0  0  0
  179.4470  178.2320  141.7200 C   0  0  0  0  0  3  0  0  0  0  0  0
  180.3230  178.5080  142.7760 C   0  0  0  0  0  0  0  0  0  0  0  0
  179.8400  178.5740  144.0410 F   0  0  0  0  0  0  0  0  0  0  0  0
  182.1710  178.6280  141.2060 C   0  0  0  0  0  3  0  0  0  0  0  0
  181.2940  178.3520  140.1530 C   0  0  0  0  0  3  0  0  0  0  0  0
  179.9310  178.1560  140.4090 C   0  0  0  0  0  3  0  0  0  0  0  0
  190.0930  176.6850  147.6890 C   0  0  0  0  0  2  0  0  0  0  0  0
  189.2790  177.9060  148.0930 C   0  0  0  0  0  2  0  0  0  0  0  0
  188.0890  177.5020  148.6950 O   0  0  0  0  0  1  0  0  0  0  0  0
  1  7  1  1  0  0  0
  1  8  1  0  0  0  0
  2  5  1  0  0  0  0
  2 12  1  1  0  0  0
  3  9  1  0  0  0  0
  3  6  1  0  0  0  0
  3 29  1  1  0  0  0
  5 43  1  6  0  0  0
  8  5  1  0  0  0  0
  9  7  1  0  0  0  0
 10  6  1  6  0  0  0
 10  1  1  0  0  0  0
 10 11  1  0  0  0  0
 11  4  1  6  0  0  0
 11  2  1  0  0  0  0
 13 15  1  0  0  0  0
 14 17  1  0  0  0  0
 14 16  1  0  0  0  0
 15 16  1  6  0  0  0
 15  3  1  0  0  0  0
 17 18  1  6  0  0  0
 17 13  1  0  0  0  0
 19 18  1  0  0  0  0
 21 27  2  0  0  0  0
 21 25  1  0  0  0  0
 22 20  1  6  0  0  0
 23 28  2  0  0  0  0
 23 27  1  0  0  0  0
 24 21  1  0  0  0  0
 24 22  1  0  0  0  0
 26 23  1  0  0  0  0
 26 22  1  0  0  0  0
 28 19  1  0  0  0  0
 29 30  1  6  0  0  0
 31 29  1  0  0  0  0
 33 34  1  0  0  0  0
 33 35  1  1  0  0  0
 33 32  1  0  0  0  0
 34 31  1  6  0  0  0
 34 32  1  0  0  0  0
 36 38  1  0  0  0  0
 36 35  1  0  0  0  0
 37 38  2  0  0  0  0
 38 39  1  0  0  0  0
 40 36  2  0  0  0  0
 41 42  2  0  0  0  0
 41 40  1  0  0  0  0
 42 37  1  0  0  0  0
 43 44  1  0  0  0  0
 44 45  1  0  0  0  0
M  END
>  <MODEL>
6

>  <REMARK>
 VINA RESULT:      -6.7      3.457      7.513
  Name = 
  11 active torsions:
  status: ('A' for Active; 'I' for Inactive)
    1  A    between atoms: C_3  and  C_8
    2  A    between atoms: C_3  and  C_23
    3  A    between atoms: C_4  and  C_7
    4  A    between atoms: C_6  and  C_8
    5  A    between atoms: C_6  and  C_28
    6  A    between atoms: C_7  and  C_25
    7  A    between atoms: O_10  and  C_31
    8  A    between atoms: O_10  and  N_43
    9  A    between atoms: C_15  and  C_26
   10  A    between atoms: C_16  and  C_26
   11  A    between atoms: C_29  and  C_31
                            x       y       z     vdW  Elec       q    Type
                         _______ _______ _______ _____ _____    ______ ____

>  <TORSDO>
F 11

$$$$
=
 OpenBabel11062414223D

 45 50  0  0  1  0  0  0  0  0999 V2000
  183.4800  177.9900  138.5300 C   0  0  1  0  0  3  0  0  0  0  0  0
  182.1200  175.5490  137.9710 C   0  0  2  0  0  3  0  0  0  0  0  0
  184.2370  178.7870  141.3310 C   0  0  1  0  0  0  0  0  0  0  0  0
  180.8120  176.5200  139.8360 C   0  0  0  0  0  1  0  0  0  0  0  0
  183.4270  175.7700  137.1950 C   0  0  1  0  0  3  0  0  0  0  0  0
  183.1380  177.7400  141.0500 C   0  0  0  0  0  2  0  0  0  0  0  0
  184.5740  179.0120  138.8160 C   0  0  0  0  0  2  0  0  0  0  0  0
  183.8390  177.2510  137.2310 C   0  0  0  0  0  2  0  0  0  0  0  0
  184.3060  179.7490  140.1270 C   0  0  0  0  0  2  0  0  0  0  0  0
  183.3120  177.0160  139.7080 C   0  0  1  0  0  3  0  0  0  0  0  0
  182.1850  175.9920  139.4410 C   0  0  2  0  0  3  0  0  0  0  0  0
  181.6870  174.2220  137.8770 O   0  0  0  0  0  1  0  0  0  0  0  0
  185.0210  179.7130  143.6100 C   0  0  0  0  0  2  0  0  0  0  0  0
  183.2030  178.6280  144.7620 C   0  0  0  0  0  2  0  0  0  0  0  0
  183.8740  179.6060  142.6050 C   0  0  2  0  0  3  0  0  0  0  0  0
  182.6960  179.0110  143.3820 C   0  0  0  0  0  2  0  0  0  0  0  0
  184.7100  178.6850  144.6740 C   0  0  2  0  0  3  0  0  0  0  0  0
  185.3580  179.0020  146.0180 C   0  0  0  0  0  2  0  0  0  0  0  0
  186.5780  178.3000  146.1910 O   0  0  0  0  0  0  0  0  0  0  0  0
  191.5570  176.7870  143.0020 C   0  0  0  0  0  1  0  0  0  0  0  0
  190.4960  177.1370  146.6660 C   0  0  0  0  0  0  0  0  0  0  0  0
  190.7980  177.3460  144.1810 C   0  0  2  0  0  3  0  0  0  0  0  0
  188.5540  177.5350  145.2190 C   0  0  0  0  0  0  0  0  0  0  0  0
  191.3060  176.7040  145.4740 C   0  0  0  0  0  2  0  0  0  0  0  0
  191.0780  177.1260  147.9220 O   0  0  0  0  0  1  0  0  0  0  0  0
  189.3080  177.0870  144.0050 C   0  0  0  0  0  2  0  0  0  0  0  0
  189.2170  177.4980  146.5420 C   0  0  0  0  0  3  0  0  0  0  0  0
  187.3220  177.9110  145.1000 N   0  0  0  0  0  0  0  0  0  0  0  0
  185.6060  178.0780  141.4970 C   0  0  2  0  0  3  0  0  0  0  0  0
  185.6850  177.2850  142.6450 O   0  0  0  0  0  1  0  0  0  0  0  0
  186.8280  178.9890  141.3060 C   0  0  0  0  0  2  0  0  0  0  0  0
  187.7290  177.3210  139.7510 C   0  0  0  0  0  2  0  0  0  0  0  0
  188.4550  178.6170  139.4370 C   0  0  1  0  0  3  0  0  0  0  0  0
  188.0970  178.2640  140.8750 C   0  0  1  0  0  3  0  0  0  0  0  0
  189.9000  178.2530  139.0790 C   0  0  0  0  0  2  0  0  0  0  0  0
  190.0290  177.5220  137.7730 C   0  0  0  0  0  0  0  0  0  0  0  0
  191.0140  175.7510  136.4330 C   0  0  0  0  0  3  0  0  0  0  0  0
  190.9090  176.4320  137.6510 C   0  0  0  0  0  0  0  0  0  0  0  0
  191.6640  176.0330  138.7050 F   0  0  0  0  0  0  0  0  0  0  0  0
  189.2640  177.9230  136.6720 C   0  0  0  0  0  3  0  0  0  0  0  0
  189.3700  177.2420  135.4560 C   0  0  0  0  0  3  0  0  0  0  0  0
  190.2450  176.1540  135.3360 C   0  0  0  0  0  3  0  0  0  0  0  0
  184.5720  174.8940  137.7040 C   0  0  0  0  0  2  0  0  0  0  0  0
  185.6790  174.7790  136.6660 C   0  0  0  0  0  2  0  0  0  0  0  0
  186.8860  175.2120  137.2140 O   0  0  0  0  0  1  0  0  0  0  0  0
  1  8  1  6  0  0  0
  1  7  1  0  0  0  0
  1 10  1  0  0  0  0
  2 12  1  1  0  0  0
  2 11  1  0  0  0  0
  3 29  1  1  0  0  0
  3 15  1  0  0  0  0
  5  8  1  0  0  0  0
  5 43  1  1  0  0  0
  5  2  1  0  0  0  0
  6  3  1  0  0  0  0
  7  9  1  0  0  0  0
  9  3  1  0  0  0  0
 10  6  1  1  0  0  0
 11 10  1  0  0  0  0
 11  4  1  6  0  0  0
 13 17  1  0  0  0  0
 15 16  1  1  0  0  0
 15 13  1  0  0  0  0
 16 14  1  0  0  0  0
 17 14  1  0  0  0  0
 17 18  1  1  0  0  0
 18 19  1  0  0  0  0
 21 25  1  0  0  0  0
 22 20  1  6  0  0  0
 22 24  1  0  0  0  0
 23 27  1  0  0  0  0
 24 21  1  0  0  0  0
 26 22  1  0  0  0  0
 26 23  1  0  0  0  0
 27 21  2  0  0  0  0
 28 23  2  0  0  0  0
 28 19  1  0  0  0  0
 29 30  1  1  0  0  0
 31 29  1  0  0  0  0
 32 34  1  0  0  0  0
 33 35  1  1  0  0  0
 33 32  1  0  0  0  0
 33 34  1  0  0  0  0
 34 31  1  6  0  0  0
 36 35  1  0  0  0  0
 37 38  2  0  0  0  0
 38 36  1  0  0  0  0
 38 39  1  0  0  0  0
 40 36  2  0  0  0  0
 41 40  1  0  0  0  0
 42 41  2  0  0  0  0
 42 37  1  0  0  0  0
 44 45  1  0  0  0  0
 44 43  1  0  0  0  0
M  END
>  <MODEL>
7

>  <REMARK>
 VINA RESULT:      -6.7      3.165      8.891
  Name = 
  11 active torsions:
  status: ('A' for Active; 'I' for Inactive)
    1  A    between atoms: C_3  and  C_8
    2  A    between atoms: C_3  and  C_23
    3  A    between atoms: C_4  and  C_7
    4  A    between atoms: C_6  and  C_8
    5  A    between atoms: C_6  and  C_28
    6  A    between atoms: C_7  and  C_25
    7  A    between atoms: O_10  and  C_31
    8  A    between atoms: O_10  and  N_43
    9  A    between atoms: C_15  and  C_26
   10  A    between atoms: C_16  and  C_26
   11  A    between atoms: C_29  and  C_31
                            x       y       z     vdW  Elec       q    Type
                         _______ _______ _______ _____ _____    ______ ____

>  <TORSDO>
F 11

$$$$
=
 OpenBabel11062414223D

 45 50  0  0  1  0  0  0  0  0999 V2000
  185.7280  176.2880  135.6910 C   0  0  1  0  0  3  0  0  0  0  0  0
  184.7180  177.9130  137.8040 C   0  0  2  0  0  3  0  0  0  0  0  0
  188.0710  174.4400  136.0830 C   0  0  1  0  0  0  0  0  0  0  0  0
  187.1600  178.3160  137.8870 C   0  0  0  0  0  1  0  0  0  0  0  0
  183.6870  177.0050  137.1170 C   0  0  1  0  0  3  0  0  0  0  0  0
  187.8000  175.6260  137.0330 C   0  0  0  0  0  2  0  0  0  0  0  0
  185.9940  175.1060  134.7670 C   0  0  0  0  0  2  0  0  0  0  0  0
  184.2100  176.5180  135.7550 C   0  0  0  0  0  2  0  0  0  0  0  0
  187.4870  174.7890  134.6990 C   0  0  0  0  0  2  0  0  0  0  0  0
  186.3230  176.0420  137.0880 C   0  0  1  0  0  3  0  0  0  0  0  0
  186.0840  177.2460  138.0260 C   0  0  2  0  0  3  0  0  0  0  0  0
  184.2240  178.4330  139.0040 O   0  0  0  0  0  1  0  0  0  0  0  0
  190.3880  174.5070  137.2180 C   0  0  0  0  0  2  0  0  0  0  0  0
  191.2510  176.0050  135.5390 C   0  0  0  0  0  2  0  0  0  0  0  0
  189.6050  174.2190  135.9370 C   0  0  2  0  0  3  0  0  0  0  0  0
  190.2360  175.1040  134.8580 C   0  0  0  0  0  2  0  0  0  0  0  0
  190.9770  175.8860  137.0190 C   0  0  2  0  0  3  0  0  0  0  0  0
  192.2230  176.1310  137.8630 C   0  0  0  0  0  2  0  0  0  0  0  0
  191.9180  176.8230  139.0620 O   0  0  0  0  0  0  0  0  0  0  0  0
  187.2200  177.5020  142.8980 C   0  0  0  0  0  1  0  0  0  0  0  0
  191.0410  177.7590  142.9720 C   0  0  0  0  0  0  0  0  0  0  0  0
  188.6420  177.1740  142.5130 C   0  0  2  0  0  3  0  0  0  0  0  0
  190.3050  177.2980  140.6770 C   0  0  0  0  0  0  0  0  0  0  0  0
  189.6110  177.9570  143.4000 C   0  0  0  0  0  2  0  0  0  0  0  0
  192.0550  177.9090  143.9030 O   0  0  0  0  0  1  0  0  0  0  0  0
  188.8680  177.5110  141.0450 C   0  0  0  0  0  2  0  0  0  0  0  0
  191.3530  177.4770  141.7050 C   0  0  0  0  0  3  0  0  0  0  0  0
  190.6110  176.9970  139.4560 N   0  0  0  0  0  0  0  0  0  0  0  0
  187.3730  173.1660  136.6250 C   0  0  2  0  0  3  0  0  0  0  0  0
  188.2570  172.2610  137.2210 O   0  0  0  0  0  1  0  0  0  0  0  0
  186.4000  172.4990  135.6410 C   0  0  0  0  0  2  0  0  0  0  0  0
  184.8130  172.6270  137.5060 C   0  0  0  0  0  2  0  0  0  0  0  0
  183.9750  172.6980  136.2420 C   0  0  1  0  0  3  0  0  0  0  0  0
  185.2100  171.8090  136.2970 C   0  0  1  0  0  3  0  0  0  0  0  0
  182.6780  171.9290  136.5130 C   0  0  0  0  0  2  0  0  0  0  0  0
  181.4550  172.8010  136.5320 C   0  0  0  0  0  0  0  0  0  0  0  0
  179.2950  173.3860  137.4760 C   0  0  0  0  0  3  0  0  0  0  0  0
  180.4240  172.5610  137.4590 C   0  0  0  0  0  0  0  0  0  0  0  0
  180.5110  171.5320  138.3380 F   0  0  0  0  0  0  0  0  0  0  0  0
  181.3430  173.8630  135.6290 C   0  0  0  0  0  3  0  0  0  0  0  0
  180.2130  174.6860  135.6470 C   0  0  0  0  0  3  0  0  0  0  0  0
  179.1880  174.4480  136.5720 C   0  0  0  0  0  3  0  0  0  0  0  0
  183.2810  175.8110  137.9820 C   0  0  0  0  0  2  0  0  0  0  0  0
  181.9650  176.0750  138.7000 C   0  0  0  0  0  2  0  0  0  0  0  0
  181.2120  177.0010  137.9810 O   0  0  0  0  0  1  0  0  0  0  0  0
  1  7  1  6  0  0  0
  1  8  1  0  0  0  0
  1 10  1  0  0  0  0
  2 11  1  0  0  0  0
  2 12  1  1  0  0  0
  3 29  1  1  0  0  0
  3  6  1  0  0  0  0
  5  2  1  0  0  0  0
  5 43  1  1  0  0  0
  8  5  1  0  0  0  0
  9  7  1  0  0  0  0
  9  3  1  0  0  0  0
 10  6  1  6  0  0  0
 10 11  1  0  0  0  0
 11  4  1  6  0  0  0
 14 17  1  0  0  0  0
 15 16  1  6  0  0  0
 15  3  1  0  0  0  0
 15 13  1  0  0  0  0
 16 14  1  0  0  0  0
 17 13  1  0  0  0  0
 17 18  1  1  0  0  0
 18 19  1  0  0  0  0
 19 28  1  0  0  0  0
 21 24  1  0  0  0  0
 21 25  1  0  0  0  0
 22 20  1  1  0  0  0
 22 24  1  0  0  0  0
 23 26  1  0  0  0  0
 23 27  1  0  0  0  0
 26 22  1  0  0  0  0
 27 21  2  0  0  0  0
 28 23  2  0  0  0  0
 29 30  1  6  0  0  0
 31 29  1  0  0  0  0
 33 34  1  0  0  0  0
 33 35  1  1  0  0  0
 33 32  1  0  0  0  0
 34 31  1  6  0  0  0
 34 32  1  0  0  0  0
 35 36  1  0  0  0  0
 36 38  1  0  0  0  0
 38 37  2  0  0  0  0
 38 39  1  0  0  0  0
 40 41  1  0  0  0  0
 40 36  2  0  0  0  0
 41 42  2  0  0  0  0
 42 37  1  0  0  0  0
 43 44  1  0  0  0  0
 45 44  1  0  0  0  0
M  END
>  <MODEL>
8

>  <REMARK>
 VINA RESULT:      -6.6      3.231      8.385
  Name = 
  11 active torsions:
  status: ('A' for Active; 'I' for Inactive)
    1  A    between atoms: C_3  and  C_8
    2  A    between atoms: C_3  and  C_23
    3  A    between atoms: C_4  and  C_7
    4  A    between atoms: C_6  and  C_8
    5  A    between atoms: C_6  and  C_28
    6  A    between atoms: C_7  and  C_25
    7  A    between atoms: O_10  and  C_31
    8  A    between atoms: O_10  and  N_43
    9  A    between atoms: C_15  and  C_26
   10  A    between atoms: C_16  and  C_26
   11  A    between atoms: C_29  and  C_31
                            x       y       z     vdW  Elec       q    Type
                         _______ _______ _______ _____ _____    ______ ____

>  <TORSDO>
F 11

$$$$
=
 OpenBabel11062414223D

 45 50  0  0  1  0  0  0  0  0999 V2000
  186.8600  177.0100  143.1480 C   0  0  1  0  0  3  0  0  0  0  0  0
  184.6610  178.7930  143.4770 C   0  0  2  0  0  3  0  0  0  0  0  0
  189.3820  177.8370  141.7310 C   0  0  1  0  0  0  0  0  0  0  0  0
  185.2240  179.0130  141.0750 C   0  0  0  0  0  1  0  0  0  0  0  0
  185.1950  178.1570  144.7690 C   0  0  1  0  0  3  0  0  0  0  0  0
  188.0500  178.5910  141.5310 C   0  0  0  0  0  2  0  0  0  0  0  0
  188.1830  176.2810  143.3520 C   0  0  0  0  0  2  0  0  0  0  0  0
  186.0550  176.9220  144.4540 C   0  0  0  0  0  2  0  0  0  0  0  0
  189.0580  176.3760  142.1030 C   0  0  0  0  0  2  0  0  0  0  0  0
  187.0930  178.4700  142.7250 C   0  0  1  0  0  3  0  0  0  0  0  0
  185.7590  179.2130  142.4880 C   0  0  2  0  0  3  0  0  0  0  0  0
  183.8080  179.8670  143.7490 O   0  0  0  0  0  1  0  0  0  0  0  0
  189.4720  178.5260  139.2440 C   0  0  0  0  0  2  0  0  0  0  0  0
  189.8870  176.2550  138.5520 C   0  0  0  0  0  2  0  0  0  0  0  0
  190.1990  177.8450  140.4050 C   0  0  2  0  0  3  0  0  0  0  0  0
  190.5450  176.4390  139.9090 C   0  0  0  0  0  2  0  0  0  0  0  0
  188.9060  177.3950  138.4160 C   0  0  2  0  0  3  0  0  0  0  0  0
  188.6650  177.7840  136.9610 C   0  0  0  0  0  2  0  0  0  0  0  0
  187.3620  177.4260  136.5300 O   0  0  0  0  0  0  0  0  0  0  0  0
  184.1860  172.2610  137.2190 C   0  0  0  0  0  1  0  0  0  0  0  0
  183.7340  176.0100  137.8570 C   0  0  0  0  0  0  0  0  0  0  0  0
  184.6010  173.6730  137.5540 C   0  0  2  0  0  3  0  0  0  0  0  0
  185.8900  175.6320  136.7470 C   0  0  0  0  0  0  0  0  0  0  0  0
  183.3630  174.5670  137.6470 C   0  0  0  0  0  2  0  0  0  0  0  0
  182.8370  176.8570  138.4860 O   0  0  0  0  0  1  0  0  0  0  0  0
  185.5580  174.1940  136.4900 C   0  0  0  0  0  2  0  0  0  0  0  0
  184.8960  176.5000  137.4160 C   0  0  0  0  0  3  0  0  0  0  0  0
  187.0260  176.1040  136.3460 N   0  0  0  0  0  0  0  0  0  0  0  0
  190.1860  178.4920  142.8840 C   0  0  2  0  0  3  0  0  0  0  0  0
  190.5420  179.8200  142.6280 O   0  0  0  0  0  1  0  0  0  0  0  0
  191.3540  177.6460  143.4130 C   0  0  0  0  0  2  0  0  0  0  0  0
  192.0550  175.6230  144.6090 C   0  0  0  0  0  2  0  0  0  0  0  0
  192.0220  176.7300  145.6480 C   0  0  1  0  0  3  0  0  0  0  0  0
  190.9820  176.6860  144.5370 C   0  0  1  0  0  3  0  0  0  0  0  0
  191.5200  176.1100  146.9560 C   0  0  0  0  0  2  0  0  0  0  0  0
  190.3340  176.8210  147.5420 C   0  0  0  0  0  0  0  0  0  0  0  0
  189.4040  178.5240  149.0030 C   0  0  0  0  0  3  0  0  0  0  0  0
  190.5160  177.8610  148.4720 C   0  0  0  0  0  0  0  0  0  0  0  0
  191.7610  178.2280  148.8630 F   0  0  0  0  0  0  0  0  0  0  0  0
  189.0400  176.4520  147.1560 C   0  0  0  0  0  3  0  0  0  0  0  0
  187.9320  177.1160  147.6890 C   0  0  0  0  0  3  0  0  0  0  0  0
  188.1130  178.1540  148.6120 C   0  0  0  0  0  3  0  0  0  0  0  0
  185.9870  179.1430  145.6290 C   0  0  0  0  0  2  0  0  0  0  0  0
  185.3050  179.3760  146.9690 C   0  0  0  0  0  2  0  0  0  0  0  0
  184.5560  178.2530  147.3180 O   0  0  0  0  0  1  0  0  0  0  0  0
  1  7  1  1  0  0  0
  1  8  1  0  0  0  0
  2 12  1  1  0  0  0
  2  5  1  0  0  0  0
  3  9  1  0  0  0  0
  3 29  1  1  0  0  0
  5 43  1  6  0  0  0
  6  3  1  0  0  0  0
  8  5  1  0  0  0  0
  9  7  1  0  0  0  0
 10  6  1  6  0  0  0
 10  1  1  0  0  0  0
 11  4  1  6  0  0  0
 11 10  1  0  0  0  0
 11  2  1  0  0  0  0
 14 16  1  0  0  0  0
 15 13  1  6  0  0  0
 15  3  1  0  0  0  0
 16 15  1  0  0  0  0
 17 18  1  6  0  0  0
 17 14  1  0  0  0  0
 17 13  1  0  0  0  0
 19 18  1  0  0  0  0
 21 25  1  0  0  0  0
 22 20  1  6  0  0  0
 22 24  1  0  0  0  0
 23 27  1  0  0  0  0
 24 21  1  0  0  0  0
 26 23  1  0  0  0  0
 26 22  1  0  0  0  0
 27 21  2  0  0  0  0
 28 19  1  0  0  0  0
 28 23  2  0  0  0  0
 29 30  1  6  0  0  0
 29 31  1  0  0  0  0
 32 33  1  0  0  0  0
 33 35  1  1  0  0  0
 34 31  1  6  0  0  0
 34 32  1  0  0  0  0
 34 33  1  0  0  0  0
 35 36  1  0  0  0  0
 36 38  1  0  0  0  0
 38 39  1  0  0  0  0
 38 37  2  0  0  0  0
 40 36  2  0  0  0  0
 40 41  1  0  0  0  0
 41 42  2  0  0  0  0
 42 37  1  0  0  0  0
 43 44  1  0  0  0  0
 44 45  1  0  0  0  0
M  END
>  <MODEL>
9

>  <REMARK>
 VINA RESULT:      -6.6      3.506      7.384
  Name = 
  11 active torsions:
  status: ('A' for Active; 'I' for Inactive)
    1  A    between atoms: C_3  and  C_8
    2  A    between atoms: C_3  and  C_23
    3  A    between atoms: C_4  and  C_7
    4  A    between atoms: C_6  and  C_8
    5  A    between atoms: C_6  and  C_28
    6  A    between atoms: C_7  and  C_25
    7  A    between atoms: O_10  and  C_31
    8  A    between atoms: O_10  and  N_43
    9  A    between atoms: C_15  and  C_26
   10  A    between atoms: C_16  and  C_26
   11  A    between atoms: C_29  and  C_31
                            x       y       z     vdW  Elec       q    Type
                         _______ _______ _______ _____ _____    ______ ____

>  <TORSDO>
F 11

$$$$
