=
 OpenBabel11062414393D

 38 39  0  0  1  0  0  0  0  0999 V2000
  181.1330  178.5670  141.0090 C   0  0  2  0  0  3  0  0  0  0  0  0
  182.4610  178.3930  140.2510 C   0  0  2  0  0  3  0  0  0  0  0  0
  182.3840  178.7270  144.3070 O   0  0  0  0  0  0  0  0  0  0  0  0
  182.4730  178.9000  143.1000 C   0  0  0  0  0  0  0  0  0  0  0  0
  183.6070  177.9040  141.1400 C   0  0  0  0  0  2  0  0  0  0  0  0
  181.0560  177.7050  138.0140 O   0  0  0  0  0  0  0  0  0  0  0  0
  181.3320  180.1260  138.3630 C   0  0  2  0  0  3  0  0  0  0  0  0
  182.9240  179.8530  139.2500 S   0  0  0  0  0  0  0  0  0  0  0  0
  181.2710  179.3430  142.3250 C   0  0  0  0  0  2  0  0  0  0  0  0
  180.2960  176.4210  139.8760 C   0  0  0  0  0  2  0  0  0  0  0  0
  180.2860  180.8180  139.2120 C   0  0  0  0  0  1  0  0  0  0  0  0
  180.7400  178.9810  137.5260 C   0  0  1  0  0  3  0  0  0  0  0  0
  183.7900  178.7800  142.3790 C   0  0  2  0  0  3  0  0  0  0  0  0
  179.0040  177.5280  141.6240 N   0  0  0  0  0  1  0  0  0  0  0  0
  180.3570  177.2540  141.1650 C   0  0  2  0  0  3  0  0  0  0  0  0
  179.8950  177.2270  138.6410 C   0  0  2  0  0  3  0  0  0  0  0  0
  180.9410  180.1680  135.4550 O   0  0  0  0  0  0  0  0  0  0  0  0
  181.7790  178.0300  135.4710 O   0  0  0  0  0  1  0  0  0  0  0  0
  181.1620  179.1050  136.0990 C   0  0  0  0  0  0  0  0  0  0  0  0
  184.8820  178.1970  143.2730 C   0  0  0  0  0  2  0  0  0  0  0  0
  186.2290  178.2100  142.5700 C   0  0  0  0  0  2  0  0  0  0  0  0
  187.2260  177.3370  143.3130 C   0  0  0  0  0  2  0  0  0  0  0  0
  188.4560  177.1040  142.4510 C   0  0  2  0  0  3  0  0  0  0  0  0
  189.6560  176.8010  143.2990 C   0  0  0  0  0  0  0  0  0  0  0  0
  190.3260  175.7990  143.0890 O   0  0  0  0  0  0  0  0  0  0  0  0
  190.9230  178.6890  143.9640 O   0  0  0  0  0  1  0  0  0  0  0  0
  190.0120  177.7310  144.4140 C   0  0  2  0  0  3  0  0  0  0  0  0
  190.6020  176.9560  145.5820 C   0  0  0  0  0  2  0  0  0  0  0  0
  189.7940  177.1910  146.8470 C   0  0  0  0  0  2  0  0  0  0  0  0
  187.8790  178.2510  148.6730 O   0  0  0  0  0  0  0  0  0  0  0  0
  187.5260  178.1050  147.4730 C   0  0  0  0  0  0  0  0  0  0  0  0
  186.1400  178.4430  147.0630 C   0  0  0  0  0  1  0  0  0  0  0  0
  188.4440  177.6070  146.4990 N   0  0  0  0  0  2  0  0  0  0  0  0
  188.7040  178.2280  141.6590 O   0  0  0  0  0  0  0  0  0  0  0  0
  189.1800  177.7120  140.4530 C   0  0  0  0  0  1  0  0  0  0  0  0
  179.2040  176.3920  137.7590 O   0  0  0  0  0  0  0  0  0  0  0  0
  180.0600  175.3090  137.5440 C   0  0  0  0  0  2  0  0  0  0  0  0
  180.1640  175.0610  136.1760 O   0  0  0  0  0  1  0  0  0  0  0  0
  1 15  1  0  0  0  0
  1  9  1  1  0  0  0
  2  1  1  0  0  0  0
  2  5  1  1  0  0  0
  4  3  2  0  0  0  0
  5 13  1  0  0  0  0
  6 16  1  0  0  0  0
  7 11  1  1  0  0  0
  7  8  1  0  0  0  0
  8  2  1  0  0  0  0
  9  4  1  0  0  0  0
 10 15  1  0  0  0  0
 12 19  1  6  0  0  0
 12  6  1  0  0  0  0
 12  7  1  0  0  0  0
 13  4  1  0  0  0  0
 13 20  1  1  0  0  0
 15 14  1  6  0  0  0
 16 36  1  6  0  0  0
 16 10  1  0  0  0  0
 17 19  2  0  0  0  0
 18 19  1  0  0  0  0
 21 20  1  0  0  0  0
 21 22  1  0  0  0  0
 23 24  1  0  0  0  0
 23 22  1  1  0  0  0
 24 27  1  0  0  0  0
 25 24  2  0  0  0  0
 27 26  1  6  0  0  0
 27 28  1  0  0  0  0
 28 29  1  0  0  0  0
 31 30  2  0  0  0  0
 32 31  1  0  0  0  0
 33 29  1  0  0  0  0
 33 31  1  0  0  0  0
 34 23  1  0  0  0  0
 35 34  1  0  0  0  0
 37 36  1  0  0  0  0
 38 37  1  0  0  0  0
M  END
>  <MODEL>
1

>  <REMARK>
 VINA RESULT:      -6.8      0.000      0.000
  Name = 
  13 active torsions:
  status: ('A' for Active; 'I' for Inactive)
    1  A    between atoms: C_4  and  C_26
    2  A    between atoms: C_4  and  C_29
    3  A    between atoms: C_9  and  C_29
    4  A    between atoms: C_9  and  C_30
    5  A    between atoms: C_10  and  O_33
    6  A    between atoms: C_14  and  C_26
    7  A    between atoms: C_14  and  C_37
    8  A    between atoms: C_20  and  N_23
    9  A    between atoms: C_20  and  C_31
   10  A    between atoms: C_22  and  C_28
   11  A    between atoms: C_26  and  O_32
   12  A    between atoms: C_31  and  C_37
   13  A    between atoms: O_33  and  C_38
                            x       y       z     vdW  Elec       q    Type
                         _______ _______ _______ _____ _____    ______ ____

>  <TORSDO>
F 13

$$$$
=
 OpenBabel11062414393D

 38 39  0  0  1  0  0  0  0  0999 V2000
  181.2020  178.2300  140.7750 C   0  0  2  0  0  3  0  0  0  0  0  0
  182.6400  178.1220  140.2390 C   0  0  2  0  0  3  0  0  0  0  0  0
  181.9140  178.9290  144.1630 O   0  0  0  0  0  0  0  0  0  0  0  0
  182.1690  178.9650  142.9670 C   0  0  0  0  0  0  0  0  0  0  0  0
  183.6800  177.8790  141.3370 C   0  0  0  0  0  2  0  0  0  0  0  0
  181.6650  177.0120  137.9440 O   0  0  0  0  0  0  0  0  0  0  0  0
  181.6490  179.4730  137.9950 C   0  0  2  0  0  3  0  0  0  0  0  0
  183.1060  179.4950  139.1240 S   0  0  0  0  0  0  0  0  0  0  0  0
  181.0620  179.1700  141.9800 C   0  0  0  0  0  2  0  0  0  0  0  0
  180.7590  175.8810  139.8390 C   0  0  0  0  0  2  0  0  0  0  0  0
  180.4240  180.1360  138.5900 C   0  0  0  0  0  1  0  0  0  0  0  0
  181.3060  178.1740  137.2480 C   0  0  1  0  0  3  0  0  0  0  0  0
  183.5860  178.9120  142.4590 C   0  0  2  0  0  3  0  0  0  0  0  0
  179.1150  177.0330  141.2250 N   0  0  0  0  0  1  0  0  0  0  0  0
  180.5420  176.8650  141.0000 C   0  0  2  0  0  3  0  0  0  0  0  0
  180.4750  176.4810  138.4630 C   0  0  2  0  0  3  0  0  0  0  0  0
  181.5160  178.9680  134.9980 O   0  0  0  0  0  0  0  0  0  0  0  0
  182.9430  177.2730  135.6010 O   0  0  0  0  0  1  0  0  0  0  0  0
  181.9260  178.1740  135.8900 C   0  0  0  0  0  0  0  0  0  0  0  0
  184.5800  178.5720  143.5660 C   0  0  0  0  0  2  0  0  0  0  0  0
  185.8470  177.9570  142.9940 C   0  0  0  0  0  2  0  0  0  0  0  0
  186.5320  177.0860  144.0310 C   0  0  0  0  0  2  0  0  0  0  0  0
  187.9120  177.6400  144.3470 C   0  0  2  0  0  3  0  0  0  0  0  0
  188.9310  177.1360  143.3690 C   0  0  0  0  0  0  0  0  0  0  0  0
  189.0250  175.9390  143.1340 O   0  0  0  0  0  0  0  0  0  0  0  0
  190.7340  177.4420  141.8630 O   0  0  0  0  0  1  0  0  0  0  0  0
  189.8400  178.1150  142.6970 C   0  0  2  0  0  3  0  0  0  0  0  0
  190.6030  178.9250  143.7340 C   0  0  0  0  0  2  0  0  0  0  0  0
  191.8680  178.1990  144.1600 C   0  0  0  0  0  2  0  0  0  0  0  0
  191.9550  175.4980  145.0630 O   0  0  0  0  0  0  0  0  0  0  0  0
  191.7730  176.3980  145.9250 C   0  0  0  0  0  0  0  0  0  0  0  0
  191.5740  176.0290  147.3490 C   0  0  0  0  0  1  0  0  0  0  0  0
  191.7490  177.7750  145.5460 N   0  0  0  0  0  2  0  0  0  0  0  0
  188.2820  177.2850  145.6470 O   0  0  0  0  0  0  0  0  0  0  0  0
  187.1860  177.6360  146.4360 C   0  0  0  0  0  1  0  0  0  0  0  0
  180.0100  175.4720  137.6150 O   0  0  0  0  0  0  0  0  0  0  0  0
  180.5420  174.2900  138.1380 C   0  0  0  0  0  2  0  0  0  0  0  0
  181.4780  173.7660  137.2480 O   0  0  0  0  0  1  0  0  0  0  0  0
  1 15  1  0  0  0  0
  1  9  1  1  0  0  0
  2  1  1  0  0  0  0
  2  5  1  1  0  0  0
  4  3  2  0  0  0  0
  5 13  1  0  0  0  0
  6 16  1  0  0  0  0
  7 11  1  1  0  0  0
  7  8  1  0  0  0  0
  8  2  1  0  0  0  0
  9  4  1  0  0  0  0
 10 15  1  0  0  0  0
 12 19  1  6  0  0  0
 12  6  1  0  0  0  0
 12  7  1  0  0  0  0
 13  4  1  0  0  0  0
 13 20  1  1  0  0  0
 15 14  1  6  0  0  0
 16 36  1  6  0  0  0
 16 10  1  0  0  0  0
 17 19  2  0  0  0  0
 18 19  1  0  0  0  0
 21 20  1  0  0  0  0
 21 22  1  0  0  0  0
 23 22  1  6  0  0  0
 23 34  1  0  0  0  0
 24 23  1  0  0  0  0
 25 24  2  0  0  0  0
 27 26  1  6  0  0  0
 27 24  1  0  0  0  0
 27 28  1  0  0  0  0
 28 29  1  0  0  0  0
 29 33  1  0  0  0  0
 30 31  2  0  0  0  0
 31 32  1  0  0  0  0
 33 31  1  0  0  0  0
 34 35  1  0  0  0  0
 36 37  1  0  0  0  0
 38 37  1  0  0  0  0
M  END
>  <MODEL>
2

>  <REMARK>
 VINA RESULT:      -6.6      1.395      2.415
  Name = 
  13 active torsions:
  status: ('A' for Active; 'I' for Inactive)
    1  A    between atoms: C_4  and  C_26
    2  A    between atoms: C_4  and  C_29
    3  A    between atoms: C_9  and  C_29
    4  A    between atoms: C_9  and  C_30
    5  A    between atoms: C_10  and  O_33
    6  A    between atoms: C_14  and  C_26
    7  A    between atoms: C_14  and  C_37
    8  A    between atoms: C_20  and  N_23
    9  A    between atoms: C_20  and  C_31
   10  A    between atoms: C_22  and  C_28
   11  A    between atoms: C_26  and  O_32
   12  A    between atoms: C_31  and  C_37
   13  A    between atoms: O_33  and  C_38
                            x       y       z     vdW  Elec       q    Type
                         _______ _______ _______ _____ _____    ______ ____

>  <TORSDO>
F 13

$$$$
=
 OpenBabel11062414393D

 38 39  0  0  1  0  0  0  0  0999 V2000
  181.1430  178.5710  141.1380 C   0  0  2  0  0  3  0  0  0  0  0  0
  182.4790  178.3540  140.4070 C   0  0  2  0  0  3  0  0  0  0  0  0
  182.3450  178.8110  144.4500 O   0  0  0  0  0  0  0  0  0  0  0  0
  182.4550  178.9470  143.2390 C   0  0  0  0  0  0  0  0  0  0  0  0
  183.6040  177.8740  141.3280 C   0  0  0  0  0  2  0  0  0  0  0  0
  181.0970  177.6200  138.1690 O   0  0  0  0  0  0  0  0  0  0  0  0
  181.4070  180.0460  138.4500 C   0  0  2  0  0  3  0  0  0  0  0  0
  182.9810  179.7750  139.3700 S   0  0  0  0  0  0  0  0  0  0  0  0
  181.2730  179.3840  142.4320 C   0  0  0  0  0  2  0  0  0  0  0  0
  180.2890  176.4040  140.0570 C   0  0  0  0  0  2  0  0  0  0  0  0
  180.3590  180.7790  139.2610 C   0  0  0  0  0  1  0  0  0  0  0  0
  180.8100  178.8850  137.6390 C   0  0  1  0  0  3  0  0  0  0  0  0
  183.7810  178.7840  142.5430 C   0  0  2  0  0  3  0  0  0  0  0  0
  178.9890  177.5840  141.7510 N   0  0  0  0  0  1  0  0  0  0  0  0
  180.3440  177.2750  141.3210 C   0  0  2  0  0  3  0  0  0  0  0  0
  179.9200  177.1780  138.7920 C   0  0  2  0  0  3  0  0  0  0  0  0
  181.1450  180.0350  135.5650 O   0  0  0  0  0  0  0  0  0  0  0  0
  181.7690  177.8250  135.5980 O   0  0  0  0  0  1  0  0  0  0  0  0
  181.2550  178.9590  136.2150 C   0  0  0  0  0  0  0  0  0  0  0  0
  184.8500  178.2120  143.4710 C   0  0  0  0  0  2  0  0  0  0  0  0
  186.2160  178.2230  142.8050 C   0  0  0  0  0  2  0  0  0  0  0  0
  187.0830  177.1020  143.3490 C   0  0  0  0  0  2  0  0  0  0  0  0
  188.3240  177.6780  144.0120 C   0  0  2  0  0  3  0  0  0  0  0  0
  189.4830  177.6950  143.0590 C   0  0  0  0  0  0  0  0  0  0  0  0
  190.3540  178.5490  143.1600 O   0  0  0  0  0  0  0  0  0  0  0  0
  190.3820  175.6170  142.3650 O   0  0  0  0  0  1  0  0  0  0  0  0
  189.5490  176.6670  141.9760 C   0  0  2  0  0  3  0  0  0  0  0  0
  190.0600  177.2890  140.6860 C   0  0  0  0  0  2  0  0  0  0  0  0
  189.0330  178.2460  140.1050 C   0  0  0  0  0  2  0  0  0  0  0  0
  186.3760  178.6270  139.1470 O   0  0  0  0  0  0  0  0  0  0  0  0
  187.1510  177.9140  138.4560 C   0  0  0  0  0  0  0  0  0  0  0  0
  186.6560  177.2750  137.2110 C   0  0  0  0  0  1  0  0  0  0  0  0
  188.5040  177.7060  138.8620 N   0  0  0  0  0  2  0  0  0  0  0  0
  188.6500  176.9290  145.1460 O   0  0  0  0  0  0  0  0  0  0  0  0
  188.3540  177.7680  146.2210 C   0  0  0  0  0  1  0  0  0  0  0  0
  179.2290  176.3280  137.9250 O   0  0  0  0  0  0  0  0  0  0  0  0
  179.7690  175.0610  138.1580 C   0  0  0  0  0  2  0  0  0  0  0  0
  180.3750  174.5910  136.9930 O   0  0  0  0  0  1  0  0  0  0  0  0
  1 15  1  0  0  0  0
  1  9  1  1  0  0  0
  2  1  1  0  0  0  0
  2  5  1  1  0  0  0
  4  3  2  0  0  0  0
  5 13  1  0  0  0  0
  6 16  1  0  0  0  0
  7 11  1  1  0  0  0
  7  8  1  0  0  0  0
  8  2  1  0  0  0  0
  9  4  1  0  0  0  0
 10 15  1  0  0  0  0
 12 19  1  6  0  0  0
 12  6  1  0  0  0  0
 12  7  1  0  0  0  0
 13  4  1  0  0  0  0
 13 20  1  1  0  0  0
 15 14  1  6  0  0  0
 16 36  1  6  0  0  0
 16 10  1  0  0  0  0
 17 19  2  0  0  0  0
 18 19  1  0  0  0  0
 21 22  1  0  0  0  0
 21 20  1  0  0  0  0
 23 22  1  6  0  0  0
 23 34  1  0  0  0  0
 24 25  2  0  0  0  0
 24 23  1  0  0  0  0
 27 26  1  1  0  0  0
 27 24  1  0  0  0  0
 28 27  1  0  0  0  0
 29 28  1  0  0  0  0
 31 33  1  0  0  0  0
 31 30  2  0  0  0  0
 32 31  1  0  0  0  0
 33 29  1  0  0  0  0
 34 35  1  0  0  0  0
 36 37  1  0  0  0  0
 38 37  1  0  0  0  0
M  END
>  <MODEL>
3

>  <REMARK>
 VINA RESULT:      -6.5      1.744      3.569
  Name = 
  13 active torsions:
  status: ('A' for Active; 'I' for Inactive)
    1  A    between atoms: C_4  and  C_26
    2  A    between atoms: C_4  and  C_29
    3  A    between atoms: C_9  and  C_29
    4  A    between atoms: C_9  and  C_30
    5  A    between atoms: C_10  and  O_33
    6  A    between atoms: C_14  and  C_26
    7  A    between atoms: C_14  and  C_37
    8  A    between atoms: C_20  and  N_23
    9  A    between atoms: C_20  and  C_31
   10  A    between atoms: C_22  and  C_28
   11  A    between atoms: C_26  and  O_32
   12  A    between atoms: C_31  and  C_37
   13  A    between atoms: O_33  and  C_38
                            x       y       z     vdW  Elec       q    Type
                         _______ _______ _______ _____ _____    ______ ____

>  <TORSDO>
F 13

$$$$
=
 OpenBabel11062414393D

 38 39  0  0  1  0  0  0  0  0999 V2000
  182.2680  178.1640  138.0220 C   0  0  2  0  0  3  0  0  0  0  0  0
  183.1250  178.8790  139.0800 C   0  0  2  0  0  3  0  0  0  0  0  0
  184.8470  176.9150  135.9570 O   0  0  0  0  0  0  0  0  0  0  0  0
  184.3910  177.2690  137.0350 C   0  0  0  0  0  0  0  0  0  0  0  0
  184.5530  179.1720  138.6080 C   0  0  0  0  0  2  0  0  0  0  0  0
  180.8830  180.1380  139.9970 O   0  0  0  0  0  0  0  0  0  0  0  0
  181.2590  177.8850  140.9160 C   0  0  2  0  0  3  0  0  0  0  0  0
  183.0830  178.0700  140.7200 S   0  0  0  0  0  0  0  0  0  0  0  0
  182.9650  176.9610  137.3730 C   0  0  0  0  0  2  0  0  0  0  0  0
  181.0390  180.3830  137.6290 C   0  0  0  0  0  2  0  0  0  0  0  0
  180.6890  176.7220  140.1290 C   0  0  0  0  0  1  0  0  0  0  0  0
  180.3710  179.1370  140.8340 C   0  0  1  0  0  3  0  0  0  0  0  0
  185.2550  177.9200  138.0830 C   0  0  2  0  0  3  0  0  0  0  0  0
  180.6430  178.4380  136.2130 N   0  0  0  0  0  1  0  0  0  0  0  0
  181.6560  179.1260  136.9980 C   0  0  2  0  0  3  0  0  0  0  0  0
  180.1260  180.0900  138.8180 C   0  0  2  0  0  3  0  0  0  0  0  0
  180.3340  178.9830  143.2240 O   0  0  0  0  0  1  0  0  0  0  0  0
  179.6110  180.9730  142.3360 O   0  0  0  0  0  0  0  0  0  0  0  0
  180.1170  179.6860  142.1990 C   0  0  0  0  0  0  0  0  0  0  0  0
  186.6350  178.2840  137.5440 C   0  0  0  0  0  2  0  0  0  0  0  0
  187.7090  177.3880  138.1390 C   0  0  0  0  0  2  0  0  0  0  0  0
  188.6540  178.1960  139.0110 C   0  0  0  0  0  2  0  0  0  0  0  0
  189.2250  177.3170  140.1120 C   0  0  2  0  0  3  0  0  0  0  0  0
  188.5630  177.6040  141.4270 C   0  0  0  0  0  0  0  0  0  0  0  0
  187.6970  178.4650  141.5090 O   0  0  0  0  0  0  0  0  0  0  0  0
  187.9370  176.0370  143.0890 O   0  0  0  0  0  1  0  0  0  0  0  0
  188.9880  176.8370  142.6370 C   0  0  2  0  0  3  0  0  0  0  0  0
  189.4300  177.7890  143.7390 C   0  0  0  0  0  2  0  0  0  0  0  0
  189.7100  177.0300  145.0250 C   0  0  0  0  0  2  0  0  0  0  0  0
  190.4580  177.2270  147.7680 O   0  0  0  0  0  0  0  0  0  0  0  0
  189.2930  177.5840  147.4520 C   0  0  0  0  0  0  0  0  0  0  0  0
  188.3510  178.0480  148.5020 C   0  0  0  0  0  1  0  0  0  0  0  0
  188.8610  177.5400  146.0920 N   0  0  0  0  0  2  0  0  0  0  0  0
  190.6040  177.5210  140.2180 O   0  0  0  0  0  0  0  0  0  0  0  0
  191.1560  176.7340  139.2060 C   0  0  0  0  0  1  0  0  0  0  0  0
  179.1250  181.0640  138.8720 O   0  0  0  0  0  0  0  0  0  0  0  0
  179.6870  182.1910  138.2690 C   0  0  0  0  0  2  0  0  0  0  0  0
  179.1690  183.3430  138.8600 O   0  0  0  0  0  1  0  0  0  0  0  0
  1  9  1  6  0  0  0
  1  2  1  0  0  0  0
  2  5  1  6  0  0  0
  2  8  1  0  0  0  0
  3  4  2  0  0  0  0
  4  9  1  0  0  0  0
  4 13  1  0  0  0  0
  6 12  1  0  0  0  0
  7 11  1  6  0  0  0
  8  7  1  0  0  0  0
 10 16  1  0  0  0  0
 12  7  1  0  0  0  0
 12 19  1  1  0  0  0
 13 20  1  6  0  0  0
 13  5  1  0  0  0  0
 15 14  1  1  0  0  0
 15 10  1  0  0  0  0
 15  1  1  0  0  0  0
 16 36  1  1  0  0  0
 16  6  1  0  0  0  0
 19 18  2  0  0  0  0
 19 17  1  0  0  0  0
 20 21  1  0  0  0  0
 21 22  1  0  0  0  0
 23 22  1  6  0  0  0
 23 34  1  0  0  0  0
 23 24  1  0  0  0  0
 24 25  2  0  0  0  0
 24 27  1  0  0  0  0
 27 26  1  1  0  0  0
 27 28  1  0  0  0  0
 28 29  1  0  0  0  0
 29 33  1  0  0  0  0
 31 30  2  0  0  0  0
 31 32  1  0  0  0  0
 33 31  1  0  0  0  0
 35 34  1  0  0  0  0
 37 38  1  0  0  0  0
 37 36  1  0  0  0  0
M  END
>  <MODEL>
4

>  <REMARK>
 VINA RESULT:      -6.3      2.529      4.639
  Name = 
  13 active torsions:
  status: ('A' for Active; 'I' for Inactive)
    1  A    between atoms: C_4  and  C_26
    2  A    between atoms: C_4  and  C_29
    3  A    between atoms: C_9  and  C_29
    4  A    between atoms: C_9  and  C_30
    5  A    between atoms: C_10  and  O_33
    6  A    between atoms: C_14  and  C_26
    7  A    between atoms: C_14  and  C_37
    8  A    between atoms: C_20  and  N_23
    9  A    between atoms: C_20  and  C_31
   10  A    between atoms: C_22  and  C_28
   11  A    between atoms: C_26  and  O_32
   12  A    between atoms: C_31  and  C_37
   13  A    between atoms: O_33  and  C_38
                            x       y       z     vdW  Elec       q    Type
                         _______ _______ _______ _____ _____    ______ ____

>  <TORSDO>
F 13

$$$$
=
 OpenBabel11062414393D

 38 39  0  0  1  0  0  0  0  0999 V2000
  189.7120  176.1390  136.7890 C   0  0  2  0  0  3  0  0  0  0  0  0
  190.7010  175.6410  137.8580 C   0  0  2  0  0  3  0  0  0  0  0  0
  188.3300  178.8800  138.5350 O   0  0  0  0  0  0  0  0  0  0  0  0
  189.2360  178.1020  138.2730 C   0  0  0  0  0  0  0  0  0  0  0  0
  190.3750  176.1440  139.2670 C   0  0  0  0  0  2  0  0  0  0  0  0
  191.0170  173.3290  136.4400 O   0  0  0  0  0  0  0  0  0  0  0  0
  192.4350  175.2020  135.7040 C   0  0  2  0  0  3  0  0  0  0  0  0
  192.4540  175.9050  137.4070 S   0  0  0  0  0  0  0  0  0  0  0  0
  189.4350  177.6460  136.8600 C   0  0  0  0  0  2  0  0  0  0  0  0
  188.6940  173.7830  136.7440 C   0  0  0  0  0  2  0  0  0  0  0  0
  191.8440  176.1440  134.6750 C   0  0  0  0  0  1  0  0  0  0  0  0
  191.9690  173.7510  135.5020 C   0  0  1  0  0  3  0  0  0  0  0  0
  190.2290  177.6640  139.3170 C   0  0  2  0  0  3  0  0  0  0  0  0
  187.6830  175.6330  135.5190 N   0  0  0  0  0  1  0  0  0  0  0  0
  188.4340  175.2970  136.7180 C   0  0  2  0  0  3  0  0  0  0  0  0
  189.7820  173.3290  135.7730 C   0  0  2  0  0  3  0  0  0  0  0  0
  194.3160  173.2750  135.5320 O   0  0  0  0  0  1  0  0  0  0  0  0
  192.9250  171.4510  135.4450 O   0  0  0  0  0  0  0  0  0  0  0  0
  193.1390  172.8230  135.5040 C   0  0  0  0  0  0  0  0  0  0  0  0
  189.8170  178.1030  140.7200 C   0  0  0  0  0  2  0  0  0  0  0  0
  190.6650  177.4170  141.7790 C   0  0  0  0  0  2  0  0  0  0  0  0
  190.5630  178.1540  143.1030 C   0  0  0  0  0  2  0  0  0  0  0  0
  189.7650  177.3280  144.0980 C   0  0  2  0  0  3  0  0  0  0  0  0
  190.5750  177.0360  145.3260 C   0  0  0  0  0  0  0  0  0  0  0  0
  191.6710  176.5000  145.2320 O   0  0  0  0  0  0  0  0  0  0  0  0
  189.7570  176.2350  147.4000 O   0  0  0  0  0  1  0  0  0  0  0  0
  190.0170  177.3940  146.6660 C   0  0  2  0  0  3  0  0  0  0  0  0
  188.7430  178.2090  146.5090 C   0  0  0  0  0  2  0  0  0  0  0  0
  187.5580  177.4780  147.1180 C   0  0  0  0  0  2  0  0  0  0  0  0
  185.6980  179.6330  147.2690 O   0  0  0  0  0  0  0  0  0  0  0  0
  185.4830  178.7320  146.4160 C   0  0  0  0  0  0  0  0  0  0  0  0
  184.2710  178.7970  145.5620 C   0  0  0  0  0  1  0  0  0  0  0  0
  186.3900  177.6390  146.2660 N   0  0  0  0  0  2  0  0  0  0  0  0
  189.3530  176.1320  143.5030 O   0  0  0  0  0  0  0  0  0  0  0  0
  187.9630  176.2330  143.4310 C   0  0  0  0  0  1  0  0  0  0  0  0
  189.4920  172.0320  135.3400 O   0  0  0  0  0  0  0  0  0  0  0  0
  188.1560  171.8270  135.6910 C   0  0  0  0  0  2  0  0  0  0  0  0
  187.8070  170.5000  135.4410 O   0  0  0  0  0  1  0  0  0  0  0  0
  1  9  1  1  0  0  0
  1  2  1  0  0  0  0
  2  5  1  1  0  0  0
  4  3  2  0  0  0  0
  4 13  1  0  0  0  0
  5 13  1  0  0  0  0
  7 11  1  6  0  0  0
  7  8  1  0  0  0  0
  8  2  1  0  0  0  0
  9  4  1  0  0  0  0
 12 19  1  1  0  0  0
 12  7  1  0  0  0  0
 12  6  1  0  0  0  0
 13 20  1  1  0  0  0
 15 14  1  6  0  0  0
 15 10  1  0  0  0  0
 15  1  1  0  0  0  0
 16 36  1  1  0  0  0
 16  6  1  0  0  0  0
 16 10  1  0  0  0  0
 18 19  2  0  0  0  0
 19 17  1  0  0  0  0
 20 21  1  0  0  0  0
 21 22  1  0  0  0  0
 23 22  1  6  0  0  0
 23 24  1  0  0  0  0
 24 27  1  0  0  0  0
 25 24  2  0  0  0  0
 27 26  1  1  0  0  0
 28 27  1  0  0  0  0
 28 29  1  0  0  0  0
 31 30  2  0  0  0  0
 32 31  1  0  0  0  0
 33 31  1  0  0  0  0
 33 29  1  0  0  0  0
 34 23  1  0  0  0  0
 35 34  1  0  0  0  0
 36 37  1  0  0  0  0
 38 37  1  0  0  0  0
M  END
>  <MODEL>
5

>  <REMARK>
 VINA RESULT:      -6.3      5.659      8.402
  Name = 
  13 active torsions:
  status: ('A' for Active; 'I' for Inactive)
    1  A    between atoms: C_4  and  C_26
    2  A    between atoms: C_4  and  C_29
    3  A    between atoms: C_9  and  C_29
    4  A    between atoms: C_9  and  C_30
    5  A    between atoms: C_10  and  O_33
    6  A    between atoms: C_14  and  C_26
    7  A    between atoms: C_14  and  C_37
    8  A    between atoms: C_20  and  N_23
    9  A    between atoms: C_20  and  C_31
   10  A    between atoms: C_22  and  C_28
   11  A    between atoms: C_26  and  O_32
   12  A    between atoms: C_31  and  C_37
   13  A    between atoms: O_33  and  C_38
                            x       y       z     vdW  Elec       q    Type
                         _______ _______ _______ _____ _____    ______ ____

>  <TORSDO>
F 13

$$$$
=
 OpenBabel11062414393D

 38 39  0  0  1  0  0  0  0  0999 V2000
  181.2270  177.8900  140.2160 C   0  0  2  0  0  3  0  0  0  0  0  0
  182.7530  177.6970  140.2730 C   0  0  2  0  0  3  0  0  0  0  0  0
  180.7320  179.4000  143.3700 O   0  0  0  0  0  0  0  0  0  0  0  0
  181.3960  179.1550  142.3720 C   0  0  0  0  0  0  0  0  0  0  0  0
  183.3180  177.7530  141.6950 C   0  0  0  0  0  2  0  0  0  0  0  0
  182.5910  176.0420  138.1080 O   0  0  0  0  0  0  0  0  0  0  0  0
  182.7070  178.4420  137.5740 C   0  0  2  0  0  3  0  0  0  0  0  0
  183.6670  178.7750  139.1120 S   0  0  0  0  0  0  0  0  0  0  0  0
  180.7260  179.0860  141.0350 C   0  0  0  0  0  2  0  0  0  0  0  0
  181.0040  175.3730  139.7600 C   0  0  0  0  0  2  0  0  0  0  0  0
  181.3920  179.1930  137.5170 C   0  0  0  0  0  1  0  0  0  0  0  0
  182.5730  176.9930  137.0790 C   0  0  1  0  0  3  0  0  0  0  0  0
  182.8950  179.0220  142.4340 C   0  0  2  0  0  3  0  0  0  0  0  0
  179.0490  176.7770  140.1530 N   0  0  0  0  0  1  0  0  0  0  0  0
  180.4500  176.5990  140.5010 C   0  0  2  0  0  3  0  0  0  0  0  0
  181.2640  175.6170  138.2740 C   0  0  2  0  0  3  0  0  0  0  0  0
  184.5760  177.4980  135.8680 O   0  0  0  0  0  1  0  0  0  0  0  0
  183.5630  175.5060  135.3430 O   0  0  0  0  0  0  0  0  0  0  0  0
  183.6330  176.6850  136.0740 C   0  0  0  0  0  0  0  0  0  0  0  0
  183.4090  178.9850  143.8700 C   0  0  0  0  0  2  0  0  0  0  0  0
  184.9170  179.1710  143.9180 C   0  0  0  0  0  2  0  0  0  0  0  0
  185.6010  177.8770  144.3210 C   0  0  0  0  0  2  0  0  0  0  0  0
  186.7380  178.1690  145.2870 C   0  0  2  0  0  3  0  0  0  0  0  0
  188.0290  177.5890  144.7890 C   0  0  0  0  0  0  0  0  0  0  0  0
  188.9740  177.4360  145.5520 O   0  0  0  0  0  0  0  0  0  0  0  0
  188.2390  175.8300  143.2170 O   0  0  0  0  0  1  0  0  0  0  0  0
  188.1490  177.2170  143.3460 C   0  0  2  0  0  3  0  0  0  0  0  0
  189.3720  177.8790  142.7300 C   0  0  0  0  0  2  0  0  0  0  0  0
  189.9680  177.0030  141.6410 C   0  0  0  0  0  2  0  0  0  0  0  0
  190.8220  175.9310  139.1420 O   0  0  0  0  0  0  0  0  0  0  0  0
  190.0670  176.9380  139.1200 C   0  0  0  0  0  0  0  0  0  0  0  0
  189.6870  177.5480  137.8210 C   0  0  0  0  0  1  0  0  0  0  0  0
  189.5770  177.5090  140.3340 N   0  0  0  0  0  2  0  0  0  0  0  0
  186.4360  177.6480  146.5490 O   0  0  0  0  0  0  0  0  0  0  0  0
  186.1820  178.7680  147.3420 C   0  0  0  0  0  1  0  0  0  0  0  0
  181.0710  174.4220  137.5770 O   0  0  0  0  0  0  0  0  0  0  0  0
  179.7770  174.0160  137.9110 C   0  0  0  0  0  2  0  0  0  0  0  0
  179.7380  172.6260  138.0200 O   0  0  0  0  0  1  0  0  0  0  0  0
  1  2  1  0  0  0  0
  1 15  1  0  0  0  0
  1  9  1  1  0  0  0
  2  5  1  1  0  0  0
  4 13  1  0  0  0  0
  4  3  2  0  0  0  0
  5 13  1  0  0  0  0
  6 16  1  0  0  0  0
  7 11  1  1  0  0  0
  7  8  1  0  0  0  0
  8  2  1  0  0  0  0
  9  4  1  0  0  0  0
 10 15  1  0  0  0  0
 12 19  1  6  0  0  0
 12  7  1  0  0  0  0
 12  6  1  0  0  0  0
 13 20  1  1  0  0  0
 15 14  1  6  0  0  0
 16 36  1  6  0  0  0
 16 10  1  0  0  0  0
 17 19  1  0  0  0  0
 18 19  2  0  0  0  0
 20 21  1  0  0  0  0
 21 22  1  0  0  0  0
 23 22  1  6  0  0  0
 23 34  1  0  0  0  0
 24 23  1  0  0  0  0
 24 25  2  0  0  0  0
 27 26  1  1  0  0  0
 27 24  1  0  0  0  0
 28 27  1  0  0  0  0
 29 28  1  0  0  0  0
 31 30  2  0  0  0  0
 31 33  1  0  0  0  0
 32 31  1  0  0  0  0
 33 29  1  0  0  0  0
 34 35  1  0  0  0  0
 36 37  1  0  0  0  0
 37 38  1  0  0  0  0
M  END
>  <MODEL>
6

>  <REMARK>
 VINA RESULT:      -6.0      2.166      4.019
  Name = 
  13 active torsions:
  status: ('A' for Active; 'I' for Inactive)
    1  A    between atoms: C_4  and  C_26
    2  A    between atoms: C_4  and  C_29
    3  A    between atoms: C_9  and  C_29
    4  A    between atoms: C_9  and  C_30
    5  A    between atoms: C_10  and  O_33
    6  A    between atoms: C_14  and  C_26
    7  A    between atoms: C_14  and  C_37
    8  A    between atoms: C_20  and  N_23
    9  A    between atoms: C_20  and  C_31
   10  A    between atoms: C_22  and  C_28
   11  A    between atoms: C_26  and  O_32
   12  A    between atoms: C_31  and  C_37
   13  A    between atoms: O_33  and  C_38
                            x       y       z     vdW  Elec       q    Type
                         _______ _______ _______ _____ _____    ______ ____

>  <TORSDO>
F 13

$$$$
=
 OpenBabel11062414393D

 38 39  0  0  1  0  0  0  0  0999 V2000
  182.4440  178.0220  137.9970 C   0  0  2  0  0  3  0  0  0  0  0  0
  183.1760  178.6990  139.1690 C   0  0  2  0  0  3  0  0  0  0  0  0
  185.2420  176.9200  136.1450 O   0  0  0  0  0  0  0  0  0  0  0  0
  184.6730  177.2120  137.1880 C   0  0  0  0  0  0  0  0  0  0  0  0
  184.6360  179.0380  138.8570 C   0  0  0  0  0  2  0  0  0  0  0  0
  180.8270  179.8740  139.9150 O   0  0  0  0  0  0  0  0  0  0  0  0
  181.1580  177.5850  140.7590 C   0  0  2  0  0  3  0  0  0  0  0  0
  182.9870  177.8090  140.7560 S   0  0  0  0  0  0  0  0  0  0  0  0
  183.2280  176.8640  137.3660 C   0  0  0  0  0  2  0  0  0  0  0  0
  181.2130  180.2380  137.5890 C   0  0  0  0  0  2  0  0  0  0  0  0
  180.6940  176.4530  139.8640 C   0  0  0  0  0  1  0  0  0  0  0  0
  180.2550  178.8240  140.6470 C   0  0  1  0  0  3  0  0  0  0  0  0
  185.4140  177.8250  138.3470 C   0  0  2  0  0  3  0  0  0  0  0  0
  181.0010  178.3580  136.0490 N   0  0  0  0  0  1  0  0  0  0  0  0
  181.9170  179.0240  136.9630 C   0  0  2  0  0  3  0  0  0  0  0  0
  180.1920  179.8710  138.6640 C   0  0  2  0  0  3  0  0  0  0  0  0
  180.0810  180.4910  142.3570 O   0  0  0  0  0  0  0  0  0  0  0  0
  179.2520  178.4180  142.8910 O   0  0  0  0  0  1  0  0  0  0  0  0
  179.8550  179.3010  142.0040 C   0  0  0  0  0  0  0  0  0  0  0  0
  186.8330  178.2380  137.9680 C   0  0  0  0  0  2  0  0  0  0  0  0
  187.8390  177.1680  138.3590 C   0  0  0  0  0  2  0  0  0  0  0  0
  189.0210  177.7860  139.0840 C   0  0  0  0  0  2  0  0  0  0  0  0
  189.2030  177.1250  140.4410 C   0  0  2  0  0  3  0  0  0  0  0  0
  188.5390  177.9250  141.5220 C   0  0  0  0  0  0  0  0  0  0  0  0
  188.1020  179.0430  141.2850 O   0  0  0  0  0  0  0  0  0  0  0  0
  189.1840  176.1690  142.9750 O   0  0  0  0  0  1  0  0  0  0  0  0
  188.4340  177.3440  142.8960 C   0  0  2  0  0  3  0  0  0  0  0  0
  186.9800  177.0590  143.2400 C   0  0  0  0  0  2  0  0  0  0  0  0
  186.4460  178.0940  144.2160 C   0  0  0  0  0  2  0  0  0  0  0  0
  184.3370  178.6440  146.0540 O   0  0  0  0  0  0  0  0  0  0  0  0
  184.0720  178.6980  144.8240 C   0  0  0  0  0  0  0  0  0  0  0  0
  182.6880  179.0000  144.3790 C   0  0  0  0  0  1  0  0  0  0  0  0
  185.0870  178.4630  143.8480 N   0  0  0  0  0  2  0  0  0  0  0  0
  190.5640  176.9810  140.7220 O   0  0  0  0  0  0  0  0  0  0  0  0
  191.1920  177.0530  139.4780 C   0  0  0  0  0  1  0  0  0  0  0  0
  179.1700  180.8250  138.6630 O   0  0  0  0  0  0  0  0  0  0  0  0
  179.6320  181.8460  137.8290 C   0  0  0  0  0  2  0  0  0  0  0  0
  179.3480  183.0830  138.4070 O   0  0  0  0  0  1  0  0  0  0  0  0
  1  9  1  6  0  0  0
  1  2  1  0  0  0  0
  2  5  1  6  0  0  0
  2  8  1  0  0  0  0
  3  4  2  0  0  0  0
  4  9  1  0  0  0  0
  4 13  1  0  0  0  0
  6 12  1  0  0  0  0
  7 11  1  6  0  0  0
  8  7  1  0  0  0  0
 10 16  1  0  0  0  0
 12  7  1  0  0  0  0
 12 19  1  1  0  0  0
 13 20  1  6  0  0  0
 13  5  1  0  0  0  0
 15 14  1  6  0  0  0
 15 10  1  0  0  0  0
 15  1  1  0  0  0  0
 16 36  1  1  0  0  0
 16  6  1  0  0  0  0
 19 17  2  0  0  0  0
 19 18  1  0  0  0  0
 20 21  1  0  0  0  0
 21 22  1  0  0  0  0
 23 22  1  6  0  0  0
 23 34  1  0  0  0  0
 23 24  1  0  0  0  0
 24 27  1  0  0  0  0
 25 24  2  0  0  0  0
 27 26  1  6  0  0  0
 27 28  1  0  0  0  0
 28 29  1  0  0  0  0
 31 30  2  0  0  0  0
 32 31  1  0  0  0  0
 33 29  1  0  0  0  0
 33 31  1  0  0  0  0
 35 34  1  0  0  0  0
 37 38  1  0  0  0  0
 37 36  1  0  0  0  0
M  END
>  <MODEL>
7

>  <REMARK>
 VINA RESULT:      -5.9      2.716      4.769
  Name = 
  13 active torsions:
  status: ('A' for Active; 'I' for Inactive)
    1  A    between atoms: C_4  and  C_26
    2  A    between atoms: C_4  and  C_29
    3  A    between atoms: C_9  and  C_29
    4  A    between atoms: C_9  and  C_30
    5  A    between atoms: C_10  and  O_33
    6  A    between atoms: C_14  and  C_26
    7  A    between atoms: C_14  and  C_37
    8  A    between atoms: C_20  and  N_23
    9  A    between atoms: C_20  and  C_31
   10  A    between atoms: C_22  and  C_28
   11  A    between atoms: C_26  and  O_32
   12  A    between atoms: C_31  and  C_37
   13  A    between atoms: O_33  and  C_38
                            x       y       z     vdW  Elec       q    Type
                         _______ _______ _______ _____ _____    ______ ____

>  <TORSDO>
F 13

$$$$
=
 OpenBabel11062414393D

 38 39  0  0  1  0  0  0  0  0999 V2000
  181.7410  178.1440  140.3450 C   0  0  2  0  0  3  0  0  0  0  0  0
  183.1960  177.9800  140.8170 C   0  0  2  0  0  3  0  0  0  0  0  0
  180.2890  179.2510  143.3670 O   0  0  0  0  0  0  0  0  0  0  0  0
  181.2210  179.1440  142.5830 C   0  0  0  0  0  0  0  0  0  0  0  0
  183.3320  177.8780  142.3390 C   0  0  0  0  0  2  0  0  0  0  0  0
  183.7470  176.5940  138.5300 O   0  0  0  0  0  0  0  0  0  0  0  0
  183.8740  179.0430  138.3170 C   0  0  2  0  0  3  0  0  0  0  0  0
  184.3400  179.2100  140.0920 S   0  0  0  0  0  0  0  0  0  0  0  0
  180.9620  179.2210  141.1100 C   0  0  0  0  0  2  0  0  0  0  0  0
  181.7980  175.6960  139.5720 C   0  0  0  0  0  2  0  0  0  0  0  0
  182.5900  179.7670  137.9660 C   0  0  0  0  0  1  0  0  0  0  0  0
  183.9680  177.6620  137.6490 C   0  0  1  0  0  3  0  0  0  0  0  0
  182.6460  179.0380  143.0580 C   0  0  2  0  0  3  0  0  0  0  0  0
  179.7350  176.9970  139.5370 N   0  0  0  0  0  1  0  0  0  0  0  0
  180.9890  176.8110  140.2510 C   0  0  2  0  0  3  0  0  0  0  0  0
  182.4540  176.1230  138.2600 C   0  0  2  0  0  3  0  0  0  0  0  0
  185.4540  176.5940  136.1040 O   0  0  0  0  0  0  0  0  0  0  0  0
  186.3390  178.3430  137.3010 O   0  0  0  0  0  1  0  0  0  0  0  0
  185.2850  177.5020  136.9650 C   0  0  0  0  0  0  0  0  0  0  0  0
  182.7340  178.8400  144.5690 C   0  0  0  0  0  2  0  0  0  0  0  0
  184.1140  179.2060  145.0900 C   0  0  0  0  0  2  0  0  0  0  0  0
  184.5670  178.2110  146.1440 C   0  0  0  0  0  2  0  0  0  0  0  0
  186.0600  177.9580  146.0130 C   0  0  2  0  0  3  0  0  0  0  0  0
  186.7990  178.4790  147.2100 C   0  0  0  0  0  0  0  0  0  0  0  0
  186.4760  179.5410  147.7240 O   0  0  0  0  0  0  0  0  0  0  0  0
  188.8040  178.5280  148.4710 O   0  0  0  0  0  1  0  0  0  0  0  0
  187.9470  177.6900  147.7540 C   0  0  2  0  0  3  0  0  0  0  0  0
  188.7060  177.0110  146.6240 C   0  0  0  0  0  2  0  0  0  0  0  0
  189.8640  177.8760  146.1580 C   0  0  0  0  0  2  0  0  0  0  0  0
  190.9320  179.3610  143.9720 O   0  0  0  0  0  0  0  0  0  0  0  0
  190.9500  178.1040  143.8910 C   0  0  0  0  0  0  0  0  0  0  0  0
  191.4790  177.4500  142.6680 C   0  0  0  0  0  1  0  0  0  0  0  0
  190.4590  177.2980  144.9620 N   0  0  0  0  0  2  0  0  0  0  0  0
  186.5460  178.5640  144.8510 O   0  0  0  0  0  0  0  0  0  0  0  0
  186.8000  177.5040  143.9800 C   0  0  0  0  0  1  0  0  0  0  0  0
  182.5330  175.0160  137.4110 O   0  0  0  0  0  0  0  0  0  0  0  0
  181.5200  174.1580  137.8440 C   0  0  0  0  0  2  0  0  0  0  0  0
  181.3380  173.1420  136.9060 O   0  0  0  0  0  1  0  0  0  0  0  0
  1  2  1  0  0  0  0
  1  9  1  1  0  0  0
  2  5  1  1  0  0  0
  4 13  1  0  0  0  0
  4  3  2  0  0  0  0
  5 13  1  0  0  0  0
  7 11  1  1  0  0  0
  7  8  1  0  0  0  0
  8  2  1  0  0  0  0
  9  4  1  0  0  0  0
 10 15  1  0  0  0  0
 12 19  1  1  0  0  0
 12  7  1  0  0  0  0
 12  6  1  0  0  0  0
 13 20  1  1  0  0  0
 15 14  1  6  0  0  0
 15  1  1  0  0  0  0
 16 36  1  6  0  0  0
 16  6  1  0  0  0  0
 16 10  1  0  0  0  0
 17 19  2  0  0  0  0
 19 18  1  0  0  0  0
 20 21  1  0  0  0  0
 21 22  1  0  0  0  0
 23 22  1  1  0  0  0
 23 24  1  0  0  0  0
 24 25  2  0  0  0  0
 24 27  1  0  0  0  0
 27 26  1  6  0  0  0
 28 27  1  0  0  0  0
 29 28  1  0  0  0  0
 31 30  2  0  0  0  0
 31 33  1  0  0  0  0
 32 31  1  0  0  0  0
 33 29  1  0  0  0  0
 34 23  1  0  0  0  0
 35 34  1  0  0  0  0
 36 37  1  0  0  0  0
 38 37  1  0  0  0  0
M  END
>  <MODEL>
8

>  <REMARK>
 VINA RESULT:      -5.8      2.176      3.603
  Name = 
  13 active torsions:
  status: ('A' for Active; 'I' for Inactive)
    1  A    between atoms: C_4  and  C_26
    2  A    between atoms: C_4  and  C_29
    3  A    between atoms: C_9  and  C_29
    4  A    between atoms: C_9  and  C_30
    5  A    between atoms: C_10  and  O_33
    6  A    between atoms: C_14  and  C_26
    7  A    between atoms: C_14  and  C_37
    8  A    between atoms: C_20  and  N_23
    9  A    between atoms: C_20  and  C_31
   10  A    between atoms: C_22  and  C_28
   11  A    between atoms: C_26  and  O_32
   12  A    between atoms: C_31  and  C_37
   13  A    between atoms: O_33  and  C_38
                            x       y       z     vdW  Elec       q    Type
                         _______ _______ _______ _____ _____    ______ ____

>  <TORSDO>
F 13

$$$$
=
 OpenBabel11062414393D

 38 39  0  0  1  0  0  0  0  0999 V2000
  185.6160  177.9450  137.2160 C   0  0  2  0  0  3  0  0  0  0  0  0
  186.0340  176.4650  137.1640 C   0  0  2  0  0  3  0  0  0  0  0  0
  188.8180  179.4340  137.2400 O   0  0  0  0  0  0  0  0  0  0  0  0
  188.0340  178.5450  136.9400 C   0  0  0  0  0  0  0  0  0  0  0  0
  187.4810  176.2270  137.6050 C   0  0  0  0  0  2  0  0  0  0  0  0
  183.4720  175.7550  137.7830 O   0  0  0  0  0  0  0  0  0  0  0  0
  183.8850  176.1700  135.3920 C   0  0  2  0  0  3  0  0  0  0  0  0
  185.6460  175.6550  135.5700 S   0  0  0  0  0  0  0  0  0  0  0  0
  186.6280  178.8950  136.5610 C   0  0  0  0  0  2  0  0  0  0  0  0
  184.2500  177.4050  139.3210 C   0  0  0  0  0  2  0  0  0  0  0  0
  183.7270  177.5970  134.9090 C   0  0  0  0  0  1  0  0  0  0  0  0
  182.8900  175.8180  136.5090 C   0  0  1  0  0  3  0  0  0  0  0  0
  188.4690  177.1070  136.8410 C   0  0  2  0  0  3  0  0  0  0  0  0
  184.5420  179.6980  138.5430 N   0  0  0  0  0  1  0  0  0  0  0  0
  185.1880  178.3970  138.6160 C   0  0  2  0  0  3  0  0  0  0  0  0
  183.0900  176.9290  138.4480 C   0  0  2  0  0  3  0  0  0  0  0  0
  182.3460  173.9750  135.0800 O   0  0  0  0  0  0  0  0  0  0  0  0
  181.3370  173.9760  137.1420 O   0  0  0  0  0  1  0  0  0  0  0  0
  182.1890  174.5360  136.1990 C   0  0  0  0  0  0  0  0  0  0  0  0
  189.8810  176.8960  137.3810 C   0  0  0  0  0  2  0  0  0  0  0  0
  189.8490  176.3040  138.7810 C   0  0  0  0  0  2  0  0  0  0  0  0
  190.1810  177.3640  139.8160 C   0  0  0  0  0  2  0  0  0  0  0  0
  191.0050  176.7550  140.9390 C   0  0  2  0  0  3  0  0  0  0  0  0
  190.1610  176.5160  142.1560 C   0  0  0  0  0  0  0  0  0  0  0  0
  190.1790  175.4300  142.7180 O   0  0  0  0  0  0  0  0  0  0  0  0
  189.9510  178.3420  143.6500 O   0  0  0  0  0  1  0  0  0  0  0  0
  189.2840  177.6170  142.6600 C   0  0  2  0  0  3  0  0  0  0  0  0
  187.9860  177.0490  143.2140 C   0  0  0  0  0  2  0  0  0  0  0  0
  186.7930  177.8460  142.7140 C   0  0  0  0  0  2  0  0  0  0  0  0
  184.1820  178.9570  142.4510 O   0  0  0  0  0  0  0  0  0  0  0  0
  184.5910  178.6890  143.6110 C   0  0  0  0  0  0  0  0  0  0  0  0
  183.7340  178.9920  144.7850 C   0  0  0  0  0  1  0  0  0  0  0  0
  185.8770  178.1030  143.8140 N   0  0  0  0  0  2  0  0  0  0  0  0
  192.0730  177.5980  141.2580 O   0  0  0  0  0  0  0  0  0  0  0  0
  192.9670  177.4530  140.1960 C   0  0  0  0  0  1  0  0  0  0  0  0
  181.9880  176.6600  139.2650 O   0  0  0  0  0  0  0  0  0  0  0  0
  181.4200  177.9090  139.5250 C   0  0  0  0  0  2  0  0  0  0  0  0
  180.6180  177.8280  140.6630 O   0  0  0  0  0  1  0  0  0  0  0  0
  1  9  1  1  0  0  0
  1 15  1  0  0  0  0
  2  1  1  0  0  0  0
  2  5  1  6  0  0  0
  4  3  2  0  0  0  0
  6 16  1  0  0  0  0
  7 11  1  1  0  0  0
  7  8  1  0  0  0  0
  7 12  1  0  0  0  0
  8  2  1  0  0  0  0
  9  4  1  0  0  0  0
 12 19  1  6  0  0  0
 12  6  1  0  0  0  0
 13  4  1  0  0  0  0
 13 20  1  1  0  0  0
 13  5  1  0  0  0  0
 15 14  1  6  0  0  0
 15 10  1  0  0  0  0
 16 36  1  1  0  0  0
 16 10  1  0  0  0  0
 17 19  2  0  0  0  0
 19 18  1  0  0  0  0
 20 21  1  0  0  0  0
 21 22  1  0  0  0  0
 23 22  1  6  0  0  0
 23 34  1  0  0  0  0
 23 24  1  0  0  0  0
 24 27  1  0  0  0  0
 24 25  2  0  0  0  0
 27 28  1  0  0  0  0
 27 26  1  1  0  0  0
 29 28  1  0  0  0  0
 29 33  1  0  0  0  0
 30 31  2  0  0  0  0
 31 33  1  0  0  0  0
 31 32  1  0  0  0  0
 35 34  1  0  0  0  0
 36 37  1  0  0  0  0
 37 38  1  0  0  0  0
M  END
>  <MODEL>
9

>  <REMARK>
 VINA RESULT:      -5.7      3.171      5.225
  Name = 
  13 active torsions:
  status: ('A' for Active; 'I' for Inactive)
    1  A    between atoms: C_4  and  C_26
    2  A    between atoms: C_4  and  C_29
    3  A    between atoms: C_9  and  C_29
    4  A    between atoms: C_9  and  C_30
    5  A    between atoms: C_10  and  O_33
    6  A    between atoms: C_14  and  C_26
    7  A    between atoms: C_14  and  C_37
    8  A    between atoms: C_20  and  N_23
    9  A    between atoms: C_20  and  C_31
   10  A    between atoms: C_22  and  C_28
   11  A    between atoms: C_26  and  O_32
   12  A    between atoms: C_31  and  C_37
   13  A    between atoms: O_33  and  C_38
                            x       y       z     vdW  Elec       q    Type
                         _______ _______ _______ _____ _____    ______ ____

>  <TORSDO>
F 13

$$$$
