=
 OpenBabel11062416503D

 34 38  0  0  1  0  0  0  0  0999 V2000
  183.4970  179.3930  144.0110 C   0  0  0  0  0  1  0  0  0  0  0  0
  184.8570  178.8860  143.5380 C   0  0  1  0  0  3  0  0  0  0  0  0
  187.0540  178.6970  147.9830 C   0  0  0  0  0  2  0  0  0  0  0  0
  188.6500  176.8590  146.2830 C   0  0  2  0  0  3  0  0  0  0  0  0
  187.7700  178.3540  142.5090 O   0  0  0  0  0  0  0  0  0  0  0  0
  189.3380  177.9110  144.1750 N   0  0  0  0  0  0  0  0  0  0  0  0
  187.2900  177.3480  145.9230 C   0  0  2  0  0  3  0  0  0  0  0  0
  186.8380  177.4190  144.5100 C   0  0  2  0  0  3  0  0  0  0  0  0
  188.9990  176.9160  147.7890 C   0  0  1  0  0  3  0  0  0  0  0  0
  189.6830  177.4470  145.3480 C   0  0  0  0  0  0  0  0  0  0  0  0
  187.9850  177.9390  143.6770 C   0  0  0  0  0  0  0  0  0  0  0  0
  185.7420  178.4320  144.6640 C   0  0  0  0  0  0  0  0  0  0  0  0
  189.4570  178.2820  148.2620 C   0  0  0  0  0  2  0  0  0  0  0  0
  186.6010  178.2010  146.6520 C   0  0  2  0  0  3  0  0  0  0  0  0
  188.0830  177.7910  148.6710 C   0  0  1  0  0  3  0  0  0  0  0  0
  185.6210  178.8690  145.8770 N   0  0  0  0  0  0  0  0  0  0  0  0
  191.0280  177.4340  145.7290 O   0  0  0  0  0  0  0  0  0  0  0  0
  191.8210  176.2560  145.6790 C   0  0  0  0  0  1  0  0  0  0  0  0
  184.7840  177.9700  142.4620 O   0  0  0  0  0  0  0  0  0  0  0  0
  183.0840  177.7730  140.7990 C   0  0  0  0  0  2  0  0  0  0  0  0
  185.2680  178.1680  138.0210 C   0  0  0  0  0  1  0  0  0  0  0  0
  184.2190  178.6060  141.3440 C   0  0  2  0  0  3  0  0  0  0  0  0
  184.4530  178.7970  139.1340 C   0  0  2  0  0  3  0  0  0  0  0  0
  185.1800  178.7490  140.3340 O   0  0  0  0  0  0  0  0  0  0  0  0
  183.1480  178.0360  139.3170 C   0  0  2  0  0  3  0  0  0  0  0  0
  181.9210  178.8150  138.7850 C   0  0  0  0  0  0  0  0  0  0  0  0
  182.3320  180.2240  138.3810 C   0  0  0  0  0  1  0  0  0  0  0  0
  181.3220  178.1350  137.5600 C   0  0  0  0  0  1  0  0  0  0  0  0
  179.2300  180.0550  141.2530 N   0  0  0  0  0  2  0  0  0  0  0  0
  180.8860  178.8910  139.8140 N   0  0  0  0  0  2  0  0  0  0  0  0
  180.1960  180.0890  140.2020 C   0  0  0  0  0  0  0  0  0  0  0  0
  180.4370  181.1810  139.6210 O   0  0  0  0  0  0  0  0  0  0  0  0
  179.7590  178.8140  143.2810 C   0  0  0  0  0  1  0  0  0  0  0  0
  178.9350  178.8470  142.0090 C   0  0  0  0  0  2  0  0  0  0  0  0
  2  1  1  1  0  0  0
  2 12  1  0  0  0  0
  3 15  1  0  0  0  0
  4 10  1  6  0  0  0
  4  9  1  0  0  0  0
  5 11  2  0  0  0  0
  6 10  2  0  0  0  0
  7  4  1  0  0  0  0
  7 14  1  0  0  0  0
  8 12  1  0  0  0  0
  8  7  1  0  0  0  0
  9 13  1  0  0  0  0
  9 15  1  0  0  0  0
 10 17  1  0  0  0  0
 11  6  1  0  0  0  0
 11  8  1  0  0  0  0
 12 16  2  0  0  0  0
 13 15  1  0  0  0  0
 14  3  1  0  0  0  0
 16 14  1  0  0  0  0
 18 17  1  0  0  0  0
 19  2  1  0  0  0  0
 20 22  1  0  0  0  0
 21 23  1  0  0  0  0
 22 19  1  0  0  0  0
 23 25  1  0  0  0  0
 23 24  1  0  0  0  0
 24 22  1  0  0  0  0
 25 20  1  0  0  0  0
 26 25  1  0  0  0  0
 26 30  1  0  0  0  0
 27 26  1  0  0  0  0
 28 26  1  0  0  0  0
 29 34  1  0  0  0  0
 30 31  1  0  0  0  0
 31 29  1  0  0  0  0
 32 31  2  0  0  0  0
 34 33  1  0  0  0  0
M  END
>  <MODEL>
1

>  <REMARK>
 VINA RESULT:      -8.9      0.000      0.000
  Name = 
  7 active torsions:
  status: ('A' for Active; 'I' for Inactive)
    1  A    between atoms: O_1  and  C_17
    2  A    between atoms: N_6  and  C_25
    3  A    between atoms: C_10  and  N_12
    4  A    between atoms: C_10  and  C_31
    5  A    between atoms: C_18  and  O_27
    6  A    between atoms: C_23  and  C_32
    7  A    between atoms: O_27  and  C_32
                            x       y       z     vdW  Elec       q    Type
                         _______ _______ _______ _____ _____    ______ ____

>  <TORSDO>
F 7

$$$$
=
 OpenBabel11062416503D

 34 38  0  0  1  0  0  0  0  0999 V2000
  191.2710  178.0280  141.5050 C   0  0  0  0  0  1  0  0  0  0  0  0
  190.4530  176.7570  141.7220 C   0  0  1  0  0  3  0  0  0  0  0  0
  186.0690  178.6570  143.0610 C   0  0  0  0  0  2  0  0  0  0  0  0
  186.9620  177.1010  145.4260 C   0  0  2  0  0  3  0  0  0  0  0  0
  191.0650  177.0250  144.7850 O   0  0  0  0  0  0  0  0  0  0  0  0
  189.2520  177.6720  146.0990 N   0  0  0  0  0  0  0  0  0  0  0  0
  187.5470  176.9470  144.0660 C   0  0  2  0  0  3  0  0  0  0  0  0
  188.9290  176.4410  143.8670 C   0  0  2  0  0  3  0  0  0  0  0  0
  185.5410  177.7110  145.4730 C   0  0  1  0  0  3  0  0  0  0  0  0
  187.9730  177.7220  146.3660 C   0  0  0  0  0  0  0  0  0  0  0  0
  189.8140  177.0710  144.9150 C   0  0  0  0  0  0  0  0  0  0  0  0
  189.1880  176.9950  142.4970 C   0  0  0  0  0  0  0  0  0  0  0  0
  185.5200  179.2250  145.3850 C   0  0  0  0  0  2  0  0  0  0  0  0
  187.1860  177.6700  143.0260 C   0  0  2  0  0  3  0  0  0  0  0  0
  185.0570  178.4180  144.1890 C   0  0  1  0  0  3  0  0  0  0  0  0
  188.1980  177.6910  142.0340 N   0  0  0  0  0  0  0  0  0  0  0  0
  187.5260  178.2990  147.5570 O   0  0  0  0  0  0  0  0  0  0  0  0
  188.1580  178.0520  148.8050 C   0  0  0  0  0  1  0  0  0  0  0  0
  190.2710  175.9860  140.5500 O   0  0  0  0  0  0  0  0  0  0  0  0
  188.6650  176.6690  138.9220 C   0  0  0  0  0  2  0  0  0  0  0  0
  190.7370  176.0350  136.1030 C   0  0  0  0  0  1  0  0  0  0  0  0
  190.0660  176.8420  139.4550 C   0  0  2  0  0  3  0  0  0  0  0  0
  190.3370  176.9510  137.2440 C   0  0  2  0  0  3  0  0  0  0  0  0
  190.9660  176.5310  138.4260 O   0  0  0  0  0  0  0  0  0  0  0  0
  188.8290  176.9040  137.4430 C   0  0  2  0  0  3  0  0  0  0  0  0
  188.1210  178.1880  136.9510 C   0  0  0  0  0  0  0  0  0  0  0  0
  189.0350  179.3920  137.1320 C   0  0  0  0  0  1  0  0  0  0  0  0
  187.7650  178.0920  135.4720 C   0  0  0  0  0  1  0  0  0  0  0  0
  184.5200  177.9600  138.3120 N   0  0  0  0  0  2  0  0  0  0  0  0
  186.8850  178.4050  137.7020 N   0  0  0  0  0  2  0  0  0  0  0  0
  185.6850  177.6310  137.5550 C   0  0  0  0  0  0  0  0  0  0  0  0
  185.6460  176.6580  136.7560 O   0  0  0  0  0  0  0  0  0  0  0  0
  183.5580  178.7930  140.3890 C   0  0  0  0  0  1  0  0  0  0  0  0
  184.4660  179.1010  139.2140 C   0  0  0  0  0  2  0  0  0  0  0  0
  2  1  1  6  0  0  0
  2 12  1  0  0  0  0
  3 15  1  0  0  0  0
  4  9  1  0  0  0  0
  4 10  1  1  0  0  0
  5 11  2  0  0  0  0
  6 10  2  0  0  0  0
  7  4  1  0  0  0  0
  8  7  1  0  0  0  0
  8 11  1  0  0  0  0
 10 17  1  0  0  0  0
 11  6  1  0  0  0  0
 12  8  1  0  0  0  0
 13  9  1  0  0  0  0
 14  3  1  0  0  0  0
 14  7  1  0  0  0  0
 15 13  1  0  0  0  0
 15  9  1  0  0  0  0
 16 12  2  0  0  0  0
 16 14  1  0  0  0  0
 17 18  1  0  0  0  0
 19  2  1  0  0  0  0
 20 22  1  0  0  0  0
 21 23  1  0  0  0  0
 22 19  1  0  0  0  0
 23 25  1  0  0  0  0
 23 24  1  0  0  0  0
 24 22  1  0  0  0  0
 25 20  1  0  0  0  0
 26 27  1  0  0  0  0
 26 25  1  0  0  0  0
 26 30  1  0  0  0  0
 28 26  1  0  0  0  0
 29 34  1  0  0  0  0
 31 30  1  0  0  0  0
 31 29  1  0  0  0  0
 32 31  2  0  0  0  0
 34 33  1  0  0  0  0
M  END
>  <MODEL>
2

>  <REMARK>
 VINA RESULT:      -8.8      3.203      5.418
  Name = 
  7 active torsions:
  status: ('A' for Active; 'I' for Inactive)
    1  A    between atoms: O_1  and  C_17
    2  A    between atoms: N_6  and  C_25
    3  A    between atoms: C_10  and  N_12
    4  A    between atoms: C_10  and  C_31
    5  A    between atoms: C_18  and  O_27
    6  A    between atoms: C_23  and  C_32
    7  A    between atoms: O_27  and  C_32
                            x       y       z     vdW  Elec       q    Type
                         _______ _______ _______ _____ _____    ______ ____

>  <TORSDO>
F 7

$$$$
=
 OpenBabel11062416503D

 34 38  0  0  1  0  0  0  0  0999 V2000
  183.2770  179.3480  143.9140 C   0  0  0  0  0  1  0  0  0  0  0  0
  184.6270  178.8190  143.4370 C   0  0  1  0  0  3  0  0  0  0  0  0
  186.8820  178.7810  147.8570 C   0  0  0  0  0  2  0  0  0  0  0  0
  188.4790  176.9150  146.1880 C   0  0  2  0  0  3  0  0  0  0  0  0
  187.5330  178.2940  142.3860 O   0  0  0  0  0  0  0  0  0  0  0  0
  189.1270  177.9170  144.0430 N   0  0  0  0  0  0  0  0  0  0  0  0
  187.1090  177.3780  145.8330 C   0  0  2  0  0  3  0  0  0  0  0  0
  186.6390  177.4030  144.4240 C   0  0  2  0  0  3  0  0  0  0  0  0
  188.8460  177.0180  147.6870 C   0  0  1  0  0  3  0  0  0  0  0  0
  189.4930  177.4890  145.2240 C   0  0  0  0  0  0  0  0  0  0  0  0
  187.7680  177.9140  143.5620 C   0  0  0  0  0  0  0  0  0  0  0  0
  185.5320  178.4070  144.5640 C   0  0  0  0  0  0  0  0  0  0  0  0
  189.2940  178.4020  148.1160 C   0  0  0  0  0  2  0  0  0  0  0  0
  186.4180  178.2420  146.5460 C   0  0  2  0  0  3  0  0  0  0  0  0
  187.9300  177.9060  148.5570 C   0  0  1  0  0  3  0  0  0  0  0  0
  185.4200  178.8770  145.7650 N   0  0  0  0  0  0  0  0  0  0  0  0
  190.8420  177.5030  145.5880 O   0  0  0  0  0  0  0  0  0  0  0  0
  191.6800  176.3640  145.4430 C   0  0  0  0  0  1  0  0  0  0  0  0
  184.5330  177.8610  142.3990 O   0  0  0  0  0  0  0  0  0  0  0  0
  183.0570  177.3920  140.5840 C   0  0  0  0  0  2  0  0  0  0  0  0
  185.2220  178.6280  138.0480 C   0  0  0  0  0  1  0  0  0  0  0  0
  183.8870  178.4350  141.2910 C   0  0  2  0  0  3  0  0  0  0  0  0
  184.1980  178.9040  139.1330 C   0  0  2  0  0  3  0  0  0  0  0  0
  184.8350  178.9280  140.3840 O   0  0  0  0  0  0  0  0  0  0  0  0
  183.1400  177.8100  139.1390 C   0  0  2  0  0  3  0  0  0  0  0  0
  181.7840  178.2880  138.5670 C   0  0  0  0  0  0  0  0  0  0  0  0
  181.5770  177.7180  137.1700 C   0  0  0  0  0  1  0  0  0  0  0  0
  180.6220  177.8230  139.4360 C   0  0  0  0  0  1  0  0  0  0  0  0
  180.7040  181.9510  138.0300 N   0  0  0  0  0  2  0  0  0  0  0  0
  181.7480  179.7480  138.5020 N   0  0  0  0  0  2  0  0  0  0  0  0
  180.6120  180.5270  138.0970 C   0  0  0  0  0  0  0  0  0  0  0  0
  179.5260  179.9640  137.7950 O   0  0  0  0  0  0  0  0  0  0  0  0
  181.9310  184.0090  137.5930 C   0  0  0  0  0  1  0  0  0  0  0  0
  181.9370  182.6720  138.3090 C   0  0  0  0  0  2  0  0  0  0  0  0
  2  1  1  1  0  0  0
  2 12  1  0  0  0  0
  3 15  1  0  0  0  0
  4 10  1  6  0  0  0
  4  9  1  0  0  0  0
  5 11  2  0  0  0  0
  6 10  2  0  0  0  0
  7  4  1  0  0  0  0
  7 14  1  0  0  0  0
  8 12  1  0  0  0  0
  8  7  1  0  0  0  0
  9 13  1  0  0  0  0
  9 15  1  0  0  0  0
 10 17  1  0  0  0  0
 11  6  1  0  0  0  0
 11  8  1  0  0  0  0
 12 16  2  0  0  0  0
 13 15  1  0  0  0  0
 14  3  1  0  0  0  0
 16 14  1  0  0  0  0
 18 17  1  0  0  0  0
 19  2  1  0  0  0  0
 20 22  1  0  0  0  0
 21 23  1  0  0  0  0
 22 19  1  0  0  0  0
 23 25  1  0  0  0  0
 23 24  1  0  0  0  0
 24 22  1  0  0  0  0
 25 20  1  0  0  0  0
 26 25  1  0  0  0  0
 26 28  1  0  0  0  0
 27 26  1  0  0  0  0
 29 31  1  0  0  0  0
 29 34  1  0  0  0  0
 30 26  1  0  0  0  0
 31 30  1  0  0  0  0
 32 31  2  0  0  0  0
 33 34  1  0  0  0  0
M  END
>  <MODEL>
3

>  <REMARK>
 VINA RESULT:      -8.7      1.295      2.072
  Name = 
  7 active torsions:
  status: ('A' for Active; 'I' for Inactive)
    1  A    between atoms: O_1  and  C_17
    2  A    between atoms: N_6  and  C_25
    3  A    between atoms: C_10  and  N_12
    4  A    between atoms: C_10  and  C_31
    5  A    between atoms: C_18  and  O_27
    6  A    between atoms: C_23  and  C_32
    7  A    between atoms: O_27  and  C_32
                            x       y       z     vdW  Elec       q    Type
                         _______ _______ _______ _____ _____    ______ ____

>  <TORSDO>
F 7

$$$$
=
 OpenBabel11062416503D

 34 38  0  0  1  0  0  0  0  0999 V2000
  183.5370  179.6200  144.1110 C   0  0  0  0  0  1  0  0  0  0  0  0
  184.8000  178.9080  143.6330 C   0  0  1  0  0  3  0  0  0  0  0  0
  187.0550  178.8070  148.0520 C   0  0  0  0  0  2  0  0  0  0  0  0
  188.6000  176.9010  146.3810 C   0  0  2  0  0  3  0  0  0  0  0  0
  187.6900  178.3060  142.5800 O   0  0  0  0  0  0  0  0  0  0  0  0
  189.2740  177.8850  144.2370 N   0  0  0  0  0  0  0  0  0  0  0  0
  187.2430  177.4000  146.0270 C   0  0  2  0  0  3  0  0  0  0  0  0
  186.7730  177.4380  144.6190 C   0  0  2  0  0  3  0  0  0  0  0  0
  188.9710  176.9930  147.8800 C   0  0  1  0  0  3  0  0  0  0  0  0
  189.6300  177.4480  145.4170 C   0  0  0  0  0  0  0  0  0  0  0  0
  187.9160  177.9200  143.7570 C   0  0  0  0  0  0  0  0  0  0  0  0
  185.6940  178.4720  144.7590 C   0  0  0  0  0  0  0  0  0  0  0  0
  189.4560  178.3650  148.3100 C   0  0  0  0  0  2  0  0  0  0  0  0
  186.5760  178.2820  146.7420 C   0  0  2  0  0  3  0  0  0  0  0  0
  188.0800  177.9050  148.7510 C   0  0  1  0  0  3  0  0  0  0  0  0
  185.5950  178.9430  145.9610 N   0  0  0  0  0  0  0  0  0  0  0  0
  190.9790  177.4250  145.7800 O   0  0  0  0  0  0  0  0  0  0  0  0
  191.7730  176.2510  145.6820 C   0  0  0  0  0  1  0  0  0  0  0  0
  184.5590  177.8990  142.6700 O   0  0  0  0  0  0  0  0  0  0  0  0
  183.0600  177.5070  140.8550 C   0  0  0  0  0  2  0  0  0  0  0  0
  185.4000  178.2940  138.2960 C   0  0  0  0  0  1  0  0  0  0  0  0
  184.0070  178.4790  141.5150 C   0  0  2  0  0  3  0  0  0  0  0  0
  184.4050  178.7660  139.3390 C   0  0  2  0  0  3  0  0  0  0  0  0
  185.0230  178.7890  140.6000 O   0  0  0  0  0  0  0  0  0  0  0  0
  183.2160  177.8180  139.3900 C   0  0  2  0  0  3  0  0  0  0  0  0
  181.9400  178.4260  138.7600 C   0  0  0  0  0  0  0  0  0  0  0  0
  180.7940  178.3910  139.7620 C   0  0  0  0  0  1  0  0  0  0  0  0
  182.1610  179.8780  138.3550 C   0  0  0  0  0  1  0  0  0  0  0  0
  180.7920  175.6650  136.3240 N   0  0  0  0  0  2  0  0  0  0  0  0
  181.5580  177.6750  137.5650 N   0  0  0  0  0  2  0  0  0  0  0  0
  181.0970  176.3150  137.5590 C   0  0  0  0  0  0  0  0  0  0  0  0
  180.9590  175.6830  138.6390 O   0  0  0  0  0  0  0  0  0  0  0  0
  182.4230  176.1900  134.5940 C   0  0  0  0  0  1  0  0  0  0  0  0
  180.9760  176.3080  135.0320 C   0  0  0  0  0  2  0  0  0  0  0  0
  2  1  1  1  0  0  0
  2 12  1  0  0  0  0
  3 15  1  0  0  0  0
  4 10  1  6  0  0  0
  4  9  1  0  0  0  0
  5 11  2  0  0  0  0
  6 10  2  0  0  0  0
  7  4  1  0  0  0  0
  7 14  1  0  0  0  0
  8 12  1  0  0  0  0
  8  7  1  0  0  0  0
  9 13  1  0  0  0  0
  9 15  1  0  0  0  0
 10 17  1  0  0  0  0
 11  6  1  0  0  0  0
 11  8  1  0  0  0  0
 12 16  2  0  0  0  0
 13 15  1  0  0  0  0
 14  3  1  0  0  0  0
 16 14  1  0  0  0  0
 18 17  1  0  0  0  0
 19  2  1  0  0  0  0
 20 22  1  0  0  0  0
 21 23  1  0  0  0  0
 22 19  1  0  0  0  0
 23 25  1  0  0  0  0
 23 24  1  0  0  0  0
 24 22  1  0  0  0  0
 25 20  1  0  0  0  0
 26 25  1  0  0  0  0
 26 27  1  0  0  0  0
 28 26  1  0  0  0  0
 29 31  1  0  0  0  0
 30 26  1  0  0  0  0
 31 30  1  0  0  0  0
 31 32  2  0  0  0  0
 33 34  1  0  0  0  0
 34 29  1  0  0  0  0
M  END
>  <MODEL>
4

>  <REMARK>
 VINA RESULT:      -8.5      1.629      2.809
  Name = 
  7 active torsions:
  status: ('A' for Active; 'I' for Inactive)
    1  A    between atoms: O_1  and  C_17
    2  A    between atoms: N_6  and  C_25
    3  A    between atoms: C_10  and  N_12
    4  A    between atoms: C_10  and  C_31
    5  A    between atoms: C_18  and  O_27
    6  A    between atoms: C_23  and  C_32
    7  A    between atoms: O_27  and  C_32
                            x       y       z     vdW  Elec       q    Type
                         _______ _______ _______ _____ _____    ______ ____

>  <TORSDO>
F 7

$$$$
=
 OpenBabel11062416503D

 34 38  0  0  1  0  0  0  0  0999 V2000
  185.1900  177.0800  146.3370 C   0  0  0  0  0  1  0  0  0  0  0  0
  186.0370  178.2980  145.9760 C   0  0  1  0  0  3  0  0  0  0  0  0
  189.3830  176.0860  143.0550 C   0  0  0  0  0  2  0  0  0  0  0  0
  190.9990  177.4800  145.1200 C   0  0  2  0  0  3  0  0  0  0  0  0
  188.2100  177.8040  148.1810 O   0  0  0  0  0  0  0  0  0  0  0  0
  190.2370  176.9640  147.3950 N   0  0  0  0  0  0  0  0  0  0  0  0
  189.5640  177.7740  144.8540 C   0  0  2  0  0  3  0  0  0  0  0  0
  188.6850  178.3610  145.8980 C   0  0  2  0  0  3  0  0  0  0  0  0
  191.7640  176.8010  143.9590 C   0  0  1  0  0  3  0  0  0  0  0  0
  191.1590  176.8310  146.4780 C   0  0  0  0  0  0  0  0  0  0  0  0
  189.0040  177.6880  147.2110 C   0  0  0  0  0  0  0  0  0  0  0  0
  187.3540  177.9360  145.3500 C   0  0  0  0  0  0  0  0  0  0  0  0
  191.5570  175.3000  143.8820 C   0  0  0  0  0  2  0  0  0  0  0  0
  188.8330  177.1250  143.9720 C   0  0  2  0  0  3  0  0  0  0  0  0
  190.8990  176.1820  142.8400 C   0  0  1  0  0  3  0  0  0  0  0  0
  187.4510  177.2350  144.2660 N   0  0  0  0  0  0  0  0  0  0  0  0
  192.3370  176.1360  146.7620 O   0  0  0  0  0  0  0  0  0  0  0  0
  192.6690  175.7060  148.0750 C   0  0  0  0  0  1  0  0  0  0  0  0
  185.3270  179.3020  145.2760 O   0  0  0  0  0  0  0  0  0  0  0  0
  184.9370  179.6240  142.9440 C   0  0  0  0  0  2  0  0  0  0  0  0
  181.3990  179.3240  143.1390 C   0  0  0  0  0  1  0  0  0  0  0  0
  184.7130  178.7380  144.1450 C   0  0  2  0  0  3  0  0  0  0  0  0
  182.7590  178.6570  143.0720 C   0  0  2  0  0  3  0  0  0  0  0  0
  183.3310  178.6260  144.3540 O   0  0  0  0  0  0  0  0  0  0  0  0
  183.6760  179.4380  142.1410 C   0  0  2  0  0  3  0  0  0  0  0  0
  183.9150  178.7160  140.7940 C   0  0  0  0  0  0  0  0  0  0  0  0
  183.3260  177.3130  140.8410 C   0  0  0  0  0  1  0  0  0  0  0  0
  183.2530  179.4610  139.6410 C   0  0  0  0  0  1  0  0  0  0  0  0
  187.3390  178.2880  139.0700 N   0  0  0  0  0  2  0  0  0  0  0  0
  185.3480  178.6280  140.5150 N   0  0  0  0  0  2  0  0  0  0  0  0
  185.9220  178.4000  139.2190 C   0  0  0  0  0  0  0  0  0  0  0  0
  185.1850  178.2930  138.2030 O   0  0  0  0  0  0  0  0  0  0  0  0
  189.6360  177.8880  139.7740 C   0  0  0  0  0  1  0  0  0  0  0  0
  188.2540  178.3450  140.2000 C   0  0  0  0  0  2  0  0  0  0  0  0
  2  1  1  6  0  0  0
  3 14  1  0  0  0  0
  4 10  1  1  0  0  0
  7  4  1  0  0  0  0
  7  8  1  0  0  0  0
  8 11  1  0  0  0  0
  9  4  1  0  0  0  0
 10 17  1  0  0  0  0
 10  6  2  0  0  0  0
 11  6  1  0  0  0  0
 11  5  2  0  0  0  0
 12  8  1  0  0  0  0
 12  2  1  0  0  0  0
 13  9  1  0  0  0  0
 14 16  1  0  0  0  0
 14  7  1  0  0  0  0
 15  3  1  0  0  0  0
 15 13  1  0  0  0  0
 15  9  1  0  0  0  0
 16 12  2  0  0  0  0
 17 18  1  0  0  0  0
 19  2  1  0  0  0  0
 20 22  1  0  0  0  0
 22 24  1  0  0  0  0
 22 19  1  0  0  0  0
 23 21  1  0  0  0  0
 23 24  1  0  0  0  0
 25 20  1  0  0  0  0
 25 23  1  0  0  0  0
 26 27  1  0  0  0  0
 26 25  1  0  0  0  0
 28 26  1  0  0  0  0
 29 31  1  0  0  0  0
 29 34  1  0  0  0  0
 30 26  1  0  0  0  0
 31 30  1  0  0  0  0
 32 31  2  0  0  0  0
 33 34  1  0  0  0  0
M  END
>  <MODEL>
5

>  <REMARK>
 VINA RESULT:      -8.5      2.433      4.833
  Name = 
  7 active torsions:
  status: ('A' for Active; 'I' for Inactive)
    1  A    between atoms: O_1  and  C_17
    2  A    between atoms: N_6  and  C_25
    3  A    between atoms: C_10  and  N_12
    4  A    between atoms: C_10  and  C_31
    5  A    between atoms: C_18  and  O_27
    6  A    between atoms: C_23  and  C_32
    7  A    between atoms: O_27  and  C_32
                            x       y       z     vdW  Elec       q    Type
                         _______ _______ _______ _____ _____    ______ ____

>  <TORSDO>
F 7

$$$$
=
 OpenBabel11062416503D

 34 38  0  0  1  0  0  0  0  0999 V2000
  184.4150  178.8880  144.6140 C   0  0  0  0  0  1  0  0  0  0  0  0
  185.2990  178.4870  143.4350 C   0  0  1  0  0  3  0  0  0  0  0  0
  189.3740  177.6270  146.1320 C   0  0  0  0  0  2  0  0  0  0  0  0
  189.9860  176.4740  143.4650 C   0  0  2  0  0  3  0  0  0  0  0  0
  187.3620  178.6350  141.0800 O   0  0  0  0  0  0  0  0  0  0  0  0
  189.5480  178.0640  141.6470 N   0  0  0  0  0  0  0  0  0  0  0  0
  188.6130  176.8260  143.9190 C   0  0  2  0  0  3  0  0  0  0  0  0
  187.5330  177.1460  142.9510 C   0  0  2  0  0  3  0  0  0  0  0  0
  191.0190  176.2410  144.5930 C   0  0  1  0  0  3  0  0  0  0  0  0
  190.4270  177.4030  142.3550 C   0  0  0  0  0  0  0  0  0  0  0  0
  188.1230  178.0040  141.8570 C   0  0  0  0  0  0  0  0  0  0  0  0
  186.6280  177.9260  143.8580 C   0  0  0  0  0  0  0  0  0  0  0  0
  191.6210  177.5180  145.1480 C   0  0  0  0  0  2  0  0  0  0  0  0
  188.3450  177.3820  145.0820 C   0  0  2  0  0  3  0  0  0  0  0  0
  190.6260  176.7500  145.9970 C   0  0  1  0  0  3  0  0  0  0  0  0
  187.0980  178.0560  145.0570 N   0  0  0  0  0  0  0  0  0  0  0  0
  191.7880  177.5020  142.0540 O   0  0  0  0  0  0  0  0  0  0  0  0
  192.2740  177.5030  140.7190 C   0  0  0  0  0  1  0  0  0  0  0  0
  184.6330  177.7090  142.4590 O   0  0  0  0  0  0  0  0  0  0  0  0
  182.7430  178.0210  141.0360 C   0  0  0  0  0  2  0  0  0  0  0  0
  184.6150  178.2690  138.0220 C   0  0  0  0  0  1  0  0  0  0  0  0
  184.0820  178.5550  141.4820 C   0  0  2  0  0  3  0  0  0  0  0  0
  184.0860  178.9260  139.2830 C   0  0  2  0  0  3  0  0  0  0  0  0
  184.9250  178.6130  140.3640 O   0  0  0  0  0  0  0  0  0  0  0  0
  182.6830  178.4180  139.5840 C   0  0  2  0  0  3  0  0  0  0  0  0
  181.5890  179.4720  139.2880 C   0  0  0  0  0  0  0  0  0  0  0  0
  182.2210  180.7350  138.7170 C   0  0  0  0  0  1  0  0  0  0  0  0
  180.5820  178.9540  138.2700 C   0  0  0  0  0  1  0  0  0  0  0  0
  179.2060  181.0590  141.8710 N   0  0  0  0  0  2  0  0  0  0  0  0
  180.8650  179.8080  140.5130 N   0  0  0  0  0  2  0  0  0  0  0  0
  179.8150  180.7810  140.6100 C   0  0  0  0  0  0  0  0  0  0  0  0
  179.4230  181.4020  139.5860 O   0  0  0  0  0  0  0  0  0  0  0  0
  178.9310  179.0970  143.2880 C   0  0  0  0  0  1  0  0  0  0  0  0
  179.6380  180.4270  143.1080 C   0  0  0  0  0  2  0  0  0  0  0  0
  2 12  1  0  0  0  0
  2  1  1  1  0  0  0
  4 10  1  6  0  0  0
  4  7  1  0  0  0  0
  4  9  1  0  0  0  0
  5 11  2  0  0  0  0
  6 11  1  0  0  0  0
  6 10  2  0  0  0  0
  7 14  1  0  0  0  0
  8 12  1  0  0  0  0
  8  7  1  0  0  0  0
  9 13  1  0  0  0  0
  9 15  1  0  0  0  0
 11  8  1  0  0  0  0
 12 16  2  0  0  0  0
 13 15  1  0  0  0  0
 14  3  1  0  0  0  0
 15  3  1  0  0  0  0
 16 14  1  0  0  0  0
 17 10  1  0  0  0  0
 18 17  1  0  0  0  0
 19  2  1  0  0  0  0
 20 22  1  0  0  0  0
 21 23  1  0  0  0  0
 22 19  1  0  0  0  0
 23 25  1  0  0  0  0
 23 24  1  0  0  0  0
 24 22  1  0  0  0  0
 25 20  1  0  0  0  0
 26 25  1  0  0  0  0
 26 30  1  0  0  0  0
 27 26  1  0  0  0  0
 28 26  1  0  0  0  0
 29 34  1  0  0  0  0
 30 31  1  0  0  0  0
 31 29  1  0  0  0  0
 32 31  2  0  0  0  0
 34 33  1  0  0  0  0
M  END
>  <MODEL>
6

>  <REMARK>
 VINA RESULT:      -8.4      1.668      2.186
  Name = 
  7 active torsions:
  status: ('A' for Active; 'I' for Inactive)
    1  A    between atoms: O_1  and  C_17
    2  A    between atoms: N_6  and  C_25
    3  A    between atoms: C_10  and  N_12
    4  A    between atoms: C_10  and  C_31
    5  A    between atoms: C_18  and  O_27
    6  A    between atoms: C_23  and  C_32
    7  A    between atoms: O_27  and  C_32
                            x       y       z     vdW  Elec       q    Type
                         _______ _______ _______ _____ _____    ______ ____

>  <TORSDO>
F 7

$$$$
=
 OpenBabel11062416503D

 34 38  0  0  1  0  0  0  0  0999 V2000
  188.1070  178.5930  140.9430 C   0  0  0  0  0  1  0  0  0  0  0  0
  189.2990  177.9120  141.6100 C   0  0  1  0  0  3  0  0  0  0  0  0
  187.5480  178.2560  146.2400 C   0  0  0  0  0  2  0  0  0  0  0  0
  189.8470  176.3890  146.4480 C   0  0  2  0  0  3  0  0  0  0  0  0
  192.0300  177.4890  143.0900 O   0  0  0  0  0  0  0  0  0  0  0  0
  191.8750  177.2980  145.4070 N   0  0  0  0  0  0  0  0  0  0  0  0
  189.1900  176.7530  145.1620 C   0  0  2  0  0  3  0  0  0  0  0  0
  189.9150  176.6700  143.8690 C   0  0  2  0  0  3  0  0  0  0  0  0
  188.9860  176.5990  147.7160 C   0  0  1  0  0  3  0  0  0  0  0  0
  191.2460  176.9620  146.5030 C   0  0  0  0  0  0  0  0  0  0  0  0
  191.3160  177.1920  144.0830 C   0  0  0  0  0  0  0  0  0  0  0  0
  189.0730  177.6170  143.0660 C   0  0  0  0  0  0  0  0  0  0  0  0
  188.9780  178.0290  148.2220 C   0  0  0  0  0  2  0  0  0  0  0  0
  188.2020  177.6170  145.0620 C   0  0  2  0  0  3  0  0  0  0  0  0
  187.7320  177.4840  147.5530 C   0  0  1  0  0  3  0  0  0  0  0  0
  188.1110  178.1490  143.7510 N   0  0  0  0  0  0  0  0  0  0  0  0
  191.8850  177.0720  147.7410 O   0  0  0  0  0  0  0  0  0  0  0  0
  192.6280  176.0030  148.3110 C   0  0  0  0  0  1  0  0  0  0  0  0
  189.8160  176.8160  140.8780 O   0  0  0  0  0  0  0  0  0  0  0  0
  188.9550  176.0490  138.7890 C   0  0  0  0  0  2  0  0  0  0  0  0
  192.0910  176.0100  137.1130 C   0  0  0  0  0  1  0  0  0  0  0  0
  189.7620  177.1050  139.5040 C   0  0  2  0  0  3  0  0  0  0  0  0
  190.8880  176.7930  137.6040 C   0  0  2  0  0  3  0  0  0  0  0  0
  191.0550  177.1090  138.9610 O   0  0  0  0  0  0  0  0  0  0  0  0
  189.6250  175.9590  137.4430 C   0  0  2  0  0  3  0  0  0  0  0  0
  188.7260  176.4530  136.2840 C   0  0  0  0  0  0  0  0  0  0  0  0
  189.4510  177.5240  135.4800 C   0  0  0  0  0  1  0  0  0  0  0  0
  188.3750  175.3150  135.3320 C   0  0  0  0  0  1  0  0  0  0  0  0
  186.0470  178.7800  137.7930 N   0  0  0  0  0  2  0  0  0  0  0  0
  187.4800  177.0060  136.8100 N   0  0  0  0  0  2  0  0  0  0  0  0
  187.3010  178.3590  137.2540 C   0  0  0  0  0  0  0  0  0  0  0  0
  188.2480  179.1870  137.1780 O   0  0  0  0  0  0  0  0  0  0  0  0
  184.1640  178.2200  139.2320 C   0  0  0  0  0  1  0  0  0  0  0  0
  184.9230  177.8720  137.9660 C   0  0  0  0  0  2  0  0  0  0  0  0
  2  1  1  6  0  0  0
  2 12  1  0  0  0  0
  3 15  1  0  0  0  0
  4 10  1  1  0  0  0
  4  9  1  0  0  0  0
  5 11  2  0  0  0  0
  6 10  2  0  0  0  0
  7  4  1  0  0  0  0
  8 11  1  0  0  0  0
  8  7  1  0  0  0  0
  9 13  1  0  0  0  0
 10 17  1  0  0  0  0
 11  6  1  0  0  0  0
 12 16  2  0  0  0  0
 12  8  1  0  0  0  0
 14  7  1  0  0  0  0
 14  3  1  0  0  0  0
 15  9  1  0  0  0  0
 15 13  1  0  0  0  0
 16 14  1  0  0  0  0
 17 18  1  0  0  0  0
 19  2  1  0  0  0  0
 20 22  1  0  0  0  0
 21 23  1  0  0  0  0
 22 19  1  0  0  0  0
 23 24  1  0  0  0  0
 24 22  1  0  0  0  0
 25 23  1  0  0  0  0
 25 20  1  0  0  0  0
 26 30  1  0  0  0  0
 26 25  1  0  0  0  0
 27 26  1  0  0  0  0
 28 26  1  0  0  0  0
 29 34  1  0  0  0  0
 30 31  1  0  0  0  0
 31 29  1  0  0  0  0
 32 31  2  0  0  0  0
 34 33  1  0  0  0  0
M  END
>  <MODEL>
7

>  <REMARK>
 VINA RESULT:      -8.3      3.532      5.385
  Name = 
  7 active torsions:
  status: ('A' for Active; 'I' for Inactive)
    1  A    between atoms: O_1  and  C_17
    2  A    between atoms: N_6  and  C_25
    3  A    between atoms: C_10  and  N_12
    4  A    between atoms: C_10  and  C_31
    5  A    between atoms: C_18  and  O_27
    6  A    between atoms: C_23  and  C_32
    7  A    between atoms: O_27  and  C_32
                            x       y       z     vdW  Elec       q    Type
                         _______ _______ _______ _____ _____    ______ ____

>  <TORSDO>
F 7

$$$$
=
 OpenBabel11062416503D

 34 38  0  0  1  0  0  0  0  0999 V2000
  191.4280  175.1220  143.1210 C   0  0  0  0  0  1  0  0  0  0  0  0
  190.8310  176.5190  142.9640 C   0  0  1  0  0  3  0  0  0  0  0  0
  190.0440  177.2210  147.8130 C   0  0  0  0  0  2  0  0  0  0  0  0
  187.7840  178.6120  146.4800 C   0  0  2  0  0  3  0  0  0  0  0  0
  187.7000  176.6160  142.8390 O   0  0  0  0  0  0  0  0  0  0  0  0
  186.6510  177.1780  144.8420 N   0  0  0  0  0  0  0  0  0  0  0  0
  189.0290  178.1950  145.7780 C   0  0  2  0  0  3  0  0  0  0  0  0
  189.0480  177.9400  144.3150 C   0  0  2  0  0  3  0  0  0  0  0  0
  187.9070  178.7670  148.0140 C   0  0  1  0  0  3  0  0  0  0  0  0
  186.6090  177.7920  145.9960 C   0  0  0  0  0  0  0  0  0  0  0  0
  187.7870  177.1920  143.9540 C   0  0  0  0  0  0  0  0  0  0  0  0
  190.2660  177.0670  144.2440 C   0  0  0  0  0  0  0  0  0  0  0  0
  187.7970  177.4590  148.7740 C   0  0  0  0  0  2  0  0  0  0  0  0
  190.0120  177.5360  146.3560 C   0  0  2  0  0  3  0  0  0  0  0  0
  189.1520  178.1300  148.6690 C   0  0  1  0  0  3  0  0  0  0  0  0
  190.7990  176.8420  145.4030 N   0  0  0  0  0  0  0  0  0  0  0  0
  185.4490  177.7460  146.7730 O   0  0  0  0  0  0  0  0  0  0  0  0
  184.2520  178.4110  146.3940 C   0  0  0  0  0  1  0  0  0  0  0  0
  191.6700  177.4260  142.2740 O   0  0  0  0  0  0  0  0  0  0  0  0
  189.7610  177.0640  140.8890 C   0  0  0  0  0  2  0  0  0  0  0  0
  191.5670  175.6540  138.1700 C   0  0  0  0  0  1  0  0  0  0  0  0
  191.1320  177.6850  141.0020 C   0  0  2  0  0  3  0  0  0  0  0  0
  191.0970  176.8860  138.9200 C   0  0  2  0  0  3  0  0  0  0  0  0
  191.9490  177.1240  140.0110 O   0  0  0  0  0  0  0  0  0  0  0  0
  189.6820  176.6710  139.4370 C   0  0  2  0  0  3  0  0  0  0  0  0
  188.6280  177.4810  138.6450 C   0  0  0  0  0  0  0  0  0  0  0  0
  189.2960  178.6420  137.9210 C   0  0  0  0  0  1  0  0  0  0  0  0
  187.9370  176.6160  137.5980 C   0  0  0  0  0  1  0  0  0  0  0  0
  185.4590  179.1170  140.1130 N   0  0  0  0  0  2  0  0  0  0  0  0
  187.6050  178.0020  139.5500 N   0  0  0  0  0  2  0  0  0  0  0  0
  186.3680  178.6010  139.1390 C   0  0  0  0  0  0  0  0  0  0  0  0
  186.0720  178.6820  137.9170 O   0  0  0  0  0  0  0  0  0  0  0  0
  184.5970  178.4930  142.3040 C   0  0  0  0  0  1  0  0  0  0  0  0
  185.7510  179.1120  141.5380 C   0  0  0  0  0  2  0  0  0  0  0  0
  2  1  1  1  0  0  0
  2 12  1  0  0  0  0
  3 15  1  0  0  0  0
  4 10  1  1  0  0  0
  4  9  1  0  0  0  0
  5 11  2  0  0  0  0
  6 10  2  0  0  0  0
  7 14  1  0  0  0  0
  7  4  1  0  0  0  0
  8  7  1  0  0  0  0
  9 15  1  0  0  0  0
  9 13  1  0  0  0  0
 10 17  1  0  0  0  0
 11  8  1  0  0  0  0
 11  6  1  0  0  0  0
 12  8  1  0  0  0  0
 12 16  2  0  0  0  0
 14  3  1  0  0  0  0
 15 13  1  0  0  0  0
 16 14  1  0  0  0  0
 18 17  1  0  0  0  0
 19  2  1  0  0  0  0
 20 22  1  0  0  0  0
 21 23  1  0  0  0  0
 22 19  1  0  0  0  0
 23 25  1  0  0  0  0
 23 24  1  0  0  0  0
 24 22  1  0  0  0  0
 25 20  1  0  0  0  0
 26 25  1  0  0  0  0
 26 30  1  0  0  0  0
 27 26  1  0  0  0  0
 28 26  1  0  0  0  0
 29 34  1  0  0  0  0
 31 30  1  0  0  0  0
 31 29  1  0  0  0  0
 32 31  2  0  0  0  0
 34 33  1  0  0  0  0
M  END
>  <MODEL>
8

>  <REMARK>
 VINA RESULT:      -8.3      3.174      5.565
  Name = 
  7 active torsions:
  status: ('A' for Active; 'I' for Inactive)
    1  A    between atoms: O_1  and  C_17
    2  A    between atoms: N_6  and  C_25
    3  A    between atoms: C_10  and  N_12
    4  A    between atoms: C_10  and  C_31
    5  A    between atoms: C_18  and  O_27
    6  A    between atoms: C_23  and  C_32
    7  A    between atoms: O_27  and  C_32
                            x       y       z     vdW  Elec       q    Type
                         _______ _______ _______ _____ _____    ______ ____

>  <TORSDO>
F 7

$$$$
=
 OpenBabel11062416503D

 34 38  0  0  1  0  0  0  0  0999 V2000
  189.0360  178.5750  138.9330 C   0  0  0  0  0  1  0  0  0  0  0  0
  189.6010  177.8700  140.1640 C   0  0  1  0  0  3  0  0  0  0  0  0
  185.6410  178.7970  143.0060 C   0  0  0  0  0  2  0  0  0  0  0  0
  187.4290  177.1650  144.7260 C   0  0  2  0  0  3  0  0  0  0  0  0
  191.0970  177.8920  142.9190 O   0  0  0  0  0  0  0  0  0  0  0  0
  189.7160  178.0530  144.7880 N   0  0  0  0  0  0  0  0  0  0  0  0
  187.5740  177.2730  143.2480 C   0  0  2  0  0  3  0  0  0  0  0  0
  188.8800  177.0460  142.5770 C   0  0  2  0  0  3  0  0  0  0  0  0
  186.0260  177.5040  145.2810 C   0  0  1  0  0  3  0  0  0  0  0  0
  188.5890  177.8440  145.4190 C   0  0  0  0  0  0  0  0  0  0  0  0
  189.9550  177.7000  143.4110 C   0  0  0  0  0  0  0  0  0  0  0  0
  188.6210  177.7890  141.3000 C   0  0  0  0  0  0  0  0  0  0  0  0
  185.7740  178.9900  145.4500 C   0  0  0  0  0  2  0  0  0  0  0  0
  186.8130  178.0340  142.4900 C   0  0  2  0  0  3  0  0  0  0  0  0
  185.0740  178.2550  144.3250 C   0  0  1  0  0  3  0  0  0  0  0  0
  187.4530  178.3470  141.2640 N   0  0  0  0  0  0  0  0  0  0  0  0
  188.4640  178.1930  146.7660 O   0  0  0  0  0  0  0  0  0  0  0  0
  188.9560  177.3710  147.8140 C   0  0  0  0  0  1  0  0  0  0  0  0
  190.2460  176.6430  139.8760 O   0  0  0  0  0  0  0  0  0  0  0  0
  190.2070  175.2950  137.9080 C   0  0  0  0  0  2  0  0  0  0  0  0
  193.7000  175.4970  137.2790 C   0  0  0  0  0  1  0  0  0  0  0  0
  190.6110  176.6140  138.5200 C   0  0  2  0  0  3  0  0  0  0  0  0
  192.3220  176.1220  137.1770 C   0  0  2  0  0  3  0  0  0  0  0  0
  192.0000  176.7480  138.3910 O   0  0  0  0  0  0  0  0  0  0  0  0
  191.2850  175.0470  136.8860 C   0  0  2  0  0  3  0  0  0  0  0  0
  190.7630  175.0990  135.4290 C   0  0  0  0  0  0  0  0  0  0  0  0
  191.4750  176.2020  134.6580 C   0  0  0  0  0  1  0  0  0  0  0  0
  191.0190  173.7840  134.7030 C   0  0  0  0  0  1  0  0  0  0  0  0
  187.2950  176.7850  135.4310 N   0  0  0  0  0  2  0  0  0  0  0  0
  189.3240  175.3540  135.4160 N   0  0  0  0  0  2  0  0  0  0  0  0
  188.7170  176.6540  135.3990 C   0  0  0  0  0  0  0  0  0  0  0  0
  189.4310  177.6920  135.3580 O   0  0  0  0  0  0  0  0  0  0  0  0
  185.9880  175.4320  136.9780 C   0  0  0  0  0  1  0  0  0  0  0  0
  186.4040  175.6400  135.5340 C   0  0  0  0  0  2  0  0  0  0  0  0
  2  1  1  6  0  0  0
  2 12  1  0  0  0  0
  3 15  1  0  0  0  0
  4  9  1  0  0  0  0
  4 10  1  1  0  0  0
  5 11  2  0  0  0  0
  6 10  2  0  0  0  0
  7  4  1  0  0  0  0
  8  7  1  0  0  0  0
  8 11  1  0  0  0  0
  9 13  1  0  0  0  0
 10 17  1  0  0  0  0
 11  6  1  0  0  0  0
 12  8  1  0  0  0  0
 14  3  1  0  0  0  0
 14  7  1  0  0  0  0
 15  9  1  0  0  0  0
 15 13  1  0  0  0  0
 16 12  2  0  0  0  0
 16 14  1  0  0  0  0
 17 18  1  0  0  0  0
 19  2  1  0  0  0  0
 20 22  1  0  0  0  0
 22 19  1  0  0  0  0
 23 21  1  0  0  0  0
 23 24  1  0  0  0  0
 24 22  1  0  0  0  0
 25 23  1  0  0  0  0
 25 20  1  0  0  0  0
 26 25  1  0  0  0  0
 27 26  1  0  0  0  0
 28 26  1  0  0  0  0
 29 34  1  0  0  0  0
 30 26  1  0  0  0  0
 31 30  1  0  0  0  0
 31 29  1  0  0  0  0
 32 31  2  0  0  0  0
 34 33  1  0  0  0  0
M  END
>  <MODEL>
9

>  <REMARK>
 VINA RESULT:      -8.2      4.773      7.105
  Name = 
  7 active torsions:
  status: ('A' for Active; 'I' for Inactive)
    1  A    between atoms: O_1  and  C_17
    2  A    between atoms: N_6  and  C_25
    3  A    between atoms: C_10  and  N_12
    4  A    between atoms: C_10  and  C_31
    5  A    between atoms: C_18  and  O_27
    6  A    between atoms: C_23  and  C_32
    7  A    between atoms: O_27  and  C_32
                            x       y       z     vdW  Elec       q    Type
                         _______ _______ _______ _____ _____    ______ ____

>  <TORSDO>
F 7

$$$$
