=
 OpenBabel11062412193D

 43 47  0  0  1  0  0  0  0  0999 V2000
  184.2830  178.1010  138.2790 C   0  0  0  0  0  3  0  0  0  0  0  0
  186.7080  177.7590  137.7710 C   0  0  0  0  0  0  0  0  0  0  0  0
  186.2860  177.2010  136.5250 C   0  0  0  0  0  0  0  0  0  0  0  0
  185.0370  177.1010  136.1850 N   0  0  0  0  0  0  0  0  0  0  0  0
  185.6950  178.2340  138.7230 C   0  0  0  0  0  0  0  0  0  0  0  0
  186.0240  178.7170  139.8820 N   0  0  0  0  0  0  0  0  0  0  0  0
  183.9960  177.5630  137.0770 C   0  0  0  0  0  3  0  0  0  0  0  0
  188.5740  177.0880  136.5470 C   0  0  2  0  0  3  0  0  0  0  0  0
  188.0350  177.7210  137.8140 C   0  0  0  0  0  0  0  0  0  0  0  0
  187.3860  176.7830  135.7400 N   0  0  0  0  0  2  0  0  0  0  0  0
  192.3430  173.9350  137.4940 C   0  0  0  0  0  2  0  0  0  0  0  0
  189.7920  173.7100  137.0110 C   0  0  0  0  0  3  0  0  0  0  0  0
  190.6590  175.7430  137.1340 C   0  0  0  0  0  0  0  0  0  0  0  0
  188.7850  174.5860  136.7710 N   0  0  0  0  0  0  0  0  0  0  0  0
  191.7360  176.7830  137.1740 C   0  0  0  0  0  2  0  0  0  0  0  0
  189.3210  175.8250  136.8440 C   0  0  0  0  0  0  0  0  0  0  0  0
  193.3170  175.1110  137.2710 C   0  0  1  0  0  3  0  0  0  0  0  0
  192.8450  176.2900  137.9070 O   0  0  0  0  0  0  0  0  0  0  0  0
  190.9580  174.4190  137.2150 C   0  0  1  0  0  3  0  0  0  0  0  0
  194.6900  174.7400  137.8070 C   0  0  0  0  0  2  0  0  0  0  0  0
  195.5480  173.7940  135.6650 O   0  0  0  0  0  0  0  0  0  0  0  0
  195.6900  174.7060  136.7030 C   0  0  0  0  0  0  0  0  0  0  0  0
  196.6850  175.4760  136.7310 O   0  0  0  0  0  1  0  0  0  0  0  0
  189.0490  177.1440  139.9930 C   0  0  0  0  0  1  0  0  0  0  0  0
  188.8900  178.2170  138.9340 C   0  0  0  0  0  2  0  0  0  0  0  0
  185.0480  179.1980  140.8510 C   0  0  0  0  0  2  0  0  0  0  0  0
  185.3680  178.6440  142.2310 C   0  0  0  0  0  2  0  0  0  0  0  0
  184.9030  179.5510  143.2730 N   0  0  0  0  0  2  0  0  0  0  0  0
  183.9070  178.8580  144.0780 C   0  0  0  0  0  2  0  0  0  0  0  0
  184.3430  178.8040  145.5330 C   0  0  0  0  0  2  0  0  0  0  0  0
  185.7240  178.9960  145.6230 O   0  0  0  0  0  0  0  0  0  0  0  0
  189.4660  176.4420  143.6880 O   0  0  0  0  0  0  0  0  0  0  0  0
  188.5480  178.0690  146.8510 C   0  0  0  0  0  2  0  0  0  0  0  0
  189.6170  177.0420  144.7880 C   0  0  0  0  0  0  0  0  0  0  0  0
  186.2200  177.8100  146.1710 C   0  0  1  0  0  3  0  0  0  0  0  0
  187.1100  177.1250  145.1500 C   0  0  0  0  0  2  0  0  0  0  0  0
  188.4700  177.3920  145.5730 N   0  0  0  0  0  0  0  0  0  0  0  0
  187.1200  178.1470  147.3570 C   0  0  0  0  0  2  0  0  0  0  0  0
  190.9950  177.3900  145.2630 C   0  0  0  0  0  3  0  0  0  0  0  0
  191.1740  179.4980  143.9250 C   0  0  0  0  0  1  0  0  0  0  0  0
  191.7530  178.1150  144.1570 C   0  0  0  0  0  2  0  0  0  0  0  0
  191.6820  175.9700  147.2090 C   0  0  0  0  0  1  0  0  0  0  0  0
  191.7240  176.1250  145.7000 C   0  0  0  0  0  2  0  0  0  0  0  0
  1  5  1  0  0  0  0
  2  9  2  0  0  0  0
  2  5  1  0  0  0  0
  3  2  1  0  0  0  0
  4  3  2  0  0  0  0
  4  7  1  0  0  0  0
  5  6  2  0  0  0  0
  6 26  1  0  0  0  0
  7  1  2  0  0  0  0
  8 16  1  1  0  0  0
  8  9  1  0  0  0  0
  9 25  1  0  0  0  0
 10  3  1  0  0  0  0
 10  8  1  0  0  0  0
 13 15  1  0  0  0  0
 13 19  1  0  0  0  0
 14 16  1  0  0  0  0
 14 12  2  0  0  0  0
 15 18  1  0  0  0  0
 16 13  2  0  0  0  0
 17 11  1  0  0  0  0
 17 20  1  1  0  0  0
 17 18  1  0  0  0  0
 19 12  1  1  0  0  0
 19 11  1  0  0  0  0
 21 22  2  0  0  0  0
 22 23  1  0  0  0  0
 22 20  1  0  0  0  0
 25 24  1  0  0  0  0
 26 27  1  0  0  0  0
 27 28  1  0  0  0  0
 28 29  1  0  0  0  0
 29 30  1  0  0  0  0
 30 31  1  0  0  0  0
 32 34  2  0  0  0  0
 33 38  1  0  0  0  0
 34 39  1  0  0  0  0
 34 37  1  0  0  0  0
 35 31  1  6  0  0  0
 35 38  1  0  0  0  0
 36 37  1  0  0  0  0
 36 35  1  0  0  0  0
 37 33  1  0  0  0  0
 39 43  1  0  0  0  0
 40 41  1  0  0  0  0
 41 39  1  0  0  0  0
 43 42  1  0  0  0  0
M  END
>  <MODEL>
1

>  <REMARK>
 VINA RESULT:      -8.0      0.000      0.000
  Name = 
  14 active torsions:
  status: ('A' for Active; 'I' for Inactive)
    1  A    between atoms: C_1  and  N_29
    2  A    between atoms: C_1  and  C_30
    3  A    between atoms: C_3  and  C_12
    4  A    between atoms: C_5  and  C_38
    5  A    between atoms: C_12  and  C_22
    6  A    between atoms: C_15  and  C_40
    7  A    between atoms: C_19  and  C_36
    8  A    between atoms: C_21  and  C_38
    9  A    between atoms: C_26  and  C_38
   10  A    between atoms: C_28  and  N_31
   11  A    between atoms: C_28  and  C_32
   12  A    between atoms: C_30  and  N_31
   13  A    between atoms: C_32  and  O_41
   14  A    between atoms: C_33  and  O_41
                            x       y       z     vdW  Elec       q    Type
                         _______ _______ _______ _____ _____    ______ ____

>  <TORSDO>
F 14

$$$$
=
 OpenBabel11062412193D

 43 47  0  0  1  0  0  0  0  0999 V2000
  185.6380  178.5260  139.3650 C   0  0  0  0  0  3  0  0  0  0  0  0
  188.0650  177.9590  139.1590 C   0  0  0  0  0  0  0  0  0  0  0  0
  187.9100  178.1590  137.7520 C   0  0  0  0  0  0  0  0  0  0  0  0
  186.7800  178.4990  137.2090 N   0  0  0  0  0  0  0  0  0  0  0  0
  186.9020  178.1320  140.0390 C   0  0  0  0  0  0  0  0  0  0  0  0
  186.9810  177.9290  141.3190 N   0  0  0  0  0  0  0  0  0  0  0  0
  185.6040  178.6930  138.0280 C   0  0  0  0  0  3  0  0  0  0  0  0
  190.0980  177.5680  138.0880 C   0  0  2  0  0  3  0  0  0  0  0  0
  189.3290  177.6260  139.3930 C   0  0  0  0  0  0  0  0  0  0  0  0
  189.1210  177.9390  137.0560 N   0  0  0  0  0  2  0  0  0  0  0  0
  193.2560  173.8040  137.1370 C   0  0  0  0  0  2  0  0  0  0  0  0
  190.6680  174.0880  137.2640 C   0  0  0  0  0  3  0  0  0  0  0  0
  191.9380  175.8400  137.7330 C   0  0  0  0  0  0  0  0  0  0  0  0
  189.8340  175.1210  137.5400 N   0  0  0  0  0  2  0  0  0  0  0  0
  193.1910  176.6580  137.7930 C   0  0  0  0  0  2  0  0  0  0  0  0
  190.6150  176.1890  137.8210 C   0  0  0  0  0  0  0  0  0  0  0  0
  194.3860  174.8490  137.0180 C   0  0  1  0  0  3  0  0  0  0  0  0
  194.2990  175.8130  138.0560 O   0  0  0  0  0  0  0  0  0  0  0  0
  191.9710  174.5320  137.3610 C   0  0  0  0  0  0  0  0  0  0  0  0
  195.7320  174.1450  137.0670 C   0  0  0  0  0  2  0  0  0  0  0  0
  197.8610  175.2250  137.7870 O   0  0  0  0  0  1  0  0  0  0  0  0
  196.8390  175.1200  136.8530 C   0  0  0  0  0  0  0  0  0  0  0  0
  196.8270  175.8750  135.8460 O   0  0  0  0  0  0  0  0  0  0  0  0
  191.4140  177.6400  140.7210 C   0  0  0  0  0  1  0  0  0  0  0  0
  189.9270  177.3410  140.7320 C   0  0  0  0  0  2  0  0  0  0  0  0
  185.8510  178.0900  142.2230 C   0  0  0  0  0  2  0  0  0  0  0  0
  185.4620  179.5580  142.3120 C   0  0  0  0  0  2  0  0  0  0  0  0
  185.3560  179.9810  143.7040 N   0  0  0  0  0  2  0  0  0  0  0  0
  184.1270  179.4350  144.2610 C   0  0  0  0  0  2  0  0  0  0  0  0
  184.4010  178.7620  145.5960 C   0  0  0  0  0  2  0  0  0  0  0  0
  185.6880  179.0810  146.0330 O   0  0  0  0  0  0  0  0  0  0  0  0
  189.2800  176.5000  143.8630 O   0  0  0  0  0  0  0  0  0  0  0  0
  188.5730  178.1190  147.0830 C   0  0  0  0  0  2  0  0  0  0  0  0
  189.5030  177.0930  144.9540 C   0  0  0  0  0  0  0  0  0  0  0  0
  186.2050  177.8880  146.5440 C   0  0  1  0  0  3  0  0  0  0  0  0
  187.0240  177.1990  145.4680 C   0  0  0  0  0  2  0  0  0  0  0  0
  188.4100  177.4500  145.8090 N   0  0  0  0  0  0  0  0  0  0  0  0
  187.1780  178.2090  147.6750 C   0  0  0  0  0  2  0  0  0  0  0  0
  190.9110  177.4240  145.3460 C   0  0  0  0  0  3  0  0  0  0  0  0
  191.1900  179.5580  144.0680 C   0  0  0  0  0  1  0  0  0  0  0  0
  191.6220  178.1080  144.1840 C   0  0  0  0  0  2  0  0  0  0  0  0
  191.7630  176.0860  147.2850 C   0  0  0  0  0  1  0  0  0  0  0  0
  191.6390  176.1550  145.7740 C   0  0  0  0  0  2  0  0  0  0  0  0
  1  5  1  0  0  0  0
  2  9  2  0  0  0  0
  2  5  1  0  0  0  0
  3  2  1  0  0  0  0
  4  3  2  0  0  0  0
  4  7  1  0  0  0  0
  5  6  2  0  0  0  0
  6 26  1  0  0  0  0
  7  1  2  0  0  0  0
  8 16  1  6  0  0  0
  8  9  1  0  0  0  0
  9 25  1  0  0  0  0
 10  3  1  0  0  0  0
 10  8  1  0  0  0  0
 11 19  1  0  0  0  0
 12 19  2  0  0  0  0
 12 14  1  0  0  0  0
 13 15  1  0  0  0  0
 13 16  2  0  0  0  0
 14 16  1  0  0  0  0
 15 18  1  0  0  0  0
 17 20  1  1  0  0  0
 17 11  1  0  0  0  0
 17 18  1  0  0  0  0
 19 13  1  0  0  0  0
 22 20  1  0  0  0  0
 22 21  1  0  0  0  0
 23 22  2  0  0  0  0
 24 25  1  0  0  0  0
 26 27  1  0  0  0  0
 27 28  1  0  0  0  0
 28 29  1  0  0  0  0
 29 30  1  0  0  0  0
 30 31  1  0  0  0  0
 32 34  2  0  0  0  0
 33 38  1  0  0  0  0
 34 39  1  0  0  0  0
 34 37  1  0  0  0  0
 35 31  1  6  0  0  0
 35 38  1  0  0  0  0
 36 37  1  0  0  0  0
 36 35  1  0  0  0  0
 37 33  1  0  0  0  0
 39 43  1  0  0  0  0
 40 41  1  0  0  0  0
 41 39  1  0  0  0  0
 43 42  1  0  0  0  0
M  END
>  <MODEL>
2

>  <REMARK>
 VINA RESULT:      -7.8      1.169      1.487
  Name = 
  14 active torsions:
  status: ('A' for Active; 'I' for Inactive)
    1  A    between atoms: C_1  and  N_29
    2  A    between atoms: C_1  and  C_30
    3  A    between atoms: C_3  and  C_12
    4  A    between atoms: C_5  and  C_38
    5  A    between atoms: C_12  and  C_22
    6  A    between atoms: C_15  and  C_40
    7  A    between atoms: C_19  and  C_36
    8  A    between atoms: C_21  and  C_38
    9  A    between atoms: C_26  and  C_38
   10  A    between atoms: C_28  and  N_31
   11  A    between atoms: C_28  and  C_32
   12  A    between atoms: C_30  and  N_31
   13  A    between atoms: C_32  and  O_41
   14  A    between atoms: C_33  and  O_41
                            x       y       z     vdW  Elec       q    Type
                         _______ _______ _______ _____ _____    ______ ____

>  <TORSDO>
F 14

$$$$
=
 OpenBabel11062412193D

 43 47  0  0  1  0  0  0  0  0999 V2000
  185.4730  179.0200  146.5250 C   0  0  0  0  0  3  0  0  0  0  0  0
  186.9670  177.8570  144.8910 C   0  0  0  0  0  0  0  0  0  0  0  0
  187.8080  177.5450  146.0050 C   0  0  0  0  0  0  0  0  0  0  0  0
  187.5320  177.9110  147.2200 N   0  0  0  0  0  0  0  0  0  0  0  0
  185.7410  178.6350  145.1160 C   0  0  0  0  0  0  0  0  0  0  0  0
  184.9620  178.9740  144.1340 N   0  0  0  0  0  0  0  0  0  0  0  0
  186.3320  178.6680  147.5020 C   0  0  0  0  0  3  0  0  0  0  0  0
  188.8220  176.6540  144.1540 C   0  0  2  0  0  3  0  0  0  0  0  0
  187.5190  177.3440  143.7980 C   0  0  0  0  0  0  0  0  0  0  0  0
  188.9470  176.8070  145.6090 N   0  0  0  0  0  2  0  0  0  0  0  0
  192.2530  177.7730  140.6870 C   0  0  0  0  0  2  0  0  0  0  0  0
  191.8320  178.4140  143.1780 C   0  0  0  0  0  3  0  0  0  0  0  0
  190.3580  177.1060  142.1700 C   0  0  0  0  0  0  0  0  0  0  0  0
  190.8810  178.1070  144.0950 N   0  0  0  0  0  2  0  0  0  0  0  0
  189.8200  176.1980  141.1070 C   0  0  0  0  0  2  0  0  0  0  0  0
  189.9860  177.3050  143.4750 C   0  0  0  0  0  0  0  0  0  0  0  0
  191.6840  176.6270  139.8250 C   0  0  1  0  0  3  0  0  0  0  0  0
  190.2640  176.6390  139.8350 O   0  0  0  0  0  0  0  0  0  0  0  0
  191.5250  177.7800  141.9920 C   0  0  0  0  0  0  0  0  0  0  0  0
  192.1990  176.7590  138.4020 C   0  0  0  0  0  2  0  0  0  0  0  0
  192.4000  174.4300  137.5330 O   0  0  0  0  0  0  0  0  0  0  0  0
  193.0170  175.5710  138.0290 C   0  0  0  0  0  0  0  0  0  0  0  0
  194.2640  175.5870  138.2000 O   0  0  0  0  0  1  0  0  0  0  0  0
  187.2950  178.7660  141.7890 C   0  0  0  0  0  1  0  0  0  0  0  0
  186.9640  177.4250  142.4140 C   0  0  0  0  0  2  0  0  0  0  0  0
  183.7390  179.7430  144.3180 C   0  0  0  0  0  2  0  0  0  0  0  0
  182.5310  178.8950  143.9490 C   0  0  0  0  0  2  0  0  0  0  0  0
  181.7030  179.5760  142.9610 N   0  0  0  0  0  2  0  0  0  0  0  0
  180.9660  178.5730  142.2040 C   0  0  0  0  0  2  0  0  0  0  0  0
  181.3380  178.6390  140.7320 C   0  0  0  0  0  2  0  0  0  0  0  0
  182.7270  178.6610  140.5920 O   0  0  0  0  0  0  0  0  0  0  0  0
  187.1140  178.7170  138.3520 O   0  0  0  0  0  0  0  0  0  0  0  0
  183.6700  177.6240  137.6970 C   0  0  0  0  0  2  0  0  0  0  0  0
  186.1700  178.0340  137.8690 C   0  0  0  0  0  0  0  0  0  0  0  0
  182.9590  179.2660  139.3550 C   0  0  1  0  0  3  0  0  0  0  0  0
  184.4560  179.4000  139.1400 C   0  0  0  0  0  2  0  0  0  0  0  0
  184.8140  178.3450  138.2140 N   0  0  0  0  0  0  0  0  0  0  0  0
  182.4540  178.3470  138.2460 C   0  0  0  0  0  2  0  0  0  0  0  0
  186.4740  176.8980  136.9400 C   0  0  0  0  0  3  0  0  0  0  0  0
  188.8280  176.1260  136.5840 C   0  0  0  0  0  1  0  0  0  0  0  0
  187.6210  176.0660  137.5010 C   0  0  0  0  0  2  0  0  0  0  0  0
  185.6210  177.2950  134.6180 C   0  0  0  0  0  1  0  0  0  0  0  0
  186.8070  177.4400  135.5550 C   0  0  0  0  0  2  0  0  0  0  0  0
  1  7  2  0  0  0  0
  2  5  1  0  0  0  0
  2  3  1  0  0  0  0
  3  4  2  0  0  0  0
  4  7  1  0  0  0  0
  5  1  1  0  0  0  0
  6 26  1  0  0  0  0
  6  5  2  0  0  0  0
  8 16  1  6  0  0  0
  8 10  1  0  0  0  0
  9  8  1  0  0  0  0
  9  2  2  0  0  0  0
 10  3  1  0  0  0  0
 11 19  1  0  0  0  0
 12 14  1  0  0  0  0
 13 16  2  0  0  0  0
 15 13  1  0  0  0  0
 16 14  1  0  0  0  0
 17 20  1  6  0  0  0
 17 18  1  0  0  0  0
 17 11  1  0  0  0  0
 18 15  1  0  0  0  0
 19 13  1  0  0  0  0
 19 12  2  0  0  0  0
 21 22  2  0  0  0  0
 22 23  1  0  0  0  0
 22 20  1  0  0  0  0
 24 25  1  0  0  0  0
 25  9  1  0  0  0  0
 27 26  1  0  0  0  0
 28 27  1  0  0  0  0
 29 28  1  0  0  0  0
 30 29  1  0  0  0  0
 31 30  1  0  0  0  0
 33 37  1  0  0  0  0
 33 38  1  0  0  0  0
 34 37  1  0  0  0  0
 34 32  2  0  0  0  0
 35 31  1  1  0  0  0
 36 35  1  0  0  0  0
 37 36  1  0  0  0  0
 38 35  1  0  0  0  0
 39 41  1  0  0  0  0
 39 34  1  0  0  0  0
 40 41  1  0  0  0  0
 42 43  1  0  0  0  0
 43 39  1  0  0  0  0
M  END
>  <MODEL>
3

>  <REMARK>
 VINA RESULT:      -7.1      2.347      7.223
  Name = 
  14 active torsions:
  status: ('A' for Active; 'I' for Inactive)
    1  A    between atoms: C_1  and  N_29
    2  A    between atoms: C_1  and  C_30
    3  A    between atoms: C_3  and  C_12
    4  A    between atoms: C_5  and  C_38
    5  A    between atoms: C_12  and  C_22
    6  A    between atoms: C_15  and  C_40
    7  A    between atoms: C_19  and  C_36
    8  A    between atoms: C_21  and  C_38
    9  A    between atoms: C_26  and  C_38
   10  A    between atoms: C_28  and  N_31
   11  A    between atoms: C_28  and  C_32
   12  A    between atoms: C_30  and  N_31
   13  A    between atoms: C_32  and  O_41
   14  A    between atoms: C_33  and  O_41
                            x       y       z     vdW  Elec       q    Type
                         _______ _______ _______ _____ _____    ______ ____

>  <TORSDO>
F 14

$$$$
=
 OpenBabel11062412193D

 43 47  0  0  1  0  0  0  0  0999 V2000
  192.5510  175.3220  136.6780 C   0  0  0  0  0  3  0  0  0  0  0  0
  191.0240  176.5120  138.2610 C   0  0  0  0  0  0  0  0  0  0  0  0
  192.1800  176.7590  139.0640 C   0  0  0  0  0  0  0  0  0  0  0  0
  193.3680  176.3510  138.7330 N   0  0  0  0  0  0  0  0  0  0  0  0
  191.1690  175.7570  137.0090 C   0  0  0  0  0  0  0  0  0  0  0  0
  190.1460  175.4760  136.2620 N   0  0  0  0  0  0  0  0  0  0  0  0
  193.5730  175.6130  137.5060 C   0  0  0  0  0  3  0  0  0  0  0  0
  190.4080  177.6980  140.1700 C   0  0  2  0  0  3  0  0  0  0  0  0
  189.9750  177.0550  138.8670 C   0  0  0  0  0  0  0  0  0  0  0  0
  191.8590  177.4840  140.2350 N   0  0  0  0  0  2  0  0  0  0  0  0
  187.1910  176.8270  143.9040 C   0  0  0  0  0  2  0  0  0  0  0  0
  189.4440  175.7950  143.0960 C   0  0  0  0  0  3  0  0  0  0  0  0
  188.5570  177.4360  141.9040 C   0  0  0  0  0  0  0  0  0  0  0  0
  190.2920  176.0410  142.0670 N   0  0  0  0  0  0  0  0  0  0  0  0
  187.6410  178.5820  141.6020 C   0  0  0  0  0  2  0  0  0  0  0  0
  189.7470  177.0470  141.3450 C   0  0  0  0  0  0  0  0  0  0  0  0
  186.5150  178.1740  143.5690 C   0  0  1  0  0  3  0  0  0  0  0  0
  186.3640  178.3320  142.1660 O   0  0  0  0  0  0  0  0  0  0  0  0
  188.3800  176.6690  143.0130 C   0  0  1  0  0  3  0  0  0  0  0  0
  185.1600  178.2430  144.2530 C   0  0  0  0  0  2  0  0  0  0  0  0
  184.2230  178.5770  146.5400 O   0  0  0  0  0  1  0  0  0  0  0  0
  185.3160  178.6260  145.6840 C   0  0  0  0  0  0  0  0  0  0  0  0
  186.4290  179.0320  146.1090 O   0  0  0  0  0  0  0  0  0  0  0  0
  188.2520  178.3430  137.6480 C   0  0  0  0  0  1  0  0  0  0  0  0
  188.5680  177.0440  138.3640 C   0  0  0  0  0  2  0  0  0  0  0  0
  190.2510  174.7310  135.0150 C   0  0  0  0  0  2  0  0  0  0  0  0
  189.2020  173.6300  134.9760 C   0  0  0  0  0  2  0  0  0  0  0  0
  188.2500  173.7850  136.0690 N   0  0  0  0  0  2  0  0  0  0  0  0
  187.7750  172.4640  136.4590 C   0  0  0  0  0  2  0  0  0  0  0  0
  186.2670  172.4750  136.6490 C   0  0  0  0  0  2  0  0  0  0  0  0
  185.8550  173.7320  137.0990 O   0  0  0  0  0  0  0  0  0  0  0  0
  182.5200  176.4110  139.5420 O   0  0  0  0  0  0  0  0  0  0  0  0
  183.9250  176.1280  136.1610 C   0  0  0  0  0  2  0  0  0  0  0  0
  182.8920  176.7680  138.3910 C   0  0  0  0  0  0  0  0  0  0  0  0
  184.5120  173.8290  136.7250 C   0  0  1  0  0  3  0  0  0  0  0  0
  183.7190  174.4300  137.8720 C   0  0  0  0  0  2  0  0  0  0  0  0
  183.4820  175.8110  137.5020 N   0  0  0  0  0  0  0  0  0  0  0  0
  184.3870  174.8120  135.5640 C   0  0  0  0  0  2  0  0  0  0  0  0
  182.7180  178.1930  137.9620 C   0  0  0  0  0  3  0  0  0  0  0  0
  184.8360  178.8580  139.1180 C   0  0  0  0  0  1  0  0  0  0  0  0
  183.3470  179.1220  138.9940 C   0  0  0  0  0  2  0  0  0  0  0  0
  181.0370  179.5780  136.7230 C   0  0  0  0  0  1  0  0  0  0  0  0
  181.2370  178.4970  137.7700 C   0  0  0  0  0  2  0  0  0  0  0  0
  1  5  1  0  0  0  0
  1  7  2  0  0  0  0
  2  9  2  0  0  0  0
  2  3  1  0  0  0  0
  3 10  1  0  0  0  0
  4  3  2  0  0  0  0
  5  2  1  0  0  0  0
  6  5  2  0  0  0  0
  7  4  1  0  0  0  0
  8 10  1  0  0  0  0
  8 16  1  1  0  0  0
  9  8  1  0  0  0  0
 13 19  1  0  0  0  0
 14 12  2  0  0  0  0
 15 13  1  0  0  0  0
 15 18  1  0  0  0  0
 16 13  2  0  0  0  0
 16 14  1  0  0  0  0
 17 11  1  0  0  0  0
 17 20  1  1  0  0  0
 18 17  1  0  0  0  0
 19 12  1  6  0  0  0
 19 11  1  0  0  0  0
 20 22  1  0  0  0  0
 22 23  2  0  0  0  0
 22 21  1  0  0  0  0
 24 25  1  0  0  0  0
 25  9  1  0  0  0  0
 26  6  1  0  0  0  0
 27 26  1  0  0  0  0
 27 28  1  0  0  0  0
 28 29  1  0  0  0  0
 29 30  1  0  0  0  0
 30 31  1  0  0  0  0
 33 37  1  0  0  0  0
 34 32  2  0  0  0  0
 35 31  1  1  0  0  0
 35 36  1  0  0  0  0
 37 36  1  0  0  0  0
 37 34  1  0  0  0  0
 38 33  1  0  0  0  0
 38 35  1  0  0  0  0
 39 34  1  0  0  0  0
 39 41  1  0  0  0  0
 41 40  1  0  0  0  0
 42 43  1  0  0  0  0
 43 39  1  0  0  0  0
M  END
>  <MODEL>
4

>  <REMARK>
 VINA RESULT:      -7.0      3.534      9.353
  Name = 
  14 active torsions:
  status: ('A' for Active; 'I' for Inactive)
    1  A    between atoms: C_1  and  N_29
    2  A    between atoms: C_1  and  C_30
    3  A    between atoms: C_3  and  C_12
    4  A    between atoms: C_5  and  C_38
    5  A    between atoms: C_12  and  C_22
    6  A    between atoms: C_15  and  C_40
    7  A    between atoms: C_19  and  C_36
    8  A    between atoms: C_21  and  C_38
    9  A    between atoms: C_26  and  C_38
   10  A    between atoms: C_28  and  N_31
   11  A    between atoms: C_28  and  C_32
   12  A    between atoms: C_30  and  N_31
   13  A    between atoms: C_32  and  O_41
   14  A    between atoms: C_33  and  O_41
                            x       y       z     vdW  Elec       q    Type
                         _______ _______ _______ _____ _____    ______ ____

>  <TORSDO>
F 14

$$$$
=
 OpenBabel11062412193D

 43 47  0  0  1  0  0  0  0  0999 V2000
  184.9570  174.0710  136.6840 C   0  0  0  0  0  3  0  0  0  0  0  0
  183.8210  176.1830  137.3920 C   0  0  0  0  0  0  0  0  0  0  0  0
  182.5970  175.4480  137.3400 C   0  0  0  0  0  0  0  0  0  0  0  0
  182.5430  174.1930  137.0080 N   0  0  0  0  0  0  0  0  0  0  0  0
  185.0790  175.5060  137.0490 C   0  0  0  0  0  0  0  0  0  0  0  0
  186.2130  176.1370  137.0480 N   0  0  0  0  0  0  0  0  0  0  0  0
  183.7500  173.4720  136.6720 C   0  0  0  0  0  3  0  0  0  0  0  0
  182.0470  177.5830  137.9630 C   0  0  2  0  0  3  0  0  0  0  0  0
  183.5420  177.4270  137.7640 C   0  0  0  0  0  0  0  0  0  0  0  0
  181.4870  176.2540  137.6850 N   0  0  0  0  0  2  0  0  0  0  0  0
  180.1930  181.8620  136.1480 C   0  0  0  0  0  2  0  0  0  0  0  0
  180.4750  179.4240  135.2700 C   0  0  0  0  0  3  0  0  0  0  0  0
  181.2610  179.9110  137.2820 C   0  0  0  0  0  0  0  0  0  0  0  0
  180.9980  178.2810  135.7790 N   0  0  0  0  0  0  0  0  0  0  0  0
  181.4480  180.7140  138.5320 C   0  0  0  0  0  2  0  0  0  0  0  0
  181.4720  178.5840  137.0100 C   0  0  0  0  0  0  0  0  0  0  0  0
  180.2580  182.4390  137.5780 C   0  0  1  0  0  3  0  0  0  0  0  0
  181.4820  182.0940  138.2100 O   0  0  0  0  0  0  0  0  0  0  0  0
  180.6160  180.4300  136.2040 C   0  0  1  0  0  3  0  0  0  0  0  0
  180.1040  183.9500  137.5220 C   0  0  0  0  0  2  0  0  0  0  0  0
  182.4480  184.7730  137.7430 O   0  0  0  0  0  1  0  0  0  0  0  0
  181.3260  184.5780  136.9470 C   0  0  0  0  0  0  0  0  0  0  0  0
  181.3300  184.9690  135.7510 O   0  0  0  0  0  0  0  0  0  0  0  0
  184.9390  178.6220  139.4160 C   0  0  0  0  0  1  0  0  0  0  0  0
  184.5330  178.5280  137.9580 C   0  0  0  0  0  2  0  0  0  0  0  0
  187.4790  175.4990  136.7140 C   0  0  0  0  0  2  0  0  0  0  0  0
  188.6230  176.4840  136.9000 C   0  0  0  0  0  2  0  0  0  0  0  0
  188.7720  176.8460  138.3050 N   0  0  0  0  0  2  0  0  0  0  0  0
  190.1860  177.0560  138.5810 C   0  0  0  0  0  2  0  0  0  0  0  0
  190.4900  176.7710  140.0430 C   0  0  0  0  0  2  0  0  0  0  0  0
  189.3000  176.5580  140.7430 O   0  0  0  0  0  0  0  0  0  0  0  0
  185.8960  179.8510  142.0980 O   0  0  0  0  0  0  0  0  0  0  0  0
  187.5900  176.8840  143.4470 C   0  0  0  0  0  2  0  0  0  0  0  0
  186.0670  178.8050  142.7830 C   0  0  0  0  0  0  0  0  0  0  0  0
  189.4030  177.3550  141.8850 C   0  0  1  0  0  3  0  0  0  0  0  0
  188.3810  178.4750  141.8040 C   0  0  0  0  0  2  0  0  0  0  0  0
  187.3020  178.0840  142.6900 N   0  0  0  0  0  0  0  0  0  0  0  0
  189.0250  176.5260  143.1090 C   0  0  0  0  0  2  0  0  0  0  0  0
  184.9730  178.3200  143.6850 C   0  0  0  0  0  3  0  0  0  0  0  0
  182.5360  178.8630  143.8580 C   0  0  0  0  0  1  0  0  0  0  0  0
  183.6400  178.3610  142.9470 C   0  0  0  0  0  2  0  0  0  0  0  0
  185.5490  178.4270  146.1210 C   0  0  0  0  0  1  0  0  0  0  0  0
  184.9340  179.1700  144.9490 C   0  0  0  0  0  2  0  0  0  0  0  0
  1  5  1  0  0  0  0
  2  9  2  0  0  0  0
  3  2  1  0  0  0  0
  3 10  1  0  0  0  0
  4  3  2  0  0  0  0
  5  2  1  0  0  0  0
  6  5  2  0  0  0  0
  7  1  2  0  0  0  0
  7  4  1  0  0  0  0
  8 16  1  6  0  0  0
  9 25  1  0  0  0  0
  9  8  1  0  0  0  0
 10  8  1  0  0  0  0
 11 19  1  0  0  0  0
 11 17  1  0  0  0  0
 12 14  2  0  0  0  0
 13 15  1  0  0  0  0
 14 16  1  0  0  0  0
 16 13  2  0  0  0  0
 17 20  1  6  0  0  0
 17 18  1  0  0  0  0
 18 15  1  0  0  0  0
 19 12  1  6  0  0  0
 19 13  1  0  0  0  0
 22 20  1  0  0  0  0
 22 21  1  0  0  0  0
 23 22  2  0  0  0  0
 25 24  1  0  0  0  0
 26 27  1  0  0  0  0
 26  6  1  0  0  0  0
 27 28  1  0  0  0  0
 28 29  1  0  0  0  0
 29 30  1  0  0  0  0
 30 31  1  0  0  0  0
 32 34  2  0  0  0  0
 34 39  1  0  0  0  0
 35 31  1  6  0  0  0
 35 38  1  0  0  0  0
 36 35  1  0  0  0  0
 36 37  1  0  0  0  0
 37 34  1  0  0  0  0
 37 33  1  0  0  0  0
 38 33  1  0  0  0  0
 39 43  1  0  0  0  0
 41 39  1  0  0  0  0
 41 40  1  0  0  0  0
 43 42  1  0  0  0  0
M  END
>  <MODEL>
5

>  <REMARK>
 VINA RESULT:      -7.0      4.207      8.956
  Name = 
  14 active torsions:
  status: ('A' for Active; 'I' for Inactive)
    1  A    between atoms: C_1  and  N_29
    2  A    between atoms: C_1  and  C_30
    3  A    between atoms: C_3  and  C_12
    4  A    between atoms: C_5  and  C_38
    5  A    between atoms: C_12  and  C_22
    6  A    between atoms: C_15  and  C_40
    7  A    between atoms: C_19  and  C_36
    8  A    between atoms: C_21  and  C_38
    9  A    between atoms: C_26  and  C_38
   10  A    between atoms: C_28  and  N_31
   11  A    between atoms: C_28  and  C_32
   12  A    between atoms: C_30  and  N_31
   13  A    between atoms: C_32  and  O_41
   14  A    between atoms: C_33  and  O_41
                            x       y       z     vdW  Elec       q    Type
                         _______ _______ _______ _____ _____    ______ ____

>  <TORSDO>
F 14

$$$$
=
 OpenBabel11062412193D

 43 47  0  0  1  0  0  0  0  0999 V2000
  191.2270  176.7570  147.6140 C   0  0  0  0  0  3  0  0  0  0  0  0
  190.4470  176.5210  145.2500 C   0  0  0  0  0  0  0  0  0  0  0  0
  191.5810  175.6760  145.0440 C   0  0  0  0  0  0  0  0  0  0  0  0
  192.4310  175.3980  145.9860 N   0  0  0  0  0  0  0  0  0  0  0  0
  190.2270  177.1150  146.5750 C   0  0  0  0  0  0  0  0  0  0  0  0
  189.2320  177.9160  146.8040 N   0  0  0  0  0  0  0  0  0  0  0  0
  192.2590  175.9450  147.3130 C   0  0  0  0  0  3  0  0  0  0  0  0
  190.4870  175.7960  143.0350 C   0  0  2  0  0  3  0  0  0  0  0  0
  189.7790  176.6040  144.1050 C   0  0  0  0  0  0  0  0  0  0  0  0
  191.6470  175.2030  143.7130 N   0  0  0  0  0  2  0  0  0  0  0  0
  190.5550  178.2520  138.6750 C   0  0  0  0  0  2  0  0  0  0  0  0
  192.2600  177.7970  140.5930 C   0  0  0  0  0  3  0  0  0  0  0  0
  190.1960  177.0310  140.8230 C   0  0  0  0  0  0  0  0  0  0  0  0
  192.2110  177.1370  141.7770 N   0  0  0  0  0  2  0  0  0  0  0  0
  188.8110  176.6500  140.3990 C   0  0  0  0  0  2  0  0  0  0  0  0
  190.9500  176.6680  141.9100 C   0  0  0  0  0  0  0  0  0  0  0  0
  189.2140  177.5700  138.3270 C   0  0  1  0  0  3  0  0  0  0  0  0
  188.3340  177.5800  139.4420 O   0  0  0  0  0  0  0  0  0  0  0  0
  191.0220  177.7160  139.9890 C   0  0  0  0  0  0  0  0  0  0  0  0
  188.5750  178.2830  137.1480 C   0  0  0  0  0  2  0  0  0  0  0  0
  186.1080  177.9200  137.1520 O   0  0  0  0  0  1  0  0  0  0  0  0
  187.3630  177.5490  136.6880 C   0  0  0  0  0  0  0  0  0  0  0  0
  187.4790  176.5680  135.9080 O   0  0  0  0  0  0  0  0  0  0  0  0
  187.3470  176.4310  143.7000 C   0  0  0  0  0  1  0  0  0  0  0  0
  188.5200  177.3750  143.8780 C   0  0  0  0  0  2  0  0  0  0  0  0
  188.9810  178.5230  148.1040 C   0  0  0  0  0  2  0  0  0  0  0  0
  187.5270  178.3210  148.5020 C   0  0  0  0  0  2  0  0  0  0  0  0
  186.7240  177.9330  147.3480 N   0  0  0  0  0  2  0  0  0  0  0  0
  185.8460  179.0420  147.0020 C   0  0  0  0  0  2  0  0  0  0  0  0
  184.5980  178.5330  146.3000 C   0  0  0  0  0  2  0  0  0  0  0  0
  184.8860  178.2560  144.9610 O   0  0  0  0  0  0  0  0  0  0  0  0
  185.1720  178.6950  140.0630 O   0  0  0  0  0  0  0  0  0  0  0  0
  182.6430  178.8160  142.7240 C   0  0  0  0  0  2  0  0  0  0  0  0
  184.0450  178.5820  140.6190 C   0  0  0  0  0  0  0  0  0  0  0  0
  184.4550  179.3830  144.2560 C   0  0  1  0  0  3  0  0  0  0  0  0
  185.0060  179.3250  142.8430 C   0  0  0  0  0  2  0  0  0  0  0  0
  183.8990  178.9040  142.0080 N   0  0  0  0  0  0  0  0  0  0  0  0
  182.9350  179.3360  144.1200 C   0  0  0  0  0  2  0  0  0  0  0  0
  182.8670  178.1060  139.8240 C   0  0  0  0  0  3  0  0  0  0  0  0
  181.7330  175.9070  139.4510 C   0  0  0  0  0  1  0  0  0  0  0  0
  183.0600  176.6430  139.4440 C   0  0  0  0  0  2  0  0  0  0  0  0
  182.5080  180.4370  138.9790 C   0  0  0  0  0  1  0  0  0  0  0  0
  182.6920  178.9820  138.5890 C   0  0  0  0  0  2  0  0  0  0  0  0
  2  5  1  0  0  0  0
  3  2  1  0  0  0  0
  3  4  2  0  0  0  0
  4  7  1  0  0  0  0
  5  6  2  0  0  0  0
  5  1  1  0  0  0  0
  6 26  1  0  0  0  0
  7  1  2  0  0  0  0
  8 16  1  6  0  0  0
  8 10  1  0  0  0  0
  8  9  1  0  0  0  0
  9  2  2  0  0  0  0
 10  3  1  0  0  0  0
 11 19  1  0  0  0  0
 12 14  1  0  0  0  0
 13 16  2  0  0  0  0
 14 16  1  0  0  0  0
 15 13  1  0  0  0  0
 17 20  1  6  0  0  0
 17 11  1  0  0  0  0
 17 18  1  0  0  0  0
 18 15  1  0  0  0  0
 19 12  2  0  0  0  0
 19 13  1  0  0  0  0
 22 20  1  0  0  0  0
 22 21  1  0  0  0  0
 23 22  2  0  0  0  0
 24 25  1  0  0  0  0
 25  9  1  0  0  0  0
 26 27  1  0  0  0  0
 28 27  1  0  0  0  0
 29 28  1  0  0  0  0
 30 29  1  0  0  0  0
 31 30  1  0  0  0  0
 32 34  2  0  0  0  0
 33 38  1  0  0  0  0
 34 37  1  0  0  0  0
 35 31  1  1  0  0  0
 36 35  1  0  0  0  0
 37 33  1  0  0  0  0
 37 36  1  0  0  0  0
 38 35  1  0  0  0  0
 39 34  1  0  0  0  0
 41 40  1  0  0  0  0
 41 39  1  0  0  0  0
 43 42  1  0  0  0  0
 43 39  1  0  0  0  0
M  END
>  <MODEL>
6

>  <REMARK>
 VINA RESULT:      -6.9      3.599      7.724
  Name = 
  14 active torsions:
  status: ('A' for Active; 'I' for Inactive)
    1  A    between atoms: C_1  and  N_29
    2  A    between atoms: C_1  and  C_30
    3  A    between atoms: C_3  and  C_12
    4  A    between atoms: C_5  and  C_38
    5  A    between atoms: C_12  and  C_22
    6  A    between atoms: C_15  and  C_40
    7  A    between atoms: C_19  and  C_36
    8  A    between atoms: C_21  and  C_38
    9  A    between atoms: C_26  and  C_38
   10  A    between atoms: C_28  and  N_31
   11  A    between atoms: C_28  and  C_32
   12  A    between atoms: C_30  and  N_31
   13  A    between atoms: C_32  and  O_41
   14  A    between atoms: C_33  and  O_41
                            x       y       z     vdW  Elec       q    Type
                         _______ _______ _______ _____ _____    ______ ____

>  <TORSDO>
F 14

$$$$
=
 OpenBabel11062412193D

 43 47  0  0  1  0  0  0  0  0999 V2000
  187.1860  177.4600  145.8300 C   0  0  0  0  0  3  0  0  0  0  0  0
  185.4440  178.3490  144.2720 C   0  0  0  0  0  0  0  0  0  0  0  0
  184.8820  179.0120  145.4060 C   0  0  0  0  0  0  0  0  0  0  0  0
  185.3920  178.9240  146.5980 N   0  0  0  0  0  0  0  0  0  0  0  0
  186.6430  177.5190  144.4490 C   0  0  0  0  0  0  0  0  0  0  0  0
  187.1720  176.8690  143.4580 N   0  0  0  0  0  0  0  0  0  0  0  0
  186.5790  178.1300  146.8290 C   0  0  0  0  0  3  0  0  0  0  0  0
  183.5460  179.5340  143.6210 C   0  0  2  0  0  3  0  0  0  0  0  0
  184.7000  178.6390  143.2110 C   0  0  0  0  0  0  0  0  0  0  0  0
  183.7280  179.7530  145.0610 N   0  0  0  0  0  2  0  0  0  0  0  0
  179.4490  177.8870  141.2650 C   0  0  0  0  0  2  0  0  0  0  0  0
  180.2770  177.9790  143.7340 C   0  0  0  0  0  3  0  0  0  0  0  0
  181.6340  178.7120  142.1460 C   0  0  0  0  0  0  0  0  0  0  0  0
  181.4040  178.4190  144.3470 N   0  0  0  0  0  2  0  0  0  0  0  0
  182.0340  179.1760  140.7790 C   0  0  0  0  0  2  0  0  0  0  0  0
  182.2270  178.8700  143.3730 C   0  0  0  0  0  0  0  0  0  0  0  0
  179.9350  178.6330  140.0040 C   0  0  1  0  0  3  0  0  0  0  0  0
  181.3260  178.4340  139.8000 O   0  0  0  0  0  0  0  0  0  0  0  0
  180.4050  178.1780  142.3750 C   0  0  0  0  0  0  0  0  0  0  0  0
  179.1530  178.1460  138.7950 C   0  0  0  0  0  2  0  0  0  0  0  0
  180.5690  176.6070  137.4370 O   0  0  0  0  0  1  0  0  0  0  0  0
  180.0700  177.8850  137.6500 C   0  0  0  0  0  0  0  0  0  0  0  0
  180.4230  178.8310  136.8990 O   0  0  0  0  0  0  0  0  0  0  0  0
  185.9810  179.0300  141.1340 C   0  0  0  0  0  1  0  0  0  0  0  0
  184.9390  178.1650  141.8160 C   0  0  0  0  0  2  0  0  0  0  0  0
  188.3600  176.0380  143.5940 C   0  0  0  0  0  2  0  0  0  0  0  0
  189.6080  176.8650  143.3240 C   0  0  0  0  0  2  0  0  0  0  0  0
  189.5620  177.4500  141.9890 N   0  0  0  0  0  2  0  0  0  0  0  0
  190.8040  177.1280  141.3010 C   0  0  0  0  0  2  0  0  0  0  0  0
  190.5430  176.8670  139.8260 C   0  0  0  0  0  2  0  0  0  0  0  0
  189.7810  177.9060  139.2870 O   0  0  0  0  0  0  0  0  0  0  0  0
  186.7480  174.7680  137.0030 O   0  0  0  0  0  0  0  0  0  0  0  0
  187.6570  178.3250  136.9070 C   0  0  0  0  0  2  0  0  0  0  0  0
  186.6150  176.0110  136.8270 C   0  0  0  0  0  0  0  0  0  0  0  0
  189.7880  177.6850  137.9080 C   0  0  1  0  0  3  0  0  0  0  0  0
  188.9910  176.4290  137.6010 C   0  0  0  0  0  2  0  0  0  0  0  0
  187.7150  176.8900  137.0930 N   0  0  0  0  0  0  0  0  0  0  0  0
  189.0550  178.8300  137.2140 C   0  0  0  0  0  2  0  0  0  0  0  0
  185.3060  176.5590  136.3460 C   0  0  0  0  0  3  0  0  0  0  0  0
  184.1540  177.9990  138.0380 C   0  0  0  0  0  1  0  0  0  0  0  0
  184.3070  176.5900  137.4980 C   0  0  0  0  0  2  0  0  0  0  0  0
  183.6610  174.8070  135.6370 C   0  0  0  0  0  1  0  0  0  0  0  0
  184.7900  175.7160  135.1860 C   0  0  0  0  0  2  0  0  0  0  0  0
  1  7  2  0  0  0  0
  2  5  1  0  0  0  0
  2  3  1  0  0  0  0
  3  4  2  0  0  0  0
  4  7  1  0  0  0  0
  5  1  1  0  0  0  0
  6 26  1  0  0  0  0
  6  5  2  0  0  0  0
  8 16  1  1  0  0  0
  8 10  1  0  0  0  0
  9  8  1  0  0  0  0
  9  2  2  0  0  0  0
 10  3  1  0  0  0  0
 11 19  1  0  0  0  0
 12 14  1  0  0  0  0
 13 19  1  0  0  0  0
 13 16  2  0  0  0  0
 15 13  1  0  0  0  0
 16 14  1  0  0  0  0
 17 20  1  6  0  0  0
 17 11  1  0  0  0  0
 18 17  1  0  0  0  0
 18 15  1  0  0  0  0
 19 12  2  0  0  0  0
 21 22  1  0  0  0  0
 22 20  1  0  0  0  0
 23 22  2  0  0  0  0
 24 25  1  0  0  0  0
 25  9  1  0  0  0  0
 27 26  1  0  0  0  0
 28 27  1  0  0  0  0
 29 28  1  0  0  0  0
 30 29  1  0  0  0  0
 31 30  1  0  0  0  0
 33 37  1  0  0  0  0
 33 38  1  0  0  0  0
 34 32  2  0  0  0  0
 34 37  1  0  0  0  0
 35 31  1  1  0  0  0
 36 35  1  0  0  0  0
 37 36  1  0  0  0  0
 38 35  1  0  0  0  0
 39 34  1  0  0  0  0
 39 41  1  0  0  0  0
 41 40  1  0  0  0  0
 43 42  1  0  0  0  0
 43 39  1  0  0  0  0
M  END
>  <MODEL>
7

>  <REMARK>
 VINA RESULT:      -6.9      3.604     10.261
  Name = 
  14 active torsions:
  status: ('A' for Active; 'I' for Inactive)
    1  A    between atoms: C_1  and  N_29
    2  A    between atoms: C_1  and  C_30
    3  A    between atoms: C_3  and  C_12
    4  A    between atoms: C_5  and  C_38
    5  A    between atoms: C_12  and  C_22
    6  A    between atoms: C_15  and  C_40
    7  A    between atoms: C_19  and  C_36
    8  A    between atoms: C_21  and  C_38
    9  A    between atoms: C_26  and  C_38
   10  A    between atoms: C_28  and  N_31
   11  A    between atoms: C_28  and  C_32
   12  A    between atoms: C_30  and  N_31
   13  A    between atoms: C_32  and  O_41
   14  A    between atoms: C_33  and  O_41
                            x       y       z     vdW  Elec       q    Type
                         _______ _______ _______ _____ _____    ______ ____

>  <TORSDO>
F 14

$$$$
=
 OpenBabel11062412193D

 43 47  0  0  1  0  0  0  0  0999 V2000
  188.6750  177.9490  140.5920 C   0  0  0  0  0  3  0  0  0  0  0  0
  189.7890  177.0800  138.5290 C   0  0  0  0  0  0  0  0  0  0  0  0
  188.7430  177.7170  137.7920 C   0  0  0  0  0  0  0  0  0  0  0  0
  187.7870  178.3850  138.3620 N   0  0  0  0  0  0  0  0  0  0  0  0
  189.7880  177.1670  139.9950 C   0  0  0  0  0  0  0  0  0  0  0  0
  190.6960  176.5780  140.7120 N   0  0  0  0  0  0  0  0  0  0  0  0
  187.7410  178.5140  139.8010 C   0  0  0  0  0  3  0  0  0  0  0  0
  190.0990  176.7010  136.2500 C   0  0  2  0  0  3  0  0  0  0  0  0
  190.6050  176.4880  137.6640 C   0  0  0  0  0  0  0  0  0  0  0  0
  188.8900  177.5210  136.3990 N   0  0  0  0  0  2  0  0  0  0  0  0
  187.5130  172.6450  134.8690 C   0  0  0  0  0  2  0  0  0  0  0  0
  189.9680  173.4780  134.6050 C   0  0  0  0  0  3  0  0  0  0  0  0
  188.5130  174.8090  135.6110 C   0  0  0  0  0  0  0  0  0  0  0  0
  190.6430  174.5930  134.9770 N   0  0  0  0  0  0  0  0  0  0  0  0
  187.2340  175.1910  136.2890 C   0  0  0  0  0  2  0  0  0  0  0  0
  189.7500  175.4010  135.5950 C   0  0  0  0  0  0  0  0  0  0  0  0
  186.3820  173.1060  135.8120 C   0  0  1  0  0  3  0  0  0  0  0  0
  186.1520  174.5020  135.6860 O   0  0  0  0  0  0  0  0  0  0  0  0
  188.6560  173.5960  135.0130 C   0  0  1  0  0  3  0  0  0  0  0  0
  185.1110  172.3350  135.4940 C   0  0  0  0  0  2  0  0  0  0  0  0
  183.4830  171.0440  136.8740 O   0  0  0  0  0  0  0  0  0  0  0  0
  184.2780  172.1730  136.7190 C   0  0  0  0  0  0  0  0  0  0  0  0
  184.2640  173.0760  137.5950 O   0  0  0  0  0  1  0  0  0  0  0  0
  193.0380  176.2910  137.2770 C   0  0  0  0  0  1  0  0  0  0  0  0
  191.8380  175.7190  138.0060 C   0  0  0  0  0  2  0  0  0  0  0  0
  190.7280  176.6430  142.1670 C   0  0  0  0  0  2  0  0  0  0  0  0
  191.9250  177.4610  142.6250 C   0  0  0  0  0  2  0  0  0  0  0  0
  191.6740  178.0580  143.9320 N   0  0  0  0  0  2  0  0  0  0  0  0
  191.3870  176.9900  144.8790 C   0  0  0  0  0  2  0  0  0  0  0  0
  190.6840  177.5440  146.1080 C   0  0  0  0  0  2  0  0  0  0  0  0
  189.4740  178.1350  145.7360 O   0  0  0  0  0  0  0  0  0  0  0  0
  184.6980  178.9930  146.5840 O   0  0  0  0  0  0  0  0  0  0  0  0
  186.8230  177.2730  144.1310 C   0  0  0  0  0  2  0  0  0  0  0  0
  185.0640  178.5210  145.4720 C   0  0  0  0  0  0  0  0  0  0  0  0
  188.5180  177.1270  145.8800 C   0  0  1  0  0  3  0  0  0  0  0  0
  187.2520  177.7220  146.4700 C   0  0  0  0  0  2  0  0  0  0  0  0
  186.3280  177.8550  145.3610 N   0  0  0  0  0  0  0  0  0  0  0  0
  188.1340  176.6020  144.4990 C   0  0  0  0  0  2  0  0  0  0  0  0
  184.1760  178.6650  144.2740 C   0  0  0  0  0  3  0  0  0  0  0  0
  185.0280  179.2520  141.9950 C   0  0  0  0  0  1  0  0  0  0  0  0
  184.6970  179.7820  143.3780 C   0  0  0  0  0  2  0  0  0  0  0  0
  181.8070  178.9990  143.5310 C   0  0  0  0  0  1  0  0  0  0  0  0
  182.7440  178.9350  144.7230 C   0  0  0  0  0  2  0  0  0  0  0  0
  2  5  1  0  0  0  0
  3  4  2  0  0  0  0
  3  2  1  0  0  0  0
  4  7  1  0  0  0  0
  5  1  1  0  0  0  0
  5  6  2  0  0  0  0
  6 26  1  0  0  0  0
  7  1  2  0  0  0  0
  8 16  1  1  0  0  0
  8 10  1  0  0  0  0
  8  9  1  0  0  0  0
  9 25  1  0  0  0  0
  9  2  2  0  0  0  0
 10  3  1  0  0  0  0
 11 19  1  0  0  0  0
 11 17  1  0  0  0  0
 12 14  2  0  0  0  0
 13 15  1  0  0  0  0
 14 16  1  0  0  0  0
 16 13  2  0  0  0  0
 17 20  1  6  0  0  0
 18 17  1  0  0  0  0
 18 15  1  0  0  0  0
 19 12  1  6  0  0  0
 19 13  1  0  0  0  0
 20 22  1  0  0  0  0
 22 21  2  0  0  0  0
 22 23  1  0  0  0  0
 24 25  1  0  0  0  0
 26 27  1  0  0  0  0
 27 28  1  0  0  0  0
 28 29  1  0  0  0  0
 29 30  1  0  0  0  0
 31 30  1  0  0  0  0
 33 38  1  0  0  0  0
 33 37  1  0  0  0  0
 34 32  2  0  0  0  0
 35 31  1  6  0  0  0
 35 36  1  0  0  0  0
 37 34  1  0  0  0  0
 37 36  1  0  0  0  0
 38 35  1  0  0  0  0
 39 43  1  0  0  0  0
 39 34  1  0  0  0  0
 40 41  1  0  0  0  0
 41 39  1  0  0  0  0
 42 43  1  0  0  0  0
M  END
>  <MODEL>
8

>  <REMARK>
 VINA RESULT:      -6.8      3.220      6.159
  Name = 
  14 active torsions:
  status: ('A' for Active; 'I' for Inactive)
    1  A    between atoms: C_1  and  N_29
    2  A    between atoms: C_1  and  C_30
    3  A    between atoms: C_3  and  C_12
    4  A    between atoms: C_5  and  C_38
    5  A    between atoms: C_12  and  C_22
    6  A    between atoms: C_15  and  C_40
    7  A    between atoms: C_19  and  C_36
    8  A    between atoms: C_21  and  C_38
    9  A    between atoms: C_26  and  C_38
   10  A    between atoms: C_28  and  N_31
   11  A    between atoms: C_28  and  C_32
   12  A    between atoms: C_30  and  N_31
   13  A    between atoms: C_32  and  O_41
   14  A    between atoms: C_33  and  O_41
                            x       y       z     vdW  Elec       q    Type
                         _______ _______ _______ _____ _____    ______ ____

>  <TORSDO>
F 14

$$$$
=
 OpenBabel11062412193D

 43 47  0  0  1  0  0  0  0  0999 V2000
  183.8760  174.8790  137.6120 C   0  0  0  0  0  3  0  0  0  0  0  0
  186.1240  175.7110  136.9000 C   0  0  0  0  0  0  0  0  0  0  0  0
  186.5600  174.3520  136.9670 C   0  0  0  0  0  0  0  0  0  0  0  0
  185.7740  173.3760  137.3070 N   0  0  0  0  0  0  0  0  0  0  0  0
  184.7310  176.0340  137.2370 C   0  0  0  0  0  0  0  0  0  0  0  0
  184.2940  177.2560  137.2250 N   0  0  0  0  0  0  0  0  0  0  0  0
  184.3900  173.6330  137.6380 C   0  0  0  0  0  3  0  0  0  0  0  0
  188.3820  175.5890  136.3350 C   0  0  2  0  0  3  0  0  0  0  0  0
  187.1550  176.4590  136.5230 C   0  0  0  0  0  0  0  0  0  0  0  0
  187.9270  174.2230  136.6260 N   0  0  0  0  0  2  0  0  0  0  0  0
  192.8900  175.8910  138.4880 C   0  0  0  0  0  2  0  0  0  0  0  0
  190.4770  176.6790  139.0800 C   0  0  0  0  0  3  0  0  0  0  0  0
  190.8000  175.6620  137.1400 C   0  0  0  0  0  0  0  0  0  0  0  0
  189.2700  176.5980  138.4680 N   0  0  0  0  0  2  0  0  0  0  0  0
  191.5270  174.8490  136.1140 C   0  0  0  0  0  2  0  0  0  0  0  0
  189.4720  175.9720  137.2870 C   0  0  0  0  0  0  0  0  0  0  0  0
  193.3940  174.8550  137.4610 C   0  0  1  0  0  3  0  0  0  0  0  0
  192.9110  175.1530  136.1590 O   0  0  0  0  0  0  0  0  0  0  0  0
  191.4240  176.0830  138.2720 C   0  0  0  0  0  0  0  0  0  0  0  0
  194.9140  174.8380  137.4640 C   0  0  0  0  0  2  0  0  0  0  0  0
  196.2940  174.9410  139.5390 O   0  0  0  0  0  1  0  0  0  0  0  0
  195.4270  174.2270  138.7220 C   0  0  0  0  0  0  0  0  0  0  0  0
  195.1050  173.0490  139.0260 O   0  0  0  0  0  0  0  0  0  0  0  0
  187.1190  178.2620  134.8320 C   0  0  0  0  0  1  0  0  0  0  0  0
  187.1350  177.9380  136.3140 C   0  0  0  0  0  2  0  0  0  0  0  0
  182.9210  177.6150  137.5520 C   0  0  0  0  0  2  0  0  0  0  0  0
  182.8980  178.5360  138.7620 C   0  0  0  0  0  2  0  0  0  0  0  0
  183.1500  177.7870  139.9880 N   0  0  0  0  0  2  0  0  0  0  0  0
  184.0890  178.5420  140.8060 C   0  0  0  0  0  2  0  0  0  0  0  0
  183.4190  179.0120  142.0870 C   0  0  0  0  0  2  0  0  0  0  0  0
  184.3870  179.4320  143.0020 O   0  0  0  0  0  0  0  0  0  0  0  0
  188.4000  176.6090  143.4430 O   0  0  0  0  0  0  0  0  0  0  0  0
  186.3010  178.8030  145.5100 C   0  0  0  0  0  2  0  0  0  0  0  0
  188.0930  177.4130  144.3660 C   0  0  0  0  0  0  0  0  0  0  0  0
  184.5010  178.3830  143.9170 C   0  0  1  0  0  3  0  0  0  0  0  0
  185.6980  177.5260  143.5450 C   0  0  0  0  0  2  0  0  0  0  0  0
  186.7460  177.8910  144.4770 N   0  0  0  0  0  0  0  0  0  0  0  0
  184.8060  178.9560  145.2990 C   0  0  0  0  0  2  0  0  0  0  0  0
  189.1400  177.8670  145.3370 C   0  0  0  0  0  3  0  0  0  0  0  0
  191.6100  177.5330  145.1120 C   0  0  0  0  0  1  0  0  0  0  0  0
  190.3990  178.2770  144.5820 C   0  0  0  0  0  2  0  0  0  0  0  0
  189.2930  177.2610  147.7630 C   0  0  0  0  0  1  0  0  0  0  0  0
  189.4300  176.7550  146.3390 C   0  0  0  0  0  2  0  0  0  0  0  0
  1  7  2  0  0  0  0
  2  3  1  0  0  0  0
  2  5  1  0  0  0  0
  3  4  2  0  0  0  0
  4  7  1  0  0  0  0
  5  1  1  0  0  0  0
  6  5  2  0  0  0  0
  6 26  1  0  0  0  0
  8  9  1  0  0  0  0
  8 10  1  0  0  0  0
  8 16  1  1  0  0  0
  9  2  2  0  0  0  0
 10  3  1  0  0  0  0
 13 16  2  0  0  0  0
 13 19  1  0  0  0  0
 14 12  1  0  0  0  0
 15 18  1  0  0  0  0
 15 13  1  0  0  0  0
 16 14  1  0  0  0  0
 17 20  1  6  0  0  0
 17 11  1  0  0  0  0
 18 17  1  0  0  0  0
 19 11  1  0  0  0  0
 19 12  2  0  0  0  0
 20 22  1  0  0  0  0
 22 23  2  0  0  0  0
 22 21  1  0  0  0  0
 24 25  1  0  0  0  0
 25  9  1  0  0  0  0
 26 27  1  0  0  0  0
 27 28  1  0  0  0  0
 28 29  1  0  0  0  0
 29 30  1  0  0  0  0
 30 31  1  0  0  0  0
 32 34  2  0  0  0  0
 34 37  1  0  0  0  0
 34 39  1  0  0  0  0
 35 31  1  6  0  0  0
 35 38  1  0  0  0  0
 36 35  1  0  0  0  0
 36 37  1  0  0  0  0
 37 33  1  0  0  0  0
 38 33  1  0  0  0  0
 39 43  1  0  0  0  0
 41 40  1  0  0  0  0
 41 39  1  0  0  0  0
 43 42  1  0  0  0  0
M  END
>  <MODEL>
9

>  <REMARK>
 VINA RESULT:      -6.8      1.864      2.878
  Name = 
  14 active torsions:
  status: ('A' for Active; 'I' for Inactive)
    1  A    between atoms: C_1  and  N_29
    2  A    between atoms: C_1  and  C_30
    3  A    between atoms: C_3  and  C_12
    4  A    between atoms: C_5  and  C_38
    5  A    between atoms: C_12  and  C_22
    6  A    between atoms: C_15  and  C_40
    7  A    between atoms: C_19  and  C_36
    8  A    between atoms: C_21  and  C_38
    9  A    between atoms: C_26  and  C_38
   10  A    between atoms: C_28  and  N_31
   11  A    between atoms: C_28  and  C_32
   12  A    between atoms: C_30  and  N_31
   13  A    between atoms: C_32  and  O_41
   14  A    between atoms: C_33  and  O_41
                            x       y       z     vdW  Elec       q    Type
                         _______ _______ _______ _____ _____    ______ ____

>  <TORSDO>
F 14

$$$$
