=
 OpenBabel11062413573D

 53 60  0  0  1  0  0  0  0  0999 V2000
  191.6360  177.2700  143.8490 N   0  0  0  0  0  0  0  0  0  0  0  0
  189.5350  177.5750  141.1720 N   0  0  0  0  0  0  0  0  0  0  0  0
  189.3950  177.4970  144.5730 C   0  0  2  0  0  3  0  0  0  0  0  0
  189.8540  176.5310  142.1970 C   0  0  1  0  0  0  0  0  0  0  0  0
  188.9000  176.5590  143.4630 C   0  0  2  0  0  3  0  0  0  0  0  0
  188.4930  177.1230  142.0570 C   0  0  1  0  0  0  0  0  0  0  0  0
  190.6400  177.5230  144.8270 N   0  0  0  0  0  2  0  0  0  0  0  0
  191.2570  176.9570  142.6540 C   0  0  0  0  0  3  0  0  0  0  0  0
  188.5600  177.9000  145.6800 C   0  0  0  0  0  1  0  0  0  0  0  0
  187.3840  179.2130  141.2400 O   0  0  0  0  0  1  0  0  0  0  0  0
  187.3750  178.2120  142.0610 C   0  0  1  0  0  3  0  0  0  0  0  0
  186.0490  177.7720  142.6820 C   0  0  0  0  0  2  0  0  0  0  0  0
  184.9530  178.7550  142.5270 C   0  0  2  0  0  3  0  0  0  0  0  0
  182.6590  178.7360  142.9260 C   0  0  0  0  0  0  0  0  0  0  0  0
  183.9460  178.7570  143.5790 N   0  0  0  0  0  0  0  0  0  0  0  0
  182.8770  178.3920  141.5540 N   0  0  0  0  0  0  0  0  0  0  0  0
  181.7030  179.4290  143.2830 O   0  0  0  0  0  0  0  0  0  0  0  0
  184.2770  178.3660  141.2690 C   0  0  0  0  0  2  0  0  0  0  0  0
  184.2500  179.4600  144.8620 C   0  0  0  0  0  2  0  0  0  0  0  0
  184.7280  178.5220  146.0220 C   0  0  0  0  0  1  0  0  0  0  0  0
  181.8120  178.6920  140.5760 C   0  0  0  0  0  2  0  0  0  0  0  0
  180.6140  177.9820  138.6570 N   0  0  1  0  0  0  0  0  0  0  0  0
  181.0770  179.4100  136.2100 C   0  0  0  0  0  1  0  0  0  0  0  0
  181.9430  177.8130  137.9610 C   0  0  2  0  0  0  0  0  0  0  0  0
  182.8500  178.8670  138.0240 O   0  0  0  0  0  1  0  0  0  0  0  0
  181.9070  177.3070  135.4230 C   0  0  0  0  0  1  0  0  0  0  0  0
  179.3590  177.3190  136.8300 S   0  0  0  0  0  0  0  0  0  0  0  0
  181.1760  177.9300  136.5660 C   0  0  0  0  0  0  0  0  0  0  0  0
  179.9850  176.8640  138.4090 O   0  0  0  0  0  0  0  0  0  0  0  0
  181.7650  177.6430  139.4520 C   0  0  1  0  0  0  0  0  0  0  0  0
  182.0490  176.0900  139.7860 C   0  0  0  0  0  1  0  0  0  0  0  0
  189.5370  176.9930  139.7160 C   0  0  0  0  0  2  0  0  0  0  0  0
  189.2290  177.9490  138.5150 C   0  0  0  0  0  0  0  0  0  0  0  0
  188.9620  179.1280  138.6940 O   0  0  0  0  0  0  0  0  0  0  0  0
  189.8040  177.6070  137.1750 C   0  0  0  0  0  2  0  0  0  0  0  0
  189.3900  176.2920  136.5750 N   0  0  0  0  0  0  0  0  0  0  0  0
  188.1050  176.0910  135.8370 C   0  0  0  0  0  0  0  0  0  0  0  0
  187.9230  176.6120  134.7270 O   0  0  0  0  0  0  0  0  0  0  0  0
  192.4220  173.4240  136.4670 C   0  0  0  0  0  3  0  0  0  0  0  0
  191.7000  175.6020  136.9710 C   0  0  0  0  0  3  0  0  0  0  0  0
  190.4580  175.3390  136.3850 C   0  0  0  0  0  0  0  0  0  0  0  0
  191.2140  173.1150  135.8790 N   0  0  0  0  0  0  0  0  0  0  0  0
  190.2470  174.0550  135.8580 C   0  0  0  0  0  3  0  0  0  0  0  0
  192.6730  174.6580  137.0360 C   0  0  0  0  0  0  0  0  0  0  0  0
  193.9330  175.0300  137.7190 C   0  0  2  0  0  3  0  0  0  0  0  0
  194.4290  174.0020  138.5220 F   0  0  0  0  0  0  0  0  0  0  0  0
  193.7470  176.2640  138.4430 N   0  0  0  0  0  1  0  0  0  0  0  0
  186.1010  173.4110  137.3420 C   0  0  0  0  0  3  0  0  0  0  0  0
  187.0120  175.4430  136.4810 C   0  0  0  0  0  0  0  0  0  0  0  0
  187.1820  174.1270  136.8490 C   0  0  0  0  0  3  0  0  0  0  0  0
  185.8860  176.1620  136.7890 C   0  0  0  0  0  3  0  0  0  0  0  0
  184.8620  174.1000  137.5040 C   0  0  0  0  0  3  0  0  0  0  0  0
  184.7620  175.4910  137.2640 C   0  0  0  0  0  3  0  0  0  0  0  0
  1  7  1  0  0  0  0
  2  6  1  0  0  0  0
  2  4  1  0  0  0  0
  3  7  1  0  0  0  0
  3  9  1  1  0  0  0
  4  8  1  6  0  0  0
  4  5  1  0  0  0  0
  5  3  1  0  0  0  0
  6 11  1  0  0  0  0
  6  4  1  0  0  0  0
  6  5  1  0  0  0  0
  8  1  2  0  0  0  0
 10 11  1  0  0  0  0
 11 12  1  0  0  0  0
 13 12  1  0  0  0  0
 13 15  1  0  0  0  0
 14 17  2  0  0  0  0
 14 15  1  0  0  0  0
 15 19  1  0  0  0  0
 16 14  1  0  0  0  0
 18 16  1  0  0  0  0
 18 13  1  0  0  0  0
 19 20  1  0  0  0  0
 21 16  1  0  0  0  0
 22 30  1  0  0  0  0
 23 28  1  0  0  0  0
 24 25  1  0  0  0  0
 24 22  1  0  0  0  0
 24 30  1  0  0  0  0
 26 28  1  0  0  0  0
 27 29  1  0  0  0  0
 28 27  1  0  0  0  0
 28 24  1  0  0  0  0
 29 22  1  0  0  0  0
 30 31  1  0  0  0  0
 30 21  1  0  0  0  0
 32  2  1  0  0  0  0
 33 34  2  0  0  0  0
 33 32  1  0  0  0  0
 35 33  1  0  0  0  0
 36 35  1  0  0  0  0
 37 49  1  0  0  0  0
 37 36  1  0  0  0  0
 38 37  2  0  0  0  0
 39 44  1  0  0  0  0
 40 44  2  0  0  0  0
 41 36  1  0  0  0  0
 41 40  1  0  0  0  0
 42 39  2  0  0  0  0
 43 42  1  0  0  0  0
 43 41  2  0  0  0  0
 44 45  1  0  0  0  0
 45 47  1  0  0  0  0
 45 46  1  0  0  0  0
 48 52  1  0  0  0  0
 49 51  2  0  0  0  0
 49 50  1  0  0  0  0
 50 48  2  0  0  0  0
 51 53  1  0  0  0  0
 53 52  2  0  0  0  0
M  END
>  <MODEL>
1

>  <REMARK>
 VINA RESULT:      -8.5      0.000      0.000
  Name = 
  13 active torsions:
  status: ('A' for Active; 'I' for Inactive)
    1  A    between atoms: N_3  and  C_18
    2  A    between atoms: N_3  and  C_52
    3  A    between atoms: C_5  and  C_14
    4  A    between atoms: N_7  and  C_39
    5  A    between atoms: C_10  and  C_39
    6  A    between atoms: C_10  and  C_52
    7  A    between atoms: C_11  and  C_27
    8  A    between atoms: C_12  and  C_34
    9  A    between atoms: C_14  and  C_43
   10  A    between atoms: C_15  and  N_22
   11  A    between atoms: N_26  and  C_48
   12  A    between atoms: C_33  and  C_43
   13  A    between atoms: C_47  and  C_48
                            x       y       z     vdW  Elec       q    Type
                         _______ _______ _______ _____ _____    ______ ____

>  <TORSDO>
F 13

$$$$
=
 OpenBabel11062413573D

 53 60  0  0  1  0  0  0  0  0999 V2000
  194.4970  175.6140  137.7890 N   0  0  0  0  0  0  0  0  0  0  0  0
  191.1500  175.5410  138.4700 N   0  0  0  0  0  0  0  0  0  0  0  0
  193.2760  174.9370  135.8800 C   0  0  2  0  0  3  0  0  0  0  0  0
  192.0840  176.4010  137.6770 C   0  0  1  0  0  0  0  0  0  0  0  0
  192.1940  175.9930  136.1490 C   0  0  2  0  0  3  0  0  0  0  0  0
  190.9520  175.6600  137.0490 C   0  0  1  0  0  0  0  0  0  0  0  0
  194.3810  175.0380  136.4980 N   0  0  0  0  0  2  0  0  0  0  0  0
  193.4340  176.0970  138.3440 C   0  0  0  0  0  3  0  0  0  0  0  0
  193.3630  174.2110  134.6340 C   0  0  0  0  0  1  0  0  0  0  0  0
  189.6600  173.5510  137.4230 O   0  0  0  0  0  1  0  0  0  0  0  0
  190.0890  174.4440  136.5910 C   0  0  1  0  0  3  0  0  0  0  0  0
  189.3540  174.6390  135.2640 C   0  0  0  0  0  2  0  0  0  0  0  0
  187.9840  175.1820  135.4070 C   0  0  2  0  0  3  0  0  0  0  0  0
  186.7150  175.9980  137.1810 C   0  0  0  0  0  0  0  0  0  0  0  0
  187.8350  176.3030  136.3240 N   0  0  0  0  0  0  0  0  0  0  0  0
  186.4130  174.6080  137.0170 N   0  0  0  0  0  0  0  0  0  0  0  0
  185.8530  176.8220  137.4940 O   0  0  0  0  0  0  0  0  0  0  0  0
  187.1910  174.0570  135.9520 C   0  0  0  0  0  2  0  0  0  0  0  0
  188.2120  177.6700  135.8520 C   0  0  0  0  0  2  0  0  0  0  0  0
  188.7970  178.6060  136.9650 C   0  0  0  0  0  1  0  0  0  0  0  0
  185.0870  174.1210  137.4470 C   0  0  0  0  0  2  0  0  0  0  0  0
  182.8750  173.6690  136.7230 N   0  0  1  0  0  0  0  0  0  0  0  0
  180.7260  174.6720  138.3400 C   0  0  0  0  0  1  0  0  0  0  0  0
  182.6240  175.1580  136.7490 C   0  0  2  0  0  0  0  0  0  0  0  0
  182.9890  175.8590  137.8950 O   0  0  0  0  0  1  0  0  0  0  0  0
  180.1900  175.9640  136.3970 C   0  0  0  0  0  1  0  0  0  0  0  0
  180.7340  173.1290  136.0320 S   0  0  0  0  0  0  0  0  0  0  0  0
  181.0620  174.8460  136.8630 C   0  0  0  0  0  0  0  0  0  0  0  0
  182.4190  173.2950  135.5570 O   0  0  0  0  0  0  0  0  0  0  0  0
  183.9810  174.5550  136.4700 C   0  0  1  0  0  0  0  0  0  0  0  0
  184.3530  174.9190  134.9420 C   0  0  0  0  0  1  0  0  0  0  0  0
  190.2090  176.3890  139.3950 C   0  0  0  0  0  2  0  0  0  0  0  0
  190.6830  176.7390  140.8460 C   0  0  0  0  0  0  0  0  0  0  0  0
  191.3620  177.7290  141.0700 O   0  0  0  0  0  0  0  0  0  0  0  0
  189.8670  176.2350  141.9950 C   0  0  0  0  0  2  0  0  0  0  0  0
  189.1030  177.2600  142.7880 N   0  0  0  0  0  0  0  0  0  0  0  0
  189.7160  178.0850  143.8740 C   0  0  0  0  0  0  0  0  0  0  0  0
  190.5480  178.9650  143.6100 O   0  0  0  0  0  0  0  0  0  0  0  0
  185.5680  178.9200  141.3120 C   0  0  0  0  0  3  0  0  0  0  0  0
  186.7120  177.7200  142.9760 C   0  0  0  0  0  3  0  0  0  0  0  0
  187.8670  177.7030  142.1900 C   0  0  0  0  0  0  0  0  0  0  0  0
  186.6810  178.9320  140.4980 N   0  0  0  0  0  0  0  0  0  0  0  0
  187.8130  178.3470  140.9430 C   0  0  0  0  0  3  0  0  0  0  0  0
  185.5740  178.3350  142.5640 C   0  0  0  0  0  0  0  0  0  0  0  0
  184.4250  178.3310  143.4970 C   0  0  2  0  0  3  0  0  0  0  0  0
  183.2080  178.5430  142.8470 F   0  0  0  0  0  0  0  0  0  0  0  0
  184.6610  179.2750  144.5620 N   0  0  0  0  0  1  0  0  0  0  0  0
  190.3030  176.7220  147.2290 C   0  0  0  0  0  3  0  0  0  0  0  0
  189.4790  177.7490  145.2390 C   0  0  0  0  0  0  0  0  0  0  0  0
  190.5250  177.2010  145.9480 C   0  0  0  0  0  3  0  0  0  0  0  0
  188.2740  178.0610  145.8130 C   0  0  0  0  0  3  0  0  0  0  0  0
  188.9980  176.8770  147.7830 C   0  0  0  0  0  3  0  0  0  0  0  0
  187.9880  177.5840  147.0890 C   0  0  0  0  0  3  0  0  0  0  0  0
  1  8  2  0  0  0  0
  2 32  1  0  0  0  0
  3  9  1  6  0  0  0
  3  5  1  0  0  0  0
  3  7  1  0  0  0  0
  4  8  1  1  0  0  0
  4  2  1  0  0  0  0
  5  6  1  0  0  0  0
  5  4  1  0  0  0  0
  6  4  1  0  0  0  0
  6  2  1  0  0  0  0
  7  1  1  0  0  0  0
 11  6  1  0  0  0  0
 11 10  1  0  0  0  0
 12 13  1  0  0  0  0
 12 11  1  0  0  0  0
 13 18  1  0  0  0  0
 13 15  1  0  0  0  0
 14 17  2  0  0  0  0
 15 14  1  0  0  0  0
 16 14  1  0  0  0  0
 16 21  1  0  0  0  0
 18 16  1  0  0  0  0
 19 15  1  0  0  0  0
 19 20  1  0  0  0  0
 22 24  1  0  0  0  0
 24 28  1  0  0  0  0
 24 25  1  0  0  0  0
 26 28  1  0  0  0  0
 27 28  1  0  0  0  0
 28 23  1  0  0  0  0
 29 27  1  0  0  0  0
 29 22  1  0  0  0  0
 30 22  1  0  0  0  0
 30 24  1  0  0  0  0
 30 21  1  0  0  0  0
 31 30  1  0  0  0  0
 32 33  1  0  0  0  0
 33 34  2  0  0  0  0
 33 35  1  0  0  0  0
 35 36  1  0  0  0  0
 36 37  1  0  0  0  0
 37 49  1  0  0  0  0
 38 37  2  0  0  0  0
 39 44  1  0  0  0  0
 41 36  1  0  0  0  0
 41 40  1  0  0  0  0
 42 43  1  0  0  0  0
 42 39  2  0  0  0  0
 43 41  2  0  0  0  0
 44 40  2  0  0  0  0
 44 45  1  0  0  0  0
 45 47  1  0  0  0  0
 46 45  1  0  0  0  0
 48 52  1  0  0  0  0
 49 51  2  0  0  0  0
 49 50  1  0  0  0  0
 50 48  2  0  0  0  0
 51 53  1  0  0  0  0
 53 52  2  0  0  0  0
M  END
>  <MODEL>
2

>  <REMARK>
 VINA RESULT:      -8.2      2.995      7.876
  Name = 
  13 active torsions:
  status: ('A' for Active; 'I' for Inactive)
    1  A    between atoms: N_3  and  C_18
    2  A    between atoms: N_3  and  C_52
    3  A    between atoms: C_5  and  C_14
    4  A    between atoms: N_7  and  C_39
    5  A    between atoms: C_10  and  C_39
    6  A    between atoms: C_10  and  C_52
    7  A    between atoms: C_11  and  C_27
    8  A    between atoms: C_12  and  C_34
    9  A    between atoms: C_14  and  C_43
   10  A    between atoms: C_15  and  N_22
   11  A    between atoms: N_26  and  C_48
   12  A    between atoms: C_33  and  C_43
   13  A    between atoms: C_47  and  C_48
                            x       y       z     vdW  Elec       q    Type
                         _______ _______ _______ _____ _____    ______ ____

>  <TORSDO>
F 13

$$$$
=
 OpenBabel11062413573D

 53 60  0  0  1  0  0  0  0  0999 V2000
  191.5700  175.2630  138.5930 N   0  0  0  0  0  0  0  0  0  0  0  0
  188.5830  176.9010  138.3450 N   0  0  0  0  0  0  0  0  0  0  0  0
  190.6220  174.9380  136.4510 C   0  0  2  0  0  3  0  0  0  0  0  0
  189.9680  177.0690  137.8030 C   0  0  1  0  0  0  0  0  0  0  0  0
  190.1870  176.4090  136.3780 C   0  0  2  0  0  3  0  0  0  0  0  0
  188.7850  176.8610  136.9200 C   0  0  1  0  0  0  0  0  0  0  0  0
  191.4650  174.6050  137.3410 N   0  0  0  0  0  2  0  0  0  0  0  0
  190.8020  176.2770  138.8210 C   0  0  0  0  0  3  0  0  0  0  0  0
  190.6010  174.0630  135.3020 C   0  0  0  0  0  1  0  0  0  0  0  0
  187.3120  176.1710  135.0180 O   0  0  0  0  0  1  0  0  0  0  0  0
  187.5510  176.1420  136.2900 C   0  0  1  0  0  3  0  0  0  0  0  0
  186.9680  175.0070  137.1320 C   0  0  0  0  0  2  0  0  0  0  0  0
  185.4910  175.0230  137.2280 C   0  0  2  0  0  3  0  0  0  0  0  0
  183.7510  175.4700  135.7450 C   0  0  0  0  0  0  0  0  0  0  0  0
  184.7710  174.5040  136.0730 N   0  0  0  0  0  0  0  0  0  0  0  0
  184.0570  176.6770  136.4530 N   0  0  0  0  0  0  0  0  0  0  0  0
  182.5960  175.1650  135.4430 O   0  0  0  0  0  0  0  0  0  0  0  0
  185.1400  176.4560  137.3590 C   0  0  0  0  0  2  0  0  0  0  0  0
  184.6380  173.0240  135.9180 C   0  0  0  0  0  2  0  0  0  0  0  0
  183.8640  172.3140  137.0820 C   0  0  0  0  0  1  0  0  0  0  0  0
  182.9870  177.6790  136.6290 C   0  0  0  0  0  2  0  0  0  0  0  0
  181.7560  179.0150  138.1530 N   0  0  1  0  0  0  0  0  0  0  0  0
  179.4840  177.8100  139.4270 C   0  0  0  0  0  1  0  0  0  0  0  0
  181.9930  177.9460  139.1920 C   0  0  2  0  0  0  0  0  0  0  0  0
  181.7170  176.6270  138.8430 O   0  0  0  0  0  1  0  0  0  0  0  0
  180.7300  178.1660  141.4400 C   0  0  0  0  0  1  0  0  0  0  0  0
  180.5280  180.3790  139.5620 S   0  0  0  0  0  0  0  0  0  0  0  0
  180.7240  178.5010  139.9860 C   0  0  0  0  0  0  0  0  0  0  0  0
  182.0750  180.1240  138.7660 O   0  0  0  0  0  0  0  0  0  0  0  0
  182.9590  178.2300  138.0650 C   0  0  1  0  0  0  0  0  0  0  0  0
  184.3110  178.8000  138.7370 C   0  0  0  0  0  1  0  0  0  0  0  0
  188.0190  178.2330  138.9490 C   0  0  0  0  0  2  0  0  0  0  0  0
  188.1470  178.4840  140.4890 C   0  0  0  0  0  0  0  0  0  0  0  0
  187.4490  179.3100  141.0580 O   0  0  0  0  0  0  0  0  0  0  0  0
  188.6670  177.3700  141.3440 C   0  0  0  0  0  2  0  0  0  0  0  0
  188.3900  177.4610  142.8190 N   0  0  0  0  0  0  0  0  0  0  0  0
  187.1680  176.8890  143.4650 C   0  0  0  0  0  0  0  0  0  0  0  0
  187.0100  175.6620  143.5490 O   0  0  0  0  0  0  0  0  0  0  0  0
  191.8390  177.9010  145.1310 C   0  0  0  0  0  3  0  0  0  0  0  0
  189.6060  177.2010  144.9220 C   0  0  0  0  0  3  0  0  0  0  0  0
  189.5360  177.7620  143.6430 C   0  0  0  0  0  0  0  0  0  0  0  0
  191.8210  178.4700  143.8750 N   0  0  0  0  0  0  0  0  0  0  0  0
  190.6910  178.3830  143.1420 C   0  0  0  0  0  3  0  0  0  0  0  0
  190.7440  177.2450  145.6610 C   0  0  0  0  0  0  0  0  0  0  0  0
  190.7200  176.5780  146.9820 C   0  0  2  0  0  3  0  0  0  0  0  0
  189.5320  176.8110  147.6770 F   0  0  0  0  0  0  0  0  0  0  0  0
  191.8910  176.9560  147.7370 N   0  0  0  0  0  1  0  0  0  0  0  0
  185.0060  178.9860  145.5600 C   0  0  0  0  0  3  0  0  0  0  0  0
  186.0920  177.7480  143.8310 C   0  0  0  0  0  0  0  0  0  0  0  0
  186.1030  178.2690  145.1070 C   0  0  0  0  0  3  0  0  0  0  0  0
  185.1520  178.0920  142.8950 C   0  0  0  0  0  3  0  0  0  0  0  0
  183.9300  179.2060  144.6490 C   0  0  0  0  0  3  0  0  0  0  0  0
  184.0180  178.7920  143.2990 C   0  0  0  0  0  3  0  0  0  0  0  0
  1  8  2  0  0  0  0
  2 32  1  0  0  0  0
  3  9  1  6  0  0  0
  3  7  1  0  0  0  0
  4  2  1  0  0  0  0
  4  8  1  1  0  0  0
  5  3  1  0  0  0  0
  5  6  1  0  0  0  0
  5  4  1  0  0  0  0
  6  4  1  0  0  0  0
  6  2  1  0  0  0  0
  7  1  1  0  0  0  0
 10 11  1  0  0  0  0
 11  6  1  0  0  0  0
 11 12  1  0  0  0  0
 12 13  1  0  0  0  0
 13 18  1  0  0  0  0
 14 15  1  0  0  0  0
 14 16  1  0  0  0  0
 15 13  1  0  0  0  0
 16 21  1  0  0  0  0
 16 18  1  0  0  0  0
 17 14  2  0  0  0  0
 19 15  1  0  0  0  0
 19 20  1  0  0  0  0
 21 30  1  0  0  0  0
 22 29  1  0  0  0  0
 22 24  1  0  0  0  0
 23 28  1  0  0  0  0
 24 28  1  0  0  0  0
 25 24  1  0  0  0  0
 27 28  1  0  0  0  0
 28 26  1  0  0  0  0
 29 27  1  0  0  0  0
 30 22  1  0  0  0  0
 30 31  1  0  0  0  0
 30 24  1  0  0  0  0
 32 33  1  0  0  0  0
 33 34  2  0  0  0  0
 33 35  1  0  0  0  0
 35 36  1  0  0  0  0
 36 37  1  0  0  0  0
 36 41  1  0  0  0  0
 37 38  2  0  0  0  0
 37 49  1  0  0  0  0
 39 44  1  0  0  0  0
 40 44  2  0  0  0  0
 41 40  1  0  0  0  0
 42 39  2  0  0  0  0
 43 41  2  0  0  0  0
 43 42  1  0  0  0  0
 44 45  1  0  0  0  0
 45 46  1  0  0  0  0
 45 47  1  0  0  0  0
 49 50  2  0  0  0  0
 50 48  1  0  0  0  0
 51 53  2  0  0  0  0
 51 49  1  0  0  0  0
 52 48  2  0  0  0  0
 53 52  1  0  0  0  0
M  END
>  <MODEL>
3

>  <REMARK>
 VINA RESULT:      -8.1      2.498      7.075
  Name = 
  13 active torsions:
  status: ('A' for Active; 'I' for Inactive)
    1  A    between atoms: N_3  and  C_18
    2  A    between atoms: N_3  and  C_52
    3  A    between atoms: C_5  and  C_14
    4  A    between atoms: N_7  and  C_39
    5  A    between atoms: C_10  and  C_39
    6  A    between atoms: C_10  and  C_52
    7  A    between atoms: C_11  and  C_27
    8  A    between atoms: C_12  and  C_34
    9  A    between atoms: C_14  and  C_43
   10  A    between atoms: C_15  and  N_22
   11  A    between atoms: N_26  and  C_48
   12  A    between atoms: C_33  and  C_43
   13  A    between atoms: C_47  and  C_48
                            x       y       z     vdW  Elec       q    Type
                         _______ _______ _______ _____ _____    ______ ____

>  <TORSDO>
F 13

$$$$
=
 OpenBabel11062413573D

 53 60  0  0  1  0  0  0  0  0999 V2000
  191.7700  175.2710  138.3220 N   0  0  0  0  0  0  0  0  0  0  0  0
  188.6510  176.6630  138.3730 N   0  0  0  0  0  0  0  0  0  0  0  0
  190.8010  175.2160  136.1650 C   0  0  2  0  0  3  0  0  0  0  0  0
  190.0040  177.0350  137.8520 C   0  0  1  0  0  0  0  0  0  0  0  0
  190.2430  176.6360  136.3360 C   0  0  2  0  0  3  0  0  0  0  0  0
  188.8210  176.8710  136.9580 C   0  0  1  0  0  0  0  0  0  0  0  0
  191.6900  174.8170  136.9800 N   0  0  0  0  0  2  0  0  0  0  0  0
  190.9250  176.1650  138.7190 C   0  0  0  0  0  3  0  0  0  0  0  0
  190.8260  174.5390  134.8890 C   0  0  0  0  0  1  0  0  0  0  0  0
  187.4390  176.2790  134.9590 O   0  0  0  0  0  1  0  0  0  0  0  0
  187.6370  176.1600  136.2320 C   0  0  1  0  0  3  0  0  0  0  0  0
  187.0720  174.9420  136.9630 C   0  0  0  0  0  2  0  0  0  0  0  0
  185.5930  174.8780  136.9750 C   0  0  2  0  0  3  0  0  0  0  0  0
  183.9230  175.1200  135.3690 C   0  0  0  0  0  0  0  0  0  0  0  0
  184.9740  174.2400  135.8220 N   0  0  0  0  0  0  0  0  0  0  0  0
  184.1190  176.3870  136.0050 N   0  0  0  0  0  0  0  0  0  0  0  0
  182.8070  174.7270  135.0250 O   0  0  0  0  0  0  0  0  0  0  0  0
  185.1570  176.2930  136.9840 C   0  0  0  0  0  2  0  0  0  0  0  0
  184.9310  172.7470  135.7660 C   0  0  0  0  0  2  0  0  0  0  0  0
  184.2790  172.0660  137.0170 C   0  0  0  0  0  1  0  0  0  0  0  0
  182.9870  177.3350  136.0490 C   0  0  0  0  0  2  0  0  0  0  0  0
  183.1270  178.1790  138.2610 N   0  0  1  0  0  0  0  0  0  0  0  0
  182.2330  180.8700  138.7040 C   0  0  0  0  0  1  0  0  0  0  0  0
  181.6480  178.4720  138.1810 C   0  0  2  0  0  0  0  0  0  0  0  0
  181.1800  179.1590  137.0640 O   0  0  0  0  0  1  0  0  0  0  0  0
  180.5950  179.8360  140.1110 C   0  0  0  0  0  1  0  0  0  0  0  0
  183.3650  178.9960  140.4130 S   0  0  0  0  0  0  0  0  0  0  0  0
  181.8440  179.5430  139.3480 C   0  0  0  0  0  0  0  0  0  0  0  0
  183.2620  177.5590  139.4030 O   0  0  0  0  0  0  0  0  0  0  0  0
  182.3060  177.3380  137.4290 C   0  0  1  0  0  0  0  0  0  0  0  0
  181.7240  175.9650  138.0440 C   0  0  0  0  0  1  0  0  0  0  0  0
  187.9920  177.8270  139.1910 C   0  0  0  0  0  2  0  0  0  0  0  0
  188.5170  178.1340  140.6340 C   0  0  0  0  0  0  0  0  0  0  0  0
  188.3910  179.2420  141.1330 O   0  0  0  0  0  0  0  0  0  0  0  0
  188.6380  176.9950  141.5980 C   0  0  0  0  0  2  0  0  0  0  0  0
  188.7430  177.3470  143.0560 N   0  0  0  0  0  0  0  0  0  0  0  0
  189.9960  177.8610  143.6910 C   0  0  0  0  0  0  0  0  0  0  0  0
  190.4220  178.9950  143.4260 O   0  0  0  0  0  0  0  0  0  0  0  0
  185.2290  178.3840  145.0570 C   0  0  0  0  0  3  0  0  0  0  0  0
  187.4940  177.7630  145.1130 C   0  0  0  0  0  3  0  0  0  0  0  0
  187.4850  177.5550  143.7310 C   0  0  0  0  0  0  0  0  0  0  0  0
  185.1680  178.1930  143.6930 N   0  0  0  0  0  0  0  0  0  0  0  0
  186.2850  177.8020  143.0450 C   0  0  0  0  0  3  0  0  0  0  0  0
  186.3920  178.1930  145.7790 C   0  0  0  0  0  0  0  0  0  0  0  0
  186.5260  178.4250  147.2350 C   0  0  2  0  0  3  0  0  0  0  0  0
  186.2070  179.7340  147.5990 F   0  0  0  0  0  0  0  0  0  0  0  0
  187.8450  178.0300  147.6700 N   0  0  0  0  0  1  0  0  0  0  0  0
  192.0950  174.9800  144.5600 C   0  0  0  0  0  3  0  0  0  0  0  0
  190.8050  176.9870  144.4730 C   0  0  0  0  0  0  0  0  0  0  0  0
  191.4210  175.9410  143.8220 C   0  0  0  0  0  3  0  0  0  0  0  0
  191.0130  177.2640  145.8000 C   0  0  0  0  0  3  0  0  0  0  0  0
  192.1710  175.1570  145.9740 C   0  0  0  0  0  3  0  0  0  0  0  0
  191.6630  176.3230  146.5940 C   0  0  0  0  0  3  0  0  0  0  0  0
  1  8  2  0  0  0  0
  2 32  1  0  0  0  0
  3  9  1  6  0  0  0
  3  5  1  0  0  0  0
  3  7  1  0  0  0  0
  4  2  1  0  0  0  0
  4  8  1  1  0  0  0
  5  6  1  0  0  0  0
  5  4  1  0  0  0  0
  6  4  1  0  0  0  0
  6  2  1  0  0  0  0
  7  1  1  0  0  0  0
 10 11  1  0  0  0  0
 11  6  1  0  0  0  0
 11 12  1  0  0  0  0
 12 13  1  0  0  0  0
 13 18  1  0  0  0  0
 14 15  1  0  0  0  0
 14 16  1  0  0  0  0
 15 13  1  0  0  0  0
 16 21  1  0  0  0  0
 16 18  1  0  0  0  0
 17 14  2  0  0  0  0
 19 15  1  0  0  0  0
 19 20  1  0  0  0  0
 21 30  1  0  0  0  0
 22 29  1  0  0  0  0
 23 28  1  0  0  0  0
 24 22  1  0  0  0  0
 24 28  1  0  0  0  0
 25 24  1  0  0  0  0
 28 26  1  0  0  0  0
 28 27  1  0  0  0  0
 29 27  1  0  0  0  0
 30 31  1  0  0  0  0
 30 24  1  0  0  0  0
 30 22  1  0  0  0  0
 32 33  1  0  0  0  0
 33 34  2  0  0  0  0
 33 35  1  0  0  0  0
 35 36  1  0  0  0  0
 36 37  1  0  0  0  0
 36 41  1  0  0  0  0
 37 49  1  0  0  0  0
 38 37  2  0  0  0  0
 39 44  1  0  0  0  0
 40 44  2  0  0  0  0
 41 40  1  0  0  0  0
 42 39  2  0  0  0  0
 43 42  1  0  0  0  0
 43 41  2  0  0  0  0
 44 45  1  0  0  0  0
 45 46  1  0  0  0  0
 45 47  1  0  0  0  0
 48 52  1  0  0  0  0
 49 51  2  0  0  0  0
 50 49  1  0  0  0  0
 50 48  2  0  0  0  0
 51 53  1  0  0  0  0
 52 53  2  0  0  0  0
M  END
>  <MODEL>
4

>  <REMARK>
 VINA RESULT:      -7.9      2.938      7.837
  Name = 
  13 active torsions:
  status: ('A' for Active; 'I' for Inactive)
    1  A    between atoms: N_3  and  C_18
    2  A    between atoms: N_3  and  C_52
    3  A    between atoms: C_5  and  C_14
    4  A    between atoms: N_7  and  C_39
    5  A    between atoms: C_10  and  C_39
    6  A    between atoms: C_10  and  C_52
    7  A    between atoms: C_11  and  C_27
    8  A    between atoms: C_12  and  C_34
    9  A    between atoms: C_14  and  C_43
   10  A    between atoms: C_15  and  N_22
   11  A    between atoms: N_26  and  C_48
   12  A    between atoms: C_33  and  C_43
   13  A    between atoms: C_47  and  C_48
                            x       y       z     vdW  Elec       q    Type
                         _______ _______ _______ _____ _____    ______ ____

>  <TORSDO>
F 13

$$$$
=
 OpenBabel11062413573D

 53 60  0  0  1  0  0  0  0  0999 V2000
  191.6810  177.0260  144.0830 N   0  0  0  0  0  0  0  0  0  0  0  0
  189.5230  177.2930  141.4490 N   0  0  0  0  0  0  0  0  0  0  0  0
  189.4730  177.3840  144.8520 C   0  0  2  0  0  3  0  0  0  0  0  0
  189.8250  176.2860  142.5140 C   0  0  1  0  0  0  0  0  0  0  0  0
  188.9090  176.4160  143.8020 C   0  0  2  0  0  3  0  0  0  0  0  0
  188.4870  176.9300  142.3800 C   0  0  1  0  0  0  0  0  0  0  0  0
  190.7240  177.3670  145.0730 N   0  0  0  0  0  2  0  0  0  0  0  0
  191.2570  176.6720  142.9150 C   0  0  0  0  0  3  0  0  0  0  0  0
  188.6860  177.8760  145.9590 C   0  0  0  0  0  1  0  0  0  0  0  0
  187.4730  179.0500  141.5220 O   0  0  0  0  0  1  0  0  0  0  0  0
  187.4170  178.0650  142.3590 C   0  0  1  0  0  3  0  0  0  0  0  0
  186.0700  177.6930  142.9810 C   0  0  0  0  0  2  0  0  0  0  0  0
  185.0010  178.6900  142.7480 C   0  0  2  0  0  3  0  0  0  0  0  0
  182.6820  178.6950  142.9640 C   0  0  0  0  0  0  0  0  0  0  0  0
  183.9130  178.6950  143.7170 N   0  0  0  0  0  0  0  0  0  0  0  0
  183.0050  178.3590  141.6100 N   0  0  0  0  0  0  0  0  0  0  0  0
  181.7090  179.3960  143.2500 O   0  0  0  0  0  0  0  0  0  0  0  0
  184.4230  178.3190  141.4360 C   0  0  0  0  0  2  0  0  0  0  0  0
  184.1230  179.3850  145.0260 C   0  0  0  0  0  2  0  0  0  0  0  0
  184.9880  178.5800  146.0550 C   0  0  0  0  0  1  0  0  0  0  0  0
  182.0240  178.6790  140.5540 C   0  0  0  0  0  2  0  0  0  0  0  0
  180.6470  177.6100  138.9470 N   0  0  1  0  0  0  0  0  0  0  0  0
  181.9210  175.8200  137.1000 C   0  0  0  0  0  1  0  0  0  0  0  0
  181.1690  176.2900  139.4620 C   0  0  2  0  0  0  0  0  0  0  0  0
  182.5460  176.1430  139.5960 O   0  0  0  0  0  1  0  0  0  0  0  0
  180.5420  174.1580  138.1360 C   0  0  0  0  0  1  0  0  0  0  0  0
  179.2840  176.6580  137.3370 S   0  0  0  0  0  0  0  0  0  0  0  0
  180.7560  175.6340  138.0670 C   0  0  0  0  0  0  0  0  0  0  0  0
  179.3510  177.4420  138.9100 O   0  0  0  0  0  0  0  0  0  0  0  0
  181.0360  177.5210  140.3300 C   0  0  1  0  0  0  0  0  0  0  0  0
  179.9080  177.1980  141.4370 C   0  0  0  0  0  1  0  0  0  0  0  0
  189.4610  176.6430  140.0230 C   0  0  0  0  0  2  0  0  0  0  0  0
  190.6870  176.8010  139.0610 C   0  0  0  0  0  0  0  0  0  0  0  0
  191.6490  177.4880  139.3670 O   0  0  0  0  0  0  0  0  0  0  0  0
  190.9540  175.7060  138.0750 C   0  0  0  0  0  2  0  0  0  0  0  0
  189.9240  175.4940  137.0000 N   0  0  0  0  0  0  0  0  0  0  0  0
  189.2040  176.6130  136.3170 C   0  0  0  0  0  0  0  0  0  0  0  0
  189.8020  177.3710  135.5400 O   0  0  0  0  0  0  0  0  0  0  0  0
  189.7580  171.9260  134.8390 C   0  0  0  0  0  3  0  0  0  0  0  0
  188.7670  173.4510  136.3260 C   0  0  0  0  0  3  0  0  0  0  0  0
  189.9490  174.1960  136.3710 C   0  0  0  0  0  0  0  0  0  0  0  0
  190.9460  172.6260  134.8480 N   0  0  0  0  0  0  0  0  0  0  0  0
  191.0280  173.7500  135.5900 C   0  0  0  0  0  3  0  0  0  0  0  0
  188.6510  172.3380  135.5580 C   0  0  0  0  0  0  0  0  0  0  0  0
  187.3390  171.6530  135.5510 C   0  0  2  0  0  3  0  0  0  0  0  0
  186.5150  172.0660  136.5990 F   0  0  0  0  0  0  0  0  0  0  0  0
  187.5380  170.2240  135.5270 N   0  0  0  0  0  1  0  0  0  0  0  0
  186.4050  178.2550  138.0290 C   0  0  0  0  0  3  0  0  0  0  0  0
  187.8640  176.9250  136.6870 C   0  0  0  0  0  0  0  0  0  0  0  0
  187.6710  178.0030  137.5220 C   0  0  0  0  0  3  0  0  0  0  0  0
  186.8280  176.2150  136.1370 C   0  0  0  0  0  3  0  0  0  0  0  0
  185.3360  177.4110  137.6060 C   0  0  0  0  0  3  0  0  0  0  0  0
  185.5390  176.4110  136.6260 C   0  0  0  0  0  3  0  0  0  0  0  0
  1  7  1  0  0  0  0
  2  6  1  0  0  0  0
  2  4  1  0  0  0  0
  3  7  1  0  0  0  0
  3  9  1  1  0  0  0
  4  8  1  6  0  0  0
  4  5  1  0  0  0  0
  5  3  1  0  0  0  0
  6  4  1  0  0  0  0
  6  5  1  0  0  0  0
  8  1  2  0  0  0  0
 10 11  1  0  0  0  0
 11  6  1  0  0  0  0
 11 12  1  0  0  0  0
 13 12  1  0  0  0  0
 13 15  1  0  0  0  0
 14 17  2  0  0  0  0
 14 15  1  0  0  0  0
 15 19  1  0  0  0  0
 16 14  1  0  0  0  0
 18 16  1  0  0  0  0
 18 13  1  0  0  0  0
 19 20  1  0  0  0  0
 21 16  1  0  0  0  0
 22 24  1  0  0  0  0
 22 30  1  0  0  0  0
 23 28  1  0  0  0  0
 24 25  1  0  0  0  0
 24 30  1  0  0  0  0
 27 28  1  0  0  0  0
 27 29  1  0  0  0  0
 28 26  1  0  0  0  0
 28 24  1  0  0  0  0
 29 22  1  0  0  0  0
 30 21  1  0  0  0  0
 30 31  1  0  0  0  0
 32  2  1  0  0  0  0
 33 34  2  0  0  0  0
 33 32  1  0  0  0  0
 35 33  1  0  0  0  0
 36 35  1  0  0  0  0
 37 49  1  0  0  0  0
 37 36  1  0  0  0  0
 38 37  2  0  0  0  0
 39 42  2  0  0  0  0
 39 44  1  0  0  0  0
 40 41  1  0  0  0  0
 41 36  1  0  0  0  0
 42 43  1  0  0  0  0
 43 41  2  0  0  0  0
 44 40  2  0  0  0  0
 45 44  1  0  0  0  0
 45 46  1  0  0  0  0
 47 45  1  0  0  0  0
 49 50  1  0  0  0  0
 50 48  2  0  0  0  0
 51 53  1  0  0  0  0
 51 49  2  0  0  0  0
 52 48  1  0  0  0  0
 53 52  2  0  0  0  0
M  END
>  <MODEL>
5

>  <REMARK>
 VINA RESULT:      -7.5      1.938      2.818
  Name = 
  13 active torsions:
  status: ('A' for Active; 'I' for Inactive)
    1  A    between atoms: N_3  and  C_18
    2  A    between atoms: N_3  and  C_52
    3  A    between atoms: C_5  and  C_14
    4  A    between atoms: N_7  and  C_39
    5  A    between atoms: C_10  and  C_39
    6  A    between atoms: C_10  and  C_52
    7  A    between atoms: C_11  and  C_27
    8  A    between atoms: C_12  and  C_34
    9  A    between atoms: C_14  and  C_43
   10  A    between atoms: C_15  and  N_22
   11  A    between atoms: N_26  and  C_48
   12  A    between atoms: C_33  and  C_43
   13  A    between atoms: C_47  and  C_48
                            x       y       z     vdW  Elec       q    Type
                         _______ _______ _______ _____ _____    ______ ____

>  <TORSDO>
F 13

$$$$
=
 OpenBabel11062413573D

 53 60  0  0  1  0  0  0  0  0999 V2000
  189.8430  177.6620  144.7740 N   0  0  0  0  0  0  0  0  0  0  0  0
  188.1420  178.0990  141.8450 N   0  0  0  0  0  0  0  0  0  0  0  0
  187.5190  177.8290  145.1810 C   0  0  2  0  0  3  0  0  0  0  0  0
  188.3280  177.0010  142.8460 C   0  0  1  0  0  0  0  0  0  0  0  0
  187.2030  176.9510  143.9620 C   0  0  2  0  0  3  0  0  0  0  0  0
  186.9910  177.5890  142.5440 C   0  0  1  0  0  0  0  0  0  0  0  0
  188.7140  177.8510  145.6120 N   0  0  0  0  0  2  0  0  0  0  0  0
  189.6440  177.4130  143.5220 C   0  0  0  0  0  3  0  0  0  0  0  0
  186.5280  178.1630  146.1770 C   0  0  0  0  0  1  0  0  0  0  0  0
  186.0540  179.8080  141.8650 O   0  0  0  0  0  1  0  0  0  0  0  0
  185.8670  178.6680  142.4470 C   0  0  1  0  0  3  0  0  0  0  0  0
  184.4430  178.1270  142.5870 C   0  0  0  0  0  2  0  0  0  0  0  0
  183.5070  178.6170  141.5500 C   0  0  2  0  0  3  0  0  0  0  0  0
  181.4670  177.8850  140.6980 C   0  0  0  0  0  0  0  0  0  0  0  0
  182.0900  178.4800  141.8560 N   0  0  0  0  0  0  0  0  0  0  0  0
  182.5110  177.3710  139.8640 N   0  0  0  0  0  0  0  0  0  0  0  0
  180.3870  178.2600  140.2370 O   0  0  0  0  0  0  0  0  0  0  0  0
  183.7870  177.7750  140.3650 C   0  0  0  0  0  2  0  0  0  0  0  0
  181.4500  179.4870  142.7560 C   0  0  0  0  0  2  0  0  0  0  0  0
  180.3070  178.9160  143.6640 C   0  0  0  0  0  1  0  0  0  0  0  0
  182.2020  177.0810  138.4490 C   0  0  0  0  0  2  0  0  0  0  0  0
  181.7430  175.4120  136.8290 N   0  0  1  0  0  0  0  0  0  0  0  0
  183.9880  174.0690  135.6470 C   0  0  0  0  0  1  0  0  0  0  0  0
  182.5390  174.4510  137.6780 C   0  0  2  0  0  0  0  0  0  0  0  0
  183.7990  174.8540  138.1120 O   0  0  0  0  0  1  0  0  0  0  0  0
  183.0540  172.1200  136.6780 C   0  0  0  0  0  1  0  0  0  0  0  0
  181.2570  173.8560  135.1860 S   0  0  0  0  0  0  0  0  0  0  0  0
  182.7520  173.5500  136.3770 C   0  0  0  0  0  0  0  0  0  0  0  0
  180.6420  174.7600  136.5640 O   0  0  0  0  0  0  0  0  0  0  0  0
  181.7700  175.6180  138.2530 C   0  0  1  0  0  0  0  0  0  0  0  0
  180.5800  175.0010  139.1510 C   0  0  0  0  0  1  0  0  0  0  0  0
  188.3610  177.6000  140.3740 C   0  0  0  0  0  2  0  0  0  0  0  0
  189.8230  177.4530  139.8310 C   0  0  0  0  0  0  0  0  0  0  0  0
  190.7830  177.8370  140.4810 O   0  0  0  0  0  0  0  0  0  0  0  0
  190.1000  176.3680  138.8360 C   0  0  0  0  0  2  0  0  0  0  0  0
  189.8680  176.7000  137.3880 N   0  0  0  0  0  0  0  0  0  0  0  0
  189.0480  177.8640  136.9300 C   0  0  0  0  0  0  0  0  0  0  0  0
  189.4510  179.0260  137.0920 O   0  0  0  0  0  0  0  0  0  0  0  0
  192.5850  174.6040  135.0100 C   0  0  0  0  0  3  0  0  0  0  0  0
  192.1510  176.0630  136.7990 C   0  0  0  0  0  3  0  0  0  0  0  0
  190.7950  176.0940  136.4620 C   0  0  0  0  0  0  0  0  0  0  0  0
  191.2570  174.6000  134.6370 N   0  0  0  0  0  0  0  0  0  0  0  0
  190.3800  175.3220  135.3660 C   0  0  0  0  0  3  0  0  0  0  0  0
  193.0450  175.3150  136.1020 C   0  0  0  0  0  0  0  0  0  0  0  0
  194.4480  175.3200  136.5740 C   0  0  2  0  0  3  0  0  0  0  0  0
  195.1120  174.1270  136.2850 F   0  0  0  0  0  0  0  0  0  0  0  0
  194.4870  175.6560  137.9760 N   0  0  0  0  0  1  0  0  0  0  0  0
  186.2830  177.2650  134.5950 C   0  0  0  0  0  3  0  0  0  0  0  0
  187.7200  177.6550  136.4610 C   0  0  0  0  0  0  0  0  0  0  0  0
  187.5590  177.3310  135.1320 C   0  0  0  0  0  3  0  0  0  0  0  0
  186.6750  177.6920  137.3490 C   0  0  0  0  0  3  0  0  0  0  0  0
  185.1780  177.4780  135.4720 C   0  0  0  0  0  3  0  0  0  0  0  0
  185.3710  177.6540  136.8630 C   0  0  0  0  0  3  0  0  0  0  0  0
  1  7  1  0  0  0  0
  2  6  1  0  0  0  0
  2  4  1  0  0  0  0
  3  7  1  0  0  0  0
  3  9  1  1  0  0  0
  4  8  1  6  0  0  0
  4  5  1  0  0  0  0
  5  3  1  0  0  0  0
  6  4  1  0  0  0  0
  6  5  1  0  0  0  0
  8  1  2  0  0  0  0
 10 11  1  0  0  0  0
 11  6  1  0  0  0  0
 11 12  1  0  0  0  0
 13 15  1  0  0  0  0
 13 12  1  0  0  0  0
 14 15  1  0  0  0  0
 15 19  1  0  0  0  0
 16 18  1  0  0  0  0
 16 14  1  0  0  0  0
 17 14  2  0  0  0  0
 18 13  1  0  0  0  0
 19 20  1  0  0  0  0
 21 16  1  0  0  0  0
 22 24  1  0  0  0  0
 22 30  1  0  0  0  0
 23 28  1  0  0  0  0
 24 25  1  0  0  0  0
 24 30  1  0  0  0  0
 27 28  1  0  0  0  0
 27 29  1  0  0  0  0
 28 26  1  0  0  0  0
 28 24  1  0  0  0  0
 29 22  1  0  0  0  0
 30 21  1  0  0  0  0
 30 31  1  0  0  0  0
 32  2  1  0  0  0  0
 33 32  1  0  0  0  0
 33 34  2  0  0  0  0
 35 33  1  0  0  0  0
 36 35  1  0  0  0  0
 37 38  2  0  0  0  0
 37 36  1  0  0  0  0
 39 44  1  0  0  0  0
 41 40  1  0  0  0  0
 41 36  1  0  0  0  0
 42 39  2  0  0  0  0
 42 43  1  0  0  0  0
 43 41  2  0  0  0  0
 44 45  1  0  0  0  0
 44 40  2  0  0  0  0
 45 47  1  0  0  0  0
 46 45  1  0  0  0  0
 48 50  2  0  0  0  0
 48 52  1  0  0  0  0
 49 37  1  0  0  0  0
 49 51  2  0  0  0  0
 50 49  1  0  0  0  0
 52 53  2  0  0  0  0
 53 51  1  0  0  0  0
M  END
>  <MODEL>
6

>  <REMARK>
 VINA RESULT:      -7.5      1.981      2.769
  Name = 
  13 active torsions:
  status: ('A' for Active; 'I' for Inactive)
    1  A    between atoms: N_3  and  C_18
    2  A    between atoms: N_3  and  C_52
    3  A    between atoms: C_5  and  C_14
    4  A    between atoms: N_7  and  C_39
    5  A    between atoms: C_10  and  C_39
    6  A    between atoms: C_10  and  C_52
    7  A    between atoms: C_11  and  C_27
    8  A    between atoms: C_12  and  C_34
    9  A    between atoms: C_14  and  C_43
   10  A    between atoms: C_15  and  N_22
   11  A    between atoms: N_26  and  C_48
   12  A    between atoms: C_33  and  C_43
   13  A    between atoms: C_47  and  C_48
                            x       y       z     vdW  Elec       q    Type
                         _______ _______ _______ _____ _____    ______ ____

>  <TORSDO>
F 13

$$$$
=
 OpenBabel11062413573D

 53 60  0  0  1  0  0  0  0  0999 V2000
  182.2550  178.6390  144.7510 N   0  0  0  0  0  0  0  0  0  0  0  0
  183.8640  178.0900  141.7890 N   0  0  0  0  0  0  0  0  0  0  0  0
  184.5570  179.1420  144.9520 C   0  0  2  0  0  3  0  0  0  0  0  0
  183.4440  179.2760  142.5990 C   0  0  1  0  0  0  0  0  0  0  0  0
  184.5680  179.8220  143.5750 C   0  0  2  0  0  3  0  0  0  0  0  0
  184.8720  178.9970  142.2750 C   0  0  1  0  0  0  0  0  0  0  0  0
  183.4330  178.9040  145.4950 N   0  0  0  0  0  2  0  0  0  0  0  0
  182.3190  178.6850  143.4610 C   0  0  0  0  0  3  0  0  0  0  0  0
  185.6490  179.2660  145.8890 C   0  0  0  0  0  1  0  0  0  0  0  0
  186.5040  177.2820  143.0850 O   0  0  0  0  0  1  0  0  0  0  0  0
  186.2360  178.2380  142.2560 C   0  0  1  0  0  3  0  0  0  0  0  0
  186.9930  178.3070  140.9290 C   0  0  0  0  0  2  0  0  0  0  0  0
  188.4600  178.4390  141.0770 C   0  0  2  0  0  3  0  0  0  0  0  0
  190.2870  177.0610  140.6420 C   0  0  0  0  0  0  0  0  0  0  0  0
  189.2620  177.8560  140.0100 N   0  0  0  0  0  0  0  0  0  0  0  0
  189.9150  176.8920  142.0140 N   0  0  0  0  0  0  0  0  0  0  0  0
  191.4640  177.0520  140.2770 O   0  0  0  0  0  0  0  0  0  0  0  0
  188.7780  177.7020  142.3210 C   0  0  0  0  0  2  0  0  0  0  0  0
  189.4290  178.6240  138.7380 C   0  0  0  0  0  2  0  0  0  0  0  0
  189.3670  177.7520  137.4380 C   0  0  0  0  0  1  0  0  0  0  0  0
  190.9550  176.4810  142.9790 C   0  0  0  0  0  2  0  0  0  0  0  0
  189.9260  177.0250  145.0440 N   0  0  1  0  0  0  0  0  0  0  0  0
  190.5710  175.3870  147.3110 C   0  0  0  0  0  1  0  0  0  0  0  0
  191.3090  177.1280  145.6400 C   0  0  2  0  0  0  0  0  0  0  0  0
  192.1960  176.0800  145.4120 O   0  0  0  0  0  1  0  0  0  0  0  0
  191.4850  177.4110  148.2070 C   0  0  0  0  0  1  0  0  0  0  0  0
  188.8310  177.5310  147.0180 S   0  0  0  0  0  0  0  0  0  0  0  0
  190.6570  176.8920  147.0780 C   0  0  0  0  0  0  0  0  0  0  0  0
  189.3310  178.1200  145.4390 O   0  0  0  0  0  0  0  0  0  0  0  0
  191.0110  177.4280  144.1890 C   0  0  1  0  0  0  0  0  0  0  0  0
  191.2840  179.0030  143.9680 C   0  0  0  0  0  1  0  0  0  0  0  0
  183.4490  178.2270  140.2830 C   0  0  0  0  0  2  0  0  0  0  0  0
  183.3800  179.6530  139.6390 C   0  0  0  0  0  0  0  0  0  0  0  0
  184.3360  180.1290  139.0480 O   0  0  0  0  0  0  0  0  0  0  0  0
  182.0370  180.1820  139.2410 C   0  0  0  0  0  2  0  0  0  0  0  0
  181.4500  179.6510  137.9620 N   0  0  0  0  0  0  0  0  0  0  0  0
  181.0220  178.2290  137.7800 C   0  0  0  0  0  0  0  0  0  0  0  0
  180.0300  177.7850  138.3750 O   0  0  0  0  0  0  0  0  0  0  0  0
  180.4150  182.6560  135.2560 C   0  0  0  0  0  3  0  0  0  0  0  0
  181.0450  181.9980  137.4210 C   0  0  0  0  0  3  0  0  0  0  0  0
  180.9410  180.6530  137.0560 C   0  0  0  0  0  0  0  0  0  0  0  0
  180.3000  181.3450  134.8460 N   0  0  0  0  0  0  0  0  0  0  0  0
  180.5760  180.3650  135.7310 C   0  0  0  0  0  3  0  0  0  0  0  0
  180.8070  182.9990  136.5360 C   0  0  0  0  0  0  0  0  0  0  0  0
  180.9910  184.3880  137.0170 C   0  0  2  0  0  3  0  0  0  0  0  0
  180.7300  185.3350  136.0260 F   0  0  0  0  0  0  0  0  0  0  0  0
  182.3050  184.5310  137.5940 N   0  0  0  0  0  1  0  0  0  0  0  0
  182.2220  175.0860  136.3170 C   0  0  0  0  0  3  0  0  0  0  0  0
  181.8520  177.3260  137.0560 C   0  0  0  0  0  0  0  0  0  0  0  0
  181.3900  176.0400  136.8820 C   0  0  0  0  0  3  0  0  0  0  0  0
  183.0160  177.7810  136.4920 C   0  0  0  0  0  3  0  0  0  0  0  0
  183.5160  175.5030  135.8820 C   0  0  0  0  0  3  0  0  0  0  0  0
  183.9010  176.8640  135.9320 C   0  0  0  0  0  3  0  0  0  0  0  0
  1  7  1  0  0  0  0
  2  6  1  0  0  0  0
  2  4  1  0  0  0  0
  3  7  1  0  0  0  0
  3  9  1  1  0  0  0
  4  8  1  6  0  0  0
  4  5  1  0  0  0  0
  5  3  1  0  0  0  0
  6  4  1  0  0  0  0
  6  5  1  0  0  0  0
  8  1  2  0  0  0  0
 11  6  1  0  0  0  0
 11 10  1  0  0  0  0
 12 13  1  0  0  0  0
 12 11  1  0  0  0  0
 13 18  1  0  0  0  0
 14 16  1  0  0  0  0
 15 14  1  0  0  0  0
 15 13  1  0  0  0  0
 16 18  1  0  0  0  0
 16 21  1  0  0  0  0
 17 14  2  0  0  0  0
 19 15  1  0  0  0  0
 20 19  1  0  0  0  0
 21 30  1  0  0  0  0
 22 29  1  0  0  0  0
 22 24  1  0  0  0  0
 24 28  1  0  0  0  0
 25 24  1  0  0  0  0
 27 28  1  0  0  0  0
 28 23  1  0  0  0  0
 28 26  1  0  0  0  0
 29 27  1  0  0  0  0
 30 22  1  0  0  0  0
 30 24  1  0  0  0  0
 31 30  1  0  0  0  0
 32  2  1  0  0  0  0
 33 32  1  0  0  0  0
 34 33  2  0  0  0  0
 35 33  1  0  0  0  0
 36 35  1  0  0  0  0
 37 36  1  0  0  0  0
 37 38  2  0  0  0  0
 39 44  1  0  0  0  0
 41 40  1  0  0  0  0
 41 36  1  0  0  0  0
 42 39  2  0  0  0  0
 42 43  1  0  0  0  0
 43 41  2  0  0  0  0
 44 45  1  0  0  0  0
 44 40  2  0  0  0  0
 45 47  1  0  0  0  0
 46 45  1  0  0  0  0
 48 50  1  0  0  0  0
 49 37  1  0  0  0  0
 50 49  2  0  0  0  0
 51 49  1  0  0  0  0
 52 53  1  0  0  0  0
 52 48  2  0  0  0  0
 53 51  2  0  0  0  0
M  END
>  <MODEL>
7

>  <REMARK>
 VINA RESULT:      -7.4      4.181      9.651
  Name = 
  13 active torsions:
  status: ('A' for Active; 'I' for Inactive)
    1  A    between atoms: N_3  and  C_18
    2  A    between atoms: N_3  and  C_52
    3  A    between atoms: C_5  and  C_14
    4  A    between atoms: N_7  and  C_39
    5  A    between atoms: C_10  and  C_39
    6  A    between atoms: C_10  and  C_52
    7  A    between atoms: C_11  and  C_27
    8  A    between atoms: C_12  and  C_34
    9  A    between atoms: C_14  and  C_43
   10  A    between atoms: C_15  and  N_22
   11  A    between atoms: N_26  and  C_48
   12  A    between atoms: C_33  and  C_43
   13  A    between atoms: C_47  and  C_48
                            x       y       z     vdW  Elec       q    Type
                         _______ _______ _______ _____ _____    ______ ____

>  <TORSDO>
F 13

$$$$
=
 OpenBabel11062413573D

 53 60  0  0  1  0  0  0  0  0999 V2000
  181.8610  176.5150  136.6380 N   0  0  0  0  0  0  0  0  0  0  0  0
  185.0510  177.3970  137.4840 N   0  0  0  0  0  0  0  0  0  0  0  0
  183.4120  174.9610  135.7590 C   0  0  2  0  0  3  0  0  0  0  0  0
  184.0720  176.3330  137.8740 C   0  0  1  0  0  0  0  0  0  0  0  0
  184.2290  174.9820  137.0590 C   0  0  2  0  0  3  0  0  0  0  0  0
  185.3930  176.0160  137.2600 C   0  0  1  0  0  0  0  0  0  0  0  0
  182.2410  175.4530  135.7780 N   0  0  0  0  0  2  0  0  0  0  0  0
  182.7360  176.9730  137.4710 C   0  0  0  0  0  3  0  0  0  0  0  0
  183.6190  173.9710  134.7270 C   0  0  0  0  0  1  0  0  0  0  0  0
  186.7970  177.0010  135.4380 O   0  0  0  0  0  1  0  0  0  0  0  0
  186.5240  175.9800  136.1850 C   0  0  1  0  0  3  0  0  0  0  0  0
  187.6000  174.9190  136.4170 C   0  0  0  0  0  2  0  0  0  0  0  0
  188.9830  175.4480  136.4090 C   0  0  2  0  0  3  0  0  0  0  0  0
  190.9730  174.8660  137.4690 C   0  0  0  0  0  0  0  0  0  0  0  0
  190.0460  174.4530  136.4430 N   0  0  0  0  0  0  0  0  0  0  0  0
  190.3270  175.8750  138.2520 N   0  0  0  0  0  0  0  0  0  0  0  0
  192.1980  174.8240  137.3370 O   0  0  0  0  0  0  0  0  0  0  0  0
  189.0850  176.2470  137.6510 C   0  0  0  0  0  2  0  0  0  0  0  0
  190.4180  173.7590  135.1730 C   0  0  0  0  0  2  0  0  0  0  0  0
  189.6110  172.4470  134.8870 C   0  0  0  0  0  1  0  0  0  0  0  0
  191.1640  176.7520  139.0960 C   0  0  0  0  0  2  0  0  0  0  0  0
  190.0590  176.4100  141.1650 N   0  0  1  0  0  0  0  0  0  0  0  0
  191.6800  176.3620  143.5340 C   0  0  0  0  0  1  0  0  0  0  0  0
  190.6780  177.7010  141.6440 C   0  0  2  0  0  0  0  0  0  0  0  0
  192.0470  177.8740  141.4590 O   0  0  0  0  0  1  0  0  0  0  0  0
  190.4110  178.2970  144.1480 C   0  0  0  0  0  1  0  0  0  0  0  0
  188.9560  175.9810  143.1540 S   0  0  0  0  0  0  0  0  0  0  0  0
  190.4640  177.1950  143.1430 C   0  0  0  0  0  0  0  0  0  0  0  0
  188.7990  176.5270  141.4890 O   0  0  0  0  0  0  0  0  0  0  0  0
  190.3350  177.4370  140.1960 C   0  0  1  0  0  0  0  0  0  0  0  0
  189.1580  178.4660  139.7960 C   0  0  0  0  0  1  0  0  0  0  0  0
  185.6920  178.0970  138.7320 C   0  0  0  0  0  2  0  0  0  0  0  0
  184.7530  178.7430  139.8070 C   0  0  0  0  0  0  0  0  0  0  0  0
  184.1090  179.7510  139.5630 O   0  0  0  0  0  0  0  0  0  0  0  0
  184.1990  177.8590  140.8810 C   0  0  0  0  0  2  0  0  0  0  0  0
  183.7670  178.5300  142.1560 N   0  0  0  0  0  0  0  0  0  0  0  0
  184.6990  179.2950  143.0410 C   0  0  0  0  0  0  0  0  0  0  0  0
  185.1730  180.3810  142.6750 O   0  0  0  0  0  0  0  0  0  0  0  0
  179.6140  178.7120  142.5380 C   0  0  0  0  0  3  0  0  0  0  0  0
  181.5240  178.4590  141.1930 C   0  0  0  0  0  3  0  0  0  0  0  0
  182.3470  178.7500  142.2850 C   0  0  0  0  0  0  0  0  0  0  0  0
  180.3820  179.0030  143.6450 N   0  0  0  0  0  0  0  0  0  0  0  0
  181.7250  179.0040  143.5180 C   0  0  0  0  0  3  0  0  0  0  0  0
  180.1720  178.4170  141.3080 C   0  0  0  0  0  0  0  0  0  0  0  0
  179.3990  178.0540  140.0980 C   0  0  2  0  0  3  0  0  0  0  0  0
  179.8190  176.8450  139.5400 F   0  0  0  0  0  0  0  0  0  0  0  0
  179.4330  179.1450  139.1550 N   0  0  0  0  0  1  0  0  0  0  0  0
  184.9230  178.4090  146.5940 C   0  0  0  0  0  3  0  0  0  0  0  0
  185.1880  178.7000  144.2390 C   0  0  0  0  0  0  0  0  0  0  0  0
  184.4210  178.8390  145.3750 C   0  0  0  0  0  3  0  0  0  0  0  0
  186.3340  177.9480  144.2030 C   0  0  0  0  0  3  0  0  0  0  0  0
  186.2030  177.7780  146.6030 C   0  0  0  0  0  3  0  0  0  0  0  0
  186.8960  177.5110  145.3990 C   0  0  0  0  0  3  0  0  0  0  0  0
  1  8  2  0  0  0  0
  2  4  1  0  0  0  0
  2 32  1  0  0  0  0
  3  9  1  1  0  0  0
  3  7  1  0  0  0  0
  3  5  1  0  0  0  0
  4  8  1  1  0  0  0
  5  6  1  0  0  0  0
  5  4  1  0  0  0  0
  6  2  1  0  0  0  0
  6  4  1  0  0  0  0
  7  1  1  0  0  0  0
 10 11  1  0  0  0  0
 11 12  1  0  0  0  0
 11  6  1  0  0  0  0
 13 12  1  0  0  0  0
 13 15  1  0  0  0  0
 13 18  1  0  0  0  0
 14 16  1  0  0  0  0
 15 14  1  0  0  0  0
 16 21  1  0  0  0  0
 17 14  2  0  0  0  0
 18 16  1  0  0  0  0
 19 15  1  0  0  0  0
 20 19  1  0  0  0  0
 21 30  1  0  0  0  0
 22 29  1  0  0  0  0
 22 24  1  0  0  0  0
 24 28  1  0  0  0  0
 25 24  1  0  0  0  0
 28 27  1  0  0  0  0
 28 23  1  0  0  0  0
 28 26  1  0  0  0  0
 29 27  1  0  0  0  0
 30 22  1  0  0  0  0
 30 24  1  0  0  0  0
 31 30  1  0  0  0  0
 32 33  1  0  0  0  0
 33 35  1  0  0  0  0
 34 33  2  0  0  0  0
 35 36  1  0  0  0  0
 36 41  1  0  0  0  0
 36 37  1  0  0  0  0
 37 49  1  0  0  0  0
 38 37  2  0  0  0  0
 39 42  1  0  0  0  0
 40 44  1  0  0  0  0
 40 41  2  0  0  0  0
 41 43  1  0  0  0  0
 43 42  2  0  0  0  0
 44 39  2  0  0  0  0
 45 44  1  0  0  0  0
 46 45  1  0  0  0  0
 47 45  1  0  0  0  0
 48 52  1  0  0  0  0
 49 50  1  0  0  0  0
 50 48  2  0  0  0  0
 51 49  2  0  0  0  0
 51 53  1  0  0  0  0
 53 52  2  0  0  0  0
M  END
>  <MODEL>
8

>  <REMARK>
 VINA RESULT:      -7.2      3.313     10.318
  Name = 
  13 active torsions:
  status: ('A' for Active; 'I' for Inactive)
    1  A    between atoms: N_3  and  C_18
    2  A    between atoms: N_3  and  C_52
    3  A    between atoms: C_5  and  C_14
    4  A    between atoms: N_7  and  C_39
    5  A    between atoms: C_10  and  C_39
    6  A    between atoms: C_10  and  C_52
    7  A    between atoms: C_11  and  C_27
    8  A    between atoms: C_12  and  C_34
    9  A    between atoms: C_14  and  C_43
   10  A    between atoms: C_15  and  N_22
   11  A    between atoms: N_26  and  C_48
   12  A    between atoms: C_33  and  C_43
   13  A    between atoms: C_47  and  C_48
                            x       y       z     vdW  Elec       q    Type
                         _______ _______ _______ _____ _____    ______ ____

>  <TORSDO>
F 13

$$$$
=
 OpenBabel11062413573D

 53 60  0  0  1  0  0  0  0  0999 V2000
  183.7950  179.6810  144.2350 N   0  0  0  0  0  0  0  0  0  0  0  0
  185.5300  179.5820  141.2940 N   0  0  0  0  0  0  0  0  0  0  0  0
  182.4090  178.9120  142.4800 C   0  0  2  0  0  3  0  0  0  0  0  0
  184.9870  178.5900  142.2750 C   0  0  1  0  0  0  0  0  0  0  0  0
  183.5430  178.0470  141.9110 C   0  0  2  0  0  3  0  0  0  0  0  0
  184.5440  178.6300  140.8520 C   0  0  1  0  0  0  0  0  0  0  0  0
  182.5370  179.3720  143.6570 N   0  0  0  0  0  2  0  0  0  0  0  0
  184.8630  179.4420  143.5470 C   0  0  0  0  0  3  0  0  0  0  0  0
  181.0380  178.7810  142.0450 C   0  0  0  0  0  1  0  0  0  0  0  0
  184.3200  180.2770  138.9820 O   0  0  0  0  0  1  0  0  0  0  0  0
  183.9000  179.1910  139.5460 C   0  0  1  0  0  3  0  0  0  0  0  0
  183.1440  178.1610  138.7070 C   0  0  0  0  0  2  0  0  0  0  0  0
  183.7690  177.8730  137.3960 C   0  0  2  0  0  3  0  0  0  0  0  0
  183.6960  176.0950  135.8940 C   0  0  0  0  0  0  0  0  0  0  0  0
  182.9250  177.1940  136.4230 N   0  0  0  0  0  0  0  0  0  0  0  0
  184.8270  175.9090  136.7530 N   0  0  0  0  0  0  0  0  0  0  0  0
  183.7270  175.7980  134.6980 O   0  0  0  0  0  0  0  0  0  0  0  0
  184.8970  176.9670  137.7110 C   0  0  0  0  0  2  0  0  0  0  0  0
  181.9310  177.9990  135.6510 C   0  0  0  0  0  2  0  0  0  0  0  0
  180.4920  178.0270  136.2710 C   0  0  0  0  0  1  0  0  0  0  0  0
  185.9800  175.1430  136.2400 C   0  0  0  0  0  2  0  0  0  0  0  0
  187.9850  176.0290  137.1440 N   0  0  1  0  0  0  0  0  0  0  0  0
  190.2980  174.3300  137.1390 C   0  0  0  0  0  1  0  0  0  0  0  0
  188.6500  175.7170  135.8250 C   0  0  2  0  0  0  0  0  0  0  0  0
  188.4780  174.4420  135.2950 O   0  0  0  0  0  1  0  0  0  0  0  0
  191.2190  175.9970  135.6870 C   0  0  0  0  0  1  0  0  0  0  0  0
  189.8960  176.8970  138.1190 S   0  0  0  0  0  0  0  0  0  0  0  0
  190.0550  175.7290  136.5830 C   0  0  0  0  0  0  0  0  0  0  0  0
  188.3380  177.2630  137.3900 O   0  0  0  0  0  0  0  0  0  0  0  0
  187.1820  176.0580  135.9500 C   0  0  1  0  0  0  0  0  0  0  0  0
  186.9600  177.4670  135.1950 C   0  0  0  0  0  1  0  0  0  0  0  0
  187.0240  179.2880  140.9220 C   0  0  0  0  0  2  0  0  0  0  0  0
  187.8010  178.1820  141.7120 C   0  0  0  0  0  0  0  0  0  0  0  0
  188.1090  177.1230  141.1860 O   0  0  0  0  0  0  0  0  0  0  0  0
  188.6540  178.6080  142.8670 C   0  0  0  0  0  2  0  0  0  0  0  0
  188.7490  177.6560  144.0280 N   0  0  0  0  0  0  0  0  0  0  0  0
  187.5640  177.1980  144.8170 C   0  0  0  0  0  0  0  0  0  0  0  0
  186.7220  176.4400  144.3140 O   0  0  0  0  0  0  0  0  0  0  0  0
  192.0560  175.1530  144.5040 C   0  0  0  0  0  3  0  0  0  0  0  0
  190.7080  176.9130  145.2820 C   0  0  0  0  0  3  0  0  0  0  0  0
  189.9700  176.8890  144.0960 C   0  0  0  0  0  0  0  0  0  0  0  0
  191.3580  175.0890  143.3160 N   0  0  0  0  0  0  0  0  0  0  0  0
  190.3230  175.9340  143.1290 C   0  0  0  0  0  3  0  0  0  0  0  0
  191.7300  176.0470  145.5060 C   0  0  0  0  0  0  0  0  0  0  0  0
  192.4150  176.1300  146.8160 C   0  0  2  0  0  3  0  0  0  0  0  0
  192.7860  174.8770  147.3050 F   0  0  0  0  0  0  0  0  0  0  0  0
  191.5970  176.8710  147.7450 N   0  0  0  0  0  1  0  0  0  0  0  0
  186.0000  179.2980  147.3870 C   0  0  0  0  0  3  0  0  0  0  0  0
  187.3000  177.7670  146.0960 C   0  0  0  0  0  0  0  0  0  0  0  0
  186.2110  178.6040  146.2060 C   0  0  0  0  0  3  0  0  0  0  0  0
  188.0670  177.4000  147.1720 C   0  0  0  0  0  3  0  0  0  0  0  0
  186.8990  179.0620  148.4690 C   0  0  0  0  0  3  0  0  0  0  0  0
  187.9140  178.0810  148.3760 C   0  0  0  0  0  3  0  0  0  0  0  0
  2  4  1  0  0  0  0
  3  9  1  1  0  0  0
  3  7  1  0  0  0  0
  4  8  1  1  0  0  0
  5  4  1  0  0  0  0
  5  3  1  0  0  0  0
  6  2  1  0  0  0  0
  6  5  1  0  0  0  0
  6  4  1  0  0  0  0
  7  1  1  0  0  0  0
  8  1  2  0  0  0  0
 10 11  1  0  0  0  0
 11  6  1  0  0  0  0
 12 11  1  0  0  0  0
 13 18  1  0  0  0  0
 13 12  1  0  0  0  0
 14 15  1  0  0  0  0
 14 16  1  0  0  0  0
 15 13  1  0  0  0  0
 16 18  1  0  0  0  0
 17 14  2  0  0  0  0
 19 20  1  0  0  0  0
 19 15  1  0  0  0  0
 21 16  1  0  0  0  0
 22 29  1  0  0  0  0
 24 30  1  0  0  0  0
 24 28  1  0  0  0  0
 24 22  1  0  0  0  0
 25 24  1  0  0  0  0
 26 28  1  0  0  0  0
 28 23  1  0  0  0  0
 28 27  1  0  0  0  0
 29 27  1  0  0  0  0
 30 21  1  0  0  0  0
 30 22  1  0  0  0  0
 31 30  1  0  0  0  0
 32  2  1  0  0  0  0
 32 33  1  0  0  0  0
 33 35  1  0  0  0  0
 34 33  2  0  0  0  0
 35 36  1  0  0  0  0
 36 41  1  0  0  0  0
 36 37  1  0  0  0  0
 37 49  1  0  0  0  0
 38 37  2  0  0  0  0
 39 44  1  0  0  0  0
 40 44  2  0  0  0  0
 41 40  1  0  0  0  0
 42 39  2  0  0  0  0
 43 42  1  0  0  0  0
 43 41  2  0  0  0  0
 44 45  1  0  0  0  0
 45 46  1  0  0  0  0
 45 47  1  0  0  0  0
 48 52  1  0  0  0  0
 49 50  1  0  0  0  0
 49 51  2  0  0  0  0
 50 48  2  0  0  0  0
 51 53  1  0  0  0  0
 53 52  2  0  0  0  0
M  END
>  <MODEL>
9

>  <REMARK>
 VINA RESULT:      -7.1      2.943      8.053
  Name = 
  13 active torsions:
  status: ('A' for Active; 'I' for Inactive)
    1  A    between atoms: N_3  and  C_18
    2  A    between atoms: N_3  and  C_52
    3  A    between atoms: C_5  and  C_14
    4  A    between atoms: N_7  and  C_39
    5  A    between atoms: C_10  and  C_39
    6  A    between atoms: C_10  and  C_52
    7  A    between atoms: C_11  and  C_27
    8  A    between atoms: C_12  and  C_34
    9  A    between atoms: C_14  and  C_43
   10  A    between atoms: C_15  and  N_22
   11  A    between atoms: N_26  and  C_48
   12  A    between atoms: C_33  and  C_43
   13  A    between atoms: C_47  and  C_48
                            x       y       z     vdW  Elec       q    Type
                         _______ _______ _______ _____ _____    ______ ____

>  <TORSDO>
F 13

$$$$
