=
 OpenBabel11062417343D

 47 49  0  0  1  0  0  0  0  0999 V2000
  187.2850  178.4780  141.8420 O   0  0  0  0  0  0  0  0  0  0  0  0
  186.6200  178.6440  140.7830 C   0  0  0  0  0  0  0  0  0  0  0  0
  187.2400  178.5070  139.5030 N   0  0  0  0  0  2  0  0  0  0  0  0
  188.6370  178.1360  139.3680 C   0  0  0  0  0  2  0  0  0  0  0  0
  189.1070  178.3800  137.9420 C   0  0  2  0  0  3  0  0  0  0  0  0
  188.6760  179.6390  137.5190 O   0  0  0  0  0  1  0  0  0  0  0  0
  188.5300  177.3210  137.0230 C   0  0  0  0  0  2  0  0  0  0  0  0
  189.2660  177.3240  135.6950 C   0  0  0  0  0  2  0  0  0  0  0  0
  189.8830  175.9620  135.4240 C   0  0  1  0  0  3  0  0  0  0  0  0
  191.3880  176.0970  135.1320 C   0  0  0  0  0  2  0  0  0  0  0  0
  190.7200  174.8270  137.5590 C   0  0  0  0  0  2  0  0  0  0  0  0
  189.5480  175.0220  136.5930 C   0  0  2  0  0  3  0  0  0  0  0  0
  192.2750  175.8890  136.3710 C   0  0  0  0  0  2  0  0  0  0  0  0
  191.5340  175.9670  137.5600 O   0  0  0  0  0  0  0  0  0  0  0  0
  188.7300  172.8450  137.1630 O   0  0  0  0  0  0  0  0  0  0  0  0
  189.0640  173.6720  136.0740 C   0  0  1  0  0  3  0  0  0  0  0  0
  187.6470  173.3450  136.4160 C   0  0  2  0  0  3  0  0  0  0  0  0
  187.0120  174.3640  137.1370 O   0  0  0  0  0  0  0  0  0  0  0  0
  185.6830  174.3380  136.7090 C   0  0  1  0  0  3  0  0  0  0  0  0
  184.8500  173.5570  137.7170 C   0  0  0  0  0  2  0  0  0  0  0  0
  184.4590  172.3860  135.2670 S   0  0  0  0  0  1  0  0  0  0  0  0
  184.0660  172.4450  137.0370 C   0  0  0  0  0  2  0  0  0  0  0  0
  185.1510  175.7590  136.5940 C   0  0  0  0  0  2  0  0  0  0  0  0
  184.0120  175.9800  137.5700 C   0  0  0  0  0  2  0  0  0  0  0  0
  183.8090  177.4650  137.7760 C   0  0  0  0  0  1  0  0  0  0  0  0
  185.1730  178.9800  140.8660 C   0  0  0  0  0  2  0  0  0  0  0  0
  182.5000  178.6230  141.8110 O   0  0  0  0  0  0  0  0  0  0  0  0
  184.7630  178.9960  142.2620 N   0  0  0  0  0  2  0  0  0  0  0  0
  183.4100  178.7840  142.6670 C   0  0  0  0  0  0  0  0  0  0  0  0
  183.0890  178.6920  144.1200 C   0  0  0  0  0  2  0  0  0  0  0  0
  184.0910  179.4040  144.8990 N   0  0  0  0  0  2  0  0  0  0  0  0
  184.6350  178.4720  145.8760 C   0  0  0  0  0  2  0  0  0  0  0  0
  186.1400  178.6340  145.9630 C   0  0  2  0  0  3  0  0  0  0  0  0
  188.5420  178.0500  148.8860 C   0  0  0  0  0  1  0  0  0  0  0  0
  188.1190  178.4530  147.4890 C   0  0  1  0  0  3  0  0  0  0  0  0
  188.3390  177.9150  145.0380 C   0  0  0  0  0  2  0  0  0  0  0  0
  186.8290  177.7210  144.9540 C   0  0  0  0  0  2  0  0  0  0  0  0
  188.8440  177.5930  146.4460 C   0  0  1  0  0  3  0  0  0  0  0  0
  186.6060  178.2870  147.3700 C   0  0  0  0  0  2  0  0  0  0  0  0
  190.2240  177.8290  146.5040 O   0  0  0  0  0  0  0  0  0  0  0  0
  190.8210  176.6510  146.0390 C   0  0  1  0  0  3  0  0  0  0  0  0
  191.9300  177.9750  144.3720 O   0  0  0  0  0  0  0  0  0  0  0  0
  191.4030  176.8700  144.6760 C   0  0  0  0  0  0  0  0  0  0  0  0
  191.3300  175.8330  143.7070 N   0  0  0  0  0  1  0  0  0  0  0  0
  191.8670  176.1890  147.0020 C   0  0  0  0  0  0  0  0  0  0  0  0
  192.5240  174.9830  146.7980 O   0  0  0  0  0  0  0  0  0  0  0  0
  192.1260  176.8800  148.0220 O   0  0  0  0  0  1  0  0  0  0  0  0
  2 26  1  0  0  0  0
  2  1  2  0  0  0  0
  3  2  1  0  0  0  0
  4  3  1  0  0  0  0
  5  6  1  6  0  0  0
  5  4  1  0  0  0  0
  7  5  1  0  0  0  0
  8  7  1  0  0  0  0
  9  8  1  1  0  0  0
  9 12  1  0  0  0  0
 10  9  1  0  0  0  0
 10 13  1  0  0  0  0
 11 14  1  0  0  0  0
 12 11  1  6  0  0  0
 13 14  1  0  0  0  0
 16 17  1  0  0  0  0
 16 12  1  0  0  0  0
 16 15  1  1  0  0  0
 17 18  1  1  0  0  0
 17 15  1  0  0  0  0
 19 23  1  1  0  0  0
 19 18  1  0  0  0  0
 19 20  1  0  0  0  0
 21 22  1  0  0  0  0
 22 20  1  0  0  0  0
 23 24  1  0  0  0  0
 24 25  1  0  0  0  0
 26 28  1  0  0  0  0
 27 29  2  0  0  0  0
 28 29  1  0  0  0  0
 29 30  1  0  0  0  0
 30 31  1  0  0  0  0
 31 32  1  0  0  0  0
 33 32  1  1  0  0  0
 33 39  1  0  0  0  0
 35 34  1  1  0  0  0
 36 38  1  0  0  0  0
 37 36  1  0  0  0  0
 37 33  1  0  0  0  0
 38 40  1  6  0  0  0
 38 35  1  0  0  0  0
 39 35  1  0  0  0  0
 41 43  1  6  0  0  0
 41 40  1  0  0  0  0
 41 45  1  0  0  0  0
 42 43  2  0  0  0  0
 44 43  1  0  0  0  0
 45 47  1  0  0  0  0
 46 45  2  0  0  0  0
M  END
>  <MODEL>
1

>  <REMARK>
 VINA RESULT:      -7.2      0.000      0.000
  Name = 
  22 active torsions:
  status: ('A' for Active; 'I' for Inactive)
    1  A    between atoms: C_1  and  C_10
    2  A    between atoms: C_3  and  C_41
    3  A    between atoms: C_4  and  C_5
    4  A    between atoms: C_4  and  C_36
    5  A    between atoms: C_5  and  N_35
    6  A    between atoms: C_8  and  C_9
    7  A    between atoms: C_8  and  C_30
    8  A    between atoms: C_10  and  N_32
    9  A    between atoms: C_11  and  N_13
   10  A    between atoms: C_11  and  C_18
   11  A    between atoms: C_12  and  C_20
   12  A    between atoms: O_19  and  C_20
   13  A    between atoms: O_19  and  C_46
   14  A    between atoms: C_20  and  C_44
   15  A    between atoms: C_21  and  C_27
   16  A    between atoms: C_22  and  C_24
   17  A    between atoms: C_24  and  N_32
   18  A    between atoms: O_29  and  C_30
   19  A    between atoms: O_29  and  C_34
   20  A    between atoms: C_30  and  C_42
   21  A    between atoms: C_36  and  C_41
   22  A    between atoms: C_39  and  C_42
                            x       y       z     vdW  Elec       q    Type
                         _______ _______ _______ _____ _____    ______ ____

>  <TORSDO>
F 22

$$$$
=
 OpenBabel11062417343D

 47 49  0  0  1  0  0  0  0  0999 V2000
  187.4570  178.1910  141.9650 O   0  0  0  0  0  0  0  0  0  0  0  0
  186.7720  178.6070  140.9920 C   0  0  0  0  0  0  0  0  0  0  0  0
  187.2170  178.4090  139.6480 N   0  0  0  0  0  2  0  0  0  0  0  0
  188.4450  177.6950  139.3490 C   0  0  0  0  0  2  0  0  0  0  0  0
  188.9860  178.1300  137.9970 C   0  0  2  0  0  3  0  0  0  0  0  0
  188.1800  179.1430  137.4770 O   0  0  0  0  0  1  0  0  0  0  0  0
  188.9870  176.9530  137.0410 C   0  0  0  0  0  2  0  0  0  0  0  0
  188.0250  175.8830  137.5290 C   0  0  0  0  0  2  0  0  0  0  0  0
  187.1530  175.3900  136.3870 C   0  0  1  0  0  3  0  0  0  0  0  0
  187.6750  174.0470  135.8470 C   0  0  0  0  0  2  0  0  0  0  0  0
  185.2040  173.9460  137.2000 C   0  0  0  0  0  2  0  0  0  0  0  0
  185.6890  175.3560  136.8560 C   0  0  2  0  0  3  0  0  0  0  0  0
  186.9830  172.8240  136.4710 C   0  0  0  0  0  2  0  0  0  0  0  0
  186.2800  173.1620  137.6370 O   0  0  0  0  0  0  0  0  0  0  0  0
  183.4330  175.7400  136.1530 O   0  0  0  0  0  0  0  0  0  0  0  0
  184.7760  175.9870  135.8100 C   0  0  1  0  0  3  0  0  0  0  0  0
  183.8810  177.0620  136.3320 C   0  0  2  0  0  3  0  0  0  0  0  0
  184.0680  177.3120  137.6970 O   0  0  0  0  0  0  0  0  0  0  0  0
  182.8860  177.9220  138.1210 C   0  0  1  0  0  3  0  0  0  0  0  0
  182.2510  177.0740  139.2150 C   0  0  0  0  0  2  0  0  0  0  0  0
  180.7950  174.8710  138.4700 S   0  0  0  0  0  1  0  0  0  0  0  0
  180.8420  176.6480  138.8320 C   0  0  0  0  0  2  0  0  0  0  0  0
  183.1880  179.3120  138.6590 C   0  0  0  0  0  2  0  0  0  0  0  0
  181.9010  180.0520  138.9710 C   0  0  0  0  0  2  0  0  0  0  0  0
  181.3080  180.5900  137.6870 C   0  0  0  0  0  1  0  0  0  0  0  0
  185.4810  179.3040  141.2430 C   0  0  0  0  0  2  0  0  0  0  0  0
  184.7830  180.4670  143.7580 O   0  0  0  0  0  0  0  0  0  0  0  0
  184.7700  178.6270  142.3160 N   0  0  0  0  0  2  0  0  0  0  0  0
  184.4280  179.2770  143.5410 C   0  0  0  0  0  0  0  0  0  0  0  0
  183.5920  178.5560  144.5420 C   0  0  0  0  0  2  0  0  0  0  0  0
  183.8450  179.0810  145.8750 N   0  0  0  0  0  2  0  0  0  0  0  0
  184.6240  178.0860  146.6000 C   0  0  0  0  0  2  0  0  0  0  0  0
  186.1040  178.3460  146.4040 C   0  0  2  0  0  3  0  0  0  0  0  0
  189.0030  178.2400  148.9020 C   0  0  0  0  0  1  0  0  0  0  0  0
  188.3200  178.4560  147.5680 C   0  0  1  0  0  3  0  0  0  0  0  0
  188.1650  177.6550  145.1850 C   0  0  0  0  0  2  0  0  0  0  0  0
  186.6820  177.3650  145.3880 C   0  0  0  0  0  2  0  0  0  0  0  0
  188.9240  177.5260  146.5080 C   0  0  1  0  0  3  0  0  0  0  0  0
  186.8260  178.1890  147.7350 C   0  0  0  0  0  2  0  0  0  0  0  0
  190.2710  177.8480  146.2960 O   0  0  0  0  0  0  0  0  0  0  0  0
  190.8660  176.6670  145.8360 C   0  0  1  0  0  3  0  0  0  0  0  0
  191.8930  178.0420  144.1600 O   0  0  0  0  0  0  0  0  0  0  0  0
  191.4950  176.8940  144.4960 C   0  0  0  0  0  0  0  0  0  0  0  0
  191.6120  175.8110  143.5820 N   0  0  0  0  0  1  0  0  0  0  0  0
  191.8730  176.1780  146.8260 C   0  0  0  0  0  0  0  0  0  0  0  0
  192.1460  176.9140  147.9710 O   0  0  0  0  0  1  0  0  0  0  0  0
  192.5020  175.1100  146.6030 O   0  0  0  0  0  0  0  0  0  0  0  0
  2 26  1  0  0  0  0
  2  1  2  0  0  0  0
  3  2  1  0  0  0  0
  4  3  1  0  0  0  0
  5  6  1  6  0  0  0
  5  4  1  0  0  0  0
  7  8  1  0  0  0  0
  7  5  1  0  0  0  0
  9 12  1  0  0  0  0
  9  8  1  1  0  0  0
 10  9  1  0  0  0  0
 10 13  1  0  0  0  0
 11 14  1  0  0  0  0
 12 11  1  6  0  0  0
 13 14  1  0  0  0  0
 15 17  1  0  0  0  0
 16 15  1  1  0  0  0
 16 17  1  0  0  0  0
 16 12  1  0  0  0  0
 17 18  1  1  0  0  0
 18 19  1  0  0  0  0
 19 23  1  1  0  0  0
 19 20  1  0  0  0  0
 21 22  1  0  0  0  0
 22 20  1  0  0  0  0
 23 24  1  0  0  0  0
 25 24  1  0  0  0  0
 26 28  1  0  0  0  0
 28 29  1  0  0  0  0
 29 27  2  0  0  0  0
 29 30  1  0  0  0  0
 30 31  1  0  0  0  0
 31 32  1  0  0  0  0
 33 32  1  1  0  0  0
 33 39  1  0  0  0  0
 35 39  1  0  0  0  0
 35 34  1  1  0  0  0
 36 37  1  0  0  0  0
 36 38  1  0  0  0  0
 37 33  1  0  0  0  0
 38 40  1  6  0  0  0
 38 35  1  0  0  0  0
 41 43  1  6  0  0  0
 41 40  1  0  0  0  0
 41 45  1  0  0  0  0
 42 43  2  0  0  0  0
 44 43  1  0  0  0  0
 45 46  1  0  0  0  0
 47 45  2  0  0  0  0
M  END
>  <MODEL>
2

>  <REMARK>
 VINA RESULT:      -6.9      1.762      3.115
  Name = 
  22 active torsions:
  status: ('A' for Active; 'I' for Inactive)
    1  A    between atoms: C_1  and  C_10
    2  A    between atoms: C_3  and  C_41
    3  A    between atoms: C_4  and  C_5
    4  A    between atoms: C_4  and  C_36
    5  A    between atoms: C_5  and  N_35
    6  A    between atoms: C_8  and  C_9
    7  A    between atoms: C_8  and  C_30
    8  A    between atoms: C_10  and  N_32
    9  A    between atoms: C_11  and  N_13
   10  A    between atoms: C_11  and  C_18
   11  A    between atoms: C_12  and  C_20
   12  A    between atoms: O_19  and  C_20
   13  A    between atoms: O_19  and  C_46
   14  A    between atoms: C_20  and  C_44
   15  A    between atoms: C_21  and  C_27
   16  A    between atoms: C_22  and  C_24
   17  A    between atoms: C_24  and  N_32
   18  A    between atoms: O_29  and  C_30
   19  A    between atoms: O_29  and  C_34
   20  A    between atoms: C_30  and  C_42
   21  A    between atoms: C_36  and  C_41
   22  A    between atoms: C_39  and  C_42
                            x       y       z     vdW  Elec       q    Type
                         _______ _______ _______ _____ _____    ______ ____

>  <TORSDO>
F 22

$$$$
=
 OpenBabel11062417343D

 47 49  0  0  1  0  0  0  0  0999 V2000
  192.1270  175.8410  145.9390 O   0  0  0  0  0  0  0  0  0  0  0  0
  191.0240  176.4510  145.9100 C   0  0  0  0  0  0  0  0  0  0  0  0
  190.3770  176.7300  144.6660 N   0  0  0  0  0  2  0  0  0  0  0  0
  190.9380  176.2940  143.4000 C   0  0  0  0  0  2  0  0  0  0  0  0
  191.7570  177.4150  142.7790 C   0  0  2  0  0  3  0  0  0  0  0  0
  191.9550  178.4250  143.7210 O   0  0  0  0  0  1  0  0  0  0  0  0
  191.0190  177.9870  141.5830 C   0  0  0  0  0  2  0  0  0  0  0  0
  191.3230  177.1670  140.3410 C   0  0  0  0  0  2  0  0  0  0  0  0
  190.0390  176.6370  139.7250 C   0  0  1  0  0  3  0  0  0  0  0  0
  188.8110  177.2480  140.4240 C   0  0  0  0  0  2  0  0  0  0  0  0
  189.2360  178.0640  137.7600 C   0  0  0  0  0  2  0  0  0  0  0  0
  190.0820  176.8680  138.2060 C   0  0  2  0  0  3  0  0  0  0  0  0
  188.2540  178.4910  139.7110 C   0  0  0  0  0  2  0  0  0  0  0  0
  189.1700  179.0150  138.7870 O   0  0  0  0  0  0  0  0  0  0  0  0
  189.5130  175.9040  136.0900 O   0  0  0  0  0  0  0  0  0  0  0  0
  189.6490  175.6110  137.4600 C   0  0  1  0  0  3  0  0  0  0  0  0
  190.6290  175.1220  136.4440 C   0  0  2  0  0  3  0  0  0  0  0  0
  191.7880  175.9070  136.3830 O   0  0  0  0  0  0  0  0  0  0  0  0
  192.8460  175.0000  136.4590 C   0  0  1  0  0  3  0  0  0  0  0  0
  192.7300  174.0010  135.3140 C   0  0  0  0  0  2  0  0  0  0  0  0
  193.8950  171.5400  134.9810 S   0  0  0  0  0  1  0  0  0  0  0  0
  192.6720  172.5730  135.8350 C   0  0  0  0  0  2  0  0  0  0  0  0
  194.1700  175.7430  136.3600 C   0  0  0  0  0  2  0  0  0  0  0  0
  195.3130  174.8540  136.8100 C   0  0  0  0  0  2  0  0  0  0  0  0
  195.1040  174.4620  138.2560 C   0  0  0  0  0  1  0  0  0  0  0  0
  190.3830  176.8780  147.1830 C   0  0  0  0  0  2  0  0  0  0  0  0
  188.6130  178.1380  149.0390 O   0  0  0  0  0  0  0  0  0  0  0  0
  188.9830  177.1860  146.9360 N   0  0  0  0  0  2  0  0  0  0  0  0
  188.1600  177.8430  147.9010 C   0  0  0  0  0  0  0  0  0  0  0  0
  186.7700  178.2350  147.5300 C   0  0  0  0  0  2  0  0  0  0  0  0
  186.6330  178.2760  146.0820 N   0  0  0  0  0  2  0  0  0  0  0  0
  185.4860  179.1170  145.7710 C   0  0  0  0  0  2  0  0  0  0  0  0
  184.7300  178.5440  144.5890 C   0  0  2  0  0  3  0  0  0  0  0  0
  181.2570  179.3790  143.2120 C   0  0  0  0  0  1  0  0  0  0  0  0
  182.5800  178.6490  143.3060 C   0  0  1  0  0  3  0  0  0  0  0  0
  184.7530  178.1700  142.1250 C   0  0  0  0  0  2  0  0  0  0  0  0
  185.5140  178.7720  143.3000 C   0  0  0  0  0  2  0  0  0  0  0  0
  183.3670  178.8080  141.9990 C   0  0  1  0  0  3  0  0  0  0  0  0
  183.3680  179.2160  144.4850 C   0  0  0  0  0  2  0  0  0  0  0  0
  182.6760  178.1970  140.9440 O   0  0  0  0  0  0  0  0  0  0  0  0
  183.5680  178.2010  139.8650 C   0  0  1  0  0  3  0  0  0  0  0  0
  184.0040  176.8350  137.9420 O   0  0  0  0  0  0  0  0  0  0  0  0
  183.3480  176.9940  139.0080 C   0  0  0  0  0  0  0  0  0  0  0  0
  182.3680  176.0350  139.3820 N   0  0  0  0  0  1  0  0  0  0  0  0
  183.4110  179.4590  139.0720 C   0  0  0  0  0  0  0  0  0  0  0  0
  182.2650  179.6740  138.3180 O   0  0  0  0  0  0  0  0  0  0  0  0
  184.3380  180.3100  139.0600 O   0  0  0  0  0  1  0  0  0  0  0  0
  2  1  2  0  0  0  0
  2 26  1  0  0  0  0
  3  2  1  0  0  0  0
  4  3  1  0  0  0  0
  5  4  1  0  0  0  0
  5  6  1  1  0  0  0
  7  5  1  0  0  0  0
  8  7  1  0  0  0  0
  9  8  1  1  0  0  0
  9 10  1  0  0  0  0
 11 14  1  0  0  0  0
 12 11  1  1  0  0  0
 12  9  1  0  0  0  0
 13 10  1  0  0  0  0
 14 13  1  0  0  0  0
 15 17  1  0  0  0  0
 16 15  1  6  0  0  0
 16 12  1  0  0  0  0
 17 18  1  1  0  0  0
 17 16  1  0  0  0  0
 18 19  1  0  0  0  0
 19 20  1  6  0  0  0
 20 22  1  0  0  0  0
 21 22  1  0  0  0  0
 23 19  1  0  0  0  0
 23 24  1  0  0  0  0
 24 25  1  0  0  0  0
 28 26  1  0  0  0  0
 28 29  1  0  0  0  0
 29 27  2  0  0  0  0
 30 29  1  0  0  0  0
 31 30  1  0  0  0  0
 32 31  1  0  0  0  0
 33 32  1  1  0  0  0
 35 34  1  6  0  0  0
 35 39  1  0  0  0  0
 36 37  1  0  0  0  0
 37 33  1  0  0  0  0
 38 40  1  6  0  0  0
 38 36  1  0  0  0  0
 38 35  1  0  0  0  0
 39 33  1  0  0  0  0
 41 43  1  6  0  0  0
 41 40  1  0  0  0  0
 42 43  2  0  0  0  0
 43 44  1  0  0  0  0
 45 41  1  0  0  0  0
 46 45  2  0  0  0  0
 47 45  1  0  0  0  0
M  END
>  <MODEL>
3

>  <REMARK>
 VINA RESULT:      -6.8      2.690      7.463
  Name = 
  22 active torsions:
  status: ('A' for Active; 'I' for Inactive)
    1  A    between atoms: C_1  and  C_10
    2  A    between atoms: C_3  and  C_41
    3  A    between atoms: C_4  and  C_5
    4  A    between atoms: C_4  and  C_36
    5  A    between atoms: C_5  and  N_35
    6  A    between atoms: C_8  and  C_9
    7  A    between atoms: C_8  and  C_30
    8  A    between atoms: C_10  and  N_32
    9  A    between atoms: C_11  and  N_13
   10  A    between atoms: C_11  and  C_18
   11  A    between atoms: C_12  and  C_20
   12  A    between atoms: O_19  and  C_20
   13  A    between atoms: O_19  and  C_46
   14  A    between atoms: C_20  and  C_44
   15  A    between atoms: C_21  and  C_27
   16  A    between atoms: C_22  and  C_24
   17  A    between atoms: C_24  and  N_32
   18  A    between atoms: O_29  and  C_30
   19  A    between atoms: O_29  and  C_34
   20  A    between atoms: C_30  and  C_42
   21  A    between atoms: C_36  and  C_41
   22  A    between atoms: C_39  and  C_42
                            x       y       z     vdW  Elec       q    Type
                         _______ _______ _______ _____ _____    ______ ____

>  <TORSDO>
F 22

$$$$
=
 OpenBabel11062417343D

 47 49  0  0  1  0  0  0  0  0999 V2000
  190.0500  177.7660  139.8520 O   0  0  0  0  0  0  0  0  0  0  0  0
  191.1530  177.2370  140.1580 C   0  0  0  0  0  0  0  0  0  0  0  0
  191.5830  177.1850  141.5200 N   0  0  0  0  0  2  0  0  0  0  0  0
  190.7600  177.6970  142.6010 C   0  0  0  0  0  2  0  0  0  0  0  0
  190.3350  176.5600  143.5170 C   0  0  2  0  0  3  0  0  0  0  0  0
  190.4230  175.3500  142.8290 O   0  0  0  0  0  1  0  0  0  0  0  0
  188.9020  176.7740  143.9690 C   0  0  0  0  0  2  0  0  0  0  0  0
  188.8580  177.7750  145.1090 C   0  0  0  0  0  2  0  0  0  0  0  0
  188.0560  177.2210  146.2740 C   0  0  1  0  0  3  0  0  0  0  0  0
  188.9930  176.6980  147.3770 C   0  0  0  0  0  2  0  0  0  0  0  0
  187.5090  179.0060  148.0230 C   0  0  0  0  0  2  0  0  0  0  0  0
  187.0580  178.2900  146.7470 C   0  0  2  0  0  3  0  0  0  0  0  0
  189.2720  177.7280  148.4850 C   0  0  0  0  0  2  0  0  0  0  0  0
  188.9090  179.0250  148.0930 O   0  0  0  0  0  0  0  0  0  0  0  0
  184.7310  178.7120  147.1180 O   0  0  0  0  0  0  0  0  0  0  0  0
  185.6740  177.6810  146.9470 C   0  0  1  0  0  3  0  0  0  0  0  0
  184.6810  178.0320  145.8870 C   0  0  2  0  0  3  0  0  0  0  0  0
  185.2210  178.8440  144.8820 O   0  0  0  0  0  0  0  0  0  0  0  0
  184.3610  178.6950  143.7930 C   0  0  1  0  0  3  0  0  0  0  0  0
  183.1430  179.5860  143.9920 C   0  0  0  0  0  2  0  0  0  0  0  0
  180.7780  179.4060  142.6140 S   0  0  0  0  0  1  0  0  0  0  0  0
  181.8550  178.7790  143.9330 C   0  0  0  0  0  2  0  0  0  0  0  0
  185.0810  179.0880  142.5110 C   0  0  0  0  0  2  0  0  0  0  0  0
  186.3640  178.2940  142.3580 C   0  0  0  0  0  2  0  0  0  0  0  0
  187.0180  178.6470  141.0400 C   0  0  0  0  0  1  0  0  0  0  0  0
  192.0140  176.6550  139.0930 C   0  0  0  0  0  2  0  0  0  0  0  0
  192.7340  174.2640  137.7050 O   0  0  0  0  0  0  0  0  0  0  0  0
  191.1780  175.9570  138.1290 N   0  0  0  0  0  2  0  0  0  0  0  0
  191.5900  174.7480  137.4900 C   0  0  0  0  0  0  0  0  0  0  0  0
  190.6300  174.0240  136.6080 C   0  0  0  0  0  2  0  0  0  0  0  0
  189.2890  174.5600  136.7830 N   0  0  0  0  0  2  0  0  0  0  0  0
  188.9160  175.2290  135.5450 C   0  0  0  0  0  2  0  0  0  0  0  0
  187.7030  176.1070  135.7770 C   0  0  2  0  0  3  0  0  0  0  0  0
  183.9700  175.3450  135.3990 C   0  0  0  0  0  1  0  0  0  0  0  0
  185.2000  176.1840  135.6760 C   0  0  1  0  0  3  0  0  0  0  0  0
  186.4500  177.4800  137.4380 C   0  0  0  0  0  2  0  0  0  0  0  0
  187.6620  176.5800  137.2270 C   0  0  0  0  0  2  0  0  0  0  0  0
  185.1590  176.7270  137.1110 C   0  0  1  0  0  3  0  0  0  0  0  0
  186.4390  175.3190  135.4610 C   0  0  0  0  0  2  0  0  0  0  0  0
  184.0700  177.5950  137.2650 O   0  0  0  0  0  0  0  0  0  0  0  0
  184.0460  177.9220  138.6260 C   0  0  1  0  0  3  0  0  0  0  0  0
  184.5500  180.2040  139.1660 O   0  0  0  0  0  0  0  0  0  0  0  0
  183.6820  179.3630  138.8060 C   0  0  0  0  0  0  0  0  0  0  0  0
  182.3380  179.7790  138.6010 N   0  0  0  0  0  1  0  0  0  0  0  0
  183.0900  177.0310  139.3520 C   0  0  0  0  0  0  0  0  0  0  0  0
  182.9360  177.1410  140.7270 O   0  0  0  0  0  1  0  0  0  0  0  0
  182.4480  176.1530  138.7180 O   0  0  0  0  0  0  0  0  0  0  0  0
  1  2  2  0  0  0  0
  2  3  1  0  0  0  0
  3  4  1  0  0  0  0
  4  5  1  0  0  0  0
  5  6  1  6  0  0  0
  5  7  1  0  0  0  0
  7  8  1  0  0  0  0
  9  8  1  6  0  0  0
  9 12  1  0  0  0  0
  9 10  1  0  0  0  0
 10 13  1  0  0  0  0
 11 14  1  0  0  0  0
 12 16  1  0  0  0  0
 12 11  1  1  0  0  0
 14 13  1  0  0  0  0
 16 15  1  1  0  0  0
 17 18  1  6  0  0  0
 17 16  1  0  0  0  0
 17 15  1  0  0  0  0
 19 23  1  6  0  0  0
 19 20  1  0  0  0  0
 19 18  1  0  0  0  0
 21 22  1  0  0  0  0
 22 20  1  0  0  0  0
 24 23  1  0  0  0  0
 25 24  1  0  0  0  0
 26  2  1  0  0  0  0
 28 26  1  0  0  0  0
 29 27  2  0  0  0  0
 29 28  1  0  0  0  0
 30 31  1  0  0  0  0
 30 29  1  0  0  0  0
 32 31  1  0  0  0  0
 33 32  1  1  0  0  0
 33 37  1  0  0  0  0
 35 34  1  1  0  0  0
 35 38  1  0  0  0  0
 37 36  1  0  0  0  0
 38 40  1  6  0  0  0
 38 36  1  0  0  0  0
 39 35  1  0  0  0  0
 39 33  1  0  0  0  0
 41 40  1  6  0  0  0
 41 43  1  0  0  0  0
 41 45  1  0  0  0  0
 43 42  2  0  0  0  0
 44 43  1  0  0  0  0
 45 46  1  0  0  0  0
 47 45  2  0  0  0  0
M  END
>  <MODEL>
4

>  <REMARK>
 VINA RESULT:      -6.6      3.021      9.976
  Name = 
  22 active torsions:
  status: ('A' for Active; 'I' for Inactive)
    1  A    between atoms: C_1  and  C_10
    2  A    between atoms: C_3  and  C_41
    3  A    between atoms: C_4  and  C_5
    4  A    between atoms: C_4  and  C_36
    5  A    between atoms: C_5  and  N_35
    6  A    between atoms: C_8  and  C_9
    7  A    between atoms: C_8  and  C_30
    8  A    between atoms: C_10  and  N_32
    9  A    between atoms: C_11  and  N_13
   10  A    between atoms: C_11  and  C_18
   11  A    between atoms: C_12  and  C_20
   12  A    between atoms: O_19  and  C_20
   13  A    between atoms: O_19  and  C_46
   14  A    between atoms: C_20  and  C_44
   15  A    between atoms: C_21  and  C_27
   16  A    between atoms: C_22  and  C_24
   17  A    between atoms: C_24  and  N_32
   18  A    between atoms: O_29  and  C_30
   19  A    between atoms: O_29  and  C_34
   20  A    between atoms: C_30  and  C_42
   21  A    between atoms: C_36  and  C_41
   22  A    between atoms: C_39  and  C_42
                            x       y       z     vdW  Elec       q    Type
                         _______ _______ _______ _____ _____    ______ ____

>  <TORSDO>
F 22

$$$$
=
 OpenBabel11062417343D

 47 49  0  0  1  0  0  0  0  0999 V2000
  192.2720  176.2140  146.9760 O   0  0  0  0  0  0  0  0  0  0  0  0
  191.1980  176.8100  146.6930 C   0  0  0  0  0  0  0  0  0  0  0  0
  190.8990  177.1750  145.3440 N   0  0  0  0  0  2  0  0  0  0  0  0
  191.7930  176.8450  144.2480 C   0  0  0  0  0  2  0  0  0  0  0  0
  191.9800  178.0530  143.3440 C   0  0  2  0  0  3  0  0  0  0  0  0
  191.4000  179.1740  143.9390 O   0  0  0  0  0  1  0  0  0  0  0  0
  191.3150  177.7990  142.0040 C   0  0  0  0  0  2  0  0  0  0  0  0
  190.7720  176.3820  141.9500 C   0  0  0  0  0  2  0  0  0  0  0  0
  189.3010  176.3890  141.5730 C   0  0  1  0  0  3  0  0  0  0  0  0
  188.4280  176.0350  142.7900 C   0  0  0  0  0  2  0  0  0  0  0  0
  188.2270  178.6920  141.8700 C   0  0  0  0  0  2  0  0  0  0  0  0
  188.9590  177.7390  140.9220 C   0  0  2  0  0  3  0  0  0  0  0  0
  187.9030  177.2660  143.5480 C   0  0  0  0  0  2  0  0  0  0  0  0
  188.6000  178.4300  143.1950 O   0  0  0  0  0  0  0  0  0  0  0  0
  188.3580  178.6100  138.7750 O   0  0  0  0  0  0  0  0  0  0  0  0
  188.1420  177.5300  139.6510 C   0  0  1  0  0  3  0  0  0  0  0  0
  188.9540  177.3900  138.4050 C   0  0  2  0  0  3  0  0  0  0  0  0
  190.3330  177.4530  138.6430 O   0  0  0  0  0  0  0  0  0  0  0  0
  190.9250  176.9300  137.4920 C   0  0  1  0  0  3  0  0  0  0  0  0
  192.2560  176.2890  137.8620 C   0  0  0  0  0  2  0  0  0  0  0  0
  193.9090  174.1120  137.6300 S   0  0  0  0  0  1  0  0  0  0  0  0
  192.2240  174.7860  137.6340 C   0  0  0  0  0  2  0  0  0  0  0  0
  190.0080  175.8880  136.8700 C   0  0  0  0  0  2  0  0  0  0  0  0
  189.9980  176.0240  135.3590 C   0  0  0  0  0  2  0  0  0  0  0  0
  188.6110  176.4200  134.9010 C   0  0  0  0  0  1  0  0  0  0  0  0
  190.2260  177.1310  147.7730 C   0  0  0  0  0  2  0  0  0  0  0  0
  187.9760  178.7240  148.5220 O   0  0  0  0  0  0  0  0  0  0  0  0
  188.8720  176.9690  147.2650 N   0  0  0  0  0  2  0  0  0  0  0  0
  187.7970  177.8210  147.6620 C   0  0  0  0  0  0  0  0  0  0  0  0
  186.4670  177.6720  147.0060 C   0  0  0  0  0  2  0  0  0  0  0  0
  186.2950  178.6980  145.9880 N   0  0  0  0  0  2  0  0  0  0  0  0
  184.8860  179.0630  145.9630 C   0  0  0  0  0  2  0  0  0  0  0  0
  184.2370  178.5320  144.7010 C   0  0  2  0  0  3  0  0  0  0  0  0
  180.7280  179.0990  143.2780 C   0  0  0  0  0  1  0  0  0  0  0  0
  182.1250  178.5200  143.3510 C   0  0  1  0  0  3  0  0  0  0  0  0
  184.3710  178.4180  142.2150 C   0  0  0  0  0  2  0  0  0  0  0  0
  185.0230  178.9800  143.4730 C   0  0  0  0  0  2  0  0  0  0  0  0
  182.9240  178.9020  142.0990 C   0  0  1  0  0  3  0  0  0  0  0  0
  182.8080  179.0490  144.6110 C   0  0  0  0  0  2  0  0  0  0  0  0
  182.3390  178.3270  140.9620 O   0  0  0  0  0  0  0  0  0  0  0  0
  183.3560  178.2880  140.0020 C   0  0  1  0  0  3  0  0  0  0  0  0
  182.8490  176.0020  139.4790 O   0  0  0  0  0  0  0  0  0  0  0  0
  183.1260  177.1560  139.0500 C   0  0  0  0  0  0  0  0  0  0  0  0
  183.2540  177.3760  137.6510 N   0  0  0  0  0  1  0  0  0  0  0  0
  183.4300  179.5930  139.2760 C   0  0  0  0  0  0  0  0  0  0  0  0
  182.2710  180.2110  138.8250 O   0  0  0  0  0  0  0  0  0  0  0  0
  184.5510  180.1160  139.0410 O   0  0  0  0  0  1  0  0  0  0  0  0
  2  1  2  0  0  0  0
  2 26  1  0  0  0  0
  3  2  1  0  0  0  0
  4  3  1  0  0  0  0
  5  6  1  1  0  0  0
  5  4  1  0  0  0  0
  7  5  1  0  0  0  0
  8  7  1  0  0  0  0
  9  8  1  1  0  0  0
  9 10  1  0  0  0  0
 10 13  1  0  0  0  0
 11 14  1  0  0  0  0
 12  9  1  0  0  0  0
 12 11  1  1  0  0  0
 14 13  1  0  0  0  0
 16 15  1  6  0  0  0
 16 12  1  0  0  0  0
 17 18  1  1  0  0  0
 17 15  1  0  0  0  0
 17 16  1  0  0  0  0
 19 23  1  1  0  0  0
 19 20  1  0  0  0  0
 19 18  1  0  0  0  0
 21 22  1  0  0  0  0
 22 20  1  0  0  0  0
 24 23  1  0  0  0  0
 25 24  1  0  0  0  0
 28 29  1  0  0  0  0
 28 26  1  0  0  0  0
 29 27  2  0  0  0  0
 30 29  1  0  0  0  0
 31 30  1  0  0  0  0
 32 31  1  0  0  0  0
 33 32  1  1  0  0  0
 35 34  1  6  0  0  0
 35 39  1  0  0  0  0
 36 37  1  0  0  0  0
 37 33  1  0  0  0  0
 38 40  1  6  0  0  0
 38 36  1  0  0  0  0
 38 35  1  0  0  0  0
 39 33  1  0  0  0  0
 41 43  1  6  0  0  0
 41 40  1  0  0  0  0
 43 42  2  0  0  0  0
 44 43  1  0  0  0  0
 45 41  1  0  0  0  0
 46 45  2  0  0  0  0
 47 45  1  0  0  0  0
M  END
>  <MODEL>
5

>  <REMARK>
 VINA RESULT:      -6.6      2.744      7.506
  Name = 
  22 active torsions:
  status: ('A' for Active; 'I' for Inactive)
    1  A    between atoms: C_1  and  C_10
    2  A    between atoms: C_3  and  C_41
    3  A    between atoms: C_4  and  C_5
    4  A    between atoms: C_4  and  C_36
    5  A    between atoms: C_5  and  N_35
    6  A    between atoms: C_8  and  C_9
    7  A    between atoms: C_8  and  C_30
    8  A    between atoms: C_10  and  N_32
    9  A    between atoms: C_11  and  N_13
   10  A    between atoms: C_11  and  C_18
   11  A    between atoms: C_12  and  C_20
   12  A    between atoms: O_19  and  C_20
   13  A    between atoms: O_19  and  C_46
   14  A    between atoms: C_20  and  C_44
   15  A    between atoms: C_21  and  C_27
   16  A    between atoms: C_22  and  C_24
   17  A    between atoms: C_24  and  N_32
   18  A    between atoms: O_29  and  C_30
   19  A    between atoms: O_29  and  C_34
   20  A    between atoms: C_30  and  C_42
   21  A    between atoms: C_36  and  C_41
   22  A    between atoms: C_39  and  C_42
                            x       y       z     vdW  Elec       q    Type
                         _______ _______ _______ _____ _____    ______ ____

>  <TORSDO>
F 22

$$$$
=
 OpenBabel11062417343D

 47 49  0  0  1  0  0  0  0  0999 V2000
  188.6510  179.6340  137.2380 O   0  0  0  0  0  0  0  0  0  0  0  0
  188.5720  178.3910  137.0410 C   0  0  0  0  0  0  0  0  0  0  0  0
  188.9290  177.4650  138.0700 N   0  0  0  0  0  2  0  0  0  0  0  0
  189.3560  177.9120  139.3840 C   0  0  0  0  0  2  0  0  0  0  0  0
  190.6610  177.2330  139.7670 C   0  0  2  0  0  3  0  0  0  0  0  0
  190.6080  175.8850  139.4090 O   0  0  0  0  0  1  0  0  0  0  0  0
  190.8760  177.3430  141.2650 C   0  0  0  0  0  2  0  0  0  0  0  0
  189.5610  177.6480  141.9610 C   0  0  0  0  0  2  0  0  0  0  0  0
  189.3910  176.7690  143.1880 C   0  0  1  0  0  3  0  0  0  0  0  0
  190.6980  176.0180  143.5010 C   0  0  0  0  0  2  0  0  0  0  0  0
  189.9490  178.0020  145.3580 C   0  0  0  0  0  2  0  0  0  0  0  0
  188.8620  177.6280  144.3480 C   0  0  2  0  0  3  0  0  0  0  0  0
  191.5820  176.7310  144.5380 C   0  0  0  0  0  2  0  0  0  0  0  0
  191.1950  178.0670  144.7200 O   0  0  0  0  0  0  0  0  0  0  0  0
  187.0290  177.8460  145.8710 O   0  0  0  0  0  0  0  0  0  0  0  0
  187.7080  176.9240  145.0530 C   0  0  1  0  0  3  0  0  0  0  0  0
  186.3530  177.4460  144.7030 C   0  0  2  0  0  3  0  0  0  0  0  0
  186.3950  178.4820  143.7600 O   0  0  0  0  0  0  0  0  0  0  0  0
  185.1860  178.3950  143.0700 C   0  0  1  0  0  3  0  0  0  0  0  0
  184.0410  178.7070  144.0250 C   0  0  0  0  0  2  0  0  0  0  0  0
  181.3050  178.5420  143.9290 S   0  0  0  0  0  1  0  0  0  0  0  0
  182.8380  179.2620  143.2780 C   0  0  0  0  0  2  0  0  0  0  0  0
  185.1780  179.3880  141.9170 C   0  0  0  0  0  2  0  0  0  0  0  0
  185.3910  178.6720  140.5970 C   0  0  0  0  0  2  0  0  0  0  0  0
  184.3830  179.1730  139.5860 C   0  0  0  0  0  1  0  0  0  0  0  0
  188.0950  177.8810  135.7270 C   0  0  0  0  0  2  0  0  0  0  0  0
  187.9010  175.0310  135.6750 O   0  0  0  0  0  0  0  0  0  0  0  0
  186.8730  177.1160  135.9230 N   0  0  0  0  0  2  0  0  0  0  0  0
  186.8520  175.6880  135.9120 C   0  0  0  0  0  0  0  0  0  0  0  0
  185.5860  174.9730  136.2430 C   0  0  0  0  0  2  0  0  0  0  0  0
  184.8540  175.7040  137.2650 N   0  0  0  0  0  2  0  0  0  0  0  0
  183.5880  175.0160  137.4780 C   0  0  0  0  0  2  0  0  0  0  0  0
  182.4420  176.0050  137.3970 C   0  0  2  0  0  3  0  0  0  0  0  0
  180.5310  177.8320  140.1660 C   0  0  0  0  0  1  0  0  0  0  0  0
  180.8710  177.4100  138.7520 C   0  0  1  0  0  3  0  0  0  0  0  0
  181.6920  178.2100  136.5090 C   0  0  0  0  0  2  0  0  0  0  0  0
  182.8620  177.2370  136.6000 C   0  0  0  0  0  2  0  0  0  0  0  0
  181.2380  178.6360  137.9060 C   0  0  1  0  0  3  0  0  0  0  0  0
  182.0320  176.4210  138.8030 C   0  0  0  0  0  2  0  0  0  0  0  0
  180.1320  179.4880  137.7880 O   0  0  0  0  0  0  0  0  0  0  0  0
  180.6510  180.7110  137.3480 C   0  0  1  0  0  3  0  0  0  0  0  0
  179.3140  182.5910  136.6870 O   0  0  0  0  0  0  0  0  0  0  0  0
  179.6650  181.4010  136.4570 C   0  0  0  0  0  0  0  0  0  0  0  0
  179.0930  180.6960  135.3630 N   0  0  0  0  0  1  0  0  0  0  0  0
  181.0100  181.5690  138.5180 C   0  0  0  0  0  0  0  0  0  0  0  0
  180.2590  181.5160  139.6840 O   0  0  0  0  0  1  0  0  0  0  0  0
  181.9780  182.3700  138.4330 O   0  0  0  0  0  0  0  0  0  0  0  0
  2  1  2  0  0  0  0
  2  3  1  0  0  0  0
  3  4  1  0  0  0  0
  4  5  1  0  0  0  0
  5  6  1  1  0  0  0
  5  7  1  0  0  0  0
  7  8  1  0  0  0  0
  9  8  1  6  0  0  0
  9 10  1  0  0  0  0
  9 12  1  0  0  0  0
 10 13  1  0  0  0  0
 12 16  1  0  0  0  0
 12 11  1  1  0  0  0
 13 14  1  0  0  0  0
 14 11  1  0  0  0  0
 16 15  1  1  0  0  0
 17 18  1  6  0  0  0
 17 16  1  0  0  0  0
 17 15  1  0  0  0  0
 19 23  1  6  0  0  0
 19 18  1  0  0  0  0
 19 20  1  0  0  0  0
 22 21  1  0  0  0  0
 22 20  1  0  0  0  0
 24 23  1  0  0  0  0
 25 24  1  0  0  0  0
 26 28  1  0  0  0  0
 26  2  1  0  0  0  0
 27 29  2  0  0  0  0
 29 28  1  0  0  0  0
 29 30  1  0  0  0  0
 30 31  1  0  0  0  0
 31 32  1  0  0  0  0
 33 32  1  1  0  0  0
 33 39  1  0  0  0  0
 35 39  1  0  0  0  0
 35 34  1  1  0  0  0
 36 37  1  0  0  0  0
 36 38  1  0  0  0  0
 37 33  1  0  0  0  0
 38 40  1  6  0  0  0
 38 35  1  0  0  0  0
 41 43  1  6  0  0  0
 41 40  1  0  0  0  0
 41 45  1  0  0  0  0
 43 42  2  0  0  0  0
 44 43  1  0  0  0  0
 45 46  1  0  0  0  0
 47 45  2  0  0  0  0
M  END
>  <MODEL>
6

>  <REMARK>
 VINA RESULT:      -6.3      3.483      9.585
  Name = 
  22 active torsions:
  status: ('A' for Active; 'I' for Inactive)
    1  A    between atoms: C_1  and  C_10
    2  A    between atoms: C_3  and  C_41
    3  A    between atoms: C_4  and  C_5
    4  A    between atoms: C_4  and  C_36
    5  A    between atoms: C_5  and  N_35
    6  A    between atoms: C_8  and  C_9
    7  A    between atoms: C_8  and  C_30
    8  A    between atoms: C_10  and  N_32
    9  A    between atoms: C_11  and  N_13
   10  A    between atoms: C_11  and  C_18
   11  A    between atoms: C_12  and  C_20
   12  A    between atoms: O_19  and  C_20
   13  A    between atoms: O_19  and  C_46
   14  A    between atoms: C_20  and  C_44
   15  A    between atoms: C_21  and  C_27
   16  A    between atoms: C_22  and  C_24
   17  A    between atoms: C_24  and  N_32
   18  A    between atoms: O_29  and  C_30
   19  A    between atoms: O_29  and  C_34
   20  A    between atoms: C_30  and  C_42
   21  A    between atoms: C_36  and  C_41
   22  A    between atoms: C_39  and  C_42
                            x       y       z     vdW  Elec       q    Type
                         _______ _______ _______ _____ _____    ______ ____

>  <TORSDO>
F 22

$$$$
=
 OpenBabel11062417343D

 47 49  0  0  1  0  0  0  0  0999 V2000
  191.4970  174.8660  138.3130 O   0  0  0  0  0  0  0  0  0  0  0  0
  190.5430  175.0330  137.5050 C   0  0  0  0  0  0  0  0  0  0  0  0
  189.8590  176.2860  137.4330 N   0  0  0  0  0  2  0  0  0  0  0  0
  190.2540  177.4190  138.2490 C   0  0  0  0  0  2  0  0  0  0  0  0
  189.0260  178.0730  138.8630 C   0  0  2  0  0  3  0  0  0  0  0  0
  188.8790  179.3620  138.3490 O   0  0  0  0  0  1  0  0  0  0  0  0
  189.1860  178.1530  140.3690 C   0  0  0  0  0  2  0  0  0  0  0  0
  190.5930  177.7450  140.7680 C   0  0  0  0  0  2  0  0  0  0  0  0
  190.5820  177.0340  142.1110 C   0  0  1  0  0  3  0  0  0  0  0  0
  191.9570  177.1460  142.7940 C   0  0  0  0  0  2  0  0  0  0  0  0
  189.8570  178.5690  144.0240 C   0  0  0  0  0  2  0  0  0  0  0  0
  189.4130  177.5720  142.9500 C   0  0  2  0  0  3  0  0  0  0  0  0
  192.0550  178.3180  143.7850 C   0  0  0  0  0  2  0  0  0  0  0  0
  191.0140  179.2400  143.6050 O   0  0  0  0  0  0  0  0  0  0  0  0
  187.9970  176.8830  144.7540 O   0  0  0  0  0  0  0  0  0  0  0  0
  188.6370  176.4240  143.5880 C   0  0  1  0  0  3  0  0  0  0  0  0
  187.1590  176.6310  143.6510 C   0  0  2  0  0  3  0  0  0  0  0  0
  186.7540  177.8450  143.0830 O   0  0  0  0  0  0  0  0  0  0  0  0
  185.3920  177.9440  143.3700 C   0  0  1  0  0  3  0  0  0  0  0  0
  185.1460  179.1950  144.2020 C   0  0  0  0  0  2  0  0  0  0  0  0
  185.6990  178.8910  146.8720 S   0  0  0  0  0  1  0  0  0  0  0  0
  184.4820  178.8530  145.5270 C   0  0  0  0  0  2  0  0  0  0  0  0
  184.5980  178.0240  142.0740 C   0  0  0  0  0  2  0  0  0  0  0  0
  184.9530  179.2860  141.3120 C   0  0  0  0  0  2  0  0  0  0  0  0
  185.2620  178.9330  139.8730 C   0  0  0  0  0  1  0  0  0  0  0  0
  190.1290  173.9160  136.6120 C   0  0  0  0  0  2  0  0  0  0  0  0
  187.5280  174.5650  135.6240 O   0  0  0  0  0  0  0  0  0  0  0  0
  188.8790  173.3520  137.0970 N   0  0  0  0  0  2  0  0  0  0  0  0
  187.6120  173.7020  136.5380 C   0  0  0  0  0  0  0  0  0  0  0  0
  186.3880  172.9910  137.0040 C   0  0  0  0  0  2  0  0  0  0  0  0
  185.3870  173.9520  137.4410 N   0  0  0  0  0  2  0  0  0  0  0  0
  184.1800  173.7190  136.6600 C   0  0  0  0  0  2  0  0  0  0  0  0
  183.2220  174.8810  136.8290 C   0  0  2  0  0  3  0  0  0  0  0  0
  180.3020  175.3670  139.2560 C   0  0  0  0  0  1  0  0  0  0  0  0
  181.2400  175.7100  138.1180 C   0  0  1  0  0  3  0  0  0  0  0  0
  183.0150  177.3140  137.3280 C   0  0  0  0  0  2  0  0  0  0  0  0
  183.9890  176.1510  137.1850 C   0  0  0  0  0  2  0  0  0  0  0  0
  181.9820  177.0180  138.4190 C   0  0  1  0  0  3  0  0  0  0  0  0
  182.2250  174.5580  137.9330 C   0  0  0  0  0  2  0  0  0  0  0  0
  181.0730  178.0820  138.4890 O   0  0  0  0  0  0  0  0  0  0  0  0
  181.7170  179.0700  139.2430 C   0  0  1  0  0  3  0  0  0  0  0  0
  182.8040  181.1470  138.7320 O   0  0  0  0  0  0  0  0  0  0  0  0
  181.9270  180.2990  138.4140 C   0  0  0  0  0  0  0  0  0  0  0  0
  181.1060  180.5270  137.2750 N   0  0  0  0  0  1  0  0  0  0  0  0
  180.9230  179.3800  140.4710 C   0  0  0  0  0  0  0  0  0  0  0  0
  180.0530  180.4620  140.4900 O   0  0  0  0  0  0  0  0  0  0  0  0
  181.0710  178.6780  141.5050 O   0  0  0  0  0  1  0  0  0  0  0  0
  2  1  2  0  0  0  0
  3  2  1  0  0  0  0
  3  4  1  0  0  0  0
  4  5  1  0  0  0  0
  5  6  1  6  0  0  0
  5  7  1  0  0  0  0
  7  8  1  0  0  0  0
  9  8  1  6  0  0  0
  9 10  1  0  0  0  0
  9 12  1  0  0  0  0
 10 13  1  0  0  0  0
 12 16  1  0  0  0  0
 12 11  1  1  0  0  0
 14 13  1  0  0  0  0
 14 11  1  0  0  0  0
 16 17  1  0  0  0  0
 16 15  1  1  0  0  0
 17 18  1  6  0  0  0
 17 15  1  0  0  0  0
 18 19  1  0  0  0  0
 19 23  1  6  0  0  0
 19 20  1  0  0  0  0
 20 22  1  0  0  0  0
 22 21  1  0  0  0  0
 24 23  1  0  0  0  0
 25 24  1  0  0  0  0
 26 28  1  0  0  0  0
 26  2  1  0  0  0  0
 27 29  2  0  0  0  0
 29 30  1  0  0  0  0
 29 28  1  0  0  0  0
 30 31  1  0  0  0  0
 32 31  1  0  0  0  0
 33 32  1  1  0  0  0
 33 37  1  0  0  0  0
 33 39  1  0  0  0  0
 35 38  1  0  0  0  0
 35 34  1  1  0  0  0
 36 38  1  0  0  0  0
 37 36  1  0  0  0  0
 38 40  1  6  0  0  0
 39 35  1  0  0  0  0
 40 41  1  0  0  0  0
 41 43  1  6  0  0  0
 41 45  1  0  0  0  0
 43 42  2  0  0  0  0
 44 43  1  0  0  0  0
 45 46  2  0  0  0  0
 45 47  1  0  0  0  0
M  END
>  <MODEL>
7

>  <REMARK>
 VINA RESULT:      -6.1      3.495      9.099
  Name = 
  22 active torsions:
  status: ('A' for Active; 'I' for Inactive)
    1  A    between atoms: C_1  and  C_10
    2  A    between atoms: C_3  and  C_41
    3  A    between atoms: C_4  and  C_5
    4  A    between atoms: C_4  and  C_36
    5  A    between atoms: C_5  and  N_35
    6  A    between atoms: C_8  and  C_9
    7  A    between atoms: C_8  and  C_30
    8  A    between atoms: C_10  and  N_32
    9  A    between atoms: C_11  and  N_13
   10  A    between atoms: C_11  and  C_18
   11  A    between atoms: C_12  and  C_20
   12  A    between atoms: O_19  and  C_20
   13  A    between atoms: O_19  and  C_46
   14  A    between atoms: C_20  and  C_44
   15  A    between atoms: C_21  and  C_27
   16  A    between atoms: C_22  and  C_24
   17  A    between atoms: C_24  and  N_32
   18  A    between atoms: O_29  and  C_30
   19  A    between atoms: O_29  and  C_34
   20  A    between atoms: C_30  and  C_42
   21  A    between atoms: C_36  and  C_41
   22  A    between atoms: C_39  and  C_42
                            x       y       z     vdW  Elec       q    Type
                         _______ _______ _______ _____ _____    ______ ____

>  <TORSDO>
F 22

$$$$
=
 OpenBabel11062417343D

 47 49  0  0  1  0  0  0  0  0999 V2000
  192.7230  176.7940  139.2020 O   0  0  0  0  0  0  0  0  0  0  0  0
  191.9500  176.6080  138.2230 C   0  0  0  0  0  0  0  0  0  0  0  0
  190.5720  176.9810  138.2990 N   0  0  0  0  0  2  0  0  0  0  0  0
  190.0190  177.6190  139.4790 C   0  0  0  0  0  2  0  0  0  0  0  0
  188.6600  178.2190  139.1590 C   0  0  2  0  0  3  0  0  0  0  0  0
  188.8280  179.3680  138.3850 O   0  0  0  0  0  1  0  0  0  0  0  0
  187.9440  178.5860  140.4460 C   0  0  0  0  0  2  0  0  0  0  0  0
  186.5740  177.9330  140.4860 C   0  0  0  0  0  2  0  0  0  0  0  0
  185.5070  178.9540  140.8440 C   0  0  1  0  0  3  0  0  0  0  0  0
  184.7610  179.4230  139.5830 C   0  0  0  0  0  2  0  0  0  0  0  0
  183.2570  177.8670  141.3890 C   0  0  0  0  0  2  0  0  0  0  0  0
  184.5980  178.3650  141.9340 C   0  0  2  0  0  3  0  0  0  0  0  0
  183.4610  178.6460  139.3140 C   0  0  0  0  0  2  0  0  0  0  0  0
  183.4030  177.4580  140.0570 O   0  0  0  0  0  0  0  0  0  0  0  0
  183.7130  178.7530  144.1240 O   0  0  0  0  0  0  0  0  0  0  0  0
  184.3690  179.3800  143.0490 C   0  0  1  0  0  3  0  0  0  0  0  0
  185.0690  179.0660  144.3300 C   0  0  2  0  0  3  0  0  0  0  0  0
  185.8350  177.8950  144.2600 O   0  0  0  0  0  0  0  0  0  0  0  0
  186.9840  178.1670  145.0050 C   0  0  1  0  0  3  0  0  0  0  0  0
  186.9490  177.3510  146.2910 C   0  0  0  0  0  2  0  0  0  0  0  0
  188.6020  178.0010  148.3820 S   0  0  0  0  0  1  0  0  0  0  0  0
  187.0280  178.2510  147.5150 C   0  0  0  0  0  2  0  0  0  0  0  0
  188.2200  177.8000  144.1980 C   0  0  0  0  0  2  0  0  0  0  0  0
  188.0680  176.4180  143.5920 C   0  0  0  0  0  2  0  0  0  0  0  0
  189.3760  176.0040  142.9540 C   0  0  0  0  0  1  0  0  0  0  0  0
  192.4790  175.9990  136.9710 C   0  0  0  0  0  2  0  0  0  0  0  0
  191.1650  173.4710  137.1780 O   0  0  0  0  0  0  0  0  0  0  0  0
  191.3660  175.5580  136.1450 N   0  0  0  0  0  2  0  0  0  0  0  0
  190.7360  174.2880  136.3200 C   0  0  0  0  0  0  0  0  0  0  0  0
  189.5240  173.9570  135.5180 C   0  0  0  0  0  2  0  0  0  0  0  0
  188.4550  173.5030  136.3930 N   0  0  0  0  0  2  0  0  0  0  0  0
  187.8440  174.6810  136.9920 C   0  0  0  0  0  2  0  0  0  0  0  0
  186.3830  174.7610  136.5990 C   0  0  2  0  0  3  0  0  0  0  0  0
  183.5000  172.3190  137.2170 C   0  0  0  0  0  1  0  0  0  0  0  0
  184.1860  173.5580  136.6810 C   0  0  1  0  0  3  0  0  0  0  0  0
  184.2730  176.0730  136.7980 C   0  0  0  0  0  2  0  0  0  0  0  0
  185.7350  175.9940  137.2220 C   0  0  0  0  0  2  0  0  0  0  0  0
  183.5160  174.8190  137.2420 C   0  0  1  0  0  3  0  0  0  0  0  0
  185.6600  173.5080  137.0740 C   0  0  0  0  0  2  0  0  0  0  0  0
  182.1910  174.9000  136.7930 O   0  0  0  0  0  0  0  0  0  0  0  0
  181.5370  175.7220  137.7180 C   0  0  1  0  0  3  0  0  0  0  0  0
  179.3310  176.3950  137.0560 O   0  0  0  0  0  0  0  0  0  0  0  0
  180.5700  176.6240  137.0150 C   0  0  0  0  0  0  0  0  0  0  0  0
  181.0590  177.7300  136.2660 N   0  0  0  0  0  1  0  0  0  0  0  0
  180.8420  174.8880  138.7460 C   0  0  0  0  0  0  0  0  0  0  0  0
  180.1870  173.7210  138.3770 O   0  0  0  0  0  0  0  0  0  0  0  0
  180.8200  175.2660  139.9470 O   0  0  0  0  0  1  0  0  0  0  0  0
  2  3  1  0  0  0  0
  2  1  2  0  0  0  0
  3  4  1  0  0  0  0
  5  6  1  6  0  0  0
  5  4  1  0  0  0  0
  5  7  1  0  0  0  0
  7  8  1  0  0  0  0
  9  8  1  6  0  0  0
  9 12  1  0  0  0  0
 10  9  1  0  0  0  0
 12 11  1  6  0  0  0
 12 16  1  0  0  0  0
 13 10  1  0  0  0  0
 13 14  1  0  0  0  0
 14 11  1  0  0  0  0
 15 17  1  0  0  0  0
 16 15  1  1  0  0  0
 16 17  1  0  0  0  0
 17 18  1  6  0  0  0
 18 19  1  0  0  0  0
 19 23  1  6  0  0  0
 19 20  1  0  0  0  0
 20 22  1  0  0  0  0
 22 21  1  0  0  0  0
 24 23  1  0  0  0  0
 25 24  1  0  0  0  0
 26  2  1  0  0  0  0
 28 29  1  0  0  0  0
 28 26  1  0  0  0  0
 29 27  2  0  0  0  0
 30 29  1  0  0  0  0
 30 31  1  0  0  0  0
 31 32  1  0  0  0  0
 33 32  1  1  0  0  0
 33 39  1  0  0  0  0
 33 37  1  0  0  0  0
 35 39  1  0  0  0  0
 35 34  1  1  0  0  0
 35 38  1  0  0  0  0
 36 37  1  0  0  0  0
 36 38  1  0  0  0  0
 38 40  1  6  0  0  0
 41 40  1  6  0  0  0
 41 45  1  0  0  0  0
 43 42  2  0  0  0  0
 43 41  1  0  0  0  0
 44 43  1  0  0  0  0
 45 47  1  0  0  0  0
 46 45  2  0  0  0  0
M  END
>  <MODEL>
8

>  <REMARK>
 VINA RESULT:      -6.0      3.909     10.129
  Name = 
  22 active torsions:
  status: ('A' for Active; 'I' for Inactive)
    1  A    between atoms: C_1  and  C_10
    2  A    between atoms: C_3  and  C_41
    3  A    between atoms: C_4  and  C_5
    4  A    between atoms: C_4  and  C_36
    5  A    between atoms: C_5  and  N_35
    6  A    between atoms: C_8  and  C_9
    7  A    between atoms: C_8  and  C_30
    8  A    between atoms: C_10  and  N_32
    9  A    between atoms: C_11  and  N_13
   10  A    between atoms: C_11  and  C_18
   11  A    between atoms: C_12  and  C_20
   12  A    between atoms: O_19  and  C_20
   13  A    between atoms: O_19  and  C_46
   14  A    between atoms: C_20  and  C_44
   15  A    between atoms: C_21  and  C_27
   16  A    between atoms: C_22  and  C_24
   17  A    between atoms: C_24  and  N_32
   18  A    between atoms: O_29  and  C_30
   19  A    between atoms: O_29  and  C_34
   20  A    between atoms: C_30  and  C_42
   21  A    between atoms: C_36  and  C_41
   22  A    between atoms: C_39  and  C_42
                            x       y       z     vdW  Elec       q    Type
                         _______ _______ _______ _____ _____    ______ ____

>  <TORSDO>
F 22

$$$$
=
 OpenBabel11062417343D

 47 49  0  0  1  0  0  0  0  0999 V2000
  190.9810  177.7780  140.5260 O   0  0  0  0  0  0  0  0  0  0  0  0
  190.0230  177.3040  139.8560 C   0  0  0  0  0  0  0  0  0  0  0  0
  188.6760  177.4350  140.3150 N   0  0  0  0  0  2  0  0  0  0  0  0
  188.3530  178.1470  141.5380 C   0  0  0  0  0  2  0  0  0  0  0  0
  188.3670  177.1880  142.7180 C   0  0  2  0  0  3  0  0  0  0  0  0
  188.7070  175.9090  142.2760 O   0  0  0  0  0  1  0  0  0  0  0  0
  186.9930  177.1450  143.3600 C   0  0  0  0  0  2  0  0  0  0  0  0
  186.2220  178.4110  143.0330 C   0  0  0  0  0  2  0  0  0  0  0  0
  185.9420  179.2070  144.2960 C   0  0  1  0  0  3  0  0  0  0  0  0
  184.6340  180.0050  144.1540 C   0  0  0  0  0  2  0  0  0  0  0  0
  184.5760  177.8790  146.0040 C   0  0  0  0  0  2  0  0  0  0  0  0
  185.9730  178.2540  145.5020 C   0  0  2  0  0  3  0  0  0  0  0  0
  183.4070  179.2800  144.7300 C   0  0  0  0  0  2  0  0  0  0  0  0
  183.6600  177.9180  144.9440 O   0  0  0  0  0  0  0  0  0  0  0  0
  186.9680  177.8900  147.6490 O   0  0  0  0  0  0  0  0  0  0  0  0
  186.7960  178.8540  146.6380 C   0  0  1  0  0  3  0  0  0  0  0  0
  188.1080  178.1810  146.8780 C   0  0  2  0  0  3  0  0  0  0  0  0
  188.3510  177.1270  145.9870 O   0  0  0  0  0  0  0  0  0  0  0  0
  189.7410  177.0130  145.9300 C   0  0  1  0  0  3  0  0  0  0  0  0
  190.3120  178.2200  145.1990 C   0  0  0  0  0  2  0  0  0  0  0  0
  191.5780  176.0830  144.0340 S   0  0  0  0  0  1  0  0  0  0  0  0
  191.5740  177.8530  144.4330 C   0  0  0  0  0  2  0  0  0  0  0  0
  190.3110  176.9490  147.3400 C   0  0  0  0  0  2  0  0  0  0  0  0
  191.0970  175.6670  147.5370 C   0  0  0  0  0  2  0  0  0  0  0  0
  192.5150  176.0050  147.9410 C   0  0  0  0  0  1  0  0  0  0  0  0
  190.2970  176.6060  138.5700 C   0  0  0  0  0  2  0  0  0  0  0  0
  188.0250  175.4300  137.2990 O   0  0  0  0  0  0  0  0  0  0  0  0
  189.5110  177.2220  137.5130 N   0  0  0  0  0  2  0  0  0  0  0  0
  188.3670  176.5880  136.9380 C   0  0  0  0  0  0  0  0  0  0  0  0
  187.5400  177.3330  135.9470 C   0  0  0  0  0  2  0  0  0  0  0  0
  186.1700  177.4450  136.4230 N   0  0  0  0  0  2  0  0  0  0  0  0
  186.1890  178.2550  137.6330 C   0  0  0  0  0  2  0  0  0  0  0  0
  184.7950  178.3360  138.2220 C   0  0  2  0  0  3  0  0  0  0  0  0
  182.1590  175.6130  138.7640 C   0  0  0  0  0  1  0  0  0  0  0  0
  182.7390  177.0120  138.7690 C   0  0  1  0  0  3  0  0  0  0  0  0
  183.4470  178.9380  140.2300 C   0  0  0  0  0  2  0  0  0  0  0  0
  184.8570  178.8400  139.6610 C   0  0  0  0  0  2  0  0  0  0  0  0
  182.7580  177.5720  140.1970 C   0  0  1  0  0  3  0  0  0  0  0  0
  184.1510  176.9570  138.1900 C   0  0  0  0  0  2  0  0  0  0  0  0
  181.4490  177.7070  140.6790 O   0  0  0  0  0  0  0  0  0  0  0  0
  181.2690  179.0800  140.8800 C   0  0  1  0  0  3  0  0  0  0  0  0
  179.3470  179.0640  139.4430 O   0  0  0  0  0  0  0  0  0  0  0  0
  180.4050  179.6520  139.7980 C   0  0  0  0  0  0  0  0  0  0  0  0
  180.8000  180.8510  139.1440 N   0  0  0  0  0  1  0  0  0  0  0  0
  180.6750  179.3290  142.2290 C   0  0  0  0  0  0  0  0  0  0  0  0
  180.4390  178.2710  143.0970 O   0  0  0  0  0  1  0  0  0  0  0  0
  180.3550  180.4990  142.5650 O   0  0  0  0  0  0  0  0  0  0  0  0
  2  3  1  0  0  0  0
  2  1  2  0  0  0  0
  3  4  1  0  0  0  0
  4  5  1  0  0  0  0
  5  6  1  6  0  0  0
  5  7  1  0  0  0  0
  8  7  1  0  0  0  0
  9  8  1  6  0  0  0
  9 12  1  0  0  0  0
 10  9  1  0  0  0  0
 10 13  1  0  0  0  0
 12 11  1  1  0  0  0
 12 16  1  0  0  0  0
 13 14  1  0  0  0  0
 14 11  1  0  0  0  0
 16 17  1  0  0  0  0
 16 15  1  1  0  0  0
 17 18  1  6  0  0  0
 17 15  1  0  0  0  0
 19 20  1  1  0  0  0
 19 18  1  0  0  0  0
 19 23  1  0  0  0  0
 21 22  1  0  0  0  0
 22 20  1  0  0  0  0
 23 24  1  0  0  0  0
 24 25  1  0  0  0  0
 26  2  1  0  0  0  0
 28 26  1  0  0  0  0
 29 27  2  0  0  0  0
 29 28  1  0  0  0  0
 30 31  1  0  0  0  0
 30 29  1  0  0  0  0
 31 32  1  0  0  0  0
 33 32  1  1  0  0  0
 33 37  1  0  0  0  0
 35 34  1  1  0  0  0
 35 38  1  0  0  0  0
 37 36  1  0  0  0  0
 38 36  1  0  0  0  0
 38 40  1  6  0  0  0
 39 33  1  0  0  0  0
 39 35  1  0  0  0  0
 40 41  1  0  0  0  0
 41 43  1  6  0  0  0
 41 45  1  0  0  0  0
 42 43  2  0  0  0  0
 44 43  1  0  0  0  0
 45 47  2  0  0  0  0
 45 46  1  0  0  0  0
M  END
>  <MODEL>
9

>  <REMARK>
 VINA RESULT:      -5.9      3.220      9.982
  Name = 
  22 active torsions:
  status: ('A' for Active; 'I' for Inactive)
    1  A    between atoms: C_1  and  C_10
    2  A    between atoms: C_3  and  C_41
    3  A    between atoms: C_4  and  C_5
    4  A    between atoms: C_4  and  C_36
    5  A    between atoms: C_5  and  N_35
    6  A    between atoms: C_8  and  C_9
    7  A    between atoms: C_8  and  C_30
    8  A    between atoms: C_10  and  N_32
    9  A    between atoms: C_11  and  N_13
   10  A    between atoms: C_11  and  C_18
   11  A    between atoms: C_12  and  C_20
   12  A    between atoms: O_19  and  C_20
   13  A    between atoms: O_19  and  C_46
   14  A    between atoms: C_20  and  C_44
   15  A    between atoms: C_21  and  C_27
   16  A    between atoms: C_22  and  C_24
   17  A    between atoms: C_24  and  N_32
   18  A    between atoms: O_29  and  C_30
   19  A    between atoms: O_29  and  C_34
   20  A    between atoms: C_30  and  C_42
   21  A    between atoms: C_36  and  C_41
   22  A    between atoms: C_39  and  C_42
                            x       y       z     vdW  Elec       q    Type
                         _______ _______ _______ _____ _____    ______ ____

>  <TORSDO>
F 22

$$$$
