=
 OpenBabel11062417363D

 57 61  0  0  1  0  0  0  0  0999 V2000
  188.8550  178.4150  139.2590 C   0  0  0  0  0  3  0  0  0  0  0  0
  187.6380  178.3380  139.8060 C   0  0  0  0  0  0  0  0  0  0  0  0
  184.0520  179.0850  138.5490 C   0  0  0  0  0  0  0  0  0  0  0  0
  186.4040  178.2180  138.9900 C   0  0  0  0  0  0  0  0  0  0  0  0
  185.3270  179.1390  139.1970 N   0  0  0  0  0  2  0  0  0  0  0  0
  186.3060  177.3080  138.1220 O   0  0  0  0  0  0  0  0  0  0  0  0
  183.7730  178.1510  137.7480 O   0  0  0  0  0  0  0  0  0  0  0  0
  183.0670  180.1270  138.8460 C   0  0  0  0  0  3  0  0  0  0  0  0
  181.9230  180.2250  138.1810 C   0  0  0  0  0  3  0  0  0  0  0  0
  180.9350  181.2980  138.4990 C   0  0  0  0  0  2  0  0  0  0  0  0
  181.3030  183.6490  137.7040 C   0  0  0  0  0  3  0  0  0  0  0  0
  180.4670  181.9970  136.1410 C   0  0  0  0  0  3  0  0  0  0  0  0
  180.4370  182.9660  135.1340 C   0  0  0  0  0  3  0  0  0  0  0  0
  181.2740  184.6180  136.6960 C   0  0  0  0  0  3  0  0  0  0  0  0
  180.8960  182.3370  137.4280 C   0  0  0  0  0  0  0  0  0  0  0  0
  180.8400  184.2760  135.4120 C   0  0  0  0  0  3  0  0  0  0  0  0
  187.5800  178.3930  141.2750 C   0  0  0  0  0  3  0  0  0  0  0  0
  188.0970  177.4530  142.0570 C   0  0  0  0  0  3  0  0  0  0  0  0
  187.9880  177.5530  143.5430 C   0  0  2  0  0  3  0  0  0  0  0  0
  189.0310  176.6640  144.2070 C   0  0  0  0  0  2  0  0  0  0  0  0
  190.3710  177.0160  143.7600 N   0  0  0  0  0  2  0  0  0  0  0  0
  191.9920  178.5370  144.4260 O   0  0  0  0  0  1  0  0  0  0  0  0
  191.0500  177.6220  144.8920 C   0  0  2  0  0  3  0  0  0  0  0  0
  191.3540  176.6610  147.1690 C   0  0  0  0  0  1  0  0  0  0  0  0
  191.7360  176.5420  145.7060 C   0  0  0  0  0  2  0  0  0  0  0  0
  186.7050  177.1850  143.9660 O   0  0  0  0  0  0  0  0  0  0  0  0
  185.8010  178.7400  145.5660 C   0  0  0  0  0  2  0  0  0  0  0  0
  185.9880  178.3800  144.0830 C   0  0  0  0  0  3  0  0  0  0  0  0
  184.6680  178.2540  143.3110 C   0  0  0  0  0  2  0  0  0  0  0  0
  183.3140  179.0650  145.2940 C   0  0  0  0  0  2  0  0  0  0  0  0
  184.4200  178.3420  146.0780 C   0  0  0  0  0  2  0  0  0  0  0  0
  183.6440  179.2700  143.8080 C   0  0  0  0  0  2  0  0  0  0  0  0
  189.1340  178.4740  137.7880 C   0  0  0  0  0  2  0  0  0  0  0  0
  190.5270  176.4900  138.3660 C   0  0  0  0  0  3  0  0  0  0  0  0
  190.2640  175.4620  135.6410 C   0  0  1  0  0  3  0  0  0  0  0  0
  189.8590  177.2800  137.3740 N   0  0  0  0  0  0  0  0  0  0  0  0
  189.8490  176.8610  135.9990 C   0  0  0  0  0  0  0  0  0  0  0  0
  191.2300  175.4070  138.0330 C   0  0  0  0  0  3  0  0  0  0  0  0
  189.4640  177.6470  135.0940 O   0  0  0  0  0  0  0  0  0  0  0  0
  191.3710  174.9730  136.5970 C   0  0  2  0  0  3  0  0  0  0  0  0
  188.0910  172.4390  136.6850 C   0  0  0  0  0  2  0  0  0  0  0  0
  189.3310  173.3240  136.6060 C   0  0  0  0  0  2  0  0  0  0  0  0
  186.7610  174.3630  136.0130 N   0  0  0  0  0  2  0  0  0  0  0  0
  189.0600  174.5110  135.6810 C   0  0  1  0  0  3  0  0  0  0  0  0
  187.8710  175.2170  136.1630 N   0  0  0  0  0  2  0  0  0  0  0  0
  186.8730  173.2940  137.0030 C   0  0  0  0  0  2  0  0  0  0  0  0
  192.8120  174.9900  136.0510 C   0  0  1  0  0  3  0  0  0  0  0  0
  193.7440  174.6420  137.0600 O   0  0  0  0  0  0  0  0  0  0  0  0
  192.9140  172.5460  136.5490 O   0  0  0  0  0  1  0  0  0  0  0  0
  193.5390  173.6920  136.0500 C   0  0  1  0  0  0  0  0  0  0  0  0
  194.7710  172.2550  134.5970 O   0  0  0  0  0  1  0  0  0  0  0  0
  194.7560  173.5340  135.1520 C   0  0  2  0  0  3  0  0  0  0  0  0
  196.0360  173.7720  135.9400 C   0  0  0  0  0  2  0  0  0  0  0  0
  196.6030  172.4750  136.4070 C   0  0  0  0  0  0  0  0  0  0  0  0
  197.4420  171.8610  135.6960 O   0  0  0  0  0  0  0  0  0  0  0  0
  195.7930  172.7020  138.6260 O   0  0  0  0  0  0  0  0  0  0  0  0
  196.1980  171.9390  137.7080 C   0  0  0  0  0  3  0  0  0  0  0  0
  1  2  2  0  0  0  0
  2 17  1  0  0  0  0
  3  8  1  0  0  0  0
  3  5  1  0  0  0  0
  4  5  1  0  0  0  0
  4  2  1  0  0  0  0
  6  4  2  0  0  0  0
  7  3  2  0  0  0  0
  9 10  1  0  0  0  0
  9  8  2  0  0  0  0
 12 15  2  0  0  0  0
 13 16  2  0  0  0  0
 13 12  1  0  0  0  0
 14 11  2  0  0  0  0
 15 11  1  0  0  0  0
 15 10  1  0  0  0  0
 16 14  1  0  0  0  0
 17 18  2  0  0  0  0
 19 18  1  6  0  0  0
 19 26  1  0  0  0  0
 19 20  1  0  0  0  0
 21 20  1  0  0  0  0
 21 23  1  0  0  0  0
 23 22  1  6  0  0  0
 23 25  1  0  0  0  0
 25 24  1  0  0  0  0
 26 28  1  0  0  0  0
 27 31  1  0  0  0  0
 28 27  1  0  0  0  0
 29 32  1  0  0  0  0
 29 28  1  0  0  0  0
 30 31  1  0  0  0  0
 32 30  1  0  0  0  0
 33  1  1  0  0  0  0
 35 44  1  0  0  0  0
 35 37  1  1  0  0  0
 35 40  1  0  0  0  0
 36 33  1  0  0  0  0
 36 34  1  0  0  0  0
 37 36  1  0  0  0  0
 38 34  2  0  0  0  0
 39 37  2  0  0  0  0
 40 38  1  1  0  0  0
 41 46  1  0  0  0  0
 42 41  1  0  0  0  0
 43 45  1  0  0  0  0
 43 46  1  0  0  0  0
 44 45  1  0  0  0  0
 44 42  1  1  0  0  0
 47 40  1  0  0  0  0
 47 48  1  1  0  0  0
 50 47  1  0  0  0  0
 50 49  1  1  0  0  0
 50 48  1  0  0  0  0
 52 51  1  1  0  0  0
 52 53  1  0  0  0  0
 52 50  1  0  0  0  0
 53 54  1  0  0  0  0
 54 57  1  0  0  0  0
 55 54  2  0  0  0  0
 57 56  2  0  0  0  0
M  END
>  <MODEL>
1

>  <REMARK>
 VINA RESULT:      -8.1      0.000      0.000
  Name = 
  20 active torsions:
  status: ('A' for Active; 'I' for Inactive)
    1  A    between atoms: C_6  and  C_46
    2  A    between atoms: C_7  and  O_10
    3  A    between atoms: C_9  and  C_23
    4  A    between atoms: C_9  and  C_47
    5  A    between atoms: O_10  and  C_38
    6  A    between atoms: C_16  and  C_21
    7  A    between atoms: C_17  and  C_38
    8  A    between atoms: C_17  and  N_49
    9  A    between atoms: C_19  and  C_50
   10  A    between atoms: N_22  and  C_29
   11  A    between atoms: C_23  and  C_42
   12  A    between atoms: C_24  and  C_31
   13  A    between atoms: C_25  and  C_44
   14  A    between atoms: C_29  and  C_40
   15  A    between atoms: C_31  and  C_54
   16  A    between atoms: C_34  and  C_46
   17  A    between atoms: C_38  and  C_52
   18  A    between atoms: C_42  and  C_56
   19  A    between atoms: N_49  and  C_53
   20  A    between atoms: C_51  and  C_53
                            x       y       z     vdW  Elec       q    Type
                         _______ _______ _______ _____ _____    ______ ____

>  <TORSDO>
F 20

$$$$
=
 OpenBabel11062417363D

 57 61  0  0  1  0  0  0  0  0999 V2000
  186.3850  178.5380  139.5480 C   0  0  0  0  0  3  0  0  0  0  0  0
  185.1670  178.8390  140.0070 C   0  0  0  0  0  0  0  0  0  0  0  0
  182.3170  178.1340  137.4820 C   0  0  0  0  0  0  0  0  0  0  0  0
  184.0190  179.1070  139.1050 C   0  0  0  0  0  0  0  0  0  0  0  0
  183.3700  178.0140  138.4430 N   0  0  0  0  0  2  0  0  0  0  0  0
  183.6210  180.2900  138.9210 O   0  0  0  0  0  0  0  0  0  0  0  0
  181.9050  179.2670  137.1110 O   0  0  0  0  0  0  0  0  0  0  0  0
  181.7340  176.9120  136.9220 C   0  0  0  0  0  3  0  0  0  0  0  0
  181.4720  175.8500  137.6720 C   0  0  0  0  0  3  0  0  0  0  0  0
  180.8820  174.6140  137.0780 C   0  0  0  0  0  2  0  0  0  0  0  0
  181.5070  172.2410  136.5530 C   0  0  0  0  0  3  0  0  0  0  0  0
  183.2130  173.7500  137.3780 C   0  0  0  0  0  3  0  0  0  0  0  0
  184.1580  172.7220  137.3050 C   0  0  0  0  0  3  0  0  0  0  0  0
  182.4520  171.2130  136.4800 C   0  0  0  0  0  3  0  0  0  0  0  0
  181.8860  173.5110  137.0060 C   0  0  0  0  0  0  0  0  0  0  0  0
  183.7770  171.4540  136.8570 C   0  0  0  0  0  3  0  0  0  0  0  0
  185.0210  178.9080  141.4700 C   0  0  0  0  0  3  0  0  0  0  0  0
  184.0360  178.3090  142.1300 C   0  0  0  0  0  3  0  0  0  0  0  0
  183.9290  178.4320  143.6130 C   0  0  2  0  0  3  0  0  0  0  0  0
  182.7470  179.3190  143.9840 C   0  0  0  0  0  2  0  0  0  0  0  0
  181.5150  178.5440  144.0330 N   0  0  0  0  0  2  0  0  0  0  0  0
  179.2500  178.7310  143.5670 O   0  0  0  0  0  1  0  0  0  0  0  0
  180.4910  179.3360  143.3770 C   0  0  2  0  0  3  0  0  0  0  0  0
  180.4850  178.1190  141.2050 C   0  0  0  0  0  1  0  0  0  0  0  0
  180.7980  179.4320  141.8950 C   0  0  0  0  0  2  0  0  0  0  0  0
  185.1100  178.9600  144.1480 O   0  0  0  0  0  0  0  0  0  0  0  0
  185.0800  178.2180  146.4380 C   0  0  0  0  0  2  0  0  0  0  0  0
  185.6060  177.9790  145.0140 C   0  0  0  0  0  3  0  0  0  0  0  0
  187.1380  177.9510  144.9210 C   0  0  0  0  0  2  0  0  0  0  0  0
  187.3930  178.0870  147.4390 C   0  0  0  0  0  2  0  0  0  0  0  0
  186.1110  178.9250  147.3130 C   0  0  0  0  0  2  0  0  0  0  0  0
  187.7500  177.3100  146.1620 C   0  0  0  0  0  2  0  0  0  0  0  0
  186.7750  178.5090  138.1020 C   0  0  0  0  0  2  0  0  0  0  0  0
  188.6550  177.1840  139.0620 C   0  0  0  0  0  3  0  0  0  0  0  0
  189.1710  175.9550  136.4580 C   0  0  1  0  0  3  0  0  0  0  0  0
  187.9160  177.6220  137.9140 N   0  0  0  0  0  0  0  0  0  0  0  0
  188.2560  177.1390  136.6040 C   0  0  0  0  0  0  0  0  0  0  0  0
  189.7250  176.3970  138.9390 C   0  0  0  0  0  3  0  0  0  0  0  0
  187.7700  177.6790  135.5770 O   0  0  0  0  0  0  0  0  0  0  0  0
  190.2200  175.9500  137.5890 C   0  0  2  0  0  3  0  0  0  0  0  0
  187.1980  172.9330  135.0720 C   0  0  0  0  0  2  0  0  0  0  0  0
  187.9250  174.2730  135.0470 C   0  0  0  0  0  2  0  0  0  0  0  0
  188.3540  172.4240  137.1510 N   0  0  0  0  0  2  0  0  0  0  0  0
  188.3690  174.6460  136.4620 C   0  0  1  0  0  3  0  0  0  0  0  0
  189.1810  173.5530  137.0000 N   0  0  0  0  0  2  0  0  0  0  0  0
  188.0400  171.9090  135.8210 C   0  0  0  0  0  2  0  0  0  0  0  0
  191.6340  176.4360  137.2190 C   0  0  1  0  0  3  0  0  0  0  0  0
  192.5370  176.2450  138.2950 O   0  0  0  0  0  0  0  0  0  0  0  0
  192.4020  174.0780  137.5000 O   0  0  0  0  0  1  0  0  0  0  0  0
  192.7060  175.4050  137.1850 C   0  0  1  0  0  0  0  0  0  0  0  0
  193.6850  176.1260  135.1320 O   0  0  0  0  0  1  0  0  0  0  0  0
  193.9890  175.7050  136.4260 C   0  0  2  0  0  3  0  0  0  0  0  0
  194.8810  174.4730  136.3760 C   0  0  0  0  0  2  0  0  0  0  0  0
  195.9740  174.5870  137.3830 C   0  0  0  0  0  0  0  0  0  0  0  0
  197.1030  175.0280  137.0410 O   0  0  0  0  0  0  0  0  0  0  0  0
  195.4100  173.0260  139.0790 O   0  0  0  0  0  0  0  0  0  0  0  0
  195.7130  174.2110  138.7730 C   0  0  0  0  0  3  0  0  0  0  0  0
  1  2  2  0  0  0  0
  2 17  1  0  0  0  0
  3  5  1  0  0  0  0
  4  2  1  0  0  0  0
  5  4  1  0  0  0  0
  6  4  2  0  0  0  0
  7  3  2  0  0  0  0
  8  3  1  0  0  0  0
  8  9  2  0  0  0  0
 10  9  1  0  0  0  0
 11 15  1  0  0  0  0
 13 12  1  0  0  0  0
 14 11  2  0  0  0  0
 14 16  1  0  0  0  0
 15 10  1  0  0  0  0
 15 12  2  0  0  0  0
 16 13  2  0  0  0  0
 17 18  2  0  0  0  0
 19 18  1  6  0  0  0
 19 20  1  0  0  0  0
 19 26  1  0  0  0  0
 20 21  1  0  0  0  0
 23 22  1  6  0  0  0
 23 21  1  0  0  0  0
 24 25  1  0  0  0  0
 25 23  1  0  0  0  0
 26 28  1  0  0  0  0
 27 31  1  0  0  0  0
 28 27  1  0  0  0  0
 29 28  1  0  0  0  0
 29 32  1  0  0  0  0
 31 30  1  0  0  0  0
 32 30  1  0  0  0  0
 33  1  1  0  0  0  0
 35 44  1  0  0  0  0
 35 37  1  1  0  0  0
 35 40  1  0  0  0  0
 36 33  1  0  0  0  0
 36 34  1  0  0  0  0
 37 36  1  0  0  0  0
 38 34  2  0  0  0  0
 39 37  2  0  0  0  0
 40 38  1  1  0  0  0
 41 46  1  0  0  0  0
 42 41  1  0  0  0  0
 44 42  1  6  0  0  0
 44 45  1  0  0  0  0
 45 43  1  0  0  0  0
 46 43  1  0  0  0  0
 47 40  1  0  0  0  0
 47 48  1  1  0  0  0
 50 47  1  0  0  0  0
 50 49  1  1  0  0  0
 50 48  1  0  0  0  0
 52 51  1  6  0  0  0
 52 50  1  0  0  0  0
 53 52  1  0  0  0  0
 53 54  1  0  0  0  0
 54 57  1  0  0  0  0
 55 54  2  0  0  0  0
 57 56  2  0  0  0  0
M  END
>  <MODEL>
2

>  <REMARK>
 VINA RESULT:      -8.0      2.936      5.689
  Name = 
  20 active torsions:
  status: ('A' for Active; 'I' for Inactive)
    1  A    between atoms: C_6  and  C_46
    2  A    between atoms: C_7  and  O_10
    3  A    between atoms: C_9  and  C_23
    4  A    between atoms: C_9  and  C_47
    5  A    between atoms: O_10  and  C_38
    6  A    between atoms: C_16  and  C_21
    7  A    between atoms: C_17  and  C_38
    8  A    between atoms: C_17  and  N_49
    9  A    between atoms: C_19  and  C_50
   10  A    between atoms: N_22  and  C_29
   11  A    between atoms: C_23  and  C_42
   12  A    between atoms: C_24  and  C_31
   13  A    between atoms: C_25  and  C_44
   14  A    between atoms: C_29  and  C_40
   15  A    between atoms: C_31  and  C_54
   16  A    between atoms: C_34  and  C_46
   17  A    between atoms: C_38  and  C_52
   18  A    between atoms: C_42  and  C_56
   19  A    between atoms: N_49  and  C_53
   20  A    between atoms: C_51  and  C_53
                            x       y       z     vdW  Elec       q    Type
                         _______ _______ _______ _____ _____    ______ ____

>  <TORSDO>
F 20

$$$$
=
 OpenBabel11062417363D

 57 61  0  0  1  0  0  0  0  0999 V2000
  188.8790  178.4070  138.8820 C   0  0  0  0  0  3  0  0  0  0  0  0
  187.6690  178.2870  139.4380 C   0  0  0  0  0  0  0  0  0  0  0  0
  183.9460  178.5060  138.3970 C   0  0  0  0  0  0  0  0  0  0  0  0
  186.4410  178.0650  138.6350 C   0  0  0  0  0  0  0  0  0  0  0  0
  185.2180  178.7020  139.0220 N   0  0  0  0  0  2  0  0  0  0  0  0
  186.4760  177.3160  137.6200 O   0  0  0  0  0  0  0  0  0  0  0  0
  183.8120  177.6870  137.4460 O   0  0  0  0  0  0  0  0  0  0  0  0
  182.7940  179.2620  138.8930 C   0  0  0  0  0  3  0  0  0  0  0  0
  181.5470  178.8570  138.6920 C   0  0  0  0  0  3  0  0  0  0  0  0
  180.3880  179.6460  139.2040 C   0  0  0  0  0  2  0  0  0  0  0  0
  179.7640  180.5260  141.4700 C   0  0  0  0  0  3  0  0  0  0  0  0
  180.4810  178.2210  141.2610 C   0  0  0  0  0  3  0  0  0  0  0  0
  180.3090  178.0430  142.6370 C   0  0  0  0  0  3  0  0  0  0  0  0
  179.5930  180.3480  142.8470 C   0  0  0  0  0  3  0  0  0  0  0  0
  180.2120  179.4630  140.6760 C   0  0  0  0  0  0  0  0  0  0  0  0
  179.8670  179.1070  143.4290 C   0  0  0  0  0  3  0  0  0  0  0  0
  187.6130  178.4020  140.9040 C   0  0  0  0  0  3  0  0  0  0  0  0
  188.3160  177.6260  141.7200 C   0  0  0  0  0  3  0  0  0  0  0  0
  188.2010  177.7760  143.2010 C   0  0  2  0  0  3  0  0  0  0  0  0
  189.3230  177.0130  143.8950 C   0  0  0  0  0  2  0  0  0  0  0  0
  190.3010  177.9330  144.4570 N   0  0  0  0  0  2  0  0  0  0  0  0
  191.5040  176.3580  145.6640 O   0  0  0  0  0  1  0  0  0  0  0  0
  190.6340  177.4400  145.7820 C   0  0  2  0  0  3  0  0  0  0  0  0
  189.3080  177.6170  147.8820 C   0  0  0  0  0  1  0  0  0  0  0  0
  189.3660  177.0100  146.4940 C   0  0  0  0  0  2  0  0  0  0  0  0
  186.9580  177.3080  143.6450 O   0  0  0  0  0  0  0  0  0  0  0  0
  186.1900  178.6180  145.5130 C   0  0  0  0  0  2  0  0  0  0  0  0
  186.2250  178.4500  143.9860 C   0  0  0  0  0  3  0  0  0  0  0  0
  184.8330  178.3650  143.3450 C   0  0  0  0  0  2  0  0  0  0  0  0
  183.6800  178.8710  145.5450 C   0  0  0  0  0  2  0  0  0  0  0  0
  184.8840  178.1040  146.1120 C   0  0  0  0  0  2  0  0  0  0  0  0
  183.8410  179.2700  144.0700 C   0  0  0  0  0  2  0  0  0  0  0  0
  189.1490  178.4180  137.4080 C   0  0  0  0  0  2  0  0  0  0  0  0
  190.6590  176.5570  138.0930 C   0  0  0  0  0  3  0  0  0  0  0  0
  190.6650  175.5050  135.3640 C   0  0  1  0  0  3  0  0  0  0  0  0
  189.9950  177.2870  137.0520 N   0  0  0  0  0  0  0  0  0  0  0  0
  190.1120  176.8650  135.6830 C   0  0  0  0  0  0  0  0  0  0  0  0
  191.4680  175.5350  137.8150 C   0  0  0  0  0  3  0  0  0  0  0  0
  189.7260  177.6150  134.7480 O   0  0  0  0  0  0  0  0  0  0  0  0
  191.7410  175.1110  136.3960 C   0  0  2  0  0  3  0  0  0  0  0  0
  188.9300  172.0670  135.7180 C   0  0  0  0  0  2  0  0  0  0  0  0
  190.0780  173.0700  135.6850 C   0  0  0  0  0  2  0  0  0  0  0  0
  187.4090  173.9280  136.0960 N   0  0  0  0  0  2  0  0  0  0  0  0
  189.5420  174.4580  135.3310 C   0  0  1  0  0  3  0  0  0  0  0  0
  188.4910  174.8090  136.2880 N   0  0  0  0  0  2  0  0  0  0  0  0
  187.8040  172.6100  136.5860 C   0  0  0  0  0  2  0  0  0  0  0  0
  193.2090  175.2450  135.9460 C   0  0  1  0  0  3  0  0  0  0  0  0
  194.0640  175.4660  137.0550 O   0  0  0  0  0  0  0  0  0  0  0  0
  193.6940  173.1950  137.2860 O   0  0  0  0  0  1  0  0  0  0  0  0
  194.1550  174.2090  136.4410 C   0  0  1  0  0  0  0  0  0  0  0  0
  195.2880  173.2110  134.5940 O   0  0  0  0  0  1  0  0  0  0  0  0
  195.4770  174.0170  135.7160 C   0  0  2  0  0  3  0  0  0  0  0  0
  196.5070  173.3850  136.6410 C   0  0  0  0  0  2  0  0  0  0  0  0
  197.0820  174.4140  137.5520 C   0  0  0  0  0  0  0  0  0  0  0  0
  197.6220  175.4480  137.0750 O   0  0  0  0  0  0  0  0  0  0  0  0
  195.8760  174.3050  139.5920 O   0  0  0  0  0  0  0  0  0  0  0  0
  196.9860  174.2280  139.0010 C   0  0  0  0  0  3  0  0  0  0  0  0
  1  2  2  0  0  0  0
  2 17  1  0  0  0  0
  3  8  1  0  0  0  0
  3  5  1  0  0  0  0
  4  5  1  0  0  0  0
  4  2  1  0  0  0  0
  6  4  2  0  0  0  0
  7  3  2  0  0  0  0
  9  8  2  0  0  0  0
  9 10  1  0  0  0  0
 10 15  1  0  0  0  0
 11 14  1  0  0  0  0
 12 13  2  0  0  0  0
 13 16  1  0  0  0  0
 14 16  2  0  0  0  0
 15 12  1  0  0  0  0
 15 11  2  0  0  0  0
 17 18  2  0  0  0  0
 19 18  1  6  0  0  0
 19 26  1  0  0  0  0
 19 20  1  0  0  0  0
 20 21  1  0  0  0  0
 21 23  1  0  0  0  0
 23 22  1  6  0  0  0
 23 25  1  0  0  0  0
 25 24  1  0  0  0  0
 26 28  1  0  0  0  0
 27 31  1  0  0  0  0
 28 27  1  0  0  0  0
 29 28  1  0  0  0  0
 29 32  1  0  0  0  0
 30 31  1  0  0  0  0
 32 30  1  0  0  0  0
 33  1  1  0  0  0  0
 35 37  1  1  0  0  0
 35 40  1  0  0  0  0
 36 33  1  0  0  0  0
 36 34  1  0  0  0  0
 37 36  1  0  0  0  0
 38 34  2  0  0  0  0
 39 37  2  0  0  0  0
 40 38  1  1  0  0  0
 41 46  1  0  0  0  0
 42 41  1  0  0  0  0
 43 45  1  0  0  0  0
 43 46  1  0  0  0  0
 44 35  1  0  0  0  0
 44 42  1  1  0  0  0
 44 45  1  0  0  0  0
 47 40  1  0  0  0  0
 47 50  1  0  0  0  0
 47 48  1  1  0  0  0
 50 48  1  0  0  0  0
 50 49  1  1  0  0  0
 52 51  1  6  0  0  0
 52 50  1  0  0  0  0
 52 53  1  0  0  0  0
 53 54  1  0  0  0  0
 54 57  1  0  0  0  0
 55 54  2  0  0  0  0
 57 56  2  0  0  0  0
M  END
>  <MODEL>
3

>  <REMARK>
 VINA RESULT:      -8.0      1.833      2.628
  Name = 
  20 active torsions:
  status: ('A' for Active; 'I' for Inactive)
    1  A    between atoms: C_6  and  C_46
    2  A    between atoms: C_7  and  O_10
    3  A    between atoms: C_9  and  C_23
    4  A    between atoms: C_9  and  C_47
    5  A    between atoms: O_10  and  C_38
    6  A    between atoms: C_16  and  C_21
    7  A    between atoms: C_17  and  C_38
    8  A    between atoms: C_17  and  N_49
    9  A    between atoms: C_19  and  C_50
   10  A    between atoms: N_22  and  C_29
   11  A    between atoms: C_23  and  C_42
   12  A    between atoms: C_24  and  C_31
   13  A    between atoms: C_25  and  C_44
   14  A    between atoms: C_29  and  C_40
   15  A    between atoms: C_31  and  C_54
   16  A    between atoms: C_34  and  C_46
   17  A    between atoms: C_38  and  C_52
   18  A    between atoms: C_42  and  C_56
   19  A    between atoms: N_49  and  C_53
   20  A    between atoms: C_51  and  C_53
                            x       y       z     vdW  Elec       q    Type
                         _______ _______ _______ _____ _____    ______ ____

>  <TORSDO>
F 20

$$$$
=
 OpenBabel11062417363D

 57 61  0  0  1  0  0  0  0  0999 V2000
  188.8090  178.5410  140.1530 C   0  0  0  0  0  3  0  0  0  0  0  0
  187.6200  178.5390  140.7650 C   0  0  0  0  0  0  0  0  0  0  0  0
  184.9820  177.8870  138.0050 C   0  0  0  0  0  0  0  0  0  0  0  0
  186.3410  178.6460  140.0190 C   0  0  0  0  0  0  0  0  0  0  0  0
  186.1240  177.8250  138.8660 N   0  0  0  0  0  2  0  0  0  0  0  0
  185.4530  179.4580  140.3990 O   0  0  0  0  0  0  0  0  0  0  0  0
  184.0740  178.7420  138.1960 O   0  0  0  0  0  0  0  0  0  0  0  0
  184.8960  176.9500  136.8830 C   0  0  0  0  0  3  0  0  0  0  0  0
  183.8050  176.2320  136.6490 C   0  0  0  0  0  3  0  0  0  0  0  0
  183.7400  175.2800  135.5010 C   0  0  0  0  0  2  0  0  0  0  0  0
  184.6480  172.9580  135.7880 C   0  0  0  0  0  3  0  0  0  0  0  0
  182.4250  173.4590  136.6090 C   0  0  0  0  0  3  0  0  0  0  0  0
  182.2940  172.1420  137.0570 C   0  0  0  0  0  3  0  0  0  0  0  0
  184.5170  171.6410  136.2370 C   0  0  0  0  0  3  0  0  0  0  0  0
  183.6000  173.8690  135.9710 C   0  0  0  0  0  0  0  0  0  0  0  0
  183.3400  171.2330  136.8700 C   0  0  0  0  0  3  0  0  0  0  0  0
  187.6430  178.4380  142.2320 C   0  0  0  0  0  3  0  0  0  0  0  0
  186.7280  177.7720  142.9280 C   0  0  0  0  0  3  0  0  0  0  0  0
  186.7920  177.7220  144.4180 C   0  0  2  0  0  3  0  0  0  0  0  0
  185.6230  178.4900  145.0210 C   0  0  0  0  0  2  0  0  0  0  0  0
  184.9300  179.2610  143.9990 N   0  0  0  0  0  2  0  0  0  0  0  0
  183.4490  178.9470  145.7580 O   0  0  0  0  0  1  0  0  0  0  0  0
  183.6180  179.5850  144.5300 C   0  0  2  0  0  3  0  0  0  0  0  0
  183.1780  178.3440  142.4160 C   0  0  0  0  0  1  0  0  0  0  0  0
  182.5510  179.1230  143.5560 C   0  0  0  0  0  2  0  0  0  0  0  0
  188.0030  178.2570  144.8750 O   0  0  0  0  0  0  0  0  0  0  0  0
  188.3480  177.1300  146.9740 C   0  0  0  0  0  2  0  0  0  0  0  0
  188.6840  177.1920  145.4760 C   0  0  0  0  0  3  0  0  0  0  0  0
  190.1860  177.3290  145.1880 C   0  0  0  0  0  2  0  0  0  0  0  0
  190.7810  177.0500  147.6360 C   0  0  0  0  0  2  0  0  0  0  0  0
  189.4380  177.7700  147.8290 C   0  0  0  0  0  2  0  0  0  0  0  0
  191.0110  176.5430  146.2040 C   0  0  0  0  0  2  0  0  0  0  0  0
  189.0180  178.7310  138.6820 C   0  0  0  0  0  2  0  0  0  0  0  0
  190.6850  176.9250  139.0980 C   0  0  0  0  0  3  0  0  0  0  0  0
  190.5770  176.1240  136.2880 C   0  0  1  0  0  3  0  0  0  0  0  0
  189.9090  177.6970  138.1720 N   0  0  0  0  0  0  0  0  0  0  0  0
  189.9610  177.4090  136.7650 C   0  0  0  0  0  0  0  0  0  0  0  0
  191.5370  175.9900  138.6780 C   0  0  0  0  0  3  0  0  0  0  0  0
  189.4680  178.2100  135.9290 O   0  0  0  0  0  0  0  0  0  0  0  0
  191.7420  175.7150  137.2110 C   0  0  2  0  0  3  0  0  0  0  0  0
  188.0300  173.6530  134.7510 C   0  0  0  0  0  2  0  0  0  0  0  0
  189.0170  174.8150  134.7950 C   0  0  0  0  0  2  0  0  0  0  0  0
  189.0510  172.8000  136.7880 N   0  0  0  0  0  2  0  0  0  0  0  0
  189.5230  175.0090  136.2250 C   0  0  1  0  0  3  0  0  0  0  0  0
  190.0930  173.7440  136.6930 N   0  0  0  0  0  2  0  0  0  0  0  0
  188.6420  172.4380  135.4340 C   0  0  0  0  0  2  0  0  0  0  0  0
  193.1650  175.9900  136.6890 C   0  0  1  0  0  3  0  0  0  0  0  0
  194.1170  175.9120  137.7370 O   0  0  0  0  0  0  0  0  0  0  0  0
  193.7480  173.6590  137.3680 O   0  0  0  0  0  1  0  0  0  0  0  0
  194.1420  174.8720  136.7960 C   0  0  1  0  0  0  0  0  0  0  0  0
  195.0480  174.7340  134.5940 O   0  0  0  0  0  1  0  0  0  0  0  0
  195.3920  174.9070  135.9330 C   0  0  2  0  0  3  0  0  0  0  0  0
  196.3680  173.8200  136.3620 C   0  0  0  0  0  2  0  0  0  0  0  0
  197.6730  174.4240  136.7550 C   0  0  0  0  0  0  0  0  0  0  0  0
  198.6050  174.5120  135.9120 O   0  0  0  0  0  0  0  0  0  0  0  0
  198.8880  174.6810  138.7760 O   0  0  0  0  0  0  0  0  0  0  0  0
  197.8480  174.9400  138.1130 C   0  0  0  0  0  3  0  0  0  0  0  0
  1  2  2  0  0  0  0
  2 17  1  0  0  0  0
  3  7  2  0  0  0  0
  3  5  1  0  0  0  0
  4  6  2  0  0  0  0
  4  2  1  0  0  0  0
  5  4  1  0  0  0  0
  8  3  1  0  0  0  0
  9  8  2  0  0  0  0
 10 15  1  0  0  0  0
 10  9  1  0  0  0  0
 11 15  2  0  0  0  0
 11 14  1  0  0  0  0
 12 13  2  0  0  0  0
 14 16  2  0  0  0  0
 15 12  1  0  0  0  0
 16 13  1  0  0  0  0
 17 18  2  0  0  0  0
 19 18  1  6  0  0  0
 19 26  1  0  0  0  0
 19 20  1  0  0  0  0
 21 23  1  0  0  0  0
 21 20  1  0  0  0  0
 23 22  1  1  0  0  0
 24 25  1  0  0  0  0
 25 23  1  0  0  0  0
 26 28  1  0  0  0  0
 27 31  1  0  0  0  0
 28 27  1  0  0  0  0
 29 28  1  0  0  0  0
 29 32  1  0  0  0  0
 30 31  1  0  0  0  0
 32 30  1  0  0  0  0
 33  1  1  0  0  0  0
 35 37  1  1  0  0  0
 35 40  1  0  0  0  0
 36 33  1  0  0  0  0
 36 34  1  0  0  0  0
 37 36  1  0  0  0  0
 38 34  2  0  0  0  0
 39 37  2  0  0  0  0
 40 38  1  1  0  0  0
 41 42  1  0  0  0  0
 41 46  1  0  0  0  0
 44 42  1  6  0  0  0
 44 35  1  0  0  0  0
 44 45  1  0  0  0  0
 45 43  1  0  0  0  0
 46 43  1  0  0  0  0
 47 50  1  0  0  0  0
 47 40  1  0  0  0  0
 47 48  1  1  0  0  0
 50 49  1  1  0  0  0
 50 48  1  0  0  0  0
 52 51  1  6  0  0  0
 52 53  1  0  0  0  0
 52 50  1  0  0  0  0
 53 54  1  0  0  0  0
 54 57  1  0  0  0  0
 55 54  2  0  0  0  0
 57 56  2  0  0  0  0
M  END
>  <MODEL>
4

>  <REMARK>
 VINA RESULT:      -7.7      3.005      5.262
  Name = 
  20 active torsions:
  status: ('A' for Active; 'I' for Inactive)
    1  A    between atoms: C_6  and  C_46
    2  A    between atoms: C_7  and  O_10
    3  A    between atoms: C_9  and  C_23
    4  A    between atoms: C_9  and  C_47
    5  A    between atoms: O_10  and  C_38
    6  A    between atoms: C_16  and  C_21
    7  A    between atoms: C_17  and  C_38
    8  A    between atoms: C_17  and  N_49
    9  A    between atoms: C_19  and  C_50
   10  A    between atoms: N_22  and  C_29
   11  A    between atoms: C_23  and  C_42
   12  A    between atoms: C_24  and  C_31
   13  A    between atoms: C_25  and  C_44
   14  A    between atoms: C_29  and  C_40
   15  A    between atoms: C_31  and  C_54
   16  A    between atoms: C_34  and  C_46
   17  A    between atoms: C_38  and  C_52
   18  A    between atoms: C_42  and  C_56
   19  A    between atoms: N_49  and  C_53
   20  A    between atoms: C_51  and  C_53
                            x       y       z     vdW  Elec       q    Type
                         _______ _______ _______ _____ _____    ______ ____

>  <TORSDO>
F 20

$$$$
=
 OpenBabel11062417363D

 57 61  0  0  1  0  0  0  0  0999 V2000
  188.7680  178.5520  139.4010 C   0  0  0  0  0  3  0  0  0  0  0  0
  187.5240  178.3590  139.8510 C   0  0  0  0  0  0  0  0  0  0  0  0
  183.8690  178.5710  138.5910 C   0  0  0  0  0  0  0  0  0  0  0  0
  186.3630  178.2020  138.9410 C   0  0  0  0  0  0  0  0  0  0  0  0
  185.0870  178.7280  139.3250 N   0  0  0  0  0  2  0  0  0  0  0  0
  186.4990  177.6040  137.8380 O   0  0  0  0  0  0  0  0  0  0  0  0
  183.8360  177.8880  137.5300 O   0  0  0  0  0  0  0  0  0  0  0  0
  182.6520  179.2040  139.1040 C   0  0  0  0  0  3  0  0  0  0  0  0
  181.5600  179.3330  138.3620 C   0  0  0  0  0  3  0  0  0  0  0  0
  180.3310  179.9850  138.9040 C   0  0  0  0  0  2  0  0  0  0  0  0
  180.0000  180.5150  141.3350 C   0  0  0  0  0  3  0  0  0  0  0  0
  179.8690  178.2080  140.6070 C   0  0  0  0  0  3  0  0  0  0  0  0
  179.6120  177.8080  141.9220 C   0  0  0  0  0  3  0  0  0  0  0  0
  179.7440  180.1150  142.6500 C   0  0  0  0  0  3  0  0  0  0  0  0
  180.0660  179.5610  140.3110 C   0  0  0  0  0  0  0  0  0  0  0  0
  179.5510  178.7620  142.9430 C   0  0  0  0  0  3  0  0  0  0  0  0
  187.3590  178.3230  141.3130 C   0  0  0  0  0  3  0  0  0  0  0  0
  188.0630  177.5210  142.1030 C   0  0  0  0  0  3  0  0  0  0  0  0
  187.8370  177.5140  143.5790 C   0  0  2  0  0  3  0  0  0  0  0  0
  186.5860  178.3120  143.9220 C   0  0  0  0  0  2  0  0  0  0  0  0
  186.0570  177.9110  145.2180 N   0  0  0  0  0  2  0  0  0  0  0  0
  184.2960  178.4610  146.6260 O   0  0  0  0  0  1  0  0  0  0  0  0
  185.1590  178.9650  145.6540 C   0  0  2  0  0  3  0  0  0  0  0  0
  182.9950  178.8170  144.4310 C   0  0  0  0  0  1  0  0  0  0  0  0
  184.3620  179.4720  144.4680 C   0  0  0  0  0  2  0  0  0  0  0  0
  188.9450  178.0510  144.2460 O   0  0  0  0  0  0  0  0  0  0  0  0
  189.0470  176.8050  146.3040 C   0  0  0  0  0  2  0  0  0  0  0  0
  189.5720  176.9660  144.8690 C   0  0  0  0  0  3  0  0  0  0  0  0
  191.0940  177.1510  144.7890 C   0  0  0  0  0  2  0  0  0  0  0  0
  191.3750  176.7360  147.2740 C   0  0  0  0  0  2  0  0  0  0  0  0
  189.9980  177.4140  147.3300 C   0  0  0  0  0  2  0  0  0  0  0  0
  191.8020  176.3220  145.8570 C   0  0  0  0  0  2  0  0  0  0  0  0
  189.1430  178.7160  137.9600 C   0  0  0  0  0  2  0  0  0  0  0  0
  190.7280  176.8760  138.5230 C   0  0  0  0  0  3  0  0  0  0  0  0
  190.5590  175.8410  135.7930 C   0  0  1  0  0  3  0  0  0  0  0  0
  189.9810  177.6010  137.5370 N   0  0  0  0  0  0  0  0  0  0  0  0
  190.0080  177.1900  136.1600 C   0  0  0  0  0  0  0  0  0  0  0  0
  191.5330  175.8690  138.1820 C   0  0  0  0  0  3  0  0  0  0  0  0
  189.5450  177.9390  135.2600 O   0  0  0  0  0  0  0  0  0  0  0  0
  191.7120  175.4590  136.7440 C   0  0  2  0  0  3  0  0  0  0  0  0
  188.6170  172.7020  136.9440 C   0  0  0  0  0  2  0  0  0  0  0  0
  189.7650  173.7030  136.8760 C   0  0  0  0  0  2  0  0  0  0  0  0
  187.1620  174.4150  136.0100 N   0  0  0  0  0  2  0  0  0  0  0  0
  189.4540  174.7760  135.8320 C   0  0  1  0  0  3  0  0  0  0  0  0
  188.1670  175.3900  136.1630 N   0  0  0  0  0  2  0  0  0  0  0  0
  187.2990  173.4480  137.0970 C   0  0  0  0  0  2  0  0  0  0  0  0
  193.1420  175.6210  136.1930 C   0  0  1  0  0  3  0  0  0  0  0  0
  194.0910  175.6670  137.2450 O   0  0  0  0  0  0  0  0  0  0  0  0
  193.6630  173.3950  137.1960 O   0  0  0  0  0  1  0  0  0  0  0  0
  194.0880  174.5040  136.4600 C   0  0  1  0  0  0  0  0  0  0  0  0
  195.6220  173.0400  135.3660 O   0  0  0  0  0  1  0  0  0  0  0  0
  195.3400  174.3840  135.6060 C   0  0  2  0  0  3  0  0  0  0  0  0
  196.5240  175.0480  136.2940 C   0  0  0  0  0  2  0  0  0  0  0  0
  197.1400  174.1130  137.2770 C   0  0  0  0  0  0  0  0  0  0  0  0
  197.9310  173.2150  136.8820 O   0  0  0  0  0  0  0  0  0  0  0  0
  195.9670  173.5510  139.2620 O   0  0  0  0  0  0  0  0  0  0  0  0
  196.8410  174.2660  138.7020 C   0  0  0  0  0  3  0  0  0  0  0  0
  1  2  2  0  0  0  0
  2 17  1  0  0  0  0
  3  8  1  0  0  0  0
  3  5  1  0  0  0  0
  4  5  1  0  0  0  0
  4  2  1  0  0  0  0
  6  4  2  0  0  0  0
  7  3  2  0  0  0  0
  9 10  1  0  0  0  0
  9  8  2  0  0  0  0
 10 15  1  0  0  0  0
 11 14  1  0  0  0  0
 12 13  2  0  0  0  0
 13 16  1  0  0  0  0
 14 16  2  0  0  0  0
 15 12  1  0  0  0  0
 15 11  2  0  0  0  0
 17 18  2  0  0  0  0
 19 18  1  6  0  0  0
 19 20  1  0  0  0  0
 19 26  1  0  0  0  0
 20 21  1  0  0  0  0
 21 23  1  0  0  0  0
 23 22  1  1  0  0  0
 24 25  1  0  0  0  0
 25 23  1  0  0  0  0
 26 28  1  0  0  0  0
 27 31  1  0  0  0  0
 28 27  1  0  0  0  0
 29 28  1  0  0  0  0
 29 32  1  0  0  0  0
 30 31  1  0  0  0  0
 32 30  1  0  0  0  0
 33  1  1  0  0  0  0
 35 44  1  0  0  0  0
 35 37  1  1  0  0  0
 35 40  1  0  0  0  0
 36 33  1  0  0  0  0
 36 34  1  0  0  0  0
 37 36  1  0  0  0  0
 38 34  2  0  0  0  0
 39 37  2  0  0  0  0
 40 38  1  1  0  0  0
 41 46  1  0  0  0  0
 42 41  1  0  0  0  0
 43 45  1  0  0  0  0
 43 46  1  0  0  0  0
 44 45  1  0  0  0  0
 44 42  1  1  0  0  0
 47 50  1  0  0  0  0
 47 40  1  0  0  0  0
 47 48  1  1  0  0  0
 50 49  1  1  0  0  0
 50 48  1  0  0  0  0
 52 51  1  1  0  0  0
 52 53  1  0  0  0  0
 52 50  1  0  0  0  0
 53 54  1  0  0  0  0
 54 57  1  0  0  0  0
 55 54  2  0  0  0  0
 57 56  2  0  0  0  0
M  END
>  <MODEL>
5

>  <REMARK>
 VINA RESULT:      -7.7      1.841      3.920
  Name = 
  20 active torsions:
  status: ('A' for Active; 'I' for Inactive)
    1  A    between atoms: C_6  and  C_46
    2  A    between atoms: C_7  and  O_10
    3  A    between atoms: C_9  and  C_23
    4  A    between atoms: C_9  and  C_47
    5  A    between atoms: O_10  and  C_38
    6  A    between atoms: C_16  and  C_21
    7  A    between atoms: C_17  and  C_38
    8  A    between atoms: C_17  and  N_49
    9  A    between atoms: C_19  and  C_50
   10  A    between atoms: N_22  and  C_29
   11  A    between atoms: C_23  and  C_42
   12  A    between atoms: C_24  and  C_31
   13  A    between atoms: C_25  and  C_44
   14  A    between atoms: C_29  and  C_40
   15  A    between atoms: C_31  and  C_54
   16  A    between atoms: C_34  and  C_46
   17  A    between atoms: C_38  and  C_52
   18  A    between atoms: C_42  and  C_56
   19  A    between atoms: N_49  and  C_53
   20  A    between atoms: C_51  and  C_53
                            x       y       z     vdW  Elec       q    Type
                         _______ _______ _______ _____ _____    ______ ____

>  <TORSDO>
F 20

$$$$
=
 OpenBabel11062417363D

 57 61  0  0  1  0  0  0  0  0999 V2000
  186.6890  177.8850  137.9830 C   0  0  0  0  0  3  0  0  0  0  0  0
  185.4860  177.9890  138.5560 C   0  0  0  0  0  0  0  0  0  0  0  0
  185.2610  178.6370  142.3670 C   0  0  0  0  0  0  0  0  0  0  0  0
  185.2690  178.7300  139.8240 C   0  0  0  0  0  0  0  0  0  0  0  0
  185.5130  178.0770  141.0750 N   0  0  0  0  0  2  0  0  0  0  0  0
  184.8690  179.9260  139.7970 O   0  0  0  0  0  0  0  0  0  0  0  0
  184.7440  179.7820  142.4860 O   0  0  0  0  0  0  0  0  0  0  0  0
  185.6000  177.8490  143.5540 C   0  0  0  0  0  3  0  0  0  0  0  0
  186.3680  178.3300  144.5230 C   0  0  0  0  0  3  0  0  0  0  0  0
  186.7030  177.5070  145.7230 C   0  0  0  0  0  2  0  0  0  0  0  0
  188.7190  177.1300  147.1690 C   0  0  0  0  0  3  0  0  0  0  0  0
  189.0290  177.4980  144.7950 C   0  0  0  0  0  3  0  0  0  0  0  0
  190.4120  177.3720  144.9560 C   0  0  0  0  0  3  0  0  0  0  0  0
  190.1020  177.0030  147.3300 C   0  0  0  0  0  3  0  0  0  0  0  0
  188.1800  177.3810  145.9000 C   0  0  0  0  0  0  0  0  0  0  0  0
  190.9480  177.1260  146.2240 C   0  0  0  0  0  3  0  0  0  0  0  0
  184.3760  177.3130  137.8670 C   0  0  0  0  0  3  0  0  0  0  0  0
  183.3170  176.8240  138.5020 C   0  0  0  0  0  3  0  0  0  0  0  0
  182.2310  176.1300  137.7510 C   0  0  2  0  0  3  0  0  0  0  0  0
  180.8900  176.7960  138.0290 C   0  0  0  0  0  2  0  0  0  0  0  0
  179.9550  175.8480  138.6190 N   0  0  0  0  0  2  0  0  0  0  0  0
  180.2940  177.3930  140.3170 O   0  0  0  0  0  1  0  0  0  0  0  0
  179.3740  176.4930  139.7820 C   0  0  2  0  0  3  0  0  0  0  0  0
  179.6810  174.1230  140.4800 C   0  0  0  0  0  1  0  0  0  0  0  0
  179.0160  175.4430  140.8160 C   0  0  0  0  0  2  0  0  0  0  0  0
  182.1760  174.7770  138.1070 O   0  0  0  0  0  0  0  0  0  0  0  0
  181.6440  173.1380  136.4260 C   0  0  0  0  0  2  0  0  0  0  0  0
  182.7070  174.0770  137.0170 C   0  0  0  0  0  3  0  0  0  0  0  0
  183.9880  173.3550  137.4570 C   0  0  0  0  0  2  0  0  0  0  0  0
  183.1950  171.1500  136.4930 C   0  0  0  0  0  2  0  0  0  0  0  0
  181.8230  171.7020  136.9070 C   0  0  0  0  0  2  0  0  0  0  0  0
  184.3160  172.2000  136.5150 C   0  0  0  0  0  2  0  0  0  0  0  0
  187.9660  178.4130  138.5630 C   0  0  0  0  0  2  0  0  0  0  0  0
  189.7450  176.7770  139.1710 C   0  0  0  0  0  3  0  0  0  0  0  0
  190.3330  176.3060  136.3450 C   0  0  1  0  0  3  0  0  0  0  0  0
  189.0780  177.5570  138.1700 N   0  0  0  0  0  0  0  0  0  0  0  0
  189.4600  177.4450  136.7890 C   0  0  0  0  0  0  0  0  0  0  0  0
  190.7880  176.0040  138.8660 C   0  0  0  0  0  3  0  0  0  0  0  0
  189.0430  178.2770  135.9410 O   0  0  0  0  0  0  0  0  0  0  0  0
  191.3280  175.9290  137.4620 C   0  0  2  0  0  3  0  0  0  0  0  0
  189.3510  172.5990  135.8550 C   0  0  0  0  0  2  0  0  0  0  0  0
  190.2470  173.7880  136.1830 C   0  0  0  0  0  2  0  0  0  0  0  0
  187.4240  174.0370  136.2270 N   0  0  0  0  0  2  0  0  0  0  0  0
  189.4810  175.0910  135.9510 C   0  0  1  0  0  3  0  0  0  0  0  0
  188.2500  175.0550  136.7430 N   0  0  0  0  0  2  0  0  0  0  0  0
  188.0190  172.7500  136.5760 C   0  0  0  0  0  2  0  0  0  0  0  0
  192.7760  176.4280  137.2930 C   0  0  1  0  0  3  0  0  0  0  0  0
  193.5440  176.1700  138.4560 O   0  0  0  0  0  0  0  0  0  0  0  0
  193.5070  174.0530  137.5250 O   0  0  0  0  0  1  0  0  0  0  0  0
  193.8450  175.3940  137.3270 C   0  0  1  0  0  0  0  0  0  0  0  0
  195.0590  176.5700  135.6430 O   0  0  0  0  0  1  0  0  0  0  0  0
  195.2090  175.7300  136.7450 C   0  0  2  0  0  3  0  0  0  0  0  0
  195.9430  174.4620  136.3350 C   0  0  0  0  0  2  0  0  0  0  0  0
  197.3680  174.5300  136.7620 C   0  0  0  0  0  0  0  0  0  0  0  0
  198.0650  175.5400  136.4760 O   0  0  0  0  0  0  0  0  0  0  0  0
  197.7370  172.2300  137.2150 O   0  0  0  0  0  0  0  0  0  0  0  0
  197.9400  173.4300  137.5410 C   0  0  0  0  0  3  0  0  0  0  0  0
  1  2  2  0  0  0  0
  1 33  1  0  0  0  0
  2  4  1  0  0  0  0
  3  7  2  0  0  0  0
  3  8  1  0  0  0  0
  4  5  1  0  0  0  0
  5  3  1  0  0  0  0
  6  4  2  0  0  0  0
  8  9  2  0  0  0  0
  9 10  1  0  0  0  0
 10 15  1  0  0  0  0
 11 14  1  0  0  0  0
 12 13  2  0  0  0  0
 12 15  1  0  0  0  0
 13 16  1  0  0  0  0
 15 11  2  0  0  0  0
 16 14  2  0  0  0  0
 17 18  2  0  0  0  0
 17  2  1  0  0  0  0
 19 20  1  1  0  0  0
 19 26  1  0  0  0  0
 19 18  1  0  0  0  0
 20 21  1  0  0  0  0
 21 23  1  0  0  0  0
 23 22  1  1  0  0  0
 23 25  1  0  0  0  0
 24 25  1  0  0  0  0
 27 31  1  0  0  0  0
 27 28  1  0  0  0  0
 28 29  1  0  0  0  0
 28 26  1  0  0  0  0
 30 32  1  0  0  0  0
 30 31  1  0  0  0  0
 32 29  1  0  0  0  0
 35 37  1  1  0  0  0
 35 40  1  0  0  0  0
 36 33  1  0  0  0  0
 36 34  1  0  0  0  0
 37 36  1  0  0  0  0
 38 34  2  0  0  0  0
 39 37  2  0  0  0  0
 40 38  1  1  0  0  0
 41 42  1  0  0  0  0
 41 46  1  0  0  0  0
 43 46  1  0  0  0  0
 43 45  1  0  0  0  0
 44 42  1  1  0  0  0
 44 35  1  0  0  0  0
 44 45  1  0  0  0  0
 47 50  1  0  0  0  0
 47 40  1  0  0  0  0
 47 48  1  1  0  0  0
 50 49  1  1  0  0  0
 50 48  1  0  0  0  0
 52 51  1  6  0  0  0
 52 50  1  0  0  0  0
 53 52  1  0  0  0  0
 53 54  1  0  0  0  0
 54 57  1  0  0  0  0
 55 54  2  0  0  0  0
 56 57  2  0  0  0  0
M  END
>  <MODEL>
6

>  <REMARK>
 VINA RESULT:      -7.5      3.090      7.708
  Name = 
  20 active torsions:
  status: ('A' for Active; 'I' for Inactive)
    1  A    between atoms: C_6  and  C_46
    2  A    between atoms: C_7  and  O_10
    3  A    between atoms: C_9  and  C_23
    4  A    between atoms: C_9  and  C_47
    5  A    between atoms: O_10  and  C_38
    6  A    between atoms: C_16  and  C_21
    7  A    between atoms: C_17  and  C_38
    8  A    between atoms: C_17  and  N_49
    9  A    between atoms: C_19  and  C_50
   10  A    between atoms: N_22  and  C_29
   11  A    between atoms: C_23  and  C_42
   12  A    between atoms: C_24  and  C_31
   13  A    between atoms: C_25  and  C_44
   14  A    between atoms: C_29  and  C_40
   15  A    between atoms: C_31  and  C_54
   16  A    between atoms: C_34  and  C_46
   17  A    between atoms: C_38  and  C_52
   18  A    between atoms: C_42  and  C_56
   19  A    between atoms: N_49  and  C_53
   20  A    between atoms: C_51  and  C_53
                            x       y       z     vdW  Elec       q    Type
                         _______ _______ _______ _____ _____    ______ ____

>  <TORSDO>
F 20

$$$$
=
 OpenBabel11062417363D

 57 61  0  0  1  0  0  0  0  0999 V2000
  191.0680  176.5060  139.8900 C   0  0  0  0  0  3  0  0  0  0  0  0
  190.2350  176.3730  138.8530 C   0  0  0  0  0  0  0  0  0  0  0  0
  186.9840  178.3950  138.2700 C   0  0  0  0  0  0  0  0  0  0  0  0
  189.3540  177.4750  138.3920 C   0  0  0  0  0  0  0  0  0  0  0  0
  187.9600  177.4510  138.7220 N   0  0  0  0  0  2  0  0  0  0  0  0
  189.8310  178.4250  137.7120 O   0  0  0  0  0  0  0  0  0  0  0  0
  187.3020  179.3270  137.4810 O   0  0  0  0  0  0  0  0  0  0  0  0
  185.6000  178.2490  138.7280 C   0  0  0  0  0  3  0  0  0  0  0  0
  184.6240  177.8810  137.9100 C   0  0  0  0  0  3  0  0  0  0  0  0
  183.2200  177.7420  138.3980 C   0  0  0  0  0  2  0  0  0  0  0  0
  181.5260  178.8140  136.8880 C   0  0  0  0  0  3  0  0  0  0  0  0
  182.4480  180.1020  138.7220 C   0  0  0  0  0  3  0  0  0  0  0  0
  181.6610  181.1960  138.3490 C   0  0  0  0  0  3  0  0  0  0  0  0
  180.7390  179.9090  136.5150 C   0  0  0  0  0  3  0  0  0  0  0  0
  182.3840  178.9110  137.9910 C   0  0  0  0  0  0  0  0  0  0  0  0
  180.8080  181.0990  137.2450 C   0  0  0  0  0  3  0  0  0  0  0  0
  190.2250  175.0600  138.1900 C   0  0  0  0  0  3  0  0  0  0  0  0
  190.4030  174.9050  136.8830 C   0  0  0  0  0  3  0  0  0  0  0  0
  190.3610  173.5470  136.2640 C   0  0  2  0  0  3  0  0  0  0  0  0
  191.7740  173.0040  136.0940 C   0  0  0  0  0  2  0  0  0  0  0  0
  192.6710  174.0410  135.6050 N   0  0  0  0  0  2  0  0  0  0  0  0
  193.9080  172.7710  137.1020 O   0  0  0  0  0  1  0  0  0  0  0  0
  194.0040  173.7010  136.0690 C   0  0  2  0  0  3  0  0  0  0  0  0
  193.7140  176.1000  136.6720 C   0  0  0  0  0  1  0  0  0  0  0  0
  194.7000  174.9540  136.5650 C   0  0  0  0  0  2  0  0  0  0  0  0
  189.7140  173.5940  135.0240 O   0  0  0  0  0  0  0  0  0  0  0  0
  187.4180  174.3200  134.9730 C   0  0  0  0  0  2  0  0  0  0  0  0
  188.4010  173.1750  135.2660 C   0  0  0  0  0  3  0  0  0  0  0  0
  188.3020  172.6340  136.6990 C   0  0  0  0  0  2  0  0  0  0  0  0
  186.2800  174.0750  137.2110 C   0  0  0  0  0  2  0  0  0  0  0  0
  186.9860  175.0400  136.2460 C   0  0  0  0  0  2  0  0  0  0  0  0
  186.8570  172.6510  137.1920 C   0  0  0  0  0  2  0  0  0  0  0  0
  191.1670  177.7200  140.7620 C   0  0  0  0  0  2  0  0  0  0  0  0
  189.4830  176.3990  142.0400 C   0  0  0  0  0  3  0  0  0  0  0  0
  189.8690  178.1020  144.3860 C   0  0  1  0  0  3  0  0  0  0  0  0
  190.3380  177.5470  141.9480 N   0  0  0  0  0  0  0  0  0  0  0  0
  190.4240  178.4760  143.0400 C   0  0  0  0  0  0  0  0  0  0  0  0
  188.6820  176.2130  143.0900 C   0  0  0  0  0  3  0  0  0  0  0  0
  190.9900  179.5910  142.8890 O   0  0  0  0  0  0  0  0  0  0  0  0
  188.6230  177.2090  144.2190 C   0  0  2  0  0  3  0  0  0  0  0  0
  191.5570  176.5660  147.5060 C   0  0  0  0  0  2  0  0  0  0  0  0
  190.5200  177.3440  146.7040 C   0  0  0  0  0  2  0  0  0  0  0  0
  192.2270  175.4670  145.4410 N   0  0  0  0  0  2  0  0  0  0  0  0
  190.9330  177.3900  145.2330 C   0  0  1  0  0  3  0  0  0  0  0  0
  191.1250  176.0180  144.7590 N   0  0  0  0  0  2  0  0  0  0  0  0
  191.8310  175.2310  146.8270 C   0  0  0  0  0  2  0  0  0  0  0  0
  187.2550  177.8890  144.4170 C   0  0  1  0  0  3  0  0  0  0  0  0
  186.3090  176.9840  144.9610 O   0  0  0  0  0  0  0  0  0  0  0  0
  187.5260  177.4790  146.8640 O   0  0  0  0  0  1  0  0  0  0  0  0
  186.7620  177.9990  145.8160 C   0  0  1  0  0  0  0  0  0  0  0  0
  185.7470  179.3820  147.4740 O   0  0  0  0  0  1  0  0  0  0  0  0
  185.6740  179.0130  146.1320 C   0  0  2  0  0  3  0  0  0  0  0  0
  184.2990  178.4340  145.8290 C   0  0  0  0  0  2  0  0  0  0  0  0
  183.7350  179.0640  144.6020 C   0  0  0  0  0  0  0  0  0  0  0  0
  184.3910  179.9470  143.9870 O   0  0  0  0  0  0  0  0  0  0  0  0
  181.7840  179.3260  143.2770 O   0  0  0  0  0  0  0  0  0  0  0  0
  182.4300  178.6270  144.1030 C   0  0  0  0  0  3  0  0  0  0  0  0
  1 33  1  0  0  0  0
  2  1  2  0  0  0  0
  3  5  1  0  0  0  0
  3  8  1  0  0  0  0
  4  5  1  0  0  0  0
  4  2  1  0  0  0  0
  6  4  2  0  0  0  0
  7  3  2  0  0  0  0
  9 10  1  0  0  0  0
  9  8  2  0  0  0  0
 11 15  1  0  0  0  0
 13 12  1  0  0  0  0
 14 11  2  0  0  0  0
 14 16  1  0  0  0  0
 15 10  1  0  0  0  0
 15 12  2  0  0  0  0
 16 13  2  0  0  0  0
 17  2  1  0  0  0  0
 18 17  2  0  0  0  0
 19 20  1  6  0  0  0
 19 18  1  0  0  0  0
 21 23  1  0  0  0  0
 21 20  1  0  0  0  0
 23 25  1  0  0  0  0
 23 22  1  1  0  0  0
 25 24  1  0  0  0  0
 26 28  1  0  0  0  0
 26 19  1  0  0  0  0
 27 28  1  0  0  0  0
 27 31  1  0  0  0  0
 28 29  1  0  0  0  0
 29 32  1  0  0  0  0
 31 30  1  0  0  0  0
 32 30  1  0  0  0  0
 33 36  1  0  0  0  0
 34 38  2  0  0  0  0
 35 37  1  6  0  0  0
 35 44  1  0  0  0  0
 36 34  1  0  0  0  0
 36 37  1  0  0  0  0
 39 37  2  0  0  0  0
 40 38  1  6  0  0  0
 40 35  1  0  0  0  0
 40 47  1  0  0  0  0
 42 41  1  0  0  0  0
 43 46  1  0  0  0  0
 44 42  1  1  0  0  0
 45 44  1  0  0  0  0
 45 43  1  0  0  0  0
 46 41  1  0  0  0  0
 47 48  1  6  0  0  0
 47 50  1  0  0  0  0
 48 50  1  0  0  0  0
 50 52  1  0  0  0  0
 50 49  1  1  0  0  0
 52 51  1  1  0  0  0
 53 52  1  0  0  0  0
 54 53  1  0  0  0  0
 55 54  2  0  0  0  0
 56 57  2  0  0  0  0
 57 54  1  0  0  0  0
M  END
>  <MODEL>
7

>  <REMARK>
 VINA RESULT:      -7.3      2.012      9.544
  Name = 
  20 active torsions:
  status: ('A' for Active; 'I' for Inactive)
    1  A    between atoms: C_6  and  C_46
    2  A    between atoms: C_7  and  O_10
    3  A    between atoms: C_9  and  C_23
    4  A    between atoms: C_9  and  C_47
    5  A    between atoms: O_10  and  C_38
    6  A    between atoms: C_16  and  C_21
    7  A    between atoms: C_17  and  C_38
    8  A    between atoms: C_17  and  N_49
    9  A    between atoms: C_19  and  C_50
   10  A    between atoms: N_22  and  C_29
   11  A    between atoms: C_23  and  C_42
   12  A    between atoms: C_24  and  C_31
   13  A    between atoms: C_25  and  C_44
   14  A    between atoms: C_29  and  C_40
   15  A    between atoms: C_31  and  C_54
   16  A    between atoms: C_34  and  C_46
   17  A    between atoms: C_38  and  C_52
   18  A    between atoms: C_42  and  C_56
   19  A    between atoms: N_49  and  C_53
   20  A    between atoms: C_51  and  C_53
                            x       y       z     vdW  Elec       q    Type
                         _______ _______ _______ _____ _____    ______ ____

>  <TORSDO>
F 20

$$$$
=
 OpenBabel11062417363D

 57 61  0  0  1  0  0  0  0  0999 V2000
  191.4060  176.6660  140.2050 C   0  0  0  0  0  3  0  0  0  0  0  0
  190.6800  176.5330  139.0910 C   0  0  0  0  0  0  0  0  0  0  0  0
  187.3080  178.3140  138.4160 C   0  0  0  0  0  0  0  0  0  0  0  0
  189.7360  177.5790  138.6250 C   0  0  0  0  0  0  0  0  0  0  0  0
  188.3350  177.4330  138.8830 N   0  0  0  0  0  2  0  0  0  0  0  0
  190.1670  178.5880  138.0020 O   0  0  0  0  0  0  0  0  0  0  0  0
  187.5870  179.2970  137.6760 O   0  0  0  0  0  0  0  0  0  0  0  0
  185.9210  178.0430  138.7990 C   0  0  0  0  0  3  0  0  0  0  0  0
  184.9840  177.7680  137.9000 C   0  0  0  0  0  3  0  0  0  0  0  0
  183.5750  177.4980  138.3130 C   0  0  0  0  0  2  0  0  0  0  0  0
  181.8210  178.5620  136.8690 C   0  0  0  0  0  3  0  0  0  0  0  0
  182.6870  179.7940  138.7660 C   0  0  0  0  0  3  0  0  0  0  0  0
  181.8430  180.8660  138.4550 C   0  0  0  0  0  3  0  0  0  0  0  0
  180.9780  179.6340  136.5580 C   0  0  0  0  0  3  0  0  0  0  0  0
  182.6790  178.6430  137.9730 C   0  0  0  0  0  0  0  0  0  0  0  0
  180.9900  180.7850  137.3500 C   0  0  0  0  0  3  0  0  0  0  0  0
  190.8550  175.2760  138.3460 C   0  0  0  0  0  3  0  0  0  0  0  0
  191.3470  175.2250  137.1140 C   0  0  0  0  0  3  0  0  0  0  0  0
  191.4820  173.9210  136.4000 C   0  0  2  0  0  3  0  0  0  0  0  0
  190.1080  173.3150  136.1470 C   0  0  0  0  0  2  0  0  0  0  0  0
  189.4250  174.0160  135.0690 N   0  0  0  0  0  2  0  0  0  0  0  0
  187.9880  175.6810  135.8080 O   0  0  0  0  0  1  0  0  0  0  0  0
  188.0850  174.3170  135.5410 C   0  0  2  0  0  3  0  0  0  0  0  0
  186.3460  173.6620  137.1990 C   0  0  0  0  0  1  0  0  0  0  0  0
  187.8030  173.5210  136.8010 C   0  0  0  0  0  2  0  0  0  0  0  0
  192.2660  173.0330  137.1480 O   0  0  0  0  0  0  0  0  0  0  0  0
  194.1290  171.8170  136.2270 C   0  0  0  0  0  2  0  0  0  0  0  0
  193.5700  173.1810  136.6630 C   0  0  0  0  0  3  0  0  0  0  0  0
  194.4260  173.8840  137.7260 C   0  0  0  0  0  2  0  0  0  0  0  0
  196.2380  172.1170  137.5780 C   0  0  0  0  0  2  0  0  0  0  0  0
  195.0350  171.2060  137.2920 C   0  0  0  0  0  2  0  0  0  0  0  0
  195.9110  173.6160  137.4960 C   0  0  0  0  0  2  0  0  0  0  0  0
  191.3110  177.8170  141.1590 C   0  0  0  0  0  2  0  0  0  0  0  0
  189.2500  176.6020  141.8580 C   0  0  0  0  0  3  0  0  0  0  0  0
  189.5230  177.6260  144.5840 C   0  0  1  0  0  3  0  0  0  0  0  0
  190.2840  177.5490  142.1570 N   0  0  0  0  0  0  0  0  0  0  0  0
  190.3420  178.1750  143.4500 C   0  0  0  0  0  0  0  0  0  0  0  0
  188.2710  176.3470  142.7260 C   0  0  0  0  0  3  0  0  0  0  0  0
  191.0990  179.1610  143.6490 O   0  0  0  0  0  0  0  0  0  0  0  0
  188.1920  177.0560  144.0530 C   0  0  2  0  0  3  0  0  0  0  0  0
  192.4380  175.2550  145.4960 C   0  0  0  0  0  2  0  0  0  0  0  0
  191.6530  176.2740  144.6770 C   0  0  0  0  0  2  0  0  0  0  0  0
  191.1030  175.8870  147.4290 N   0  0  0  0  0  2  0  0  0  0  0  0
  190.3050  176.5470  145.3450 C   0  0  1  0  0  3  0  0  0  0  0  0
  190.5470  176.9720  146.7250 N   0  0  0  0  0  2  0  0  0  0  0  0
  192.4700  175.6890  146.9550 C   0  0  0  0  0  2  0  0  0  0  0  0
  186.9390  177.9300  144.2510 C   0  0  1  0  0  3  0  0  0  0  0  0
  185.8060  177.1360  144.5600 O   0  0  0  0  0  0  0  0  0  0  0  0
  186.8770  177.1160  146.6100 O   0  0  0  0  0  1  0  0  0  0  0  0
  186.3240  177.9150  145.6060 C   0  0  1  0  0  0  0  0  0  0  0  0
  185.5900  179.3860  147.3350 O   0  0  0  0  0  1  0  0  0  0  0  0
  185.3870  179.0460  145.9980 C   0  0  2  0  0  3  0  0  0  0  0  0
  183.9370  178.6400  145.7800 C   0  0  0  0  0  2  0  0  0  0  0  0
  183.4280  179.2100  144.5010 C   0  0  0  0  0  0  0  0  0  0  0  0
  184.0450  180.1570  143.9440 O   0  0  0  0  0  0  0  0  0  0  0  0
  181.3800  179.3800  143.3160 O   0  0  0  0  0  0  0  0  0  0  0  0
  182.2270  178.6430  143.8860 C   0  0  0  0  0  3  0  0  0  0  0  0
  1 33  1  0  0  0  0
  2  1  2  0  0  0  0
  3  8  1  0  0  0  0
  3  5  1  0  0  0  0
  4  5  1  0  0  0  0
  4  2  1  0  0  0  0
  6  4  2  0  0  0  0
  7  3  2  0  0  0  0
  9 10  1  0  0  0  0
  9  8  2  0  0  0  0
 11 15  1  0  0  0  0
 13 12  1  0  0  0  0
 14 11  2  0  0  0  0
 14 16  1  0  0  0  0
 15 10  1  0  0  0  0
 15 12  2  0  0  0  0
 16 13  2  0  0  0  0
 17  2  1  0  0  0  0
 18 17  2  0  0  0  0
 19 20  1  1  0  0  0
 19 18  1  0  0  0  0
 19 26  1  0  0  0  0
 21 23  1  0  0  0  0
 21 20  1  0  0  0  0
 23 22  1  1  0  0  0
 23 25  1  0  0  0  0
 25 24  1  0  0  0  0
 27 28  1  0  0  0  0
 27 31  1  0  0  0  0
 28 26  1  0  0  0  0
 28 29  1  0  0  0  0
 31 30  1  0  0  0  0
 32 30  1  0  0  0  0
 32 29  1  0  0  0  0
 33 36  1  0  0  0  0
 34 36  1  0  0  0  0
 34 38  2  0  0  0  0
 35 37  1  6  0  0  0
 35 44  1  0  0  0  0
 36 37  1  0  0  0  0
 37 39  2  0  0  0  0
 40 38  1  6  0  0  0
 40 47  1  0  0  0  0
 40 35  1  0  0  0  0
 41 46  1  0  0  0  0
 42 41  1  0  0  0  0
 44 42  1  6  0  0  0
 44 45  1  0  0  0  0
 45 43  1  0  0  0  0
 46 43  1  0  0  0  0
 47 48  1  6  0  0  0
 47 50  1  0  0  0  0
 48 50  1  0  0  0  0
 50 52  1  0  0  0  0
 50 49  1  1  0  0  0
 52 51  1  1  0  0  0
 53 52  1  0  0  0  0
 54 53  1  0  0  0  0
 55 54  2  0  0  0  0
 56 57  2  0  0  0  0
 57 54  1  0  0  0  0
M  END
>  <MODEL>
8

>  <REMARK>
 VINA RESULT:      -7.0      2.057     10.182
  Name = 
  20 active torsions:
  status: ('A' for Active; 'I' for Inactive)
    1  A    between atoms: C_6  and  C_46
    2  A    between atoms: C_7  and  O_10
    3  A    between atoms: C_9  and  C_23
    4  A    between atoms: C_9  and  C_47
    5  A    between atoms: O_10  and  C_38
    6  A    between atoms: C_16  and  C_21
    7  A    between atoms: C_17  and  C_38
    8  A    between atoms: C_17  and  N_49
    9  A    between atoms: C_19  and  C_50
   10  A    between atoms: N_22  and  C_29
   11  A    between atoms: C_23  and  C_42
   12  A    between atoms: C_24  and  C_31
   13  A    between atoms: C_25  and  C_44
   14  A    between atoms: C_29  and  C_40
   15  A    between atoms: C_31  and  C_54
   16  A    between atoms: C_34  and  C_46
   17  A    between atoms: C_38  and  C_52
   18  A    between atoms: C_42  and  C_56
   19  A    between atoms: N_49  and  C_53
   20  A    between atoms: C_51  and  C_53
                            x       y       z     vdW  Elec       q    Type
                         _______ _______ _______ _____ _____    ______ ____

>  <TORSDO>
F 20

$$$$
=
 OpenBabel11062417363D

 57 61  0  0  1  0  0  0  0  0999 V2000
  185.2330  178.8020  140.7420 C   0  0  0  0  0  3  0  0  0  0  0  0
  186.5410  178.6220  140.9520 C   0  0  0  0  0  0  0  0  0  0  0  0
  188.0100  177.4330  137.5710 C   0  0  0  0  0  0  0  0  0  0  0  0
  187.5130  178.4750  139.8400 C   0  0  0  0  0  0  0  0  0  0  0  0
  187.1460  177.7300  138.6730 N   0  0  0  0  0  2  0  0  0  0  0  0
  188.6570  179.0020  139.9260 O   0  0  0  0  0  0  0  0  0  0  0  0
  189.2190  177.7930  137.5830 O   0  0  0  0  0  0  0  0  0  0  0  0
  187.4680  176.6870  136.4340 C   0  0  0  0  0  3  0  0  0  0  0  0
  186.4260  175.8750  136.5570 C   0  0  0  0  0  3  0  0  0  0  0  0
  185.8920  175.1210  135.3840 C   0  0  0  0  0  2  0  0  0  0  0  0
  184.6720  172.9920  134.8580 C   0  0  0  0  0  3  0  0  0  0  0  0
  184.9820  173.6270  137.1760 C   0  0  0  0  0  3  0  0  0  0  0  0
  184.3070  172.4720  137.5820 C   0  0  0  0  0  3  0  0  0  0  0  0
  183.9970  171.8370  135.2650 C   0  0  0  0  0  3  0  0  0  0  0  0
  185.1630  173.8910  135.8140 C   0  0  0  0  0  0  0  0  0  0  0  0
  183.8140  171.5790  136.6260 C   0  0  0  0  0  3  0  0  0  0  0  0
  186.9720  178.5620  142.3570 C   0  0  0  0  0  3  0  0  0  0  0  0
  187.4850  177.4700  142.9130 C   0  0  0  0  0  3  0  0  0  0  0  0
  187.8860  177.4640  144.3500 C   0  0  2  0  0  3  0  0  0  0  0  0
  186.6550  177.3510  145.2400 C   0  0  0  0  0  2  0  0  0  0  0  0
  186.7670  178.2330  146.3920 N   0  0  0  0  0  2  0  0  0  0  0  0
  184.5560  178.2520  147.0950 O   0  0  0  0  0  1  0  0  0  0  0  0
  185.5390  179.0050  146.4560 C   0  0  2  0  0  3  0  0  0  0  0  0
  183.6280  179.0040  144.8600 C   0  0  0  0  0  1  0  0  0  0  0  0
  185.0900  179.3570  145.0510 C   0  0  0  0  0  2  0  0  0  0  0  0
  188.5980  178.6280  144.6650 O   0  0  0  0  0  0  0  0  0  0  0  0
  190.7540  178.7080  143.5950 C   0  0  0  0  0  2  0  0  0  0  0  0
  189.9330  178.2280  144.8020 C   0  0  0  0  0  3  0  0  0  0  0  0
  189.9850  176.7090  145.0160 C   0  0  0  0  0  2  0  0  0  0  0  0
  191.7130  176.4110  143.1860 C   0  0  0  0  0  2  0  0  0  0  0  0
  190.9580  177.5980  142.5680 C   0  0  0  0  0  2  0  0  0  0  0  0
  191.3600  176.1540  144.6590 C   0  0  0  0  0  2  0  0  0  0  0  0
  184.5700  178.7980  139.3980 C   0  0  0  0  0  2  0  0  0  0  0  0
  183.1300  176.7870  139.7040 C   0  0  0  0  0  3  0  0  0  0  0  0
  180.7550  178.4760  139.9490 C   0  0  1  0  0  3  0  0  0  0  0  0
  183.2440  178.2020  139.5030 N   0  0  0  0  0  0  0  0  0  0  0  0
  182.0690  179.0280  139.4720 C   0  0  0  0  0  0  0  0  0  0  0  0
  181.9390  176.1910  139.7740 C   0  0  0  0  0  3  0  0  0  0  0  0
  182.1360  180.2220  139.0780 O   0  0  0  0  0  0  0  0  0  0  0  0
  180.6590  176.9720  139.6250 C   0  0  2  0  0  3  0  0  0  0  0  0
  179.7680  180.2810  143.2230 C   0  0  0  0  0  2  0  0  0  0  0  0
  180.0000  180.1020  141.7260 C   0  0  0  0  0  2  0  0  0  0  0  0
  179.6940  177.8580  143.4290 N   0  0  0  0  0  2  0  0  0  0  0  0
  180.5810  178.7140  141.4550 C   0  0  1  0  0  3  0  0  0  0  0  0
  179.6810  177.7110  142.0280 N   0  0  0  0  0  2  0  0  0  0  0  0
  178.9870  179.0910  143.7640 C   0  0  0  0  0  2  0  0  0  0  0  0
  179.7950  176.5810  138.4100 C   0  0  1  0  0  3  0  0  0  0  0  0
  179.5270  177.7070  137.5920 O   0  0  0  0  0  0  0  0  0  0  0  0
  181.7100  177.2710  136.9640 O   0  0  0  0  0  1  0  0  0  0  0  0
  180.4150  176.7560  137.0690 C   0  0  1  0  0  0  0  0  0  0  0  0
  178.9680  176.8470  135.1740 O   0  0  0  0  0  1  0  0  0  0  0  0
  179.8230  176.0070  135.8850 C   0  0  2  0  0  3  0  0  0  0  0  0
  179.0650  174.7740  136.3570 C   0  0  0  0  0  2  0  0  0  0  0  0
  179.9680  173.5880  136.3700 C   0  0  0  0  0  0  0  0  0  0  0  0
  180.9290  173.5180  135.5580 O   0  0  0  0  0  0  0  0  0  0  0  0
  180.4760  171.4980  137.3710 O   0  0  0  0  0  0  0  0  0  0  0  0
  179.7460  172.5250  137.3510 C   0  0  0  0  0  3  0  0  0  0  0  0
  1  2  2  0  0  0  0
  2 17  1  0  0  0  0
  3  7  2  0  0  0  0
  3  5  1  0  0  0  0
  4  6  2  0  0  0  0
  4  2  1  0  0  0  0
  5  4  1  0  0  0  0
  8  9  2  0  0  0  0
  8  3  1  0  0  0  0
 10 15  1  0  0  0  0
 10  9  1  0  0  0  0
 11 14  2  0  0  0  0
 11 15  1  0  0  0  0
 12 13  1  0  0  0  0
 14 16  1  0  0  0  0
 15 12  2  0  0  0  0
 16 13  2  0  0  0  0
 17 18  2  0  0  0  0
 19 18  1  6  0  0  0
 19 26  1  0  0  0  0
 19 20  1  0  0  0  0
 20 21  1  0  0  0  0
 21 23  1  0  0  0  0
 23 22  1  6  0  0  0
 24 25  1  0  0  0  0
 25 23  1  0  0  0  0
 26 28  1  0  0  0  0
 27 28  1  0  0  0  0
 28 29  1  0  0  0  0
 30 32  1  0  0  0  0
 31 30  1  0  0  0  0
 31 27  1  0  0  0  0
 32 29  1  0  0  0  0
 33 36  1  0  0  0  0
 33  1  1  0  0  0  0
 34 38  2  0  0  0  0
 35 37  1  1  0  0  0
 35 44  1  0  0  0  0
 36 34  1  0  0  0  0
 37 36  1  0  0  0  0
 39 37  2  0  0  0  0
 40 38  1  6  0  0  0
 40 35  1  0  0  0  0
 41 46  1  0  0  0  0
 42 41  1  0  0  0  0
 43 46  1  0  0  0  0
 44 42  1  6  0  0  0
 44 45  1  0  0  0  0
 45 43  1  0  0  0  0
 47 48  1  6  0  0  0
 47 40  1  0  0  0  0
 50 49  1  6  0  0  0
 50 48  1  0  0  0  0
 50 47  1  0  0  0  0
 52 51  1  1  0  0  0
 52 53  1  0  0  0  0
 52 50  1  0  0  0  0
 53 54  1  0  0  0  0
 54 57  1  0  0  0  0
 55 54  2  0  0  0  0
 57 56  2  0  0  0  0
M  END
>  <MODEL>
9

>  <REMARK>
 VINA RESULT:      -6.8      4.449      9.900
  Name = 
  20 active torsions:
  status: ('A' for Active; 'I' for Inactive)
    1  A    between atoms: C_6  and  C_46
    2  A    between atoms: C_7  and  O_10
    3  A    between atoms: C_9  and  C_23
    4  A    between atoms: C_9  and  C_47
    5  A    between atoms: O_10  and  C_38
    6  A    between atoms: C_16  and  C_21
    7  A    between atoms: C_17  and  C_38
    8  A    between atoms: C_17  and  N_49
    9  A    between atoms: C_19  and  C_50
   10  A    between atoms: N_22  and  C_29
   11  A    between atoms: C_23  and  C_42
   12  A    between atoms: C_24  and  C_31
   13  A    between atoms: C_25  and  C_44
   14  A    between atoms: C_29  and  C_40
   15  A    between atoms: C_31  and  C_54
   16  A    between atoms: C_34  and  C_46
   17  A    between atoms: C_38  and  C_52
   18  A    between atoms: C_42  and  C_56
   19  A    between atoms: N_49  and  C_53
   20  A    between atoms: C_51  and  C_53
                            x       y       z     vdW  Elec       q    Type
                         _______ _______ _______ _____ _____    ______ ____

>  <TORSDO>
F 20

$$$$
