=
 OpenBabel11062412473D

 54 56  0  0  1  0  0  0  0  0999 V2000
  188.6220  177.3710  141.5970 C   0  0  1  0  0  3  0  0  0  0  0  0
  188.3780  178.2960  140.4140 C   0  0  0  0  0  2  0  0  0  0  0  0
  187.6040  177.6380  139.4600 O   0  0  0  0  0  0  0  0  0  0  0  0
  187.9920  178.1860  138.2360 C   0  0  0  0  0  2  0  0  0  0  0  0
  183.3150  176.6220  136.7530 C   0  0  0  0  0  3  0  0  0  0  0  0
  185.6290  177.5660  137.5490 C   0  0  1  0  0  3  0  0  0  0  0  0
  187.2110  178.5360  136.0010 O   0  0  0  0  0  1  0  0  0  0  0  0
  185.0260  178.9130  137.8570 C   0  0  0  0  0  3  0  0  0  0  0  0
  184.8060  176.7700  136.5000 C   0  0  1  0  0  3  0  0  0  0  0  0
  187.7440  175.4470  137.7640 F   0  0  0  0  0  0  0  0  0  0  0  0
  183.1800  177.7600  138.9930 C   0  0  2  0  0  3  0  0  0  0  0  0
  183.8880  179.0040  138.5470 C   0  0  0  0  0  3  0  0  0  0  0  0
  182.6040  177.0370  137.8170 C   0  0  0  0  0  3  0  0  0  0  0  0
  185.3610  175.4910  136.3250 O   0  0  0  0  0  0  0  0  0  0  0  0
  186.6040  175.6630  135.6910 C   0  0  0  0  0  2  0  0  0  0  0  0
  187.1050  177.6720  137.0980 C   0  0  1  0  0  0  0  0  0  0  0  0
  187.6040  176.2830  136.6690 C   0  0  1  0  0  3  0  0  0  0  0  0
  181.6420  177.0950  140.6790 O   0  0  0  0  0  0  0  0  0  0  0  0
  182.1270  178.0500  140.0120 C   0  0  0  0  0  0  0  0  0  0  0  0
  181.6480  179.3810  140.2140 N   0  0  0  0  0  2  0  0  0  0  0  0
  180.7590  179.6720  141.2550 N   0  0  0  0  0  1  0  0  0  0  0  0
  190.1100  177.0350  141.7740 C   0  0  1  0  0  3  0  0  0  0  0  0
  190.8620  176.9730  140.4780 C   0  0  0  0  0  0  0  0  0  0  0  0
  191.8050  177.7790  140.2420 O   0  0  0  0  0  0  0  0  0  0  0  0
  190.4890  176.0170  139.5330 O   0  0  0  0  0  0  0  0  0  0  0  0
  190.9090  176.0620  138.1730 C   0  0  0  0  0  2  0  0  0  0  0  0
  191.8550  174.9130  137.8550 C   0  0  0  0  0  2  0  0  0  0  0  0
  191.7960  174.5650  136.4400 N   0  0  0  0  0  2  0  0  0  0  0  0
  192.8970  175.7710  134.6320 C   0  0  0  0  0  1  0  0  0  0  0  0
  193.0880  174.8550  135.8290 C   0  0  1  0  0  3  0  0  0  0  0  0
  194.4200  176.7660  136.4460 O   0  0  0  0  0  1  0  0  0  0  0  0
  194.0950  175.4580  136.8260 C   0  0  2  0  0  3  0  0  0  0  0  0
  196.5060  175.3690  136.8440 O   0  0  0  0  0  1  0  0  0  0  0  0
  195.4170  174.2000  138.5950 C   0  0  0  0  0  1  0  0  0  0  0  0
  195.3620  174.6210  137.1310 C   0  0  1  0  0  0  0  0  0  0  0  0
  195.3960  173.3750  136.2460 C   0  0  0  0  0  2  0  0  0  0  0  0
  196.7060  173.0140  135.9110 O   0  0  0  0  0  1  0  0  0  0  0  0
  190.8010  177.9470  142.7870 C   0  0  0  0  0  2  0  0  0  0  0  0
  191.6520  175.8650  143.7850 C   0  0  0  0  0  2  0  0  0  0  0  0
  191.4090  177.1670  143.9090 C   0  0  0  0  0  3  0  0  0  0  0  0
  187.9810  177.9220  142.8650 C   0  0  0  0  0  2  0  0  0  0  0  0
  187.5630  176.7760  143.7700 C   0  0  0  0  0  2  0  0  0  0  0  0
  186.9670  177.3090  145.0730 C   0  0  1  0  0  3  0  0  0  0  0  0
  188.0710  177.5710  146.1100 C   0  0  2  0  0  3  0  0  0  0  0  0
  189.1660  176.7270  145.8980 O   0  0  0  0  0  1  0  0  0  0  0  0
  187.5620  177.3540  147.5310 C   0  0  0  0  0  2  0  0  0  0  0  0
  189.1580  178.3770  148.6570 C   0  0  0  0  0  1  0  0  0  0  0  0
  187.8120  178.4870  148.3050 O   0  0  0  0  0  0  0  0  0  0  0  0
  186.2230  178.6060  144.7730 C   0  0  0  0  0  2  0  0  0  0  0  0
  184.8270  178.6120  145.3730 C   0  0  1  0  0  3  0  0  0  0  0  0
  184.9030  179.1030  146.6800 O   0  0  0  0  0  1  0  0  0  0  0  0
  183.8700  179.4240  144.4860 C   0  0  0  0  0  3  0  0  0  0  0  0
  182.5680  178.7050  144.1580 C   0  0  0  0  0  2  0  0  0  0  0  0
  183.6950  178.7360  143.1450 C   0  0  0  0  0  2  0  0  0  0  0  0
  1  2  1  6  0  0  0
  1 22  1  0  0  0  0
  1 41  1  0  0  0  0
  3  2  1  0  0  0  0
  4  3  1  0  0  0  0
  5 13  2  0  0  0  0
  6  8  1  6  0  0  0
  8 12  2  0  0  0  0
  9  5  1  1  0  0  0
  9  6  1  0  0  0  0
 11 19  1  1  0  0  0
 12 11  1  0  0  0  0
 13 11  1  0  0  0  0
 14  9  1  0  0  0  0
 15 14  1  0  0  0  0
 15 17  1  0  0  0  0
 16  7  1  6  0  0  0
 16  6  1  0  0  0  0
 16  4  1  0  0  0  0
 17 16  1  0  0  0  0
 17 10  1  1  0  0  0
 19 20  1  0  0  0  0
 19 18  2  0  0  0  0
 20 21  1  0  0  0  0
 22 38  1  1  0  0  0
 23 22  1  0  0  0  0
 24 23  2  0  0  0  0
 25 23  1  0  0  0  0
 26 25  1  0  0  0  0
 27 26  1  0  0  0  0
 28 27  1  0  0  0  0
 30 29  1  6  0  0  0
 30 28  1  0  0  0  0
 30 32  1  0  0  0  0
 32 31  1  6  0  0  0
 32 35  1  0  0  0  0
 33 35  1  0  0  0  0
 35 34  1  1  0  0  0
 36 35  1  0  0  0  0
 37 36  1  0  0  0  0
 38 40  1  0  0  0  0
 39 40  2  0  0  0  0
 41 42  1  0  0  0  0
 43 42  1  6  0  0  0
 43 44  1  0  0  0  0
 44 45  1  6  0  0  0
 44 46  1  0  0  0  0
 46 48  1  0  0  0  0
 48 47  1  0  0  0  0
 49 43  1  0  0  0  0
 49 50  1  0  0  0  0
 50 51  1  1  0  0  0
 52 50  1  0  0  0  0
 53 52  1  0  0  0  0
 54 53  1  0  0  0  0
 54 52  1  0  0  0  0
M  END
>  <MODEL>
1

>  <REMARK>
 VINA RESULT:      -6.7      0.000      0.000
  Name = 
  26 active torsions:
  status: ('A' for Active; 'I' for Inactive)
    1  A    between atoms: C_2  and  C_6
    2  A    between atoms: C_2  and  O_21
    3  A    between atoms: C_6  and  C_23
    4  A    between atoms: C_6  and  C_45
    5  A    between atoms: C_7  and  O_37
    6  A    between atoms: C_7  and  C_45
    7  A    between atoms: C_8  and  C_29
    8  A    between atoms: C_8  and  O_43
    9  A    between atoms: C_14  and  C_28
   10  A    between atoms: C_14  and  C_40
   11  A    between atoms: C_15  and  O_37
   12  A    between atoms: C_15  and  C_47
   13  A    between atoms: C_16  and  C_32
   14  A    between atoms: C_19  and  C_29
   15  A    between atoms: C_19  and  C_41
   16  A    between atoms: C_19  and  C_50
   17  A    between atoms: O_21  and  C_35
   18  A    between atoms: C_22  and  C_40
   19  A    between atoms: C_23  and  C_52
   20  A    between atoms: C_25  and  C_30
   21  A    between atoms: C_26  and  C_41
   22  A    between atoms: C_26  and  C_45
   23  A    between atoms: C_28  and  N_38
   24  A    between atoms: C_32  and  C_50
   25  A    between atoms: C_34  and  C_35
   26  A    between atoms: C_34  and  N_38
                            x       y       z     vdW  Elec       q    Type
                         _______ _______ _______ _____ _____    ______ ____

>  <TORSDO>
F 26

$$$$
=
 OpenBabel11062412473D

 54 56  0  0  1  0  0  0  0  0999 V2000
  188.4680  177.2760  142.1050 C   0  0  1  0  0  3  0  0  0  0  0  0
  188.2090  178.3890  141.1020 C   0  0  0  0  0  2  0  0  0  0  0  0
  187.7820  177.8390  139.8950 O   0  0  0  0  0  0  0  0  0  0  0  0
  188.5070  178.5130  138.9110 C   0  0  0  0  0  2  0  0  0  0  0  0
  184.6020  176.6600  136.1130 C   0  0  0  0  0  3  0  0  0  0  0  0
  186.4850  177.7160  137.6010 C   0  0  1  0  0  3  0  0  0  0  0  0
  188.0080  179.3820  136.7380 O   0  0  0  0  0  1  0  0  0  0  0  0
  185.5440  178.7730  138.1230 C   0  0  0  0  0  3  0  0  0  0  0  0
  186.0360  177.1450  136.2290 C   0  0  1  0  0  3  0  0  0  0  0  0
  188.9810  176.0520  137.6830 F   0  0  0  0  0  0  0  0  0  0  0  0
  183.8720  177.0140  138.4950 C   0  0  2  0  0  3  0  0  0  0  0  0
  184.3270  178.4410  138.5560 C   0  0  0  0  0  3  0  0  0  0  0  0
  183.6620  176.5940  137.0740 C   0  0  0  0  0  3  0  0  0  0  0  0
  186.8950  176.1020  135.8400 O   0  0  0  0  0  0  0  0  0  0  0  0
  188.1430  176.6820  135.5510 C   0  0  0  0  0  2  0  0  0  0  0  0
  187.9450  178.2200  137.5160 C   0  0  1  0  0  0  0  0  0  0  0  0
  188.8140  177.1430  136.8480 C   0  0  1  0  0  3  0  0  0  0  0  0
  182.2130  177.7120  140.0470 O   0  0  0  0  0  0  0  0  0  0  0  0
  182.6400  176.7830  139.3080 C   0  0  0  0  0  0  0  0  0  0  0  0
  181.9660  175.5240  139.2770 N   0  0  0  0  0  2  0  0  0  0  0  0
  180.7420  175.3500  139.9350 N   0  0  0  0  0  1  0  0  0  0  0  0
  189.9530  177.1670  142.4820 C   0  0  1  0  0  3  0  0  0  0  0  0
  190.8210  176.7170  141.3460 C   0  0  0  0  0  0  0  0  0  0  0  0
  190.3720  175.9300  140.4650 O   0  0  0  0  0  0  0  0  0  0  0  0
  192.1380  177.1720  141.2890 O   0  0  0  0  0  0  0  0  0  0  0  0
  192.7160  177.7370  140.1170 C   0  0  0  0  0  2  0  0  0  0  0  0
  192.4640  176.8540  138.9030 C   0  0  0  0  0  2  0  0  0  0  0  0
  193.7150  176.5120  138.2370 N   0  0  0  0  0  2  0  0  0  0  0  0
  192.2310  174.7120  137.5340 C   0  0  0  0  0  1  0  0  0  0  0  0
  193.6660  175.1120  137.8320 C   0  0  1  0  0  3  0  0  0  0  0  0
  193.8070  174.4580  135.5170 O   0  0  0  0  0  1  0  0  0  0  0  0
  194.5810  174.8080  136.6310 C   0  0  2  0  0  3  0  0  0  0  0  0
  196.4300  173.5870  135.6760 O   0  0  0  0  0  1  0  0  0  0  0  0
  196.7120  174.3020  137.9190 C   0  0  0  0  0  1  0  0  0  0  0  0
  195.7310  173.7980  136.8670 C   0  0  1  0  0  0  0  0  0  0  0  0
  195.1640  172.4480  137.3100 C   0  0  0  0  0  2  0  0  0  0  0  0
  195.4050  172.2080  138.6680 O   0  0  0  0  0  1  0  0  0  0  0  0
  190.4870  178.4420  143.1340 C   0  0  0  0  0  2  0  0  0  0  0  0
  191.3090  176.9530  144.9130 C   0  0  0  0  0  2  0  0  0  0  0  0
  190.9990  178.1840  144.5160 C   0  0  0  0  0  3  0  0  0  0  0  0
  187.5540  177.4080  143.3180 C   0  0  0  0  0  2  0  0  0  0  0  0
  186.6770  178.6390  143.1700 C   0  0  0  0  0  2  0  0  0  0  0  0
  185.6520  178.7090  144.3020 C   0  0  1  0  0  3  0  0  0  0  0  0
  184.2690  178.2490  143.8150 C   0  0  2  0  0  3  0  0  0  0  0  0
  184.2740  178.0260  142.4340 O   0  0  0  0  0  1  0  0  0  0  0  0
  183.1950  179.2840  144.1330 C   0  0  0  0  0  2  0  0  0  0  0  0
  181.2300  179.3470  143.1350 C   0  0  0  0  0  1  0  0  0  0  0  0
  181.9370  178.6800  144.1350 O   0  0  0  0  0  0  0  0  0  0  0  0
  186.1230  177.8110  145.4410 C   0  0  0  0  0  2  0  0  0  0  0  0
  186.1440  178.5450  146.7720 C   0  0  1  0  0  3  0  0  0  0  0  0
  184.8460  178.5700  147.2900 O   0  0  0  0  0  1  0  0  0  0  0  0
  187.1540  177.8870  147.7260 C   0  0  0  0  0  3  0  0  0  0  0  0
  188.5670  178.4440  147.6120 C   0  0  0  0  0  2  0  0  0  0  0  0
  188.2080  177.1390  146.9320 C   0  0  0  0  0  2  0  0  0  0  0  0
  1  2  1  6  0  0  0
  1 22  1  0  0  0  0
  1 41  1  0  0  0  0
  3  2  1  0  0  0  0
  4  3  1  0  0  0  0
  5 13  2  0  0  0  0
  6  8  1  6  0  0  0
  8 12  2  0  0  0  0
  9  5  1  1  0  0  0
  9  6  1  0  0  0  0
 11 12  1  0  0  0  0
 11 19  1  1  0  0  0
 13 11  1  0  0  0  0
 14  9  1  0  0  0  0
 15 14  1  0  0  0  0
 15 17  1  0  0  0  0
 16  7  1  6  0  0  0
 16  6  1  0  0  0  0
 16  4  1  0  0  0  0
 17 16  1  0  0  0  0
 17 10  1  1  0  0  0
 19 18  2  0  0  0  0
 20 19  1  0  0  0  0
 20 21  1  0  0  0  0
 22 38  1  6  0  0  0
 23 22  1  0  0  0  0
 24 23  2  0  0  0  0
 25 23  1  0  0  0  0
 26 25  1  0  0  0  0
 27 26  1  0  0  0  0
 28 27  1  0  0  0  0
 30 29  1  6  0  0  0
 30 28  1  0  0  0  0
 32 31  1  6  0  0  0
 32 35  1  0  0  0  0
 32 30  1  0  0  0  0
 33 35  1  0  0  0  0
 35 36  1  0  0  0  0
 35 34  1  1  0  0  0
 36 37  1  0  0  0  0
 38 40  1  0  0  0  0
 40 39  2  0  0  0  0
 42 41  1  0  0  0  0
 43 42  1  6  0  0  0
 43 49  1  0  0  0  0
 44 45  1  6  0  0  0
 44 46  1  0  0  0  0
 44 43  1  0  0  0  0
 46 48  1  0  0  0  0
 47 48  1  0  0  0  0
 49 50  1  0  0  0  0
 50 51  1  1  0  0  0
 50 52  1  0  0  0  0
 53 52  1  0  0  0  0
 54 53  1  0  0  0  0
 54 52  1  0  0  0  0
M  END
>  <MODEL>
2

>  <REMARK>
 VINA RESULT:      -6.6      1.677      3.078
  Name = 
  26 active torsions:
  status: ('A' for Active; 'I' for Inactive)
    1  A    between atoms: C_2  and  C_6
    2  A    between atoms: C_2  and  O_21
    3  A    between atoms: C_6  and  C_23
    4  A    between atoms: C_6  and  C_45
    5  A    between atoms: C_7  and  O_37
    6  A    between atoms: C_7  and  C_45
    7  A    between atoms: C_8  and  C_29
    8  A    between atoms: C_8  and  O_43
    9  A    between atoms: C_14  and  C_28
   10  A    between atoms: C_14  and  C_40
   11  A    between atoms: C_15  and  O_37
   12  A    between atoms: C_15  and  C_47
   13  A    between atoms: C_16  and  C_32
   14  A    between atoms: C_19  and  C_29
   15  A    between atoms: C_19  and  C_41
   16  A    between atoms: C_19  and  C_50
   17  A    between atoms: O_21  and  C_35
   18  A    between atoms: C_22  and  C_40
   19  A    between atoms: C_23  and  C_52
   20  A    between atoms: C_25  and  C_30
   21  A    between atoms: C_26  and  C_41
   22  A    between atoms: C_26  and  C_45
   23  A    between atoms: C_28  and  N_38
   24  A    between atoms: C_32  and  C_50
   25  A    between atoms: C_34  and  C_35
   26  A    between atoms: C_34  and  N_38
                            x       y       z     vdW  Elec       q    Type
                         _______ _______ _______ _____ _____    ______ ____

>  <TORSDO>
F 26

$$$$
=
 OpenBabel11062412473D

 54 56  0  0  1  0  0  0  0  0999 V2000
  188.7970  176.9970  139.0150 C   0  0  1  0  0  3  0  0  0  0  0  0
  189.4620  178.1430  139.7630 C   0  0  0  0  0  2  0  0  0  0  0  0
  189.3740  177.9170  141.1350 O   0  0  0  0  0  0  0  0  0  0  0  0
  190.5070  177.1680  141.4550 C   0  0  0  0  0  2  0  0  0  0  0  0
  188.1500  177.4780  146.0220 C   0  0  0  0  0  3  0  0  0  0  0  0
  189.2180  177.2350  143.6390 C   0  0  1  0  0  3  0  0  0  0  0  0
  190.7830  175.4690  143.1170 O   0  0  0  0  0  1  0  0  0  0  0  0
  188.0510  176.4160  143.1490 C   0  0  0  0  0  3  0  0  0  0  0  0
  189.3790  177.1770  145.1830 C   0  0  1  0  0  3  0  0  0  0  0  0
  191.6480  178.9560  143.2680 F   0  0  0  0  0  0  0  0  0  0  0  0
  186.5440  178.0600  144.1750 C   0  0  2  0  0  3  0  0  0  0  0  0
  186.7990  176.8110  143.3860 C   0  0  0  0  0  3  0  0  0  0  0  0
  186.9290  177.8600  145.6070 C   0  0  0  0  0  3  0  0  0  0  0  0
  190.4190  178.0320  145.5880 O   0  0  0  0  0  0  0  0  0  0  0  0
  191.6210  177.4700  145.1210 C   0  0  0  0  0  2  0  0  0  0  0  0
  190.5450  176.8390  142.9510 C   0  0  1  0  0  0  0  0  0  0  0  0
  191.7030  177.6130  143.5990 C   0  0  1  0  0  3  0  0  0  0  0  0
  184.5980  178.5910  142.9170 O   0  0  0  0  0  0  0  0  0  0  0  0
  185.1250  178.5140  144.0600 C   0  0  0  0  0  0  0  0  0  0  0  0
  184.3770  178.8840  145.2210 N   0  0  0  0  0  2  0  0  0  0  0  0
  183.0130  179.1830  145.1280 N   0  0  0  0  0  1  0  0  0  0  0  0
  187.9010  177.4930  137.8710 C   0  0  1  0  0  3  0  0  0  0  0  0
  186.5170  177.8570  138.3170 C   0  0  0  0  0  0  0  0  0  0  0  0
  186.3330  178.7830  139.1570 O   0  0  0  0  0  0  0  0  0  0  0  0
  185.4370  177.1420  137.7990 O   0  0  0  0  0  0  0  0  0  0  0  0
  184.0900  177.5950  137.8870 C   0  0  0  0  0  2  0  0  0  0  0  0
  183.3340  177.3160  136.5950 C   0  0  0  0  0  2  0  0  0  0  0  0
  182.1000  176.5840  136.8610 N   0  0  0  0  0  2  0  0  0  0  0  0
  181.5220  175.2540  138.8180 C   0  0  0  0  0  1  0  0  0  0  0  0
  182.4230  175.3700  137.6000 C   0  0  1  0  0  3  0  0  0  0  0  0
  181.1840  173.3730  137.0620 O   0  0  0  0  0  1  0  0  0  0  0  0
  182.3330  174.1020  136.7290 C   0  0  2  0  0  3  0  0  0  0  0  0
  184.1260  173.1980  135.3920 O   0  0  0  0  0  1  0  0  0  0  0  0
  184.6630  173.6770  137.6510 C   0  0  0  0  0  1  0  0  0  0  0  0
  183.5890  173.1970  136.6810 C   0  0  1  0  0  0  0  0  0  0  0  0
  183.2110  171.7540  137.0190 C   0  0  0  0  0  2  0  0  0  0  0  0
  184.0090  170.8360  136.3270 O   0  0  0  0  0  1  0  0  0  0  0  0
  188.5490  178.6170  137.0630 C   0  0  0  0  0  2  0  0  0  0  0  0
  188.2430  177.4200  134.9340 C   0  0  0  0  0  2  0  0  0  0  0  0
  189.0330  178.1330  135.7320 C   0  0  0  0  0  3  0  0  0  0  0  0
  189.8260  175.9680  138.5620 C   0  0  0  0  0  2  0  0  0  0  0  0
  191.0760  176.6740  138.0660 C   0  0  0  0  0  2  0  0  0  0  0  0
  191.9060  175.7420  137.1830 C   0  0  1  0  0  3  0  0  0  0  0  0
  193.3020  175.5190  137.7860 C   0  0  2  0  0  3  0  0  0  0  0  0
  193.6740  176.5970  138.5960 O   0  0  0  0  0  1  0  0  0  0  0  0
  194.3560  175.3460  136.6980 C   0  0  0  0  0  2  0  0  0  0  0  0
  194.7440  173.4230  137.7050 C   0  0  0  0  0  1  0  0  0  0  0  0
  195.3910  174.5330  137.1620 O   0  0  0  0  0  0  0  0  0  0  0  0
  191.1760  174.4080  137.0620 C   0  0  0  0  0  2  0  0  0  0  0  0
  190.7270  174.1330  135.6370 C   0  0  1  0  0  3  0  0  0  0  0  0
  191.8300  173.7040  134.8940 O   0  0  0  0  0  1  0  0  0  0  0  0
  189.5720  173.1170  135.6300 C   0  0  0  0  0  3  0  0  0  0  0  0
  188.2270  173.7120  135.2370 C   0  0  0  0  0  2  0  0  0  0  0  0
  188.5560  173.4790  136.6970 C   0  0  0  0  0  2  0  0  0  0  0  0
  1 41  1  6  0  0  0
  1  2  1  0  0  0  0
  2  3  1  0  0  0  0
  3  4  1  0  0  0  0
  4 16  1  0  0  0  0
  6  8  1  6  0  0  0
  6  9  1  0  0  0  0
  8 12  2  0  0  0  0
  9 14  1  0  0  0  0
  9  5  1  1  0  0  0
 11 19  1  1  0  0  0
 11 13  1  0  0  0  0
 12 11  1  0  0  0  0
 13  5  2  0  0  0  0
 15 14  1  0  0  0  0
 16  7  1  1  0  0  0
 16 17  1  0  0  0  0
 16  6  1  0  0  0  0
 17 10  1  1  0  0  0
 17 15  1  0  0  0  0
 18 19  2  0  0  0  0
 19 20  1  0  0  0  0
 21 20  1  0  0  0  0
 22 38  1  1  0  0  0
 22 23  1  0  0  0  0
 22  1  1  0  0  0  0
 23 24  2  0  0  0  0
 25 26  1  0  0  0  0
 25 23  1  0  0  0  0
 27 28  1  0  0  0  0
 27 26  1  0  0  0  0
 28 30  1  0  0  0  0
 30 29  1  1  0  0  0
 32 31  1  1  0  0  0
 32 30  1  0  0  0  0
 33 35  1  0  0  0  0
 35 32  1  0  0  0  0
 35 36  1  0  0  0  0
 35 34  1  1  0  0  0
 37 36  1  0  0  0  0
 39 40  2  0  0  0  0
 40 38  1  0  0  0  0
 42 41  1  0  0  0  0
 43 49  1  1  0  0  0
 43 44  1  0  0  0  0
 43 42  1  0  0  0  0
 44 45  1  6  0  0  0
 46 48  1  0  0  0  0
 46 44  1  0  0  0  0
 48 47  1  0  0  0  0
 50 51  1  6  0  0  0
 50 49  1  0  0  0  0
 52 50  1  0  0  0  0
 52 54  1  0  0  0  0
 53 52  1  0  0  0  0
 53 54  1  0  0  0  0
M  END
>  <MODEL>
3

>  <REMARK>
 VINA RESULT:      -6.4      2.686      9.278
  Name = 
  26 active torsions:
  status: ('A' for Active; 'I' for Inactive)
    1  A    between atoms: C_2  and  C_6
    2  A    between atoms: C_2  and  O_21
    3  A    between atoms: C_6  and  C_23
    4  A    between atoms: C_6  and  C_45
    5  A    between atoms: C_7  and  O_37
    6  A    between atoms: C_7  and  C_45
    7  A    between atoms: C_8  and  C_29
    8  A    between atoms: C_8  and  O_43
    9  A    between atoms: C_14  and  C_28
   10  A    between atoms: C_14  and  C_40
   11  A    between atoms: C_15  and  O_37
   12  A    between atoms: C_15  and  C_47
   13  A    between atoms: C_16  and  C_32
   14  A    between atoms: C_19  and  C_29
   15  A    between atoms: C_19  and  C_41
   16  A    between atoms: C_19  and  C_50
   17  A    between atoms: O_21  and  C_35
   18  A    between atoms: C_22  and  C_40
   19  A    between atoms: C_23  and  C_52
   20  A    between atoms: C_25  and  C_30
   21  A    between atoms: C_26  and  C_41
   22  A    between atoms: C_26  and  C_45
   23  A    between atoms: C_28  and  N_38
   24  A    between atoms: C_32  and  C_50
   25  A    between atoms: C_34  and  C_35
   26  A    between atoms: C_34  and  N_38
                            x       y       z     vdW  Elec       q    Type
                         _______ _______ _______ _____ _____    ______ ____

>  <TORSDO>
F 26

$$$$
=
 OpenBabel11062412473D

 54 56  0  0  1  0  0  0  0  0999 V2000
  189.0140  176.5670  138.8460 C   0  0  1  0  0  3  0  0  0  0  0  0
  189.6100  177.7870  139.5320 C   0  0  0  0  0  2  0  0  0  0  0  0
  189.4510  177.6700  140.9120 O   0  0  0  0  0  0  0  0  0  0  0  0
  190.1660  176.5250  141.2650 C   0  0  0  0  0  2  0  0  0  0  0  0
  188.3770  177.7600  145.9320 C   0  0  0  0  0  3  0  0  0  0  0  0
  189.1450  177.0480  143.5280 C   0  0  1  0  0  3  0  0  0  0  0  0
  190.5300  175.1040  143.1560 O   0  0  0  0  0  1  0  0  0  0  0  0
  187.8820  176.2540  143.3090 C   0  0  0  0  0  3  0  0  0  0  0  0
  189.4810  177.2310  145.0330 C   0  0  1  0  0  3  0  0  0  0  0  0
  191.6150  178.4890  142.6170 F   0  0  0  0  0  0  0  0  0  0  0  0
  186.6050  178.1580  144.1900 C   0  0  2  0  0  3  0  0  0  0  0  0
  186.6920  176.7800  143.6050 C   0  0  0  0  0  3  0  0  0  0  0  0
  187.1410  178.1640  145.5880 C   0  0  0  0  0  3  0  0  0  0  0  0
  190.6100  178.0550  145.1760 O   0  0  0  0  0  0  0  0  0  0  0  0
  191.7130  177.3320  144.6890 C   0  0  0  0  0  2  0  0  0  0  0  0
  190.3570  176.4420  142.7830 C   0  0  1  0  0  0  0  0  0  0  0  0
  191.6270  177.2180  143.1650 C   0  0  1  0  0  3  0  0  0  0  0  0
  184.7460  179.1010  143.0480 O   0  0  0  0  0  0  0  0  0  0  0  0
  185.2130  178.6970  144.1490 C   0  0  0  0  0  0  0  0  0  0  0  0
  184.4240  178.7840  145.3370 N   0  0  0  0  0  2  0  0  0  0  0  0
  183.0790  179.1660  145.2770 N   0  0  0  0  0  1  0  0  0  0  0  0
  187.7500  176.9100  138.0450 C   0  0  1  0  0  3  0  0  0  0  0  0
  187.3890  178.3640  138.1010 C   0  0  0  0  0  0  0  0  0  0  0  0
  188.1430  179.2350  137.5830 O   0  0  0  0  0  0  0  0  0  0  0  0
  186.2130  178.7360  138.7520 O   0  0  0  0  0  0  0  0  0  0  0  0
  184.9830  178.0370  138.5960 C   0  0  0  0  0  2  0  0  0  0  0  0
  183.7950  178.9650  138.8080 C   0  0  0  0  0  2  0  0  0  0  0  0
  182.7370  178.2950  139.5560 N   0  0  0  0  0  2  0  0  0  0  0  0
  181.0070  179.6730  140.5770 C   0  0  0  0  0  1  0  0  0  0  0  0
  181.4760  178.9840  139.3070 C   0  0  1  0  0  3  0  0  0  0  0  0
  181.6210  181.2940  138.6370 O   0  0  0  0  0  1  0  0  0  0  0  0
  181.5660  179.9860  138.1400 C   0  0  2  0  0  3  0  0  0  0  0  0
  179.2270  179.8220  137.5710 O   0  0  0  0  0  1  0  0  0  0  0  0
  180.5860  181.0050  136.0290 C   0  0  0  0  0  1  0  0  0  0  0  0
  180.5090  179.8460  137.0170 C   0  0  1  0  0  0  0  0  0  0  0  0
  180.7090  178.5290  136.2670 C   0  0  0  0  0  2  0  0  0  0  0  0
  182.0550  178.3150  135.9490 O   0  0  0  0  0  1  0  0  0  0  0  0
  187.8110  176.3970  136.6060 C   0  0  0  0  0  2  0  0  0  0  0  0
  186.4460  174.8340  135.2820 C   0  0  0  0  0  2  0  0  0  0  0  0
  186.4990  175.8260  136.1670 C   0  0  0  0  0  3  0  0  0  0  0  0
  190.0650  175.8370  138.0170 C   0  0  0  0  0  2  0  0  0  0  0  0
  191.2450  176.7580  137.7550 C   0  0  0  0  0  2  0  0  0  0  0  0
  192.2580  176.0830  136.8320 C   0  0  1  0  0  3  0  0  0  0  0  0
  193.6910  176.2960  137.3470 C   0  0  2  0  0  3  0  0  0  0  0  0
  194.5120  176.8160  136.3400 O   0  0  0  0  0  1  0  0  0  0  0  0
  194.3030  174.9910  137.8430 C   0  0  0  0  0  2  0  0  0  0  0  0
  196.4010  174.3570  138.0960 C   0  0  0  0  0  1  0  0  0  0  0  0
  195.4640  174.7050  137.1220 O   0  0  0  0  0  0  0  0  0  0  0  0
  191.9470  174.5910  136.7730 C   0  0  0  0  0  2  0  0  0  0  0  0
  191.7110  174.1160  135.3500 C   0  0  1  0  0  3  0  0  0  0  0  0
  192.9480  173.9750  134.7130 O   0  0  0  0  0  1  0  0  0  0  0  0
  190.8910  172.8150  135.3520 C   0  0  0  0  0  3  0  0  0  0  0  0
  189.5730  172.9130  134.5970 C   0  0  0  0  0  2  0  0  0  0  0  0
  189.5920  173.0220  136.1080 C   0  0  0  0  0  2  0  0  0  0  0  0
  1 41  1  6  0  0  0
  1  2  1  0  0  0  0
  2  3  1  0  0  0  0
  3  4  1  0  0  0  0
  4 16  1  0  0  0  0
  6  8  1  1  0  0  0
  6  9  1  0  0  0  0
  8 12  2  0  0  0  0
  9 14  1  0  0  0  0
  9  5  1  1  0  0  0
 11 19  1  1  0  0  0
 11 13  1  0  0  0  0
 12 11  1  0  0  0  0
 13  5  2  0  0  0  0
 15 14  1  0  0  0  0
 16  7  1  1  0  0  0
 16 17  1  0  0  0  0
 16  6  1  0  0  0  0
 17 10  1  6  0  0  0
 17 15  1  0  0  0  0
 18 19  2  0  0  0  0
 19 20  1  0  0  0  0
 21 20  1  0  0  0  0
 22 38  1  6  0  0  0
 22 23  1  0  0  0  0
 22  1  1  0  0  0  0
 23 25  1  0  0  0  0
 24 23  2  0  0  0  0
 26 25  1  0  0  0  0
 26 27  1  0  0  0  0
 27 28  1  0  0  0  0
 30 28  1  0  0  0  0
 30 29  1  1  0  0  0
 32 31  1  1  0  0  0
 32 30  1  0  0  0  0
 35 34  1  6  0  0  0
 35 33  1  0  0  0  0
 35 32  1  0  0  0  0
 36 35  1  0  0  0  0
 37 36  1  0  0  0  0
 39 40  2  0  0  0  0
 40 38  1  0  0  0  0
 42 41  1  0  0  0  0
 43 49  1  1  0  0  0
 43 44  1  0  0  0  0
 43 42  1  0  0  0  0
 44 45  1  6  0  0  0
 44 46  1  0  0  0  0
 48 46  1  0  0  0  0
 48 47  1  0  0  0  0
 50 51  1  1  0  0  0
 50 52  1  0  0  0  0
 50 49  1  0  0  0  0
 52 54  1  0  0  0  0
 53 52  1  0  0  0  0
 53 54  1  0  0  0  0
M  END
>  <MODEL>
4

>  <REMARK>
 VINA RESULT:      -6.0      2.562     10.144
  Name = 
  26 active torsions:
  status: ('A' for Active; 'I' for Inactive)
    1  A    between atoms: C_2  and  C_6
    2  A    between atoms: C_2  and  O_21
    3  A    between atoms: C_6  and  C_23
    4  A    between atoms: C_6  and  C_45
    5  A    between atoms: C_7  and  O_37
    6  A    between atoms: C_7  and  C_45
    7  A    between atoms: C_8  and  C_29
    8  A    between atoms: C_8  and  O_43
    9  A    between atoms: C_14  and  C_28
   10  A    between atoms: C_14  and  C_40
   11  A    between atoms: C_15  and  O_37
   12  A    between atoms: C_15  and  C_47
   13  A    between atoms: C_16  and  C_32
   14  A    between atoms: C_19  and  C_29
   15  A    between atoms: C_19  and  C_41
   16  A    between atoms: C_19  and  C_50
   17  A    between atoms: O_21  and  C_35
   18  A    between atoms: C_22  and  C_40
   19  A    between atoms: C_23  and  C_52
   20  A    between atoms: C_25  and  C_30
   21  A    between atoms: C_26  and  C_41
   22  A    between atoms: C_26  and  C_45
   23  A    between atoms: C_28  and  N_38
   24  A    between atoms: C_32  and  C_50
   25  A    between atoms: C_34  and  C_35
   26  A    between atoms: C_34  and  N_38
                            x       y       z     vdW  Elec       q    Type
                         _______ _______ _______ _____ _____    ______ ____

>  <TORSDO>
F 26

$$$$
=
 OpenBabel11062412473D

 54 56  0  0  1  0  0  0  0  0999 V2000
  185.2690  178.9370  141.3600 C   0  0  1  0  0  3  0  0  0  0  0  0
  186.4930  178.2860  140.7350 C   0  0  0  0  0  2  0  0  0  0  0  0
  186.5070  178.5370  139.3650 O   0  0  0  0  0  0  0  0  0  0  0  0
  187.7260  178.0310  138.9140 C   0  0  0  0  0  2  0  0  0  0  0  0
  190.1010  176.0590  134.7920 C   0  0  0  0  0  3  0  0  0  0  0  0
  188.9550  176.9370  136.9810 C   0  0  1  0  0  3  0  0  0  0  0  0
  186.6650  176.3920  137.5290 O   0  0  0  0  0  1  0  0  0  0  0  0
  189.4770  175.7690  137.7790 C   0  0  0  0  0  3  0  0  0  0  0  0
  188.8620  176.6270  135.4620 C   0  0  1  0  0  3  0  0  0  0  0  0
  187.8070  179.6930  136.6740 F   0  0  0  0  0  0  0  0  0  0  0  0
  191.6780  176.1310  136.7510 C   0  0  2  0  0  3  0  0  0  0  0  0
  190.7570  175.4020  137.6830 C   0  0  0  0  0  3  0  0  0  0  0  0
  191.3160  175.8420  135.3280 C   0  0  0  0  0  3  0  0  0  0  0  0
  188.4620  177.7790  134.7620 O   0  0  0  0  0  0  0  0  0  0  0  0
  187.1250  178.0330  135.1170 C   0  0  0  0  0  2  0  0  0  0  0  0
  187.5900  177.4430  137.5050 C   0  0  1  0  0  0  0  0  0  0  0  0
  187.0590  178.5340  136.5620 C   0  0  1  0  0  3  0  0  0  0  0  0
  193.3960  175.0020  137.9450 O   0  0  0  0  0  0  0  0  0  0  0  0
  193.1120  175.8050  137.0150 C   0  0  0  0  0  0  0  0  0  0  0  0
  194.1550  176.4100  136.2480 N   0  0  0  0  0  2  0  0  0  0  0  0
  195.4860  176.0080  136.4060 N   0  0  0  0  0  1  0  0  0  0  0  0
  183.9840  178.1460  141.0810 C   0  0  1  0  0  3  0  0  0  0  0  0
  182.7650  178.7550  141.7060 C   0  0  0  0  0  0  0  0  0  0  0  0
  182.4470  178.4820  142.8980 O   0  0  0  0  0  0  0  0  0  0  0  0
  181.9800  179.6180  140.9400 O   0  0  0  0  0  0  0  0  0  0  0  0
  180.5590  179.5490  140.9010 C   0  0  0  0  0  2  0  0  0  0  0  0
  180.0340  179.8780  139.5100 C   0  0  0  0  0  2  0  0  0  0  0  0
  180.2830  181.2750  139.1760 N   0  0  0  0  0  2  0  0  0  0  0  0
  181.2860  179.9280  137.4110 C   0  0  0  0  0  1  0  0  0  0  0  0
  181.0450  181.3340  137.9350 C   0  0  1  0  0  3  0  0  0  0  0  0
  180.6060  181.6750  135.5890 O   0  0  0  0  0  1  0  0  0  0  0  0
  180.3690  182.2100  136.8620 C   0  0  2  0  0  3  0  0  0  0  0  0
  181.8140  183.9620  137.6760 O   0  0  0  0  0  1  0  0  0  0  0  0
  180.9020  184.2960  135.5130 C   0  0  0  0  0  1  0  0  0  0  0  0
  180.6710  183.7280  136.9080 C   0  0  1  0  0  0  0  0  0  0  0  0
  179.5130  184.4750  137.5720 C   0  0  0  0  0  2  0  0  0  0  0  0
  179.9340  185.6860  138.1340 O   0  0  0  0  0  1  0  0  0  0  0  0
  183.7780  177.8680  139.5920 C   0  0  0  0  0  2  0  0  0  0  0  0
  183.1410  175.8060  138.4090 C   0  0  0  0  0  2  0  0  0  0  0  0
  182.8810  176.6920  139.3670 C   0  0  0  0  0  3  0  0  0  0  0  0
  185.4900  179.2090  142.8440 C   0  0  0  0  0  2  0  0  0  0  0  0
  185.8800  177.9210  143.5500 C   0  0  0  0  0  2  0  0  0  0  0  0
  187.2070  178.0940  144.2890 C   0  0  1  0  0  3  0  0  0  0  0  0
  186.9930  178.0620  145.8110 C   0  0  2  0  0  3  0  0  0  0  0  0
  187.6950  177.0010  146.3920 O   0  0  0  0  0  1  0  0  0  0  0  0
  185.5170  177.9140  146.1610 C   0  0  0  0  0  2  0  0  0  0  0  0
  185.9980  179.5770  147.5260 C   0  0  0  0  0  1  0  0  0  0  0  0
  185.0170  179.1240  146.6440 O   0  0  0  0  0  0  0  0  0  0  0  0
  188.1450  176.9640  143.8750 C   0  0  0  0  0  2  0  0  0  0  0  0
  189.4490  177.4900  143.3000 C   0  0  1  0  0  3  0  0  0  0  0  0
  189.1720  178.1730  142.1120 O   0  0  0  0  0  1  0  0  0  0  0  0
  190.1720  178.3670  144.3360 C   0  0  0  0  0  3  0  0  0  0  0  0
  191.6820  178.4260  144.1500 C   0  0  0  0  0  2  0  0  0  0  0  0
  191.0820  177.5100  145.1960 C   0  0  0  0  0  2  0  0  0  0  0  0
  1  2  1  1  0  0  0
  1 41  1  0  0  0  0
  3  2  1  0  0  0  0
  4  3  1  0  0  0  0
  5 13  2  0  0  0  0
  6 16  1  0  0  0  0
  6  8  1  1  0  0  0
  9  5  1  6  0  0  0
  9  6  1  0  0  0  0
 11 19  1  1  0  0  0
 11 12  1  0  0  0  0
 12  8  2  0  0  0  0
 13 11  1  0  0  0  0
 14 15  1  0  0  0  0
 14  9  1  0  0  0  0
 15 17  1  0  0  0  0
 16  7  1  1  0  0  0
 16  4  1  0  0  0  0
 17 10  1  6  0  0  0
 17 16  1  0  0  0  0
 19 18  2  0  0  0  0
 20 21  1  0  0  0  0
 20 19  1  0  0  0  0
 22 38  1  6  0  0  0
 22  1  1  0  0  0  0
 22 23  1  0  0  0  0
 23 24  2  0  0  0  0
 25 23  1  0  0  0  0
 26 25  1  0  0  0  0
 27 26  1  0  0  0  0
 28 27  1  0  0  0  0
 30 29  1  6  0  0  0
 30 28  1  0  0  0  0
 32 31  1  6  0  0  0
 32 35  1  0  0  0  0
 32 30  1  0  0  0  0
 35 34  1  6  0  0  0
 35 36  1  0  0  0  0
 35 33  1  0  0  0  0
 36 37  1  0  0  0  0
 39 40  2  0  0  0  0
 40 38  1  0  0  0  0
 41 42  1  0  0  0  0
 43 42  1  6  0  0  0
 43 44  1  0  0  0  0
 44 46  1  0  0  0  0
 44 45  1  6  0  0  0
 46 48  1  0  0  0  0
 48 47  1  0  0  0  0
 49 43  1  0  0  0  0
 50 51  1  6  0  0  0
 50 49  1  0  0  0  0
 50 52  1  0  0  0  0
 52 54  1  0  0  0  0
 53 52  1  0  0  0  0
 53 54  1  0  0  0  0
M  END
>  <MODEL>
5

>  <REMARK>
 VINA RESULT:      -6.0      3.191      9.619
  Name = 
  26 active torsions:
  status: ('A' for Active; 'I' for Inactive)
    1  A    between atoms: C_2  and  C_6
    2  A    between atoms: C_2  and  O_21
    3  A    between atoms: C_6  and  C_23
    4  A    between atoms: C_6  and  C_45
    5  A    between atoms: C_7  and  O_37
    6  A    between atoms: C_7  and  C_45
    7  A    between atoms: C_8  and  C_29
    8  A    between atoms: C_8  and  O_43
    9  A    between atoms: C_14  and  C_28
   10  A    between atoms: C_14  and  C_40
   11  A    between atoms: C_15  and  O_37
   12  A    between atoms: C_15  and  C_47
   13  A    between atoms: C_16  and  C_32
   14  A    between atoms: C_19  and  C_29
   15  A    between atoms: C_19  and  C_41
   16  A    between atoms: C_19  and  C_50
   17  A    between atoms: O_21  and  C_35
   18  A    between atoms: C_22  and  C_40
   19  A    between atoms: C_23  and  C_52
   20  A    between atoms: C_25  and  C_30
   21  A    between atoms: C_26  and  C_41
   22  A    between atoms: C_26  and  C_45
   23  A    between atoms: C_28  and  N_38
   24  A    between atoms: C_32  and  C_50
   25  A    between atoms: C_34  and  C_35
   26  A    between atoms: C_34  and  N_38
                            x       y       z     vdW  Elec       q    Type
                         _______ _______ _______ _____ _____    ______ ____

>  <TORSDO>
F 26

$$$$
=
 OpenBabel11062412473D

 54 56  0  0  1  0  0  0  0  0999 V2000
  187.0360  178.0290  139.3500 C   0  0  1  0  0  3  0  0  0  0  0  0
  185.8960  178.9910  139.6480 C   0  0  0  0  0  2  0  0  0  0  0  0
  184.6980  178.2840  139.7290 O   0  0  0  0  0  0  0  0  0  0  0  0
  183.7270  179.1530  139.2310 C   0  0  0  0  0  2  0  0  0  0  0  0
  179.6570  176.0550  138.6470 C   0  0  0  0  0  3  0  0  0  0  0  0
  181.8230  177.4970  138.9730 C   0  0  1  0  0  3  0  0  0  0  0  0
  182.3690  178.5150  141.0950 O   0  0  0  0  0  1  0  0  0  0  0  0
  182.6450  176.2740  139.2900 C   0  0  0  0  0  3  0  0  0  0  0  0
  180.3100  177.2850  139.2520 C   0  0  1  0  0  3  0  0  0  0  0  0
  181.4560  180.3580  138.1460 F   0  0  0  0  0  0  0  0  0  0  0  0
  181.6220  175.1590  137.3560 C   0  0  2  0  0  3  0  0  0  0  0  0
  182.5620  175.1850  138.5230 C   0  0  0  0  0  3  0  0  0  0  0  0
  180.2030  175.1350  137.8310 C   0  0  0  0  0  3  0  0  0  0  0  0
  179.5850  178.4210  138.8500 O   0  0  0  0  0  0  0  0  0  0  0  0
  179.9290  179.4620  139.7300 C   0  0  0  0  0  2  0  0  0  0  0  0
  182.3300  178.7540  139.7170 C   0  0  1  0  0  0  0  0  0  0  0  0
  181.3640  179.9210  139.4560 C   0  0  1  0  0  3  0  0  0  0  0  0
  180.9360  173.4760  135.8240 O   0  0  0  0  0  0  0  0  0  0  0  0
  181.8980  174.0120  136.4390 C   0  0  0  0  0  0  0  0  0  0  0  0
  183.2240  173.5050  136.2770 N   0  0  0  0  0  2  0  0  0  0  0  0
  183.5030  172.5200  135.3230 N   0  0  0  0  0  1  0  0  0  0  0  0
  187.3210  177.9150  137.8460 C   0  0  1  0  0  3  0  0  0  0  0  0
  188.6520  178.4810  137.4510 C   0  0  0  0  0  0  0  0  0  0  0  0
  188.8600  179.7260  137.4930 O   0  0  0  0  0  0  0  0  0  0  0  0
  189.6510  177.6060  137.0210 O   0  0  0  0  0  0  0  0  0  0  0  0
  190.6630  177.0990  137.8830 C   0  0  0  0  0  2  0  0  0  0  0  0
  191.6460  176.2240  137.1170 C   0  0  0  0  0  2  0  0  0  0  0  0
  192.9710  176.2730  137.7230 N   0  0  0  0  0  2  0  0  0  0  0  0
  192.6170  173.9860  136.9610 C   0  0  0  0  0  1  0  0  0  0  0  0
  193.5710  174.9460  137.6530 C   0  0  1  0  0  3  0  0  0  0  0  0
  194.7920  174.6590  135.5940 O   0  0  0  0  0  1  0  0  0  0  0  0
  194.9450  174.9510  136.9560 C   0  0  2  0  0  3  0  0  0  0  0  0
  195.9590  172.7710  137.1560 O   0  0  0  0  0  1  0  0  0  0  0  0
  197.4460  174.6150  137.2500 C   0  0  0  0  0  1  0  0  0  0  0  0
  196.0590  174.0910  137.6020 C   0  0  1  0  0  0  0  0  0  0  0  0
  195.8960  174.0730  139.1220 C   0  0  0  0  0  2  0  0  0  0  0  0
  196.4340  175.2230  139.7120 O   0  0  0  0  0  1  0  0  0  0  0  0
  187.1320  176.4930  137.3190 C   0  0  0  0  0  2  0  0  0  0  0  0
  184.9600  177.1820  136.3860 C   0  0  0  0  0  2  0  0  0  0  0  0
  185.7090  176.2300  136.9360 C   0  0  0  0  0  3  0  0  0  0  0  0
  188.2750  178.3780  140.1660 C   0  0  0  0  0  2  0  0  0  0  0  0
  187.9420  178.3420  141.6480 C   0  0  0  0  0  2  0  0  0  0  0  0
  188.5930  177.1330  142.3170 C   0  0  1  0  0  3  0  0  0  0  0  0
  190.0000  177.4840  142.8280 C   0  0  2  0  0  3  0  0  0  0  0  0
  190.9840  176.8830  142.0360 O   0  0  0  0  0  1  0  0  0  0  0  0
  190.1970  177.0310  144.2700 C   0  0  0  0  0  2  0  0  0  0  0  0
  191.6660  176.4980  145.8270 C   0  0  0  0  0  1  0  0  0  0  0  0
  191.4920  176.5410  144.4430 O   0  0  0  0  0  0  0  0  0  0  0  0
  187.7160  176.6890  143.4830 C   0  0  0  0  0  2  0  0  0  0  0  0
  186.6470  177.7170  143.8130 C   0  0  1  0  0  3  0  0  0  0  0  0
  185.6130  177.6050  142.8770 O   0  0  0  0  0  1  0  0  0  0  0  0
  186.1620  177.5350  145.2600 C   0  0  0  0  0  3  0  0  0  0  0  0
  186.0160  178.8390  146.0330 C   0  0  0  0  0  2  0  0  0  0  0  0
  187.2440  177.9730  146.2290 C   0  0  0  0  0  2  0  0  0  0  0  0
  1  2  1  6  0  0  0
  1 41  1  0  0  0  0
  2  3  1  0  0  0  0
  4 16  1  0  0  0  0
  4  3  1  0  0  0  0
  6  9  1  0  0  0  0
  6  8  1  1  0  0  0
  6 16  1  0  0  0  0
  9  5  1  6  0  0  0
 11 19  1  1  0  0  0
 11 13  1  0  0  0  0
 11 12  1  0  0  0  0
 12  8  2  0  0  0  0
 13  5  2  0  0  0  0
 14  9  1  0  0  0  0
 14 15  1  0  0  0  0
 16  7  1  1  0  0  0
 17 10  1  6  0  0  0
 17 16  1  0  0  0  0
 17 15  1  0  0  0  0
 18 19  2  0  0  0  0
 20 19  1  0  0  0  0
 21 20  1  0  0  0  0
 22 38  1  1  0  0  0
 22  1  1  0  0  0  0
 23 24  2  0  0  0  0
 23 22  1  0  0  0  0
 25 23  1  0  0  0  0
 25 26  1  0  0  0  0
 27 28  1  0  0  0  0
 27 26  1  0  0  0  0
 30 29  1  6  0  0  0
 30 28  1  0  0  0  0
 32 31  1  6  0  0  0
 32 35  1  0  0  0  0
 32 30  1  0  0  0  0
 33 35  1  0  0  0  0
 35 34  1  6  0  0  0
 35 36  1  0  0  0  0
 36 37  1  0  0  0  0
 39 40  2  0  0  0  0
 40 38  1  0  0  0  0
 41 42  1  0  0  0  0
 43 42  1  1  0  0  0
 43 44  1  0  0  0  0
 43 49  1  0  0  0  0
 44 45  1  6  0  0  0
 44 46  1  0  0  0  0
 46 48  1  0  0  0  0
 48 47  1  0  0  0  0
 49 50  1  0  0  0  0
 50 51  1  6  0  0  0
 50 52  1  0  0  0  0
 52 53  1  0  0  0  0
 52 54  1  0  0  0  0
 53 54  1  0  0  0  0
M  END
>  <MODEL>
6

>  <REMARK>
 VINA RESULT:      -5.7      2.767      4.854
  Name = 
  26 active torsions:
  status: ('A' for Active; 'I' for Inactive)
    1  A    between atoms: C_2  and  C_6
    2  A    between atoms: C_2  and  O_21
    3  A    between atoms: C_6  and  C_23
    4  A    between atoms: C_6  and  C_45
    5  A    between atoms: C_7  and  O_37
    6  A    between atoms: C_7  and  C_45
    7  A    between atoms: C_8  and  C_29
    8  A    between atoms: C_8  and  O_43
    9  A    between atoms: C_14  and  C_28
   10  A    between atoms: C_14  and  C_40
   11  A    between atoms: C_15  and  O_37
   12  A    between atoms: C_15  and  C_47
   13  A    between atoms: C_16  and  C_32
   14  A    between atoms: C_19  and  C_29
   15  A    between atoms: C_19  and  C_41
   16  A    between atoms: C_19  and  C_50
   17  A    between atoms: O_21  and  C_35
   18  A    between atoms: C_22  and  C_40
   19  A    between atoms: C_23  and  C_52
   20  A    between atoms: C_25  and  C_30
   21  A    between atoms: C_26  and  C_41
   22  A    between atoms: C_26  and  C_45
   23  A    between atoms: C_28  and  N_38
   24  A    between atoms: C_32  and  C_50
   25  A    between atoms: C_34  and  C_35
   26  A    between atoms: C_34  and  N_38
                            x       y       z     vdW  Elec       q    Type
                         _______ _______ _______ _____ _____    ______ ____

>  <TORSDO>
F 26

$$$$
=
 OpenBabel11062412473D

 54 56  0  0  1  0  0  0  0  0999 V2000
  189.4290  177.2850  138.7490 C   0  0  1  0  0  3  0  0  0  0  0  0
  188.4100  178.3800  138.4720 C   0  0  0  0  0  2  0  0  0  0  0  0
  187.1280  177.8350  138.4700 O   0  0  0  0  0  0  0  0  0  0  0  0
  186.6750  177.9740  137.1580 C   0  0  0  0  0  2  0  0  0  0  0  0
  182.2770  176.0210  138.9910 C   0  0  0  0  0  3  0  0  0  0  0  0
  184.4520  177.1680  138.0790 C   0  0  1  0  0  3  0  0  0  0  0  0
  184.8280  177.4910  135.7140 O   0  0  0  0  0  1  0  0  0  0  0  0
  183.8440  178.5400  138.2220 C   0  0  0  0  0  3  0  0  0  0  0  0
  183.3800  176.0520  137.9470 C   0  0  1  0  0  3  0  0  0  0  0  0
  186.7440  175.2540  137.7780 F   0  0  0  0  0  0  0  0  0  0  0  0
  183.0730  177.8990  140.4630 C   0  0  2  0  0  3  0  0  0  0  0  0
  183.2120  178.8870  139.3450 C   0  0  0  0  0  3  0  0  0  0  0  0
  182.1310  176.8020  140.0760 C   0  0  0  0  0  3  0  0  0  0  0  0
  184.0020  174.7920  137.9130 O   0  0  0  0  0  0  0  0  0  0  0  0
  184.7000  174.7090  136.6960 C   0  0  0  0  0  2  0  0  0  0  0  0
  185.4510  177.0880  136.9010 C   0  0  1  0  0  0  0  0  0  0  0  0
  185.9190  175.6340  136.7330 C   0  0  1  0  0  3  0  0  0  0  0  0
  183.4520  178.6130  142.6990 O   0  0  0  0  0  0  0  0  0  0  0  0
  182.6400  178.5510  141.7360 C   0  0  0  0  0  0  0  0  0  0  0  0
  181.3180  179.0750  141.8790 N   0  0  0  0  0  2  0  0  0  0  0  0
  180.9540  179.7990  143.0200 N   0  0  0  0  0  1  0  0  0  0  0  0
  190.2690  176.9460  137.5090 C   0  0  1  0  0  3  0  0  0  0  0  0
  191.5050  176.1600  137.8280 C   0  0  0  0  0  0  0  0  0  0  0  0
  191.4250  175.0420  138.4100 O   0  0  0  0  0  0  0  0  0  0  0  0
  192.7460  176.6960  137.4820 O   0  0  0  0  0  0  0  0  0  0  0  0
  193.4850  176.2750  136.3410 C   0  0  0  0  0  2  0  0  0  0  0  0
  194.2890  175.0190  136.6420 C   0  0  0  0  0  2  0  0  0  0  0  0
  195.6530  175.3550  137.0350 N   0  0  0  0  0  2  0  0  0  0  0  0
  197.6630  174.3230  137.9470 C   0  0  0  0  0  1  0  0  0  0  0  0
  196.4530  174.1350  137.0480 C   0  0  1  0  0  3  0  0  0  0  0  0
  195.8080  172.6620  138.8420 O   0  0  0  0  0  1  0  0  0  0  0  0
  195.6410  172.8960  137.4710 C   0  0  2  0  0  3  0  0  0  0  0  0
  196.0000  171.9280  135.2910 O   0  0  0  0  0  1  0  0  0  0  0  0
  197.0930  170.8450  137.0950 C   0  0  0  0  0  1  0  0  0  0  0  0
  195.8520  171.6060  136.6420 C   0  0  1  0  0  0  0  0  0  0  0  0
  194.6290  170.6960  136.7640 C   0  0  0  0  0  2  0  0  0  0  0  0
  193.4830  171.2980  136.2330 O   0  0  0  0  0  1  0  0  0  0  0  0
  189.4440  176.2820  136.4060 C   0  0  0  0  0  2  0  0  0  0  0  0
  190.0290  174.5420  134.7670 C   0  0  0  0  0  2  0  0  0  0  0  0
  190.3150  175.7120  135.3310 C   0  0  0  0  0  3  0  0  0  0  0  0
  190.2780  177.6230  139.9690 C   0  0  0  0  0  2  0  0  0  0  0  0
  189.3820  177.8370  141.1770 C   0  0  0  0  0  2  0  0  0  0  0  0
  189.6370  176.7630  142.2330 C   0  0  1  0  0  3  0  0  0  0  0  0
  190.5660  177.2940  143.3370 C   0  0  2  0  0  3  0  0  0  0  0  0
  191.2450  178.4400  142.9110 O   0  0  0  0  0  1  0  0  0  0  0  0
  191.5960  176.2470  143.7480 C   0  0  0  0  0  2  0  0  0  0  0  0
  190.7230  177.0830  145.5920 C   0  0  0  0  0  1  0  0  0  0  0  0
  191.7180  176.2180  145.1380 O   0  0  0  0  0  0  0  0  0  0  0  0
  188.3010  176.3470  142.8380 C   0  0  0  0  0  2  0  0  0  0  0  0
  187.5570  177.5280  143.4400 C   0  0  1  0  0  3  0  0  0  0  0  0
  186.7210  178.0760  142.4630 O   0  0  0  0  0  1  0  0  0  0  0  0
  186.7930  177.0890  144.7000 C   0  0  0  0  0  3  0  0  0  0  0  0
  185.9020  178.1720  145.2920 C   0  0  0  0  0  2  0  0  0  0  0  0
  187.2620  177.8930  145.8980 C   0  0  0  0  0  2  0  0  0  0  0  0
  1  2  1  6  0  0  0
  1 41  1  0  0  0  0
  3  2  1  0  0  0  0
  4  3  1  0  0  0  0
  5 13  2  0  0  0  0
  6  8  1  6  0  0  0
  8 12  2  0  0  0  0
  9  6  1  0  0  0  0
  9  5  1  1  0  0  0
 11 19  1  1  0  0  0
 12 11  1  0  0  0  0
 13 11  1  0  0  0  0
 14  9  1  0  0  0  0
 15 17  1  0  0  0  0
 15 14  1  0  0  0  0
 16  7  1  6  0  0  0
 16  4  1  0  0  0  0
 16  6  1  0  0  0  0
 17 16  1  0  0  0  0
 17 10  1  1  0  0  0
 19 20  1  0  0  0  0
 19 18  2  0  0  0  0
 20 21  1  0  0  0  0
 22 38  1  6  0  0  0
 22 23  1  0  0  0  0
 22  1  1  0  0  0  0
 23 24  2  0  0  0  0
 25 23  1  0  0  0  0
 26 27  1  0  0  0  0
 26 25  1  0  0  0  0
 27 28  1  0  0  0  0
 28 30  1  0  0  0  0
 30 32  1  0  0  0  0
 30 29  1  1  0  0  0
 32 31  1  1  0  0  0
 33 35  1  0  0  0  0
 35 36  1  0  0  0  0
 35 34  1  1  0  0  0
 35 32  1  0  0  0  0
 37 36  1  0  0  0  0
 39 40  2  0  0  0  0
 40 38  1  0  0  0  0
 41 42  1  0  0  0  0
 43 42  1  6  0  0  0
 43 49  1  0  0  0  0
 43 44  1  0  0  0  0
 44 45  1  6  0  0  0
 44 46  1  0  0  0  0
 46 48  1  0  0  0  0
 48 47  1  0  0  0  0
 49 50  1  0  0  0  0
 50 51  1  6  0  0  0
 50 52  1  0  0  0  0
 52 53  1  0  0  0  0
 52 54  1  0  0  0  0
 53 54  1  0  0  0  0
M  END
>  <MODEL>
7

>  <REMARK>
 VINA RESULT:      -5.6      1.910      3.749
  Name = 
  26 active torsions:
  status: ('A' for Active; 'I' for Inactive)
    1  A    between atoms: C_2  and  C_6
    2  A    between atoms: C_2  and  O_21
    3  A    between atoms: C_6  and  C_23
    4  A    between atoms: C_6  and  C_45
    5  A    between atoms: C_7  and  O_37
    6  A    between atoms: C_7  and  C_45
    7  A    between atoms: C_8  and  C_29
    8  A    between atoms: C_8  and  O_43
    9  A    between atoms: C_14  and  C_28
   10  A    between atoms: C_14  and  C_40
   11  A    between atoms: C_15  and  O_37
   12  A    between atoms: C_15  and  C_47
   13  A    between atoms: C_16  and  C_32
   14  A    between atoms: C_19  and  C_29
   15  A    between atoms: C_19  and  C_41
   16  A    between atoms: C_19  and  C_50
   17  A    between atoms: O_21  and  C_35
   18  A    between atoms: C_22  and  C_40
   19  A    between atoms: C_23  and  C_52
   20  A    between atoms: C_25  and  C_30
   21  A    between atoms: C_26  and  C_41
   22  A    between atoms: C_26  and  C_45
   23  A    between atoms: C_28  and  N_38
   24  A    between atoms: C_32  and  C_50
   25  A    between atoms: C_34  and  C_35
   26  A    between atoms: C_34  and  N_38
                            x       y       z     vdW  Elec       q    Type
                         _______ _______ _______ _____ _____    ______ ____

>  <TORSDO>
F 26

$$$$
=
 OpenBabel11062412473D

 54 56  0  0  1  0  0  0  0  0999 V2000
  188.3710  177.4560  141.7360 C   0  0  1  0  0  3  0  0  0  0  0  0
  188.1220  178.3460  140.5290 C   0  0  0  0  0  2  0  0  0  0  0  0
  187.8260  177.5560  139.4200 O   0  0  0  0  0  0  0  0  0  0  0  0
  188.4100  178.2130  138.3370 C   0  0  0  0  0  2  0  0  0  0  0  0
  185.0690  175.2350  135.7920 C   0  0  0  0  0  3  0  0  0  0  0  0
  186.6460  176.8590  137.1160 C   0  0  1  0  0  3  0  0  0  0  0  0
  188.0220  178.4970  135.9920 O   0  0  0  0  0  1  0  0  0  0  0  0
  185.5310  177.8560  137.3130 C   0  0  0  0  0  3  0  0  0  0  0  0
  186.4110  175.9380  135.8880 C   0  0  1  0  0  3  0  0  0  0  0  0
  189.3120  175.6380  137.7520 F   0  0  0  0  0  0  0  0  0  0  0  0
  184.0680  175.9970  137.9710 C   0  0  2  0  0  3  0  0  0  0  0  0
  184.3290  177.4530  137.7280 C   0  0  0  0  0  3  0  0  0  0  0  0
  184.0550  175.2470  136.6760 C   0  0  0  0  0  3  0  0  0  0  0  0
  187.4300  174.9730  135.8110 O   0  0  0  0  0  0  0  0  0  0  0  0
  188.6170  175.6510  135.4800 C   0  0  0  0  0  2  0  0  0  0  0  0
  188.0310  177.5400  137.0140 C   0  0  1  0  0  0  0  0  0  0  0  0
  189.0910  176.4810  136.6750 C   0  0  1  0  0  3  0  0  0  0  0  0
  182.7160  176.2000  139.9160 O   0  0  0  0  0  0  0  0  0  0  0  0
  182.8010  175.7750  138.7310 C   0  0  0  0  0  0  0  0  0  0  0  0
  181.7070  175.0680  138.1430 N   0  0  0  0  0  2  0  0  0  0  0  0
  180.4770  174.9730  138.8040 N   0  0  0  0  0  1  0  0  0  0  0  0
  189.8510  177.4300  142.1450 C   0  0  1  0  0  3  0  0  0  0  0  0
  190.7570  176.9350  141.0580 C   0  0  0  0  0  0  0  0  0  0  0  0
  190.3850  176.0110  140.2810 O   0  0  0  0  0  0  0  0  0  0  0  0
  192.0240  177.5060  140.9310 O   0  0  0  0  0  0  0  0  0  0  0  0
  192.6920  177.6480  139.6820 C   0  0  0  0  0  2  0  0  0  0  0  0
  192.7550  176.3190  138.9420 C   0  0  0  0  0  2  0  0  0  0  0  0
  193.9180  176.2670  138.0630 N   0  0  0  0  0  2  0  0  0  0  0  0
  192.6960  174.9340  136.4310 C   0  0  0  0  0  1  0  0  0  0  0  0
  193.9080  174.9980  137.3440 C   0  0  1  0  0  3  0  0  0  0  0  0
  194.9090  174.1490  135.3230 O   0  0  0  0  0  1  0  0  0  0  0  0
  195.2060  174.7540  136.5520 C   0  0  2  0  0  3  0  0  0  0  0  0
  196.7080  172.8660  136.5800 O   0  0  0  0  0  1  0  0  0  0  0  0
  197.5820  174.8950  137.4420 C   0  0  0  0  0  1  0  0  0  0  0  0
  196.3470  174.0130  137.2910 C   0  0  1  0  0  0  0  0  0  0  0  0
  195.8750  173.5650  138.6740 C   0  0  0  0  0  2  0  0  0  0  0  0
  195.4480  172.2320  138.6670 O   0  0  0  0  0  1  0  0  0  0  0  0
  190.3250  178.7670  142.7140 C   0  0  0  0  0  2  0  0  0  0  0  0
  191.9810  179.6030  144.3310 C   0  0  0  0  0  2  0  0  0  0  0  0
  191.2910  178.5770  143.8410 C   0  0  0  0  0  3  0  0  0  0  0  0
  187.4420  177.8230  142.8880 C   0  0  0  0  0  2  0  0  0  0  0  0
  188.1280  177.5400  144.2130 C   0  0  0  0  0  2  0  0  0  0  0  0
  187.0960  177.3720  145.3280 C   0  0  1  0  0  3  0  0  0  0  0  0
  187.7880  177.1800  146.6880 C   0  0  2  0  0  3  0  0  0  0  0  0
  187.7640  178.3640  147.4320 O   0  0  0  0  0  1  0  0  0  0  0  0
  189.2390  176.7460  146.5160 C   0  0  0  0  0  2  0  0  0  0  0  0
  191.2090  176.8930  147.4980 C   0  0  0  0  0  1  0  0  0  0  0  0
  189.8600  176.6560  147.7630 O   0  0  0  0  0  0  0  0  0  0  0  0
  186.2150  178.6160  145.3680 C   0  0  0  0  0  2  0  0  0  0  0  0
  184.7710  178.2790  145.7010 C   0  0  1  0  0  3  0  0  0  0  0  0
  184.5340  178.5960  147.0420 O   0  0  0  0  0  1  0  0  0  0  0  0
  183.8190  179.0090  144.7390 C   0  0  0  0  0  3  0  0  0  0  0  0
  183.8780  178.5010  143.3050 C   0  0  0  0  0  2  0  0  0  0  0  0
  184.6170  179.7650  143.6930 C   0  0  0  0  0  2  0  0  0  0  0  0
  1  2  1  6  0  0  0
  1 22  1  0  0  0  0
  1 41  1  0  0  0  0
  3  2  1  0  0  0  0
  4  3  1  0  0  0  0
  5 13  2  0  0  0  0
  6  8  1  6  0  0  0
  8 12  2  0  0  0  0
  9  5  1  1  0  0  0
  9  6  1  0  0  0  0
 11 19  1  6  0  0  0
 12 11  1  0  0  0  0
 13 11  1  0  0  0  0
 14  9  1  0  0  0  0
 15 14  1  0  0  0  0
 15 17  1  0  0  0  0
 16  7  1  6  0  0  0
 16  6  1  0  0  0  0
 16  4  1  0  0  0  0
 17 16  1  0  0  0  0
 17 10  1  1  0  0  0
 19 18  2  0  0  0  0
 20 19  1  0  0  0  0
 20 21  1  0  0  0  0
 22 38  1  6  0  0  0
 23 22  1  0  0  0  0
 24 23  2  0  0  0  0
 25 23  1  0  0  0  0
 26 25  1  0  0  0  0
 27 26  1  0  0  0  0
 28 27  1  0  0  0  0
 30 29  1  6  0  0  0
 30 28  1  0  0  0  0
 32 31  1  6  0  0  0
 32 35  1  0  0  0  0
 32 30  1  0  0  0  0
 33 35  1  0  0  0  0
 35 34  1  1  0  0  0
 35 36  1  0  0  0  0
 37 36  1  0  0  0  0
 38 40  1  0  0  0  0
 40 39  2  0  0  0  0
 41 42  1  0  0  0  0
 43 42  1  6  0  0  0
 43 49  1  0  0  0  0
 43 44  1  0  0  0  0
 44 45  1  6  0  0  0
 46 44  1  0  0  0  0
 46 48  1  0  0  0  0
 47 48  1  0  0  0  0
 49 50  1  0  0  0  0
 50 51  1  1  0  0  0
 52 50  1  0  0  0  0
 53 54  1  0  0  0  0
 53 52  1  0  0  0  0
 54 52  1  0  0  0  0
M  END
>  <MODEL>
8

>  <REMARK>
 VINA RESULT:      -5.5      1.707      2.100
  Name = 
  26 active torsions:
  status: ('A' for Active; 'I' for Inactive)
    1  A    between atoms: C_2  and  C_6
    2  A    between atoms: C_2  and  O_21
    3  A    between atoms: C_6  and  C_23
    4  A    between atoms: C_6  and  C_45
    5  A    between atoms: C_7  and  O_37
    6  A    between atoms: C_7  and  C_45
    7  A    between atoms: C_8  and  C_29
    8  A    between atoms: C_8  and  O_43
    9  A    between atoms: C_14  and  C_28
   10  A    between atoms: C_14  and  C_40
   11  A    between atoms: C_15  and  O_37
   12  A    between atoms: C_15  and  C_47
   13  A    between atoms: C_16  and  C_32
   14  A    between atoms: C_19  and  C_29
   15  A    between atoms: C_19  and  C_41
   16  A    between atoms: C_19  and  C_50
   17  A    between atoms: O_21  and  C_35
   18  A    between atoms: C_22  and  C_40
   19  A    between atoms: C_23  and  C_52
   20  A    between atoms: C_25  and  C_30
   21  A    between atoms: C_26  and  C_41
   22  A    between atoms: C_26  and  C_45
   23  A    between atoms: C_28  and  N_38
   24  A    between atoms: C_32  and  C_50
   25  A    between atoms: C_34  and  C_35
   26  A    between atoms: C_34  and  N_38
                            x       y       z     vdW  Elec       q    Type
                         _______ _______ _______ _____ _____    ______ ____

>  <TORSDO>
F 26

$$$$
=
 OpenBabel11062412473D

 54 56  0  0  1  0  0  0  0  0999 V2000
  188.2130  177.7850  139.3060 C   0  0  1  0  0  3  0  0  0  0  0  0
  187.0240  178.5300  138.7190 C   0  0  0  0  0  2  0  0  0  0  0  0
  186.0060  177.6260  138.4230 O   0  0  0  0  0  0  0  0  0  0  0  0
  185.7780  177.7690  137.0540 C   0  0  0  0  0  2  0  0  0  0  0  0
  181.3510  175.3350  138.0500 C   0  0  0  0  0  3  0  0  0  0  0  0
  183.5230  176.7190  137.5570 C   0  0  1  0  0  3  0  0  0  0  0  0
  184.2610  177.1740  135.3010 O   0  0  0  0  0  1  0  0  0  0  0  0
  182.7650  178.0210  137.6260 C   0  0  0  0  0  3  0  0  0  0  0  0
  182.6060  175.5140  137.2140 C   0  0  1  0  0  3  0  0  0  0  0  0
  186.0130  175.0450  137.6100 F   0  0  0  0  0  0  0  0  0  0  0  0
  181.6930  177.2180  139.6840 C   0  0  2  0  0  3  0  0  0  0  0  0
  181.9200  178.2600  138.6310 C   0  0  0  0  0  3  0  0  0  0  0  0
  180.9460  176.0540  139.1130 C   0  0  0  0  0  3  0  0  0  0  0  0
  183.3480  174.3200  137.2580 O   0  0  0  0  0  0  0  0  0  0  0  0
  184.2480  174.3540  136.1770 C   0  0  0  0  0  2  0  0  0  0  0  0
  184.7100  176.7830  136.5680 C   0  0  1  0  0  0  0  0  0  0  0  0
  185.3440  175.3880  136.4470 C   0  0  1  0  0  3  0  0  0  0  0  0
  179.9520  177.1890  141.3020 O   0  0  0  0  0  0  0  0  0  0  0  0
  180.9870  177.7730  140.8780 C   0  0  0  0  0  0  0  0  0  0  0  0
  181.4530  178.9620  141.5190 N   0  0  0  0  0  2  0  0  0  0  0  0
  180.8720  179.4080  142.7110 N   0  0  0  0  0  1  0  0  0  0  0  0
  189.4160  177.7660  138.3530 C   0  0  1  0  0  3  0  0  0  0  0  0
  190.5990  177.0290  138.9060 C   0  0  0  0  0  0  0  0  0  0  0  0
  190.4410  176.0790  139.7230 O   0  0  0  0  0  0  0  0  0  0  0  0
  191.8780  177.4250  138.5120 O   0  0  0  0  0  0  0  0  0  0  0  0
  193.0460  176.6550  138.7750 C   0  0  0  0  0  2  0  0  0  0  0  0
  193.4700  175.8660  137.5450 C   0  0  0  0  0  2  0  0  0  0  0  0
  192.9260  174.5130  137.5790 N   0  0  0  0  0  2  0  0  0  0  0  0
  193.2730  173.7210  135.3020 C   0  0  0  0  0  1  0  0  0  0  0  0
  193.7520  173.6520  136.7420 C   0  0  1  0  0  3  0  0  0  0  0  0
  195.8240  173.9930  135.5590 O   0  0  0  0  0  1  0  0  0  0  0  0
  195.2520  173.9910  136.8380 C   0  0  2  0  0  3  0  0  0  0  0  0
  195.6690  173.4160  139.1430 O   0  0  0  0  0  1  0  0  0  0  0  0
  195.9620  171.6640  137.5730 C   0  0  0  0  0  1  0  0  0  0  0  0
  196.0930  173.1600  137.8380 C   0  0  1  0  0  0  0  0  0  0  0  0
  197.5660  173.5610  137.7480 C   0  0  0  0  0  2  0  0  0  0  0  0
  198.2580  172.7790  136.8170 O   0  0  0  0  0  1  0  0  0  0  0  0
  189.0470  177.2760  136.9530 C   0  0  0  0  0  2  0  0  0  0  0  0
  189.0780  175.1350  135.7390 C   0  0  0  0  0  2  0  0  0  0  0  0
  189.6070  175.9160  136.6780 C   0  0  0  0  0  3  0  0  0  0  0  0
  188.5600  178.3140  140.6930 C   0  0  0  0  0  2  0  0  0  0  0  0
  187.3370  178.2450  141.5920 C   0  0  0  0  0  2  0  0  0  0  0  0
  187.6400  177.4330  142.8510 C   0  0  1  0  0  3  0  0  0  0  0  0
  189.1070  176.9720  142.8620 C   0  0  2  0  0  3  0  0  0  0  0  0
  189.1910  175.5760  142.8960 O   0  0  0  0  0  1  0  0  0  0  0  0
  189.8550  177.5300  144.0670 C   0  0  0  0  0  2  0  0  0  0  0  0
  191.6350  176.8200  145.1590 C   0  0  0  0  0  1  0  0  0  0  0  0
  191.2260  177.3110  143.9200 O   0  0  0  0  0  0  0  0  0  0  0  0
  187.3630  178.3040  144.0710 C   0  0  0  0  0  2  0  0  0  0  0  0
  186.1300  177.8430  144.8300 C   0  0  1  0  0  3  0  0  0  0  0  0
  186.5400  177.1330  145.9620 O   0  0  0  0  0  1  0  0  0  0  0  0
  185.2360  179.0460  145.1730 C   0  0  0  0  0  3  0  0  0  0  0  0
  183.7610  178.8280  144.8680 C   0  0  0  0  0  2  0  0  0  0  0  0
  184.6260  179.6180  143.9070 C   0  0  0  0  0  2  0  0  0  0  0  0
  1  2  1  6  0  0  0
  1 41  1  0  0  0  0
  3  2  1  0  0  0  0
  4  3  1  0  0  0  0
  5 13  2  0  0  0  0
  6  8  1  6  0  0  0
  8 12  2  0  0  0  0
  9 14  1  0  0  0  0
  9  6  1  0  0  0  0
  9  5  1  1  0  0  0
 11 19  1  1  0  0  0
 12 11  1  0  0  0  0
 13 11  1  0  0  0  0
 15 17  1  0  0  0  0
 15 14  1  0  0  0  0
 16  7  1  6  0  0  0
 16  4  1  0  0  0  0
 16  6  1  0  0  0  0
 17 16  1  0  0  0  0
 17 10  1  1  0  0  0
 19 18  2  0  0  0  0
 19 20  1  0  0  0  0
 20 21  1  0  0  0  0
 22 38  1  6  0  0  0
 22 23  1  0  0  0  0
 22  1  1  0  0  0  0
 23 24  2  0  0  0  0
 25 26  1  0  0  0  0
 25 23  1  0  0  0  0
 27 28  1  0  0  0  0
 27 26  1  0  0  0  0
 30 29  1  6  0  0  0
 30 32  1  0  0  0  0
 30 28  1  0  0  0  0
 32 31  1  6  0  0  0
 32 35  1  0  0  0  0
 35 34  1  6  0  0  0
 35 33  1  0  0  0  0
 36 35  1  0  0  0  0
 37 36  1  0  0  0  0
 39 40  2  0  0  0  0
 40 38  1  0  0  0  0
 41 42  1  0  0  0  0
 43 42  1  6  0  0  0
 43 44  1  0  0  0  0
 43 49  1  0  0  0  0
 44 45  1  1  0  0  0
 44 46  1  0  0  0  0
 48 46  1  0  0  0  0
 48 47  1  0  0  0  0
 49 50  1  0  0  0  0
 50 52  1  0  0  0  0
 50 51  1  1  0  0  0
 53 52  1  0  0  0  0
 54 53  1  0  0  0  0
 54 52  1  0  0  0  0
M  END
>  <MODEL>
9

>  <REMARK>
 VINA RESULT:      -5.4      1.744      3.021
  Name = 
  26 active torsions:
  status: ('A' for Active; 'I' for Inactive)
    1  A    between atoms: C_2  and  C_6
    2  A    between atoms: C_2  and  O_21
    3  A    between atoms: C_6  and  C_23
    4  A    between atoms: C_6  and  C_45
    5  A    between atoms: C_7  and  O_37
    6  A    between atoms: C_7  and  C_45
    7  A    between atoms: C_8  and  C_29
    8  A    between atoms: C_8  and  O_43
    9  A    between atoms: C_14  and  C_28
   10  A    between atoms: C_14  and  C_40
   11  A    between atoms: C_15  and  O_37
   12  A    between atoms: C_15  and  C_47
   13  A    between atoms: C_16  and  C_32
   14  A    between atoms: C_19  and  C_29
   15  A    between atoms: C_19  and  C_41
   16  A    between atoms: C_19  and  C_50
   17  A    between atoms: O_21  and  C_35
   18  A    between atoms: C_22  and  C_40
   19  A    between atoms: C_23  and  C_52
   20  A    between atoms: C_25  and  C_30
   21  A    between atoms: C_26  and  C_41
   22  A    between atoms: C_26  and  C_45
   23  A    between atoms: C_28  and  N_38
   24  A    between atoms: C_32  and  C_50
   25  A    between atoms: C_34  and  C_35
   26  A    between atoms: C_34  and  N_38
                            x       y       z     vdW  Elec       q    Type
                         _______ _______ _______ _____ _____    ______ ____

>  <TORSDO>
F 26

$$$$
