=
 OpenBabel11062413463D

 35 39  0  0  1  0  0  0  0  0999 V2000
  186.7650  178.6620  140.0790 N   0  0  0  0  0  0  0  0  0  0  0  0
  187.2290  177.9260  142.3320 C   0  0  0  0  0  3  0  0  0  0  0  0
  185.0750  178.8270  141.7200 C   0  0  0  0  0  0  0  0  0  0  0  0
  183.2350  179.7860  139.3320 C   0  0  0  0  0  0  0  0  0  0  0  0
  180.0180  178.5870  142.1770 C   0  0  0  0  0  2  0  0  0  0  0  0
  181.6010  178.7220  144.0610 C   0  0  0  0  0  3  0  0  0  0  0  0
  184.6620  179.6280  139.3800 N   0  0  0  0  0  2  0  0  0  0  0  0
  180.4590  180.1740  139.2070 C   0  0  0  0  0  3  0  0  0  0  0  0
  182.7010  180.8460  138.5920 C   0  0  0  0  0  3  0  0  0  0  0  0
  180.0610  178.1990  140.7000 C   0  0  0  0  0  2  0  0  0  0  0  0
  182.3650  178.8910  139.9690 C   0  0  0  0  0  3  0  0  0  0  0  0
  183.8900  179.1020  142.2890 N   0  0  0  0  0  0  0  0  0  0  0  0
  183.9680  178.7240  143.5610 N   0  0  0  0  0  0  0  0  0  0  0  0
  185.9290  178.2980  142.6490 C   0  0  0  0  0  0  0  0  0  0  0  0
  180.9790  179.0940  139.9260 C   0  0  0  0  0  0  0  0  0  0  0  0
  182.8660  178.7800  144.4800 C   0  0  0  0  0  3  0  0  0  0  0  0
  185.4790  179.0080  140.3900 C   0  0  0  0  0  0  0  0  0  0  0  0
  187.6310  178.1280  140.9990 C   0  0  0  0  0  3  0  0  0  0  0  0
  181.3260  178.5180  142.7130 O   0  0  0  0  0  0  0  0  0  0  0  0
  181.3120  181.0460  138.5220 C   0  0  0  0  0  0  0  0  0  0  0  0
  185.2070  178.2450  143.8220 C   0  0  0  0  0  0  0  0  0  0  0  0
  180.7390  182.1320  137.7800 N   0  0  0  0  0  2  0  0  0  0  0  0
  180.5130  182.1790  136.3660 C   0  0  0  0  0  0  0  0  0  0  0  0
  180.8200  181.2110  135.6220 O   0  0  0  0  0  0  0  0  0  0  0  0
  179.9040  183.3940  135.7660 C   0  0  0  0  0  1  0  0  0  0  0  0
  185.6840  177.7420  145.1450 C   0  0  0  0  0  2  0  0  0  0  0  0
  187.0090  178.3920  145.4930 C   0  0  0  0  0  2  0  0  0  0  0  0
  189.0630  177.8000  146.7240 C   0  0  1  0  0  3  0  0  0  0  0  0
  189.4120  177.8660  145.2510 C   0  0  0  0  0  2  0  0  0  0  0  0
  188.0670  177.3250  145.6830 C   0  0  2  0  0  3  0  0  0  0  0  0
  189.7170  176.6500  147.3260 N   0  0  0  0  0  2  0  0  0  0  0  0
  191.0480  177.0810  147.7220 C   0  0  0  0  0  2  0  0  0  0  0  0
  192.1200  175.6850  145.9600 O   0  0  0  0  0  0  0  0  0  0  0  0
  192.8490  175.5840  148.1310 O   0  0  0  0  0  1  0  0  0  0  0  0
  192.0530  176.0760  147.2910 C   0  0  0  0  0  0  0  0  0  0  0  0
  1 17  2  0  0  0  0
  1 18  1  0  0  0  0
  2 14  1  0  0  0  0
  3 12  2  0  0  0  0
  3 14  1  0  0  0  0
  4  7  1  0  0  0  0
  4 11  1  0  0  0  0
  5 19  1  0  0  0  0
  6 16  2  0  0  0  0
  7 17  1  0  0  0  0
  8 15  1  0  0  0  0
  9  4  2  0  0  0  0
 10  5  1  0  0  0  0
 12 13  1  0  0  0  0
 13 21  1  0  0  0  0
 13 16  1  0  0  0  0
 14 21  2  0  0  0  0
 15 11  2  0  0  0  0
 15 10  1  0  0  0  0
 17  3  1  0  0  0  0
 18  2  2  0  0  0  0
 19  6  1  0  0  0  0
 20  9  1  0  0  0  0
 20  8  2  0  0  0  0
 21 26  1  0  0  0  0
 22 20  1  0  0  0  0
 23 22  1  0  0  0  0
 24 23  2  0  0  0  0
 25 23  1  0  0  0  0
 26 27  1  0  0  0  0
 28 31  1  1  0  0  0
 29 30  1  0  0  0  0
 29 28  1  0  0  0  0
 30 27  1  6  0  0  0
 30 28  1  0  0  0  0
 31 32  1  0  0  0  0
 33 35  2  0  0  0  0
 35 32  1  0  0  0  0
 35 34  1  0  0  0  0
M  END
>  <MODEL>
1

>  <REMARK>
 VINA RESULT:      -8.9      0.000      0.000
  Name = 
  7 active torsions:
  status: ('A' for Active; 'I' for Inactive)
    1  A    between atoms: C_4  and  N_5
    2  A    between atoms: N_5  and  C_7
    3  A    between atoms: C_7  and  C_20
    4  A    between atoms: N_8  and  C_34
    5  A    between atoms: C_21  and  C_23
    6  A    between atoms: C_21  and  C_30
    7  A    between atoms: C_23  and  C_35
                            x       y       z     vdW  Elec       q    Type
                         _______ _______ _______ _____ _____    ______ ____

>  <TORSDO>
F 7

$$$$
=
 OpenBabel11062413463D

 35 39  0  0  1  0  0  0  0  0999 V2000
  180.7160  177.7730  140.5820 N   0  0  0  0  0  0  0  0  0  0  0  0
  181.4400  178.9650  142.5530 C   0  0  0  0  0  3  0  0  0  0  0  0
  183.0260  177.9670  141.0320 C   0  0  0  0  0  0  0  0  0  0  0  0
  183.4110  176.5350  138.2380 C   0  0  0  0  0  0  0  0  0  0  0  0
  187.4790  178.3260  138.6050 C   0  0  0  0  0  2  0  0  0  0  0  0
  187.1720  178.5830  141.0360 C   0  0  0  0  0  3  0  0  0  0  0  0
  182.2220  176.6920  139.0290 N   0  0  0  0  0  2  0  0  0  0  0  0
  185.7170  176.1450  136.6880 C   0  0  0  0  0  3  0  0  0  0  0  0
  183.5920  175.3460  137.5240 C   0  0  0  0  0  3  0  0  0  0  0  0
  186.6090  178.3930  137.3510 C   0  0  0  0  0  2  0  0  0  0  0  0
  184.3730  177.5500  138.1290 C   0  0  0  0  0  3  0  0  0  0  0  0
  184.3550  177.8250  140.8990 N   0  0  0  0  0  0  0  0  0  0  0  0
  184.9220  178.4620  141.9200 N   0  0  0  0  0  0  0  0  0  0  0  0
  182.7430  178.6760  142.1680 C   0  0  0  0  0  0  0  0  0  0  0  0
  185.5350  177.3490  137.3730 C   0  0  0  0  0  0  0  0  0  0  0  0
  186.3410  178.6090  142.0810 C   0  0  0  0  0  3  0  0  0  0  0  0
  182.0010  177.5070  140.1950 C   0  0  0  0  0  0  0  0  0  0  0  0
  180.4170  178.4840  141.7150 C   0  0  0  0  0  3  0  0  0  0  0  0
  186.6600  178.5000  139.7460 O   0  0  0  0  0  0  0  0  0  0  0  0
  184.7410  175.1430  136.7440 C   0  0  0  0  0  0  0  0  0  0  0  0
  183.9650  178.9790  142.7270 C   0  0  0  0  0  0  0  0  0  0  0  0
  184.9560  173.9280  136.0110 N   0  0  0  0  0  2  0  0  0  0  0  0
  185.5550  172.7240  136.5050 C   0  0  0  0  0  0  0  0  0  0  0  0
  185.9630  172.6350  137.6930 O   0  0  0  0  0  0  0  0  0  0  0  0
  185.6970  171.5570  135.5980 C   0  0  0  0  0  1  0  0  0  0  0  0
  184.2100  179.7470  143.9830 C   0  0  0  0  0  2  0  0  0  0  0  0
  184.4130  178.7890  145.1400 C   0  0  0  0  0  2  0  0  0  0  0  0
  186.5850  177.8160  145.7870 C   0  0  1  0  0  3  0  0  0  0  0  0
  185.8660  178.2210  147.0560 C   0  0  0  0  0  2  0  0  0  0  0  0
  185.7380  179.0740  145.8140 C   0  0  2  0  0  3  0  0  0  0  0  0
  187.9890  178.1770  145.8880 N   0  0  0  0  0  2  0  0  0  0  0  0
  188.7560  177.0020  145.5080 C   0  0  0  0  0  2  0  0  0  0  0  0
  188.5830  175.9810  143.2420 O   0  0  0  0  0  0  0  0  0  0  0  0
  189.6400  177.9950  143.5370 O   0  0  0  0  0  1  0  0  0  0  0  0
  189.0230  177.0250  144.0460 C   0  0  0  0  0  0  0  0  0  0  0  0
  1 18  1  0  0  0  0
  3 14  1  0  0  0  0
  4  7  1  0  0  0  0
  5 19  1  0  0  0  0
  6 16  2  0  0  0  0
  7 17  1  0  0  0  0
  8 20  2  0  0  0  0
  8 15  1  0  0  0  0
  9  4  2  0  0  0  0
 10 15  1  0  0  0  0
 10  5  1  0  0  0  0
 11  4  1  0  0  0  0
 12  3  2  0  0  0  0
 12 13  1  0  0  0  0
 13 16  1  0  0  0  0
 13 21  1  0  0  0  0
 14  2  1  0  0  0  0
 14 21  2  0  0  0  0
 15 11  2  0  0  0  0
 17  1  2  0  0  0  0
 17  3  1  0  0  0  0
 18  2  2  0  0  0  0
 19  6  1  0  0  0  0
 20  9  1  0  0  0  0
 21 26  1  0  0  0  0
 22 23  1  0  0  0  0
 22 20  1  0  0  0  0
 23 24  2  0  0  0  0
 25 23  1  0  0  0  0
 26 27  1  0  0  0  0
 28 30  1  0  0  0  0
 28 31  1  1  0  0  0
 28 29  1  0  0  0  0
 30 27  1  6  0  0  0
 30 29  1  0  0  0  0
 32 31  1  0  0  0  0
 33 35  2  0  0  0  0
 34 35  1  0  0  0  0
 35 32  1  0  0  0  0
M  END
>  <MODEL>
2

>  <REMARK>
 VINA RESULT:      -8.3      3.845      5.867
  Name = 
  7 active torsions:
  status: ('A' for Active; 'I' for Inactive)
    1  A    between atoms: C_4  and  N_5
    2  A    between atoms: N_5  and  C_7
    3  A    between atoms: C_7  and  C_20
    4  A    between atoms: N_8  and  C_34
    5  A    between atoms: C_21  and  C_23
    6  A    between atoms: C_21  and  C_30
    7  A    between atoms: C_23  and  C_35
                            x       y       z     vdW  Elec       q    Type
                         _______ _______ _______ _____ _____    ______ ____

>  <TORSDO>
F 7

$$$$
=
 OpenBabel11062413463D

 35 39  0  0  1  0  0  0  0  0999 V2000
  181.5120  178.7240  141.8980 N   0  0  0  0  0  0  0  0  0  0  0  0
  182.6890  179.2360  143.9430 C   0  0  0  0  0  3  0  0  0  0  0  0
  183.8270  178.2800  142.0420 C   0  0  0  0  0  0  0  0  0  0  0  0
  183.5830  177.4780  138.9920 C   0  0  0  0  0  0  0  0  0  0  0  0
  187.9870  178.1660  139.1220 C   0  0  0  0  0  2  0  0  0  0  0  0
  187.9760  177.9210  141.5740 C   0  0  0  0  0  3  0  0  0  0  0  0
  182.5480  177.7150  139.9600 N   0  0  0  0  0  2  0  0  0  0  0  0
  185.5660  176.9410  137.0800 C   0  0  0  0  0  3  0  0  0  0  0  0
  183.3920  176.4760  138.0360 C   0  0  0  0  0  3  0  0  0  0  0  0
  187.0530  178.7140  138.0450 C   0  0  0  0  0  2  0  0  0  0  0  0
  184.7560  178.2450  138.9520 C   0  0  0  0  0  3  0  0  0  0  0  0
  185.0590  177.8750  141.6940 N   0  0  0  0  0  0  0  0  0  0  0  0
  185.8590  178.1150  142.7290 N   0  0  0  0  0  0  0  0  0  0  0  0
  183.8360  178.7550  143.3260 C   0  0  0  0  0  0  0  0  0  0  0  0
  185.7570  177.9650  138.0110 C   0  0  0  0  0  0  0  0  0  0  0  0
  187.2770  177.8940  142.7110 C   0  0  0  0  0  3  0  0  0  0  0  0
  182.6480  178.2700  141.2850 C   0  0  0  0  0  0  0  0  0  0  0  0
  181.5060  179.2060  143.1820 C   0  0  0  0  0  3  0  0  0  0  0  0
  187.3460  178.2540  140.3810 O   0  0  0  0  0  0  0  0  0  0  0  0
  184.3770  176.2020  137.0730 C   0  0  0  0  0  0  0  0  0  0  0  0
  185.1410  178.6360  143.7520 C   0  0  0  0  0  0  0  0  0  0  0  0
  184.2110  175.1710  136.0890 N   0  0  0  0  0  2  0  0  0  0  0  0
  184.6090  173.8000  136.2080 C   0  0  0  0  0  0  0  0  0  0  0  0
  185.1690  173.3690  137.2490 O   0  0  0  0  0  0  0  0  0  0  0  0
  184.3550  172.8680  135.0800 C   0  0  0  0  0  1  0  0  0  0  0  0
  185.6840  179.0190  145.0890 C   0  0  0  0  0  2  0  0  0  0  0  0
  186.2800  177.8020  145.7690 C   0  0  0  0  0  2  0  0  0  0  0  0
  188.6450  177.1690  146.0630 C   0  0  1  0  0  3  0  0  0  0  0  0
  187.9760  177.0920  147.4200 C   0  0  0  0  0  2  0  0  0  0  0  0
  187.5800  178.1790  146.4450 C   0  0  2  0  0  3  0  0  0  0  0  0
  189.9590  177.7740  146.2030 N   0  0  0  0  0  2  0  0  0  0  0  0
  190.9170  176.8390  145.6390 C   0  0  0  0  0  2  0  0  0  0  0  0
  191.8870  176.9680  147.9300 O   0  0  0  0  0  1  0  0  0  0  0  0
  192.4480  175.2480  146.5210 O   0  0  0  0  0  0  0  0  0  0  0  0
  191.7950  176.3050  146.7130 C   0  0  0  0  0  0  0  0  0  0  0  0
  1 18  1  0  0  0  0
  3 14  1  0  0  0  0
  4  7  1  0  0  0  0
  5 19  1  0  0  0  0
  6 16  2  0  0  0  0
  7 17  1  0  0  0  0
  8 15  1  0  0  0  0
  9  4  2  0  0  0  0
 10  5  1  0  0  0  0
 11  4  1  0  0  0  0
 12  3  2  0  0  0  0
 12 13  1  0  0  0  0
 13 21  1  0  0  0  0
 14 21  2  0  0  0  0
 14  2  1  0  0  0  0
 15 10  1  0  0  0  0
 15 11  2  0  0  0  0
 16 13  1  0  0  0  0
 17  1  2  0  0  0  0
 17  3  1  0  0  0  0
 18  2  2  0  0  0  0
 19  6  1  0  0  0  0
 20  8  2  0  0  0  0
 20  9  1  0  0  0  0
 21 26  1  0  0  0  0
 22 23  1  0  0  0  0
 22 20  1  0  0  0  0
 23 24  2  0  0  0  0
 25 23  1  0  0  0  0
 26 27  1  0  0  0  0
 28 31  1  1  0  0  0
 28 30  1  0  0  0  0
 28 29  1  0  0  0  0
 30 27  1  6  0  0  0
 30 29  1  0  0  0  0
 32 31  1  0  0  0  0
 32 35  1  0  0  0  0
 34 35  2  0  0  0  0
 35 33  1  0  0  0  0
M  END
>  <MODEL>
3

>  <REMARK>
 VINA RESULT:      -8.2      3.259      5.080
  Name = 
  7 active torsions:
  status: ('A' for Active; 'I' for Inactive)
    1  A    between atoms: C_4  and  N_5
    2  A    between atoms: N_5  and  C_7
    3  A    between atoms: C_7  and  C_20
    4  A    between atoms: N_8  and  C_34
    5  A    between atoms: C_21  and  C_23
    6  A    between atoms: C_21  and  C_30
    7  A    between atoms: C_23  and  C_35
                            x       y       z     vdW  Elec       q    Type
                         _______ _______ _______ _____ _____    ______ ____

>  <TORSDO>
F 7

$$$$
=
 OpenBabel11062413463D

 35 39  0  0  1  0  0  0  0  0999 V2000
  190.8200  177.5760  142.3370 N   0  0  0  0  0  0  0  0  0  0  0  0
  188.5780  178.3720  142.7500 C   0  0  0  0  0  3  0  0  0  0  0  0
  189.3070  177.7550  140.5330 C   0  0  0  0  0  0  0  0  0  0  0  0
  191.6160  176.4330  138.8240 C   0  0  0  0  0  0  0  0  0  0  0  0
  188.2030  175.5170  136.1040 C   0  0  0  0  0  2  0  0  0  0  0  0
  186.8500  177.2780  137.1720 C   0  0  0  0  0  3  0  0  0  0  0  0
  191.6630  176.9860  140.1490 N   0  0  0  0  0  2  0  0  0  0  0  0
  191.5960  175.4000  136.2150 C   0  0  0  0  0  3  0  0  0  0  0  0
  192.7240  176.6010  137.9860 C   0  0  0  0  0  3  0  0  0  0  0  0
  189.2720  174.5110  136.5270 C   0  0  0  0  0  2  0  0  0  0  0  0
  190.5160  175.6980  138.3610 C   0  0  0  0  0  3  0  0  0  0  0  0
  188.8220  177.7060  139.2820 N   0  0  0  0  0  0  0  0  0  0  0  0
  187.5540  178.1010  139.3360 N   0  0  0  0  0  0  0  0  0  0  0  0
  188.3440  178.2170  141.3900 C   0  0  0  0  0  0  0  0  0  0  0  0
  190.4950  175.1990  137.0520 C   0  0  0  0  0  0  0  0  0  0  0  0
  186.6690  178.1030  138.2050 C   0  0  0  0  0  3  0  0  0  0  0  0
  190.5800  177.4050  141.0010 C   0  0  0  0  0  0  0  0  0  0  0  0
  189.8650  178.0350  143.2080 C   0  0  0  0  0  3  0  0  0  0  0  0
  187.8640  176.3270  137.2140 O   0  0  0  0  0  0  0  0  0  0  0  0
  192.7240  176.0860  136.6800 C   0  0  0  0  0  0  0  0  0  0  0  0
  187.2320  178.4390  140.6070 C   0  0  0  0  0  0  0  0  0  0  0  0
  193.8410  176.2550  135.7970 N   0  0  0  0  0  2  0  0  0  0  0  0
  195.1650  175.7390  135.9810 C   0  0  0  0  0  0  0  0  0  0  0  0
  195.4660  175.0560  136.9950 O   0  0  0  0  0  0  0  0  0  0  0  0
  196.2030  176.0150  134.9550 C   0  0  0  0  0  1  0  0  0  0  0  0
  185.9040  178.9470  141.0620 C   0  0  0  0  0  2  0  0  0  0  0  0
  185.4400  178.1600  142.2720 C   0  0  0  0  0  2  0  0  0  0  0  0
  185.3090  178.3100  144.7300 C   0  0  1  0  0  3  0  0  0  0  0  0
  183.9560  178.7000  144.1720 C   0  0  0  0  0  2  0  0  0  0  0  0
  185.2170  179.0990  143.4380 C   0  0  2  0  0  3  0  0  0  0  0  0
  185.6610  179.2050  145.8190 N   0  0  0  0  0  2  0  0  0  0  0  0
  185.7690  178.3910  147.0180 C   0  0  0  0  0  2  0  0  0  0  0  0
  187.9460  177.3320  146.4320 O   0  0  0  0  0  0  0  0  0  0  0  0
  187.7320  178.5770  148.3460 O   0  0  0  0  0  1  0  0  0  0  0  0
  187.1980  178.1080  147.3080 C   0  0  0  0  0  0  0  0  0  0  0  0
  1 18  1  0  0  0  0
  2 18  2  0  0  0  0
  3 17  1  0  0  0  0
  3 14  1  0  0  0  0
  4  7  1  0  0  0  0
  5 10  1  0  0  0  0
  5 19  1  0  0  0  0
  6 19  1  0  0  0  0
  6 16  2  0  0  0  0
  7 17  1  0  0  0  0
  8 20  2  0  0  0  0
  8 15  1  0  0  0  0
  9  4  2  0  0  0  0
 10 15  1  0  0  0  0
 11  4  1  0  0  0  0
 12 13  1  0  0  0  0
 12  3  2  0  0  0  0
 13 21  1  0  0  0  0
 14  2  1  0  0  0  0
 15 11  2  0  0  0  0
 16 13  1  0  0  0  0
 17  1  2  0  0  0  0
 20  9  1  0  0  0  0
 21 26  1  0  0  0  0
 21 14  2  0  0  0  0
 22 23  1  0  0  0  0
 22 20  1  0  0  0  0
 23 24  2  0  0  0  0
 25 23  1  0  0  0  0
 26 27  1  0  0  0  0
 28 31  1  1  0  0  0
 29 28  1  0  0  0  0
 30 27  1  6  0  0  0
 30 29  1  0  0  0  0
 30 28  1  0  0  0  0
 31 32  1  0  0  0  0
 32 35  1  0  0  0  0
 33 35  2  0  0  0  0
 35 34  1  0  0  0  0
M  END
>  <MODEL>
4

>  <REMARK>
 VINA RESULT:      -8.0      5.049      8.706
  Name = 
  7 active torsions:
  status: ('A' for Active; 'I' for Inactive)
    1  A    between atoms: C_4  and  N_5
    2  A    between atoms: N_5  and  C_7
    3  A    between atoms: C_7  and  C_20
    4  A    between atoms: N_8  and  C_34
    5  A    between atoms: C_21  and  C_23
    6  A    between atoms: C_21  and  C_30
    7  A    between atoms: C_23  and  C_35
                            x       y       z     vdW  Elec       q    Type
                         _______ _______ _______ _____ _____    ______ ____

>  <TORSDO>
F 7

$$$$
=
 OpenBabel11062413463D

 35 39  0  0  1  0  0  0  0  0999 V2000
  183.2480  179.5190  142.9470 N   0  0  0  0  0  0  0  0  0  0  0  0
  184.2030  178.9820  145.0990 C   0  0  0  0  0  3  0  0  0  0  0  0
  185.2220  178.2260  143.0460 C   0  0  0  0  0  0  0  0  0  0  0  0
  185.1870  178.4320  139.8900 C   0  0  0  0  0  0  0  0  0  0  0  0
  189.4860  177.3730  140.4140 C   0  0  0  0  0  2  0  0  0  0  0  0
  189.0190  176.4940  142.6680 C   0  0  0  0  0  3  0  0  0  0  0  0
  184.1600  178.7640  140.8390 N   0  0  0  0  0  2  0  0  0  0  0  0
  187.1330  177.7380  137.9920 C   0  0  0  0  0  3  0  0  0  0  0  0
  184.8130  177.8720  138.6640 C   0  0  0  0  0  3  0  0  0  0  0  0
  188.9710  178.4980  139.5190 C   0  0  0  0  0  2  0  0  0  0  0  0
  186.5420  178.6890  140.1380 C   0  0  0  0  0  3  0  0  0  0  0  0
  186.2790  177.5030  142.6430 N   0  0  0  0  0  0  0  0  0  0  0  0
  186.9450  177.1390  143.7350 N   0  0  0  0  0  0  0  0  0  0  0  0
  185.1960  178.2960  144.4130 C   0  0  0  0  0  0  0  0  0  0  0  0
  187.5180  178.3240  139.2010 C   0  0  0  0  0  0  0  0  0  0  0  0
  188.1890  176.4210  143.7100 C   0  0  0  0  0  3  0  0  0  0  0  0
  184.2400  178.8600  142.2730 C   0  0  0  0  0  0  0  0  0  0  0  0
  183.2110  179.6000  144.3150 C   0  0  0  0  0  3  0  0  0  0  0  0
  188.7300  177.3480  141.6100 O   0  0  0  0  0  0  0  0  0  0  0  0
  185.7800  177.5240  137.7070 C   0  0  0  0  0  0  0  0  0  0  0  0
  186.3020  177.5910  144.8370 C   0  0  0  0  0  0  0  0  0  0  0  0
  185.4240  176.9370  136.4470 N   0  0  0  0  0  2  0  0  0  0  0  0
  185.1960  175.5480  136.1820 C   0  0  0  0  0  0  0  0  0  0  0  0
  185.2990  174.6830  137.0910 O   0  0  0  0  0  0  0  0  0  0  0  0
  184.8330  175.1190  134.8070 C   0  0  0  0  0  1  0  0  0  0  0  0
  186.7330  177.3670  146.2490 C   0  0  0  0  0  2  0  0  0  0  0  0
  187.5300  178.5610  146.7380 C   0  0  0  0  0  2  0  0  0  0  0  0
  189.5240  177.1400  147.0270 C   0  0  1  0  0  3  0  0  0  0  0  0
  188.4460  176.6140  147.9520 C   0  0  0  0  0  2  0  0  0  0  0  0
  188.5830  178.1030  147.7240 C   0  0  2  0  0  3  0  0  0  0  0  0
  190.8030  177.1300  147.7180 N   0  0  0  0  0  2  0  0  0  0  0  0
  191.6820  176.2490  146.9660 C   0  0  0  0  0  2  0  0  0  0  0  0
  191.6810  175.6620  144.5450 O   0  0  0  0  0  0  0  0  0  0  0  0
  191.6740  177.8550  145.2130 O   0  0  0  0  0  1  0  0  0  0  0  0
  191.6810  176.6390  145.5320 C   0  0  0  0  0  0  0  0  0  0  0  0
  1 18  1  0  0  0  0
  3 14  1  0  0  0  0
  4 11  1  0  0  0  0
  4  7  1  0  0  0  0
  5 19  1  0  0  0  0
  6 16  2  0  0  0  0
  7 17  1  0  0  0  0
  8 15  1  0  0  0  0
  9  4  2  0  0  0  0
 10  5  1  0  0  0  0
 12  3  2  0  0  0  0
 12 13  1  0  0  0  0
 13 21  1  0  0  0  0
 14 21  2  0  0  0  0
 14  2  1  0  0  0  0
 15 10  1  0  0  0  0
 15 11  2  0  0  0  0
 16 13  1  0  0  0  0
 17  1  2  0  0  0  0
 17  3  1  0  0  0  0
 18  2  2  0  0  0  0
 19  6  1  0  0  0  0
 20  8  2  0  0  0  0
 20  9  1  0  0  0  0
 21 26  1  0  0  0  0
 22 20  1  0  0  0  0
 23 22  1  0  0  0  0
 23 24  2  0  0  0  0
 25 23  1  0  0  0  0
 26 27  1  0  0  0  0
 28 31  1  1  0  0  0
 28 30  1  0  0  0  0
 28 29  1  0  0  0  0
 30 27  1  6  0  0  0
 30 29  1  0  0  0  0
 32 31  1  0  0  0  0
 33 35  2  0  0  0  0
 34 35  1  0  0  0  0
 35 32  1  0  0  0  0
M  END
>  <MODEL>
5

>  <REMARK>
 VINA RESULT:      -7.9      3.554      5.133
  Name = 
  7 active torsions:
  status: ('A' for Active; 'I' for Inactive)
    1  A    between atoms: C_4  and  N_5
    2  A    between atoms: N_5  and  C_7
    3  A    between atoms: C_7  and  C_20
    4  A    between atoms: N_8  and  C_34
    5  A    between atoms: C_21  and  C_23
    6  A    between atoms: C_21  and  C_30
    7  A    between atoms: C_23  and  C_35
                            x       y       z     vdW  Elec       q    Type
                         _______ _______ _______ _____ _____    ______ ____

>  <TORSDO>
F 7

$$$$
=
 OpenBabel11062413463D

 35 39  0  0  1  0  0  0  0  0999 V2000
  184.2520  178.3080  145.0390 N   0  0  0  0  0  0  0  0  0  0  0  0
  183.4800  178.9310  142.8380 C   0  0  0  0  0  3  0  0  0  0  0  0
  185.8100  178.4760  143.2730 C   0  0  0  0  0  0  0  0  0  0  0  0
  187.9040  177.3990  145.3850 C   0  0  0  0  0  0  0  0  0  0  0  0
  190.1650  176.3960  141.6740 C   0  0  0  0  0  2  0  0  0  0  0  0
  188.8140  178.0060  140.3880 C   0  0  0  0  0  3  0  0  0  0  0  0
  186.5680  177.8860  145.5890 N   0  0  0  0  0  2  0  0  0  0  0  0
  190.5410  176.4990  145.0480 C   0  0  0  0  0  3  0  0  0  0  0  0
  188.8780  177.6830  146.3480 C   0  0  0  0  0  3  0  0  0  0  0  0
  189.9570  175.4430  142.8500 C   0  0  0  0  0  2  0  0  0  0  0  0
  188.2500  176.6160  144.2740 C   0  0  0  0  0  3  0  0  0  0  0  0
  186.9810  178.4580  142.6160 N   0  0  0  0  0  0  0  0  0  0  0  0
  186.7260  178.7640  141.3480 N   0  0  0  0  0  0  0  0  0  0  0  0
  184.8010  178.8290  142.4190 C   0  0  0  0  0  0  0  0  0  0  0  0
  189.5700  176.1830  144.0930 C   0  0  0  0  0  0  0  0  0  0  0  0
  187.7180  178.7650  140.3100 C   0  0  0  0  0  3  0  0  0  0  0  0
  185.5480  178.1890  144.6190 C   0  0  0  0  0  0  0  0  0  0  0  0
  183.2300  178.6570  144.1950 C   0  0  0  0  0  3  0  0  0  0  0  0
  188.9720  177.1240  141.4520 O   0  0  0  0  0  0  0  0  0  0  0  0
  190.1990  177.2340  146.1890 C   0  0  0  0  0  0  0  0  0  0  0  0
  185.4040  179.0160  141.1940 C   0  0  0  0  0  0  0  0  0  0  0  0
  191.2190  177.5220  147.1560 N   0  0  0  0  0  2  0  0  0  0  0  0
  191.9640  176.5710  147.9250 C   0  0  0  0  0  0  0  0  0  0  0  0
  191.7660  175.3330  147.8050 O   0  0  0  0  0  0  0  0  0  0  0  0
  192.9890  177.0540  148.8850 C   0  0  0  0  0  1  0  0  0  0  0  0
  184.7370  179.4100  139.9180 C   0  0  0  0  0  2  0  0  0  0  0  0
  184.0420  178.2080  139.3100 C   0  0  0  0  0  2  0  0  0  0  0  0
  181.7300  177.5700  139.8840 C   0  0  1  0  0  3  0  0  0  0  0  0
  181.9110  177.3540  138.3960 C   0  0  0  0  0  2  0  0  0  0  0  0
  182.5810  178.5290  139.0730 C   0  0  2  0  0  3  0  0  0  0  0  0
  180.4300  178.1700  140.1330 N   0  0  0  0  0  2  0  0  0  0  0  0
  179.8370  177.4480  141.2460 C   0  0  0  0  0  2  0  0  0  0  0  0
  179.6440  177.7370  143.7130 O   0  0  0  0  0  1  0  0  0  0  0  0
  180.0100  179.5450  142.3510 O   0  0  0  0  0  0  0  0  0  0  0  0
  179.8340  178.3050  142.4600 C   0  0  0  0  0  0  0  0  0  0  0  0
  2 18  2  0  0  0  0
  3 17  1  0  0  0  0
  4  7  1  0  0  0  0
  4  9  1  0  0  0  0
  5 10  1  0  0  0  0
  6 19  1  0  0  0  0
  8 20  1  0  0  0  0
 10 15  1  0  0  0  0
 11  4  2  0  0  0  0
 12  3  2  0  0  0  0
 13 12  1  0  0  0  0
 14  2  1  0  0  0  0
 14  3  1  0  0  0  0
 15 11  1  0  0  0  0
 15  8  2  0  0  0  0
 16  6  2  0  0  0  0
 16 13  1  0  0  0  0
 17  1  2  0  0  0  0
 17  7  1  0  0  0  0
 18  1  1  0  0  0  0
 19  5  1  0  0  0  0
 20  9  2  0  0  0  0
 20 22  1  0  0  0  0
 21 13  1  0  0  0  0
 21 14  2  0  0  0  0
 22 23  1  0  0  0  0
 23 25  1  0  0  0  0
 24 23  2  0  0  0  0
 26 21  1  0  0  0  0
 27 26  1  0  0  0  0
 28 31  1  6  0  0  0
 29 30  1  0  0  0  0
 29 28  1  0  0  0  0
 30 27  1  1  0  0  0
 30 28  1  0  0  0  0
 31 32  1  0  0  0  0
 32 35  1  0  0  0  0
 34 35  2  0  0  0  0
 35 33  1  0  0  0  0
M  END
>  <MODEL>
6

>  <REMARK>
 VINA RESULT:      -7.6      2.463     10.166
  Name = 
  7 active torsions:
  status: ('A' for Active; 'I' for Inactive)
    1  A    between atoms: C_4  and  N_5
    2  A    between atoms: N_5  and  C_7
    3  A    between atoms: C_7  and  C_20
    4  A    between atoms: N_8  and  C_34
    5  A    between atoms: C_21  and  C_23
    6  A    between atoms: C_21  and  C_30
    7  A    between atoms: C_23  and  C_35
                            x       y       z     vdW  Elec       q    Type
                         _______ _______ _______ _____ _____    ______ ____

>  <TORSDO>
F 7

$$$$
=
 OpenBabel11062413463D

 35 39  0  0  1  0  0  0  0  0999 V2000
  185.5090  178.5920  137.9430 N   0  0  0  0  0  0  0  0  0  0  0  0
  184.6370  179.4690  140.0170 C   0  0  0  0  0  3  0  0  0  0  0  0
  186.6480  178.1360  139.9600 C   0  0  0  0  0  0  0  0  0  0  0  0
  188.8100  176.7600  138.1070 C   0  0  0  0  0  0  0  0  0  0  0  0
  191.3560  177.3670  141.7180 C   0  0  0  0  0  2  0  0  0  0  0  0
  189.3460  177.6060  143.1230 C   0  0  0  0  0  3  0  0  0  0  0  0
  187.4820  177.2030  137.7870 N   0  0  0  0  0  2  0  0  0  0  0  0
  191.3880  175.8180  138.6950 C   0  0  0  0  0  3  0  0  0  0  0  0
  189.2940  175.5950  137.5040 C   0  0  0  0  0  3  0  0  0  0  0  0
  191.7750  177.7140  140.2900 C   0  0  0  0  0  2  0  0  0  0  0  0
  189.6490  177.4790  138.9710 C   0  0  0  0  0  3  0  0  0  0  0  0
  187.5650  177.6450  140.8090 N   0  0  0  0  0  0  0  0  0  0  0  0
  187.2380  178.0660  142.0280 N   0  0  0  0  0  0  0  0  0  0  0  0
  185.7080  178.8520  140.6510 C   0  0  0  0  0  0  0  0  0  0  0  0
  190.9280  177.0000  139.2820 C   0  0  0  0  0  0  0  0  0  0  0  0
  188.0300  177.8160  143.1990 C   0  0  0  0  0  3  0  0  0  0  0  0
  186.5740  178.0030  138.5670 C   0  0  0  0  0  0  0  0  0  0  0  0
  184.5610  179.3150  138.6200 C   0  0  0  0  0  3  0  0  0  0  0  0
  189.9960  177.7130  141.8980 O   0  0  0  0  0  0  0  0  0  0  0  0
  190.5830  175.1170  137.7900 C   0  0  0  0  0  0  0  0  0  0  0  0
  186.0970  178.7920  141.9710 C   0  0  0  0  0  0  0  0  0  0  0  0
  191.0980  173.9180  137.1940 N   0  0  0  0  0  2  0  0  0  0  0  0
  191.3900  173.7060  135.8080 C   0  0  0  0  0  0  0  0  0  0  0  0
  191.2060  174.6130  134.9550 O   0  0  0  0  0  0  0  0  0  0  0  0
  191.9220  172.3910  135.3690 C   0  0  0  0  0  1  0  0  0  0  0  0
  185.4050  179.4170  143.1370 C   0  0  0  0  0  2  0  0  0  0  0  0
  185.1330  178.3660  144.1960 C   0  0  0  0  0  2  0  0  0  0  0  0
  186.1590  177.6050  146.3050 C   0  0  1  0  0  3  0  0  0  0  0  0
  184.8460  178.2760  146.6490 C   0  0  0  0  0  2  0  0  0  0  0  0
  185.6990  178.8210  145.5250 C   0  0  2  0  0  3  0  0  0  0  0  0
  187.1740  178.0040  147.2670 N   0  0  0  0  0  2  0  0  0  0  0  0
  188.2990  177.1000  147.0930 C   0  0  0  0  0  2  0  0  0  0  0  0
  190.7370  177.0900  147.6040 O   0  0  0  0  0  0  0  0  0  0  0  0
  189.3140  178.4890  148.7330 O   0  0  0  0  0  1  0  0  0  0  0  0
  189.4700  177.5990  147.8590 C   0  0  0  0  0  0  0  0  0  0  0  0
  1 17  2  0  0  0  0
  1 18  1  0  0  0  0
  2 14  1  0  0  0  0
  3 14  1  0  0  0  0
  3 12  2  0  0  0  0
  4 11  1  0  0  0  0
  5 19  1  0  0  0  0
  6 16  2  0  0  0  0
  7  4  1  0  0  0  0
  7 17  1  0  0  0  0
  8 15  1  0  0  0  0
  9 20  1  0  0  0  0
  9  4  2  0  0  0  0
 10  5  1  0  0  0  0
 11 15  2  0  0  0  0
 12 13  1  0  0  0  0
 13 16  1  0  0  0  0
 14 21  2  0  0  0  0
 15 10  1  0  0  0  0
 17  3  1  0  0  0  0
 18  2  2  0  0  0  0
 19  6  1  0  0  0  0
 20  8  2  0  0  0  0
 21 13  1  0  0  0  0
 21 26  1  0  0  0  0
 22 20  1  0  0  0  0
 23 22  1  0  0  0  0
 24 23  2  0  0  0  0
 25 23  1  0  0  0  0
 26 27  1  0  0  0  0
 28 29  1  0  0  0  0
 28 31  1  1  0  0  0
 30 27  1  6  0  0  0
 30 28  1  0  0  0  0
 30 29  1  0  0  0  0
 32 31  1  0  0  0  0
 32 35  1  0  0  0  0
 33 35  2  0  0  0  0
 35 34  1  0  0  0  0
M  END
>  <MODEL>
7

>  <REMARK>
 VINA RESULT:      -7.3      4.025      7.489
  Name = 
  7 active torsions:
  status: ('A' for Active; 'I' for Inactive)
    1  A    between atoms: C_4  and  N_5
    2  A    between atoms: N_5  and  C_7
    3  A    between atoms: C_7  and  C_20
    4  A    between atoms: N_8  and  C_34
    5  A    between atoms: C_21  and  C_23
    6  A    between atoms: C_21  and  C_30
    7  A    between atoms: C_23  and  C_35
                            x       y       z     vdW  Elec       q    Type
                         _______ _______ _______ _____ _____    ______ ____

>  <TORSDO>
F 7

$$$$
=
 OpenBabel11062413463D

 35 39  0  0  1  0  0  0  0  0999 V2000
  183.8090  178.3360  141.1490 N   0  0  0  0  0  0  0  0  0  0  0  0
  184.3530  178.5690  138.8080 C   0  0  0  0  0  3  0  0  0  0  0  0
  186.0750  178.3560  140.4850 C   0  0  0  0  0  0  0  0  0  0  0  0
  186.6850  177.7600  143.5310 C   0  0  0  0  0  0  0  0  0  0  0  0
  190.5690  176.3910  141.8200 C   0  0  0  0  0  2  0  0  0  0  0  0
  190.1500  177.6900  139.7680 C   0  0  0  0  0  3  0  0  0  0  0  0
  185.4580  178.1730  142.9090 N   0  0  0  0  0  2  0  0  0  0  0  0
  189.0730  177.0180  144.8050 C   0  0  0  0  0  3  0  0  0  0  0  0
  186.9930  178.2540  144.8030 C   0  0  0  0  0  3  0  0  0  0  0  0
  189.7450  175.6090  142.8420 C   0  0  0  0  0  2  0  0  0  0  0  0
  187.5610  176.8500  142.9220 C   0  0  0  0  0  3  0  0  0  0  0  0
  187.4150  178.3290  140.5680 N   0  0  0  0  0  0  0  0  0  0  0  0
  187.8870  178.4250  139.3280 N   0  0  0  0  0  0  0  0  0  0  0  0
  185.6890  178.5050  139.1800 C   0  0  0  0  0  0  0  0  0  0  0  0
  188.7630  176.4940  143.5460 C   0  0  0  0  0  0  0  0  0  0  0  0
  189.2820  178.3460  138.9960 C   0  0  0  0  0  3  0  0  0  0  0  0
  185.1250  178.2530  141.5100 C   0  0  0  0  0  0  0  0  0  0  0  0
  183.4070  178.4810  139.8450 C   0  0  0  0  0  3  0  0  0  0  0  0
  189.6960  176.9880  140.8800 O   0  0  0  0  0  0  0  0  0  0  0  0
  188.1850  177.8860  145.4490 C   0  0  0  0  0  0  0  0  0  0  0  0
  186.8600  178.5530  138.4550 C   0  0  0  0  0  0  0  0  0  0  0  0
  188.5300  178.3870  146.7480 N   0  0  0  0  0  2  0  0  0  0  0  0
  188.5750  177.6420  147.9700 C   0  0  0  0  0  0  0  0  0  0  0  0
  188.2980  176.4140  147.9990 O   0  0  0  0  0  0  0  0  0  0  0  0
  188.9570  178.3310  149.2290 C   0  0  0  0  0  1  0  0  0  0  0  0
  186.9910  178.7050  136.9760 C   0  0  0  0  0  2  0  0  0  0  0  0
  186.5230  177.4380  136.2860 C   0  0  0  0  0  2  0  0  0  0  0  0
  187.3570  175.1280  136.0600 C   0  0  1  0  0  3  0  0  0  0  0  0
  186.0620  175.0750  136.8440 C   0  0  0  0  0  2  0  0  0  0  0  0
  187.0190  176.2280  137.0490 C   0  0  2  0  0  3  0  0  0  0  0  0
  188.3220  174.2210  136.6580 N   0  0  0  0  0  2  0  0  0  0  0  0
  189.5800  174.4210  135.9570 C   0  0  0  0  0  2  0  0  0  0  0  0
  191.1000  174.6110  137.9210 O   0  0  0  0  0  1  0  0  0  0  0  0
  190.7790  176.3960  136.5180 O   0  0  0  0  0  0  0  0  0  0  0  0
  190.5140  175.2020  136.8090 C   0  0  0  0  0  0  0  0  0  0  0  0
  1 17  2  0  0  0  0
  2 14  1  0  0  0  0
  2 18  2  0  0  0  0
  3 12  2  0  0  0  0
  3 17  1  0  0  0  0
  4  9  1  0  0  0  0
  5 10  1  0  0  0  0
  6 19  1  0  0  0  0
  7  4  1  0  0  0  0
  8 20  1  0  0  0  0
  9 20  2  0  0  0  0
 10 15  1  0  0  0  0
 11  4  2  0  0  0  0
 11 15  1  0  0  0  0
 13 12  1  0  0  0  0
 14  3  1  0  0  0  0
 15  8  2  0  0  0  0
 16 13  1  0  0  0  0
 16  6  2  0  0  0  0
 17  7  1  0  0  0  0
 18  1  1  0  0  0  0
 19  5  1  0  0  0  0
 20 22  1  0  0  0  0
 21 14  2  0  0  0  0
 21 13  1  0  0  0  0
 22 23  1  0  0  0  0
 23 24  2  0  0  0  0
 23 25  1  0  0  0  0
 26 21  1  0  0  0  0
 27 26  1  0  0  0  0
 28 31  1  1  0  0  0
 28 29  1  0  0  0  0
 28 30  1  0  0  0  0
 29 30  1  0  0  0  0
 30 27  1  6  0  0  0
 32 31  1  0  0  0  0
 32 35  1  0  0  0  0
 34 35  2  0  0  0  0
 35 33  1  0  0  0  0
M  END
>  <MODEL>
8

>  <REMARK>
 VINA RESULT:      -7.2      3.856      9.249
  Name = 
  7 active torsions:
  status: ('A' for Active; 'I' for Inactive)
    1  A    between atoms: C_4  and  N_5
    2  A    between atoms: N_5  and  C_7
    3  A    between atoms: C_7  and  C_20
    4  A    between atoms: N_8  and  C_34
    5  A    between atoms: C_21  and  C_23
    6  A    between atoms: C_21  and  C_30
    7  A    between atoms: C_23  and  C_35
                            x       y       z     vdW  Elec       q    Type
                         _______ _______ _______ _____ _____    ______ ____

>  <TORSDO>
F 7

$$$$
=
 OpenBabel11062413463D

 35 39  0  0  1  0  0  0  0  0999 V2000
  190.4280  177.4750  142.6350 N   0  0  0  0  0  0  0  0  0  0  0  0
  188.1500  178.2410  142.8650 C   0  0  0  0  0  3  0  0  0  0  0  0
  189.1050  177.7620  140.7000 C   0  0  0  0  0  0  0  0  0  0  0  0
  191.5860  176.5510  139.1580 C   0  0  0  0  0  0  0  0  0  0  0  0
  188.4740  175.8000  136.0530 C   0  0  0  0  0  2  0  0  0  0  0  0
  187.0060  177.4900  137.0830 C   0  0  0  0  0  3  0  0  0  0  0  0
  191.4930  177.0220  140.5120 N   0  0  0  0  0  2  0  0  0  0  0  0
  191.8390  175.6800  136.5020 C   0  0  0  0  0  3  0  0  0  0  0  0
  192.7720  176.7720  138.4500 C   0  0  0  0  0  3  0  0  0  0  0  0
  189.5020  174.7710  136.5210 C   0  0  0  0  0  2  0  0  0  0  0  0
  190.5440  175.8440  138.5410 C   0  0  0  0  0  3  0  0  0  0  0  0
  188.7500  177.7900  139.4060 N   0  0  0  0  0  0  0  0  0  0  0  0
  187.4800  178.1790  139.3540 N   0  0  0  0  0  0  0  0  0  0  0  0
  188.0570  178.1700  141.4810 C   0  0  0  0  0  0  0  0  0  0  0  0
  190.6600  175.4260  137.2080 C   0  0  0  0  0  0  0  0  0  0  0  0
  186.7150  178.2500  138.1410 C   0  0  0  0  0  3  0  0  0  0  0  0
  190.3270  177.3860  141.2740 C   0  0  0  0  0  0  0  0  0  0  0  0
  189.3860  177.8780  143.4300 C   0  0  0  0  0  3  0  0  0  0  0  0
  188.0170  176.5400  137.1700 O   0  0  0  0  0  0  0  0  0  0  0  0
  192.9080  176.3370  137.1210 C   0  0  0  0  0  0  0  0  0  0  0  0
  187.0280  178.4380  140.6040 C   0  0  0  0  0  0  0  0  0  0  0  0
  194.1090  176.5620  136.3690 N   0  0  0  0  0  2  0  0  0  0  0  0
  195.1730  175.6280  136.1530 C   0  0  0  0  0  0  0  0  0  0  0  0
  195.1330  174.4670  136.6390 O   0  0  0  0  0  0  0  0  0  0  0  0
  196.3470  176.0370  135.3410 C   0  0  0  0  0  1  0  0  0  0  0  0
  185.6570  178.9150  140.9510 C   0  0  0  0  0  2  0  0  0  0  0  0
  185.5950  179.2700  142.4240 C   0  0  0  0  0  2  0  0  0  0  0  0
  183.5520  179.3320  143.8040 C   0  0  1  0  0  3  0  0  0  0  0  0
  184.6280  178.6300  144.6060 C   0  0  0  0  0  2  0  0  0  0  0  0
  184.5460  178.4210  143.1100 C   0  0  2  0  0  3  0  0  0  0  0  0
  182.2890  178.6330  143.9700 N   0  0  0  0  0  2  0  0  0  0  0  0
  181.2930  179.3730  143.2140 C   0  0  0  0  0  2  0  0  0  0  0  0
  179.6810  177.7850  144.2550 O   0  0  0  0  0  1  0  0  0  0  0  0
  179.0090  179.8860  143.6300 O   0  0  0  0  0  0  0  0  0  0  0  0
  179.9320  179.0350  143.7050 C   0  0  0  0  0  0  0  0  0  0  0  0
  1 18  1  0  0  0  0
  2 18  2  0  0  0  0
  3 17  1  0  0  0  0
  3 14  1  0  0  0  0
  4  7  1  0  0  0  0
  5 10  1  0  0  0  0
  5 19  1  0  0  0  0
  6 19  1  0  0  0  0
  6 16  2  0  0  0  0
  7 17  1  0  0  0  0
  8 20  2  0  0  0  0
  8 15  1  0  0  0  0
  9  4  2  0  0  0  0
 10 15  1  0  0  0  0
 11  4  1  0  0  0  0
 12  3  2  0  0  0  0
 13 12  1  0  0  0  0
 13 21  1  0  0  0  0
 14  2  1  0  0  0  0
 15 11  2  0  0  0  0
 16 13  1  0  0  0  0
 17  1  2  0  0  0  0
 20  9  1  0  0  0  0
 21 26  1  0  0  0  0
 21 14  2  0  0  0  0
 22 20  1  0  0  0  0
 23 22  1  0  0  0  0
 23 24  2  0  0  0  0
 25 23  1  0  0  0  0
 26 27  1  0  0  0  0
 28 31  1  1  0  0  0
 28 29  1  0  0  0  0
 30 27  1  6  0  0  0
 30 28  1  0  0  0  0
 30 29  1  0  0  0  0
 32 35  1  0  0  0  0
 32 31  1  0  0  0  0
 34 35  2  0  0  0  0
 35 33  1  0  0  0  0
M  END
>  <MODEL>
9

>  <REMARK>
 VINA RESULT:      -7.2      4.851      9.689
  Name = 
  7 active torsions:
  status: ('A' for Active; 'I' for Inactive)
    1  A    between atoms: C_4  and  N_5
    2  A    between atoms: N_5  and  C_7
    3  A    between atoms: C_7  and  C_20
    4  A    between atoms: N_8  and  C_34
    5  A    between atoms: C_21  and  C_23
    6  A    between atoms: C_21  and  C_30
    7  A    between atoms: C_23  and  C_35
                            x       y       z     vdW  Elec       q    Type
                         _______ _______ _______ _____ _____    ______ ____

>  <TORSDO>
F 7

$$$$
