=
 OpenBabel11062413353D

 28 31  0  0  1  0  0  0  0  0999 V2000
  188.6690  177.8250  142.6790 C   0  0  2  0  0  3  0  0  0  0  0  0
  187.9910  177.5730  139.0810 C   0  0  0  0  0  0  0  0  0  0  0  0
  185.9540  178.5020  138.3030 N   0  0  0  0  0  0  0  0  0  0  0  0
  186.5430  178.7250  140.6240 C   0  0  0  0  0  3  0  0  0  0  0  0
  188.7470  177.6750  141.2320 N   0  0  0  0  0  0  0  0  0  0  0  0
  189.7430  176.8630  140.5200 C   0  0  1  0  0  3  0  0  0  0  0  0
  185.6590  178.9610  139.5580 C   0  0  0  0  0  0  0  0  0  0  0  0
  189.2760  176.8110  139.0510 C   0  0  2  0  0  3  0  0  0  0  0  0
  187.7070  178.0160  140.3380 C   0  0  0  0  0  0  0  0  0  0  0  0
  184.4530  179.6790  139.7850 N   0  0  0  0  0  1  0  0  0  0  0  0
  190.4490  177.6920  139.4580 C   0  0  2  0  0  3  0  0  0  0  0  0
  191.6410  177.0640  139.1020 O   0  0  0  0  0  1  0  0  0  0  0  0
  187.1000  177.8090  138.0370 C   0  0  0  0  0  3  0  0  0  0  0  0
  190.0650  178.0110  143.2610 C   0  0  0  0  0  2  0  0  0  0  0  0
  190.7610  176.6950  143.3800 C   0  0  0  0  0  3  0  0  0  0  0  0
  191.4640  176.3410  144.4540 C   0  0  0  0  0  0  0  0  0  0  0  0
  192.0850  175.0990  144.4750 O   0  0  0  0  0  1  0  0  0  0  0  0
  191.6260  177.2520  145.6300 C   0  0  0  0  0  2  0  0  0  0  0  0
  192.6160  176.0570  147.5810 O   0  0  0  0  0  1  0  0  0  0  0  0
  191.4860  176.4880  146.9010 C   0  0  0  0  0  0  0  0  0  0  0  0
  190.3420  176.2590  147.3750 O   0  0  0  0  0  0  0  0  0  0  0  0
  187.9740  176.6110  143.2880 C   0  0  0  0  0  2  0  0  0  0  0  0
  186.9310  177.9940  146.7530 C   0  0  0  0  0  2  0  0  0  0  0  0
  185.9640  177.9580  143.8940 C   0  0  0  0  0  2  0  0  0  0  0  0
  185.4800  178.2920  146.3530 C   0  0  0  0  0  2  0  0  0  0  0  0
  185.4050  178.9110  144.9600 C   0  0  0  0  0  2  0  0  0  0  0  0
  187.0500  177.0130  144.4250 C   0  0  0  0  0  3  0  0  0  0  0  0
  187.8400  177.6610  145.5610 C   0  0  0  0  0  2  0  0  0  0  0  0
  1 14  1  1  0  0  0
  1 22  1  0  0  0  0
  2  9  1  0  0  0  0
  3  7  2  0  0  0  0
  5  1  1  0  0  0  0
  6  5  1  1  0  0  0
  7 10  1  0  0  0  0
  7  4  1  0  0  0  0
  8  2  1  1  0  0  0
  8 11  1  0  0  0  0
  8  6  1  0  0  0  0
  9  4  2  0  0  0  0
  9  5  1  0  0  0  0
 11 12  1  6  0  0  0
 11  6  1  0  0  0  0
 13  3  1  0  0  0  0
 13  2  2  0  0  0  0
 14 15  1  0  0  0  0
 15 16  2  0  0  0  0
 16 17  1  0  0  0  0
 16 18  1  0  0  0  0
 18 20  1  0  0  0  0
 20 21  2  0  0  0  0
 20 19  1  0  0  0  0
 22 27  1  0  0  0  0
 24 27  1  0  0  0  0
 24 26  1  0  0  0  0
 25 23  1  0  0  0  0
 26 25  1  0  0  0  0
 27 28  1  0  0  0  0
 28 23  1  0  0  0  0
M  END
>  <MODEL>
1

>  <REMARK>
 VINA RESULT:      -8.8      0.000      0.000
  Name = 
  7 active torsions:
  status: ('A' for Active; 'I' for Inactive)
    1  A    between atoms: N_5  and  C_8
    2  A    between atoms: C_6  and  C_18
    3  A    between atoms: C_8  and  C_18
    4  A    between atoms: C_8  and  C_25
    5  A    between atoms: C_10  and  C_19
    6  A    between atoms: C_11  and  C_19
    7  A    between atoms: C_24  and  C_25
                            x       y       z     vdW  Elec       q    Type
                         _______ _______ _______ _____ _____    ______ ____

>  <TORSDO>
F 7

$$$$
=
 OpenBabel11062413353D

 28 31  0  0  1  0  0  0  0  0999 V2000
  187.9230  178.0820  142.5370 C   0  0  2  0  0  3  0  0  0  0  0  0
  184.3800  178.4740  143.4120 C   0  0  0  0  0  0  0  0  0  0  0  0
  183.8750  178.8980  145.6890 N   0  0  0  0  0  0  0  0  0  0  0  0
  186.1740  178.7460  144.9980 C   0  0  0  0  0  3  0  0  0  0  0  0
  186.4820  178.3010  142.5410 N   0  0  0  0  0  0  0  0  0  0  0  0
  185.5820  178.0150  141.4150 C   0  0  1  0  0  3  0  0  0  0  0  0
  185.2070  178.9430  145.9980 C   0  0  0  0  0  0  0  0  0  0  0  0
  184.1500  178.1660  141.9690 C   0  0  2  0  0  3  0  0  0  0  0  0
  185.7100  178.5080  143.7060 C   0  0  0  0  0  0  0  0  0  0  0  0
  185.6160  179.1900  147.3380 N   0  0  0  0  0  1  0  0  0  0  0  0
  184.7490  179.2410  141.0730 C   0  0  2  0  0  3  0  0  0  0  0  0
  184.2370  179.1020  139.7840 O   0  0  0  0  0  1  0  0  0  0  0  0
  183.4360  178.6650  144.4180 C   0  0  0  0  0  3  0  0  0  0  0  0
  188.5180  178.5420  141.2130 C   0  0  0  0  0  2  0  0  0  0  0  0
  189.3910  177.4770  140.6330 C   0  0  0  0  0  3  0  0  0  0  0  0
  189.2790  177.0520  139.3760 C   0  0  0  0  0  0  0  0  0  0  0  0
  190.1290  176.0520  138.9240 O   0  0  0  0  0  1  0  0  0  0  0  0
  188.2490  177.6050  138.4420 C   0  0  0  0  0  2  0  0  0  0  0  0
  189.3880  177.8590  136.2390 O   0  0  0  0  0  0  0  0  0  0  0  0
  188.8950  178.4460  137.3960 C   0  0  0  0  0  0  0  0  0  0  0  0
  188.9660  179.6940  137.5470 O   0  0  0  0  0  1  0  0  0  0  0  0
  188.2220  176.6080  142.7950 C   0  0  0  0  0  2  0  0  0  0  0  0
  191.6660  175.5840  144.2440 C   0  0  0  0  0  2  0  0  0  0  0  0
  189.6210  177.7910  144.4880 C   0  0  0  0  0  2  0  0  0  0  0  0
  191.6060  176.5470  145.4380 C   0  0  0  0  0  2  0  0  0  0  0  0
  191.0550  177.9080  145.0250 C   0  0  0  0  0  2  0  0  0  0  0  0
  189.3210  176.4380  143.8300 C   0  0  0  0  0  3  0  0  0  0  0  0
  190.5760  175.8420  143.1930 C   0  0  0  0  0  2  0  0  0  0  0  0
  1 14  1  6  0  0  0
  1  5  1  0  0  0  0
  1 22  1  0  0  0  0
  2  9  2  0  0  0  0
  2 13  1  0  0  0  0
  3  7  1  0  0  0  0
  4  7  2  0  0  0  0
  5  9  1  0  0  0  0
  6  8  1  0  0  0  0
  6  5  1  1  0  0  0
  7 10  1  0  0  0  0
  8  2  1  1  0  0  0
  9  4  1  0  0  0  0
 11 12  1  6  0  0  0
 11  6  1  0  0  0  0
 11  8  1  0  0  0  0
 13  3  2  0  0  0  0
 15 14  1  0  0  0  0
 16 15  2  0  0  0  0
 17 16  1  0  0  0  0
 18 16  1  0  0  0  0
 19 20  2  0  0  0  0
 20 21  1  0  0  0  0
 20 18  1  0  0  0  0
 22 27  1  0  0  0  0
 23 25  1  0  0  0  0
 24 26  1  0  0  0  0
 26 25  1  0  0  0  0
 27 24  1  0  0  0  0
 28 27  1  0  0  0  0
 28 23  1  0  0  0  0
M  END
>  <MODEL>
2

>  <REMARK>
 VINA RESULT:      -8.6      3.066      6.233
  Name = 
  7 active torsions:
  status: ('A' for Active; 'I' for Inactive)
    1  A    between atoms: N_5  and  C_8
    2  A    between atoms: C_6  and  C_18
    3  A    between atoms: C_8  and  C_18
    4  A    between atoms: C_8  and  C_25
    5  A    between atoms: C_10  and  C_19
    6  A    between atoms: C_11  and  C_19
    7  A    between atoms: C_24  and  C_25
                            x       y       z     vdW  Elec       q    Type
                         _______ _______ _______ _____ _____    ______ ____

>  <TORSDO>
F 7

$$$$
=
 OpenBabel11062413353D

 28 31  0  0  1  0  0  0  0  0999 V2000
  188.8540  178.0290  143.7050 C   0  0  2  0  0  3  0  0  0  0  0  0
  189.0710  177.3740  140.1000 C   0  0  0  0  0  0  0  0  0  0  0  0
  187.2450  178.0830  138.7660 N   0  0  0  0  0  0  0  0  0  0  0  0
  187.2490  178.5760  141.1190 C   0  0  0  0  0  3  0  0  0  0  0  0
  189.2840  177.7410  142.3420 N   0  0  0  0  0  0  0  0  0  0  0  0
  190.4540  176.9290  141.9800 C   0  0  1  0  0  3  0  0  0  0  0  0
  186.6390  178.6450  139.8560 C   0  0  0  0  0  0  0  0  0  0  0  0
  190.3560  176.7000  140.4570 C   0  0  2  0  0  3  0  0  0  0  0  0
  188.4760  177.9210  141.1970 C   0  0  0  0  0  0  0  0  0  0  0  0
  185.3850  179.3000  139.7120 N   0  0  0  0  0  1  0  0  0  0  0  0
  191.3600  177.6930  141.0270 C   0  0  2  0  0  3  0  0  0  0  0  0
  192.6270  177.1130  141.0330 O   0  0  0  0  0  1  0  0  0  0  0  0
  188.4480  177.4450  138.8560 C   0  0  0  0  0  3  0  0  0  0  0  0
  189.9930  177.7560  144.6800 C   0  0  0  0  0  2  0  0  0  0  0  0
  189.6440  178.2580  146.0430 C   0  0  0  0  0  3  0  0  0  0  0  0
  189.7730  177.5180  147.1430 C   0  0  0  0  0  0  0  0  0  0  0  0
  189.4180  178.0650  148.3690 O   0  0  0  0  0  1  0  0  0  0  0  0
  190.2670  176.1060  147.0940 C   0  0  0  0  0  2  0  0  0  0  0  0
  192.3610  176.8450  148.2270 O   0  0  0  0  0  1  0  0  0  0  0  0
  191.7470  176.0690  147.2540 C   0  0  0  0  0  0  0  0  0  0  0  0
  192.4400  175.3100  146.5270 O   0  0  0  0  0  0  0  0  0  0  0  0
  187.6230  177.1950  144.0450 C   0  0  0  0  0  2  0  0  0  0  0  0
  184.0740  178.7420  143.8910 C   0  0  0  0  0  2  0  0  0  0  0  0
  186.1180  177.8500  145.9250 C   0  0  0  0  0  2  0  0  0  0  0  0
  184.0580  179.2000  145.3560 C   0  0  0  0  0  2  0  0  0  0  0  0
  184.6520  178.1360  146.2760 C   0  0  0  0  0  2  0  0  0  0  0  0
  186.4510  178.0760  144.4440 C   0  0  0  0  0  3  0  0  0  0  0  0
  185.2380  177.7980  143.5560 C   0  0  0  0  0  2  0  0  0  0  0  0
  1 22  1  1  0  0  0
  1 14  1  0  0  0  0
  2  9  1  0  0  0  0
  3 13  1  0  0  0  0
  3  7  2  0  0  0  0
  4  9  2  0  0  0  0
  5  1  1  0  0  0  0
  6  5  1  6  0  0  0
  7  4  1  0  0  0  0
  8  2  1  6  0  0  0
  8 11  1  0  0  0  0
  8  6  1  0  0  0  0
  9  5  1  0  0  0  0
 10  7  1  0  0  0  0
 11 12  1  1  0  0  0
 11  6  1  0  0  0  0
 13  2  2  0  0  0  0
 14 15  1  0  0  0  0
 15 16  2  0  0  0  0
 16 17  1  0  0  0  0
 18 16  1  0  0  0  0
 18 20  1  0  0  0  0
 20 19  1  0  0  0  0
 21 20  2  0  0  0  0
 22 27  1  0  0  0  0
 23 25  1  0  0  0  0
 24 26  1  0  0  0  0
 25 26  1  0  0  0  0
 27 24  1  0  0  0  0
 28 23  1  0  0  0  0
 28 27  1  0  0  0  0
M  END
>  <MODEL>
3

>  <REMARK>
 VINA RESULT:      -8.3      1.354      2.212
  Name = 
  7 active torsions:
  status: ('A' for Active; 'I' for Inactive)
    1  A    between atoms: N_5  and  C_8
    2  A    between atoms: C_6  and  C_18
    3  A    between atoms: C_8  and  C_18
    4  A    between atoms: C_8  and  C_25
    5  A    between atoms: C_10  and  C_19
    6  A    between atoms: C_11  and  C_19
    7  A    between atoms: C_24  and  C_25
                            x       y       z     vdW  Elec       q    Type
                         _______ _______ _______ _____ _____    ______ ____

>  <TORSDO>
F 7

$$$$
=
 OpenBabel11062413353D

 28 31  0  0  1  0  0  0  0  0999 V2000
  187.9040  177.1550  143.1660 C   0  0  2  0  0  3  0  0  0  0  0  0
  184.9800  178.8640  144.5820 C   0  0  0  0  0  0  0  0  0  0  0  0
  183.0990  179.1300  143.1650 N   0  0  0  0  0  0  0  0  0  0  0  0
  185.0160  177.9170  142.3670 C   0  0  0  0  0  3  0  0  0  0  0  0
  186.8930  177.7470  144.0340 N   0  0  0  0  0  0  0  0  0  0  0  0
  187.1470  178.2960  145.3730 C   0  0  1  0  0  3  0  0  0  0  0  0
  183.7210  178.4240  142.1720 C   0  0  0  0  0  0  0  0  0  0  0  0
  185.8510  179.0230  145.7850 C   0  0  2  0  0  3  0  0  0  0  0  0
  185.6160  178.1660  143.5990 C   0  0  0  0  0  0  0  0  0  0  0  0
  183.0550  178.2030  140.9340 N   0  0  0  0  0  1  0  0  0  0  0  0
  186.2060  177.6730  146.3930 C   0  0  2  0  0  3  0  0  0  0  0  0
  186.7230  177.8670  147.6720 O   0  0  0  0  0  1  0  0  0  0  0  0
  183.6990  179.3660  144.3680 C   0  0  0  0  0  3  0  0  0  0  0  0
  189.0920  176.6840  143.9940 C   0  0  0  0  0  2  0  0  0  0  0  0
  190.1550  177.7350  144.0270 C   0  0  0  0  0  3  0  0  0  0  0  0
  191.2680  177.6170  144.7490 C   0  0  0  0  0  0  0  0  0  0  0  0
  192.1990  178.6470  144.7250 O   0  0  0  0  0  1  0  0  0  0  0  0
  191.5340  176.4190  145.6040 C   0  0  0  0  0  2  0  0  0  0  0  0
  189.9640  176.9970  147.4520 O   0  0  0  0  0  0  0  0  0  0  0  0
  191.2610  176.7320  147.0350 C   0  0  0  0  0  0  0  0  0  0  0  0
  192.2010  176.7260  147.8710 O   0  0  0  0  0  1  0  0  0  0  0  0
  188.3330  178.1670  142.1080 C   0  0  0  0  0  2  0  0  0  0  0  0
  187.9210  177.6020  138.2970 C   0  0  0  0  0  2  0  0  0  0  0  0
  190.0190  177.3620  140.4550 C   0  0  0  0  0  2  0  0  0  0  0  0
  189.1910  176.7540  138.1450 C   0  0  0  0  0  2  0  0  0  0  0  0
  190.3460  177.3350  138.9550 C   0  0  0  0  0  2  0  0  0  0  0  0
  188.5210  177.5060  140.7530 C   0  0  0  0  0  3  0  0  0  0  0  0
  187.8130  178.3040  139.6580 C   0  0  0  0  0  2  0  0  0  0  0  0
  1 22  1  6  0  0  0
  1 14  1  0  0  0  0
  1  5  1  0  0  0  0
  3 13  2  0  0  0  0
  4  9  1  0  0  0  0
  6  5  1  6  0  0  0
  6  8  1  0  0  0  0
  6 11  1  0  0  0  0
  7  4  2  0  0  0  0
  7  3  1  0  0  0  0
  8  2  1  6  0  0  0
  8 11  1  0  0  0  0
  9  5  1  0  0  0  0
  9  2  2  0  0  0  0
 10  7  1  0  0  0  0
 11 12  1  1  0  0  0
 13  2  1  0  0  0  0
 14 15  1  0  0  0  0
 15 16  2  0  0  0  0
 16 18  1  0  0  0  0
 17 16  1  0  0  0  0
 18 20  1  0  0  0  0
 20 19  2  0  0  0  0
 20 21  1  0  0  0  0
 23 28  1  0  0  0  0
 24 27  1  0  0  0  0
 25 23  1  0  0  0  0
 25 26  1  0  0  0  0
 26 24  1  0  0  0  0
 27 22  1  0  0  0  0
 28 27  1  0  0  0  0
M  END
>  <MODEL>
4

>  <REMARK>
 VINA RESULT:      -8.3      1.918      5.247
  Name = 
  7 active torsions:
  status: ('A' for Active; 'I' for Inactive)
    1  A    between atoms: N_5  and  C_8
    2  A    between atoms: C_6  and  C_18
    3  A    between atoms: C_8  and  C_18
    4  A    between atoms: C_8  and  C_25
    5  A    between atoms: C_10  and  C_19
    6  A    between atoms: C_11  and  C_19
    7  A    between atoms: C_24  and  C_25
                            x       y       z     vdW  Elec       q    Type
                         _______ _______ _______ _____ _____    ______ ____

>  <TORSDO>
F 7

$$$$
=
 OpenBabel11062413353D

 28 31  0  0  1  0  0  0  0  0999 V2000
  188.2490  176.9470  143.9370 C   0  0  2  0  0  3  0  0  0  0  0  0
  188.9030  177.5660  140.3790 C   0  0  0  0  0  0  0  0  0  0  0  0
  187.1830  178.6220  139.1370 N   0  0  0  0  0  0  0  0  0  0  0  0
  186.8960  178.2850  141.5010 C   0  0  0  0  0  3  0  0  0  0  0  0
  188.8440  177.1550  142.6240 N   0  0  0  0  0  0  0  0  0  0  0  0
  190.1040  176.5570  142.1640 C   0  0  1  0  0  3  0  0  0  0  0  0
  186.4220  178.7570  140.2660 C   0  0  0  0  0  0  0  0  0  0  0  0
  190.1890  176.8560  140.6530 C   0  0  2  0  0  3  0  0  0  0  0  0
  188.1530  177.6850  141.5110 C   0  0  0  0  0  0  0  0  0  0  0  0
  185.1450  179.3780  140.1900 N   0  0  0  0  0  1  0  0  0  0  0  0
  191.0470  177.6310  141.6440 C   0  0  2  0  0  3  0  0  0  0  0  0
  192.3470  177.1280  141.6180 O   0  0  0  0  0  1  0  0  0  0  0  0
  188.4150  178.0340  139.1620 C   0  0  0  0  0  3  0  0  0  0  0  0
  186.7680  177.3030  143.9020 C   0  0  0  0  0  2  0  0  0  0  0  0
  186.2960  177.7140  145.2590 C   0  0  0  0  0  3  0  0  0  0  0  0
  185.3990  178.6780  145.4530 C   0  0  0  0  0  0  0  0  0  0  0  0
  185.0240  178.9990  146.7510 O   0  0  0  0  0  1  0  0  0  0  0  0
  184.7990  179.4430  144.3150 C   0  0  0  0  0  2  0  0  0  0  0  0
  182.4780  178.6280  144.7180 O   0  0  0  0  0  1  0  0  0  0  0  0
  183.5480  178.7830  143.8480 C   0  0  0  0  0  0  0  0  0  0  0  0
  183.4500  178.3930  142.6550 O   0  0  0  0  0  0  0  0  0  0  0  0
  188.9920  177.7780  144.9780 C   0  0  0  0  0  2  0  0  0  0  0  0
  192.1030  175.8040  146.1760 C   0  0  0  0  0  2  0  0  0  0  0  0
  189.8670  177.4930  147.2980 C   0  0  0  0  0  2  0  0  0  0  0  0
  191.6920  175.7820  147.6550 C   0  0  0  0  0  2  0  0  0  0  0  0
  191.1280  177.1300  148.0940 C   0  0  0  0  0  2  0  0  0  0  0  0
  189.8440  176.9020  145.8820 C   0  0  0  0  0  3  0  0  0  0  0  0
  191.2570  176.7570  145.3190 C   0  0  0  0  0  2  0  0  0  0  0  0
  1 14  1  6  0  0  0
  1 22  1  0  0  0  0
  2  9  1  0  0  0  0
  3 13  1  0  0  0  0
  3  7  2  0  0  0  0
  4  9  2  0  0  0  0
  5  1  1  0  0  0  0
  6  5  1  1  0  0  0
  7  4  1  0  0  0  0
  8  2  1  1  0  0  0
  8 11  1  0  0  0  0
  8  6  1  0  0  0  0
  9  5  1  0  0  0  0
 10  7  1  0  0  0  0
 11 12  1  6  0  0  0
 11  6  1  0  0  0  0
 13  2  2  0  0  0  0
 14 15  1  0  0  0  0
 15 16  2  0  0  0  0
 16 17  1  0  0  0  0
 18 16  1  0  0  0  0
 20 18  1  0  0  0  0
 20 19  1  0  0  0  0
 21 20  2  0  0  0  0
 22 27  1  0  0  0  0
 23 25  1  0  0  0  0
 24 26  1  0  0  0  0
 25 26  1  0  0  0  0
 27 24  1  0  0  0  0
 28 27  1  0  0  0  0
 28 23  1  0  0  0  0
M  END
>  <MODEL>
5

>  <REMARK>
 VINA RESULT:      -8.2      2.865      4.953
  Name = 
  7 active torsions:
  status: ('A' for Active; 'I' for Inactive)
    1  A    between atoms: N_5  and  C_8
    2  A    between atoms: C_6  and  C_18
    3  A    between atoms: C_8  and  C_18
    4  A    between atoms: C_8  and  C_25
    5  A    between atoms: C_10  and  C_19
    6  A    between atoms: C_11  and  C_19
    7  A    between atoms: C_24  and  C_25
                            x       y       z     vdW  Elec       q    Type
                         _______ _______ _______ _____ _____    ______ ____

>  <TORSDO>
F 7

$$$$
=
 OpenBabel11062413353D

 28 31  0  0  1  0  0  0  0  0999 V2000
  187.9200  177.3040  142.8190 C   0  0  2  0  0  3  0  0  0  0  0  0
  184.6150  178.5990  143.7540 C   0  0  0  0  0  0  0  0  0  0  0  0
  184.2310  179.0030  146.0580 N   0  0  0  0  0  0  0  0  0  0  0  0
  186.4040  178.2700  145.3350 C   0  0  0  0  0  3  0  0  0  0  0  0
  186.5950  177.9090  142.8510 N   0  0  0  0  0  0  0  0  0  0  0  0
  185.6590  177.9520  141.7200 C   0  0  1  0  0  3  0  0  0  0  0  0
  185.5220  178.6620  146.3550 C   0  0  0  0  0  0  0  0  0  0  0  0
  184.3190  178.4550  142.2970 C   0  0  2  0  0  3  0  0  0  0  0  0
  185.9020  178.2480  144.0350 C   0  0  0  0  0  0  0  0  0  0  0  0
  185.9740  178.7040  147.7030 N   0  0  0  0  0  1  0  0  0  0  0  0
  185.1970  179.3780  141.4620 C   0  0  2  0  0  3  0  0  0  0  0  0
  184.6750  179.4650  140.1720 O   0  0  0  0  0  1  0  0  0  0  0  0
  183.7530  178.9790  144.7790 C   0  0  0  0  0  3  0  0  0  0  0  0
  188.5140  177.2740  144.2220 C   0  0  0  0  0  2  0  0  0  0  0  0
  189.9060  177.8180  144.2110 C   0  0  0  0  0  3  0  0  0  0  0  0
  190.7850  177.5790  145.1830 C   0  0  0  0  0  0  0  0  0  0  0  0
  192.0550  178.1320  145.0930 O   0  0  0  0  0  1  0  0  0  0  0  0
  190.4360  176.7530  146.3810 C   0  0  0  0  0  2  0  0  0  0  0  0
  192.4220  175.2600  146.5940 O   0  0  0  0  0  0  0  0  0  0  0  0
  191.6730  176.3190  147.0880 C   0  0  0  0  0  0  0  0  0  0  0  0
  192.0570  176.9330  148.1180 O   0  0  0  0  0  1  0  0  0  0  0  0
  188.8170  178.0740  141.8550 C   0  0  0  0  0  2  0  0  0  0  0  0
  188.7990  177.2570  138.0680 C   0  0  0  0  0  2  0  0  0  0  0  0
  190.5550  176.9070  140.4980 C   0  0  0  0  0  2  0  0  0  0  0  0
  189.9380  176.2300  138.1420 C   0  0  0  0  0  2  0  0  0  0  0  0
  191.0580  176.7100  139.0600 C   0  0  0  0  0  2  0  0  0  0  0  0
  189.0700  177.2830  140.5820 C   0  0  0  0  0  3  0  0  0  0  0  0
  188.6300  178.0780  139.3540 C   0  0  0  0  0  2  0  0  0  0  0  0
  1 22  1  6  0  0  0
  1  5  1  0  0  0  0
  1 14  1  0  0  0  0
  2  9  2  0  0  0  0
  2 13  1  0  0  0  0
  3  7  1  0  0  0  0
  4  7  2  0  0  0  0
  5  9  1  0  0  0  0
  6  8  1  0  0  0  0
  6  5  1  1  0  0  0
  7 10  1  0  0  0  0
  8  2  1  1  0  0  0
  9  4  1  0  0  0  0
 11 12  1  6  0  0  0
 11  6  1  0  0  0  0
 11  8  1  0  0  0  0
 13  3  2  0  0  0  0
 15 14  1  0  0  0  0
 15 16  2  0  0  0  0
 16 18  1  0  0  0  0
 17 16  1  0  0  0  0
 18 20  1  0  0  0  0
 19 20  2  0  0  0  0
 20 21  1  0  0  0  0
 23 25  1  0  0  0  0
 23 28  1  0  0  0  0
 24 27  1  0  0  0  0
 25 26  1  0  0  0  0
 26 24  1  0  0  0  0
 27 22  1  0  0  0  0
 28 27  1  0  0  0  0
M  END
>  <MODEL>
6

>  <REMARK>
 VINA RESULT:      -8.1      2.650      5.440
  Name = 
  7 active torsions:
  status: ('A' for Active; 'I' for Inactive)
    1  A    between atoms: N_5  and  C_8
    2  A    between atoms: C_6  and  C_18
    3  A    between atoms: C_8  and  C_18
    4  A    between atoms: C_8  and  C_25
    5  A    between atoms: C_10  and  C_19
    6  A    between atoms: C_11  and  C_19
    7  A    between atoms: C_24  and  C_25
                            x       y       z     vdW  Elec       q    Type
                         _______ _______ _______ _____ _____    ______ ____

>  <TORSDO>
F 7

$$$$
=
 OpenBabel11062413353D

 28 31  0  0  1  0  0  0  0  0999 V2000
  187.7850  177.3420  142.5450 C   0  0  2  0  0  3  0  0  0  0  0  0
  188.7860  177.9160  146.0300 C   0  0  0  0  0  0  0  0  0  0  0  0
  187.0510  178.3230  147.5930 N   0  0  0  0  0  0  0  0  0  0  0  0
  186.4880  177.8160  145.3110 C   0  0  0  0  0  3  0  0  0  0  0  0
  188.4780  177.4110  143.8250 N   0  0  0  0  0  0  0  0  0  0  0  0
  189.9350  177.4980  143.9930 C   0  0  1  0  0  3  0  0  0  0  0  0
  186.1040  178.1250  146.6260 C   0  0  0  0  0  0  0  0  0  0  0  0
  190.1730  177.8000  145.4870 C   0  0  2  0  0  3  0  0  0  0  0  0
  187.8540  177.7250  145.0540 C   0  0  0  0  0  0  0  0  0  0  0  0
  184.7240  178.2330  146.9530 N   0  0  0  0  0  1  0  0  0  0  0  0
  190.4320  176.4070  144.9290 C   0  0  2  0  0  3  0  0  0  0  0  0
  191.8020  176.2340  144.7460 O   0  0  0  0  0  1  0  0  0  0  0  0
  188.3870  178.2290  147.3270 C   0  0  0  0  0  3  0  0  0  0  0  0
  188.7820  177.0660  141.4260 C   0  0  0  0  0  2  0  0  0  0  0  0
  188.8970  178.2520  140.5240 C   0  0  0  0  0  3  0  0  0  0  0  0
  188.8700  178.1580  139.1970 C   0  0  0  0  0  0  0  0  0  0  0  0
  188.9910  179.3130  138.4360 O   0  0  0  0  0  1  0  0  0  0  0  0
  188.7370  176.8410  138.4980 C   0  0  0  0  0  2  0  0  0  0  0  0
  190.6050  176.7650  136.8490 O   0  0  0  0  0  0  0  0  0  0  0  0
  190.0740  176.3490  138.0620 C   0  0  0  0  0  0  0  0  0  0  0  0
  190.7360  175.5810  138.8070 O   0  0  0  0  0  1  0  0  0  0  0  0
  187.0240  178.6410  142.3000 C   0  0  0  0  0  2  0  0  0  0  0  0
  183.1570  178.7600  142.5050 C   0  0  0  0  0  2  0  0  0  0  0  0
  185.3630  178.8000  140.4450 C   0  0  0  0  0  2  0  0  0  0  0  0
  182.9290  178.4350  141.0230 C   0  0  0  0  0  2  0  0  0  0  0  0
  183.9110  179.1900  140.1320 C   0  0  0  0  0  2  0  0  0  0  0  0
  185.5830  178.3720  141.9020 C   0  0  0  0  0  3  0  0  0  0  0  0
  184.6180  179.0930  142.8420 C   0  0  0  0  0  2  0  0  0  0  0  0
  1 14  1  6  0  0  0
  1  5  1  0  0  0  0
  2 13  1  0  0  0  0
  4  7  2  0  0  0  0
  5  9  1  0  0  0  0
  6  5  1  1  0  0  0
  6 11  1  0  0  0  0
  6  8  1  0  0  0  0
  7 10  1  0  0  0  0
  7  3  1  0  0  0  0
  8  2  1  1  0  0  0
  9  4  1  0  0  0  0
  9  2  2  0  0  0  0
 11 12  1  6  0  0  0
 11  8  1  0  0  0  0
 13  3  2  0  0  0  0
 15 14  1  0  0  0  0
 16 15  2  0  0  0  0
 17 16  1  0  0  0  0
 18 16  1  0  0  0  0
 19 20  2  0  0  0  0
 20 18  1  0  0  0  0
 20 21  1  0  0  0  0
 22  1  1  0  0  0  0
 23 28  1  0  0  0  0
 24 27  1  0  0  0  0
 25 23  1  0  0  0  0
 26 24  1  0  0  0  0
 26 25  1  0  0  0  0
 27 22  1  0  0  0  0
 27 28  1  0  0  0  0
M  END
>  <MODEL>
7

>  <REMARK>
 VINA RESULT:      -8.0      2.510      6.266
  Name = 
  7 active torsions:
  status: ('A' for Active; 'I' for Inactive)
    1  A    between atoms: N_5  and  C_8
    2  A    between atoms: C_6  and  C_18
    3  A    between atoms: C_8  and  C_18
    4  A    between atoms: C_8  and  C_25
    5  A    between atoms: C_10  and  C_19
    6  A    between atoms: C_11  and  C_19
    7  A    between atoms: C_24  and  C_25
                            x       y       z     vdW  Elec       q    Type
                         _______ _______ _______ _____ _____    ______ ____

>  <TORSDO>
F 7

$$$$
=
 OpenBabel11062413353D

 28 31  0  0  1  0  0  0  0  0999 V2000
  187.7980  177.3180  142.7340 C   0  0  2  0  0  3  0  0  0  0  0  0
  191.1190  177.2570  141.1720 C   0  0  0  0  0  0  0  0  0  0  0  0
  191.1930  177.0480  138.8120 N   0  0  0  0  0  0  0  0  0  0  0  0
  189.0630  177.2190  139.9150 C   0  0  0  0  0  3  0  0  0  0  0  0
  189.2150  177.4420  142.4180 N   0  0  0  0  0  0  0  0  0  0  0  0
  190.3060  177.4020  143.4000 C   0  0  1  0  0  3  0  0  0  0  0  0
  189.8280  177.0930  138.7440 C   0  0  0  0  0  0  0  0  0  0  0  0
  191.6110  177.3180  142.5810 C   0  0  2  0  0  3  0  0  0  0  0  0
  189.7570  177.2950  141.1210 C   0  0  0  0  0  0  0  0  0  0  0  0
  189.1780  177.0110  137.4820 N   0  0  0  0  0  1  0  0  0  0  0  0
  191.2030  178.6210  143.2530 C   0  0  2  0  0  3  0  0  0  0  0  0
  191.9450  178.7890  144.4210 O   0  0  0  0  0  1  0  0  0  0  0  0
  191.8600  177.1240  140.0010 C   0  0  0  0  0  3  0  0  0  0  0  0
  187.1370  178.6910  142.7150 C   0  0  0  0  0  2  0  0  0  0  0  0
  186.6590  179.0220  141.3390 C   0  0  0  0  0  3  0  0  0  0  0  0
  185.3750  178.9810  140.9880 C   0  0  0  0  0  0  0  0  0  0  0  0
  185.0220  179.2980  139.6830 O   0  0  0  0  0  1  0  0  0  0  0  0
  184.3030  178.5800  141.9520 C   0  0  0  0  0  2  0  0  0  0  0  0
  182.9660  177.0570  140.5010 O   0  0  0  0  0  0  0  0  0  0  0  0
  183.0500  178.2400  141.2220 C   0  0  0  0  0  0  0  0  0  0  0  0
  182.0570  179.0100  141.2840 O   0  0  0  0  0  1  0  0  0  0  0  0
  187.6290  176.6420  144.0910 C   0  0  0  0  0  2  0  0  0  0  0  0
  185.3490  178.5320  146.5900 C   0  0  0  0  0  2  0  0  0  0  0  0
  188.1730  177.4870  146.3750 C   0  0  0  0  0  2  0  0  0  0  0  0
  186.4970  179.0230  147.4820 C   0  0  0  0  0  2  0  0  0  0  0  0
  187.5360  177.9270  147.7010 C   0  0  0  0  0  2  0  0  0  0  0  0
  187.2420  177.6450  145.1660 C   0  0  0  0  0  3  0  0  0  0  0  0
  185.7780  177.4690  145.5680 C   0  0  0  0  0  2  0  0  0  0  0  0
  1 14  1  1  0  0  0
  1 22  1  0  0  0  0
  3 13  1  0  0  0  0
  4  9  2  0  0  0  0
  5  1  1  0  0  0  0
  6  5  1  6  0  0  0
  7  3  2  0  0  0  0
  7  4  1  0  0  0  0
  8  2  1  6  0  0  0
  8 11  1  0  0  0  0
  8  6  1  0  0  0  0
  9  2  1  0  0  0  0
  9  5  1  0  0  0  0
 10  7  1  0  0  0  0
 11  6  1  0  0  0  0
 11 12  1  1  0  0  0
 13  2  2  0  0  0  0
 15 14  1  0  0  0  0
 16 15  2  0  0  0  0
 16 18  1  0  0  0  0
 17 16  1  0  0  0  0
 19 20  2  0  0  0  0
 20 21  1  0  0  0  0
 20 18  1  0  0  0  0
 22 27  1  0  0  0  0
 23 25  1  0  0  0  0
 24 26  1  0  0  0  0
 25 26  1  0  0  0  0
 27 28  1  0  0  0  0
 27 24  1  0  0  0  0
 28 23  1  0  0  0  0
M  END
>  <MODEL>
8

>  <REMARK>
 VINA RESULT:      -7.9      3.317      5.574
  Name = 
  7 active torsions:
  status: ('A' for Active; 'I' for Inactive)
    1  A    between atoms: N_5  and  C_8
    2  A    between atoms: C_6  and  C_18
    3  A    between atoms: C_8  and  C_18
    4  A    between atoms: C_8  and  C_25
    5  A    between atoms: C_10  and  C_19
    6  A    between atoms: C_11  and  C_19
    7  A    between atoms: C_24  and  C_25
                            x       y       z     vdW  Elec       q    Type
                         _______ _______ _______ _____ _____    ______ ____

>  <TORSDO>
F 7

$$$$
=
 OpenBabel11062413353D

 28 31  0  0  1  0  0  0  0  0999 V2000
  187.3120  177.9240  143.0820 C   0  0  2  0  0  3  0  0  0  0  0  0
  187.7180  177.4240  146.6960 C   0  0  0  0  0  0  0  0  0  0  0  0
  189.9220  177.0670  147.4910 N   0  0  0  0  0  0  0  0  0  0  0  0
  189.5690  177.5240  145.1560 C   0  0  0  0  0  3  0  0  0  0  0  0
  187.1570  177.8800  144.5300 N   0  0  0  0  0  0  0  0  0  0  0  0
  185.8750  177.7860  145.2400 C   0  0  1  0  0  3  0  0  0  0  0  0
  190.4280  177.2490  146.2330 C   0  0  0  0  0  0  0  0  0  0  0  0
  186.2270  177.5180  146.7180 C   0  0  2  0  0  3  0  0  0  0  0  0
  188.2060  177.6000  145.4350 C   0  0  0  0  0  0  0  0  0  0  0  0
  191.8300  177.1590  146.0130 N   0  0  0  0  0  1  0  0  0  0  0  0
  185.7540  178.8950  146.2740 C   0  0  2  0  0  3  0  0  0  0  0  0
  184.4140  179.0550  146.6220 O   0  0  0  0  0  1  0  0  0  0  0  0
  188.5840  177.1450  147.7500 C   0  0  0  0  0  3  0  0  0  0  0  0
  185.9450  177.8810  142.4100 C   0  0  0  0  0  2  0  0  0  0  0  0
  185.8730  178.8880  141.3080 C   0  0  0  0  0  3  0  0  0  0  0  0
  184.8520  178.9570  140.4560 C   0  0  0  0  0  0  0  0  0  0  0  0
  184.8720  179.9210  139.4570 O   0  0  0  0  0  1  0  0  0  0  0  0
  183.6940  178.0120  140.5280 C   0  0  0  0  0  2  0  0  0  0  0  0
  181.4850  179.1510  140.3330 O   0  0  0  0  0  0  0  0  0  0  0  0
  182.5140  178.6840  141.1390 C   0  0  0  0  0  0  0  0  0  0  0  0
  182.4330  178.7990  142.3900 O   0  0  0  0  0  1  0  0  0  0  0  0
  188.1910  176.7650  142.6210 C   0  0  0  0  0  2  0  0  0  0  0  0
  191.8620  177.0910  141.4290 C   0  0  0  0  0  2  0  0  0  0  0  0
  189.0630  177.0490  140.3000 C   0  0  0  0  0  2  0  0  0  0  0  0
  191.5090  177.6300  140.0350 C   0  0  0  0  0  2  0  0  0  0  0  0
  190.3210  176.8810  139.4370 C   0  0  0  0  0  2  0  0  0  0  0  0
  189.3640  177.2560  141.7910 C   0  0  0  0  0  3  0  0  0  0  0  0
  190.6530  176.5430  142.1990 C   0  0  0  0  0  2  0  0  0  0  0  0
  1 14  1  6  0  0  0
  1  5  1  0  0  0  0
  2 13  1  0  0  0  0
  3 13  2  0  0  0  0
  4  9  1  0  0  0  0
  4  7  2  0  0  0  0
  5  9  1  0  0  0  0
  6  5  1  6  0  0  0
  6 11  1  0  0  0  0
  6  8  1  0  0  0  0
  7  3  1  0  0  0  0
  8  2  1  6  0  0  0
  9  2  2  0  0  0  0
 10  7  1  0  0  0  0
 11 12  1  1  0  0  0
 11  8  1  0  0  0  0
 15 14  1  0  0  0  0
 16 18  1  0  0  0  0
 16 15  2  0  0  0  0
 17 16  1  0  0  0  0
 18 20  1  0  0  0  0
 19 20  2  0  0  0  0
 20 21  1  0  0  0  0
 22  1  1  0  0  0  0
 23 28  1  0  0  0  0
 24 27  1  0  0  0  0
 25 23  1  0  0  0  0
 26 25  1  0  0  0  0
 26 24  1  0  0  0  0
 27 28  1  0  0  0  0
 27 22  1  0  0  0  0
M  END
>  <MODEL>
9

>  <REMARK>
 VINA RESULT:      -7.9      3.950      7.885
  Name = 
  7 active torsions:
  status: ('A' for Active; 'I' for Inactive)
    1  A    between atoms: N_5  and  C_8
    2  A    between atoms: C_6  and  C_18
    3  A    between atoms: C_8  and  C_18
    4  A    between atoms: C_8  and  C_25
    5  A    between atoms: C_10  and  C_19
    6  A    between atoms: C_11  and  C_19
    7  A    between atoms: C_24  and  C_25
                            x       y       z     vdW  Elec       q    Type
                         _______ _______ _______ _____ _____    ______ ____

>  <TORSDO>
F 7

$$$$
