=
 OpenBabel11062416063D

 43 48  0  0  1  0  0  0  0  0999 V2000
  183.2660  179.3380  143.4240 O   0  0  0  0  0  1  0  0  0  0  0  0
  186.4340  177.8660  144.0530 C   0  0  1  0  0  3  0  0  0  0  0  0
  189.6040  177.6910  147.0010 C   0  0  0  0  0  0  0  0  0  0  0  0
  188.6880  177.0600  141.1260 C   0  0  0  0  0  3  0  0  0  0  0  0
  187.5570  177.7550  145.0710 C   0  0  0  0  0  0  0  0  0  0  0  0
  190.1220  176.9120  140.8200 C   0  0  0  0  0  0  0  0  0  0  0  0
  190.6260  177.7000  147.9410 O   0  0  0  0  0  1  0  0  0  0  0  0
  185.4420  178.9960  144.3100 C   0  0  0  0  0  0  0  0  0  0  0  0
  190.6470  178.1880  142.8800 C   0  0  0  0  0  2  0  0  0  0  0  0
  191.0450  177.4070  141.6550 C   0  0  0  0  0  0  0  0  0  0  0  0
  188.9050  177.8980  144.6800 C   0  0  0  0  0  0  0  0  0  0  0  0
  192.4310  177.2900  141.3400 N   0  0  0  0  0  1  0  0  0  0  0  0
  189.2620  177.9170  143.2880 N   0  0  0  0  0  0  0  0  0  0  0  0
  189.9110  177.8830  145.6550 C   0  0  0  0  0  3  0  0  0  0  0  0
  185.0180  178.9180  141.8680 C   0  0  0  0  0  2  0  0  0  0  0  0
  187.2610  177.4690  146.4220 C   0  0  0  0  0  0  0  0  0  0  0  0
  188.2880  177.5400  142.3040 C   0  0  0  0  0  0  0  0  0  0  0  0
  186.4150  178.8770  141.7890 O   0  0  0  0  0  0  0  0  0  0  0  0
  187.9550  177.2010  148.8200 C   0  0  0  0  0  1  0  0  0  0  0  0
  186.8290  177.7570  142.5440 C   0  0  2  0  0  3  0  0  0  0  0  0
  185.2660  179.4270  145.4380 O   0  0  0  0  0  0  0  0  0  0  0  0
  188.2800  177.4620  147.3860 C   0  0  0  0  0  0  0  0  0  0  0  0
  185.9560  177.1810  146.8070 O   0  0  0  0  0  1  0  0  0  0  0  0
  184.6220  179.5670  143.1860 C   0  0  1  0  0  3  0  0  0  0  0  0
  190.5230  176.2700  139.6480 O   0  0  0  0  0  0  0  0  0  0  0  0
  190.4500  176.8800  138.4580 O   0  0  0  0  0  0  0  0  0  0  0  0
  189.7400  175.9890  137.6570 C   0  0  0  0  0  2  0  0  0  0  0  0
  188.2450  175.0840  134.9340 C   0  0  2  0  0  3  0  0  0  0  0  0
  189.6350  174.6260  134.9020 N   0  0  0  0  0  2  0  0  0  0  0  0
  189.6490  176.5230  136.2300 C   0  0  1  0  0  3  0  0  0  0  0  0
  190.4590  175.6790  135.3610 N   0  0  0  0  0  2  0  0  0  0  0  0
  188.2640  176.4200  135.6430 C   0  0  2  0  0  3  0  0  0  0  0  0
  184.6450  177.3340  136.3510 C   0  0  0  0  0  3  0  0  0  0  0  0
  183.2680  178.3860  138.4590 Cl  0  0  0  0  0  0  0  0  0  0  0  0
  187.1000  177.4010  137.6900 C   0  0  0  0  0  3  0  0  0  0  0  0
  185.8060  176.8880  135.7100 C   0  0  0  0  0  3  0  0  0  0  0  0
  185.9410  177.8470  138.3310 C   0  0  0  0  0  3  0  0  0  0  0  0
  187.0420  176.9210  136.3720 C   0  0  0  0  0  0  0  0  0  0  0  0
  184.7140  177.8150  137.6610 C   0  0  0  0  0  0  0  0  0  0  0  0
  187.2150  173.8230  135.6910 S   0  0  0  0  0  0  0  0  0  0  0  0
  187.0910  174.1000  137.1640 O   0  0  0  0  0  0  0  0  0  0  0  0
  187.8740  172.1840  135.4600 C   0  0  0  0  0  1  0  0  0  0  0  0
  185.8480  173.8780  135.0680 O   0  0  0  0  0  0  0  0  0  0  0  0
  2  8  1  6  0  0  0
  2  5  1  0  0  0  0
  3 22  1  0  0  0  0
  3  7  1  0  0  0  0
  4 17  2  0  0  0  0
  5 16  1  0  0  0  0
  6  4  1  0  0  0  0
  6 10  2  0  0  0  0
  8 21  2  0  0  0  0
  9 13  1  0  0  0  0
 10  9  1  0  0  0  0
 11  5  2  0  0  0  0
 11 14  1  0  0  0  0
 12 10  1  0  0  0  0
 13 11  1  0  0  0  0
 14  3  2  0  0  0  0
 15 24  1  0  0  0  0
 16 23  1  0  0  0  0
 16 22  2  0  0  0  0
 17 20  1  0  0  0  0
 17 13  1  0  0  0  0
 18 15  1  0  0  0  0
 20 18  1  6  0  0  0
 20  2  1  0  0  0  0
 22 19  1  0  0  0  0
 24  1  1  1  0  0  0
 24  8  1  0  0  0  0
 25  6  1  0  0  0  0
 26 25  1  0  0  0  0
 27 26  1  0  0  0  0
 28 32  1  0  0  0  0
 28 40  1  1  0  0  0
 29 28  1  0  0  0  0
 29 31  1  0  0  0  0
 30 27  1  1  0  0  0
 31 30  1  0  0  0  0
 32 30  1  0  0  0  0
 32 38  1  1  0  0  0
 33 39  1  0  0  0  0
 35 37  1  0  0  0  0
 36 33  2  0  0  0  0
 36 38  1  0  0  0  0
 38 35  2  0  0  0  0
 39 37  2  0  0  0  0
 39 34  1  0  0  0  0
 40 41  2  0  0  0  0
 42 40  1  0  0  0  0
 43 40  2  0  0  0  0
M  END
>  <MODEL>
1

>  <REMARK>
 VINA RESULT:      -9.0      0.000      0.000
  Name = 
  6 active torsions:
  status: ('A' for Active; 'I' for Inactive)
    1  A    between atoms: C_8  and  O_16
    2  A    between atoms: C_12  and  C_33
    3  A    between atoms: C_12  and  O_42
    4  A    between atoms: O_16  and  O_42
    5  A    between atoms: S_18  and  C_23
    6  A    between atoms: C_25  and  C_41
                            x       y       z     vdW  Elec       q    Type
                         _______ _______ _______ _____ _____    ______ ____

>  <TORSDO>
F 6

$$$$
=
 OpenBabel11062416063D

 43 48  0  0  1  0  0  0  0  0999 V2000
  192.2790  177.0530  140.3360 O   0  0  0  0  0  1  0  0  0  0  0  0
  189.6150  178.0750  142.4470 C   0  0  1  0  0  3  0  0  0  0  0  0
  187.9480  177.4580  146.3990 C   0  0  0  0  0  0  0  0  0  0  0  0
  186.3280  179.0940  140.8800 C   0  0  0  0  0  3  0  0  0  0  0  0
  189.0120  177.9090  143.8330 C   0  0  0  0  0  0  0  0  0  0  0  0
  184.8930  179.1390  141.2100 C   0  0  0  0  0  0  0  0  0  0  0  0
  187.4080  177.1960  147.6510 O   0  0  0  0  0  1  0  0  0  0  0  0
  190.6570  177.0270  142.0700 C   0  0  0  0  0  0  0  0  0  0  0  0
  185.3060  177.5080  143.0330 C   0  0  0  0  0  2  0  0  0  0  0  0
  184.4140  178.4270  142.2390 C   0  0  0  0  0  0  0  0  0  0  0  0
  187.6280  177.6910  143.9980 C   0  0  0  0  0  0  0  0  0  0  0  0
  183.0190  178.4490  142.5360 N   0  0  0  0  0  1  0  0  0  0  0  0
  186.7270  177.8540  142.8910 N   0  0  0  0  0  0  0  0  0  0  0  0
  187.1170  177.4480  145.2800 C   0  0  0  0  0  3  0  0  0  0  0  0
  190.0280  177.5300  139.7240 C   0  0  0  0  0  2  0  0  0  0  0  0
  189.8330  178.0080  144.9780 C   0  0  0  0  0  0  0  0  0  0  0  0
  187.1940  178.4780  141.6860 C   0  0  0  0  0  0  0  0  0  0  0  0
  188.7230  177.4390  140.2230 O   0  0  0  0  0  0  0  0  0  0  0  0
  190.1870  177.8240  147.4570 C   0  0  0  0  0  1  0  0  0  0  0  0
  188.6270  178.3770  141.2740 C   0  0  2  0  0  3  0  0  0  0  0  0
  191.2970  176.4450  142.9310 O   0  0  0  0  0  0  0  0  0  0  0  0
  189.3050  177.7590  146.2530 C   0  0  0  0  0  0  0  0  0  0  0  0
  191.1710  178.3650  144.8510 O   0  0  0  0  0  1  0  0  0  0  0  0
  190.9540  176.7260  140.6260 C   0  0  1  0  0  3  0  0  0  0  0  0
  184.0230  179.9120  140.4400 O   0  0  0  0  0  0  0  0  0  0  0  0
  184.1740  180.0200  139.1140 O   0  0  0  0  0  0  0  0  0  0  0  0
  183.0240  179.4380  138.5860 C   0  0  0  0  0  2  0  0  0  0  0  0
  180.0140  179.8450  137.4740 C   0  0  2  0  0  3  0  0  0  0  0  0
  180.8420  180.9810  137.0650 N   0  0  0  0  0  2  0  0  0  0  0  0
  181.7890  180.2140  139.0340 C   0  0  1  0  0  3  0  0  0  0  0  0
  181.6270  181.3770  138.1710 N   0  0  0  0  0  2  0  0  0  0  0  0
  180.5040  179.4470  138.8490 C   0  0  2  0  0  3  0  0  0  0  0  0
  178.9310  176.3910  140.4660 C   0  0  0  0  0  3  0  0  0  0  0  0
  179.6710  173.7990  140.8880 Cl  0  0  0  0  0  0  0  0  0  0  0  0
  181.3190  177.0510  139.1680 C   0  0  0  0  0  3  0  0  0  0  0  0
  179.1370  177.6920  139.9960 C   0  0  0  0  0  3  0  0  0  0  0  0
  181.1140  175.7510  139.6380 C   0  0  0  0  0  3  0  0  0  0  0  0
  180.3330  178.0340  139.3470 C   0  0  0  0  0  0  0  0  0  0  0  0
  179.9210  175.4220  140.2880 C   0  0  0  0  0  0  0  0  0  0  0  0
  180.0960  178.5600  136.2230 S   0  0  0  0  0  0  0  0  0  0  0  0
  181.4750  177.9610  136.2150 O   0  0  0  0  0  0  0  0  0  0  0  0
  179.7200  179.1770  134.5950 C   0  0  0  0  0  1  0  0  0  0  0  0
  179.1010  177.4870  136.5660 O   0  0  0  0  0  0  0  0  0  0  0  0
  2  8  1  6  0  0  0
  2  5  1  0  0  0  0
  3  7  1  0  0  0  0
  4  6  1  0  0  0  0
  4 17  2  0  0  0  0
  5 11  2  0  0  0  0
  5 16  1  0  0  0  0
  6 10  2  0  0  0  0
  8 21  2  0  0  0  0
 10 12  1  0  0  0  0
 10  9  1  0  0  0  0
 11 14  1  0  0  0  0
 13  9  1  0  0  0  0
 13 11  1  0  0  0  0
 14  3  2  0  0  0  0
 15 18  1  0  0  0  0
 15 24  1  0  0  0  0
 16 22  2  0  0  0  0
 17 13  1  0  0  0  0
 20 18  1  6  0  0  0
 20 17  1  0  0  0  0
 20  2  1  0  0  0  0
 22  3  1  0  0  0  0
 22 19  1  0  0  0  0
 23 16  1  0  0  0  0
 24  1  1  6  0  0  0
 24  8  1  0  0  0  0
 25  6  1  0  0  0  0
 26 25  1  0  0  0  0
 27 26  1  0  0  0  0
 28 40  1  6  0  0  0
 28 32  1  0  0  0  0
 29 28  1  0  0  0  0
 29 31  1  0  0  0  0
 30 27  1  6  0  0  0
 31 30  1  0  0  0  0
 32 30  1  0  0  0  0
 32 38  1  6  0  0  0
 35 38  2  0  0  0  0
 35 37  1  0  0  0  0
 36 33  2  0  0  0  0
 37 39  2  0  0  0  0
 38 36  1  0  0  0  0
 39 33  1  0  0  0  0
 39 34  1  0  0  0  0
 40 43  2  0  0  0  0
 41 40  2  0  0  0  0
 42 40  1  0  0  0  0
M  END
>  <MODEL>
2

>  <REMARK>
 VINA RESULT:      -8.5      4.370      6.586
  Name = 
  6 active torsions:
  status: ('A' for Active; 'I' for Inactive)
    1  A    between atoms: C_8  and  O_16
    2  A    between atoms: C_12  and  C_33
    3  A    between atoms: C_12  and  O_42
    4  A    between atoms: O_16  and  O_42
    5  A    between atoms: S_18  and  C_23
    6  A    between atoms: C_25  and  C_41
                            x       y       z     vdW  Elec       q    Type
                         _______ _______ _______ _____ _____    ______ ____

>  <TORSDO>
F 6

$$$$
=
 OpenBabel11062416063D

 43 48  0  0  1  0  0  0  0  0999 V2000
  192.0470  175.8860  143.5140 O   0  0  0  0  0  1  0  0  0  0  0  0
  189.0150  177.6820  143.9460 C   0  0  1  0  0  3  0  0  0  0  0  0
  185.7390  178.2520  146.7240 C   0  0  0  0  0  0  0  0  0  0  0  0
  186.9980  178.6240  140.8900 C   0  0  0  0  0  3  0  0  0  0  0  0
  187.8610  177.9320  144.9030 C   0  0  0  0  0  0  0  0  0  0  0  0
  185.6020  178.9030  140.5080 C   0  0  0  0  0  0  0  0  0  0  0  0
  184.6770  178.3700  147.6110 O   0  0  0  0  0  1  0  0  0  0  0  0
  189.8750  176.4670  144.2800 C   0  0  0  0  0  0  0  0  0  0  0  0
  184.8520  177.7440  142.5680 C   0  0  0  0  0  2  0  0  0  0  0  0
  184.5950  178.5260  141.3070 C   0  0  0  0  0  0  0  0  0  0  0  0
  186.5260  177.9120  144.4470 C   0  0  0  0  0  0  0  0  0  0  0  0
  183.2440  178.7700  140.9180 N   0  0  0  0  0  1  0  0  0  0  0  0
  186.2370  177.8890  143.0400 N   0  0  0  0  0  0  0  0  0  0  0  0
  185.4800  178.0530  145.3690 C   0  0  0  0  0  3  0  0  0  0  0  0
  190.4220  176.4340  141.8610 C   0  0  0  0  0  2  0  0  0  0  0  0
  188.1190  178.2250  146.2600 C   0  0  0  0  0  0  0  0  0  0  0  0
  187.2900  178.1400  142.0980 C   0  0  0  0  0  0  0  0  0  0  0  0
  189.0420  176.6100  141.7100 O   0  0  0  0  0  0  0  0  0  0  0  0
  187.3390  178.6280  148.6130 C   0  0  0  0  0  1  0  0  0  0  0  0
  188.7070  177.7860  142.4170 C   0  0  2  0  0  3  0  0  0  0  0  0
  189.9520  176.0530  145.4250 O   0  0  0  0  0  0  0  0  0  0  0  0
  187.0600  178.3600  147.1700 C   0  0  0  0  0  0  0  0  0  0  0  0
  189.4250  178.3930  146.7040 O   0  0  0  0  0  1  0  0  0  0  0  0
  190.6880  175.7860  143.2120 C   0  0  1  0  0  3  0  0  0  0  0  0
  185.3240  179.5490  139.3030 O   0  0  0  0  0  0  0  0  0  0  0  0
  184.9960  178.8600  138.2020 O   0  0  0  0  0  0  0  0  0  0  0  0
  186.1140  178.0700  137.9430 C   0  0  0  0  0  2  0  0  0  0  0  0
  189.0690  177.9550  136.6310 C   0  0  2  0  0  3  0  0  0  0  0  0
  188.8160  179.3020  137.1440 N   0  0  0  0  0  2  0  0  0  0  0  0
  186.7300  178.4550  136.6010 C   0  0  1  0  0  3  0  0  0  0  0  0
  187.5040  179.6780  136.7740 N   0  0  0  0  0  2  0  0  0  0  0  0
  187.7420  177.4550  136.1020 C   0  0  2  0  0  3  0  0  0  0  0  0
  187.9600  173.8070  135.0640 C   0  0  0  0  0  3  0  0  0  0  0  0
  186.6770  171.4980  135.7460 Cl  0  0  0  0  0  0  0  0  0  0  0  0
  186.4680  175.3710  136.8400 C   0  0  0  0  0  3  0  0  0  0  0  0
  188.1930  175.1840  135.1520 C   0  0  0  0  0  3  0  0  0  0  0  0
  186.2350  173.9960  136.7530 C   0  0  0  0  0  3  0  0  0  0  0  0
  187.4480  175.9770  136.0370 C   0  0  0  0  0  0  0  0  0  0  0  0
  186.9790  173.2150  135.8630 C   0  0  0  0  0  0  0  0  0  0  0  0
  189.8130  176.9510  137.9210 S   0  0  0  0  0  0  0  0  0  0  0  0
  190.5580  177.8430  138.8770 O   0  0  0  0  0  0  0  0  0  0  0  0
  190.9340  175.7320  137.2670 C   0  0  0  0  0  1  0  0  0  0  0  0
  188.7200  176.2400  138.6710 O   0  0  0  0  0  0  0  0  0  0  0  0
  2  8  1  6  0  0  0
  2  5  1  0  0  0  0
  3 22  1  0  0  0  0
  3  7  1  0  0  0  0
  4 17  2  0  0  0  0
  5 16  1  0  0  0  0
  6  4  1  0  0  0  0
  6 10  2  0  0  0  0
  8 21  2  0  0  0  0
  9 13  1  0  0  0  0
 10  9  1  0  0  0  0
 11  5  2  0  0  0  0
 11 14  1  0  0  0  0
 12 10  1  0  0  0  0
 13 11  1  0  0  0  0
 14  3  2  0  0  0  0
 15 24  1  0  0  0  0
 16 23  1  0  0  0  0
 16 22  2  0  0  0  0
 17 20  1  0  0  0  0
 17 13  1  0  0  0  0
 18 15  1  0  0  0  0
 20 18  1  6  0  0  0
 20  2  1  0  0  0  0
 22 19  1  0  0  0  0
 24  1  1  1  0  0  0
 24  8  1  0  0  0  0
 25  6  1  0  0  0  0
 26 25  1  0  0  0  0
 27 26  1  0  0  0  0
 28 29  1  0  0  0  0
 28 40  1  1  0  0  0
 30 31  1  0  0  0  0
 30 27  1  1  0  0  0
 31 29  1  0  0  0  0
 32 38  1  1  0  0  0
 32 30  1  0  0  0  0
 32 28  1  0  0  0  0
 33 36  2  0  0  0  0
 33 39  1  0  0  0  0
 34 39  1  0  0  0  0
 36 38  1  0  0  0  0
 37 35  1  0  0  0  0
 38 35  2  0  0  0  0
 39 37  2  0  0  0  0
 40 43  2  0  0  0  0
 40 41  2  0  0  0  0
 42 40  1  0  0  0  0
M  END
>  <MODEL>
3

>  <REMARK>
 VINA RESULT:      -8.4      2.689      4.782
  Name = 
  6 active torsions:
  status: ('A' for Active; 'I' for Inactive)
    1  A    between atoms: C_8  and  O_16
    2  A    between atoms: C_12  and  C_33
    3  A    between atoms: C_12  and  O_42
    4  A    between atoms: O_16  and  O_42
    5  A    between atoms: S_18  and  C_23
    6  A    between atoms: C_25  and  C_41
                            x       y       z     vdW  Elec       q    Type
                         _______ _______ _______ _____ _____    ______ ____

>  <TORSDO>
F 6

$$$$
=
 OpenBabel11062416063D

 43 48  0  0  1  0  0  0  0  0999 V2000
  192.3870  177.1150  140.1820 O   0  0  0  0  0  1  0  0  0  0  0  0
  189.8150  178.0550  142.4410 C   0  0  1  0  0  3  0  0  0  0  0  0
  188.3790  177.3730  146.4720 C   0  0  0  0  0  0  0  0  0  0  0  0
  186.4240  178.9980  141.0600 C   0  0  0  0  0  3  0  0  0  0  0  0
  189.2920  177.8660  143.8560 C   0  0  0  0  0  0  0  0  0  0  0  0
  185.0080  179.0050  141.4670 C   0  0  0  0  0  0  0  0  0  0  0  0
  187.9150  177.0900  147.7490 O   0  0  0  0  0  1  0  0  0  0  0  0
  190.8610  177.0370  142.0000 C   0  0  0  0  0  0  0  0  0  0  0  0
  185.5590  177.3740  143.2520 C   0  0  0  0  0  2  0  0  0  0  0  0
  184.6030  178.2750  142.5140 C   0  0  0  0  0  0  0  0  0  0  0  0
  187.9250  177.6110  144.0930 C   0  0  0  0  0  0  0  0  0  0  0  0
  183.2260  178.2590  142.8850 N   0  0  0  0  0  1  0  0  0  0  0  0
  186.9620  177.7570  143.0370 N   0  0  0  0  0  0  0  0  0  0  0  0
  187.4900  177.3480  145.3990 C   0  0  0  0  0  3  0  0  0  0  0  0
  190.0940  177.5370  139.6960 C   0  0  0  0  0  2  0  0  0  0  0  0
  190.1710  177.9800  144.9550 C   0  0  0  0  0  0  0  0  0  0  0  0
  187.3480  178.4010  141.8140 C   0  0  0  0  0  0  0  0  0  0  0  0
  188.8210  177.4100  140.2630 O   0  0  0  0  0  0  0  0  0  0  0  0
  190.6620  177.7900  147.4110 C   0  0  0  0  0  1  0  0  0  0  0  0
  188.7590  178.3390  141.3250 C   0  0  2  0  0  3  0  0  0  0  0  0
  191.5610  176.4670  142.8210 O   0  0  0  0  0  0  0  0  0  0  0  0
  189.7190  177.7100  146.2560 C   0  0  0  0  0  0  0  0  0  0  0  0
  191.4900  178.3710  144.7600 O   0  0  0  0  0  1  0  0  0  0  0  0
  191.0880  176.7520  140.5400 C   0  0  1  0  0  3  0  0  0  0  0  0
  184.0780  179.7600  140.7500 O   0  0  0  0  0  0  0  0  0  0  0  0
  184.2850  180.0860  139.4680 O   0  0  0  0  0  0  0  0  0  0  0  0
  183.0870  179.7640  138.8320 C   0  0  0  0  0  2  0  0  0  0  0  0
  180.6540  177.6970  138.3120 C   0  0  2  0  0  3  0  0  0  0  0  0
  180.1250  178.9390  138.8770 N   0  0  0  0  0  2  0  0  0  0  0  0
  182.2910  178.7770  139.6820 C   0  0  1  0  0  3  0  0  0  0  0  0
  180.9700  179.3380  139.9380 N   0  0  0  0  0  2  0  0  0  0  0  0
  182.0000  177.4800  138.9690 C   0  0  2  0  0  3  0  0  0  0  0  0
  183.9420  174.5080  137.6190 C   0  0  0  0  0  3  0  0  0  0  0  0
  186.2460  174.1570  136.1990 Cl  0  0  0  0  0  0  0  0  0  0  0  0
  184.1640  177.2970  137.6330 C   0  0  0  0  0  3  0  0  0  0  0  0
  182.9710  175.2860  138.2590 C   0  0  0  0  0  3  0  0  0  0  0  0
  185.1350  176.5210  136.9930 C   0  0  0  0  0  3  0  0  0  0  0  0
  183.0760  176.6850  138.2740 C   0  0  0  0  0  0  0  0  0  0  0  0
  185.0240  175.1270  136.9880 C   0  0  0  0  0  0  0  0  0  0  0  0
  180.6810  177.8160  136.5200 S   0  0  0  0  0  0  0  0  0  0  0  0
  181.7880  178.7430  136.1000 O   0  0  0  0  0  0  0  0  0  0  0  0
  179.1380  178.4140  135.8600 C   0  0  0  0  0  1  0  0  0  0  0  0
  180.9460  176.4510  135.9490 O   0  0  0  0  0  0  0  0  0  0  0  0
  2  8  1  6  0  0  0
  2  5  1  0  0  0  0
  3  7  1  0  0  0  0
  4  6  1  0  0  0  0
  4 17  2  0  0  0  0
  5 11  2  0  0  0  0
  5 16  1  0  0  0  0
  6 10  2  0  0  0  0
  8 21  2  0  0  0  0
 10 12  1  0  0  0  0
 10  9  1  0  0  0  0
 11 14  1  0  0  0  0
 13  9  1  0  0  0  0
 13 11  1  0  0  0  0
 14  3  2  0  0  0  0
 15 18  1  0  0  0  0
 15 24  1  0  0  0  0
 16 22  2  0  0  0  0
 17 13  1  0  0  0  0
 20 18  1  6  0  0  0
 20 17  1  0  0  0  0
 20  2  1  0  0  0  0
 22  3  1  0  0  0  0
 22 19  1  0  0  0  0
 23 16  1  0  0  0  0
 24  1  1  6  0  0  0
 24  8  1  0  0  0  0
 25  6  1  0  0  0  0
 26 25  1  0  0  0  0
 27 26  1  0  0  0  0
 28 40  1  6  0  0  0
 28 29  1  0  0  0  0
 28 32  1  0  0  0  0
 29 31  1  0  0  0  0
 30 27  1  6  0  0  0
 30 31  1  0  0  0  0
 32 38  1  6  0  0  0
 32 30  1  0  0  0  0
 33 36  1  0  0  0  0
 34 39  1  0  0  0  0
 35 38  1  0  0  0  0
 36 38  2  0  0  0  0
 37 35  2  0  0  0  0
 39 37  1  0  0  0  0
 39 33  2  0  0  0  0
 41 40  2  0  0  0  0
 42 40  1  0  0  0  0
 43 40  2  0  0  0  0
M  END
>  <MODEL>
4

>  <REMARK>
 VINA RESULT:      -8.2      3.649      6.034
  Name = 
  6 active torsions:
  status: ('A' for Active; 'I' for Inactive)
    1  A    between atoms: C_8  and  O_16
    2  A    between atoms: C_12  and  C_33
    3  A    between atoms: C_12  and  O_42
    4  A    between atoms: O_16  and  O_42
    5  A    between atoms: S_18  and  C_23
    6  A    between atoms: C_25  and  C_41
                            x       y       z     vdW  Elec       q    Type
                         _______ _______ _______ _____ _____    ______ ____

>  <TORSDO>
F 6

$$$$
=
 OpenBabel11062416063D

 43 48  0  0  1  0  0  0  0  0999 V2000
  192.7740  177.0440  140.5780 O   0  0  0  0  0  1  0  0  0  0  0  0
  190.1260  177.9680  142.7540 C   0  0  1  0  0  3  0  0  0  0  0  0
  188.5050  177.1940  146.6970 C   0  0  0  0  0  0  0  0  0  0  0  0
  186.8170  179.0230  141.2610 C   0  0  0  0  0  3  0  0  0  0  0  0
  189.5390  177.7470  144.1390 C   0  0  0  0  0  0  0  0  0  0  0  0
  185.3840  179.0470  141.6080 C   0  0  0  0  0  0  0  0  0  0  0  0
  187.9810  176.8810  147.9450 O   0  0  0  0  0  1  0  0  0  0  0  0
  191.1700  176.9420  142.3270 C   0  0  0  0  0  0  0  0  0  0  0  0
  185.8270  177.3520  143.3630 C   0  0  0  0  0  2  0  0  0  0  0  0
  184.9210  178.2940  142.6140 C   0  0  0  0  0  0  0  0  0  0  0  0
  188.1580  177.5140  144.3110 C   0  0  0  0  0  0  0  0  0  0  0  0
  183.5290  178.2950  142.9260 N   0  0  0  0  0  1  0  0  0  0  0  0
  187.2450  177.7120  143.2190 N   0  0  0  0  0  0  0  0  0  0  0  0
  187.6620  177.2200  145.5880 C   0  0  0  0  0  3  0  0  0  0  0  0
  190.5130  177.5280  140.0080 C   0  0  0  0  0  2  0  0  0  0  0  0
  190.3720  177.8090  145.2780 C   0  0  0  0  0  0  0  0  0  0  0  0
  187.6950  178.3840  142.0340 C   0  0  0  0  0  0  0  0  0  0  0  0
  189.2140  177.4100  140.5170 O   0  0  0  0  0  0  0  0  0  0  0  0
  190.7540  177.5340  147.7450 C   0  0  0  0  0  1  0  0  0  0  0  0
  189.1240  178.3080  141.6040 C   0  0  2  0  0  3  0  0  0  0  0  0
  191.8230  176.3330  143.1590 O   0  0  0  0  0  0  0  0  0  0  0  0
  189.8590  177.5090  146.5490 C   0  0  0  0  0  0  0  0  0  0  0  0
  191.7060  178.1790  145.1510 O   0  0  0  0  0  1  0  0  0  0  0  0
  191.4530  176.6970  140.8690 C   0  0  1  0  0  3  0  0  0  0  0  0
  184.5020  179.8420  140.8760 O   0  0  0  0  0  0  0  0  0  0  0  0
  184.3900  179.7200  139.5470 O   0  0  0  0  0  0  0  0  0  0  0  0
  183.5950  178.5910  139.3690 C   0  0  0  0  0  2  0  0  0  0  0  0
  181.4990  177.0540  137.4430 C   0  0  2  0  0  3  0  0  0  0  0  0
  182.5450  176.1220  137.8660 N   0  0  0  0  0  2  0  0  0  0  0  0
  183.5440  178.2110  137.8920 C   0  0  1  0  0  3  0  0  0  0  0  0
  183.7920  176.7810  137.7660 N   0  0  0  0  0  2  0  0  0  0  0  0
  182.1790  178.3960  137.2780 C   0  0  2  0  0  3  0  0  0  0  0  0
  180.0000  181.3770  136.3880 C   0  0  0  0  0  3  0  0  0  0  0  0
  178.9880  183.5310  137.7240 Cl  0  0  0  0  0  0  0  0  0  0  0  0
  181.2910  180.3550  138.6490 C   0  0  0  0  0  3  0  0  0  0  0  0
  180.7430  180.1960  136.2970 C   0  0  0  0  0  3  0  0  0  0  0  0
  180.5490  181.5360  138.7410 C   0  0  0  0  0  3  0  0  0  0  0  0
  181.3970  179.6770  137.4240 C   0  0  0  0  0  0  0  0  0  0  0  0
  179.9050  182.0470  137.6100 C   0  0  0  0  0  0  0  0  0  0  0  0
  180.1460  177.0140  138.6230 S   0  0  0  0  0  0  0  0  0  0  0  0
  180.6230  177.5540  139.9440 O   0  0  0  0  0  0  0  0  0  0  0  0
  179.5060  175.3700  138.8630 C   0  0  0  0  0  1  0  0  0  0  0  0
  179.0340  177.8890  138.1140 O   0  0  0  0  0  0  0  0  0  0  0  0
  2  8  1  6  0  0  0
  2  5  1  0  0  0  0
  3  7  1  0  0  0  0
  4  6  1  0  0  0  0
  4 17  2  0  0  0  0
  5 11  2  0  0  0  0
  5 16  1  0  0  0  0
  6 10  2  0  0  0  0
  8 21  2  0  0  0  0
 10 12  1  0  0  0  0
 10  9  1  0  0  0  0
 11 14  1  0  0  0  0
 13  9  1  0  0  0  0
 13 11  1  0  0  0  0
 14  3  2  0  0  0  0
 15 18  1  0  0  0  0
 15 24  1  0  0  0  0
 16 22  2  0  0  0  0
 17 13  1  0  0  0  0
 20 18  1  6  0  0  0
 20 17  1  0  0  0  0
 20  2  1  0  0  0  0
 22  3  1  0  0  0  0
 22 19  1  0  0  0  0
 23 16  1  0  0  0  0
 24  1  1  1  0  0  0
 24  8  1  0  0  0  0
 25  6  1  0  0  0  0
 26 25  1  0  0  0  0
 27 26  1  0  0  0  0
 28 29  1  0  0  0  0
 28 40  1  1  0  0  0
 30 27  1  1  0  0  0
 31 29  1  0  0  0  0
 31 30  1  0  0  0  0
 32 38  1  1  0  0  0
 32 28  1  0  0  0  0
 32 30  1  0  0  0  0
 33 39  1  0  0  0  0
 35 37  1  0  0  0  0
 36 33  2  0  0  0  0
 36 38  1  0  0  0  0
 38 35  2  0  0  0  0
 39 34  1  0  0  0  0
 39 37  2  0  0  0  0
 40 42  1  0  0  0  0
 40 41  2  0  0  0  0
 43 40  2  0  0  0  0
M  END
>  <MODEL>
5

>  <REMARK>
 VINA RESULT:      -8.2      3.819      6.060
  Name = 
  6 active torsions:
  status: ('A' for Active; 'I' for Inactive)
    1  A    between atoms: C_8  and  O_16
    2  A    between atoms: C_12  and  C_33
    3  A    between atoms: C_12  and  O_42
    4  A    between atoms: O_16  and  O_42
    5  A    between atoms: S_18  and  C_23
    6  A    between atoms: C_25  and  C_41
                            x       y       z     vdW  Elec       q    Type
                         _______ _______ _______ _____ _____    ______ ____

>  <TORSDO>
F 6

$$$$
=
 OpenBabel11062416063D

 43 48  0  0  1  0  0  0  0  0999 V2000
  183.3560  179.0320  145.8370 O   0  0  0  0  0  1  0  0  0  0  0  0
  186.3560  177.8980  144.3150 C   0  0  1  0  0  3  0  0  0  0  0  0
  190.6410  177.6980  144.9230 C   0  0  0  0  0  0  0  0  0  0  0  0
  186.5750  177.8210  140.5410 C   0  0  0  0  0  3  0  0  0  0  0  0
  187.8610  177.7830  144.5000 C   0  0  0  0  0  0  0  0  0  0  0  0
  187.5870  177.9030  139.4730 C   0  0  0  0  0  0  0  0  0  0  0  0
  192.0150  177.7000  145.1240 O   0  0  0  0  0  1  0  0  0  0  0  0
  185.6590  178.8430  145.2890 C   0  0  0  0  0  0  0  0  0  0  0  0
  189.1580  178.9210  141.1000 C   0  0  0  0  0  2  0  0  0  0  0  0
  188.8090  178.3840  139.7360 C   0  0  0  0  0  0  0  0  0  0  0  0
  188.7470  178.1510  143.4660 C   0  0  0  0  0  0  0  0  0  0  0  0
  189.7750  178.4910  138.6920 N   0  0  0  0  0  1  0  0  0  0  0  0
  188.2530  178.4190  142.1430 N   0  0  0  0  0  0  0  0  0  0  0  0
  190.1280  178.1220  143.6990 C   0  0  0  0  0  3  0  0  0  0  0  0
  183.9290  179.0700  143.5260 C   0  0  0  0  0  2  0  0  0  0  0  0
  188.3870  177.2670  145.7040 C   0  0  0  0  0  0  0  0  0  0  0  0
  186.9010  178.0690  141.8100 C   0  0  0  0  0  0  0  0  0  0  0  0
  185.0370  179.2180  142.6820 O   0  0  0  0  0  0  0  0  0  0  0  0
  190.3230  176.7420  147.2150 C   0  0  0  0  0  1  0  0  0  0  0  0
  185.8300  178.0620  142.8520 C   0  0  2  0  0  3  0  0  0  0  0  0
  186.1430  179.0780  146.3840 O   0  0  0  0  0  0  0  0  0  0  0  0
  189.7730  177.2490  145.9230 C   0  0  0  0  0  0  0  0  0  0  0  0
  187.5370  176.7630  146.6820 O   0  0  0  0  0  1  0  0  0  0  0  0
  184.3340  179.4640  144.9390 C   0  0  1  0  0  3  0  0  0  0  0  0
  187.2690  177.4960  138.1770 O   0  0  0  0  0  0  0  0  0  0  0  0
  186.2220  178.0120  137.5200 O   0  0  0  0  0  0  0  0  0  0  0  0
  185.4790  176.9020  137.1270 C   0  0  0  0  0  2  0  0  0  0  0  0
  182.7960  175.5710  135.9030 C   0  0  2  0  0  3  0  0  0  0  0  0
  183.9130  175.3470  134.9850 N   0  0  0  0  0  2  0  0  0  0  0  0
  184.4260  177.3100  136.1000 C   0  0  1  0  0  3  0  0  0  0  0  0
  184.6460  176.5510  134.8760 N   0  0  0  0  0  2  0  0  0  0  0  0
  183.0230  176.9390  136.5080 C   0  0  2  0  0  3  0  0  0  0  0  0
  180.5460  177.9700  139.1980 C   0  0  0  0  0  3  0  0  0  0  0  0
  180.6300  178.3320  141.9010 Cl  0  0  0  0  0  0  0  0  0  0  0  0
  183.2390  177.2320  139.0330 C   0  0  0  0  0  3  0  0  0  0  0  0
  181.1120  177.6510  137.9580 C   0  0  0  0  0  3  0  0  0  0  0  0
  182.6760  177.5500  140.2710 C   0  0  0  0  0  3  0  0  0  0  0  0
  182.4620  177.2830  137.8650 C   0  0  0  0  0  0  0  0  0  0  0  0
  181.3300  177.9210  140.3530 C   0  0  0  0  0  0  0  0  0  0  0  0
  182.7020  174.2150  137.0770 S   0  0  0  0  0  0  0  0  0  0  0  0
  183.9030  174.2550  137.9810 O   0  0  0  0  0  0  0  0  0  0  0  0
  182.6320  172.6280  136.2710 C   0  0  0  0  0  1  0  0  0  0  0  0
  181.4610  174.3810  137.9090 O   0  0  0  0  0  0  0  0  0  0  0  0
  2  5  1  6  0  0  0
  2  8  1  0  0  0  0
  3  7  1  0  0  0  0
  3 22  1  0  0  0  0
  4 17  2  0  0  0  0
  5 16  1  0  0  0  0
  6 10  2  0  0  0  0
  6  4  1  0  0  0  0
  8 21  2  0  0  0  0
  9 13  1  0  0  0  0
 10  9  1  0  0  0  0
 11 14  1  0  0  0  0
 11  5  2  0  0  0  0
 12 10  1  0  0  0  0
 13 11  1  0  0  0  0
 14  3  2  0  0  0  0
 15 24  1  0  0  0  0
 16 22  2  0  0  0  0
 16 23  1  0  0  0  0
 17 13  1  0  0  0  0
 18 20  1  0  0  0  0
 18 15  1  0  0  0  0
 20 17  1  6  0  0  0
 20  2  1  0  0  0  0
 22 19  1  0  0  0  0
 24  8  1  0  0  0  0
 24  1  1  1  0  0  0
 25  6  1  0  0  0  0
 26 25  1  0  0  0  0
 27 26  1  0  0  0  0
 28 32  1  0  0  0  0
 28 40  1  1  0  0  0
 29 28  1  0  0  0  0
 30 32  1  0  0  0  0
 30 27  1  1  0  0  0
 31 29  1  0  0  0  0
 31 30  1  0  0  0  0
 32 38  1  1  0  0  0
 33 39  1  0  0  0  0
 35 37  1  0  0  0  0
 36 33  2  0  0  0  0
 37 39  2  0  0  0  0
 38 36  1  0  0  0  0
 38 35  2  0  0  0  0
 39 34  1  0  0  0  0
 40 43  2  0  0  0  0
 40 41  2  0  0  0  0
 42 40  1  0  0  0  0
M  END
>  <MODEL>
6

>  <REMARK>
 VINA RESULT:      -8.1      2.822      3.584
  Name = 
  6 active torsions:
  status: ('A' for Active; 'I' for Inactive)
    1  A    between atoms: C_8  and  O_16
    2  A    between atoms: C_12  and  C_33
    3  A    between atoms: C_12  and  O_42
    4  A    between atoms: O_16  and  O_42
    5  A    between atoms: S_18  and  C_23
    6  A    between atoms: C_25  and  C_41
                            x       y       z     vdW  Elec       q    Type
                         _______ _______ _______ _____ _____    ______ ____

>  <TORSDO>
F 6

$$$$
=
 OpenBabel11062416063D

 43 48  0  0  1  0  0  0  0  0999 V2000
  192.8500  171.9870  135.6630 O   0  0  0  0  0  1  0  0  0  0  0  0
  189.6460  173.2640  136.5010 C   0  0  1  0  0  3  0  0  0  0  0  0
  185.5020  173.2120  135.2400 C   0  0  0  0  0  0  0  0  0  0  0  0
  189.4100  176.6330  138.2010 C   0  0  0  0  0  3  0  0  0  0  0  0
  188.1770  173.2520  136.1100 C   0  0  0  0  0  0  0  0  0  0  0  0
  188.4690  177.7590  138.3370 C   0  0  0  0  0  0  0  0  0  0  0  0
  184.1920  173.2180  134.7770 O   0  0  0  0  0  1  0  0  0  0  0  0
  190.5970  172.7050  135.4480 C   0  0  0  0  0  0  0  0  0  0  0  0
  187.2810  176.9520  136.3150 C   0  0  0  0  0  2  0  0  0  0  0  0
  187.4490  177.8940  137.4790 C   0  0  0  0  0  0  0  0  0  0  0  0
  187.4430  174.4530  136.0200 C   0  0  0  0  0  0  0  0  0  0  0  0
  186.5590  179.0020  137.5950 N   0  0  0  0  0  1  0  0  0  0  0  0
  187.9930  175.6830  136.5200 N   0  0  0  0  0  0  0  0  0  0  0  0
  186.1170  174.4180  135.5670 C   0  0  0  0  0  3  0  0  0  0  0  0
  192.3130  174.1450  136.5130 C   0  0  0  0  0  2  0  0  0  0  0  0
  187.5210  172.0260  135.8660 C   0  0  0  0  0  0  0  0  0  0  0  0
  189.1760  175.6490  137.3320 C   0  0  0  0  0  0  0  0  0  0  0  0
  191.3010  175.1110  136.4650 O   0  0  0  0  0  0  0  0  0  0  0  0
  185.5190  170.7110  135.1120 C   0  0  0  0  0  1  0  0  0  0  0  0
  190.1960  174.5710  137.1600 C   0  0  2  0  0  3  0  0  0  0  0  0
  190.2080  171.8920  134.6250 O   0  0  0  0  0  0  0  0  0  0  0  0
  186.1950  172.0090  135.4090 C   0  0  0  0  0  0  0  0  0  0  0  0
  188.1810  170.8220  136.0860 O   0  0  0  0  0  1  0  0  0  0  0  0
  192.0480  173.1050  135.4340 C   0  0  1  0  0  3  0  0  0  0  0  0
  188.6480  178.7000  139.3520 O   0  0  0  0  0  0  0  0  0  0  0  0
  188.0980  178.5340  140.5620 O   0  0  0  0  0  0  0  0  0  0  0  0
  189.1740  178.2180  141.3890 C   0  0  0  0  0  2  0  0  0  0  0  0
  190.1770  176.4000  143.8690 C   0  0  2  0  0  3  0  0  0  0  0  0
  191.1750  176.3570  142.7990 N   0  0  0  0  0  2  0  0  0  0  0  0
  189.1530  176.7320  141.7330 C   0  0  1  0  0  3  0  0  0  0  0  0
  190.4980  176.1940  141.5690 N   0  0  0  0  0  2  0  0  0  0  0  0
  188.8310  176.4610  143.1810 C   0  0  2  0  0  3  0  0  0  0  0  0
  185.6220  178.4250  143.7000 C   0  0  0  0  0  3  0  0  0  0  0  0
  184.0010  179.0030  145.8190 Cl  0  0  0  0  0  0  0  0  0  0  0  0
  187.4010  176.9160  145.2430 C   0  0  0  0  0  3  0  0  0  0  0  0
  186.7430  177.8380  143.1040 C   0  0  0  0  0  3  0  0  0  0  0  0
  186.2820  177.5030  145.8400 C   0  0  0  0  0  3  0  0  0  0  0  0
  187.6420  177.0820  143.8700 C   0  0  0  0  0  0  0  0  0  0  0  0
  185.3930  178.2590  145.0680 C   0  0  0  0  0  0  0  0  0  0  0  0
  190.5420  177.7670  144.9750 S   0  0  0  0  0  0  0  0  0  0  0  0
  192.0180  178.0540  144.9410 O   0  0  0  0  0  0  0  0  0  0  0  0
  190.0520  177.4280  146.6530 C   0  0  0  0  0  1  0  0  0  0  0  0
  189.7990  178.9840  144.4990 O   0  0  0  0  0  0  0  0  0  0  0  0
  2  8  1  6  0  0  0
  2 20  1  0  0  0  0
  3 22  2  0  0  0  0
  3 14  1  0  0  0  0
  4  6  1  0  0  0  0
  5  2  1  0  0  0  0
  6 25  1  0  0  0  0
  7  3  1  0  0  0  0
  9 13  1  0  0  0  0
  9 10  1  0  0  0  0
 10 12  1  0  0  0  0
 10  6  2  0  0  0  0
 11  5  1  0  0  0  0
 11 13  1  0  0  0  0
 13 17  1  0  0  0  0
 14 11  2  0  0  0  0
 16 23  1  0  0  0  0
 16  5  2  0  0  0  0
 17  4  2  0  0  0  0
 18 15  1  0  0  0  0
 19 22  1  0  0  0  0
 20 18  1  6  0  0  0
 20 17  1  0  0  0  0
 21  8  2  0  0  0  0
 22 16  1  0  0  0  0
 24  8  1  0  0  0  0
 24  1  1  1  0  0  0
 24 15  1  0  0  0  0
 25 26  1  0  0  0  0
 26 27  1  0  0  0  0
 28 40  1  1  0  0  0
 29 28  1  0  0  0  0
 30 27  1  1  0  0  0
 30 32  1  0  0  0  0
 31 30  1  0  0  0  0
 31 29  1  0  0  0  0
 32 28  1  0  0  0  0
 32 38  1  1  0  0  0
 33 39  1  0  0  0  0
 35 37  1  0  0  0  0
 36 33  2  0  0  0  0
 36 38  1  0  0  0  0
 38 35  2  0  0  0  0
 39 34  1  0  0  0  0
 39 37  2  0  0  0  0
 40 42  1  0  0  0  0
 41 40  2  0  0  0  0
 43 40  2  0  0  0  0
M  END
>  <MODEL>
7

>  <REMARK>
 VINA RESULT:      -8.1      3.150      9.540
  Name = 
  6 active torsions:
  status: ('A' for Active; 'I' for Inactive)
    1  A    between atoms: C_8  and  O_16
    2  A    between atoms: C_12  and  C_33
    3  A    between atoms: C_12  and  O_42
    4  A    between atoms: O_16  and  O_42
    5  A    between atoms: S_18  and  C_23
    6  A    between atoms: C_25  and  C_41
                            x       y       z     vdW  Elec       q    Type
                         _______ _______ _______ _____ _____    ______ ____

>  <TORSDO>
F 6

$$$$
=
 OpenBabel11062416063D

 43 48  0  0  1  0  0  0  0  0999 V2000
  192.0260  175.8320  148.3340 O   0  0  0  0  0  1  0  0  0  0  0  0
  190.0520  177.3290  145.7920 C   0  0  1  0  0  3  0  0  0  0  0  0
  185.9420  178.0800  144.6440 C   0  0  0  0  0  0  0  0  0  0  0  0
  191.3810  177.4050  142.2530 C   0  0  0  0  0  3  0  0  0  0  0  0
  188.6260  177.6380  145.3650 C   0  0  0  0  0  0  0  0  0  0  0  0
  190.8830  177.4450  140.8670 C   0  0  0  0  0  0  0  0  0  0  0  0
  184.6140  178.2560  144.2780 O   0  0  0  0  0  1  0  0  0  0  0  0
  190.1790  176.3100  146.9200 C   0  0  0  0  0  0  0  0  0  0  0  0
  188.6800  176.6490  141.6830 C   0  0  0  0  0  2  0  0  0  0  0  0
  189.6100  177.1270  140.5970 C   0  0  0  0  0  0  0  0  0  0  0  0
  188.1930  177.3770  144.0470 C   0  0  0  0  0  0  0  0  0  0  0  0
  189.1400  177.1370  139.2510 N   0  0  0  0  0  1  0  0  0  0  0  0
  189.1420  177.0390  143.0220 N   0  0  0  0  0  0  0  0  0  0  0  0
  186.8490  177.5850  143.7100 C   0  0  0  0  0  3  0  0  0  0  0  0
  192.4310  175.8510  145.9880 C   0  0  0  0  0  2  0  0  0  0  0  0
  187.7250  178.2250  146.2800 C   0  0  0  0  0  0  0  0  0  0  0  0
  190.5450  177.2110  143.2730 C   0  0  0  0  0  0  0  0  0  0  0  0
  191.7470  175.8380  144.7660 O   0  0  0  0  0  0  0  0  0  0  0  0
  185.4230  179.0050  146.9120 C   0  0  0  0  0  1  0  0  0  0  0  0
  191.0980  177.0880  144.6560 C   0  0  2  0  0  3  0  0  0  0  0  0
  189.2710  176.1470  147.7180 O   0  0  0  0  0  0  0  0  0  0  0  0
  186.3820  178.4220  145.9260 C   0  0  0  0  0  0  0  0  0  0  0  0
  188.1640  178.6230  147.5370 O   0  0  0  0  0  1  0  0  0  0  0  0
  191.4480  175.5220  147.1020 C   0  0  1  0  0  3  0  0  0  0  0  0
  191.7420  177.7990  139.8260 O   0  0  0  0  0  0  0  0  0  0  0  0
  192.8420  177.0850  139.5560 O   0  0  0  0  0  0  0  0  0  0  0  0
  192.4250  176.1500  138.6120 C   0  0  0  0  0  2  0  0  0  0  0  0
  193.8600  175.1100  135.9060 C   0  0  2  0  0  3  0  0  0  0  0  0
  194.7630  176.0140  136.6190 N   0  0  0  0  0  2  0  0  0  0  0  0
  192.6290  176.6990  137.2030 C   0  0  1  0  0  3  0  0  0  0  0  0
  194.0150  177.1280  137.0630 N   0  0  0  0  0  2  0  0  0  0  0  0
  192.4650  175.6540  136.1280 C   0  0  2  0  0  3  0  0  0  0  0  0
  189.6950  173.4760  134.7100 C   0  0  0  0  0  3  0  0  0  0  0  0
  187.6620  171.9760  135.7410 Cl  0  0  0  0  0  0  0  0  0  0  0  0
  190.6140  174.2840  137.2250 C   0  0  0  0  0  3  0  0  0  0  0  0
  190.7990  174.3290  134.8120 C   0  0  0  0  0  3  0  0  0  0  0  0
  189.5110  173.4320  137.1240 C   0  0  0  0  0  3  0  0  0  0  0  0
  191.2660  174.7420  136.0690 C   0  0  0  0  0  0  0  0  0  0  0  0
  189.0510  173.0300  135.8660 C   0  0  0  0  0  0  0  0  0  0  0  0
  194.1300  173.4260  136.4670 S   0  0  0  0  0  0  0  0  0  0  0  0
  193.8230  173.3360  137.9360 O   0  0  0  0  0  0  0  0  0  0  0  0
  195.8020  172.8800  136.1870 C   0  0  0  0  0  1  0  0  0  0  0  0
  193.1990  172.5120  135.7180 O   0  0  0  0  0  0  0  0  0  0  0  0
  2  5  1  6  0  0  0
  2  8  1  0  0  0  0
  3 22  1  0  0  0  0
  4 17  2  0  0  0  0
  5 16  1  0  0  0  0
  6  4  1  0  0  0  0
  7  3  1  0  0  0  0
  8 24  1  0  0  0  0
  8 21  2  0  0  0  0
  9 13  1  0  0  0  0
 10  6  2  0  0  0  0
 10  9  1  0  0  0  0
 11  5  2  0  0  0  0
 12 10  1  0  0  0  0
 13 17  1  0  0  0  0
 13 11  1  0  0  0  0
 14 11  1  0  0  0  0
 14  3  2  0  0  0  0
 15 24  1  0  0  0  0
 16 23  1  0  0  0  0
 18 15  1  0  0  0  0
 20 17  1  6  0  0  0
 20 18  1  0  0  0  0
 20  2  1  0  0  0  0
 22 16  2  0  0  0  0
 22 19  1  0  0  0  0
 24  1  1  1  0  0  0
 25  6  1  0  0  0  0
 26 25  1  0  0  0  0
 27 26  1  0  0  0  0
 28 32  1  0  0  0  0
 28 40  1  1  0  0  0
 28 29  1  0  0  0  0
 29 31  1  0  0  0  0
 30 27  1  1  0  0  0
 31 30  1  0  0  0  0
 32 38  1  1  0  0  0
 32 30  1  0  0  0  0
 33 36  2  0  0  0  0
 33 39  1  0  0  0  0
 34 39  1  0  0  0  0
 36 38  1  0  0  0  0
 37 35  1  0  0  0  0
 38 35  2  0  0  0  0
 39 37  2  0  0  0  0
 40 41  2  0  0  0  0
 42 40  1  0  0  0  0
 43 40  2  0  0  0  0
M  END
>  <MODEL>
8

>  <REMARK>
 VINA RESULT:      -8.1      3.485      5.268
  Name = 
  6 active torsions:
  status: ('A' for Active; 'I' for Inactive)
    1  A    between atoms: C_8  and  O_16
    2  A    between atoms: C_12  and  C_33
    3  A    between atoms: C_12  and  O_42
    4  A    between atoms: O_16  and  O_42
    5  A    between atoms: S_18  and  C_23
    6  A    between atoms: C_25  and  C_41
                            x       y       z     vdW  Elec       q    Type
                         _______ _______ _______ _____ _____    ______ ____

>  <TORSDO>
F 6

$$$$
=
 OpenBabel11062416063D

 43 48  0  0  1  0  0  0  0  0999 V2000
  188.9660  171.3730  134.6190 O   0  0  0  0  0  1  0  0  0  0  0  0
  186.5620  173.2010  136.4840 C   0  0  1  0  0  3  0  0  0  0  0  0
  182.3040  173.9450  136.7840 C   0  0  0  0  0  0  0  0  0  0  0  0
  187.5640  176.5130  138.0070 C   0  0  0  0  0  3  0  0  0  0  0  0
  185.0740  173.4700  136.6420 C   0  0  0  0  0  0  0  0  0  0  0  0
  186.9540  177.7900  138.4190 C   0  0  0  0  0  0  0  0  0  0  0  0
  180.9400  174.2050  136.8170 O   0  0  0  0  0  1  0  0  0  0  0  0
  186.9550  172.5000  135.1880 C   0  0  0  0  0  0  0  0  0  0  0  0
  184.9970  177.2660  136.9900 C   0  0  0  0  0  2  0  0  0  0  0  0
  185.7380  178.1320  137.9750 C   0  0  0  0  0  0  0  0  0  0  0  0
  184.5870  174.7880  136.7670 C   0  0  0  0  0  0  0  0  0  0  0  0
  185.1650  179.3830  138.3500 N   0  0  0  0  0  1  0  0  0  0  0  0
  185.4920  175.8820  136.9830 N   0  0  0  0  0  0  0  0  0  0  0  0
  183.2040  175.0090  136.8160 C   0  0  0  0  0  3  0  0  0  0  0  0
  189.1690  173.5720  135.5080 C   0  0  0  0  0  2  0  0  0  0  0  0
  184.1640  172.3920  136.7020 C   0  0  0  0  0  0  0  0  0  0  0  0
  186.8600  175.6110  137.3220 C   0  0  0  0  0  0  0  0  0  0  0  0
  188.4000  174.7100  135.7810 O   0  0  0  0  0  0  0  0  0  0  0  0
  181.8210  171.4890  136.7690 C   0  0  0  0  0  1  0  0  0  0  0  0
  187.5380  174.3670  136.8460 C   0  0  2  0  0  3  0  0  0  0  0  0
  186.1570  171.7930  134.5940 O   0  0  0  0  0  0  0  0  0  0  0  0
  182.7820  172.6320  136.7480 C   0  0  0  0  0  0  0  0  0  0  0  0
  184.6290  171.0820  136.7270 O   0  0  0  0  0  1  0  0  0  0  0  0
  188.3510  172.6250  134.6410 C   0  0  1  0  0  3  0  0  0  0  0  0
  187.6520  178.6570  139.2610 O   0  0  0  0  0  0  0  0  0  0  0  0
  188.9780  178.5620  139.4170 O   0  0  0  0  0  0  0  0  0  0  0  0
  189.1520  178.3680  140.7850 C   0  0  0  0  0  2  0  0  0  0  0  0
  190.2370  176.5340  143.2190 C   0  0  2  0  0  3  0  0  0  0  0  0
  191.2170  176.5300  142.1320 N   0  0  0  0  0  2  0  0  0  0  0  0
  189.1700  176.8760  141.1060 C   0  0  1  0  0  3  0  0  0  0  0  0
  190.5230  176.3700  140.9110 N   0  0  0  0  0  2  0  0  0  0  0  0
  188.8790  176.5770  142.5550 C   0  0  2  0  0  3  0  0  0  0  0  0
  185.6490  178.4810  143.1630 C   0  0  0  0  0  3  0  0  0  0  0  0
  184.0420  178.9740  145.3130 Cl  0  0  0  0  0  0  0  0  0  0  0  0
  187.4630  176.9520  144.6440 C   0  0  0  0  0  3  0  0  0  0  0  0
  186.7710  177.9270  142.5400 C   0  0  0  0  0  3  0  0  0  0  0  0
  186.3420  177.5050  145.2680 C   0  0  0  0  0  3  0  0  0  0  0  0
  187.6890  177.1610  143.2740 C   0  0  0  0  0  0  0  0  0  0  0  0
  185.4360  178.2710  144.5280 C   0  0  0  0  0  0  0  0  0  0  0  0
  190.5910  177.8920  144.3400 S   0  0  0  0  0  0  0  0  0  0  0  0
  192.0550  178.2280  144.2690 O   0  0  0  0  0  0  0  0  0  0  0  0
  190.1630  177.5070  146.0250 C   0  0  0  0  0  1  0  0  0  0  0  0
  189.7950  179.0940  143.9090 O   0  0  0  0  0  0  0  0  0  0  0  0
  2  8  1  6  0  0  0
  2  5  1  0  0  0  0
  2 20  1  0  0  0  0
  3 14  1  0  0  0  0
  3  7  1  0  0  0  0
  4  6  1  0  0  0  0
  5 16  2  0  0  0  0
  5 11  1  0  0  0  0
  6 25  1  0  0  0  0
  9 10  1  0  0  0  0
 10 12  1  0  0  0  0
 10  6  2  0  0  0  0
 11 14  2  0  0  0  0
 11 13  1  0  0  0  0
 13  9  1  0  0  0  0
 13 17  1  0  0  0  0
 15 18  1  0  0  0  0
 16 23  1  0  0  0  0
 16 22  1  0  0  0  0
 17  4  2  0  0  0  0
 20 18  1  6  0  0  0
 20 17  1  0  0  0  0
 21  8  2  0  0  0  0
 22 19  1  0  0  0  0
 22  3  2  0  0  0  0
 24  1  1  1  0  0  0
 24  8  1  0  0  0  0
 24 15  1  0  0  0  0
 25 26  1  0  0  0  0
 26 27  1  0  0  0  0
 28 40  1  1  0  0  0
 29 28  1  0  0  0  0
 30 27  1  1  0  0  0
 30 32  1  0  0  0  0
 31 30  1  0  0  0  0
 31 29  1  0  0  0  0
 32 28  1  0  0  0  0
 32 38  1  1  0  0  0
 33 39  1  0  0  0  0
 35 37  1  0  0  0  0
 36 33  2  0  0  0  0
 36 38  1  0  0  0  0
 38 35  2  0  0  0  0
 39 37  2  0  0  0  0
 39 34  1  0  0  0  0
 40 42  1  0  0  0  0
 41 40  2  0  0  0  0
 43 40  2  0  0  0  0
M  END
>  <MODEL>
9

>  <REMARK>
 VINA RESULT:      -7.9      3.372      9.171
  Name = 
  6 active torsions:
  status: ('A' for Active; 'I' for Inactive)
    1  A    between atoms: C_8  and  O_16
    2  A    between atoms: C_12  and  C_33
    3  A    between atoms: C_12  and  O_42
    4  A    between atoms: O_16  and  O_42
    5  A    between atoms: S_18  and  C_23
    6  A    between atoms: C_25  and  C_41
                            x       y       z     vdW  Elec       q    Type
                         _______ _______ _______ _____ _____    ______ ____

>  <TORSDO>
F 6

$$$$
