=
 OpenBabel11062415453D

 27 31  0  0  1  0  0  0  0  0999 V2000
  189.6380  177.2670  144.5500 C   0  0  0  0  0  3  0  0  0  0  0  0
  187.3650  178.0160  144.5010 N   0  0  0  0  0  0  0  0  0  0  0  0
  184.9080  178.6350  146.9280 N   0  0  0  0  0  0  0  0  0  0  0  0
  184.2180  178.9430  145.8290 N   0  0  0  0  0  0  0  0  0  0  0  0
  186.2340  178.3350  145.1800 C   0  0  0  0  0  0  0  0  0  0  0  0
  186.1380  178.2640  146.5340 C   0  0  0  0  0  0  0  0  0  0  0  0
  189.5200  177.0930  147.3540 C   0  0  0  0  0  3  0  0  0  0  0  0
  190.7540  176.8460  145.2790 C   0  0  0  0  0  2  0  0  0  0  0  0
  191.8110  176.3390  147.3870 O   0  0  0  0  0  1  0  0  0  0  0  0
  187.2100  177.8530  147.3170 C   0  0  0  0  0  3  0  0  0  0  0  0
  190.6960  176.7590  146.6750 C   0  0  0  0  0  0  0  0  0  0  0  0
  188.3970  177.5150  146.6400 C   0  0  0  0  0  0  0  0  0  0  0  0
  188.4550  177.6040  145.2140 C   0  0  0  0  0  0  0  0  0  0  0  0
  185.0090  178.7690  144.7410 C   0  0  0  0  0  0  0  0  0  0  0  0
  185.3260  179.7300  142.5740 N   0  0  0  0  0  2  0  0  0  0  0  0
  184.5870  179.0100  143.3540 C   0  0  0  0  0  0  0  0  0  0  0  0
  183.3530  178.4620  142.8800 N   0  0  0  0  0  2  0  0  0  0  0  0
  182.7810  177.5580  139.2110 C   0  0  0  0  0  2  0  0  0  0  0  0
  183.3780  177.4950  140.6290 C   0  0  0  0  0  2  0  0  0  0  0  0
  179.2750  179.7960  141.6120 C   0  0  2  0  0  3  0  0  0  0  0  0
  182.8680  178.6440  141.5170 C   0  0  1  0  0  3  0  0  0  0  0  0
  178.9390  181.2580  141.3980 C   0  0  0  0  0  1  0  0  0  0  0  0
  180.6390  179.6790  142.2920 C   0  0  0  0  0  2  0  0  0  0  0  0
  180.8680  178.8360  140.1010 C   0  0  2  0  0  3  0  0  0  0  0  0
  181.2490  177.6420  139.2430 C   0  0  0  0  0  2  0  0  0  0  0  0
  181.3470  178.6040  141.5030 C   0  0  1  0  0  3  0  0  0  0  0  0
  179.3890  179.0830  140.2630 C   0  0  0  0  0  2  0  0  0  0  0  0
  1 13  2  0  0  0  0
  1  8  1  0  0  0  0
  2  5  2  0  0  0  0
  2 13  1  0  0  0  0
  4  3  1  0  0  0  0
  5  6  1  0  0  0  0
  6  3  2  0  0  0  0
  6 10  1  0  0  0  0
  8 11  1  0  0  0  0
 11  7  2  0  0  0  0
 11  9  1  0  0  0  0
 12 10  2  0  0  0  0
 12  7  1  0  0  0  0
 13 12  1  0  0  0  0
 14  5  1  0  0  0  0
 14  4  2  0  0  0  0
 15 16  2  0  0  0  0
 16 14  1  0  0  0  0
 17 16  1  0  0  0  0
 18 25  1  0  0  0  0
 18 19  1  0  0  0  0
 19 21  1  0  0  0  0
 20 22  1  6  0  0  0
 20 23  1  0  0  0  0
 21 17  1  1  0  0  0
 24 25  1  6  0  0  0
 24 27  1  0  0  0  0
 24 26  1  0  0  0  0
 26 21  1  0  0  0  0
 26 23  1  1  0  0  0
 27 20  1  0  0  0  0
M  END
>  <MODEL>
1

>  <REMARK>
 VINA RESULT:      -9.8      0.000      0.000
  Name = 
  2 active torsions:
  status: ('A' for Active; 'I' for Inactive)
    1  A    between atoms: C_8  and  N_18
    2  A    between atoms: C_14  and  C_26
                            x       y       z     vdW  Elec       q    Type
                         _______ _______ _______ _____ _____    ______ ____

>  <TORSDO>
F 2

$$$$
=
 OpenBabel11062415453D

 27 31  0  0  1  0  0  0  0  0999 V2000
  186.6610  178.2040  138.9900 C   0  0  0  0  0  3  0  0  0  0  0  0
  188.3720  177.9220  140.6410 N   0  0  0  0  0  0  0  0  0  0  0  0
  191.8220  177.2920  140.5510 N   0  0  0  0  0  0  0  0  0  0  0  0
  191.6400  177.3470  141.8710 N   0  0  0  0  0  2  0  0  0  0  0  0
  189.6770  177.6910  140.9310 C   0  0  0  0  0  0  0  0  0  0  0  0
  190.6250  177.5010  139.9760 C   0  0  0  0  0  0  0  0  0  0  0  0
  188.5630  177.8220  136.9540 C   0  0  0  0  0  3  0  0  0  0  0  0
  186.2770  178.2490  137.6470 C   0  0  0  0  0  3  0  0  0  0  0  0
  186.8290  178.1060  135.3030 O   0  0  0  0  0  1  0  0  0  0  0  0
  190.3100  177.5340  138.6230 C   0  0  0  0  0  3  0  0  0  0  0  0
  187.2230  178.0590  136.6330 C   0  0  0  0  0  0  0  0  0  0  0  0
  188.9620  177.7730  138.2920 C   0  0  0  0  0  0  0  0  0  0  0  0
  187.9960  177.9670  139.3280 C   0  0  0  0  0  0  0  0  0  0  0  0
  190.3320  177.5920  142.1320 C   0  0  0  0  0  0  0  0  0  0  0  0
  190.1590  178.6660  144.2620 N   0  0  0  0  0  2  0  0  0  0  0  0
  189.7580  177.7180  143.4790 C   0  0  0  0  0  0  0  0  0  0  0  0
  188.7720  176.7810  143.9240 N   0  0  0  0  0  2  0  0  0  0  0  0
  188.6280  177.1230  147.7270 C   0  0  0  0  0  2  0  0  0  0  0  0
  189.2320  176.9140  146.3260 C   0  0  0  0  0  2  0  0  0  0  0  0
  185.1570  179.1430  145.0950 C   0  0  2  0  0  3  0  0  0  0  0  0
  188.1460  176.8420  145.2380 C   0  0  1  0  0  3  0  0  0  0  0  0
  183.7580  178.5690  145.0030 C   0  0  0  0  0  1  0  0  0  0  0  0
  186.1390  178.2140  144.3820 C   0  0  0  0  0  2  0  0  0  0  0  0
  186.6270  178.1220  146.6880 C   0  0  2  0  0  3  0  0  0  0  0  0
  187.6800  178.3280  147.7630 C   0  0  0  0  0  2  0  0  0  0  0  0
  187.2950  178.1000  145.3450 C   0  0  1  0  0  3  0  0  0  0  0  0
  185.5980  179.2160  146.5580 C   0  0  0  0  0  2  0  0  0  0  0  0
  1 13  1  0  0  0  0
  2  5  1  0  0  0  0
  3  4  1  0  0  0  0
  4 14  1  0  0  0  0
  5 14  2  0  0  0  0
  6  3  2  0  0  0  0
  6  5  1  0  0  0  0
  7 12  1  0  0  0  0
  8  1  2  0  0  0  0
  9 11  1  0  0  0  0
 10  6  1  0  0  0  0
 11  7  2  0  0  0  0
 11  8  1  0  0  0  0
 12 10  2  0  0  0  0
 12 13  1  0  0  0  0
 13  2  2  0  0  0  0
 14 16  1  0  0  0  0
 16 17  1  0  0  0  0
 16 15  2  0  0  0  0
 18 25  1  0  0  0  0
 19 18  1  0  0  0  0
 20 22  1  1  0  0  0
 20 27  1  0  0  0  0
 21 17  1  6  0  0  0
 21 26  1  0  0  0  0
 21 19  1  0  0  0  0
 23 20  1  0  0  0  0
 24 27  1  6  0  0  0
 24 25  1  0  0  0  0
 26 23  1  6  0  0  0
 26 24  1  0  0  0  0
M  END
>  <MODEL>
2

>  <REMARK>
 VINA RESULT:      -9.5      4.528      8.108
  Name = 
  2 active torsions:
  status: ('A' for Active; 'I' for Inactive)
    1  A    between atoms: C_8  and  N_18
    2  A    between atoms: C_14  and  C_26
                            x       y       z     vdW  Elec       q    Type
                         _______ _______ _______ _____ _____    ______ ____

>  <TORSDO>
F 2

$$$$
=
 OpenBabel11062415453D

 27 31  0  0  1  0  0  0  0  0999 V2000
  185.5300  178.6260  140.0440 C   0  0  0  0  0  3  0  0  0  0  0  0
  185.0680  178.7650  142.3890 N   0  0  0  0  0  0  0  0  0  0  0  0
  182.1540  178.7880  144.3430 N   0  0  0  0  0  0  0  0  0  0  0  0
  183.0700  178.8870  145.3070 N   0  0  0  0  0  2  0  0  0  0  0  0
  184.1540  178.7970  143.3910 C   0  0  0  0  0  0  0  0  0  0  0  0
  182.8140  178.7330  143.1730 C   0  0  0  0  0  0  0  0  0  0  0  0
  182.7720  178.4880  139.5090 C   0  0  0  0  0  3  0  0  0  0  0  0
  185.0690  178.5210  138.7280 C   0  0  0  0  0  3  0  0  0  0  0  0
  183.2530  178.3500  137.1500 O   0  0  0  0  0  1  0  0  0  0  0  0
  182.2910  178.6280  141.8890 C   0  0  0  0  0  3  0  0  0  0  0  0
  183.6970  178.4530  138.4610 C   0  0  0  0  0  0  0  0  0  0  0  0
  183.2170  178.5920  140.8290 C   0  0  0  0  0  0  0  0  0  0  0  0
  184.6180  178.6620  141.1030 C   0  0  0  0  0  0  0  0  0  0  0  0
  184.3070  178.8940  144.7500 C   0  0  0  0  0  0  0  0  0  0  0  0
  185.6810  179.8760  146.4440 N   0  0  0  0  0  2  0  0  0  0  0  0
  185.5630  178.9930  145.5070 C   0  0  0  0  0  0  0  0  0  0  0  0
  186.6550  178.1240  145.1900 N   0  0  0  0  0  2  0  0  0  0  0  0
  189.0650  177.5290  148.0950 C   0  0  0  0  0  2  0  0  0  0  0  0
  187.7280  177.6580  147.3420 C   0  0  0  0  0  2  0  0  0  0  0  0
  190.6570  176.8960  143.6090 C   0  0  2  0  0  3  0  0  0  0  0  0
  187.9290  178.1500  145.8970 C   0  0  1  0  0  3  0  0  0  0  0  0
  191.5850  177.8780  142.9220 C   0  0  0  0  0  1  0  0  0  0  0  0
  189.2800  177.5350  143.7910 C   0  0  0  0  0  2  0  0  0  0  0  0
  190.2290  177.2820  145.9350 C   0  0  2  0  0  3  0  0  0  0  0  0
  190.0750  176.6740  147.3180 C   0  0  0  0  0  2  0  0  0  0  0  0
  188.9140  177.2080  145.2180 C   0  0  1  0  0  3  0  0  0  0  0  0
  191.1820  176.5710  145.0080 C   0  0  0  0  0  2  0  0  0  0  0  0
  1 13  1  0  0  0  0
  2  5  1  0  0  0  0
  3  4  1  0  0  0  0
  5 14  2  0  0  0  0
  6  5  1  0  0  0  0
  6  3  2  0  0  0  0
  7 12  1  0  0  0  0
  8  1  2  0  0  0  0
  9 11  1  0  0  0  0
 10  6  1  0  0  0  0
 11  8  1  0  0  0  0
 11  7  2  0  0  0  0
 12 13  1  0  0  0  0
 12 10  2  0  0  0  0
 13  2  2  0  0  0  0
 14  4  1  0  0  0  0
 14 16  1  0  0  0  0
 16 15  2  0  0  0  0
 17 16  1  0  0  0  0
 19 18  1  0  0  0  0
 20 22  1  1  0  0  0
 20 23  1  0  0  0  0
 20 27  1  0  0  0  0
 21 17  1  6  0  0  0
 21 19  1  0  0  0  0
 24 27  1  6  0  0  0
 24 25  1  0  0  0  0
 25 18  1  0  0  0  0
 26 23  1  6  0  0  0
 26 21  1  0  0  0  0
 26 24  1  0  0  0  0
M  END
>  <MODEL>
3

>  <REMARK>
 VINA RESULT:      -9.3      3.068      8.397
  Name = 
  2 active torsions:
  status: ('A' for Active; 'I' for Inactive)
    1  A    between atoms: C_8  and  N_18
    2  A    between atoms: C_14  and  C_26
                            x       y       z     vdW  Elec       q    Type
                         _______ _______ _______ _____ _____    ______ ____

>  <TORSDO>
F 2

$$$$
=
 OpenBabel11062415453D

 27 31  0  0  1  0  0  0  0  0999 V2000
  188.6850  177.2990  144.3530 C   0  0  0  0  0  3  0  0  0  0  0  0
  186.5170  177.9890  143.6100 N   0  0  0  0  0  0  0  0  0  0  0  0
  183.5890  179.0920  145.1990 N   0  0  0  0  0  0  0  0  0  0  0  0
  183.1870  179.1440  143.9290 N   0  0  0  0  0  0  0  0  0  0  0  0
  185.2730  178.4350  143.9190 C   0  0  0  0  0  0  0  0  0  0  0  0
  184.8620  178.6590  145.1950 C   0  0  0  0  0  0  0  0  0  0  0  0
  187.9130  177.7400  147.0210 C   0  0  0  0  0  3  0  0  0  0  0  0
  189.5840  177.0610  145.3970 C   0  0  0  0  0  2  0  0  0  0  0  0
  190.1010  177.0400  147.7530 O   0  0  0  0  0  1  0  0  0  0  0  0
  185.7060  178.4430  146.2780 C   0  0  0  0  0  3  0  0  0  0  0  0
  189.2000  177.2800  146.7250 C   0  0  0  0  0  0  0  0  0  0  0  0
  187.0040  177.9810  145.9880 C   0  0  0  0  0  0  0  0  0  0  0  0
  187.3950  177.7570  144.6310 C   0  0  0  0  0  0  0  0  0  0  0  0
  184.2010  178.7460  143.1220 C   0  0  0  0  0  0  0  0  0  0  0  0
  184.9630  179.3410  140.9340 N   0  0  0  0  0  2  0  0  0  0  0  0
  184.1230  178.6730  141.6560 C   0  0  0  0  0  0  0  0  0  0  0  0
  183.1070  177.8790  141.0360 N   0  0  0  0  0  2  0  0  0  0  0  0
  182.5980  176.0530  137.7170 C   0  0  0  0  0  2  0  0  0  0  0  0
  182.8880  176.2530  139.2160 C   0  0  0  0  0  2  0  0  0  0  0  0
  180.5700  180.3650  138.3150 C   0  0  2  0  0  3  0  0  0  0  0  0
  182.9680  177.7440  139.5910 C   0  0  1  0  0  3  0  0  0  0  0  0
  181.0980  181.6190  137.6480 C   0  0  0  0  0  1  0  0  0  0  0  0
  181.5630  179.8940  139.3780 C   0  0  0  0  0  2  0  0  0  0  0  0
  181.5740  178.2960  137.6430 C   0  0  2  0  0  3  0  0  0  0  0  0
  181.3590  176.8400  137.2690 C   0  0  0  0  0  2  0  0  0  0  0  0
  181.6770  178.4090  139.1350 C   0  0  1  0  0  3  0  0  0  0  0  0
  180.4500  179.2370  137.2890 C   0  0  0  0  0  2  0  0  0  0  0  0
  1 13  2  0  0  0  0
  1  8  1  0  0  0  0
  2  5  2  0  0  0  0
  2 13  1  0  0  0  0
  4  3  1  0  0  0  0
  5  6  1  0  0  0  0
  6  3  2  0  0  0  0
  6 10  1  0  0  0  0
  8 11  1  0  0  0  0
 11  7  2  0  0  0  0
 11  9  1  0  0  0  0
 12 10  2  0  0  0  0
 12  7  1  0  0  0  0
 13 12  1  0  0  0  0
 14  5  1  0  0  0  0
 14  4  2  0  0  0  0
 15 16  2  0  0  0  0
 16 14  1  0  0  0  0
 17 16  1  0  0  0  0
 18 19  1  0  0  0  0
 19 21  1  0  0  0  0
 20 22  1  6  0  0  0
 20 23  1  0  0  0  0
 21 17  1  1  0  0  0
 24 25  1  1  0  0  0
 24 26  1  0  0  0  0
 25 18  1  0  0  0  0
 26 23  1  6  0  0  0
 26 21  1  0  0  0  0
 27 24  1  0  0  0  0
 27 20  1  0  0  0  0
M  END
>  <MODEL>
4

>  <REMARK>
 VINA RESULT:      -9.2      1.664      2.202
  Name = 
  2 active torsions:
  status: ('A' for Active; 'I' for Inactive)
    1  A    between atoms: C_8  and  N_18
    2  A    between atoms: C_14  and  C_26
                            x       y       z     vdW  Elec       q    Type
                         _______ _______ _______ _____ _____    ______ ____

>  <TORSDO>
F 2

$$$$
=
 OpenBabel11062415453D

 27 31  0  0  1  0  0  0  0  0999 V2000
  190.1540  177.4370  144.6610 C   0  0  0  0  0  3  0  0  0  0  0  0
  187.8730  178.1320  144.8680 N   0  0  0  0  0  0  0  0  0  0  0  0
  185.5360  178.2120  147.4840 N   0  0  0  0  0  0  0  0  0  0  0  0
  184.7880  178.7140  146.5000 N   0  0  0  0  0  0  0  0  0  0  0  0
  186.7750  178.2880  145.6490 C   0  0  0  0  0  0  0  0  0  0  0  0
  186.7490  177.9510  146.9660 C   0  0  1  0  0  3  0  0  0  0  0  0
  190.1820  176.7160  147.3790 C   0  0  0  0  0  3  0  0  0  0  0  0
  191.3110  176.9050  145.2390 C   0  0  0  0  0  3  0  0  0  0  0  0
  192.4800  176.0190  147.1540 O   0  0  0  0  0  1  0  0  0  0  0  0
  187.8650  177.4190  147.6020 C   0  0  0  0  0  3  0  0  0  0  0  0
  191.3250  176.5460  146.5920 C   0  0  0  0  0  0  0  0  0  0  0  0
  189.0190  177.2460  146.8150 C   0  0  0  0  0  0  0  0  0  0  0  0
  189.0040  177.6130  145.4330 C   0  0  0  0  0  0  0  0  0  0  0  0
  185.5240  178.7730  145.3630 C   0  0  0  0  0  0  0  0  0  0  0  0
  184.4160  180.4080  144.0150 N   0  0  0  0  0  2  0  0  0  0  0  0
  185.0290  179.2710  144.0720 C   0  0  0  0  0  0  0  0  0  0  0  0
  185.2140  178.4870  142.8880 N   0  0  0  0  0  2  0  0  0  0  0  0
  185.3260  178.8170  139.0830 C   0  0  0  0  0  2  0  0  0  0  0  0
  185.8120  178.5190  140.5140 C   0  0  0  0  0  2  0  0  0  0  0  0
  181.0690  178.2250  141.2240 C   0  0  2  0  0  3  0  0  0  0  0  0
  184.7640  178.9130  141.5690 C   0  0  1  0  0  3  0  0  0  0  0  0
  180.0670  179.3500  141.3820 C   0  0  0  0  0  1  0  0  0  0  0  0
  182.2820  178.4900  142.1160 C   0  0  0  0  0  2  0  0  0  0  0  0
  182.9950  178.6920  139.8770 C   0  0  2  0  0  3  0  0  0  0  0  0
  183.9520  178.1930  138.8090 C   0  0  0  0  0  2  0  0  0  0  0  0
  183.4610  178.2090  141.2180 C   0  0  1  0  0  3  0  0  0  0  0  0
  181.5800  178.1780  139.7830 C   0  0  0  0  0  2  0  0  0  0  0  0
  1  8  2  0  0  0  0
  1 13  1  0  0  0  0
  2 13  2  0  0  0  0
  2  5  1  0  0  0  0
  4  3  2  0  0  0  0
  5  6  1  0  0  0  0
  6  3  1  0  0  0  0
  6 10  1  1  0  0  0
  8 11  1  0  0  0  0
 11  9  1  0  0  0  0
 11  7  2  0  0  0  0
 12  7  1  0  0  0  0
 12 10  2  0  0  0  0
 13 12  1  0  0  0  0
 14  5  2  0  0  0  0
 14  4  1  0  0  0  0
 15 16  2  0  0  0  0
 16 14  1  0  0  0  0
 17 16  1  0  0  0  0
 18 19  1  0  0  0  0
 19 21  1  0  0  0  0
 20 22  1  6  0  0  0
 20 23  1  0  0  0  0
 21 17  1  1  0  0  0
 24 25  1  6  0  0  0
 24 26  1  0  0  0  0
 25 18  1  0  0  0  0
 26 21  1  0  0  0  0
 26 23  1  1  0  0  0
 27 24  1  0  0  0  0
 27 20  1  0  0  0  0
M  END
>  <MODEL>
5

>  <REMARK>
 VINA RESULT:      -9.2      1.180      1.632
  Name = 
  2 active torsions:
  status: ('A' for Active; 'I' for Inactive)
    1  A    between atoms: C_8  and  N_18
    2  A    between atoms: C_14  and  C_26
                            x       y       z     vdW  Elec       q    Type
                         _______ _______ _______ _____ _____    ______ ____

>  <TORSDO>
F 2

$$$$
=
 OpenBabel11062415453D

 27 31  0  0  1  0  0  0  0  0999 V2000
  189.8230  177.2340  144.8440 C   0  0  0  0  0  3  0  0  0  0  0  0
  188.9460  177.7110  142.6690 N   0  0  0  0  0  0  0  0  0  0  0  0
  185.8120  178.6730  141.4180 N   0  0  0  0  0  0  0  0  0  0  0  0
  186.5010  178.6210  140.2770 N   0  0  0  0  0  0  0  0  0  0  0  0
  187.8900  178.0760  141.8990 C   0  0  0  0  0  0  0  0  0  0  0  0
  186.6580  178.3410  142.4090 C   0  0  0  0  0  0  0  0  0  0  0  0
  187.3050  177.7660  145.9770 C   0  0  0  0  0  3  0  0  0  0  0  0
  189.6330  177.1270  146.2250 C   0  0  0  0  0  2  0  0  0  0  0  0
  188.2030  177.2810  148.1620 O   0  0  0  0  0  1  0  0  0  0  0  0
  186.4020  178.2530  143.7720 C   0  0  0  0  0  3  0  0  0  0  0  0
  188.3800  177.3910  146.7890 C   0  0  0  0  0  0  0  0  0  0  0  0
  187.4800  177.8770  144.5960 C   0  0  0  0  0  0  0  0  0  0  0  0
  188.7600  177.6070  144.0180 C   0  0  0  0  0  0  0  0  0  0  0  0
  187.7800  178.2570  140.5440 C   0  0  0  0  0  0  0  0  0  0  0  0
  189.0550  179.0430  138.6790 N   0  0  0  0  0  2  0  0  0  0  0  0
  188.8310  178.0950  139.5290 C   0  0  0  0  0  0  0  0  0  0  0  0
  189.5880  176.8810  139.4760 N   0  0  0  0  0  2  0  0  0  0  0  0
  193.1800  176.3980  138.2660 C   0  0  0  0  0  2  0  0  0  0  0  0
  192.0200  176.7770  139.2050 C   0  0  0  0  0  2  0  0  0  0  0  0
  189.6990  173.7530  136.2790 C   0  0  2  0  0  3  0  0  0  0  0  0
  190.6530  176.6450  138.5100 C   0  0  1  0  0  3  0  0  0  0  0  0
  189.1690  174.0120  134.8840 C   0  0  0  0  0  1  0  0  0  0  0  0
  189.2820  174.8960  137.2050 C   0  0  0  0  0  2  0  0  0  0  0  0
  191.6230  175.0210  136.9400 C   0  0  2  0  0  3  0  0  0  0  0  0
  192.9720  175.0150  137.6360 C   0  0  0  0  0  2  0  0  0  0  0  0
  190.5450  175.2290  137.9620 C   0  0  1  0  0  3  0  0  0  0  0  0
  191.2290  173.7330  136.2610 C   0  0  0  0  0  2  0  0  0  0  0  0
  1  8  1  0  0  0  0
  2 13  1  0  0  0  0
  3  6  2  0  0  0  0
  4 14  2  0  0  0  0
  4  3  1  0  0  0  0
  5  6  1  0  0  0  0
  5  2  2  0  0  0  0
  6 10  1  0  0  0  0
  7 11  2  0  0  0  0
  8 11  1  0  0  0  0
 10 12  2  0  0  0  0
 11  9  1  0  0  0  0
 12  7  1  0  0  0  0
 13 12  1  0  0  0  0
 13  1  2  0  0  0  0
 14  5  1  0  0  0  0
 15 16  2  0  0  0  0
 16 14  1  0  0  0  0
 17 16  1  0  0  0  0
 18 19  1  0  0  0  0
 20 22  1  6  0  0  0
 20 23  1  0  0  0  0
 21 19  1  0  0  0  0
 21 17  1  1  0  0  0
 24 27  1  1  0  0  0
 24 25  1  0  0  0  0
 24 26  1  0  0  0  0
 25 18  1  0  0  0  0
 26 23  1  6  0  0  0
 26 21  1  0  0  0  0
 27 20  1  0  0  0  0
M  END
>  <MODEL>
6

>  <REMARK>
 VINA RESULT:      -9.1      5.256      7.780
  Name = 
  2 active torsions:
  status: ('A' for Active; 'I' for Inactive)
    1  A    between atoms: C_8  and  N_18
    2  A    between atoms: C_14  and  C_26
                            x       y       z     vdW  Elec       q    Type
                         _______ _______ _______ _____ _____    ______ ____

>  <TORSDO>
F 2

$$$$
=
 OpenBabel11062415453D

 27 31  0  0  1  0  0  0  0  0999 V2000
  186.1390  178.3790  143.0610 C   0  0  0  0  0  3  0  0  0  0  0  0
  188.3850  177.6790  142.6160 N   0  0  0  0  0  0  0  0  0  0  0  0
  191.0520  176.5170  144.5780 N   0  0  0  0  0  0  0  0  0  0  0  0
  191.6290  176.4840  143.3750 N   0  0  0  0  0  0  0  0  0  0  0  0
  189.5700  177.2150  143.0870 C   0  0  0  0  0  0  0  0  0  0  0  0
  189.7960  176.9630  144.4040 C   0  0  0  0  0  0  0  0  0  0  0  0
  186.5270  177.8810  145.8020 C   0  0  0  0  0  3  0  0  0  0  0  0
  185.1050  178.6070  143.9730 C   0  0  0  0  0  2  0  0  0  0  0  0
  184.2630  178.5910  146.2340 O   0  0  0  0  0  1  0  0  0  0  0  0
  188.8100  177.1680  145.3620 C   0  0  0  0  0  3  0  0  0  0  0  0
  185.2980  178.3590  145.3380 C   0  0  0  0  0  0  0  0  0  0  0  0
  187.5700  177.6490  144.9020 C   0  0  0  0  0  0  0  0  0  0  0  0
  187.3740  177.9010  143.5080 C   0  0  0  0  0  0  0  0  0  0  0  0
  190.7400  176.9060  142.4420 C   0  0  0  0  0  0  0  0  0  0  0  0
  192.0350  177.7000  140.5930 N   0  0  0  0  0  2  0  0  0  0  0  0
  191.0240  177.0050  141.0030 C   0  0  0  0  0  0  0  0  0  0  0  0
  190.1690  176.3460  140.0620 N   0  0  0  0  0  2  0  0  0  0  0  0
  191.3790  175.0860  136.6640 C   0  0  0  0  0  2  0  0  0  0  0  0
  191.2370  175.1750  138.1950 C   0  0  0  0  0  2  0  0  0  0  0  0
  187.1890  177.4190  136.9020 C   0  0  2  0  0  3  0  0  0  0  0  0
  190.3860  176.3840  138.6220 C   0  0  1  0  0  3  0  0  0  0  0  0
  187.0140  178.8420  136.4130 C   0  0  0  0  0  1  0  0  0  0  0  0
  188.0700  177.4120  138.1520 C   0  0  0  0  0  2  0  0  0  0  0  0
  189.2920  176.3760  136.4200 C   0  0  2  0  0  3  0  0  0  0  0  0
  190.0140  175.1210  135.9640 C   0  0  0  0  0  2  0  0  0  0  0  0
  189.0500  176.2920  137.8980 C   0  0  1  0  0  3  0  0  0  0  0  0
  187.9150  176.5870  135.8430 C   0  0  0  0  0  2  0  0  0  0  0  0
  1 13  2  0  0  0  0
  1  8  1  0  0  0  0
  2  5  2  0  0  0  0
  2 13  1  0  0  0  0
  4  3  1  0  0  0  0
  5  6  1  0  0  0  0
  6  3  2  0  0  0  0
  6 10  1  0  0  0  0
  8 11  1  0  0  0  0
 11  7  2  0  0  0  0
 11  9  1  0  0  0  0
 12 10  2  0  0  0  0
 12  7  1  0  0  0  0
 13 12  1  0  0  0  0
 14  5  1  0  0  0  0
 14  4  2  0  0  0  0
 15 16  2  0  0  0  0
 16 14  1  0  0  0  0
 17 16  1  0  0  0  0
 18 19  1  0  0  0  0
 19 21  1  0  0  0  0
 20 22  1  6  0  0  0
 20 23  1  0  0  0  0
 21 17  1  1  0  0  0
 24 27  1  6  0  0  0
 24 26  1  0  0  0  0
 25 24  1  0  0  0  0
 25 18  1  0  0  0  0
 26 23  1  1  0  0  0
 26 21  1  0  0  0  0
 27 20  1  0  0  0  0
M  END
>  <MODEL>
7

>  <REMARK>
 VINA RESULT:      -9.0      4.870      7.176
  Name = 
  2 active torsions:
  status: ('A' for Active; 'I' for Inactive)
    1  A    between atoms: C_8  and  N_18
    2  A    between atoms: C_14  and  C_26
                            x       y       z     vdW  Elec       q    Type
                         _______ _______ _______ _____ _____    ______ ____

>  <TORSDO>
F 2

$$$$
=
 OpenBabel11062415453D

 27 31  0  0  1  0  0  0  0  0999 V2000
  188.2190  178.3220  138.4500 C   0  0  0  0  0  3  0  0  0  0  0  0
  186.5570  178.5150  140.1630 N   0  0  0  0  0  0  0  0  0  0  0  0
  183.0590  178.2630  140.2600 N   0  0  0  0  0  0  0  0  0  0  0  0
  183.3000  178.5250  141.5450 N   0  0  0  0  0  2  0  0  0  0  0  0
  185.2480  178.4800  140.5170 C   0  0  0  0  0  0  0  0  0  0  0  0
  184.2470  178.2350  139.6310 C   0  0  0  0  0  0  0  0  0  0  0  0
  186.2060  177.8080  136.5550 C   0  0  0  0  0  3  0  0  0  0  0  0
  188.5510  178.0960  137.1110 C   0  0  0  0  0  3  0  0  0  0  0  0
  187.8920  177.6180  134.8410 O   0  0  0  0  0  1  0  0  0  0  0  0
  184.5090  178.0020  138.2860 C   0  0  0  0  0  3  0  0  0  0  0  0
  187.5490  177.8400  136.1670 C   0  0  0  0  0  0  0  0  0  0  0  0
  185.8590  178.0320  137.8890 C   0  0  0  0  0  0  0  0  0  0  0  0
  186.8820  178.2940  138.8540 C   0  0  0  0  0  0  0  0  0  0  0  0
  184.6360  178.6610  141.7310 C   0  0  0  0  0  0  0  0  0  0  0  0
  184.9020  179.9920  143.7010 N   0  0  0  0  0  2  0  0  0  0  0  0
  185.2740  178.9560  143.0220 C   0  0  0  0  0  0  0  0  0  0  0  0
  186.3150  178.1050  143.5120 N   0  0  0  0  0  2  0  0  0  0  0  0
  186.8020  177.9230  147.2980 C   0  0  0  0  0  2  0  0  0  0  0  0
  186.0840  177.8510  145.9370 C   0  0  0  0  0  2  0  0  0  0  0  0
  190.6280  177.3670  144.4490 C   0  0  2  0  0  3  0  0  0  0  0  0
  186.9910  178.3200  144.7860 C   0  0  1  0  0  3  0  0  0  0  0  0
  191.6830  178.4410  144.2740 C   0  0  0  0  0  1  0  0  0  0  0  0
  189.3200  177.8240  143.8020 C   0  0  0  0  0  2  0  0  0  0  0  0
  188.9700  177.7650  146.1330 C   0  0  2  0  0  3  0  0  0  0  0  0
  188.1470  177.1850  147.2700 C   0  0  0  0  0  2  0  0  0  0  0  0
  188.2700  177.4960  144.8350 C   0  0  1  0  0  3  0  0  0  0  0  0
  190.3360  177.1570  145.9360 C   0  0  0  0  0  2  0  0  0  0  0  0
  1 13  1  0  0  0  0
  2  5  1  0  0  0  0
  3  4  1  0  0  0  0
  4 14  1  0  0  0  0
  5 14  2  0  0  0  0
  6  3  2  0  0  0  0
  6  5  1  0  0  0  0
  7 12  1  0  0  0  0
  8  1  2  0  0  0  0
  9 11  1  0  0  0  0
 10  6  1  0  0  0  0
 11  7  2  0  0  0  0
 11  8  1  0  0  0  0
 12 10  2  0  0  0  0
 12 13  1  0  0  0  0
 13  2  2  0  0  0  0
 14 16  1  0  0  0  0
 16 17  1  0  0  0  0
 16 15  2  0  0  0  0
 19 18  1  0  0  0  0
 20 22  1  1  0  0  0
 20 27  1  0  0  0  0
 21 17  1  6  0  0  0
 21 26  1  0  0  0  0
 21 19  1  0  0  0  0
 23 20  1  0  0  0  0
 24 27  1  6  0  0  0
 24 25  1  0  0  0  0
 25 18  1  0  0  0  0
 26 23  1  6  0  0  0
 26 24  1  0  0  0  0
M  END
>  <MODEL>
8

>  <REMARK>
 VINA RESULT:      -8.9      3.677      8.419
  Name = 
  2 active torsions:
  status: ('A' for Active; 'I' for Inactive)
    1  A    between atoms: C_8  and  N_18
    2  A    between atoms: C_14  and  C_26
                            x       y       z     vdW  Elec       q    Type
                         _______ _______ _______ _____ _____    ______ ____

>  <TORSDO>
F 2

$$$$
=
 OpenBabel11062415453D

 27 31  0  0  1  0  0  0  0  0999 V2000
  191.7300  177.4810  140.3880 C   0  0  0  0  0  3  0  0  0  0  0  0
  189.3770  177.9090  140.2780 N   0  0  0  0  0  0  0  0  0  0  0  0
  186.9160  177.6030  137.7960 N   0  0  0  0  0  0  0  0  0  0  0  0
  186.1680  178.0710  138.7960 N   0  0  0  0  0  0  0  0  0  0  0  0
  188.2300  177.9030  139.5540 C   0  0  0  0  0  0  0  0  0  0  0  0
  188.1750  177.5000  138.2570 C   0  0  0  0  0  0  0  0  0  0  0  0
  191.7000  176.6310  137.7070 C   0  0  0  0  0  3  0  0  0  0  0  0
  192.9080  177.0510  139.7700 C   0  0  0  0  0  2  0  0  0  0  0  0
  194.0710  176.2050  137.8330 O   0  0  0  0  0  1  0  0  0  0  0  0
  189.3100  177.0620  137.5840 C   0  0  0  0  0  3  0  0  0  0  0  0
  192.8940  176.6290  138.4360 C   0  0  0  0  0  0  0  0  0  0  0  0
  190.5150  177.0570  138.3110 C   0  0  0  0  0  0  0  0  0  0  0  0
  190.5280  177.4890  139.6740 C   0  0  0  0  0  0  0  0  0  0  0  0
  186.9490  178.2630  139.8870 C   0  0  0  0  0  0  0  0  0  0  0  0
  185.6720  179.7900  141.2130 N   0  0  0  0  0  2  0  0  0  0  0  0
  186.4680  178.7720  141.1800 C   0  0  0  0  0  0  0  0  0  0  0  0
  186.8990  178.1500  142.3950 N   0  0  0  0  0  2  0  0  0  0  0  0
  184.4100  178.8640  145.2050 C   0  0  0  0  0  2  0  0  0  0  0  0
  184.9240  178.5500  143.7880 C   0  0  0  0  0  2  0  0  0  0  0  0
  188.7270  177.0930  146.3390 C   0  0  2  0  0  3  0  0  0  0  0  0
  186.4610  178.5850  143.7150 C   0  0  1  0  0  3  0  0  0  0  0  0
  189.8180  177.9340  146.9700 C   0  0  0  0  0  1  0  0  0  0  0  0
  188.5010  177.5450  144.8960 C   0  0  0  0  0  2  0  0  0  0  0  0
  186.5740  178.1240  146.1270 C   0  0  2  0  0  3  0  0  0  0  0  0
  185.0690  177.9670  146.2610 C   0  0  0  0  0  2  0  0  0  0  0  0
  187.0000  177.6340  144.7750 C   0  0  1  0  0  3  0  0  0  0  0  0
  187.4060  177.3060  147.0820 C   0  0  0  0  0  2  0  0  0  0  0  0
  3  6  2  0  0  0  0
  3  4  1  0  0  0  0
  4 14  2  0  0  0  0
  5 14  1  0  0  0  0
  5  2  2  0  0  0  0
  6  5  1  0  0  0  0
  7 12  1  0  0  0  0
  7 11  2  0  0  0  0
  8  1  1  0  0  0  0
  9 11  1  0  0  0  0
 10  6  1  0  0  0  0
 10 12  2  0  0  0  0
 11  8  1  0  0  0  0
 12 13  1  0  0  0  0
 13  2  1  0  0  0  0
 13  1  2  0  0  0  0
 14 16  1  0  0  0  0
 16 15  2  0  0  0  0
 16 17  1  0  0  0  0
 18 25  1  0  0  0  0
 19 18  1  0  0  0  0
 20 22  1  1  0  0  0
 20 27  1  0  0  0  0
 21 17  1  6  0  0  0
 21 19  1  0  0  0  0
 21 26  1  0  0  0  0
 23 20  1  0  0  0  0
 24 25  1  1  0  0  0
 24 27  1  0  0  0  0
 26 23  1  1  0  0  0
 26 24  1  0  0  0  0
M  END
>  <MODEL>
9

>  <REMARK>
 VINA RESULT:      -8.9      4.391      7.630
  Name = 
  2 active torsions:
  status: ('A' for Active; 'I' for Inactive)
    1  A    between atoms: C_8  and  N_18
    2  A    between atoms: C_14  and  C_26
                            x       y       z     vdW  Elec       q    Type
                         _______ _______ _______ _____ _____    ______ ____

>  <TORSDO>
F 2

$$$$
