=
 OpenBabel11062418063D

 63 70  0  0  1  0  0  0  0  0999 V2000
  184.4630  179.6390  142.7830 C   0  0  0  0  0  2  0  0  0  0  0  0
  182.9680  179.3240  142.6770 C   0  0  1  0  0  3  0  0  0  0  0  0
  184.6800  177.2940  142.2220 O   0  0  0  0  0  0  0  0  0  0  0  0
  182.6740  178.4980  141.4050 C   0  0  1  0  0  3  0  0  0  0  0  0
  183.6000  177.2660  141.3120 C   0  0  0  0  0  2  0  0  0  0  0  0
  185.3040  178.5470  142.0860 C   0  0  2  0  0  3  0  0  0  0  0  0
  182.5620  178.6190  143.8180 O   0  0  0  0  0  1  0  0  0  0  0  0
  189.0680  176.0620  140.8540 O   0  0  0  0  0  1  0  0  0  0  0  0
  187.1200  177.3280  144.6230 C   0  0  0  0  0  2  0  0  0  0  0  0
  189.8110  178.9370  142.8770 O   0  0  0  0  0  1  0  0  0  0  0  0
  187.4520  177.1530  142.2070 C   0  0  2  0  0  3  0  0  0  0  0  0
  188.7650  177.3070  141.4180 C   0  0  1  0  0  0  0  0  0  0  0  0
  186.7650  178.4890  142.5360 C   0  0  2  0  0  3  0  0  0  0  0  0
  189.3630  176.7690  143.7070 C   0  0  1  0  0  3  0  0  0  0  0  0
  189.8090  177.5880  142.5050 C   0  0  2  0  0  3  0  0  0  0  0  0
  187.8610  176.5510  143.5510 C   0  0  1  0  0  3  0  0  0  0  0  0
  186.8560  178.6950  144.0370 C   0  0  0  0  0  2  0  0  0  0  0  0
  188.4120  179.5910  140.5700 C   0  0  0  0  0  2  0  0  0  0  0  0
  188.6840  178.3180  140.2690 C   0  0  0  0  0  0  0  0  0  0  0  0
  187.3900  177.1310  138.3610 C   0  0  2  0  0  3  0  0  0  0  0  0
  187.8050  176.5200  137.0410 C   0  0  0  0  0  2  0  0  0  0  0  0
  186.2730  177.9430  138.1730 O   0  0  0  0  0  1  0  0  0  0  0  0
  189.8200  177.4430  138.0870 C   0  0  1  0  0  3  0  0  0  0  0  0
  189.3260  176.4120  137.0500 C   0  0  1  0  0  0  0  0  0  0  0  0
  189.6800  175.1110  137.4160 O   0  0  0  0  0  1  0  0  0  0  0  0
  188.5700  177.9680  138.7990 C   0  0  2  0  0  3  0  0  0  0  0  0
  190.8690  175.9120  135.1410 O   0  0  0  0  0  1  0  0  0  0  0  0
  189.4310  177.6890  135.0070 O   0  0  0  0  0  0  0  0  0  0  0  0
  189.8590  176.7030  135.6740 C   0  0  0  0  0  0  0  0  0  0  0  0
  190.9150  176.9230  139.0250 C   0  0  0  0  0  2  0  0  0  0  0  0
  193.2030  176.5550  137.6830 C   0  0  0  0  0  3  0  0  0  0  0  0
  192.1700  176.7230  138.2890 C   0  0  0  0  0  0  0  0  0  0  0  0
  191.4430  175.6110  143.5730 O   0  0  0  0  0  1  0  0  0  0  0  0
  190.0730  175.4270  143.7310 C   0  0  0  0  0  2  0  0  0  0  0  0
  181.1850  178.1480  141.1870 C   0  0  2  0  0  3  0  0  0  0  0  0
  180.3920  176.6640  139.5120 C   0  0  0  0  0  2  0  0  0  0  0  0
  182.0020  176.5740  137.5460 C   0  0  0  0  0  0  0  0  0  0  0  0
  180.6320  176.2100  138.0690 C   0  0  1  0  0  3  0  0  0  0  0  0
  181.0690  182.4710  137.1930 C   0  0  0  0  0  3  0  0  0  0  0  0
  182.1480  177.6120  136.6960 C   0  0  0  0  0  0  0  0  0  0  0  0
  183.1950  175.8670  138.1040 C   0  0  0  0  0  2  0  0  0  0  0  0
  180.9020  178.0100  139.7450 N   0  0  0  0  0  0  0  0  0  0  0  0
  180.2640  181.3110  139.2370 C   0  0  0  0  0  3  0  0  0  0  0  0
  183.9340  175.1390  137.0350 C   0  0  0  0  0  3  0  0  0  0  0  0
  181.2600  180.0050  137.3780 C   0  0  1  0  0  3  0  0  0  0  0  0
  179.8360  178.9160  139.3270 C   0  0  0  0  0  2  0  0  0  0  0  0
  180.7350  178.6470  136.2760 S   0  0  0  0  0  0  0  0  0  0  0  0
  183.4420  178.0030  136.0920 C   0  0  0  0  0  3  0  0  0  0  0  0
  185.5590  177.8040  135.2090 F   0  0  0  0  0  0  0  0  0  0  0  0
  180.9350  182.5420  138.6910 C   0  0  0  0  0  2  0  0  0  0  0  0
  181.2320  181.2900  136.5850 C   0  0  0  0  0  3  0  0  0  0  0  0
  180.4140  180.1180  138.6410 C   0  0  0  0  0  0  0  0  0  0  0  0
  185.3230  174.9230  135.0720 C   0  0  0  0  0  1  0  0  0  0  0  0
  184.4970  177.2230  135.8210 C   0  0  0  0  0  0  0  0  0  0  0  0
  184.5260  175.7570  136.0140 C   0  0  0  0  0  0  0  0  0  0  0  0
  179.6950  172.5810  138.7630 C   0  0  0  0  0  3  0  0  0  0  0  0
  179.9770  173.9330  138.9630 C   0  0  0  0  0  3  0  0  0  0  0  0
  180.3040  174.7580  137.8730 C   0  0  0  0  0  0  0  0  0  0  0  0
  179.7410  172.0440  137.4750 C   0  0  0  0  0  3  0  0  0  0  0  0
  180.0710  172.8590  136.3870 C   0  0  0  0  0  3  0  0  0  0  0  0
  180.3530  174.2130  136.5860 C   0  0  0  0  0  3  0  0  0  0  0  0
  179.4940  178.5100  142.5850 C   0  0  0  0  0  1  0  0  0  0  0  0
  180.3980  179.1690  141.7450 O   0  0  0  0  0  0  0  0  0  0  0  0
  2  1  1  0  0  0  0
  2  7  1  1  0  0  0
  4 35  1  1  0  0  0
  4  2  1  0  0  0  0
  5  4  1  0  0  0  0
  5  3  1  0  0  0  0
  6  3  1  0  0  0  0
  6 13  1  0  0  0  0
  6  1  1  1  0  0  0
  8 12  1  0  0  0  0
 11 13  1  0  0  0  0
 11 16  1  0  0  0  0
 12 11  1  0  0  0  0
 12 15  1  0  0  0  0
 13 17  1  0  0  0  0
 14 34  1  0  0  0  0
 15 10  1  0  0  0  0
 15 14  1  0  0  0  0
 16 14  1  0  0  0  0
 16  9  1  0  0  0  0
 17  9  1  0  0  0  0
 19 18  2  0  0  0  0
 19 12  1  0  0  0  0
 20 26  1  0  0  0  0
 21 24  1  0  0  0  0
 21 20  1  0  0  0  0
 22 20  1  0  0  0  0
 23 26  1  0  0  0  0
 23 30  1  0  0  0  0
 24 25  1  0  0  0  0
 24 23  1  0  0  0  0
 26 19  1  0  0  0  0
 27 29  1  0  0  0  0
 28 29  2  0  0  0  0
 29 24  1  0  0  0  0
 31 32  3  0  0  0  0
 32 30  1  0  0  0  0
 33 34  1  0  0  0  0
 35 63  1  0  0  0  0
 36 42  1  0  0  0  0
 37 38  1  0  0  0  0
 37 41  1  0  0  0  0
 38 36  1  0  0  0  0
 39 50  1  0  0  0  0
 40 37  2  0  0  0  0
 42 35  1  0  0  0  0
 44 41  1  0  0  0  0
 45 52  1  0  0  0  0
 46 42  1  0  0  0  0
 47 40  1  0  0  0  0
 47 45  1  0  0  0  0
 48 40  1  0  0  0  0
 49 54  1  0  0  0  0
 50 43  1  0  0  0  0
 51 39  2  0  0  0  0
 51 45  1  0  0  0  0
 52 43  2  0  0  0  0
 52 46  1  0  0  0  0
 53 55  1  0  0  0  0
 54 55  1  0  0  0  0
 54 48  2  0  0  0  0
 55 44  2  0  0  0  0
 56 57  1  0  0  0  0
 58 38  1  0  0  0  0
 58 57  2  0  0  0  0
 59 56  2  0  0  0  0
 60 61  2  0  0  0  0
 60 59  1  0  0  0  0
 61 58  1  0  0  0  0
 63 62  1  0  0  0  0
M  END
>  <MODEL>
1

>  <REMARK>
 VINA RESULT:      -5.2      0.000      0.000
  Name = 
  11 active torsions:
  status: ('A' for Active; 'I' for Inactive)
    1  A    between atoms: C_10  and  C_19
    2  A    between atoms: C_15  and  C_62
    3  A    between atoms: C_17  and  C_44
    4  A    between atoms: O_21  and  C_34
    5  A    between atoms: C_22  and  C_61
    6  A    between atoms: N_29  and  C_34
    7  A    between atoms: C_30  and  C_34
    8  A    between atoms: C_33  and  C_35
    9  A    between atoms: C_40  and  C_52
   10  A    between atoms: C_58  and  C_61
   11  A    between atoms: C_62  and  C_63
                            x       y       z     vdW  Elec       q    Type
                         _______ _______ _______ _____ _____    ______ ____

>  <TORSDO>
F 11

$$$$
=
 OpenBabel11062418063D

 63 70  0  0  1  0  0  0  0  0999 V2000
  183.1030  179.5710  143.7540 C   0  0  0  0  0  2  0  0  0  0  0  0
  181.7210  179.0530  143.3440 C   0  0  1  0  0  3  0  0  0  0  0  0
  183.8600  177.7650  142.3300 O   0  0  0  0  0  0  0  0  0  0  0  0
  181.6650  178.7980  141.8210 C   0  0  1  0  0  3  0  0  0  0  0  0
  182.8470  177.9190  141.3580 C   0  0  0  0  0  2  0  0  0  0  0  0
  184.1920  179.0530  142.7880 C   0  0  2  0  0  3  0  0  0  0  0  0
  181.4430  177.8720  144.0440 O   0  0  0  0  0  1  0  0  0  0  0  0
  187.7060  175.9910  143.1530 O   0  0  0  0  0  1  0  0  0  0  0  0
  185.7230  178.9650  145.7660 C   0  0  0  0  0  2  0  0  0  0  0  0
  188.6660  179.4000  143.7600 O   0  0  0  0  0  1  0  0  0  0  0  0
  186.1580  177.6980  143.7210 C   0  0  2  0  0  3  0  0  0  0  0  0
  187.5180  177.3770  143.0770 C   0  0  1  0  0  0  0  0  0  0  0  0
  185.6110  179.0890  143.3570 C   0  0  2  0  0  3  0  0  0  0  0  0
  187.9320  177.8800  145.4140 C   0  0  1  0  0  3  0  0  0  0  0  0
  188.5300  178.0330  144.0240 C   0  0  2  0  0  3  0  0  0  0  0  0
  186.4250  177.7330  145.2250 C   0  0  1  0  0  3  0  0  0  0  0  0
  185.6480  179.9390  144.6130 C   0  0  0  0  0  2  0  0  0  0  0  0
  186.5300  177.5990  140.8330 C   0  0  0  0  0  2  0  0  0  0  0  0
  187.6130  177.7670  141.5970 C   0  0  0  0  0  0  0  0  0  0  0  0
  188.8330  178.0780  139.3300 C   0  0  2  0  0  3  0  0  0  0  0  0
  190.2480  177.8190  138.8620 C   0  0  0  0  0  2  0  0  0  0  0  0
  188.4240  179.3430  138.9140 O   0  0  0  0  0  1  0  0  0  0  0  0
  190.1420  177.2270  141.2380 C   0  0  1  0  0  3  0  0  0  0  0  0
  190.9340  176.9820  139.9370 C   0  0  1  0  0  0  0  0  0  0  0  0
  190.8870  175.6390  139.5550 O   0  0  0  0  0  1  0  0  0  0  0  0
  188.8990  178.0270  140.8400 C   0  0  2  0  0  3  0  0  0  0  0  0
  193.2590  177.1790  139.0240 O   0  0  0  0  0  0  0  0  0  0  0  0
  192.7950  177.9420  141.1330 O   0  0  0  0  0  1  0  0  0  0  0  0
  192.3700  177.4110  140.0670 C   0  0  0  0  0  0  0  0  0  0  0  0
  189.8490  175.9590  142.0490 C   0  0  0  0  0  2  0  0  0  0  0  0
  191.7170  175.6050  143.9340 C   0  0  0  0  0  3  0  0  0  0  0  0
  190.8730  175.7630  143.0840 C   0  0  0  0  0  0  0  0  0  0  0  0
  188.6260  176.8730  147.4610 O   0  0  0  0  0  1  0  0  0  0  0  0
  188.4820  176.6390  146.0970 C   0  0  0  0  0  2  0  0  0  0  0  0
  180.3010  178.2980  141.2950 C   0  0  2  0  0  3  0  0  0  0  0  0
  179.9840  176.7260  139.5440 C   0  0  0  0  0  2  0  0  0  0  0  0
  182.0000  176.6750  137.9960 C   0  0  0  0  0  0  0  0  0  0  0  0
  180.5670  176.2480  138.2110 C   0  0  1  0  0  3  0  0  0  0  0  0
  180.8820  182.4980  137.2120 C   0  0  0  0  0  3  0  0  0  0  0  0
  182.2840  177.6960  137.1610 C   0  0  0  0  0  0  0  0  0  0  0  0
  183.0690  176.0520  138.8360 C   0  0  0  0  0  2  0  0  0  0  0  0
  180.3600  178.1050  139.8330 N   0  0  0  0  0  0  0  0  0  0  0  0
  179.6920  181.3500  139.0650 C   0  0  0  0  0  3  0  0  0  0  0  0
  184.0670  175.3390  137.9910 C   0  0  0  0  0  3  0  0  0  0  0  0
  181.1480  180.0530  137.5310 C   0  0  1  0  0  3  0  0  0  0  0  0
  179.3740  178.9380  139.1510 C   0  0  0  0  0  2  0  0  0  0  0  0
  180.9540  178.6370  136.3930 S   0  0  0  0  0  0  0  0  0  0  0  0
  183.6600  178.1440  136.8490 C   0  0  0  0  0  3  0  0  0  0  0  0
  185.9300  178.0430  136.4740 F   0  0  0  0  0  0  0  0  0  0  0  0
  180.4080  182.6020  138.6380 C   0  0  0  0  0  2  0  0  0  0  0  0
  181.2370  181.3120  136.7030 C   0  0  0  0  0  3  0  0  0  0  0  0
  180.0330  180.1510  138.5660 C   0  0  0  0  0  0  0  0  0  0  0  0
  185.8740  175.1500  136.4000 C   0  0  0  0  0  1  0  0  0  0  0  0
  184.7870  177.4180  136.8540 C   0  0  0  0  0  0  0  0  0  0  0  0
  184.8440  175.9620  137.1060 C   0  0  0  0  0  0  0  0  0  0  0  0
  180.5680  172.7770  136.6350 C   0  0  0  0  0  3  0  0  0  0  0  0
  180.7850  174.1440  136.8200 C   0  0  0  0  0  3  0  0  0  0  0  0
  180.3640  174.7750  138.0030 C   0  0  0  0  0  0  0  0  0  0  0  0
  179.9270  172.0350  137.6280 C   0  0  0  0  0  3  0  0  0  0  0  0
  179.5010  172.6590  138.8060 C   0  0  0  0  0  3  0  0  0  0  0  0
  179.7180  174.0270  138.9920 C   0  0  0  0  0  3  0  0  0  0  0  0
  178.9310  178.9250  142.9300 C   0  0  0  0  0  1  0  0  0  0  0  0
  179.3190  179.2460  141.6250 O   0  0  0  0  0  0  0  0  0  0  0  0
  2  1  1  0  0  0  0
  2  7  1  1  0  0  0
  3  6  1  0  0  0  0
  4 35  1  1  0  0  0
  4  2  1  0  0  0  0
  5  4  1  0  0  0  0
  5  3  1  0  0  0  0
  6 13  1  0  0  0  0
  6  1  1  1  0  0  0
 10 15  1  0  0  0  0
 11 16  1  0  0  0  0
 12  8  1  0  0  0  0
 12 11  1  0  0  0  0
 12 15  1  0  0  0  0
 13 11  1  0  0  0  0
 13 17  1  0  0  0  0
 14 34  1  0  0  0  0
 15 14  1  0  0  0  0
 16 14  1  0  0  0  0
 16  9  1  0  0  0  0
 17  9  1  0  0  0  0
 18 19  2  0  0  0  0
 19 12  1  0  0  0  0
 20 26  1  0  0  0  0
 21 20  1  0  0  0  0
 21 24  1  0  0  0  0
 22 20  1  0  0  0  0
 23 30  1  0  0  0  0
 24 29  1  0  0  0  0
 24 23  1  0  0  0  0
 25 24  1  0  0  0  0
 26 23  1  0  0  0  0
 26 19  1  0  0  0  0
 27 29  2  0  0  0  0
 29 28  1  0  0  0  0
 30 32  1  0  0  0  0
 32 31  3  0  0  0  0
 34 33  1  0  0  0  0
 35 63  1  0  0  0  0
 36 42  1  0  0  0  0
 37 38  1  0  0  0  0
 37 41  1  0  0  0  0
 38 36  1  0  0  0  0
 39 50  1  0  0  0  0
 40 37  2  0  0  0  0
 42 35  1  0  0  0  0
 44 41  1  0  0  0  0
 45 52  1  0  0  0  0
 46 42  1  0  0  0  0
 47 40  1  0  0  0  0
 47 45  1  0  0  0  0
 48 54  2  0  0  0  0
 48 40  1  0  0  0  0
 49 54  1  0  0  0  0
 50 43  1  0  0  0  0
 51 39  2  0  0  0  0
 51 45  1  0  0  0  0
 52 43  2  0  0  0  0
 52 46  1  0  0  0  0
 53 55  1  0  0  0  0
 54 55  1  0  0  0  0
 55 44  2  0  0  0  0
 56 57  2  0  0  0  0
 56 59  1  0  0  0  0
 57 58  1  0  0  0  0
 58 38  1  0  0  0  0
 58 61  2  0  0  0  0
 59 60  2  0  0  0  0
 60 61  1  0  0  0  0
 63 62  1  0  0  0  0
M  END
>  <MODEL>
2

>  <REMARK>
 VINA RESULT:      -5.1      1.549      2.424
  Name = 
  11 active torsions:
  status: ('A' for Active; 'I' for Inactive)
    1  A    between atoms: C_10  and  C_19
    2  A    between atoms: C_15  and  C_62
    3  A    between atoms: C_17  and  C_44
    4  A    between atoms: O_21  and  C_34
    5  A    between atoms: C_22  and  C_61
    6  A    between atoms: N_29  and  C_34
    7  A    between atoms: C_30  and  C_34
    8  A    between atoms: C_33  and  C_35
    9  A    between atoms: C_40  and  C_52
   10  A    between atoms: C_58  and  C_61
   11  A    between atoms: C_62  and  C_63
                            x       y       z     vdW  Elec       q    Type
                         _______ _______ _______ _____ _____    ______ ____

>  <TORSDO>
F 11

$$$$
=
 OpenBabel11062418063D

 63 70  0  0  1  0  0  0  0  0999 V2000
  183.4250  179.6000  141.8740 C   0  0  0  0  0  2  0  0  0  0  0  0
  182.0630  179.0010  141.5110 C   0  0  1  0  0  3  0  0  0  0  0  0
  184.1540  177.3050  141.6230 O   0  0  0  0  0  0  0  0  0  0  0  0
  182.1920  178.0460  140.3030 C   0  0  1  0  0  3  0  0  0  0  0  0
  183.3140  177.0090  140.5270 C   0  0  0  0  0  2  0  0  0  0  0  0
  184.5690  178.6410  141.4780 C   0  0  2  0  0  3  0  0  0  0  0  0
  181.5510  178.3140  142.6190 O   0  0  0  0  0  1  0  0  0  0  0  0
  188.2450  176.0240  142.7030 O   0  0  0  0  0  1  0  0  0  0  0  0
  185.6780  179.0870  144.6070 C   0  0  0  0  0  2  0  0  0  0  0  0
  188.8220  179.5620  142.9460 O   0  0  0  0  0  1  0  0  0  0  0  0
  186.4950  177.6220  142.8290 C   0  0  2  0  0  3  0  0  0  0  0  0
  187.9540  177.3620  142.4120 C   0  0  1  0  0  0  0  0  0  0  0  0
  185.8890  178.8930  142.2100 C   0  0  2  0  0  3  0  0  0  0  0  0
  187.9970  178.1970  144.6900 C   0  0  1  0  0  3  0  0  0  0  0  0
  188.7660  178.2330  143.3780 C   0  0  2  0  0  3  0  0  0  0  0  0
  186.5480  177.8750  144.3350 C   0  0  1  0  0  3  0  0  0  0  0  0
  185.6800  179.8950  143.3300 C   0  0  0  0  0  2  0  0  0  0  0  0
  187.2860  178.1960  140.1940 C   0  0  0  0  0  2  0  0  0  0  0  0
  188.2190  177.5690  140.9160 C   0  0  0  0  0  0  0  0  0  0  0  0
  190.6580  177.4930  140.0380 C   0  0  2  0  0  3  0  0  0  0  0  0
  191.3050  176.9010  138.8060 C   0  0  0  0  0  2  0  0  0  0  0  0
  191.3980  177.1530  141.1680 O   0  0  0  0  0  1  0  0  0  0  0  0
  188.9170  176.3630  138.7080 C   0  0  1  0  0  3  0  0  0  0  0  0
  190.1850  176.5210  137.8440 C   0  0  1  0  0  0  0  0  0  0  0  0
  190.0380  177.5420  136.9030 O   0  0  0  0  0  1  0  0  0  0  0  0
  189.2870  176.8600  140.1080 C   0  0  2  0  0  3  0  0  0  0  0  0
  191.2550  175.2870  135.9440 O   0  0  0  0  0  0  0  0  0  0  0  0
  190.1670  174.1230  137.5900 O   0  0  0  0  0  1  0  0  0  0  0  0
  190.5430  175.2420  137.1370 C   0  0  0  0  0  0  0  0  0  0  0  0
  187.6610  177.0120  138.1150 C   0  0  0  0  0  2  0  0  0  0  0  0
  188.2740  179.3330  136.9280 C   0  0  0  0  0  3  0  0  0  0  0  0
  187.9990  178.2850  137.4650 C   0  0  0  0  0  0  0  0  0  0  0  0
  189.9380  177.1980  145.6480 O   0  0  0  0  0  1  0  0  0  0  0  0
  188.5500  177.1160  145.6020 C   0  0  0  0  0  2  0  0  0  0  0  0
  180.8660  177.4060  139.8350 C   0  0  2  0  0  3  0  0  0  0  0  0
  180.6900  175.7910  138.1040 C   0  0  0  0  0  2  0  0  0  0  0  0
  182.6220  176.0050  136.4650 C   0  0  0  0  0  0  0  0  0  0  0  0
  181.2730  175.3860  136.7470 C   0  0  1  0  0  3  0  0  0  0  0  0
  180.6750  181.6100  135.7190 C   0  0  0  0  0  3  0  0  0  0  0  0
  182.7230  177.0480  135.6150 C   0  0  0  0  0  0  0  0  0  0  0  0
  183.8030  175.5430  137.2560 C   0  0  0  0  0  2  0  0  0  0  0  0
  180.8850  177.2100  138.3730 N   0  0  0  0  0  0  0  0  0  0  0  0
  179.7410  180.3250  137.6290 C   0  0  0  0  0  3  0  0  0  0  0  0
  184.8510  174.9670  136.3680 C   0  0  0  0  0  3  0  0  0  0  0  0
  181.2900  179.2280  136.0320 C   0  0  1  0  0  3  0  0  0  0  0  0
  179.7630  177.8930  137.7350 C   0  0  0  0  0  2  0  0  0  0  0  0
  181.2420  177.7900  134.9070 S   0  0  0  0  0  0  0  0  0  0  0  0
  184.0090  177.6790  135.2390 C   0  0  0  0  0  3  0  0  0  0  0  0
  186.2510  177.8880  134.7600 F   0  0  0  0  0  0  0  0  0  0  0  0
  180.2570  181.6600  137.1650 C   0  0  0  0  0  2  0  0  0  0  0  0
  181.1670  180.4800  135.1980 C   0  0  0  0  0  3  0  0  0  0  0  0
  180.2200  179.1810  137.1170 C   0  0  0  0  0  0  0  0  0  0  0  0
  186.5920  175.0150  134.6960 C   0  0  0  0  0  1  0  0  0  0  0  0
  185.2250  177.1150  135.1930 C   0  0  0  0  0  0  0  0  0  0  0  0
  185.4930  175.6830  135.4460 C   0  0  0  0  0  0  0  0  0  0  0  0
  180.8300  171.6510  137.3720 C   0  0  0  0  0  3  0  0  0  0  0  0
  180.8090  173.0340  137.5630 C   0  0  0  0  0  3  0  0  0  0  0  0
  181.2660  173.8970  136.5520 C   0  0  0  0  0  0  0  0  0  0  0  0
  181.3090  171.1230  136.1710 C   0  0  0  0  0  3  0  0  0  0  0  0
  181.7700  171.9780  135.1640 C   0  0  0  0  0  3  0  0  0  0  0  0
  181.7490  173.3620  135.3550 C   0  0  0  0  0  3  0  0  0  0  0  0
  178.9310  177.4380  140.9300 C   0  0  0  0  0  1  0  0  0  0  0  0
  179.8070  178.2520  140.2030 O   0  0  0  0  0  0  0  0  0  0  0  0
  2  1  1  0  0  0  0
  2  7  1  1  0  0  0
  4 35  1  1  0  0  0
  4  5  1  0  0  0  0
  4  2  1  0  0  0  0
  5  3  1  0  0  0  0
  6  3  1  0  0  0  0
  6  1  1  1  0  0  0
  6 13  1  0  0  0  0
 10 15  1  0  0  0  0
 11 16  1  0  0  0  0
 12  8  1  0  0  0  0
 12 11  1  0  0  0  0
 12 15  1  0  0  0  0
 13 11  1  0  0  0  0
 13 17  1  0  0  0  0
 14 34  1  0  0  0  0
 15 14  1  0  0  0  0
 16  9  1  0  0  0  0
 16 14  1  0  0  0  0
 17  9  1  0  0  0  0
 18 19  2  0  0  0  0
 19 12  1  0  0  0  0
 20 26  1  0  0  0  0
 20 22  1  0  0  0  0
 21 20  1  0  0  0  0
 23 26  1  0  0  0  0
 24 23  1  0  0  0  0
 24 21  1  0  0  0  0
 25 24  1  0  0  0  0
 26 19  1  0  0  0  0
 27 29  2  0  0  0  0
 29 28  1  0  0  0  0
 29 24  1  0  0  0  0
 30 23  1  0  0  0  0
 31 32  3  0  0  0  0
 32 30  1  0  0  0  0
 34 33  1  0  0  0  0
 35 63  1  0  0  0  0
 36 42  1  0  0  0  0
 37 38  1  0  0  0  0
 37 41  1  0  0  0  0
 38 36  1  0  0  0  0
 39 50  1  0  0  0  0
 40 37  2  0  0  0  0
 42 35  1  0  0  0  0
 44 41  1  0  0  0  0
 45 52  1  0  0  0  0
 46 42  1  0  0  0  0
 47 40  1  0  0  0  0
 47 45  1  0  0  0  0
 48 40  1  0  0  0  0
 49 54  1  0  0  0  0
 50 43  1  0  0  0  0
 51 39  2  0  0  0  0
 51 45  1  0  0  0  0
 52 43  2  0  0  0  0
 52 46  1  0  0  0  0
 53 55  1  0  0  0  0
 54 48  2  0  0  0  0
 54 55  1  0  0  0  0
 55 44  2  0  0  0  0
 56 57  1  0  0  0  0
 58 38  1  0  0  0  0
 58 57  2  0  0  0  0
 59 56  2  0  0  0  0
 60 61  2  0  0  0  0
 60 59  1  0  0  0  0
 61 58  1  0  0  0  0
 63 62  1  0  0  0  0
M  END
>  <MODEL>
3

>  <REMARK>
 VINA RESULT:      -4.3      1.478      2.226
  Name = 
  11 active torsions:
  status: ('A' for Active; 'I' for Inactive)
    1  A    between atoms: C_10  and  C_19
    2  A    between atoms: C_15  and  C_62
    3  A    between atoms: C_17  and  C_44
    4  A    between atoms: O_21  and  C_34
    5  A    between atoms: C_22  and  C_61
    6  A    between atoms: N_29  and  C_34
    7  A    between atoms: C_30  and  C_34
    8  A    between atoms: C_33  and  C_35
    9  A    between atoms: C_40  and  C_52
   10  A    between atoms: C_58  and  C_61
   11  A    between atoms: C_62  and  C_63
                            x       y       z     vdW  Elec       q    Type
                         _______ _______ _______ _____ _____    ______ ____

>  <TORSDO>
F 11

$$$$
=
 OpenBabel11062418063D

 63 70  0  0  1  0  0  0  0  0999 V2000
  189.1900  176.3610  138.2420 C   0  0  0  0  0  2  0  0  0  0  0  0
  188.4630  176.9860  137.0470 C   0  0  1  0  0  3  0  0  0  0  0  0
  188.0780  178.1370  139.4530 O   0  0  0  0  0  0  0  0  0  0  0  0
  186.9870  177.2780  137.4000 C   0  0  1  0  0  3  0  0  0  0  0  0
  186.8750  178.0790  138.7150 C   0  0  0  0  0  2  0  0  0  0  0  0
  188.5540  176.8200  139.5730 C   0  0  2  0  0  3  0  0  0  0  0  0
  189.1160  178.1680  136.6760 O   0  0  0  0  0  1  0  0  0  0  0  0
  188.9590  178.9730  143.7030 O   0  0  0  0  0  1  0  0  0  0  0  0
  191.6820  177.5740  140.5040 C   0  0  0  0  0  2  0  0  0  0  0  0
  190.7250  175.8500  143.5010 O   0  0  0  0  0  1  0  0  0  0  0  0
  189.5540  177.9440  141.6480 C   0  0  2  0  0  3  0  0  0  0  0  0
  189.2270  177.7210  143.1350 C   0  0  1  0  0  0  0  0  0  0  0  0
  189.4630  176.6680  140.7940 C   0  0  2  0  0  3  0  0  0  0  0  0
  191.6350  177.9630  142.9580 C   0  0  1  0  0  3  0  0  0  0  0  0
  190.5510  177.2200  143.7240 C   0  0  2  0  0  3  0  0  0  0  0  0
  191.0230  178.3640  141.6190 C   0  0  1  0  0  3  0  0  0  0  0  0
  190.8700  176.3090  140.3550 C   0  0  0  0  0  2  0  0  0  0  0  0
  188.0650  175.5530  143.0320 C   0  0  0  0  0  2  0  0  0  0  0  0
  187.9940  176.8420  143.3760 C   0  0  0  0  0  0  0  0  0  0  0  0
  186.0030  178.3730  142.7300 C   0  0  2  0  0  3  0  0  0  0  0  0
  184.9120  179.0560  143.5240 C   0  0  0  0  0  2  0  0  0  0  0  0
  185.4500  177.7360  141.6220 O   0  0  0  0  0  1  0  0  0  0  0  0
  186.2790  177.7790  145.1070 C   0  0  1  0  0  3  0  0  0  0  0  0
  185.2980  178.9650  144.9970 C   0  0  1  0  0  0  0  0  0  0  0  0
  185.9040  180.1660  145.3750 O   0  0  0  0  0  1  0  0  0  0  0  0
  186.5980  177.3510  143.6720 C   0  0  2  0  0  3  0  0  0  0  0  0
  184.1810  178.4490  147.1790 O   0  0  0  0  0  1  0  0  0  0  0  0
  182.9120  178.7910  145.3030 O   0  0  0  0  0  0  0  0  0  0  0  0
  184.0630  178.7490  145.8270 C   0  0  0  0  0  0  0  0  0  0  0  0
  187.5120  178.0560  145.9770 C   0  0  0  0  0  2  0  0  0  0  0  0
  187.1840  177.0110  148.4200 C   0  0  0  0  0  3  0  0  0  0  0  0
  187.3340  177.4810  147.3170 C   0  0  0  0  0  0  0  0  0  0  0  0
  191.5310  179.1910  145.0000 O   0  0  0  0  0  1  0  0  0  0  0  0
  192.0630  179.2090  143.7150 C   0  0  0  0  0  2  0  0  0  0  0  0
  186.1530  177.8870  136.2510 C   0  0  2  0  0  3  0  0  0  0  0  0
  183.9140  177.9380  135.4610 C   0  0  0  0  0  2  0  0  0  0  0  0
  182.3400  176.8420  137.1280 C   0  0  0  0  0  0  0  0  0  0  0  0
  182.5110  177.3890  135.7310 C   0  0  1  0  0  3  0  0  0  0  0  0
  185.7960  172.0140  136.4150 C   0  0  0  0  0  3  0  0  0  0  0  0
  182.3390  175.5090  137.3380 C   0  0  0  0  0  0  0  0  0  0  0  0
  182.3270  177.7980  138.2770 C   0  0  0  0  0  2  0  0  0  0  0  0
  184.9480  177.0690  136.0100 N   0  0  0  0  0  0  0  0  0  0  0  0
  186.6430  174.1640  135.5050 C   0  0  0  0  0  3  0  0  0  0  0  0
  181.0410  177.7210  139.0250 C   0  0  0  0  0  3  0  0  0  0  0  0
  184.3790  174.0470  136.5140 C   0  0  1  0  0  3  0  0  0  0  0  0
  185.1960  176.0540  134.9910 C   0  0  0  0  0  2  0  0  0  0  0  0
  182.6650  174.3760  135.9760 S   0  0  0  0  0  0  0  0  0  0  0  0
  182.1220  174.8860  138.6630 C   0  0  0  0  0  3  0  0  0  0  0  0
  181.3180  174.5820  140.7990 F   0  0  0  0  0  0  0  0  0  0  0  0
  187.0010  172.8990  136.2370 C   0  0  0  0  0  2  0  0  0  0  0  0
  184.5790  172.5510  136.5560 C   0  0  0  0  0  3  0  0  0  0  0  0
  185.4270  174.7180  135.6320 C   0  0  0  0  0  0  0  0  0  0  0  0
  179.3880  176.7120  140.4660 C   0  0  0  0  0  1  0  0  0  0  0  0
  181.4210  175.3680  139.6990 C   0  0  0  0  0  0  0  0  0  0  0  0
  180.6430  176.6250  139.6700 C   0  0  0  0  0  0  0  0  0  0  0  0
  180.6570  180.6570  135.0850 C   0  0  0  0  0  3  0  0  0  0  0  0
  181.6720  179.7570  135.4150 C   0  0  0  0  0  3  0  0  0  0  0  0
  181.4400  178.3720  135.3580 C   0  0  0  0  0  0  0  0  0  0  0  0
  179.4030  180.1780  134.6980 C   0  0  0  0  0  3  0  0  0  0  0  0
  179.1640  178.8000  134.6450 C   0  0  0  0  0  3  0  0  0  0  0  0
  180.1800  177.9000  134.9760 C   0  0  0  0  0  3  0  0  0  0  0  0
  187.0420  179.2980  134.7800 C   0  0  0  0  0  1  0  0  0  0  0  0
  186.9500  177.9380  135.0960 O   0  0  0  0  0  0  0  0  0  0  0  0
  2  7  1  1  0  0  0
  2  4  1  0  0  0  0
  2  1  1  0  0  0  0
  3  6  1  0  0  0  0
  4 35  1  6  0  0  0
  4  5  1  0  0  0  0
  5  3  1  0  0  0  0
  6  1  1  6  0  0  0
  6 13  1  0  0  0  0
  9 16  1  0  0  0  0
 10 15  1  0  0  0  0
 11 12  1  0  0  0  0
 12 19  1  0  0  0  0
 12  8  1  0  0  0  0
 12 15  1  0  0  0  0
 13 11  1  0  0  0  0
 14 34  1  0  0  0  0
 14 15  1  0  0  0  0
 16 11  1  0  0  0  0
 16 14  1  0  0  0  0
 17  9  1  0  0  0  0
 17 13  1  0  0  0  0
 18 19  2  0  0  0  0
 19 26  1  0  0  0  0
 20 21  1  0  0  0  0
 20 26  1  0  0  0  0
 21 24  1  0  0  0  0
 22 20  1  0  0  0  0
 23 30  1  0  0  0  0
 24 23  1  0  0  0  0
 24 25  1  0  0  0  0
 24 29  1  0  0  0  0
 26 23  1  0  0  0  0
 28 29  2  0  0  0  0
 29 27  1  0  0  0  0
 30 32  1  0  0  0  0
 32 31  3  0  0  0  0
 34 33  1  0  0  0  0
 36 38  1  0  0  0  0
 36 42  1  0  0  0  0
 37 40  2  0  0  0  0
 37 41  1  0  0  0  0
 38 37  1  0  0  0  0
 39 51  2  0  0  0  0
 40 48  1  0  0  0  0
 41 44  1  0  0  0  0
 42 35  1  0  0  0  0
 43 52  2  0  0  0  0
 43 50  1  0  0  0  0
 44 55  2  0  0  0  0
 45 51  1  0  0  0  0
 46 52  1  0  0  0  0
 46 42  1  0  0  0  0
 47 45  1  0  0  0  0
 47 40  1  0  0  0  0
 48 54  2  0  0  0  0
 50 39  1  0  0  0  0
 52 45  1  0  0  0  0
 54 49  1  0  0  0  0
 55 54  1  0  0  0  0
 55 53  1  0  0  0  0
 56 57  1  0  0  0  0
 58 57  2  0  0  0  0
 58 38  1  0  0  0  0
 59 56  2  0  0  0  0
 60 59  1  0  0  0  0
 60 61  2  0  0  0  0
 61 58  1  0  0  0  0
 62 63  1  0  0  0  0
 63 35  1  0  0  0  0
M  END
>  <MODEL>
4

>  <REMARK>
 VINA RESULT:      -4.3      2.455      7.115
  Name = 
  11 active torsions:
  status: ('A' for Active; 'I' for Inactive)
    1  A    between atoms: C_10  and  C_19
    2  A    between atoms: C_15  and  C_62
    3  A    between atoms: C_17  and  C_44
    4  A    between atoms: O_21  and  C_34
    5  A    between atoms: C_22  and  C_61
    6  A    between atoms: N_29  and  C_34
    7  A    between atoms: C_30  and  C_34
    8  A    between atoms: C_33  and  C_35
    9  A    between atoms: C_40  and  C_52
   10  A    between atoms: C_58  and  C_61
   11  A    between atoms: C_62  and  C_63
                            x       y       z     vdW  Elec       q    Type
                         _______ _______ _______ _____ _____    ______ ____

>  <TORSDO>
F 11

$$$$
=
 OpenBabel11062418063D

 63 70  0  0  1  0  0  0  0  0999 V2000
  189.4240  176.2850  142.8540 C   0  0  0  0  0  2  0  0  0  0  0  0
  190.6650  176.5770  142.0040 C   0  0  1  0  0  3  0  0  0  0  0  0
  188.5300  178.1800  141.6410 O   0  0  0  0  0  0  0  0  0  0  0  0
  190.2720  176.8130  140.5280 C   0  0  1  0  0  3  0  0  0  0  0  0
  189.1470  177.8640  140.4110 C   0  0  0  0  0  2  0  0  0  0  0  0
  188.1750  176.9630  142.2500 C   0  0  2  0  0  3  0  0  0  0  0  0
  191.3220  177.7030  142.5160 O   0  0  0  0  0  1  0  0  0  0  0  0
  185.4560  180.5440  143.5350 O   0  0  0  0  0  1  0  0  0  0  0  0
  187.6980  177.3000  145.5490 C   0  0  0  0  0  2  0  0  0  0  0  0
  184.2400  177.3310  144.5900 O   0  0  0  0  0  1  0  0  0  0  0  0
  186.8310  178.6150  143.6790 C   0  0  2  0  0  3  0  0  0  0  0  0
  185.4010  179.1460  143.4760 C   0  0  1  0  0  0  0  0  0  0  0  0
  187.0200  177.1540  143.2360 C   0  0  2  0  0  3  0  0  0  0  0  0
  185.6800  178.7210  145.8490 C   0  0  1  0  0  3  0  0  0  0  0  0
  184.6560  178.6600  144.7260 C   0  0  2  0  0  3  0  0  0  0  0  0
  187.0530  178.6260  145.1910 C   0  0  1  0  0  3  0  0  0  0  0  0
  187.2570  176.3230  144.4830 C   0  0  0  0  0  2  0  0  0  0  0  0
  185.6100  178.4330  141.1300 C   0  0  0  0  0  2  0  0  0  0  0  0
  184.7850  178.7720  142.1230 C   0  0  0  0  0  0  0  0  0  0  0  0
  182.2650  178.8480  142.7310 C   0  0  2  0  0  3  0  0  0  0  0  0
  180.9920  178.6790  141.9300 C   0  0  0  0  0  2  0  0  0  0  0  0
  182.1620  179.9740  143.5450 O   0  0  0  0  0  1  0  0  0  0  0  0
  182.8720  178.4720  140.3710 C   0  0  1  0  0  3  0  0  0  0  0  0
  181.3850  178.1100  140.5700 C   0  0  1  0  0  0  0  0  0  0  0  0
  181.1950  176.7270  140.5920 O   0  0  0  0  0  1  0  0  0  0  0  0
  183.3550  179.0510  141.7040 C   0  0  2  0  0  3  0  0  0  0  0  0
  180.1200  177.9470  138.4140 O   0  0  0  0  0  0  0  0  0  0  0  0
  180.1710  179.9310  139.5580 O   0  0  0  0  0  1  0  0  0  0  0  0
  180.5150  178.7150  139.5030 C   0  0  0  0  0  0  0  0  0  0  0  0
  183.7350  177.3270  139.8260 C   0  0  0  0  0  2  0  0  0  0  0  0
  183.7490  177.3670  137.1480 C   0  0  0  0  0  3  0  0  0  0  0  0
  183.7440  177.3470  138.3570 C   0  0  0  0  0  0  0  0  0  0  0  0
  186.0490  179.8800  147.8990 O   0  0  0  0  0  1  0  0  0  0  0  0
  185.5660  180.0340  146.6040 C   0  0  0  0  0  2  0  0  0  0  0  0
  191.4560  177.0890  139.5760 C   0  0  2  0  0  3  0  0  0  0  0  0
  190.1960  177.4840  137.6020 C   0  0  0  0  0  2  0  0  0  0  0  0
  188.9190  175.3980  136.9100 C   0  0  0  0  0  0  0  0  0  0  0  0
  189.3750  176.7830  136.5170 C   0  0  1  0  0  3  0  0  0  0  0  0
  194.3050  172.8060  136.7150 C   0  0  0  0  0  3  0  0  0  0  0  0
  189.5440  174.3110  136.4110 C   0  0  0  0  0  0  0  0  0  0  0  0
  187.8740  175.2610  137.9710 C   0  0  0  0  0  2  0  0  0  0  0  0
  191.1520  176.5770  138.2260 N   0  0  0  0  0  0  0  0  0  0  0  0
  194.1540  175.0370  137.7970 C   0  0  0  0  0  3  0  0  0  0  0  0
  186.6660  174.5660  137.4460 C   0  0  0  0  0  3  0  0  0  0  0  0
  192.1550  174.0430  136.7130 C   0  0  1  0  0  3  0  0  0  0  0  0
  192.3370  176.6010  137.3740 C   0  0  0  0  0  2  0  0  0  0  0  0
  191.0030  174.5020  135.3720 S   0  0  0  0  0  0  0  0  0  0  0  0
  189.1290  172.9190  136.6990 C   0  0  0  0  0  3  0  0  0  0  0  0
  187.7590  171.1300  137.1670 F   0  0  0  0  0  0  0  0  0  0  0  0
  194.7620  173.6630  137.8660 C   0  0  0  0  0  2  0  0  0  0  0  0
  193.0870  172.9770  136.1880 C   0  0  0  0  0  3  0  0  0  0  0  0
  192.9340  175.2290  137.2710 C   0  0  0  0  0  0  0  0  0  0  0  0
  185.3870  172.6930  136.6160 C   0  0  0  0  0  1  0  0  0  0  0  0
  187.9030  172.4670  136.9990 C   0  0  0  0  0  0  0  0  0  0  0  0
  186.6840  173.3050  137.0170 C   0  0  0  0  0  0  0  0  0  0  0  0
  186.9870  179.7180  136.0540 C   0  0  0  0  0  3  0  0  0  0  0  0
  188.0510  178.9410  136.5160 C   0  0  0  0  0  3  0  0  0  0  0  0
  188.2510  177.6430  136.0160 C   0  0  0  0  0  0  0  0  0  0  0  0
  186.1170  179.2030  135.0910 C   0  0  0  0  0  3  0  0  0  0  0  0
  186.3090  177.9090  134.5940 C   0  0  0  0  0  3  0  0  0  0  0  0
  187.3730  177.1310  135.0560 C   0  0  0  0  0  3  0  0  0  0  0  0
  193.5470  177.4850  140.2190 C   0  0  0  0  0  1  0  0  0  0  0  0
  192.6010  176.4620  140.0920 O   0  0  0  0  0  0  0  0  0  0  0  0
  2  7  1  1  0  0  0
  2  1  1  0  0  0  0
  3  6  1  0  0  0  0
  4 35  1  6  0  0  0
  4  2  1  0  0  0  0
  5  4  1  0  0  0  0
  5  3  1  0  0  0  0
  6  1  1  1  0  0  0
  6 13  1  0  0  0  0
 10 15  1  0  0  0  0
 11 16  1  0  0  0  0
 12  8  1  0  0  0  0
 12 11  1  0  0  0  0
 12 15  1  0  0  0  0
 13 11  1  0  0  0  0
 13 17  1  0  0  0  0
 14 34  1  0  0  0  0
 15 14  1  0  0  0  0
 16  9  1  0  0  0  0
 16 14  1  0  0  0  0
 17  9  1  0  0  0  0
 18 19  2  0  0  0  0
 19 12  1  0  0  0  0
 20 22  1  0  0  0  0
 21 20  1  0  0  0  0
 23 24  1  0  0  0  0
 23 26  1  0  0  0  0
 24 25  1  0  0  0  0
 24 21  1  0  0  0  0
 26 19  1  0  0  0  0
 26 20  1  0  0  0  0
 27 29  2  0  0  0  0
 29 28  1  0  0  0  0
 29 24  1  0  0  0  0
 30 23  1  0  0  0  0
 31 32  3  0  0  0  0
 32 30  1  0  0  0  0
 34 33  1  0  0  0  0
 35 63  1  0  0  0  0
 36 42  1  0  0  0  0
 37 41  1  0  0  0  0
 38 37  1  0  0  0  0
 38 36  1  0  0  0  0
 39 50  1  0  0  0  0
 40 48  1  0  0  0  0
 40 37  2  0  0  0  0
 42 35  1  0  0  0  0
 43 50  1  0  0  0  0
 44 41  1  0  0  0  0
 45 52  1  0  0  0  0
 46 42  1  0  0  0  0
 47 40  1  0  0  0  0
 47 45  1  0  0  0  0
 48 54  2  0  0  0  0
 51 45  1  0  0  0  0
 51 39  2  0  0  0  0
 52 46  1  0  0  0  0
 52 43  2  0  0  0  0
 53 55  1  0  0  0  0
 54 55  1  0  0  0  0
 54 49  1  0  0  0  0
 55 44  2  0  0  0  0
 56 57  1  0  0  0  0
 58 57  2  0  0  0  0
 58 38  1  0  0  0  0
 59 56  2  0  0  0  0
 60 61  2  0  0  0  0
 60 59  1  0  0  0  0
 61 58  1  0  0  0  0
 63 62  1  0  0  0  0
M  END
>  <MODEL>
5

>  <REMARK>
 VINA RESULT:      -3.6      3.382      8.728
  Name = 
  11 active torsions:
  status: ('A' for Active; 'I' for Inactive)
    1  A    between atoms: C_10  and  C_19
    2  A    between atoms: C_15  and  C_62
    3  A    between atoms: C_17  and  C_44
    4  A    between atoms: O_21  and  C_34
    5  A    between atoms: C_22  and  C_61
    6  A    between atoms: N_29  and  C_34
    7  A    between atoms: C_30  and  C_34
    8  A    between atoms: C_33  and  C_35
    9  A    between atoms: C_40  and  C_52
   10  A    between atoms: C_58  and  C_61
   11  A    between atoms: C_62  and  C_63
                            x       y       z     vdW  Elec       q    Type
                         _______ _______ _______ _____ _____    ______ ____

>  <TORSDO>
F 11

$$$$
=
 OpenBabel11062418063D

 63 70  0  0  1  0  0  0  0  0999 V2000
  188.8410  178.5470  138.0050 C   0  0  0  0  0  2  0  0  0  0  0  0
  187.9190  178.7340  136.7960 C   0  0  1  0  0  3  0  0  0  0  0  0
  186.7440  178.5770  139.2150 O   0  0  0  0  0  0  0  0  0  0  0  0
  186.7160  177.7680  136.8730 C   0  0  1  0  0  3  0  0  0  0  0  0
  186.0090  177.8630  138.2420 C   0  0  0  0  0  2  0  0  0  0  0  0
  188.0440  178.0400  139.2280 C   0  0  2  0  0  3  0  0  0  0  0  0
  187.4740  180.0610  136.7550 O   0  0  0  0  0  1  0  0  0  0  0  0
  190.7270  175.5040  142.0970 O   0  0  0  0  0  1  0  0  0  0  0  0
  187.2440  178.2120  142.4760 C   0  0  0  0  0  2  0  0  0  0  0  0
  190.7220  179.0230  142.8270 O   0  0  0  0  0  1  0  0  0  0  0  0
  189.0320  176.9870  141.3460 C   0  0  2  0  0  3  0  0  0  0  0  0
  190.5040  176.8490  141.7750 C   0  0  1  0  0  0  0  0  0  0  0  0
  188.7290  178.2830  140.5740 C   0  0  2  0  0  3  0  0  0  0  0  0
  189.2310  177.4400  143.7550 C   0  0  1  0  0  3  0  0  0  0  0  0
  190.5770  177.6540  143.0780 C   0  0  2  0  0  3  0  0  0  0  0  0
  188.2420  177.0820  142.6500 C   0  0  1  0  0  3  0  0  0  0  0  0
  187.8520  179.1490  141.4580 C   0  0  0  0  0  2  0  0  0  0  0  0
  191.3730  178.4130  140.0850 C   0  0  0  0  0  2  0  0  0  0  0  0
  191.5090  177.2250  140.6800 C   0  0  0  0  0  0  0  0  0  0  0  0
  193.8770  176.7070  139.7600 C   0  0  2  0  0  3  0  0  0  0  0  0
  194.3930  175.8330  138.6380 C   0  0  0  0  0  2  0  0  0  0  0  0
  194.6310  176.4880  140.9110 O   0  0  0  0  0  1  0  0  0  0  0  0
  191.9570  175.5710  138.7110 C   0  0  1  0  0  3  0  0  0  0  0  0
  193.1900  175.4220  137.7950 C   0  0  1  0  0  0  0  0  0  0  0  0
  193.1100  176.2700  136.6880 O   0  0  0  0  0  1  0  0  0  0  0  0
  192.4500  176.2620  139.9850 C   0  0  2  0  0  3  0  0  0  0  0  0
  194.4400  173.2510  137.7860 O   0  0  0  0  0  1  0  0  0  0  0  0
  192.5800  173.5000  136.4730 O   0  0  0  0  0  0  0  0  0  0  0  0
  193.3680  174.0050  137.3230 C   0  0  0  0  0  0  0  0  0  0  0  0
  190.7530  176.2480  138.0450 C   0  0  0  0  0  2  0  0  0  0  0  0
  189.1350  174.4180  136.9480 C   0  0  0  0  0  3  0  0  0  0  0  0
  189.8670  175.2430  137.4420 C   0  0  0  0  0  0  0  0  0  0  0  0
  189.3000  176.8020  146.0510 O   0  0  0  0  0  1  0  0  0  0  0  0
  189.3130  176.2990  144.7540 C   0  0  0  0  0  2  0  0  0  0  0  0
  185.7350  177.8550  135.6830 C   0  0  2  0  0  3  0  0  0  0  0  0
  183.3920  178.2080  135.5290 C   0  0  0  0  0  2  0  0  0  0  0  0
  182.3060  178.0910  137.8250 C   0  0  0  0  0  0  0  0  0  0  0  0
  182.0900  178.1280  136.3300 C   0  0  1  0  0  3  0  0  0  0  0  0
  184.6270  172.5850  138.0590 C   0  0  0  0  0  3  0  0  0  0  0  0
  182.1850  176.9280  138.4980 C   0  0  0  0  0  0  0  0  0  0  0  0
  182.8020  179.3240  138.5090 C   0  0  0  0  0  2  0  0  0  0  0  0
  184.4150  177.3230  136.0720 N   0  0  0  0  0  0  0  0  0  0  0  0
  185.4260  174.0800  136.2440 C   0  0  0  0  0  3  0  0  0  0  0  0
  181.8310  179.7950  139.5360 C   0  0  0  0  0  3  0  0  0  0  0  0
  183.6200  174.8320  137.7700 C   0  0  1  0  0  3  0  0  0  0  0  0
  184.1730  176.0170  135.4660 C   0  0  0  0  0  2  0  0  0  0  0  0
  181.8880  175.3910  137.6070 S   0  0  0  0  0  0  0  0  0  0  0  0
  182.3250  176.8110  139.9670 C   0  0  0  0  0  3  0  0  0  0  0  0
  182.2230  177.3780  142.1960 F   0  0  0  0  0  0  0  0  0  0  0  0
  185.8210  173.0510  137.2680 C   0  0  0  0  0  2  0  0  0  0  0  0
  183.6100  173.4190  138.3010 C   0  0  0  0  0  3  0  0  0  0  0  0
  184.4080  174.9260  136.4680 C   0  0  0  0  0  0  0  0  0  0  0  0
  180.6100  179.7090  141.6170 C   0  0  0  0  0  1  0  0  0  0  0  0
  182.0730  177.7420  140.8990 C   0  0  0  0  0  0  0  0  0  0  0  0
  181.5140  179.0800  140.6140 C   0  0  0  0  0  0  0  0  0  0  0  0
  179.1570  179.8800  134.6380 C   0  0  0  0  0  3  0  0  0  0  0  0
  180.0500  178.8830  135.0320 C   0  0  0  0  0  3  0  0  0  0  0  0
  181.1050  179.1810  135.9130 C   0  0  0  0  0  0  0  0  0  0  0  0
  179.3130  181.1820  135.1180 C   0  0  0  0  0  3  0  0  0  0  0  0
  180.3640  181.4860  135.9900 C   0  0  0  0  0  3  0  0  0  0  0  0
  181.2590  180.4880  136.3850 C   0  0  0  0  0  3  0  0  0  0  0  0
  187.4770  176.6070  135.0880 C   0  0  0  0  0  1  0  0  0  0  0  0
  186.2640  177.1170  134.6110 O   0  0  0  0  0  0  0  0  0  0  0  0
  2  7  1  1  0  0  0
  2  4  1  0  0  0  0
  2  1  1  0  0  0  0
  3  6  1  0  0  0  0
  4 35  1  6  0  0  0
  4  5  1  0  0  0  0
  5  3  1  0  0  0  0
  6  1  1  6  0  0  0
  6 13  1  0  0  0  0
  9 16  1  0  0  0  0
 10 15  1  0  0  0  0
 11 12  1  0  0  0  0
 11 16  1  0  0  0  0
 12  8  1  0  0  0  0
 12 15  1  0  0  0  0
 13 11  1  0  0  0  0
 13 17  1  0  0  0  0
 14 34  1  0  0  0  0
 15 14  1  0  0  0  0
 16 14  1  0  0  0  0
 17  9  1  0  0  0  0
 18 19  2  0  0  0  0
 19 12  1  0  0  0  0
 20 26  1  0  0  0  0
 20 22  1  0  0  0  0
 21 20  1  0  0  0  0
 23 26  1  0  0  0  0
 24 21  1  0  0  0  0
 24 23  1  0  0  0  0
 25 24  1  0  0  0  0
 26 19  1  0  0  0  0
 28 29  2  0  0  0  0
 29 27  1  0  0  0  0
 29 24  1  0  0  0  0
 30 23  1  0  0  0  0
 31 32  3  0  0  0  0
 32 30  1  0  0  0  0
 34 33  1  0  0  0  0
 35 42  1  0  0  0  0
 36 42  1  0  0  0  0
 36 38  1  0  0  0  0
 37 40  2  0  0  0  0
 37 41  1  0  0  0  0
 38 37  1  0  0  0  0
 39 51  2  0  0  0  0
 40 48  1  0  0  0  0
 41 44  1  0  0  0  0
 43 52  2  0  0  0  0
 43 50  1  0  0  0  0
 44 55  2  0  0  0  0
 45 51  1  0  0  0  0
 46 42  1  0  0  0  0
 46 52  1  0  0  0  0
 47 45  1  0  0  0  0
 47 40  1  0  0  0  0
 48 54  2  0  0  0  0
 50 39  1  0  0  0  0
 52 45  1  0  0  0  0
 54 49  1  0  0  0  0
 55 54  1  0  0  0  0
 55 53  1  0  0  0  0
 56 57  2  0  0  0  0
 56 59  1  0  0  0  0
 57 58  1  0  0  0  0
 58 38  1  0  0  0  0
 58 61  2  0  0  0  0
 59 60  2  0  0  0  0
 60 61  1  0  0  0  0
 63 62  1  0  0  0  0
 63 35  1  0  0  0  0
M  END
>  <MODEL>
6

>  <REMARK>
 VINA RESULT:      -2.9      2.613      5.838
  Name = 
  11 active torsions:
  status: ('A' for Active; 'I' for Inactive)
    1  A    between atoms: C_10  and  C_19
    2  A    between atoms: C_15  and  C_62
    3  A    between atoms: C_17  and  C_44
    4  A    between atoms: O_21  and  C_34
    5  A    between atoms: C_22  and  C_61
    6  A    between atoms: N_29  and  C_34
    7  A    between atoms: C_30  and  C_34
    8  A    between atoms: C_33  and  C_35
    9  A    between atoms: C_40  and  C_52
   10  A    between atoms: C_58  and  C_61
   11  A    between atoms: C_62  and  C_63
                            x       y       z     vdW  Elec       q    Type
                         _______ _______ _______ _____ _____    ______ ____

>  <TORSDO>
F 11

$$$$
=
 OpenBabel11062418063D

 63 70  0  0  1  0  0  0  0  0999 V2000
  185.3710  176.3180  137.4580 C   0  0  0  0  0  2  0  0  0  0  0  0
  183.8480  176.4460  137.3580 C   0  0  1  0  0  3  0  0  0  0  0  0
  184.9690  174.2720  136.2270 O   0  0  0  0  0  0  0  0  0  0  0  0
  183.3680  176.1390  135.9220 C   0  0  1  0  0  3  0  0  0  0  0  0
  183.9370  174.7960  135.4170 C   0  0  0  0  0  2  0  0  0  0  0  0
  185.9050  175.3040  136.4220 C   0  0  2  0  0  3  0  0  0  0  0  0
  183.2500  175.5640  138.2670 O   0  0  0  0  0  1  0  0  0  0  0  0
  190.2750  176.2360  135.0480 O   0  0  0  0  0  1  0  0  0  0  0  0
  187.7830  172.6320  135.6770 C   0  0  0  0  0  2  0  0  0  0  0  0
  190.0730  174.1630  137.9760 O   0  0  0  0  0  1  0  0  0  0  0  0
  188.3310  175.0140  135.6450 C   0  0  2  0  0  3  0  0  0  0  0  0
  189.6110  175.6980  136.1570 C   0  0  1  0  0  0  0  0  0  0  0  0
  187.2900  174.7410  136.7450 C   0  0  2  0  0  3  0  0  0  0  0  0
  190.1550  173.3690  135.7510 C   0  0  1  0  0  3  0  0  0  0  0  0
  190.4570  174.5330  136.6820 C   0  0  2  0  0  3  0  0  0  0  0  0
  188.7820  173.6420  135.1460 C   0  0  1  0  0  3  0  0  0  0  0  0
  187.2100  173.2380  136.9370 C   0  0  0  0  0  2  0  0  0  0  0  0
  189.4040  178.0990  136.6600 C   0  0  0  0  0  2  0  0  0  0  0  0
  189.3520  176.8510  137.1330 C   0  0  0  0  0  0  0  0  0  0  0  0
  188.4780  177.6920  139.4260 C   0  0  2  0  0  3  0  0  0  0  0  0
  189.0610  177.7110  140.8220 C   0  0  0  0  0  2  0  0  0  0  0  0
  187.1700  177.2140  139.4690 O   0  0  0  0  0  1  0  0  0  0  0  0
  190.7030  176.6330  139.3560 C   0  0  1  0  0  3  0  0  0  0  0  0
  190.5450  177.3800  140.6970 C   0  0  1  0  0  0  0  0  0  0  0  0
  191.2710  178.5730  140.7060 O   0  0  0  0  0  1  0  0  0  0  0  0
  189.3520  176.7370  138.6440 C   0  0  2  0  0  3  0  0  0  0  0  0
  190.1110  175.5560  142.3590 O   0  0  0  0  0  0  0  0  0  0  0  0
  192.0820  176.7210  142.4350 O   0  0  0  0  0  1  0  0  0  0  0  0
  190.9690  176.5310  141.8640 C   0  0  0  0  0  0  0  0  0  0  0  0
  191.9020  177.0890  138.5150 C   0  0  0  0  0  2  0  0  0  0  0  0
  193.5410  175.0300  138.0200 C   0  0  0  0  0  3  0  0  0  0  0  0
  192.7990  175.9580  138.2450 C   0  0  0  0  0  0  0  0  0  0  0  0
  192.4460  173.6290  135.1430 O   0  0  0  0  0  1  0  0  0  0  0  0
  191.1930  173.2890  134.6440 C   0  0  0  0  0  2  0  0  0  0  0  0
  181.8440  176.2670  135.7040 C   0  0  2  0  0  3  0  0  0  0  0  0
  181.1940  178.3920  136.5390 C   0  0  0  0  0  2  0  0  0  0  0  0
  182.0800  178.7490  138.8960 C   0  0  0  0  0  0  0  0  0  0  0  0
  181.1520  179.2440  137.8110 C   0  0  1  0  0  3  0  0  0  0  0  0
  179.0090  173.7940  140.2310 C   0  0  0  0  0  3  0  0  0  0  0  0
  181.5850  178.0720  139.9530 C   0  0  0  0  0  0  0  0  0  0  0  0
  183.5550  178.8860  138.6970 C   0  0  0  0  0  2  0  0  0  0  0  0
  181.2240  176.9670  136.8460 N   0  0  0  0  0  0  0  0  0  0  0  0
  179.3120  174.3310  137.8250 C   0  0  0  0  0  3  0  0  0  0  0  0
  184.1640  179.7270  139.7660 C   0  0  0  0  0  3  0  0  0  0  0  0
  180.1280  175.9030  139.5620 C   0  0  1  0  0  3  0  0  0  0  0  0
  179.8300  176.5680  137.0160 C   0  0  0  0  0  2  0  0  0  0  0  0
  179.8360  177.6470  140.0200 S   0  0  0  0  0  0  0  0  0  0  0  0
  182.4120  177.6000  141.0870 C   0  0  0  0  0  3  0  0  0  0  0  0
  184.1010  177.5470  142.6500 F   0  0  0  0  0  0  0  0  0  0  0  0
  179.3000  173.2400  138.8610 C   0  0  0  0  0  2  0  0  0  0  0  0
  179.4060  175.0290  140.5590 C   0  0  0  0  0  3  0  0  0  0  0  0
  179.7060  175.5760  138.1340 C   0  0  0  0  0  0  0  0  0  0  0  0
  184.8990  180.2520  142.0050 C   0  0  0  0  0  1  0  0  0  0  0  0
  183.5510  178.1290  141.5560 C   0  0  0  0  0  0  0  0  0  0  0  0
  184.1650  179.3750  141.0510 C   0  0  0  0  0  0  0  0  0  0  0  0
  182.2640  182.8820  138.0660 C   0  0  0  0  0  3  0  0  0  0  0  0
  182.1260  181.5200  138.3430 C   0  0  0  0  0  3  0  0  0  0  0  0
  181.3320  180.7050  137.5170 C   0  0  0  0  0  0  0  0  0  0  0  0
  181.6080  183.4370  136.9660 C   0  0  0  0  0  3  0  0  0  0  0  0
  180.8120  182.6310  136.1440 C   0  0  0  0  0  3  0  0  0  0  0  0
  180.6740  181.2690  136.4200 C   0  0  0  0  0  3  0  0  0  0  0  0
  180.2520  175.1240  134.6520 C   0  0  0  0  0  1  0  0  0  0  0  0
  181.3020  174.9780  135.5670 O   0  0  0  0  0  0  0  0  0  0  0  0
  2  1  1  0  0  0  0
  2  7  1  1  0  0  0
  3  6  1  0  0  0  0
  4 35  1  1  0  0  0
  4  2  1  0  0  0  0
  5  4  1  0  0  0  0
  5  3  1  0  0  0  0
  6 13  1  0  0  0  0
  6  1  1  1  0  0  0
  8 12  1  0  0  0  0
  9 17  1  0  0  0  0
 11 12  1  0  0  0  0
 11 13  1  0  0  0  0
 12 15  1  0  0  0  0
 12 19  1  0  0  0  0
 13 17  1  0  0  0  0
 14 15  1  0  0  0  0
 15 10  1  0  0  0  0
 16 11  1  0  0  0  0
 16  9  1  0  0  0  0
 16 14  1  0  0  0  0
 18 19  2  0  0  0  0
 19 26  1  0  0  0  0
 20 22  1  0  0  0  0
 20 21  1  0  0  0  0
 23 24  1  0  0  0  0
 24 25  1  0  0  0  0
 24 21  1  0  0  0  0
 24 29  1  0  0  0  0
 26 23  1  0  0  0  0
 26 20  1  0  0  0  0
 29 27  2  0  0  0  0
 29 28  1  0  0  0  0
 30 23  1  0  0  0  0
 31 32  3  0  0  0  0
 32 30  1  0  0  0  0
 34 33  1  0  0  0  0
 34 14  1  0  0  0  0
 35 42  1  0  0  0  0
 36 42  1  0  0  0  0
 36 38  1  0  0  0  0
 37 40  2  0  0  0  0
 38 37  1  0  0  0  0
 39 51  2  0  0  0  0
 40 47  1  0  0  0  0
 40 48  1  0  0  0  0
 41 37  1  0  0  0  0
 41 44  1  0  0  0  0
 42 46  1  0  0  0  0
 43 52  2  0  0  0  0
 43 50  1  0  0  0  0
 44 55  2  0  0  0  0
 45 47  1  0  0  0  0
 45 51  1  0  0  0  0
 46 52  1  0  0  0  0
 48 54  2  0  0  0  0
 50 39  1  0  0  0  0
 52 45  1  0  0  0  0
 54 49  1  0  0  0  0
 55 54  1  0  0  0  0
 55 53  1  0  0  0  0
 56 57  1  0  0  0  0
 58 38  1  0  0  0  0
 58 57  2  0  0  0  0
 59 56  2  0  0  0  0
 60 61  2  0  0  0  0
 60 59  1  0  0  0  0
 61 58  1  0  0  0  0
 62 63  1  0  0  0  0
 63 35  1  0  0  0  0
M  END
>  <MODEL>
7

>  <REMARK>
 VINA RESULT:      -2.9      2.330      6.470
  Name = 
  11 active torsions:
  status: ('A' for Active; 'I' for Inactive)
    1  A    between atoms: C_10  and  C_19
    2  A    between atoms: C_15  and  C_62
    3  A    between atoms: C_17  and  C_44
    4  A    between atoms: O_21  and  C_34
    5  A    between atoms: C_22  and  C_61
    6  A    between atoms: N_29  and  C_34
    7  A    between atoms: C_30  and  C_34
    8  A    between atoms: C_33  and  C_35
    9  A    between atoms: C_40  and  C_52
   10  A    between atoms: C_58  and  C_61
   11  A    between atoms: C_62  and  C_63
                            x       y       z     vdW  Elec       q    Type
                         _______ _______ _______ _____ _____    ______ ____

>  <TORSDO>
F 11

$$$$
