=
 OpenBabel11062414263D

 50 56  0  0  1  0  0  0  0  0999 V2000
  190.7220  177.1520  143.0040 C   0  0  1  0  0  3  0  0  0  0  0  0
  190.6830  176.3560  141.7200 C   0  0  0  0  0  2  0  0  0  0  0  0
  190.1300  177.3180  140.6970 C   0  0  2  0  0  3  0  0  0  0  0  0
  189.7200  178.2210  142.9080 N   0  0  0  0  0  0  0  0  0  0  0  0
  189.6600  178.5350  141.4840 C   0  0  0  0  0  2  0  0  0  0  0  0
  187.9290  177.8560  144.8750 O   0  0  0  0  0  1  0  0  0  0  0  0
  187.8840  176.0470  142.9920 O   0  0  0  0  0  0  0  0  0  0  0  0
  188.1030  177.6800  143.3850 P   0  0  2  0  0  0  0  0  0  0  0  0
  186.9150  178.6080  142.5490 O   0  0  0  0  0  0  0  0  0  0  0  0
  185.5340  178.4680  142.7430 C   0  0  2  0  0  3  0  0  0  0  0  0
  184.6520  178.6060  141.7130 C   0  0  0  0  0  3  0  0  0  0  0  0
  184.6830  179.2730  144.8520 C   0  0  2  0  0  3  0  0  0  0  0  0
  183.6140  178.5150  144.1270 N   0  0  2  0  0  0  0  0  0  0  0  0
  183.1590  178.5790  141.8740 C   0  0  0  0  0  0  0  0  0  0  0  0
  185.0520  178.1590  144.1460 C   0  0  1  0  0  3  0  0  0  0  0  0
  182.6390  178.5780  143.1110 C   0  0  0  0  0  2  0  0  0  0  0  0
  182.3070  178.7240  140.6390 C   0  0  1  0  0  3  0  0  0  0  0  0
  181.9530  175.5690  138.8180 C   0  0  0  0  0  3  0  0  0  0  0  0
  182.8620  176.5380  139.2700 C   0  0  0  0  0  3  0  0  0  0  0  0
  182.0630  177.4490  139.9240 C   0  0  0  0  0  0  0  0  0  0  0  0
  180.6700  175.9520  139.2160 C   0  0  0  0  0  3  0  0  0  0  0  0
  180.8030  177.1020  139.8810 N   0  0  0  0  0  0  0  0  0  0  0  0
  180.8660  179.1340  141.0380 C   0  0  0  0  0  3  0  0  0  0  0  0
  179.9130  178.0250  140.5340 C   0  0  0  0  0  3  0  0  0  0  0  0
  184.6250  178.9520  146.2670 N   0  0  0  0  0  2  0  0  0  0  0  0
  185.8310  179.3740  146.8400 N   0  0  0  0  0  2  0  0  0  0  0  0
  186.3770  178.2430  147.5760 C   0  0  0  0  0  2  0  0  0  0  0  0
  188.6090  177.5420  148.2190 N   0  0  0  0  0  1  0  0  0  0  0  0
  187.6790  178.6530  148.2470 C   0  0  0  0  0  2  0  0  0  0  0  0
  190.5380  176.3330  144.1240 O   0  0  0  0  0  0  0  0  0  0  0  0
  191.5110  176.7500  145.0370 C   0  0  0  0  0  1  0  0  0  0  0  0
  189.0360  176.7390  140.0490 O   0  0  0  0  0  0  0  0  0  0  0  0
  189.6160  174.3230  135.1650 P   0  0  2  0  0  4  0  0  0  0  0  0
  190.3120  175.5190  137.9230 C   0  0  0  0  0  2  0  0  0  0  0  0
  187.4680  178.0470  138.8180 C   0  0  0  0  0  2  0  0  0  0  0  0
  186.3830  177.3820  135.2390 C   0  0  0  0  0  1  0  0  0  0  0  0
  190.8580  175.5290  135.4820 N   0  0  0  0  0  2  0  0  0  0  0  0
  186.8990  177.0500  136.6250 C   0  0  2  0  0  0  0  0  0  0  0  0
  188.1570  174.8650  136.1010 C   0  0  0  0  0  2  0  0  0  0  0  0
  188.2690  176.3470  136.5010 C   0  0  2  0  0  3  0  0  0  0  0  0
  191.3840  175.3570  136.8370 C   0  0  1  0  0  3  0  0  0  0  0  0
  189.3030  176.6390  137.6290 C   0  0  1  0  0  3  0  0  0  0  0  0
  185.9750  176.2180  137.2640 O   0  0  0  0  0  1  0  0  0  0  0  0
  187.0260  178.3520  137.4020 C   0  0  0  0  0  2  0  0  0  0  0  0
  187.9770  174.7750  134.7720 O   0  0  0  0  0  0  0  0  0  0  0  0
  188.8790  177.4660  138.8650 C   0  0  2  0  0  3  0  0  0  0  0  0
  189.9000  172.9020  135.5990 O   0  0  0  0  0  0  0  0  0  0  0  0
  192.4990  176.3610  137.0870 C   0  0  0  0  0  2  0  0  0  0  0  0
  193.4280  175.8840  138.1900 C   0  0  0  0  0  2  0  0  0  0  0  0
  193.4980  176.8380  139.2040 O   0  0  0  0  0  1  0  0  0  0  0  0
  1 30  1  1  0  0  0
  2  1  1  0  0  0  0
  3 32  1  1  0  0  0
  3  5  1  0  0  0  0
  3  2  1  0  0  0  0
  4  1  1  0  0  0  0
  4  8  1  0  0  0  0
  5  4  1  0  0  0  0
  8  7  2  6  0  0  0
  8  6  1  0  0  0  0
  9  8  1  0  0  0  0
 10  9  1  1  0  0  0
 10 15  1  0  0  0  0
 11 14  2  0  0  0  0
 11 10  1  0  0  0  0
 12 25  1  1  0  0  0
 13 16  1  6  0  0  0
 13 15  1  0  0  0  0
 13 12  1  0  0  0  0
 14 16  1  0  0  0  0
 15 12  1  0  0  0  0
 17 23  1  0  0  0  0
 17 14  1  0  0  0  0
 18 21  2  0  0  0  0
 18 19  1  0  0  0  0
 19 20  2  0  0  0  0
 20 17  1  0  0  0  0
 21 22  1  0  0  0  0
 22 20  1  0  0  0  0
 22 24  1  0  0  0  0
 24 23  2  0  0  0  0
 25 26  1  0  0  0  0
 26 27  1  0  0  0  0
 27 29  1  0  0  0  0
 28 29  1  0  0  0  0
 30 31  1  0  0  0  0
 33 37  1  0  0  0  0
 33 47  2  0  0  0  0
 35 46  1  0  0  0  0
 36 38  1  0  0  0  0
 37 41  1  0  0  0  0
 38 43  1  0  0  0  0
 38 44  1  0  0  0  0
 39 40  1  0  0  0  0
 40 38  1  0  0  0  0
 40 42  1  0  0  0  0
 41 48  1  0  0  0  0
 41 34  1  0  0  0  0
 42 34  1  0  0  0  0
 42 46  1  0  0  0  0
 44 35  1  0  0  0  0
 45 33  1  0  0  0  0
 45 39  1  0  0  0  0
 46 32  1  0  0  0  0
 48 49  1  0  0  0  0
 49 50  1  0  0  0  0
M  END
>  <MODEL>
1

>  <REMARK>
 VINA RESULT:      -7.9      0.000      0.000
  Name = 
  13 active torsions:
  status: ('A' for Active; 'I' for Inactive)
    1  A    between atoms: C_1  and  O_37
    2  A    between atoms: C_2  and  C_40
    3  A    between atoms: C_3  and  N_14
    4  A    between atoms: C_3  and  C_39
    5  A    between atoms: O_4  and  C_29
    6  A    between atoms: O_4  and  C_46
    7  A    between atoms: O_6  and  C_15
    8  A    between atoms: N_14  and  N_48
    9  A    between atoms: C_18  and  C_35
   10  A    between atoms: C_22  and  N_48
   11  A    between atoms: C_26  and  C_35
   12  A    between atoms: N_30  and  P_49
   13  A    between atoms: O_37  and  P_49
                            x       y       z     vdW  Elec       q    Type
                         _______ _______ _______ _____ _____    ______ ____

>  <TORSDO>
F 13

$$$$
=
 OpenBabel11062414263D

 50 56  0  0  1  0  0  0  0  0999 V2000
  181.7400  178.0960  140.2240 C   0  0  1  0  0  3  0  0  0  0  0  0
  181.3080  177.9820  138.7810 C   0  0  0  0  0  2  0  0  0  0  0  0
  182.2080  176.9180  138.2010 C   0  0  2  0  0  3  0  0  0  0  0  0
  183.1330  177.6410  140.3200 N   0  0  0  0  0  0  0  0  0  0  0  0
  183.2630  176.6420  139.2650 C   0  0  0  0  0  2  0  0  0  0  0  0
  183.5610  180.1270  139.3970 O   0  0  0  0  0  1  0  0  0  0  0  0
  185.4290  178.3980  138.8160 O   0  0  0  0  0  0  0  0  0  0  0  0
  184.2920  178.9290  139.9550 P   0  0  2  0  0  0  0  0  0  0  0  0
  185.1280  179.3780  141.3940 O   0  0  0  0  0  0  0  0  0  0  0  0
  185.9920  178.5260  142.0950 C   0  0  2  0  0  3  0  0  0  0  0  0
  185.8130  178.2630  143.4200 C   0  0  0  0  0  3  0  0  0  0  0  0
  188.3110  178.6080  141.4360 C   0  0  2  0  0  3  0  0  0  0  0  0
  188.0890  177.4620  142.3740 N   0  0  2  0  0  0  0  0  0  0  0  0
  186.7630  177.4510  144.2530 C   0  0  0  0  0  0  0  0  0  0  0  0
  187.1410  177.9060  141.3250 C   0  0  1  0  0  3  0  0  0  0  0  0
  187.9410  177.0850  143.7250 C   0  0  0  0  0  2  0  0  0  0  0  0
  186.4240  177.2250  145.7040 C   0  0  1  0  0  3  0  0  0  0  0  0
  189.3230  177.6610  147.8940 C   0  0  0  0  0  3  0  0  0  0  0  0
  188.7890  176.9180  146.8310 C   0  0  0  0  0  3  0  0  0  0  0  0
  187.5490  177.4820  146.6320 C   0  0  0  0  0  0  0  0  0  0  0  0
  188.3810  178.6190  148.2760 C   0  0  0  0  0  3  0  0  0  0  0  0
  187.3250  178.4580  147.4740 N   0  0  0  0  0  0  0  0  0  0  0  0
  185.3890  178.2790  146.1740 C   0  0  0  0  0  3  0  0  0  0  0  0
  186.0360  179.0800  147.3280 C   0  0  0  0  0  3  0  0  0  0  0  0
  189.2230  178.1970  140.3830 N   0  0  0  0  0  2  0  0  0  0  0  0
  188.8340  178.8580  139.2120 N   0  0  0  0  0  2  0  0  0  0  0  0
  189.4190  178.1330  138.0930 C   0  0  0  0  0  2  0  0  0  0  0  0
  190.2290  175.8500  137.9480 N   0  0  0  0  0  1  0  0  0  0  0  0
  189.0520  176.6600  138.1940 C   0  0  0  0  0  2  0  0  0  0  0  0
  181.5550  179.3920  140.7180 O   0  0  0  0  0  0  0  0  0  0  0  0
  180.8610  179.2230  141.9200 C   0  0  0  0  0  1  0  0  0  0  0  0
  182.8330  177.4070  137.0510 O   0  0  0  0  0  0  0  0  0  0  0  0
  185.6710  172.7330  136.6930 P   0  0  2  0  0  4  0  0  0  0  0  0
  184.9850  175.7390  136.5760 C   0  0  0  0  0  2  0  0  0  0  0  0
  181.1040  176.0070  136.1910 C   0  0  0  0  0  2  0  0  0  0  0  0
  181.3560  172.2460  135.7170 C   0  0  0  0  0  1  0  0  0  0  0  0
  185.9320  173.7970  135.3150 N   0  0  0  0  0  2  0  0  0  0  0  0
  181.6630  173.5990  136.3270 C   0  0  2  0  0  0  0  0  0  0  0  0
  184.0000  173.1110  137.2930 C   0  0  0  0  0  2  0  0  0  0  0  0
  183.1810  173.8660  136.2310 C   0  0  2  0  0  3  0  0  0  0  0  0
  186.1650  175.1660  135.7810 C   0  0  1  0  0  3  0  0  0  0  0  0
  183.6130  175.3460  136.0090 C   0  0  1  0  0  3  0  0  0  0  0  0
  181.2480  173.5970  137.6620 O   0  0  0  0  0  1  0  0  0  0  0  0
  180.8770  174.6490  135.5580 C   0  0  0  0  0  2  0  0  0  0  0  0
  184.1850  171.8420  136.8940 O   0  0  0  0  0  0  0  0  0  0  0  0
  182.5510  176.4700  136.0500 C   0  0  2  0  0  3  0  0  0  0  0  0
  186.5980  172.8890  137.8770 O   0  0  0  0  0  0  0  0  0  0  0  0
  186.4510  176.0720  134.5940 C   0  0  0  0  0  2  0  0  0  0  0  0
  186.0730  177.5110  134.9000 C   0  0  0  0  0  2  0  0  0  0  0  0
  187.1460  178.1730  135.4910 O   0  0  0  0  0  1  0  0  0  0  0  0
  1  4  1  0  0  0  0
  1 30  1  6  0  0  0
  2  1  1  0  0  0  0
  3 32  1  6  0  0  0
  3  2  1  0  0  0  0
  3  5  1  0  0  0  0
  5  4  1  0  0  0  0
  6  8  1  0  0  0  0
  8  7  2  6  0  0  0
  8  4  1  0  0  0  0
  8  9  1  0  0  0  0
 10  9  1  1  0  0  0
 10 11  1  0  0  0  0
 11 14  2  0  0  0  0
 12 25  1  6  0  0  0
 12 13  1  0  0  0  0
 13 16  1  1  0  0  0
 14 17  1  0  0  0  0
 15 12  1  0  0  0  0
 15 10  1  0  0  0  0
 15 13  1  0  0  0  0
 16 14  1  0  0  0  0
 17 23  1  0  0  0  0
 17 20  1  0  0  0  0
 18 21  2  0  0  0  0
 19 18  1  0  0  0  0
 20 19  2  0  0  0  0
 20 22  1  0  0  0  0
 22 21  1  0  0  0  0
 23 24  2  0  0  0  0
 24 22  1  0  0  0  0
 26 25  1  0  0  0  0
 27 29  1  0  0  0  0
 27 26  1  0  0  0  0
 28 29  1  0  0  0  0
 30 31  1  0  0  0  0
 33 45  1  0  0  0  0
 33 47  2  0  0  0  0
 36 38  1  0  0  0  0
 37 41  1  0  0  0  0
 37 33  1  0  0  0  0
 38 43  1  0  0  0  0
 40 38  1  0  0  0  0
 40 39  1  0  0  0  0
 41 34  1  0  0  0  0
 42 46  1  0  0  0  0
 42 40  1  0  0  0  0
 42 34  1  0  0  0  0
 44 35  1  0  0  0  0
 44 38  1  0  0  0  0
 45 39  1  0  0  0  0
 46 35  1  0  0  0  0
 46 32  1  0  0  0  0
 48 49  1  0  0  0  0
 48 41  1  0  0  0  0
 49 50  1  0  0  0  0
M  END
>  <MODEL>
2

>  <REMARK>
 VINA RESULT:      -7.7      2.953      7.390
  Name = 
  13 active torsions:
  status: ('A' for Active; 'I' for Inactive)
    1  A    between atoms: C_1  and  O_37
    2  A    between atoms: C_2  and  C_40
    3  A    between atoms: C_3  and  N_14
    4  A    between atoms: C_3  and  C_39
    5  A    between atoms: O_4  and  C_29
    6  A    between atoms: O_4  and  C_46
    7  A    between atoms: O_6  and  C_15
    8  A    between atoms: N_14  and  N_48
    9  A    between atoms: C_18  and  C_35
   10  A    between atoms: C_22  and  N_48
   11  A    between atoms: C_26  and  C_35
   12  A    between atoms: N_30  and  P_49
   13  A    between atoms: O_37  and  P_49
                            x       y       z     vdW  Elec       q    Type
                         _______ _______ _______ _____ _____    ______ ____

>  <TORSDO>
F 13

$$$$
=
 OpenBabel11062414263D

 50 56  0  0  1  0  0  0  0  0999 V2000
  190.7800  178.3510  142.1520 C   0  0  1  0  0  3  0  0  0  0  0  0
  190.7010  178.0600  140.6720 C   0  0  0  0  0  2  0  0  0  0  0  0
  189.2410  178.2350  140.3310 C   0  0  2  0  0  3  0  0  0  0  0  0
  189.4600  178.0890  142.7400 N   0  0  0  0  0  0  0  0  0  0  0  0
  188.5180  178.3850  141.6640 C   0  0  0  0  0  2  0  0  0  0  0  0
  190.1190  176.0360  144.3400 O   0  0  0  0  0  1  0  0  0  0  0  0
  189.6330  175.3880  141.8580 O   0  0  0  0  0  0  0  0  0  0  0  0
  189.2340  176.3860  143.1670 P   0  0  2  0  0  0  0  0  0  0  0  0
  187.5840  176.1090  143.5830 O   0  0  0  0  0  0  0  0  0  0  0  0
  186.8150  176.9870  144.3580 C   0  0  2  0  0  3  0  0  0  0  0  0
  185.8560  177.7790  143.7980 C   0  0  0  0  0  3  0  0  0  0  0  0
  187.9540  178.0240  146.2150 C   0  0  2  0  0  3  0  0  0  0  0  0
  186.4850  178.3060  146.2970 N   0  0  2  0  0  0  0  0  0  0  0  0
  185.0760  178.8170  144.5530 C   0  0  0  0  0  0  0  0  0  0  0  0
  187.0870  177.0290  145.8480 C   0  0  1  0  0  3  0  0  0  0  0  0
  185.4340  179.1110  145.8120 C   0  0  0  0  0  2  0  0  0  0  0  0
  184.0310  179.6050  143.8050 C   0  0  1  0  0  3  0  0  0  0  0  0
  183.7360  178.5560  140.3120 C   0  0  0  0  0  3  0  0  0  0  0  0
  184.5950  179.1000  141.2780 C   0  0  0  0  0  3  0  0  0  0  0  0
  183.8160  179.1480  142.4120 C   0  0  0  0  0  0  0  0  0  0  0  0
  182.4970  178.3160  140.9110 C   0  0  0  0  0  3  0  0  0  0  0  0
  182.6090  178.6990  142.1860 N   0  0  0  0  0  0  0  0  0  0  0  0
  182.6350  179.3550  144.4310 C   0  0  0  0  0  3  0  0  0  0  0  0
  181.7390  178.7390  143.3310 C   0  0  0  0  0  3  0  0  0  0  0  0
  188.4660  177.7530  147.5460 N   0  0  0  0  0  2  0  0  0  0  0  0
  189.3100  176.6390  147.4500 N   0  0  0  0  0  2  0  0  0  0  0  0
  190.6760  177.1210  147.5910 C   0  0  0  0  0  2  0  0  0  0  0  0
  192.8090  176.1410  148.2040 N   0  0  0  0  0  1  0  0  0  0  0  0
  191.6470  175.9750  147.3540 C   0  0  0  0  0  2  0  0  0  0  0  0
  191.8030  177.6220  142.7680 O   0  0  0  0  0  0  0  0  0  0  0  0
  192.0860  178.3230  143.9440 C   0  0  0  0  0  1  0  0  0  0  0  0
  188.7700  177.0920  139.6790 O   0  0  0  0  0  0  0  0  0  0  0  0
  188.8520  173.6010  135.4560 P   0  0  2  0  0  4  0  0  0  0  0  0
  189.8280  175.4300  137.7410 C   0  0  0  0  0  2  0  0  0  0  0  0
  186.9950  178.0410  138.4010 C   0  0  0  0  0  2  0  0  0  0  0  0
  185.5020  176.5250  135.2530 C   0  0  0  0  0  1  0  0  0  0  0  0
  190.0600  174.8730  135.3130 N   0  0  0  0  0  2  0  0  0  0  0  0
  186.2050  176.5410  136.5960 C   0  0  2  0  0  0  0  0  0  0  0  0
  187.4970  174.3200  136.4280 C   0  0  0  0  0  2  0  0  0  0  0  0
  187.5820  175.8570  136.4550 C   0  0  2  0  0  3  0  0  0  0  0  0
  190.7610  175.0380  136.5880 C   0  0  1  0  0  3  0  0  0  0  0  0
  188.7340  176.4280  137.3350 C   0  0  1  0  0  3  0  0  0  0  0  0
  185.4130  175.8660  137.5290 O   0  0  0  0  0  1  0  0  0  0  0  0
  186.3610  177.9920  137.0250 C   0  0  0  0  0  2  0  0  0  0  0  0
  187.1550  173.9150  135.1930 O   0  0  0  0  0  0  0  0  0  0  0  0
  188.4280  177.5150  138.3910 C   0  0  2  0  0  3  0  0  0  0  0  0
  189.2610  172.3300  136.1640 O   0  0  0  0  0  0  0  0  0  0  0  0
  191.8470  176.0940  136.4460 C   0  0  0  0  0  2  0  0  0  0  0  0
  192.6240  176.2580  137.7400 C   0  0  0  0  0  2  0  0  0  0  0  0
  193.8160  176.9370  137.5000 O   0  0  0  0  0  1  0  0  0  0  0  0
  1  4  1  0  0  0  0
  1 30  1  1  0  0  0
  2  1  1  0  0  0  0
  3 32  1  1  0  0  0
  3  2  1  0  0  0  0
  3  5  1  0  0  0  0
  4  8  1  0  0  0  0
  5  4  1  0  0  0  0
  8  7  2  6  0  0  0
  8  9  1  0  0  0  0
  8  6  1  0  0  0  0
 10  9  1  6  0  0  0
 10 15  1  0  0  0  0
 11 10  1  0  0  0  0
 11 14  2  0  0  0  0
 12 13  1  0  0  0  0
 12 25  1  1  0  0  0
 13 16  1  6  0  0  0
 14 16  1  0  0  0  0
 15 12  1  0  0  0  0
 15 13  1  0  0  0  0
 17 23  1  0  0  0  0
 17 14  1  0  0  0  0
 18 21  2  0  0  0  0
 18 19  1  0  0  0  0
 19 20  2  0  0  0  0
 20 17  1  0  0  0  0
 21 22  1  0  0  0  0
 22 20  1  0  0  0  0
 22 24  1  0  0  0  0
 24 23  2  0  0  0  0
 26 25  1  0  0  0  0
 26 27  1  0  0  0  0
 29 27  1  0  0  0  0
 29 28  1  0  0  0  0
 30 31  1  0  0  0  0
 33 47  2  0  0  0  0
 36 38  1  0  0  0  0
 37 33  1  0  0  0  0
 37 41  1  0  0  0  0
 38 44  1  0  0  0  0
 38 43  1  0  0  0  0
 39 40  1  0  0  0  0
 40 38  1  0  0  0  0
 40 42  1  0  0  0  0
 41 34  1  0  0  0  0
 42 34  1  0  0  0  0
 42 46  1  0  0  0  0
 44 35  1  0  0  0  0
 45 33  1  0  0  0  0
 45 39  1  0  0  0  0
 46 35  1  0  0  0  0
 46 32  1  0  0  0  0
 48 41  1  0  0  0  0
 48 49  1  0  0  0  0
 50 49  1  0  0  0  0
M  END
>  <MODEL>
3

>  <REMARK>
 VINA RESULT:      -7.1      1.577      2.602
  Name = 
  13 active torsions:
  status: ('A' for Active; 'I' for Inactive)
    1  A    between atoms: C_1  and  O_37
    2  A    between atoms: C_2  and  C_40
    3  A    between atoms: C_3  and  N_14
    4  A    between atoms: C_3  and  C_39
    5  A    between atoms: O_4  and  C_29
    6  A    between atoms: O_4  and  C_46
    7  A    between atoms: O_6  and  C_15
    8  A    between atoms: N_14  and  N_48
    9  A    between atoms: C_18  and  C_35
   10  A    between atoms: C_22  and  N_48
   11  A    between atoms: C_26  and  C_35
   12  A    between atoms: N_30  and  P_49
   13  A    between atoms: O_37  and  P_49
                            x       y       z     vdW  Elec       q    Type
                         _______ _______ _______ _____ _____    ______ ____

>  <TORSDO>
F 13

$$$$
=
 OpenBabel11062414263D

 50 56  0  0  1  0  0  0  0  0999 V2000
  187.2240  175.8150  135.4510 C   0  0  1  0  0  3  0  0  0  0  0  0
  186.2640  175.0310  136.3140 C   0  0  0  0  0  2  0  0  0  0  0  0
  185.0600  175.9320  136.4540 C   0  0  2  0  0  3  0  0  0  0  0  0
  186.9130  177.2420  135.6030 N   0  0  0  0  0  0  0  0  0  0  0  0
  185.4780  177.2760  135.8670 C   0  0  0  0  0  2  0  0  0  0  0  0
  186.8520  179.0720  137.5680 O   0  0  0  0  0  1  0  0  0  0  0  0
  189.2190  178.6020  136.5710 O   0  0  0  0  0  0  0  0  0  0  0  0
  187.7120  177.9640  137.0090 P   0  0  2  0  0  0  0  0  0  0  0  0
  187.9590  176.7570  138.2140 O   0  0  0  0  0  0  0  0  0  0  0  0
  188.9880  176.7990  139.1640 C   0  0  2  0  0  3  0  0  0  0  0  0
  188.8760  177.5400  140.3040 C   0  0  0  0  0  3  0  0  0  0  0  0
  191.2330  176.7180  138.2870 C   0  0  2  0  0  3  0  0  0  0  0  0
  191.2640  176.5720  139.7770 N   0  0  2  0  0  0  0  0  0  0  0  0
  189.9810  177.7160  141.3050 C   0  0  0  0  0  0  0  0  0  0  0  0
  190.2370  175.9900  138.8810 C   0  0  1  0  0  3  0  0  0  0  0  0
  191.2070  177.2570  141.0080 C   0  0  0  0  0  2  0  0  0  0  0  0
  189.7060  178.5480  142.5310 C   0  0  1  0  0  3  0  0  0  0  0  0
  187.0520  177.1230  144.6100 C   0  0  0  0  0  3  0  0  0  0  0  0
  187.3630  177.6520  143.3480 C   0  0  0  0  0  3  0  0  0  0  0  0
  188.7020  177.9570  143.4460 C   0  0  0  0  0  0  0  0  0  0  0  0
  188.2100  177.1460  145.3910 C   0  0  0  0  0  3  0  0  0  0  0  0
  189.1760  177.6650  144.6290 N   0  0  0  0  0  0  0  0  0  0  0  0
  190.9640  178.5870  143.4360 C   0  0  0  0  0  3  0  0  0  0  0  0
  190.5700  177.9760  144.8010 C   0  0  0  0  0  3  0  0  0  0  0  0
  192.2050  175.8160  137.6950 N   0  0  0  0  0  2  0  0  0  0  0  0
  192.5580  176.3440  136.4470 N   0  0  0  0  0  2  0  0  0  0  0  0
  193.9100  175.8880  136.1550 C   0  0  0  0  0  2  0  0  0  0  0  0
  195.8580  175.0310  137.3200 N   0  0  0  0  0  1  0  0  0  0  0  0
  194.4090  175.0120  137.2930 C   0  0  0  0  0  2  0  0  0  0  0  0
  188.5560  175.5130  135.7550 O   0  0  0  0  0  0  0  0  0  0  0  0
  188.6580  174.1290  135.5890 C   0  0  0  0  0  1  0  0  0  0  0  0
  184.7520  176.0980  137.8060 O   0  0  0  0  0  0  0  0  0  0  0  0
  181.2160  180.2430  138.3950 P   0  0  2  0  0  4  0  0  0  0  0  0
  183.4360  178.1970  139.0320 C   0  0  0  0  0  2  0  0  0  0  0  0
  182.9000  175.1530  136.6380 C   0  0  0  0  0  2  0  0  0  0  0  0
  179.6720  176.9730  135.8000 C   0  0  0  0  0  1  0  0  0  0  0  0
  181.2740  179.1900  139.8040 N   0  0  0  0  0  2  0  0  0  0  0  0
  181.1490  176.8210  136.1080 C   0  0  2  0  0  0  0  0  0  0  0  0
  181.6500  179.1910  136.9790 C   0  0  0  0  0  2  0  0  0  0  0  0
  181.5060  177.6990  137.3270 C   0  0  2  0  0  3  0  0  0  0  0  0
  182.6670  178.9050  140.1550 C   0  0  1  0  0  3  0  0  0  0  0  0
  182.6040  177.1460  138.2830 C   0  0  1  0  0  3  0  0  0  0  0  0
  181.8860  177.2120  134.9870 O   0  0  0  0  0  1  0  0  0  0  0  0
  181.4170  175.3520  136.4000 C   0  0  0  0  0  2  0  0  0  0  0  0
  180.4310  179.7530  136.9150 O   0  0  0  0  0  0  0  0  0  0  0  0
  183.3770  175.8610  137.9040 C   0  0  2  0  0  3  0  0  0  0  0  0
  182.1690  181.4170  138.3650 O   0  0  0  0  0  0  0  0  0  0  0  0
  182.7150  178.0450  141.4090 C   0  0  0  0  0  2  0  0  0  0  0  0
  183.6290  178.6560  142.4560 C   0  0  0  0  0  2  0  0  0  0  0  0
  182.8830  179.0880  143.5500 O   0  0  0  0  0  1  0  0  0  0  0  0
  1  4  1  0  0  0  0
  1 30  1  1  0  0  0
  1  2  1  0  0  0  0
  2  3  1  0  0  0  0
  3 32  1  1  0  0  0
  4  5  1  0  0  0  0
  4  8  1  0  0  0  0
  5  3  1  0  0  0  0
  8  7  2  6  0  0  0
  8  6  1  0  0  0  0
  8  9  1  0  0  0  0
 10  9  1  6  0  0  0
 10 11  1  0  0  0  0
 11 14  2  0  0  0  0
 12 25  1  6  0  0  0
 12 15  1  0  0  0  0
 12 13  1  0  0  0  0
 13 16  1  1  0  0  0
 14 17  1  0  0  0  0
 15 10  1  0  0  0  0
 15 13  1  0  0  0  0
 16 14  1  0  0  0  0
 17 23  1  0  0  0  0
 17 20  1  0  0  0  0
 18 21  2  0  0  0  0
 19 20  2  0  0  0  0
 19 18  1  0  0  0  0
 20 22  1  0  0  0  0
 22 24  1  0  0  0  0
 22 21  1  0  0  0  0
 23 24  2  0  0  0  0
 26 25  1  0  0  0  0
 27 26  1  0  0  0  0
 27 29  1  0  0  0  0
 29 28  1  0  0  0  0
 31 30  1  0  0  0  0
 32 46  1  0  0  0  0
 33 37  1  0  0  0  0
 34 41  1  0  0  0  0
 35 46  1  0  0  0  0
 36 38  1  0  0  0  0
 37 41  1  0  0  0  0
 38 44  1  0  0  0  0
 38 40  1  0  0  0  0
 39 40  1  0  0  0  0
 40 42  1  0  0  0  0
 41 48  1  0  0  0  0
 42 34  1  0  0  0  0
 43 38  1  0  0  0  0
 44 35  1  0  0  0  0
 45 39  1  0  0  0  0
 45 33  1  0  0  0  0
 46 42  1  0  0  0  0
 47 33  2  0  0  0  0
 48 49  1  0  0  0  0
 49 50  1  0  0  0  0
M  END
>  <MODEL>
4

>  <REMARK>
 VINA RESULT:      -6.9      3.029      8.856
  Name = 
  13 active torsions:
  status: ('A' for Active; 'I' for Inactive)
    1  A    between atoms: C_1  and  O_37
    2  A    between atoms: C_2  and  C_40
    3  A    between atoms: C_3  and  N_14
    4  A    between atoms: C_3  and  C_39
    5  A    between atoms: O_4  and  C_29
    6  A    between atoms: O_4  and  C_46
    7  A    between atoms: O_6  and  C_15
    8  A    between atoms: N_14  and  N_48
    9  A    between atoms: C_18  and  C_35
   10  A    between atoms: C_22  and  N_48
   11  A    between atoms: C_26  and  C_35
   12  A    between atoms: N_30  and  P_49
   13  A    between atoms: O_37  and  P_49
                            x       y       z     vdW  Elec       q    Type
                         _______ _______ _______ _____ _____    ______ ____

>  <TORSDO>
F 13

$$$$
=
 OpenBabel11062414263D

 50 56  0  0  1  0  0  0  0  0999 V2000
  191.2650  177.1040  143.4290 C   0  0  1  0  0  3  0  0  0  0  0  0
  191.4710  176.3680  142.1260 C   0  0  0  0  0  2  0  0  0  0  0  0
  191.0230  177.3450  141.0660 C   0  0  2  0  0  3  0  0  0  0  0  0
  190.2260  178.1210  143.2190 N   0  0  0  0  0  0  0  0  0  0  0  0
  190.3650  178.4970  141.8150 C   0  0  0  0  0  2  0  0  0  0  0  0
  188.2200  177.4730  144.8820 O   0  0  0  0  0  1  0  0  0  0  0  0
  188.5080  175.8850  142.8300 O   0  0  0  0  0  0  0  0  0  0  0  0
  188.5910  177.4710  143.4190 P   0  0  2  0  0  0  0  0  0  0  0  0
  187.4730  178.4410  142.5360 O   0  0  0  0  0  0  0  0  0  0  0  0
  186.0820  178.2830  142.5960 C   0  0  2  0  0  3  0  0  0  0  0  0
  185.3110  178.3260  141.4720 C   0  0  0  0  0  3  0  0  0  0  0  0
  185.0010  179.2170  144.5400 C   0  0  2  0  0  3  0  0  0  0  0  0
  184.0270  178.3840  143.7660 N   0  0  2  0  0  0  0  0  0  0  0  0
  183.8100  178.2750  141.4790 C   0  0  0  0  0  0  0  0  0  0  0  0
  185.4600  178.0640  143.9600 C   0  0  1  0  0  3  0  0  0  0  0  0
  183.1630  178.3500  142.6520 C   0  0  0  0  0  2  0  0  0  0  0  0
  183.0900  178.3100  140.1560 C   0  0  1  0  0  3  0  0  0  0  0  0
  179.7450  179.7690  140.4320 C   0  0  0  0  0  3  0  0  0  0  0  0
  180.5790  178.7220  140.8510 C   0  0  0  0  0  3  0  0  0  0  0  0
  181.7680  178.9780  140.2080 C   0  0  0  0  0  0  0  0  0  0  0  0
  180.4710  180.5860  139.5620 C   0  0  0  0  0  3  0  0  0  0  0  0
  181.6910  180.0510  139.4650 N   0  0  0  0  0  0  0  0  0  0  0  0
  183.8570  179.2210  139.1620 C   0  0  0  0  0  3  0  0  0  0  0  0
  182.9010  180.3640  138.7510 C   0  0  0  0  0  3  0  0  0  0  0  0
  184.8000  178.9970  145.9610 N   0  0  0  0  0  2  0  0  0  0  0  0
  185.9720  178.4170  146.4630 N   0  0  0  0  0  2  0  0  0  0  0  0
  186.3490  179.1690  147.6510 C   0  0  0  0  0  2  0  0  0  0  0  0
  187.6820  177.1840  148.0640 N   0  0  0  0  0  1  0  0  0  0  0  0
  187.6590  178.6270  148.2020 C   0  0  0  0  0  2  0  0  0  0  0  0
  190.9620  176.2260  144.4760 O   0  0  0  0  0  0  0  0  0  0  0  0
  191.6750  176.7170  145.5740 C   0  0  0  0  0  1  0  0  0  0  0  0
  190.0780  176.7370  140.2350 O   0  0  0  0  0  0  0  0  0  0  0  0
  189.8700  174.5980  135.1950 P   0  0  2  0  0  4  0  0  0  0  0  0
  190.9570  175.4470  137.9550 C   0  0  0  0  0  2  0  0  0  0  0  0
  188.7210  178.4020  139.2000 C   0  0  0  0  0  2  0  0  0  0  0  0
  187.3060  178.2040  135.6800 C   0  0  0  0  0  1  0  0  0  0  0  0
  191.3400  175.5210  135.4840 N   0  0  0  0  0  2  0  0  0  0  0  0
  187.8330  177.6850  137.0030 C   0  0  2  0  0  0  0  0  0  0  0  0
  188.6060  175.3420  136.2650 C   0  0  0  0  0  2  0  0  0  0  0  0
  189.0290  176.7440  136.7380 C   0  0  2  0  0  3  0  0  0  0  0  0
  191.9070  175.1590  136.7850 C   0  0  1  0  0  3  0  0  0  0  0  0
  190.1690  176.7560  137.8000 C   0  0  1  0  0  3  0  0  0  0  0  0
  186.8070  177.0020  137.6620 O   0  0  0  0  0  1  0  0  0  0  0  0
  188.2590  178.8820  137.8390 C   0  0  0  0  0  2  0  0  0  0  0  0
  188.3290  175.3800  134.9510 O   0  0  0  0  0  0  0  0  0  0  0  0
  189.9920  177.5610  139.1080 C   0  0  2  0  0  3  0  0  0  0  0  0
  189.8990  173.1230  135.5260 O   0  0  0  0  0  0  0  0  0  0  0  0
  193.2100  175.9130  137.0060 C   0  0  0  0  0  2  0  0  0  0  0  0
  194.2150  175.0580  137.7580 C   0  0  0  0  0  2  0  0  0  0  0  0
  195.4560  175.1120  137.1270 O   0  0  0  0  0  1  0  0  0  0  0  0
  1 30  1  1  0  0  0
  2  1  1  0  0  0  0
  3 32  1  6  0  0  0
  3  5  1  0  0  0  0
  3  2  1  0  0  0  0
  4  8  1  0  0  0  0
  4  1  1  0  0  0  0
  5  4  1  0  0  0  0
  8  7  2  6  0  0  0
  8  6  1  0  0  0  0
  9  8  1  0  0  0  0
 10  9  1  1  0  0  0
 10 15  1  0  0  0  0
 11 14  2  0  0  0  0
 11 10  1  0  0  0  0
 12 25  1  1  0  0  0
 13 16  1  6  0  0  0
 13 15  1  0  0  0  0
 13 12  1  0  0  0  0
 14 16  1  0  0  0  0
 15 12  1  0  0  0  0
 17 20  1  0  0  0  0
 17 14  1  0  0  0  0
 18 19  1  0  0  0  0
 20 19  2  0  0  0  0
 21 18  2  0  0  0  0
 22 21  1  0  0  0  0
 22 20  1  0  0  0  0
 23 17  1  0  0  0  0
 24 23  2  0  0  0  0
 24 22  1  0  0  0  0
 25 26  1  0  0  0  0
 26 27  1  0  0  0  0
 27 29  1  0  0  0  0
 28 29  1  0  0  0  0
 30 31  1  0  0  0  0
 33 37  1  0  0  0  0
 33 47  2  0  0  0  0
 36 38  1  0  0  0  0
 37 41  1  0  0  0  0
 38 43  1  0  0  0  0
 38 44  1  0  0  0  0
 39 40  1  0  0  0  0
 40 38  1  0  0  0  0
 40 42  1  0  0  0  0
 41 48  1  0  0  0  0
 41 34  1  0  0  0  0
 42 34  1  0  0  0  0
 42 46  1  0  0  0  0
 44 35  1  0  0  0  0
 45 33  1  0  0  0  0
 45 39  1  0  0  0  0
 46 35  1  0  0  0  0
 46 32  1  0  0  0  0
 48 49  1  0  0  0  0
 50 49  1  0  0  0  0
M  END
>  <MODEL>
5

>  <REMARK>
 VINA RESULT:      -6.9      1.234      1.682
  Name = 
  13 active torsions:
  status: ('A' for Active; 'I' for Inactive)
    1  A    between atoms: C_1  and  O_37
    2  A    between atoms: C_2  and  C_40
    3  A    between atoms: C_3  and  N_14
    4  A    between atoms: C_3  and  C_39
    5  A    between atoms: O_4  and  C_29
    6  A    between atoms: O_4  and  C_46
    7  A    between atoms: O_6  and  C_15
    8  A    between atoms: N_14  and  N_48
    9  A    between atoms: C_18  and  C_35
   10  A    between atoms: C_22  and  N_48
   11  A    between atoms: C_26  and  C_35
   12  A    between atoms: N_30  and  P_49
   13  A    between atoms: O_37  and  P_49
                            x       y       z     vdW  Elec       q    Type
                         _______ _______ _______ _____ _____    ______ ____

>  <TORSDO>
F 13

$$$$
=
 OpenBabel11062414263D

 50 56  0  0  1  0  0  0  0  0999 V2000
  191.5510  177.5040  139.5420 C   0  0  1  0  0  3  0  0  0  0  0  0
  190.9710  176.5260  138.5480 C   0  0  0  0  0  2  0  0  0  0  0  0
  189.6460  177.1310  138.1530 C   0  0  2  0  0  3  0  0  0  0  0  0
  190.4410  178.2470  140.1520 N   0  0  0  0  0  0  0  0  0  0  0  0
  189.4210  178.2970  139.1090 C   0  0  0  0  0  2  0  0  0  0  0  0
  190.0520  178.1280  142.8060 O   0  0  0  0  0  1  0  0  0  0  0  0
  190.3420  175.8160  141.6300 O   0  0  0  0  0  0  0  0  0  0  0  0
  189.7280  177.3920  141.5280 P   0  0  2  0  0  0  0  0  0  0  0  0
  188.0190  177.3010  141.3290 O   0  0  0  0  0  0  0  0  0  0  0  0
  187.0980  177.9540  142.1590 C   0  0  1  0  0  3  0  0  0  0  0  0
  186.9210  177.5810  143.4590 C   0  0  0  0  0  3  0  0  0  0  0  0
  185.0720  178.7130  141.0910 C   0  0  2  0  0  3  0  0  0  0  0  0
  185.1520  179.2640  142.4810 N   0  0  2  0  0  0  0  0  0  0  0  0
  185.8760  178.1640  144.3660 C   0  0  0  0  0  0  0  0  0  0  0  0
  186.3010  179.0960  141.5600 C   0  0  1  0  0  3  0  0  0  0  0  0
  184.9510  178.9870  143.8490 C   0  0  0  0  0  2  0  0  0  0  0  0
  185.8100  177.6670  145.7880 C   0  0  1  0  0  3  0  0  0  0  0  0
  189.1290  177.3090  147.2880 C   0  0  0  0  0  3  0  0  0  0  0  0
  188.2820  176.8740  146.2580 C   0  0  0  0  0  3  0  0  0  0  0  0
  187.1280  177.5970  146.4610 C   0  0  0  0  0  0  0  0  0  0  0  0
  188.4410  178.2560  148.0510 C   0  0  0  0  0  3  0  0  0  0  0  0
  187.2310  178.3850  147.4990 N   0  0  0  0  0  0  0  0  0  0  0  0
  185.0650  178.6980  146.6730 C   0  0  0  0  0  3  0  0  0  0  0  0
  186.0490  179.1570  147.7750 C   0  0  0  0  0  3  0  0  0  0  0  0
  184.5560  179.7340  140.1970 N   0  0  0  0  0  2  0  0  0  0  0  0
  183.5050  179.1610  139.4720 N   0  0  0  0  0  2  0  0  0  0  0  0
  182.6840  178.4190  140.4170 C   0  0  0  0  0  2  0  0  0  0  0  0
  182.4210  177.2370  138.3140 N   0  0  0  0  0  1  0  0  0  0  0  0
  182.0230  177.2470  139.7080 C   0  0  0  0  0  2  0  0  0  0  0  0
  192.3590  176.8610  140.4870 O   0  0  0  0  0  0  0  0  0  0  0  0
  193.6670  177.2220  140.1460 C   0  0  0  0  0  1  0  0  0  0  0  0
  188.6290  176.1890  138.3300 O   0  0  0  0  0  0  0  0  0  0  0  0
  187.1660  171.7160  135.5230 P   0  0  2  0  0  4  0  0  0  0  0  0
  188.9060  173.9790  136.6940 C   0  0  0  0  0  2  0  0  0  0  0  0
  186.4980  176.9350  137.5610 C   0  0  0  0  0  2  0  0  0  0  0  0
  183.9570  174.7950  135.7190 C   0  0  0  0  0  1  0  0  0  0  0  0
  188.2250  172.7820  134.6060 N   0  0  0  0  0  2  0  0  0  0  0  0
  185.1080  175.0960  136.6580 C   0  0  2  0  0  0  0  0  0  0  0  0
  186.2620  172.7950  136.6710 C   0  0  0  0  0  2  0  0  0  0  0  0
  186.3400  174.2680  136.2330 C   0  0  2  0  0  3  0  0  0  0  0  0
  189.3480  173.2080  135.4440 C   0  0  1  0  0  3  0  0  0  0  0  0
  187.7310  174.9360  136.4430 C   0  0  1  0  0  3  0  0  0  0  0  0
  184.7230  174.7720  137.9620 O   0  0  0  0  0  1  0  0  0  0  0  0
  185.4010  176.5860  136.5760 C   0  0  0  0  0  2  0  0  0  0  0  0
  185.4910  172.1130  135.8080 O   0  0  0  0  0  0  0  0  0  0  0  0
  187.8300  176.2880  137.1870 C   0  0  2  0  0  3  0  0  0  0  0  0
  187.8180  170.6440  136.3650 O   0  0  0  0  0  0  0  0  0  0  0  0
  190.2950  174.0780  134.6320 C   0  0  0  0  0  2  0  0  0  0  0  0
  191.5820  174.3450  135.3930 C   0  0  0  0  0  2  0  0  0  0  0  0
  192.2670  175.4130  134.8170 O   0  0  0  0  0  1  0  0  0  0  0  0
  1  4  1  0  0  0  0
  1 30  1  1  0  0  0
  2  1  1  0  0  0  0
  3 32  1  1  0  0  0
  3  2  1  0  0  0  0
  3  5  1  0  0  0  0
  4  8  1  0  0  0  0
  5  4  1  0  0  0  0
  8  7  2  1  0  0  0
  8  6  1  0  0  0  0
  9  8  1  0  0  0  0
 10  9  1  1  0  0  0
 10 11  1  0  0  0  0
 11 14  2  0  0  0  0
 12 25  1  6  0  0  0
 12 15  1  0  0  0  0
 12 13  1  0  0  0  0
 13 16  1  1  0  0  0
 14 17  1  0  0  0  0
 15 10  1  0  0  0  0
 15 13  1  0  0  0  0
 16 14  1  0  0  0  0
 17 20  1  0  0  0  0
 17 23  1  0  0  0  0
 18 21  2  0  0  0  0
 19 20  2  0  0  0  0
 19 18  1  0  0  0  0
 20 22  1  0  0  0  0
 22 24  1  0  0  0  0
 22 21  1  0  0  0  0
 23 24  2  0  0  0  0
 26 25  1  0  0  0  0
 26 27  1  0  0  0  0
 28 29  1  0  0  0  0
 29 27  1  0  0  0  0
 31 30  1  0  0  0  0
 33 45  1  0  0  0  0
 33 47  2  0  0  0  0
 36 38  1  0  0  0  0
 37 41  1  0  0  0  0
 37 33  1  0  0  0  0
 38 43  1  0  0  0  0
 40 42  1  0  0  0  0
 40 38  1  0  0  0  0
 40 39  1  0  0  0  0
 41 34  1  0  0  0  0
 42 34  1  0  0  0  0
 42 46  1  0  0  0  0
 44 38  1  0  0  0  0
 44 35  1  0  0  0  0
 45 39  1  0  0  0  0
 46 35  1  0  0  0  0
 46 32  1  0  0  0  0
 48 49  1  0  0  0  0
 48 41  1  0  0  0  0
 50 49  1  0  0  0  0
M  END
>  <MODEL>
6

>  <REMARK>
 VINA RESULT:      -6.8      2.216      5.422
  Name = 
  13 active torsions:
  status: ('A' for Active; 'I' for Inactive)
    1  A    between atoms: C_1  and  O_37
    2  A    between atoms: C_2  and  C_40
    3  A    between atoms: C_3  and  N_14
    4  A    between atoms: C_3  and  C_39
    5  A    between atoms: O_4  and  C_29
    6  A    between atoms: O_4  and  C_46
    7  A    between atoms: O_6  and  C_15
    8  A    between atoms: N_14  and  N_48
    9  A    between atoms: C_18  and  C_35
   10  A    between atoms: C_22  and  N_48
   11  A    between atoms: C_26  and  C_35
   12  A    between atoms: N_30  and  P_49
   13  A    between atoms: O_37  and  P_49
                            x       y       z     vdW  Elec       q    Type
                         _______ _______ _______ _____ _____    ______ ____

>  <TORSDO>
F 13

$$$$
=
 OpenBabel11062414263D

 50 56  0  0  1  0  0  0  0  0999 V2000
  186.2370  176.8820  135.3100 C   0  0  1  0  0  3  0  0  0  0  0  0
  185.0220  177.1070  136.1790 C   0  0  0  0  0  2  0  0  0  0  0  0
  185.4840  178.0930  137.2240 C   0  0  2  0  0  3  0  0  0  0  0  0
  187.4320  177.1780  136.1100 N   0  0  0  0  0  0  0  0  0  0  0  0
  186.9940  178.2050  137.0510 C   0  0  0  0  0  2  0  0  0  0  0  0
  189.0390  175.0380  136.3300 O   0  0  0  0  0  0  0  0  0  0  0  0
  186.6640  174.7440  137.3720 O   0  0  0  0  0  1  0  0  0  0  0  0
  187.9620  175.7910  137.0740 P   0  0  2  0  0  0  0  0  0  0  0  0
  188.5790  176.3410  138.5860 O   0  0  0  0  0  0  0  0  0  0  0  0
  189.9140  176.7110  138.7990 C   0  0  2  0  0  3  0  0  0  0  0  0
  190.9170  176.2570  137.9940 C   0  0  0  0  0  3  0  0  0  0  0  0
  190.5780  176.9740  141.1030 C   0  0  2  0  0  3  0  0  0  0  0  0
  191.6620  177.4760  140.2010 N   0  0  2  0  0  0  0  0  0  0  0  0
  192.3750  176.5240  138.2330 C   0  0  0  0  0  0  0  0  0  0  0  0
  190.2080  177.6360  139.9630 C   0  0  1  0  0  3  0  0  0  0  0  0
  192.7490  177.1070  139.3820 C   0  0  0  0  0  2  0  0  0  0  0  0
  193.3710  175.9750  137.2440 C   0  0  1  0  0  3  0  0  0  0  0  0
  195.4920  173.3760  138.7080 C   0  0  0  0  0  3  0  0  0  0  0  0
  195.1120  174.7250  138.7810 C   0  0  0  0  0  3  0  0  0  0  0  0
  194.1860  174.8560  137.7710 C   0  0  0  0  0  0  0  0  0  0  0  0
  194.7840  172.7780  137.6620 C   0  0  0  0  0  3  0  0  0  0  0  0
  194.0100  173.7290  137.1310 N   0  0  0  0  0  0  0  0  0  0  0  0
  192.6260  175.2880  136.0710 C   0  0  0  0  0  3  0  0  0  0  0  0
  193.0650  173.8050  136.0490 C   0  0  0  0  0  3  0  0  0  0  0  0
  190.4490  177.8650  142.2430 N   0  0  0  0  0  2  0  0  0  0  0  0
  189.1880  177.6410  142.8070 N   0  0  0  0  0  2  0  0  0  0  0  0
  189.3780  176.7530  143.9450 C   0  0  0  0  0  2  0  0  0  0  0  0
  187.5630  177.7420  145.2170 N   0  0  0  0  0  1  0  0  0  0  0  0
  188.9880  177.4760  145.2260 C   0  0  0  0  0  2  0  0  0  0  0  0
  186.2520  175.5920  134.7670 O   0  0  0  0  0  0  0  0  0  0  0  0
  184.9050  175.2590  134.5950 C   0  0  0  0  0  1  0  0  0  0  0  0
  185.2040  177.5920  138.4980 O   0  0  0  0  0  0  0  0  0  0  0  0
  180.7950  178.7800  141.5270 P   0  0  2  0  0  4  0  0  0  0  0  0
  182.6270  178.4090  139.0730 C   0  0  0  0  0  2  0  0  0  0  0  0
  186.3120  178.5760  140.3660 C   0  0  0  0  0  2  0  0  0  0  0  0
  184.6360  179.6260  143.6100 C   0  0  0  0  0  1  0  0  0  0  0  0
  181.1200  179.9900  140.2920 N   0  0  0  0  0  2  0  0  0  0  0  0
  184.8310  178.8320  142.3340 C   0  0  2  0  0  0  0  0  0  0  0  0
  182.4080  178.0550  141.9400 C   0  0  0  0  0  2  0  0  0  0  0  0
  183.5630  178.9540  141.4620 C   0  0  2  0  0  3  0  0  0  0  0  0
  181.4040  179.3330  139.0140 C   0  0  1  0  0  3  0  0  0  0  0  0
  183.7800  178.9680  139.9200 C   0  0  1  0  0  3  0  0  0  0  0  0
  185.0730  177.4960  142.6660 O   0  0  0  0  0  1  0  0  0  0  0  0
  186.0440  179.3980  141.6110 C   0  0  0  0  0  2  0  0  0  0  0  0
  181.7760  178.6500  142.9650 O   0  0  0  0  0  0  0  0  0  0  0  0
  185.1910  178.7100  139.3400 C   0  0  2  0  0  3  0  0  0  0  0  0
  179.8910  177.6280  141.1510 O   0  0  0  0  0  0  0  0  0  0  0  0
  181.6240  180.3810  137.9340 C   0  0  0  0  0  2  0  0  0  0  0  0
  181.2030  181.7590  138.4150 C   0  0  0  0  0  2  0  0  0  0  0  0
  180.6190  182.4730  137.3700 O   0  0  0  0  0  1  0  0  0  0  0  0
  1 30  1  1  0  0  0
  1  4  1  0  0  0  0
  1  2  1  0  0  0  0
  2  3  1  0  0  0  0
  3 32  1  1  0  0  0
  4  5  1  0  0  0  0
  4  8  1  0  0  0  0
  5  3  1  0  0  0  0
  8  6  2  6  0  0  0
  8  7  1  0  0  0  0
  8  9  1  0  0  0  0
 10  9  1  1  0  0  0
 10 15  1  0  0  0  0
 11 14  2  0  0  0  0
 11 10  1  0  0  0  0
 12 25  1  1  0  0  0
 13 16  1  6  0  0  0
 13 12  1  0  0  0  0
 14 16  1  0  0  0  0
 15 13  1  0  0  0  0
 15 12  1  0  0  0  0
 17 20  1  0  0  0  0
 17 14  1  0  0  0  0
 18 19  1  0  0  0  0
 20 19  2  0  0  0  0
 21 18  2  0  0  0  0
 22 21  1  0  0  0  0
 22 20  1  0  0  0  0
 23 17  1  0  0  0  0
 24 23  2  0  0  0  0
 24 22  1  0  0  0  0
 25 26  1  0  0  0  0
 26 27  1  0  0  0  0
 27 29  1  0  0  0  0
 28 29  1  0  0  0  0
 31 30  1  0  0  0  0
 32 46  1  0  0  0  0
 33 45  1  0  0  0  0
 34 42  1  0  0  0  0
 35 44  1  0  0  0  0
 37 33  1  0  0  0  0
 38 43  1  0  0  0  0
 38 36  1  0  0  0  0
 39 45  1  0  0  0  0
 40 39  1  0  0  0  0
 40 38  1  0  0  0  0
 41 34  1  0  0  0  0
 41 37  1  0  0  0  0
 42 40  1  0  0  0  0
 44 38  1  0  0  0  0
 46 42  1  0  0  0  0
 46 35  1  0  0  0  0
 47 33  2  0  0  0  0
 48 49  1  0  0  0  0
 48 41  1  0  0  0  0
 50 49  1  0  0  0  0
M  END
>  <MODEL>
7

>  <REMARK>
 VINA RESULT:      -6.5      2.874      9.381
  Name = 
  13 active torsions:
  status: ('A' for Active; 'I' for Inactive)
    1  A    between atoms: C_1  and  O_37
    2  A    between atoms: C_2  and  C_40
    3  A    between atoms: C_3  and  N_14
    4  A    between atoms: C_3  and  C_39
    5  A    between atoms: O_4  and  C_29
    6  A    between atoms: O_4  and  C_46
    7  A    between atoms: O_6  and  C_15
    8  A    between atoms: N_14  and  N_48
    9  A    between atoms: C_18  and  C_35
   10  A    between atoms: C_22  and  N_48
   11  A    between atoms: C_26  and  C_35
   12  A    between atoms: N_30  and  P_49
   13  A    between atoms: O_37  and  P_49
                            x       y       z     vdW  Elec       q    Type
                         _______ _______ _______ _____ _____    ______ ____

>  <TORSDO>
F 13

$$$$
=
 OpenBabel11062414263D

 50 56  0  0  1  0  0  0  0  0999 V2000
  184.2220  178.1840  142.9820 C   0  0  1  0  0  3  0  0  0  0  0  0
  182.8600  178.8180  142.8270 C   0  0  0  0  0  2  0  0  0  0  0  0
  182.3030  178.2090  141.5620 C   0  0  2  0  0  3  0  0  0  0  0  0
  184.6830  177.7600  141.6540 N   0  0  0  0  0  0  0  0  0  0  0  0
  183.4570  177.4400  140.9290 C   0  0  0  0  0  2  0  0  0  0  0  0
  185.9450  180.1300  141.7320 O   0  0  0  0  0  1  0  0  0  0  0  0
  184.4100  179.7660  139.6510 O   0  0  0  0  0  0  0  0  0  0  0  0
  185.4800  179.0680  140.7640 P   0  0  2  0  0  0  0  0  0  0  0  0
  186.8320  178.4370  139.9020 O   0  0  0  0  0  0  0  0  0  0  0  0
  188.0080  177.9830  140.5140 C   0  0  2  0  0  3  0  0  0  0  0  0
  188.4020  178.4480  141.7340 C   0  0  0  0  0  3  0  0  0  0  0  0
  189.8470  177.5000  139.0290 C   0  0  2  0  0  3  0  0  0  0  0  0
  190.1670  177.0170  140.4100 N   0  0  2  0  0  0  0  0  0  0  0  0
  189.7030  178.0870  142.3920 C   0  0  0  0  0  0  0  0  0  0  0  0
  188.8330  176.9530  139.7690 C   0  0  1  0  0  3  0  0  0  0  0  0
  190.6150  177.3950  141.6930 C   0  0  0  0  0  2  0  0  0  0  0  0
  189.9950  178.6620  143.7540 C   0  0  1  0  0  3  0  0  0  0  0  0
  187.9860  177.0990  146.3830 C   0  0  0  0  0  3  0  0  0  0  0  0
  187.9430  177.8510  145.1990 C   0  0  0  0  0  3  0  0  0  0  0  0
  189.2690  177.9930  144.8580 C   0  0  0  0  0  0  0  0  0  0  0  0
  189.3240  176.8390  146.6880 C   0  0  0  0  0  3  0  0  0  0  0  0
  190.0540  177.4090  145.7260 N   0  0  0  0  0  0  0  0  0  0  0  0
  191.4700  178.3820  144.1400 C   0  0  0  0  0  3  0  0  0  0  0  0
  191.4570  177.5360  145.4350 C   0  0  0  0  0  3  0  0  0  0  0  0
  190.3170  176.5280  138.0580 N   0  0  0  0  0  2  0  0  0  0  0  0
  189.1890  175.8920  137.5250 N   0  0  0  0  0  2  0  0  0  0  0  0
  189.5450  175.4350  136.1890 C   0  0  0  0  0  2  0  0  0  0  0  0
  191.3360  173.7980  136.2260 N   0  0  0  0  0  1  0  0  0  0  0  0
  191.0480  175.2140  136.1110 C   0  0  0  0  0  2  0  0  0  0  0  0
  185.1220  179.0460  143.6210 O   0  0  0  0  0  0  0  0  0  0  0  0
  184.3500  179.7450  144.5530 C   0  0  0  0  0  1  0  0  0  0  0  0
  181.8950  179.2230  140.6920 O   0  0  0  0  0  0  0  0  0  0  0  0
  181.3710  177.7410  135.4430 P   0  0  2  0  0  4  0  0  0  0  0  0
  181.7700  179.5010  137.9450 C   0  0  0  0  0  2  0  0  0  0  0  0
  180.1970  177.5690  140.9590 C   0  0  0  0  0  2  0  0  0  0  0  0
  178.9320  175.2610  138.2200 C   0  0  0  0  0  1  0  0  0  0  0  0
  180.4620  179.1960  135.8350 N   0  0  0  0  0  2  0  0  0  0  0  0
  179.9200  176.1480  138.9500 C   0  0  2  0  0  0  0  0  0  0  0  0
  181.4560  176.7860  136.9850 C   0  0  0  0  0  2  0  0  0  0  0  0
  180.4000  177.2640  137.9980 C   0  0  2  0  0  3  0  0  0  0  0  0
  181.2970  180.1080  136.6180 C   0  0  1  0  0  3  0  0  0  0  0  0
  180.7020  178.6480  138.6460 C   0  0  1  0  0  3  0  0  0  0  0  0
  180.9980  175.3670  139.3770 O   0  0  0  0  0  1  0  0  0  0  0  0
  179.2140  176.7350  140.1630 C   0  0  0  0  0  2  0  0  0  0  0  0
  180.8440  176.1620  135.9650 O   0  0  0  0  0  0  0  0  0  0  0  0
  180.6620  178.8000  140.1850 C   0  0  2  0  0  3  0  0  0  0  0  0
  182.7960  177.9180  134.9690 O   0  0  0  0  0  0  0  0  0  0  0  0
  180.5310  181.3910  136.9040 C   0  0  0  0  0  2  0  0  0  0  0  0
  180.9000  181.9580  138.2630 C   0  0  0  0  0  2  0  0  0  0  0  0
  179.7560  182.1210  139.0420 O   0  0  0  0  0  1  0  0  0  0  0  0
  1 30  1  6  0  0  0
  2  1  1  0  0  0  0
  3 32  1  6  0  0  0
  3  2  1  0  0  0  0
  4  1  1  0  0  0  0
  5  3  1  0  0  0  0
  5  4  1  0  0  0  0
  8  7  2  6  0  0  0
  8  4  1  0  0  0  0
  8  6  1  0  0  0  0
  9  8  1  0  0  0  0
 10  9  1  6  0  0  0
 10 11  1  0  0  0  0
 11 14  2  0  0  0  0
 12 25  1  6  0  0  0
 12 15  1  0  0  0  0
 12 13  1  0  0  0  0
 13 16  1  1  0  0  0
 14 17  1  0  0  0  0
 15 13  1  0  0  0  0
 15 10  1  0  0  0  0
 16 14  1  0  0  0  0
 17 23  1  0  0  0  0
 17 20  1  0  0  0  0
 18 21  2  0  0  0  0
 19 18  1  0  0  0  0
 20 19  2  0  0  0  0
 20 22  1  0  0  0  0
 22 21  1  0  0  0  0
 23 24  2  0  0  0  0
 24 22  1  0  0  0  0
 26 25  1  0  0  0  0
 27 26  1  0  0  0  0
 29 27  1  0  0  0  0
 29 28  1  0  0  0  0
 30 31  1  0  0  0  0
 33 37  1  0  0  0  0
 33 45  1  0  0  0  0
 34 42  1  0  0  0  0
 36 38  1  0  0  0  0
 37 41  1  0  0  0  0
 38 43  1  0  0  0  0
 38 44  1  0  0  0  0
 39 40  1  0  0  0  0
 40 42  1  0  0  0  0
 40 38  1  0  0  0  0
 41 48  1  0  0  0  0
 41 34  1  0  0  0  0
 42 46  1  0  0  0  0
 44 35  1  0  0  0  0
 45 39  1  0  0  0  0
 46 32  1  0  0  0  0
 46 35  1  0  0  0  0
 47 33  2  0  0  0  0
 48 49  1  0  0  0  0
 49 50  1  0  0  0  0
M  END
>  <MODEL>
8

>  <REMARK>
 VINA RESULT:      -6.3      3.208      8.916
  Name = 
  13 active torsions:
  status: ('A' for Active; 'I' for Inactive)
    1  A    between atoms: C_1  and  O_37
    2  A    between atoms: C_2  and  C_40
    3  A    between atoms: C_3  and  N_14
    4  A    between atoms: C_3  and  C_39
    5  A    between atoms: O_4  and  C_29
    6  A    between atoms: O_4  and  C_46
    7  A    between atoms: O_6  and  C_15
    8  A    between atoms: N_14  and  N_48
    9  A    between atoms: C_18  and  C_35
   10  A    between atoms: C_22  and  N_48
   11  A    between atoms: C_26  and  C_35
   12  A    between atoms: N_30  and  P_49
   13  A    between atoms: O_37  and  P_49
                            x       y       z     vdW  Elec       q    Type
                         _______ _______ _______ _____ _____    ______ ____

>  <TORSDO>
F 13

$$$$
=
 OpenBabel11062414263D

 50 56  0  0  1  0  0  0  0  0999 V2000
  189.7130  175.7330  135.9400 C   0  0  1  0  0  3  0  0  0  0  0  0
  190.9280  175.0610  135.3450 C   0  0  0  0  0  2  0  0  0  0  0  0
  191.2200  173.9140  136.2820 C   0  0  2  0  0  3  0  0  0  0  0  0
  189.6840  175.4350  137.3770 N   0  0  0  0  0  0  0  0  0  0  0  0
  190.3120  174.1220  137.4890 C   0  0  0  0  0  2  0  0  0  0  0  0
  191.7780  177.1150  137.4580 O   0  0  0  0  0  0  0  0  0  0  0  0
  191.3560  175.7710  139.6570 O   0  0  0  0  0  1  0  0  0  0  0  0
  190.6710  176.5600  138.3230 P   0  0  2  0  0  0  0  0  0  0  0  0
  189.6830  177.8500  138.8990 O   0  0  0  0  0  0  0  0  0  0  0  0
  188.8150  177.7420  139.9940 C   0  0  2  0  0  3  0  0  0  0  0  0
  187.6670  178.4730  140.0680 C   0  0  0  0  0  3  0  0  0  0  0  0
  189.8650  177.3820  142.1360 C   0  0  2  0  0  3  0  0  0  0  0  0
  188.3830  177.2090  142.2600 N   0  0  2  0  0  0  0  0  0  0  0  0
  186.7530  178.4870  141.2600 C   0  0  0  0  0  0  0  0  0  0  0  0
  189.2000  176.7810  141.1010 C   0  0  1  0  0  3  0  0  0  0  0  0
  187.1470  177.8770  142.3880 C   0  0  0  0  0  2  0  0  0  0  0  0
  185.5050  179.3290  141.1900 C   0  0  1  0  0  3  0  0  0  0  0  0
  183.2140  178.2030  138.5690 C   0  0  0  0  0  3  0  0  0  0  0  0
  184.4950  178.7080  138.8340 C   0  0  0  0  0  3  0  0  0  0  0  0
  184.5100  178.8490  140.2030 C   0  0  0  0  0  0  0  0  0  0  0  0
  182.5330  178.0750  139.7820 C   0  0  0  0  0  3  0  0  0  0  0  0
  183.3730  178.4860  140.7360 N   0  0  0  0  0  0  0  0  0  0  0  0
  184.7100  179.2050  142.5150 C   0  0  0  0  0  3  0  0  0  0  0  0
  183.3190  178.6260  142.1670 C   0  0  0  0  0  3  0  0  0  0  0  0
  190.5350  176.3700  142.9330 N   0  0  0  0  0  2  0  0  0  0  0  0
  191.6160  176.9900  143.5710 N   0  0  0  0  0  2  0  0  0  0  0  0
  191.2260  177.2140  144.9560 C   0  0  0  0  0  2  0  0  0  0  0  0
  191.4550  176.3660  147.2180 N   0  0  0  0  0  1  0  0  0  0  0  0
  191.8550  176.1490  145.8410 C   0  0  0  0  0  2  0  0  0  0  0  0
  189.6980  177.1070  135.6690 O   0  0  0  0  0  0  0  0  0  0  0  0
  188.4290  177.3540  135.1380 C   0  0  0  0  0  1  0  0  0  0  0  0
  192.5540  173.9740  136.6960 O   0  0  0  0  0  0  0  0  0  0  0  0
  198.0280  173.7690  136.8370 P   0  0  2  0  0  4  0  0  0  0  0  0
  195.1630  174.8590  136.4830 C   0  0  0  0  0  2  0  0  0  0  0  0
  192.8500  171.7820  135.8040 C   0  0  0  0  0  2  0  0  0  0  0  0
  196.1590  169.9280  135.5870 C   0  0  0  0  0  1  0  0  0  0  0  0
  197.4130  174.6090  135.4180 N   0  0  0  0  0  2  0  0  0  0  0  0
  195.1460  170.9160  136.1320 C   0  0  2  0  0  0  0  0  0  0  0  0
  196.7430  172.5700  137.2920 C   0  0  0  0  0  2  0  0  0  0  0  0
  195.7650  172.3310  136.1280 C   0  0  2  0  0  3  0  0  0  0  0  0
  196.3600  175.5470  135.8130 C   0  0  1  0  0  3  0  0  0  0  0  0
  194.7900  173.5130  135.8450 C   0  0  1  0  0  3  0  0  0  0  0  0
  194.7970  170.5350  137.4310 O   0  0  0  0  0  1  0  0  0  0  0  0
  193.9130  170.8600  135.2430 C   0  0  0  0  0  2  0  0  0  0  0  0
  197.9360  172.0330  136.9870 O   0  0  0  0  0  0  0  0  0  0  0  0
  193.2700  173.2480  135.7390 C   0  0  2  0  0  3  0  0  0  0  0  0
  198.2970  174.5980  138.0730 O   0  0  0  0  0  0  0  0  0  0  0  0
  195.8720  176.3150  134.5940 C   0  0  0  0  0  2  0  0  0  0  0  0
  195.4340  177.7200  134.9710 C   0  0  0  0  0  2  0  0  0  0  0  0
  196.5390  178.4830  135.3430 O   0  0  0  0  0  1  0  0  0  0  0  0
  1 30  1  1  0  0  0
  1  4  1  0  0  0  0
  2  1  1  0  0  0  0
  2  3  1  0  0  0  0
  3 32  1  1  0  0  0
  3  5  1  0  0  0  0
  4  5  1  0  0  0  0
  4  8  1  0  0  0  0
  8  6  2  6  0  0  0
  8  9  1  0  0  0  0
  8  7  1  0  0  0  0
 10  9  1  1  0  0  0
 10 11  1  0  0  0  0
 10 15  1  0  0  0  0
 11 14  2  0  0  0  0
 12 13  1  0  0  0  0
 12 25  1  1  0  0  0
 13 16  1  6  0  0  0
 14 16  1  0  0  0  0
 15 12  1  0  0  0  0
 15 13  1  0  0  0  0
 17 14  1  0  0  0  0
 17 23  1  0  0  0  0
 18 19  1  0  0  0  0
 18 21  2  0  0  0  0
 19 20  2  0  0  0  0
 20 22  1  0  0  0  0
 20 17  1  0  0  0  0
 21 22  1  0  0  0  0
 22 24  1  0  0  0  0
 24 23  2  0  0  0  0
 25 26  1  0  0  0  0
 26 27  1  0  0  0  0
 27 29  1  0  0  0  0
 29 28  1  0  0  0  0
 31 30  1  0  0  0  0
 33 45  1  0  0  0  0
 33 47  2  0  0  0  0
 36 38  1  0  0  0  0
 37 41  1  0  0  0  0
 37 33  1  0  0  0  0
 38 43  1  0  0  0  0
 40 38  1  0  0  0  0
 40 39  1  0  0  0  0
 41 34  1  0  0  0  0
 42 40  1  0  0  0  0
 42 34  1  0  0  0  0
 44 35  1  0  0  0  0
 44 38  1  0  0  0  0
 45 39  1  0  0  0  0
 46 35  1  0  0  0  0
 46 42  1  0  0  0  0
 46 32  1  0  0  0  0
 48 49  1  0  0  0  0
 48 41  1  0  0  0  0
 49 50  1  0  0  0  0
M  END
>  <MODEL>
9

>  <REMARK>
 VINA RESULT:      -6.3      3.559      6.631
  Name = 
  13 active torsions:
  status: ('A' for Active; 'I' for Inactive)
    1  A    between atoms: C_1  and  O_37
    2  A    between atoms: C_2  and  C_40
    3  A    between atoms: C_3  and  N_14
    4  A    between atoms: C_3  and  C_39
    5  A    between atoms: O_4  and  C_29
    6  A    between atoms: O_4  and  C_46
    7  A    between atoms: O_6  and  C_15
    8  A    between atoms: N_14  and  N_48
    9  A    between atoms: C_18  and  C_35
   10  A    between atoms: C_22  and  N_48
   11  A    between atoms: C_26  and  C_35
   12  A    between atoms: N_30  and  P_49
   13  A    between atoms: O_37  and  P_49
                            x       y       z     vdW  Elec       q    Type
                         _______ _______ _______ _____ _____    ______ ____

>  <TORSDO>
F 13

$$$$
