=
 OpenBabel11062417543D

 39 42  0  0  1  0  0  0  0  0999 V2000
  185.2510  179.4210  146.0920 C   0  0  0  0  0  2  0  0  0  0  0  0
  184.0900  180.2440  139.3450 O   0  0  0  0  0  1  0  0  0  0  0  0
  184.2740  178.8890  139.0580 C   0  0  2  0  0  3  0  0  0  0  0  0
  183.1730  178.5690  145.1510 N   0  0  0  0  0  2  0  0  0  0  0  0
  186.2140  179.3620  144.9240 C   0  0  0  0  0  2  0  0  0  0  0  0
  187.2170  177.8240  141.2720 C   0  0  0  0  0  0  0  0  0  0  0  0
  188.0260  178.0490  138.8820 C   0  0  1  0  0  3  0  0  0  0  0  0
  188.1470  177.5870  140.3230 C   0  0  0  0  0  3  0  0  0  0  0  0
  182.2020  178.8660  143.0760 O   0  0  0  0  0  0  0  0  0  0  0  0
  185.9910  178.6770  140.9510 C   0  0  2  0  0  3  0  0  0  0  0  0
  183.2490  178.0440  139.8280 C   0  0  2  0  0  3  0  0  0  0  0  0
  184.7450  178.4200  141.7910 C   0  0  0  0  0  0  0  0  0  0  0  0
  186.8030  178.9360  138.6130 C   0  0  0  0  0  2  0  0  0  0  0  0
  183.2710  178.7690  143.7360 C   0  0  0  0  0  0  0  0  0  0  0  0
  185.6630  178.4370  139.4750 C   0  0  2  0  0  3  0  0  0  0  0  0
  185.5850  179.8600  143.6280 C   0  0  0  0  0  2  0  0  0  0  0  0
  183.6680  177.7630  141.1750 O   0  0  0  0  0  0  0  0  0  0  0  0
  184.2920  178.2520  146.0210 C   0  0  0  0  0  2  0  0  0  0  0  0
  184.5820  178.9040  143.0450 C   0  0  0  0  0  0  0  0  0  0  0  0
  182.9550  176.7390  139.0910 C   0  0  2  0  0  3  0  0  0  0  0  0
  183.1810  176.8930  137.7340 F   0  0  0  0  0  0  0  0  0  0  0  0
  181.1580  175.1830  138.9210 O   0  0  0  0  0  0  0  0  0  0  0  0
  180.6580  177.1470  139.9900 O   0  0  0  0  0  1  0  0  0  0  0  0
  181.5410  176.3160  139.3130 C   0  0  0  0  0  0  0  0  0  0  0  0
  187.5450  177.1850  142.9210 S   0  0  0  0  0  0  0  0  0  0  0  0
  190.2050  176.4340  142.8770 C   0  0  1  0  0  3  0  0  0  0  0  0
  189.6260  178.6230  144.1120 C   0  0  0  0  0  2  0  0  0  0  0  0
  191.3110  176.4240  143.9450 C   0  0  0  0  0  2  0  0  0  0  0  0
  189.3040  177.6840  142.9430 C   0  0  2  0  0  3  0  0  0  0  0  0
  191.1130  178.7810  144.2230 C   0  0  0  0  0  3  0  0  0  0  0  0
  191.8730  177.7470  144.1300 N   0  0  0  0  0  0  0  0  0  0  0  0
  190.8270  176.3170  141.4950 C   0  0  0  0  0  2  0  0  0  0  0  0
  192.3910  177.4070  140.3810 C   0  0  0  0  0  1  0  0  0  0  0  0
  191.1560  177.5810  141.0040 O   0  0  0  0  0  0  0  0  0  0  0  0
  189.1920  178.7140  138.4950 O   0  0  0  0  0  0  0  0  0  0  0  0
  189.1840  178.6770  137.0990 C   0  0  0  0  0  2  0  0  0  0  0  0
  189.6890  177.3580  136.6290 C   0  0  0  0  0  0  0  0  0  0  0  0
  189.0590  176.7230  135.7450 O   0  0  0  0  0  0  0  0  0  0  0  0
  190.8310  176.8100  137.1960 O   0  0  0  0  0  1  0  0  0  0  0  0
  3  2  1  1  0  0  0
  3 15  1  0  0  0  0
  3 11  1  0  0  0  0
  4 18  1  0  0  0  0
  5  1  1  0  0  0  0
  6 25  1  0  0  0  0
  7 35  1  1  0  0  0
  7  8  1  0  0  0  0
  8  6  2  0  0  0  0
  9 14  2  0  0  0  0
 10  6  1  1  0  0  0
 10 12  1  0  0  0  0
 11 20  1  6  0  0  0
 11 17  1  0  0  0  0
 12 19  2  0  0  0  0
 13  7  1  0  0  0  0
 14  4  1  0  0  0  0
 15 13  1  6  0  0  0
 15 10  1  0  0  0  0
 16  5  1  0  0  0  0
 17 12  1  0  0  0  0
 18  1  1  0  0  0  0
 19 16  1  0  0  0  0
 19 14  1  0  0  0  0
 20 21  1  6  0  0  0
 20 24  1  0  0  0  0
 22 24  2  0  0  0  0
 24 23  1  0  0  0  0
 26 32  1  6  0  0  0
 26 29  1  0  0  0  0
 26 28  1  0  0  0  0
 27 30  1  0  0  0  0
 28 31  1  0  0  0  0
 29 25  1  1  0  0  0
 29 27  1  0  0  0  0
 31 30  2  0  0  0  0
 33 34  1  0  0  0  0
 34 32  1  0  0  0  0
 36 35  1  0  0  0  0
 37 36  1  0  0  0  0
 37 39  1  0  0  0  0
 38 37  2  0  0  0  0
M  END
>  <MODEL>
1

>  <REMARK>
 VINA RESULT:      -5.8      0.000      0.000
  Name = 
  9 active torsions:
  status: ('A' for Active; 'I' for Inactive)
    1  A    between atoms: C_6  and  C_24
    2  A    between atoms: C_6  and  C_32
    3  A    between atoms: C_7  and  S_18
    4  A    between atoms: C_8  and  C_14
    5  A    between atoms: C_10  and  O_37
    6  A    between atoms: C_13  and  C_25
    7  A    between atoms: C_13  and  O_37
    8  A    between atoms: C_14  and  O_23
    9  A    between atoms: C_16  and  S_18
                            x       y       z     vdW  Elec       q    Type
                         _______ _______ _______ _____ _____    ______ ____

>  <TORSDO>
F 9

$$$$
=
 OpenBabel11062417543D

 39 42  0  0  1  0  0  0  0  0999 V2000
  185.2060  179.4500  146.1490 C   0  0  0  0  0  2  0  0  0  0  0  0
  184.4820  180.1240  139.3250 O   0  0  0  0  0  1  0  0  0  0  0  0
  184.6400  178.7570  139.0840 C   0  0  2  0  0  3  0  0  0  0  0  0
  183.1620  178.6350  145.1040 N   0  0  0  0  0  2  0  0  0  0  0  0
  186.2350  179.3300  145.0450 C   0  0  0  0  0  2  0  0  0  0  0  0
  187.4070  177.6640  141.5010 C   0  0  0  0  0  0  0  0  0  0  0  0
  188.3670  177.7990  139.1600 C   0  0  1  0  0  3  0  0  0  0  0  0
  188.3850  177.3730  140.6170 C   0  0  0  0  0  3  0  0  0  0  0  0
  182.3290  178.9060  142.9660 O   0  0  0  0  0  0  0  0  0  0  0  0
  186.2310  178.5440  141.0840 C   0  0  2  0  0  3  0  0  0  0  0  0
  183.5440  177.9640  139.8110 C   0  0  2  0  0  3  0  0  0  0  0  0
  184.9290  178.3480  141.8520 C   0  0  0  0  0  0  0  0  0  0  0  0
  187.1920  178.7150  138.7940 C   0  0  0  0  0  2  0  0  0  0  0  0
  183.3510  178.7940  143.6940 C   0  0  0  0  0  0  0  0  0  0  0  0
  185.9860  178.2750  139.5960 C   0  0  2  0  0  3  0  0  0  0  0  0
  185.7020  179.8110  143.7010 C   0  0  0  0  0  2  0  0  0  0  0  0
  183.8710  177.7080  141.1870 O   0  0  0  0  0  0  0  0  0  0  0  0
  184.2160  178.3090  146.0490 C   0  0  0  0  0  2  0  0  0  0  0  0
  184.7060  178.8710  143.0810 C   0  0  0  0  0  0  0  0  0  0  0  0
  183.2530  176.6490  139.0910 C   0  0  2  0  0  3  0  0  0  0  0  0
  183.5220  176.7740  137.7380 F   0  0  0  0  0  0  0  0  0  0  0  0
  181.3870  175.2160  138.7110 O   0  0  0  0  0  0  0  0  0  0  0  0
  180.9950  176.9880  140.1090 O   0  0  0  0  0  1  0  0  0  0  0  0
  181.8280  176.2500  139.2770 C   0  0  0  0  0  0  0  0  0  0  0  0
  187.6150  177.0600  143.1820 S   0  0  0  0  0  0  0  0  0  0  0  0
  190.0850  176.4980  144.2900 C   0  0  1  0  0  3  0  0  0  0  0  0
  189.6700  178.9250  143.5190 C   0  0  0  0  0  2  0  0  0  0  0  0
  190.9770  177.2420  145.2980 C   0  0  0  0  0  2  0  0  0  0  0  0
  189.4020  177.4350  143.2720 C   0  0  2  0  0  3  0  0  0  0  0  0
  191.1220  179.1190  143.8390 C   0  0  0  0  0  3  0  0  0  0  0  0
  191.7080  178.3170  144.6580 N   0  0  0  0  0  0  0  0  0  0  0  0
  190.9050  175.4490  143.5580 C   0  0  0  0  0  2  0  0  0  0  0  0
  192.2050  174.1090  144.7370 C   0  0  0  0  0  1  0  0  0  0  0  0
  192.1810  175.3570  144.1150 O   0  0  0  0  0  0  0  0  0  0  0  0
  189.5740  178.4180  138.8290 O   0  0  0  0  0  0  0  0  0  0  0  0
  190.5640  177.5150  139.2220 C   0  0  0  0  0  2  0  0  0  0  0  0
  190.7510  176.4830  138.1650 C   0  0  0  0  0  0  0  0  0  0  0  0
  190.8900  176.8310  136.9640 O   0  0  0  0  0  0  0  0  0  0  0  0
  190.7280  175.1360  138.4980 O   0  0  0  0  0  1  0  0  0  0  0  0
  3  2  1  1  0  0  0
  3 15  1  0  0  0  0
  3 11  1  0  0  0  0
  4 18  1  0  0  0  0
  5  1  1  0  0  0  0
  6 25  1  0  0  0  0
  7 35  1  1  0  0  0
  7  8  1  0  0  0  0
  8  6  2  0  0  0  0
  9 14  2  0  0  0  0
 10  6  1  1  0  0  0
 10 12  1  0  0  0  0
 11 20  1  6  0  0  0
 11 17  1  0  0  0  0
 12 19  2  0  0  0  0
 13  7  1  0  0  0  0
 14  4  1  0  0  0  0
 15 13  1  6  0  0  0
 15 10  1  0  0  0  0
 16  5  1  0  0  0  0
 17 12  1  0  0  0  0
 18  1  1  0  0  0  0
 19 14  1  0  0  0  0
 19 16  1  0  0  0  0
 20 21  1  6  0  0  0
 20 24  1  0  0  0  0
 22 24  2  0  0  0  0
 24 23  1  0  0  0  0
 26 32  1  6  0  0  0
 26 28  1  0  0  0  0
 27 30  1  0  0  0  0
 29 25  1  1  0  0  0
 29 27  1  0  0  0  0
 29 26  1  0  0  0  0
 30 31  2  0  0  0  0
 31 28  1  0  0  0  0
 32 34  1  0  0  0  0
 34 33  1  0  0  0  0
 35 36  1  0  0  0  0
 37 39  1  0  0  0  0
 37 36  1  0  0  0  0
 38 37  2  0  0  0  0
M  END
>  <MODEL>
2

>  <REMARK>
 VINA RESULT:      -5.7      1.082      1.439
  Name = 
  9 active torsions:
  status: ('A' for Active; 'I' for Inactive)
    1  A    between atoms: C_6  and  C_24
    2  A    between atoms: C_6  and  C_32
    3  A    between atoms: C_7  and  S_18
    4  A    between atoms: C_8  and  C_14
    5  A    between atoms: C_10  and  O_37
    6  A    between atoms: C_13  and  C_25
    7  A    between atoms: C_13  and  O_37
    8  A    between atoms: C_14  and  O_23
    9  A    between atoms: C_16  and  S_18
                            x       y       z     vdW  Elec       q    Type
                         _______ _______ _______ _____ _____    ______ ____

>  <TORSDO>
F 9

$$$$
=
 OpenBabel11062417543D

 39 42  0  0  1  0  0  0  0  0999 V2000
  184.6460  179.4310  143.4500 C   0  0  0  0  0  2  0  0  0  0  0  0
  188.8660  179.7710  138.0080 O   0  0  0  0  0  1  0  0  0  0  0  0
  188.9060  178.3840  137.8400 C   0  0  2  0  0  3  0  0  0  0  0  0
  183.7520  178.9200  141.2430 N   0  0  0  0  0  2  0  0  0  0  0  0
  186.1100  179.0600  143.3290 C   0  0  0  0  0  2  0  0  0  0  0  0
  189.0600  176.9840  141.4050 C   0  0  0  0  0  0  0  0  0  0  0  0
  191.3550  176.7950  140.3480 C   0  0  1  0  0  3  0  0  0  0  0  0
  190.3070  176.4690  141.3980 C   0  0  0  0  0  3  0  0  0  0  0  0
  184.6500  179.1910  139.1320 O   0  0  0  0  0  0  0  0  0  0  0  0
  188.6530  178.0280  140.3670 C   0  0  2  0  0  3  0  0  0  0  0  0
  187.4920  177.8460  137.5750 C   0  0  2  0  0  3  0  0  0  0  0  0
  187.1680  178.1140  140.0350 C   0  0  0  0  0  0  0  0  0  0  0  0
  190.9200  177.8770  139.3500 C   0  0  0  0  0  2  0  0  0  0  0  0
  184.8700  178.9500  140.3490 C   0  0  0  0  0  0  0  0  0  0  0  0
  189.4380  177.7080  139.0920 C   0  0  2  0  0  3  0  0  0  0  0  0
  186.7220  179.5380  142.0170 C   0  0  0  0  0  2  0  0  0  0  0  0
  186.7500  177.6260  138.7860 O   0  0  0  0  0  0  0  0  0  0  0  0
  183.8090  178.4770  142.6260 C   0  0  0  0  0  2  0  0  0  0  0  0
  186.2670  178.7470  140.8220 C   0  0  0  0  0  0  0  0  0  0  0  0
  187.5450  176.5570  136.7550 C   0  0  2  0  0  3  0  0  0  0  0  0
  188.1650  175.5530  137.4800 F   0  0  0  0  0  0  0  0  0  0  0  0
  187.8380  177.5870  134.6260 O   0  0  0  0  0  0  0  0  0  0  0  0
  189.4860  176.1190  135.2420 O   0  0  0  0  0  1  0  0  0  0  0  0
  188.2840  176.7740  135.4780 C   0  0  0  0  0  0  0  0  0  0  0  0
  187.9650  176.4650  142.7350 S   0  0  0  0  0  0  0  0  0  0  0  0
  189.4260  178.0470  144.4690 C   0  0  1  0  0  3  0  0  0  0  0  0
  190.5370  175.8660  143.6520 C   0  0  0  0  0  2  0  0  0  0  0  0
  190.9000  178.4840  144.5020 C   0  0  0  0  0  2  0  0  0  0  0  0
  189.2350  176.5750  144.0450 C   0  0  2  0  0  3  0  0  0  0  0  0
  191.6080  176.2130  144.6430 C   0  0  0  0  0  3  0  0  0  0  0  0
  191.7470  177.4330  145.0300 N   0  0  0  0  0  0  0  0  0  0  0  0
  188.7930  178.2790  145.8310 C   0  0  0  0  0  2  0  0  0  0  0  0
  188.9040  177.5010  147.8940 C   0  0  0  0  0  1  0  0  0  0  0  0
  188.7800  177.0930  146.5670 O   0  0  0  0  0  0  0  0  0  0  0  0
  192.5500  177.1700  140.9670 O   0  0  0  0  0  0  0  0  0  0  0  0
  193.3850  177.5750  139.9240 C   0  0  0  0  0  2  0  0  0  0  0  0
  194.2440  176.4360  139.4960 C   0  0  0  0  0  0  0  0  0  0  0  0
  195.1930  176.0550  140.2280 O   0  0  0  0  0  1  0  0  0  0  0  0
  194.0230  175.8230  138.2710 O   0  0  0  0  0  0  0  0  0  0  0  0
  3  2  1  1  0  0  0
  3 15  1  0  0  0  0
  4 18  1  0  0  0  0
  5  1  1  0  0  0  0
  6 25  1  0  0  0  0
  7 35  1  1  0  0  0
  7  8  1  0  0  0  0
  8  6  2  0  0  0  0
  9 14  2  0  0  0  0
 10 12  1  6  0  0  0
 10  6  1  0  0  0  0
 11 20  1  1  0  0  0
 11  3  1  0  0  0  0
 11 17  1  0  0  0  0
 12 19  2  0  0  0  0
 13  7  1  0  0  0  0
 14 19  1  0  0  0  0
 14  4  1  0  0  0  0
 15 13  1  1  0  0  0
 15 10  1  0  0  0  0
 16  5  1  0  0  0  0
 17 12  1  0  0  0  0
 18  1  1  0  0  0  0
 19 16  1  0  0  0  0
 20 21  1  1  0  0  0
 22 24  2  0  0  0  0
 23 24  1  0  0  0  0
 24 20  1  0  0  0  0
 26 28  1  0  0  0  0
 26 32  1  1  0  0  0
 27 29  1  0  0  0  0
 27 30  1  0  0  0  0
 28 31  1  0  0  0  0
 29 25  1  6  0  0  0
 29 26  1  0  0  0  0
 30 31  2  0  0  0  0
 32 34  1  0  0  0  0
 34 33  1  0  0  0  0
 36 35  1  0  0  0  0
 37 36  1  0  0  0  0
 37 38  1  0  0  0  0
 39 37  2  0  0  0  0
M  END
>  <MODEL>
3

>  <REMARK>
 VINA RESULT:      -5.2      2.323      4.644
  Name = 
  9 active torsions:
  status: ('A' for Active; 'I' for Inactive)
    1  A    between atoms: C_6  and  C_24
    2  A    between atoms: C_6  and  C_32
    3  A    between atoms: C_7  and  S_18
    4  A    between atoms: C_8  and  C_14
    5  A    between atoms: C_10  and  O_37
    6  A    between atoms: C_13  and  C_25
    7  A    between atoms: C_13  and  O_37
    8  A    between atoms: C_14  and  O_23
    9  A    between atoms: C_16  and  S_18
                            x       y       z     vdW  Elec       q    Type
                         _______ _______ _______ _____ _____    ______ ____

>  <TORSDO>
F 9

$$$$
=
 OpenBabel11062417543D

 39 42  0  0  1  0  0  0  0  0999 V2000
  184.6010  171.0430  135.7200 C   0  0  0  0  0  2  0  0  0  0  0  0
  181.7960  175.9280  139.6970 O   0  0  0  0  0  1  0  0  0  0  0  0
  181.8460  176.8990  138.6930 C   0  0  2  0  0  3  0  0  0  0  0  0
  182.3190  171.7590  135.2590 N   0  0  0  0  0  2  0  0  0  0  0  0
  185.2320  172.2690  136.3470 C   0  0  0  0  0  2  0  0  0  0  0  0
  185.2100  176.3120  136.9500 C   0  0  0  0  0  0  0  0  0  0  0  0
  185.3920  178.3680  138.4190 C   0  0  1  0  0  3  0  0  0  0  0  0
  185.8570  177.4400  137.3110 C   0  0  0  0  0  3  0  0  0  0  0  0
  180.8650  173.0920  136.4610 O   0  0  0  0  0  0  0  0  0  0  0  0
  183.9780  175.8510  137.7260 C   0  0  2  0  0  3  0  0  0  0  0  0
  181.0180  176.4460  137.4810 C   0  0  2  0  0  3  0  0  0  0  0  0
  182.9770  174.9890  136.9650 C   0  0  0  0  0  0  0  0  0  0  0  0
  184.1780  177.8480  139.1990 C   0  0  0  0  0  2  0  0  0  0  0  0
  182.0620  172.8500  136.1490 C   0  0  0  0  0  0  0  0  0  0  0  0
  183.2760  177.1160  138.2290 C   0  0  2  0  0  3  0  0  0  0  0  0
  184.3140  172.9370  137.3640 C   0  0  0  0  0  2  0  0  0  0  0  0
  181.7540  175.5760  136.6050 O   0  0  0  0  0  0  0  0  0  0  0  0
  183.6090  171.4670  134.6580 C   0  0  0  0  0  2  0  0  0  0  0  0
  183.1580  173.6670  136.7380 C   0  0  0  0  0  0  0  0  0  0  0  0
  180.4930  177.6490  136.7000 C   0  0  2  0  0  3  0  0  0  0  0  0
  181.5480  178.3820  136.1810 F   0  0  0  0  0  0  0  0  0  0  0  0
  179.5830  179.7590  137.3320 O   0  0  0  0  0  0  0  0  0  0  0  0
  178.9460  177.9850  138.6340 O   0  0  0  0  0  1  0  0  0  0  0  0
  179.6650  178.5270  137.5760 C   0  0  0  0  0  0  0  0  0  0  0  0
  185.9210  175.3510  135.6060 S   0  0  0  0  0  0  0  0  0  0  0  0
  188.5400  176.0820  135.1080 C   0  0  1  0  0  3  0  0  0  0  0  0
  188.1590  174.1480  136.7710 C   0  0  0  0  0  2  0  0  0  0  0  0
  189.8260  175.2760  134.8610 C   0  0  0  0  0  2  0  0  0  0  0  0
  187.6420  175.4770  136.2080 C   0  0  2  0  0  3  0  0  0  0  0  0
  189.6370  174.2490  137.0010 C   0  0  0  0  0  3  0  0  0  0  0  0
  190.3860  174.7880  136.1040 N   0  0  0  0  0  0  0  0  0  0  0  0
  188.8950  177.5170  135.4620 C   0  0  0  0  0  2  0  0  0  0  0  0
  189.0690  179.0170  137.0730 C   0  0  0  0  0  1  0  0  0  0  0  0
  189.0850  177.6430  136.8390 O   0  0  0  0  0  0  0  0  0  0  0  0
  186.4470  178.6280  139.2970 O   0  0  0  0  0  0  0  0  0  0  0  0
  185.8680  178.6300  140.5680 C   0  0  0  0  0  2  0  0  0  0  0  0
  186.9300  178.4920  141.6030 C   0  0  0  0  0  0  0  0  0  0  0  0
  186.6150  178.2600  142.7980 O   0  0  0  0  0  1  0  0  0  0  0  0
  188.2630  178.6620  141.2580 O   0  0  0  0  0  0  0  0  0  0  0  0
  1  5  1  0  0  0  0
  3  2  1  1  0  0  0
  4 14  1  0  0  0  0
  5 16  1  0  0  0  0
  6  8  2  0  0  0  0
  7 13  1  0  0  0  0
  7 35  1  1  0  0  0
  8  7  1  0  0  0  0
 10  6  1  6  0  0  0
 10 15  1  0  0  0  0
 11 20  1  6  0  0  0
 11  3  1  0  0  0  0
 12 10  1  0  0  0  0
 14  9  2  0  0  0  0
 14 19  1  0  0  0  0
 15  3  1  0  0  0  0
 15 13  1  1  0  0  0
 17 12  1  0  0  0  0
 17 11  1  0  0  0  0
 18  4  1  0  0  0  0
 18  1  1  0  0  0  0
 19 12  2  0  0  0  0
 19 16  1  0  0  0  0
 20 21  1  1  0  0  0
 20 24  1  0  0  0  0
 22 24  2  0  0  0  0
 24 23  1  0  0  0  0
 25  6  1  0  0  0  0
 26 32  1  1  0  0  0
 26 29  1  0  0  0  0
 27 30  1  0  0  0  0
 28 26  1  0  0  0  0
 28 31  1  0  0  0  0
 29 25  1  6  0  0  0
 29 27  1  0  0  0  0
 31 30  2  0  0  0  0
 32 34  1  0  0  0  0
 34 33  1  0  0  0  0
 35 36  1  0  0  0  0
 36 37  1  0  0  0  0
 37 38  1  0  0  0  0
 39 37  2  0  0  0  0
M  END
>  <MODEL>
4

>  <REMARK>
 VINA RESULT:      -5.2      4.053      7.060
  Name = 
  9 active torsions:
  status: ('A' for Active; 'I' for Inactive)
    1  A    between atoms: C_6  and  C_24
    2  A    between atoms: C_6  and  C_32
    3  A    between atoms: C_7  and  S_18
    4  A    between atoms: C_8  and  C_14
    5  A    between atoms: C_10  and  O_37
    6  A    between atoms: C_13  and  C_25
    7  A    between atoms: C_13  and  O_37
    8  A    between atoms: C_14  and  O_23
    9  A    between atoms: C_16  and  S_18
                            x       y       z     vdW  Elec       q    Type
                         _______ _______ _______ _____ _____    ______ ____

>  <TORSDO>
F 9

$$$$
=
 OpenBabel11062417543D

 39 42  0  0  1  0  0  0  0  0999 V2000
  183.8100  171.1340  136.2380 C   0  0  0  0  0  2  0  0  0  0  0  0
  183.0370  176.8600  140.0000 O   0  0  0  0  0  1  0  0  0  0  0  0
  182.9140  177.6870  138.8800 C   0  0  2  0  0  3  0  0  0  0  0  0
  181.6160  172.1890  136.3250 N   0  0  0  0  0  2  0  0  0  0  0  0
  184.7630  172.2900  136.4570 C   0  0  0  0  0  2  0  0  0  0  0  0
  185.4800  176.3130  136.3840 C   0  0  0  0  0  0  0  0  0  0  0  0
  186.3790  178.4580  137.3920 C   0  0  1  0  0  3  0  0  0  0  0  0
  186.3550  177.3410  136.3630 C   0  0  0  0  0  3  0  0  0  0  0  0
  180.7910  173.8880  137.6550 O   0  0  0  0  0  0  0  0  0  0  0  0
  184.4890  176.1710  137.5380 C   0  0  2  0  0  3  0  0  0  0  0  0
  181.7050  177.2550  138.0380 C   0  0  2  0  0  3  0  0  0  0  0  0
  183.1970  175.4220  137.2360 C   0  0  0  0  0  0  0  0  0  0  0  0
  185.3980  178.2540  138.5540 C   0  0  0  0  0  2  0  0  0  0  0  0
  181.7920  173.4020  137.0640 C   0  0  0  0  0  0  0  0  0  0  0  0
  184.1530  177.5900  138.0060 C   0  0  2  0  0  3  0  0  0  0  0  0
  184.2960  173.2230  137.5690 C   0  0  0  0  0  2  0  0  0  0  0  0
  182.0140  176.1730  137.1430 O   0  0  0  0  0  0  0  0  0  0  0  0
  182.6110  171.6050  135.4430 C   0  0  0  0  0  2  0  0  0  0  0  0
  183.1170  174.0710  137.1830 C   0  0  0  0  0  0  0  0  0  0  0  0
  181.1390  178.4360  137.2510 C   0  0  2  0  0  3  0  0  0  0  0  0
  181.9490  178.7200  136.1640 F   0  0  0  0  0  0  0  0  0  0  0  0
  181.7020  180.6730  137.8450 O   0  0  0  0  0  0  0  0  0  0  0  0
  180.1620  179.6570  139.2010 O   0  0  0  0  0  1  0  0  0  0  0  0
  181.0320  179.6440  138.1190 C   0  0  0  0  0  0  0  0  0  0  0  0
  185.6120  175.0950  135.0670 S   0  0  0  0  0  0  0  0  0  0  0  0
  187.7770  174.4330  136.6530 C   0  0  1  0  0  3  0  0  0  0  0  0
  188.1930  176.1220  134.7490 C   0  0  0  0  0  2  0  0  0  0  0  0
  188.9050  175.2620  137.2900 C   0  0  0  0  0  2  0  0  0  0  0  0
  187.4210  174.8840  135.2210 C   0  0  2  0  0  3  0  0  0  0  0  0
  189.6340  175.9870  135.1410 C   0  0  0  0  0  3  0  0  0  0  0  0
  189.9370  175.5740  136.3220 N   0  0  0  0  0  0  0  0  0  0  0  0
  188.1610  172.9620  136.6520 C   0  0  0  0  0  2  0  0  0  0  0  0
  188.1490  171.1180  135.4390 C   0  0  0  0  0  1  0  0  0  0  0  0
  188.3030  172.5000  135.3430 O   0  0  0  0  0  0  0  0  0  0  0  0
  187.6750  178.6230  137.8860 O   0  0  0  0  0  0  0  0  0  0  0  0
  187.6240  178.1510  139.1990 C   0  0  0  0  0  2  0  0  0  0  0  0
  189.0020  178.0760  139.7590 C   0  0  0  0  0  0  0  0  0  0  0  0
  189.9950  178.0750  138.9870 O   0  0  0  0  0  0  0  0  0  0  0  0
  189.1890  177.9660  141.1300 O   0  0  0  0  0  1  0  0  0  0  0  0
  1  5  1  0  0  0  0
  3  2  1  1  0  0  0
  4 14  1  0  0  0  0
  5 16  1  0  0  0  0
  7 35  1  1  0  0  0
  7 13  1  0  0  0  0
  8  6  2  0  0  0  0
  8  7  1  0  0  0  0
 10  6  1  6  0  0  0
 10 15  1  0  0  0  0
 11 20  1  6  0  0  0
 11  3  1  0  0  0  0
 12 10  1  0  0  0  0
 14 19  1  0  0  0  0
 14  9  2  0  0  0  0
 15 13  1  1  0  0  0
 15  3  1  0  0  0  0
 17 12  1  0  0  0  0
 17 11  1  0  0  0  0
 18  1  1  0  0  0  0
 18  4  1  0  0  0  0
 19 12  2  0  0  0  0
 19 16  1  0  0  0  0
 20 21  1  6  0  0  0
 20 24  1  0  0  0  0
 22 24  2  0  0  0  0
 24 23  1  0  0  0  0
 25  6  1  0  0  0  0
 26 32  1  6  0  0  0
 26 28  1  0  0  0  0
 27 30  1  0  0  0  0
 27 29  1  0  0  0  0
 29 25  1  1  0  0  0
 29 26  1  0  0  0  0
 30 31  2  0  0  0  0
 31 28  1  0  0  0  0
 34 33  1  0  0  0  0
 34 32  1  0  0  0  0
 35 36  1  0  0  0  0
 36 37  1  0  0  0  0
 37 39  1  0  0  0  0
 38 37  2  0  0  0  0
M  END
>  <MODEL>
5

>  <REMARK>
 VINA RESULT:      -4.9      4.234      6.818
  Name = 
  9 active torsions:
  status: ('A' for Active; 'I' for Inactive)
    1  A    between atoms: C_6  and  C_24
    2  A    between atoms: C_6  and  C_32
    3  A    between atoms: C_7  and  S_18
    4  A    between atoms: C_8  and  C_14
    5  A    between atoms: C_10  and  O_37
    6  A    between atoms: C_13  and  C_25
    7  A    between atoms: C_13  and  O_37
    8  A    between atoms: C_14  and  O_23
    9  A    between atoms: C_16  and  S_18
                            x       y       z     vdW  Elec       q    Type
                         _______ _______ _______ _____ _____    ______ ____

>  <TORSDO>
F 9

$$$$
=
 OpenBabel11062417543D

 39 42  0  0  1  0  0  0  0  0999 V2000
  189.0890  177.2160  135.5060 C   0  0  0  0  0  2  0  0  0  0  0  0
  184.1930  180.7370  138.8480 O   0  0  0  0  0  1  0  0  0  0  0  0
  183.5900  179.5850  139.3610 C   0  0  2  0  0  3  0  0  0  0  0  0
  189.1910  177.3390  137.9360 N   0  0  0  0  0  2  0  0  0  0  0  0
  187.6090  177.3440  135.2100 C   0  0  0  0  0  2  0  0  0  0  0  0
  183.7360  177.0560  136.4830 C   0  0  0  0  0  0  0  0  0  0  0  0
  181.3660  177.9280  136.6930 C   0  0  1  0  0  3  0  0  0  0  0  0
  182.4200  176.9540  136.2000 C   0  0  0  0  0  3  0  0  0  0  0  0
  188.0060  178.6210  139.4500 O   0  0  0  0  0  0  0  0  0  0  0  0
  184.2600  178.2530  137.2740 C   0  0  2  0  0  3  0  0  0  0  0  0
  184.5910  178.8120  140.2330 C   0  0  2  0  0  3  0  0  0  0  0  0
  185.5470  178.0370  138.0620 C   0  0  0  0  0  0  0  0  0  0  0  0
  181.9390  179.1360  137.4460 C   0  0  0  0  0  2  0  0  0  0  0  0
  187.9960  178.0140  138.3460 C   0  0  0  0  0  0  0  0  0  0  0  0
  183.1430  178.6680  138.2360 C   0  0  2  0  0  3  0  0  0  0  0  0
  186.9430  178.4290  136.0480 C   0  0  0  0  0  2  0  0  0  0  0  0
  185.4490  177.9560  139.4600 O   0  0  0  0  0  0  0  0  0  0  0  0
  189.2870  176.4460  136.7940 C   0  0  0  0  0  2  0  0  0  0  0  0
  186.7760  178.0500  137.4940 C   0  0  0  0  0  0  0  0  0  0  0  0
  183.8650  177.9940  141.3010 C   0  0  2  0  0  3  0  0  0  0  0  0
  182.5170  178.3120  141.3140 F   0  0  0  0  0  0  0  0  0  0  0  0
  183.6900  178.4800  143.6270 O   0  0  0  0  0  1  0  0  0  0  0  0
  185.8230  178.1970  142.8420 O   0  0  0  0  0  0  0  0  0  0  0  0
  184.4480  178.2520  142.6490 C   0  0  0  0  0  0  0  0  0  0  0  0
  184.8230  175.7930  135.8070 S   0  0  0  0  0  0  0  0  0  0  0  0
  183.7210  173.6720  137.1960 C   0  0  1  0  0  3  0  0  0  0  0  0
  183.6090  173.5720  134.6210 C   0  0  0  0  0  2  0  0  0  0  0  0
  183.7720  172.1470  136.9980 C   0  0  0  0  0  2  0  0  0  0  0  0
  183.5790  174.4550  135.8740 C   0  0  2  0  0  3  0  0  0  0  0  0
  182.7610  172.3570  134.8510 C   0  0  0  0  0  3  0  0  0  0  0  0
  182.8470  171.7220  135.9670 N   0  0  0  0  0  0  0  0  0  0  0  0
  182.5790  174.0280  138.1340 C   0  0  0  0  0  2  0  0  0  0  0  0
  180.3890  174.2050  138.3380 C   0  0  0  0  0  1  0  0  0  0  0  0
  181.4200  174.2930  137.4040 O   0  0  0  0  0  0  0  0  0  0  0  0
  180.5800  178.3630  135.6240 O   0  0  0  0  0  0  0  0  0  0  0  0
  181.1810  179.5470  135.1900 C   0  0  0  0  0  2  0  0  0  0  0  0
  180.1540  180.6200  135.0770 C   0  0  0  0  0  0  0  0  0  0  0  0
  178.9330  180.3210  135.0590 O   0  0  0  0  0  1  0  0  0  0  0  0
  180.5460  181.9440  134.9480 O   0  0  0  0  0  0  0  0  0  0  0  0
  1 18  1  0  0  0  0
  3  2  1  6  0  0  0
  3 11  1  0  0  0  0
  4 14  1  0  0  0  0
  5  1  1  0  0  0  0
  5 16  1  0  0  0  0
  7 35  1  6  0  0  0
  7 13  1  0  0  0  0
  8  6  2  0  0  0  0
  8  7  1  0  0  0  0
 10  6  1  1  0  0  0
 10 12  1  0  0  0  0
 10 15  1  0  0  0  0
 11 20  1  1  0  0  0
 12 17  1  0  0  0  0
 14  9  2  0  0  0  0
 15 13  1  6  0  0  0
 15  3  1  0  0  0  0
 16 19  1  0  0  0  0
 17 11  1  0  0  0  0
 18  4  1  0  0  0  0
 19 12  2  0  0  0  0
 19 14  1  0  0  0  0
 20 21  1  1  0  0  0
 20 24  1  0  0  0  0
 24 23  2  0  0  0  0
 24 22  1  0  0  0  0
 25  6  1  0  0  0  0
 26 32  1  1  0  0  0
 27 30  1  0  0  0  0
 27 29  1  0  0  0  0
 28 26  1  0  0  0  0
 29 25  1  6  0  0  0
 29 26  1  0  0  0  0
 30 31  2  0  0  0  0
 31 28  1  0  0  0  0
 34 32  1  0  0  0  0
 34 33  1  0  0  0  0
 36 35  1  0  0  0  0
 37 36  1  0  0  0  0
 38 37  1  0  0  0  0
 39 37  2  0  0  0  0
M  END
>  <MODEL>
6

>  <REMARK>
 VINA RESULT:      -4.9      4.017      8.360
  Name = 
  9 active torsions:
  status: ('A' for Active; 'I' for Inactive)
    1  A    between atoms: C_6  and  C_24
    2  A    between atoms: C_6  and  C_32
    3  A    between atoms: C_7  and  S_18
    4  A    between atoms: C_8  and  C_14
    5  A    between atoms: C_10  and  O_37
    6  A    between atoms: C_13  and  C_25
    7  A    between atoms: C_13  and  O_37
    8  A    between atoms: C_14  and  O_23
    9  A    between atoms: C_16  and  S_18
                            x       y       z     vdW  Elec       q    Type
                         _______ _______ _______ _____ _____    ______ ____

>  <TORSDO>
F 9

$$$$
=
 OpenBabel11062417543D

 39 42  0  0  1  0  0  0  0  0999 V2000
  190.0460  177.1760  134.7700 C   0  0  0  0  0  2  0  0  0  0  0  0
  188.5350  179.7940  140.9670 O   0  0  0  0  0  1  0  0  0  0  0  0
  187.9060  178.6260  141.4060 C   0  0  2  0  0  3  0  0  0  0  0  0
  191.2640  176.3570  136.7140 N   0  0  0  0  0  2  0  0  0  0  0  0
  188.7120  177.6030  135.3470 C   0  0  0  0  0  2  0  0  0  0  0  0
  185.9520  177.3770  138.3530 C   0  0  0  0  0  0  0  0  0  0  0  0
  184.3300  178.4140  140.0010 C   0  0  1  0  0  3  0  0  0  0  0  0
  184.6900  177.5670  138.7940 C   0  0  0  0  0  3  0  0  0  0  0  0
  191.3490  177.1180  138.8940 O   0  0  0  0  0  0  0  0  0  0  0  0
  187.1170  178.1050  139.0220 C   0  0  2  0  0  3  0  0  0  0  0  0
  188.8990  177.4540  141.3840 C   0  0  2  0  0  3  0  0  0  0  0  0
  188.4830  177.4370  138.9230 C   0  0  0  0  0  0  0  0  0  0  0  0
  185.5210  179.1590  140.6160 C   0  0  0  0  0  2  0  0  0  0  0  0
  190.6560  176.9810  137.8500 C   0  0  0  0  0  0  0  0  0  0  0  0
  186.7410  178.2710  140.4980 C   0  0  2  0  0  3  0  0  0  0  0  0
  188.8660  178.3700  136.6560 C   0  0  0  0  0  2  0  0  0  0  0  0
  189.0060  176.8480  140.0850 O   0  0  0  0  0  0  0  0  0  0  0  0
  190.5550  175.9580  135.5110 C   0  0  0  0  0  2  0  0  0  0  0  0
  189.2610  177.4990  137.8160 C   0  0  0  0  0  0  0  0  0  0  0  0
  188.5200  176.3990  142.4220 C   0  0  2  0  0  3  0  0  0  0  0  0
  187.4860  176.8600  143.2200 F   0  0  0  0  0  0  0  0  0  0  0  0
  190.5590  175.2460  142.8600 O   0  0  0  0  0  0  0  0  0  0  0  0
  189.8570  176.6640  144.5170 O   0  0  0  0  0  1  0  0  0  0  0  0
  189.6920  176.0570  143.2780 C   0  0  0  0  0  0  0  0  0  0  0  0
  186.1690  176.3300  136.9070 S   0  0  0  0  0  0  0  0  0  0  0  0
  183.9860  174.7430  136.3090 C   0  0  1  0  0  3  0  0  0  0  0  0
  183.9860  177.1410  135.3600 C   0  0  0  0  0  2  0  0  0  0  0  0
  183.1810  174.5070  135.0200 C   0  0  0  0  0  2  0  0  0  0  0  0
  184.3860  176.2180  136.5180 C   0  0  2  0  0  3  0  0  0  0  0  0
  182.5900  176.8120  134.9260 C   0  0  0  0  0  3  0  0  0  0  0  0
  182.2380  175.5820  134.7870 N   0  0  0  0  0  0  0  0  0  0  0  0
  183.1910  174.2480  137.5070 C   0  0  0  0  0  2  0  0  0  0  0  0
  181.2060  174.8650  138.2490 C   0  0  0  0  0  1  0  0  0  0  0  0
  182.5200  175.3100  138.1140 O   0  0  0  0  0  0  0  0  0  0  0  0
  183.3230  179.3220  139.6630 O   0  0  0  0  0  0  0  0  0  0  0  0
  182.2200  178.5320  139.3300 C   0  0  0  0  0  2  0  0  0  0  0  0
  181.3920  178.2900  140.5430 C   0  0  0  0  0  0  0  0  0  0  0  0
  180.4630  177.4420  140.5110 O   0  0  0  0  0  0  0  0  0  0  0  0
  181.6170  179.0280  141.6960 O   0  0  0  0  0  1  0  0  0  0  0  0
  1  5  1  0  0  0  0
  1 18  1  0  0  0  0
  3  2  1  6  0  0  0
  4 14  1  0  0  0  0
  5 16  1  0  0  0  0
  6  8  2  0  0  0  0
  7 35  1  6  0  0  0
  7 13  1  0  0  0  0
  8  7  1  0  0  0  0
 10  6  1  6  0  0  0
 10 15  1  0  0  0  0
 11  3  1  0  0  0  0
 11 20  1  1  0  0  0
 12 10  1  0  0  0  0
 12 17  1  0  0  0  0
 14  9  2  0  0  0  0
 15 13  1  6  0  0  0
 15  3  1  0  0  0  0
 16 19  1  0  0  0  0
 17 11  1  0  0  0  0
 18  4  1  0  0  0  0
 19 14  1  0  0  0  0
 19 12  2  0  0  0  0
 20 21  1  1  0  0  0
 20 24  1  0  0  0  0
 22 24  2  0  0  0  0
 24 23  1  0  0  0  0
 25  6  1  0  0  0  0
 26 29  1  0  0  0  0
 26 32  1  1  0  0  0
 27 29  1  0  0  0  0
 28 26  1  0  0  0  0
 29 25  1  6  0  0  0
 30 27  1  0  0  0  0
 31 30  2  0  0  0  0
 31 28  1  0  0  0  0
 32 34  1  0  0  0  0
 34 33  1  0  0  0  0
 36 35  1  0  0  0  0
 36 37  1  0  0  0  0
 37 39  1  0  0  0  0
 38 37  2  0  0  0  0
M  END
>  <MODEL>
7

>  <REMARK>
 VINA RESULT:      -4.9      3.468      8.640
  Name = 
  9 active torsions:
  status: ('A' for Active; 'I' for Inactive)
    1  A    between atoms: C_6  and  C_24
    2  A    between atoms: C_6  and  C_32
    3  A    between atoms: C_7  and  S_18
    4  A    between atoms: C_8  and  C_14
    5  A    between atoms: C_10  and  O_37
    6  A    between atoms: C_13  and  C_25
    7  A    between atoms: C_13  and  O_37
    8  A    between atoms: C_14  and  O_23
    9  A    between atoms: C_16  and  S_18
                            x       y       z     vdW  Elec       q    Type
                         _______ _______ _______ _____ _____    ______ ____

>  <TORSDO>
F 9

$$$$
=
 OpenBabel11062417543D

 39 42  0  0  1  0  0  0  0  0999 V2000
  183.6310  179.7530  143.3010 C   0  0  0  0  0  2  0  0  0  0  0  0
  189.0550  179.4090  139.0570 O   0  0  0  0  0  1  0  0  0  0  0  0
  189.0430  178.0120  139.0110 C   0  0  2  0  0  3  0  0  0  0  0  0
  183.2650  179.0860  140.9870 N   0  0  0  0  0  2  0  0  0  0  0  0
  185.0530  179.3060  143.5730 C   0  0  0  0  0  2  0  0  0  0  0  0
  188.2370  176.9350  142.6010 C   0  0  0  0  0  0  0  0  0  0  0  0
  190.7020  176.5470  142.1590 C   0  0  1  0  0  3  0  0  0  0  0  0
  189.4130  176.3650  142.9400 C   0  0  0  0  0  3  0  0  0  0  0  0
  184.6630  179.1240  139.1480 O   0  0  0  0  0  0  0  0  0  0  0  0
  188.1630  177.8980  141.4170 C   0  0  2  0  0  3  0  0  0  0  0  0
  187.7030  177.5170  138.4470 C   0  0  2  0  0  3  0  0  0  0  0  0
  186.8120  178.0200  140.7230 C   0  0  0  0  0  0  0  0  0  0  0  0
  190.5940  177.5530  141.0060 C   0  0  0  0  0  2  0  0  0  0  0  0
  184.5660  178.9840  140.3970 C   0  0  0  0  0  0  0  0  0  0  0  0
  189.2110  177.4290  140.4030 C   0  0  2  0  0  3  0  0  0  0  0  0
  185.9940  179.6360  142.4200 C   0  0  0  0  0  2  0  0  0  0  0  0
  186.6770  177.4410  139.4520 O   0  0  0  0  0  0  0  0  0  0  0  0
  182.9580  178.7670  142.3700 C   0  0  0  0  0  2  0  0  0  0  0  0
  185.7910  178.7620  141.2130 C   0  0  0  0  0  0  0  0  0  0  0  0
  187.8670  176.1580  137.7670 C   0  0  2  0  0  3  0  0  0  0  0  0
  189.1200  176.0620  137.1840 F   0  0  0  0  0  0  0  0  0  0  0  0
  186.0190  174.9950  136.8150 O   0  0  0  0  0  1  0  0  0  0  0  0
  186.6920  176.8650  135.6770 O   0  0  0  0  0  0  0  0  0  0  0  0
  186.8190  175.9610  136.7240 C   0  0  0  0  0  0  0  0  0  0  0  0
  186.8210  176.5880  143.6550 S   0  0  0  0  0  0  0  0  0  0  0  0
  188.3180  176.7530  145.9730 C   0  0  1  0  0  3  0  0  0  0  0  0
  186.2590  178.2970  145.7940 C   0  0  0  0  0  2  0  0  0  0  0  0
  187.9420  176.8490  147.4610 C   0  0  0  0  0  2  0  0  0  0  0  0
  187.4100  177.6010  145.0580 C   0  0  2  0  0  3  0  0  0  0  0  0
  186.7760  178.8900  147.0710 C   0  0  0  0  0  3  0  0  0  0  0  0
  187.5650  178.2020  147.8200 N   0  0  0  0  0  0  0  0  0  0  0  0
  189.7700  177.1630  145.7850 C   0  0  0  0  0  2  0  0  0  0  0  0
  191.7050  176.3390  146.4530 C   0  0  0  0  0  1  0  0  0  0  0  0
  190.5080  176.8680  146.9320 O   0  0  0  0  0  0  0  0  0  0  0  0
  191.7340  176.9220  143.0230 O   0  0  0  0  0  0  0  0  0  0  0  0
  192.0450  178.2360  142.6670 C   0  0  0  0  0  2  0  0  0  0  0  0
  191.6440  179.1610  143.7620 C   0  0  0  0  0  0  0  0  0  0  0  0
  192.4300  179.3810  144.7190 O   0  0  0  0  0  1  0  0  0  0  0  0
  190.3870  179.7490  143.7480 O   0  0  0  0  0  0  0  0  0  0  0  0
  1  5  1  0  0  0  0
  3  2  1  1  0  0  0
  3 15  1  0  0  0  0
  4 18  1  0  0  0  0
  6  8  2  0  0  0  0
  6 25  1  0  0  0  0
  7  8  1  0  0  0  0
  7 35  1  1  0  0  0
  9 14  2  0  0  0  0
 10 12  1  6  0  0  0
 10  6  1  0  0  0  0
 11 20  1  1  0  0  0
 11  3  1  0  0  0  0
 11 17  1  0  0  0  0
 12 19  2  0  0  0  0
 13  7  1  0  0  0  0
 14  4  1  0  0  0  0
 14 19  1  0  0  0  0
 15 13  1  1  0  0  0
 15 10  1  0  0  0  0
 16  5  1  0  0  0  0
 17 12  1  0  0  0  0
 18  1  1  0  0  0  0
 19 16  1  0  0  0  0
 20 21  1  6  0  0  0
 23 24  2  0  0  0  0
 24 22  1  0  0  0  0
 24 20  1  0  0  0  0
 26 32  1  1  0  0  0
 26 28  1  0  0  0  0
 27 30  1  0  0  0  0
 28 31  1  0  0  0  0
 29 25  1  6  0  0  0
 29 27  1  0  0  0  0
 29 26  1  0  0  0  0
 30 31  2  0  0  0  0
 32 34  1  0  0  0  0
 33 34  1  0  0  0  0
 36 35  1  0  0  0  0
 36 37  1  0  0  0  0
 37 38  1  0  0  0  0
 39 37  2  0  0  0  0
M  END
>  <MODEL>
8

>  <REMARK>
 VINA RESULT:      -4.9      2.620      4.872
  Name = 
  9 active torsions:
  status: ('A' for Active; 'I' for Inactive)
    1  A    between atoms: C_6  and  C_24
    2  A    between atoms: C_6  and  C_32
    3  A    between atoms: C_7  and  S_18
    4  A    between atoms: C_8  and  C_14
    5  A    between atoms: C_10  and  O_37
    6  A    between atoms: C_13  and  C_25
    7  A    between atoms: C_13  and  O_37
    8  A    between atoms: C_14  and  O_23
    9  A    between atoms: C_16  and  S_18
                            x       y       z     vdW  Elec       q    Type
                         _______ _______ _______ _____ _____    ______ ____

>  <TORSDO>
F 9

$$$$
=
 OpenBabel11062417543D

 39 42  0  0  1  0  0  0  0  0999 V2000
  180.1910  182.1350  138.6460 C   0  0  0  0  0  2  0  0  0  0  0  0
  182.0400  176.5560  135.0400 O   0  0  0  0  0  1  0  0  0  0  0  0
  182.5620  175.8970  136.1570 C   0  0  2  0  0  3  0  0  0  0  0  0
  178.9310  180.0730  138.9540 N   0  0  0  0  0  2  0  0  0  0  0  0
  181.5680  181.6460  138.2470 C   0  0  0  0  0  2  0  0  0  0  0  0
  184.3400  178.6450  138.1530 C   0  0  0  0  0  0  0  0  0  0  0  0
  186.0800  177.2240  136.9790 C   0  0  1  0  0  3  0  0  0  0  0  0
  185.6210  178.2450  138.0050 C   0  0  0  0  0  3  0  0  0  0  0  0
  178.9530  178.0820  137.7830 O   0  0  0  0  0  0  0  0  0  0  0  0
  183.2610  178.1330  137.2020 C   0  0  2  0  0  3  0  0  0  0  0  0
  181.4620  175.6960  137.2100 C   0  0  2  0  0  3  0  0  0  0  0  0
  181.8360  178.1050  137.7410 C   0  0  0  0  0  0  0  0  0  0  0  0
  184.9740  176.7680  136.0180 C   0  0  0  0  0  2  0  0  0  0  0  0
  179.6130  179.0770  138.1850 C   0  0  0  0  0  0  0  0  0  0  0  0
  183.6730  176.7160  136.7910 C   0  0  2  0  0  3  0  0  0  0  0  0
  181.5080  180.5110  137.2310 C   0  0  0  0  0  2  0  0  0  0  0  0
  181.2770  176.8530  138.0420 O   0  0  0  0  0  0  0  0  0  0  0  0
  179.5800  181.1740  139.6440 C   0  0  0  0  0  2  0  0  0  0  0  0
  181.0510  179.2060  137.8200 C   0  0  0  0  0  0  0  0  0  0  0  0
  181.7550  174.4720  138.0770 C   0  0  2  0  0  3  0  0  0  0  0  0
  183.1170  174.2200  138.1060 F   0  0  0  0  0  0  0  0  0  0  0  0
  179.7970  173.1630  137.7160 O   0  0  0  0  0  1  0  0  0  0  0  0
  181.7320  172.2950  136.8490 O   0  0  0  0  0  0  0  0  0  0  0  0
  181.0400  173.2720  137.5540 C   0  0  0  0  0  0  0  0  0  0  0  0
  184.0030  179.8620  139.4340 S   0  0  0  0  0  0  0  0  0  0  0  0
  183.0110  178.8400  141.8030 C   0  0  1  0  0  3  0  0  0  0  0  0
  185.5710  178.8050  141.4930 C   0  0  0  0  0  2  0  0  0  0  0  0
  183.4470  178.9800  143.2710 C   0  0  0  0  0  2  0  0  0  0  0  0
  184.1950  178.6920  140.8260 C   0  0  2  0  0  3  0  0  0  0  0  0
  185.5680  178.0190  142.7690 C   0  0  0  0  0  3  0  0  0  0  0  0
  184.5650  178.1080  143.5710 N   0  0  0  0  0  0  0  0  0  0  0  0
  182.0700  177.6540  141.6600 C   0  0  0  0  0  2  0  0  0  0  0  0
  179.9680  178.0690  142.1920 C   0  0  0  0  0  1  0  0  0  0  0  0
  180.8530  178.0660  141.1150 O   0  0  0  0  0  0  0  0  0  0  0  0
  187.1620  177.7280  136.2550 O   0  0  0  0  0  0  0  0  0  0  0  0
  188.2940  177.2170  136.8930 C   0  0  0  0  0  2  0  0  0  0  0  0
  188.9770  178.3030  137.6500 C   0  0  0  0  0  0  0  0  0  0  0  0
  188.9000  179.4920  137.2500 O   0  0  0  0  0  0  0  0  0  0  0  0
  189.7330  177.9960  138.7720 O   0  0  0  0  0  1  0  0  0  0  0  0
  1 18  1  0  0  0  0
  3  2  1  6  0  0  0
  3 15  1  0  0  0  0
  3 11  1  0  0  0  0
  4 18  1  0  0  0  0
  5  1  1  0  0  0  0
  6 25  1  0  0  0  0
  7 35  1  6  0  0  0
  7  8  1  0  0  0  0
  8  6  2  0  0  0  0
  9 14  2  0  0  0  0
 10 12  1  1  0  0  0
 10  6  1  0  0  0  0
 11 17  1  0  0  0  0
 11 20  1  1  0  0  0
 12 19  2  0  0  0  0
 12 17  1  0  0  0  0
 13  7  1  0  0  0  0
 14  4  1  0  0  0  0
 15 13  1  6  0  0  0
 15 10  1  0  0  0  0
 16 19  1  0  0  0  0
 16  5  1  0  0  0  0
 19 14  1  0  0  0  0
 20 21  1  6  0  0  0
 23 24  2  0  0  0  0
 24 22  1  0  0  0  0
 24 20  1  0  0  0  0
 26 32  1  1  0  0  0
 26 28  1  0  0  0  0
 27 30  1  0  0  0  0
 28 31  1  0  0  0  0
 29 25  1  6  0  0  0
 29 27  1  0  0  0  0
 29 26  1  0  0  0  0
 30 31  2  0  0  0  0
 34 32  1  0  0  0  0
 34 33  1  0  0  0  0
 35 36  1  0  0  0  0
 36 37  1  0  0  0  0
 37 39  1  0  0  0  0
 38 37  2  0  0  0  0
M  END
>  <MODEL>
9

>  <REMARK>
 VINA RESULT:      -4.8      3.170      6.032
  Name = 
  9 active torsions:
  status: ('A' for Active; 'I' for Inactive)
    1  A    between atoms: C_6  and  C_24
    2  A    between atoms: C_6  and  C_32
    3  A    between atoms: C_7  and  S_18
    4  A    between atoms: C_8  and  C_14
    5  A    between atoms: C_10  and  O_37
    6  A    between atoms: C_13  and  C_25
    7  A    between atoms: C_13  and  O_37
    8  A    between atoms: C_14  and  O_23
    9  A    between atoms: C_16  and  S_18
                            x       y       z     vdW  Elec       q    Type
                         _______ _______ _______ _____ _____    ______ ____

>  <TORSDO>
F 9

$$$$
