=
 OpenBabel11062414143D

 32 36  0  0  1  0  0  0  0  0999 V2000
  187.3930  178.2480  139.7690 C   0  0  0  0  0  0  0  0  0  0  0  0
  183.5180  178.9630  144.4070 N   0  0  0  0  0  1  0  0  0  0  0  0
  185.2260  178.2840  137.9460 N   0  0  0  0  0  0  0  0  0  0  0  0
  183.7390  178.7400  141.9990 N   0  0  0  0  0  0  0  0  0  0  0  0
  181.3470  178.7750  141.1970 S   0  0  0  0  0  0  0  0  0  0  0  0
  182.9580  178.8830  143.1010 C   0  0  0  0  0  0  0  0  0  0  0  0
  181.5870  178.9380  142.8560 C   0  0  0  0  0  0  0  0  0  0  0  0
  182.9940  178.6690  140.8730 C   0  0  0  0  0  0  0  0  0  0  0  0
  186.5770  178.1720  137.4940 C   0  0  0  0  0  0  0  0  0  0  0  0
  185.9970  178.5250  140.2630 C   0  0  0  0  0  2  0  0  0  0  0  0
  187.6650  178.1190  138.4700 C   0  0  0  0  0  3  0  0  0  0  0  0
  183.5320  178.5160  139.5550 N   0  0  0  0  0  2  0  0  0  0  0  0
  184.9180  178.4210  139.2030 C   0  0  0  0  0  0  0  0  0  0  0  0
  186.8310  178.0630  136.2350 N   0  0  0  0  0  2  0  0  0  0  0  0
  179.7030  177.7960  143.8820 N   0  0  0  0  0  2  0  0  0  0  0  0
  180.5090  179.0270  143.8910 C   0  0  2  0  0  3  0  0  0  0  0  0
  179.1970  179.0220  143.2520 C   0  0  0  0  0  2  0  0  0  0  0  0
  188.5030  178.2080  140.7610 C   0  0  0  0  0  2  0  0  0  0  0  0
  187.9510  178.0400  142.1670 C   0  0  0  0  0  2  0  0  0  0  0  0
  189.0400  177.5790  143.1200 C   0  0  1  0  0  0  0  0  0  0  0  0
  190.5730  176.4460  145.4830 O   0  0  0  0  0  0  0  0  0  0  0  0
  189.1930  176.1310  143.2500 C   0  0  0  0  0  2  0  0  0  0  0  0
  191.4670  177.5040  145.2450 C   0  0  0  0  0  2  0  0  0  0  0  0
  191.5180  177.8410  143.7690 C   0  0  0  0  0  2  0  0  0  0  0  0
  190.2250  178.5320  143.3690 C   0  0  0  0  0  2  0  0  0  0  0  0
  189.2390  176.9350  145.5540 C   0  0  2  0  0  3  0  0  0  0  0  0
  188.4580  176.8820  144.2960 N   0  0  1  0  0  0  0  0  0  0  0  0
  188.9960  178.2200  146.3620 C   0  0  0  0  0  2  0  0  0  0  0  0
  188.0160  177.5810  148.6170 S   0  0  0  0  0  0  0  0  0  0  0  0
  187.8230  178.0690  147.2790 C   0  0  0  0  0  0  0  0  0  0  0  0
  185.8020  179.2990  147.1670 O   0  0  0  0  0  1  0  0  0  0  0  0
  186.4460  178.1490  146.7090 C   0  0  0  0  0  2  0  0  0  0  0  0
  1 10  1  0  0  0  0
  1 18  1  0  0  0  0
  3 13  2  0  0  0  0
  4  6  1  0  0  0  0
  5  7  1  0  0  0  0
  6  2  1  0  0  0  0
  7  6  2  0  0  0  0
  8  5  1  0  0  0  0
  8  4  2  0  0  0  0
  9  3  1  0  0  0  0
  9 11  1  0  0  0  0
 11  1  2  0  0  0  0
 12  8  1  0  0  0  0
 13 12  1  0  0  0  0
 13 10  1  0  0  0  0
 14  9  2  0  0  0  0
 15 16  1  0  0  0  0
 16  7  1  6  0  0  0
 17 15  1  0  0  0  0
 17 16  1  0  0  0  0
 18 19  1  0  0  0  0
 20 19  1  6  0  0  0
 20 22  1  0  0  0  0
 20 25  1  0  0  0  0
 20 27  1  0  0  0  0
 21 26  1  0  0  0  0
 23 21  1  0  0  0  0
 24 23  1  0  0  0  0
 25 24  1  0  0  0  0
 26 28  1  6  0  0  0
 27 22  1  6  0  0  0
 27 26  1  0  0  0  0
 28 30  1  0  0  0  0
 30 29  2  0  0  0  0
 32 31  1  0  0  0  0
 32 30  1  0  0  0  0
M  END
>  <MODEL>
1

>  <REMARK>
 VINA RESULT:      -8.2      0.000      0.000
  Name = 
  7 active torsions:
  status: ('A' for Active; 'I' for Inactive)
    1  A    between atoms: C_1  and  C_29
    2  A    between atoms: C_5  and  C_13
    3  A    between atoms: C_7  and  C_9
    4  A    between atoms: C_7  and  C_29
    5  A    between atoms: C_14  and  C_17
    6  A    between atoms: C_14  and  C_22
    7  A    between atoms: C_17  and  C_28
                            x       y       z     vdW  Elec       q    Type
                         _______ _______ _______ _____ _____    ______ ____

>  <TORSDO>
F 7

$$$$
=
 OpenBabel11062414143D

 32 36  0  0  1  0  0  0  0  0999 V2000
  188.2690  177.4190  145.1430 C   0  0  0  0  0  0  0  0  0  0  0  0
  183.8640  178.0260  140.9870 N   0  0  0  0  0  1  0  0  0  0  0  0
  186.5090  178.3550  147.1530 N   0  0  0  0  0  0  0  0  0  0  0  0
  184.4590  178.2860  143.3270 N   0  0  0  0  0  0  0  0  0  0  0  0
  182.3630  179.2520  144.3480 S   0  0  0  0  0  0  0  0  0  0  0  0
  183.5500  178.4000  142.3240 C   0  0  0  0  0  0  0  0  0  0  0  0
  182.3080  178.9090  142.7000 C   0  0  0  0  0  0  0  0  0  0  0  0
  183.9490  178.7140  144.5040 C   0  0  0  0  0  0  0  0  0  0  0  0
  187.8430  177.9490  147.4630 C   0  0  0  0  0  0  0  0  0  0  0  0
  186.8240  177.6910  144.8130 C   0  0  0  0  0  2  0  0  0  0  0  0
  188.7330  177.5070  146.3900 C   0  0  0  0  0  3  0  0  0  0  0  0
  184.6680  178.7200  145.7430 N   0  0  0  0  0  2  0  0  0  0  0  0
  186.0140  178.2770  145.9530 C   0  0  0  0  0  0  0  0  0  0  0  0
  188.2770  178.0230  148.6750 N   0  0  0  0  0  2  0  0  0  0  0  0
  180.2970  180.2320  142.3730 N   0  0  0  0  0  2  0  0  0  0  0  0
  181.1570  179.1930  141.7860 C   0  0  2  0  0  3  0  0  0  0  0  0
  179.9010  178.8200  142.4270 C   0  0  0  0  0  2  0  0  0  0  0  0
  189.1720  176.9560  144.0530 C   0  0  0  0  0  2  0  0  0  0  0  0
  188.3650  176.5780  142.8210 C   0  0  0  0  0  2  0  0  0  0  0  0
  188.8800  177.3100  141.5950 C   0  0  1  0  0  0  0  0  0  0  0  0
  189.1190  178.9560  139.0550 O   0  0  0  0  0  0  0  0  0  0  0  0
  188.8660  178.7700  141.6800 C   0  0  0  0  0  2  0  0  0  0  0  0
  190.0920  178.0110  138.6870 C   0  0  0  0  0  2  0  0  0  0  0  0
  190.8190  177.4870  139.9080 C   0  0  0  0  0  2  0  0  0  0  0  0
  189.8880  176.5740  140.6910 C   0  0  0  0  0  2  0  0  0  0  0  0
  187.9290  178.3000  139.4760 C   0  0  2  0  0  3  0  0  0  0  0  0
  187.7910  178.0730  140.9330 N   0  0  1  0  0  0  0  0  0  0  0  0
  187.4340  177.1160  138.6300 C   0  0  0  0  0  2  0  0  0  0  0  0
  185.1990  177.3110  137.4380 S   0  0  0  0  0  0  0  0  0  0  0  0
  186.6090  177.5830  137.4730 C   0  0  0  0  0  0  0  0  0  0  0  0
  188.1820  177.0900  135.7720 O   0  0  0  0  0  1  0  0  0  0  0  0
  187.3020  178.0660  136.2410 C   0  0  0  0  0  2  0  0  0  0  0  0
  1 11  2  0  0  0  0
  2  6  1  0  0  0  0
  3  9  1  0  0  0  0
  4  8  2  0  0  0  0
  5  8  1  0  0  0  0
  6  7  2  0  0  0  0
  6  4  1  0  0  0  0
  7  5  1  0  0  0  0
  8 12  1  0  0  0  0
  9 14  2  0  0  0  0
 10  1  1  0  0  0  0
 10 13  1  0  0  0  0
 11  9  1  0  0  0  0
 12 13  1  0  0  0  0
 13  3  2  0  0  0  0
 15 17  1  0  0  0  0
 16 15  1  0  0  0  0
 16 17  1  0  0  0  0
 16  7  1  1  0  0  0
 18  1  1  0  0  0  0
 19 18  1  0  0  0  0
 20 22  1  0  0  0  0
 20 19  1  1  0  0  0
 21 26  1  0  0  0  0
 23 21  1  0  0  0  0
 23 24  1  0  0  0  0
 24 25  1  0  0  0  0
 25 20  1  0  0  0  0
 26 28  1  6  0  0  0
 26 27  1  0  0  0  0
 27 20  1  0  0  0  0
 27 22  1  1  0  0  0
 29 30  2  0  0  0  0
 30 28  1  0  0  0  0
 31 32  1  0  0  0  0
 32 30  1  0  0  0  0
M  END
>  <MODEL>
2

>  <REMARK>
 VINA RESULT:      -8.2      3.055      6.500
  Name = 
  7 active torsions:
  status: ('A' for Active; 'I' for Inactive)
    1  A    between atoms: C_1  and  C_29
    2  A    between atoms: C_5  and  C_13
    3  A    between atoms: C_7  and  C_9
    4  A    between atoms: C_7  and  C_29
    5  A    between atoms: C_14  and  C_17
    6  A    between atoms: C_14  and  C_22
    7  A    between atoms: C_17  and  C_28
                            x       y       z     vdW  Elec       q    Type
                         _______ _______ _______ _____ _____    ______ ____

>  <TORSDO>
F 7

$$$$
=
 OpenBabel11062414143D

 32 36  0  0  1  0  0  0  0  0999 V2000
  190.2350  176.8760  139.3550 C   0  0  0  0  0  0  0  0  0  0  0  0
  195.9050  174.6630  139.4170 N   0  0  0  0  0  1  0  0  0  0  0  0
  190.2240  176.7830  136.5250 N   0  0  0  0  0  0  0  0  0  0  0  0
  194.0380  175.3500  138.0230 N   0  0  0  0  0  0  0  0  0  0  0  0
  194.9240  175.0340  135.6810 S   0  0  0  0  0  0  0  0  0  0  0  0
  195.3060  174.8760  138.1430 C   0  0  0  0  0  0  0  0  0  0  0  0
  195.9640  174.6220  136.9410 C   0  0  0  0  0  0  0  0  0  0  0  0
  193.6850  175.4880  136.7250 C   0  0  0  0  0  0  0  0  0  0  0  0
  189.0770  177.2120  137.2600 C   0  0  0  0  0  0  0  0  0  0  0  0
  191.4010  176.2720  138.6160 C   0  0  0  0  0  2  0  0  0  0  0  0
  189.1360  177.2830  138.7190 C   0  0  0  0  0  3  0  0  0  0  0  0
  192.4120  175.9690  136.2790 N   0  0  0  0  0  2  0  0  0  0  0  0
  191.3130  176.3700  137.1050 C   0  0  0  0  0  0  0  0  0  0  0  0
  188.0130  177.5890  136.6360 N   0  0  0  0  0  2  0  0  0  0  0  0
  198.3000  175.2880  136.9920 N   0  0  0  0  0  2  0  0  0  0  0  0
  197.3790  174.1590  136.7900 C   0  0  2  0  0  3  0  0  0  0  0  0
  198.0000  174.8050  135.6390 C   0  0  0  0  0  2  0  0  0  0  0  0
  190.2900  176.9340  140.8420 C   0  0  0  0  0  2  0  0  0  0  0  0
  189.0860  177.6860  141.3870 C   0  0  0  0  0  2  0  0  0  0  0  0
  188.9160  177.4230  142.8730 C   0  0  1  0  0  0  0  0  0  0  0  0
  187.8010  176.7660  145.6190 O   0  0  0  0  0  0  0  0  0  0  0  0
  188.6990  176.0260  143.2460 C   0  0  0  0  0  2  0  0  0  0  0  0
  188.6720  177.7720  146.0720 C   0  0  0  0  0  2  0  0  0  0  0  0
  189.9170  177.8300  145.2110 C   0  0  0  0  0  2  0  0  0  0  0  0
  189.5600  178.4200  143.8560 C   0  0  0  0  0  2  0  0  0  0  0  0
  187.0200  177.2440  144.5310 C   0  0  2  0  0  3  0  0  0  0  0  0
  187.5410  176.9490  143.1760 N   0  0  1  0  0  0  0  0  0  0  0  0
  186.4180  178.6540  144.6530 C   0  0  0  0  0  2  0  0  0  0  0  0
  183.9500  178.8920  144.1020 S   0  0  0  0  0  0  0  0  0  0  0  0
  184.9790  178.5950  145.0600 C   0  0  0  0  0  0  0  0  0  0  0  0
  185.5530  179.2680  147.2570 O   0  0  0  0  0  1  0  0  0  0  0  0
  184.6420  178.5180  146.5120 C   0  0  0  0  0  2  0  0  0  0  0  0
  1 18  1  0  0  0  0
  3 13  2  0  0  0  0
  3  9  1  0  0  0  0
  4  6  1  0  0  0  0
  5  8  1  0  0  0  0
  5  7  1  0  0  0  0
  6  2  1  0  0  0  0
  7  6  2  0  0  0  0
  8  4  2  0  0  0  0
  9 11  1  0  0  0  0
 10  1  1  0  0  0  0
 11  1  2  0  0  0  0
 12  8  1  0  0  0  0
 12 13  1  0  0  0  0
 13 10  1  0  0  0  0
 14  9  2  0  0  0  0
 16  7  1  6  0  0  0
 16 15  1  0  0  0  0
 17 16  1  0  0  0  0
 17 15  1  0  0  0  0
 18 19  1  0  0  0  0
 20 19  1  6  0  0  0
 20 27  1  0  0  0  0
 20 22  1  0  0  0  0
 20 25  1  0  0  0  0
 21 23  1  0  0  0  0
 24 23  1  0  0  0  0
 25 24  1  0  0  0  0
 26 28  1  1  0  0  0
 26 21  1  0  0  0  0
 27 22  1  1  0  0  0
 27 26  1  0  0  0  0
 28 30  1  0  0  0  0
 29 30  2  0  0  0  0
 30 32  1  0  0  0  0
 32 31  1  0  0  0  0
M  END
>  <MODEL>
3

>  <REMARK>
 VINA RESULT:      -7.7      5.734      9.148
  Name = 
  7 active torsions:
  status: ('A' for Active; 'I' for Inactive)
    1  A    between atoms: C_1  and  C_29
    2  A    between atoms: C_5  and  C_13
    3  A    between atoms: C_7  and  C_9
    4  A    between atoms: C_7  and  C_29
    5  A    between atoms: C_14  and  C_17
    6  A    between atoms: C_14  and  C_22
    7  A    between atoms: C_17  and  C_28
                            x       y       z     vdW  Elec       q    Type
                         _______ _______ _______ _____ _____    ______ ____

>  <TORSDO>
F 7

$$$$
=
 OpenBabel11062414143D

 32 36  0  0  1  0  0  0  0  0999 V2000
  188.4520  177.8980  139.2590 C   0  0  0  0  0  0  0  0  0  0  0  0
  183.9410  178.6000  143.2840 N   0  0  0  0  0  1  0  0  0  0  0  0
  186.6020  178.1600  137.1320 N   0  0  0  0  0  0  0  0  0  0  0  0
  184.5250  178.4910  140.9290 N   0  0  0  0  0  0  0  0  0  0  0  0
  182.2920  178.7120  139.7740 S   0  0  0  0  0  0  0  0  0  0  0  0
  183.5880  178.6220  141.9050 C   0  0  0  0  0  0  0  0  0  0  0  0
  182.2780  178.7730  141.4570 C   0  0  0  0  0  0  0  0  0  0  0  0
  183.9620  178.5250  139.7000 C   0  0  0  0  0  0  0  0  0  0  0  0
  187.9990  177.9910  136.8860 C   0  0  0  0  0  0  0  0  0  0  0  0
  187.0120  178.2320  139.5500 C   0  0  0  0  0  2  0  0  0  0  0  0
  188.9170  177.8210  138.0120 C   0  0  0  0  0  3  0  0  0  0  0  0
  184.6910  178.4080  138.4730 N   0  0  0  0  0  2  0  0  0  0  0  0
  186.1080  178.2490  138.3320 C   0  0  0  0  0  0  0  0  0  0  0  0
  188.4410  177.9330  135.6760 N   0  0  0  0  0  2  0  0  0  0  0  0
  180.1020  177.8130  141.9550 N   0  0  0  0  0  2  0  0  0  0  0  0
  181.0570  178.8720  142.3170 C   0  0  2  0  0  3  0  0  0  0  0  0
  179.8910  179.1930  141.5010 C   0  0  0  0  0  2  0  0  0  0  0  0
  189.3900  177.7390  140.4050 C   0  0  0  0  0  2  0  0  0  0  0  0
  188.7300  178.1960  141.6970 C   0  0  0  0  0  2  0  0  0  0  0  0
  189.4670  177.6400  142.9020 C   0  0  1  0  0  0  0  0  0  0  0  0
  190.1800  176.3820  145.5710 O   0  0  0  0  0  0  0  0  0  0  0  0
  189.4430  176.1840  143.0400 C   0  0  0  0  0  2  0  0  0  0  0  0
  191.2010  177.3480  145.6080 C   0  0  0  0  0  2  0  0  0  0  0  0
  191.6860  177.6690  144.2100 C   0  0  0  0  0  2  0  0  0  0  0  0
  190.6230  178.4770  143.4850 C   0  0  0  0  0  2  0  0  0  0  0  0
  188.9300  176.9960  145.2840 C   0  0  2  0  0  3  0  0  0  0  0  0
  188.5230  177.0090  143.8600 N   0  0  1  0  0  0  0  0  0  0  0  0
  188.5950  178.3040  146.0200 C   0  0  0  0  0  2  0  0  0  0  0  0
  187.9700  177.6090  148.3820 S   0  0  0  0  0  0  0  0  0  0  0  0
  187.5690  178.0790  147.0850 C   0  0  0  0  0  0  0  0  0  0  0  0
  185.5530  179.3150  146.9440 O   0  0  0  0  0  1  0  0  0  0  0  0
  186.1250  178.0650  146.7040 C   0  0  0  0  0  2  0  0  0  0  0  0
  1 10  1  0  0  0  0
  1 18  1  0  0  0  0
  3 13  2  0  0  0  0
  4  6  1  0  0  0  0
  5  7  1  0  0  0  0
  6  2  1  0  0  0  0
  7  6  2  0  0  0  0
  8  5  1  0  0  0  0
  8  4  2  0  0  0  0
  9  3  1  0  0  0  0
  9 11  1  0  0  0  0
 11  1  2  0  0  0  0
 12  8  1  0  0  0  0
 13 12  1  0  0  0  0
 13 10  1  0  0  0  0
 14  9  2  0  0  0  0
 15 16  1  0  0  0  0
 16  7  1  6  0  0  0
 17 15  1  0  0  0  0
 17 16  1  0  0  0  0
 18 19  1  0  0  0  0
 20 19  1  6  0  0  0
 20 22  1  0  0  0  0
 20 25  1  0  0  0  0
 20 27  1  0  0  0  0
 21 23  1  0  0  0  0
 24 23  1  0  0  0  0
 25 24  1  0  0  0  0
 26 21  1  0  0  0  0
 26 28  1  6  0  0  0
 27 22  1  6  0  0  0
 27 26  1  0  0  0  0
 28 30  1  0  0  0  0
 30 29  2  0  0  0  0
 32 31  1  0  0  0  0
 32 30  1  0  0  0  0
M  END
>  <MODEL>
4

>  <REMARK>
 VINA RESULT:      -7.6      1.017      1.187
  Name = 
  7 active torsions:
  status: ('A' for Active; 'I' for Inactive)
    1  A    between atoms: C_1  and  C_29
    2  A    between atoms: C_5  and  C_13
    3  A    between atoms: C_7  and  C_9
    4  A    between atoms: C_7  and  C_29
    5  A    between atoms: C_14  and  C_17
    6  A    between atoms: C_14  and  C_22
    7  A    between atoms: C_17  and  C_28
                            x       y       z     vdW  Elec       q    Type
                         _______ _______ _______ _____ _____    ______ ____

>  <TORSDO>
F 7

$$$$
=
 OpenBabel11062414143D

 32 36  0  0  1  0  0  0  0  0999 V2000
  185.7780  178.0900  143.8570 C   0  0  0  0  0  0  0  0  0  0  0  0
  188.0580  177.6680  138.2300 N   0  0  0  0  0  1  0  0  0  0  0  0
  188.3090  177.4250  144.9380 N   0  0  0  0  0  0  0  0  0  0  0  0
  188.5360  177.4790  140.6040 N   0  0  0  0  0  0  0  0  0  0  0  0
  190.9560  176.7630  140.6470 S   0  0  0  0  0  0  0  0  0  0  0  0
  188.9440  177.3950  139.3100 C   0  0  0  0  0  0  0  0  0  0  0  0
  190.2750  177.0220  139.1280 C   0  0  0  0  0  0  0  0  0  0  0  0
  189.5360  177.1620  141.4560 C   0  0  0  0  0  0  0  0  0  0  0  0
  187.1960  177.7250  145.7820 C   0  0  0  0  0  0  0  0  0  0  0  0
  186.9690  177.9340  142.9470 C   0  0  0  0  0  2  0  0  0  0  0  0
  185.8960  178.0260  145.1840 C   0  0  0  0  0  3  0  0  0  0  0  0
  189.4120  177.1560  142.8830 N   0  0  0  0  0  2  0  0  0  0  0  0
  188.2410  177.4850  143.6410 C   0  0  0  0  0  0  0  0  0  0  0  0
  187.3230  177.6750  147.0640 N   0  0  0  0  0  2  0  0  0  0  0  0
  190.6210  175.4590  137.3010 N   0  0  0  0  0  2  0  0  0  0  0  0
  190.9560  176.7960  137.8150 C   0  0  2  0  0  3  0  0  0  0  0  0
  191.9230  175.7100  137.9300 C   0  0  0  0  0  2  0  0  0  0  0  0
  184.4570  178.4110  143.2500 C   0  0  0  0  0  2  0  0  0  0  0  0
  184.6310  179.3610  142.0750 C   0  0  0  0  0  2  0  0  0  0  0  0
  184.1330  178.7220  140.7900 C   0  0  1  0  0  0  0  0  0  0  0  0
  183.1830  178.2160  137.9520 O   0  0  0  0  0  0  0  0  0  0  0  0
  185.1130  178.6350  139.7080 C   0  0  0  0  0  2  0  0  0  0  0  0
  182.3040  177.2960  138.5470 C   0  0  0  0  0  2  0  0  0  0  0  0
  182.9270  176.6820  139.7830 C   0  0  0  0  0  2  0  0  0  0  0  0
  182.9670  177.7200  140.8920 C   0  0  0  0  0  2  0  0  0  0  0  0
  183.1010  179.4740  138.6120 C   0  0  2  0  0  3  0  0  0  0  0  0
  184.0950  179.7120  139.6840 N   0  0  1  0  0  0  0  0  0  0  0  0
  181.7000  180.0050  138.9580 C   0  0  0  0  0  2  0  0  0  0  0  0
  180.7620  180.2970  136.6150 S   0  0  0  0  0  0  0  0  0  0  0  0
  181.1660  180.8770  137.8660 C   0  0  0  0  0  0  0  0  0  0  0  0
  180.9210  182.9770  136.7980 O   0  0  0  0  0  1  0  0  0  0  0  0
  181.3300  182.3570  137.9800 C   0  0  0  0  0  2  0  0  0  0  0  0
  1 11  2  0  0  0  0
  2  6  1  0  0  0  0
  3  9  1  0  0  0  0
  4  8  2  0  0  0  0
  5  8  1  0  0  0  0
  6  4  1  0  0  0  0
  7  6  2  0  0  0  0
  7  5  1  0  0  0  0
  8 12  1  0  0  0  0
  9 14  2  0  0  0  0
 10 13  1  0  0  0  0
 10  1  1  0  0  0  0
 11  9  1  0  0  0  0
 12 13  1  0  0  0  0
 13  3  2  0  0  0  0
 15 16  1  0  0  0  0
 15 17  1  0  0  0  0
 16 17  1  0  0  0  0
 16  7  1  1  0  0  0
 18  1  1  0  0  0  0
 19 18  1  0  0  0  0
 20 25  1  0  0  0  0
 20 19  1  1  0  0  0
 21 23  1  0  0  0  0
 21 26  1  0  0  0  0
 22 20  1  0  0  0  0
 23 24  1  0  0  0  0
 24 25  1  0  0  0  0
 26 28  1  1  0  0  0
 26 27  1  0  0  0  0
 27 22  1  6  0  0  0
 27 20  1  0  0  0  0
 29 30  2  0  0  0  0
 30 32  1  0  0  0  0
 30 28  1  0  0  0  0
 31 32  1  0  0  0  0
M  END
>  <MODEL>
5

>  <REMARK>
 VINA RESULT:      -7.6      4.075      9.106
  Name = 
  7 active torsions:
  status: ('A' for Active; 'I' for Inactive)
    1  A    between atoms: C_1  and  C_29
    2  A    between atoms: C_5  and  C_13
    3  A    between atoms: C_7  and  C_9
    4  A    between atoms: C_7  and  C_29
    5  A    between atoms: C_14  and  C_17
    6  A    between atoms: C_14  and  C_22
    7  A    between atoms: C_17  and  C_28
                            x       y       z     vdW  Elec       q    Type
                         _______ _______ _______ _____ _____    ______ ____

>  <TORSDO>
F 7

$$$$
=
 OpenBabel11062414143D

 32 36  0  0  1  0  0  0  0  0999 V2000
  188.0640  178.0670  139.4180 C   0  0  0  0  0  0  0  0  0  0  0  0
  193.9300  176.4840  139.0580 N   0  0  0  0  0  1  0  0  0  0  0  0
  187.6190  177.0280  136.8210 N   0  0  0  0  0  0  0  0  0  0  0  0
  191.7880  176.5050  137.9140 N   0  0  0  0  0  0  0  0  0  0  0  0
  192.3280  175.4960  135.6650 S   0  0  0  0  0  0  0  0  0  0  0  0
  193.1130  176.2060  137.9260 C   0  0  0  0  0  0  0  0  0  0  0  0
  193.6020  175.6190  136.7600 C   0  0  0  0  0  0  0  0  0  0  0  0
  191.2180  176.1690  136.7350 C   0  0  0  0  0  0  0  0  0  0  0  0
  186.5530  177.5820  137.5940 C   0  0  0  0  0  0  0  0  0  0  0  0
  189.1730  177.3490  138.6930 C   0  0  0  0  0  2  0  0  0  0  0  0
  186.8320  178.1430  138.9150 C   0  0  0  0  0  3  0  0  0  0  0  0
  189.8350  176.3640  136.4200 N   0  0  0  0  0  2  0  0  0  0  0  0
  188.8340  176.9260  137.2770 C   0  0  0  0  0  0  0  0  0  0  0  0
  185.3610  177.6380  137.1050 N   0  0  0  0  0  2  0  0  0  0  0  0
  195.6820  176.3210  135.7180 N   0  0  0  0  0  2  0  0  0  0  0  0
  195.0270  175.2510  136.4880 C   0  0  2  0  0  3  0  0  0  0  0  0
  195.2400  175.0890  135.0540 C   0  0  0  0  0  2  0  0  0  0  0  0
  188.3440  178.6250  140.7700 C   0  0  0  0  0  2  0  0  0  0  0  0
  187.9190  177.6410  141.8480 C   0  0  0  0  0  2  0  0  0  0  0  0
  189.0490  177.4030  142.8340 C   0  0  1  0  0  0  0  0  0  0  0  0
  190.6950  176.6590  145.2730 O   0  0  0  0  0  0  0  0  0  0  0  0
  189.4010  176.0020  143.0640 C   0  0  0  0  0  2  0  0  0  0  0  0
  191.4370  177.8120  144.9650 C   0  0  0  0  0  2  0  0  0  0  0  0
  191.4590  178.0520  143.4700 C   0  0  0  0  0  2  0  0  0  0  0  0
  190.0880  178.5270  143.0200 C   0  0  0  0  0  2  0  0  0  0  0  0
  189.3060  176.9600  145.3060 C   0  0  2  0  0  3  0  0  0  0  0  0
  188.5560  176.7130  144.0530 N   0  0  1  0  0  0  0  0  0  0  0  0
  188.8760  178.2510  146.0230 C   0  0  0  0  0  2  0  0  0  0  0  0
  188.3060  177.4390  148.3620 S   0  0  0  0  0  0  0  0  0  0  0  0
  187.8740  177.9670  147.0970 C   0  0  0  0  0  0  0  0  0  0  0  0
  186.2170  178.6270  145.5390 O   0  0  0  0  0  1  0  0  0  0  0  0
  186.4230  177.9590  146.7460 C   0  0  0  0  0  2  0  0  0  0  0  0
  1 18  1  0  0  0  0
  3 13  2  0  0  0  0
  3  9  1  0  0  0  0
  4  6  1  0  0  0  0
  5  8  1  0  0  0  0
  5  7  1  0  0  0  0
  6  2  1  0  0  0  0
  7  6  2  0  0  0  0
  8  4  2  0  0  0  0
  9 11  1  0  0  0  0
 10  1  1  0  0  0  0
 11  1  2  0  0  0  0
 12  8  1  0  0  0  0
 12 13  1  0  0  0  0
 13 10  1  0  0  0  0
 14  9  2  0  0  0  0
 15 16  1  0  0  0  0
 16  7  1  6  0  0  0
 17 15  1  0  0  0  0
 17 16  1  0  0  0  0
 18 19  1  0  0  0  0
 20 19  1  6  0  0  0
 20 25  1  0  0  0  0
 20 22  1  0  0  0  0
 20 27  1  0  0  0  0
 21 26  1  0  0  0  0
 23 21  1  0  0  0  0
 24 23  1  0  0  0  0
 25 24  1  0  0  0  0
 26 28  1  6  0  0  0
 27 22  1  6  0  0  0
 27 26  1  0  0  0  0
 28 30  1  0  0  0  0
 30 29  2  0  0  0  0
 31 32  1  0  0  0  0
 32 30  1  0  0  0  0
M  END
>  <MODEL>
6

>  <REMARK>
 VINA RESULT:      -7.5      4.337      7.633
  Name = 
  7 active torsions:
  status: ('A' for Active; 'I' for Inactive)
    1  A    between atoms: C_1  and  C_29
    2  A    between atoms: C_5  and  C_13
    3  A    between atoms: C_7  and  C_9
    4  A    between atoms: C_7  and  C_29
    5  A    between atoms: C_14  and  C_17
    6  A    between atoms: C_14  and  C_22
    7  A    between atoms: C_17  and  C_28
                            x       y       z     vdW  Elec       q    Type
                         _______ _______ _______ _____ _____    ______ ____

>  <TORSDO>
F 7

$$$$
=
 OpenBabel11062414143D

 32 36  0  0  1  0  0  0  0  0999 V2000
  188.5500  177.3810  143.1610 C   0  0  0  0  0  0  0  0  0  0  0  0
  183.2290  178.5120  140.4300 N   0  0  0  0  0  1  0  0  0  0  0  0
  187.3530  177.8270  145.6880 N   0  0  0  0  0  0  0  0  0  0  0  0
  184.3980  178.3620  142.5540 N   0  0  0  0  0  0  0  0  0  0  0  0
  182.6250  179.0030  144.2320 S   0  0  0  0  0  0  0  0  0  0  0  0
  183.2630  178.6120  141.8500 C   0  0  0  0  0  0  0  0  0  0  0  0
  182.1550  178.9720  142.6150 C   0  0  0  0  0  0  0  0  0  0  0  0
  184.2020  178.5340  143.8810 C   0  0  0  0  0  0  0  0  0  0  0  0
  188.7240  177.4430  145.5720 C   0  0  0  0  0  0  0  0  0  0  0  0
  187.0670  177.6300  143.2600 C   0  0  0  0  0  2  0  0  0  0  0  0
  189.3140  177.2600  144.2460 C   0  0  0  0  0  3  0  0  0  0  0  0
  185.2120  178.3470  144.8790 N   0  0  0  0  0  2  0  0  0  0  0  0
  186.5700  177.9470  144.6570 C   0  0  0  0  0  0  0  0  0  0  0  0
  189.4520  177.3130  146.6280 N   0  0  0  0  0  2  0  0  0  0  0  0
  180.2910  180.5150  142.8380 N   0  0  0  0  0  2  0  0  0  0  0  0
  180.8080  179.3590  142.0890 C   0  0  2  0  0  3  0  0  0  0  0  0
  179.7910  179.1630  143.1170 C   0  0  0  0  0  2  0  0  0  0  0  0
  189.1480  177.1800  141.8120 C   0  0  0  0  0  2  0  0  0  0  0  0
  188.4380  178.0460  140.7830 C   0  0  0  0  0  2  0  0  0  0  0  0
  188.9940  177.7930  139.3930 C   0  0  1  0  0  0  0  0  0  0  0  0
  189.3230  177.3950  136.4010 O   0  0  0  0  0  0  0  0  0  0  0  0
  189.0490  178.9600  138.5140 C   0  0  0  0  0  2  0  0  0  0  0  0
  190.2500  176.4040  136.7650 C   0  0  0  0  0  2  0  0  0  0  0  0
  190.9450  176.7700  138.0600 C   0  0  0  0  0  2  0  0  0  0  0  0
  189.9690  176.6130  139.2140 C   0  0  0  0  0  2  0  0  0  0  0  0
  188.1000  177.2080  137.1050 C   0  0  2  0  0  3  0  0  0  0  0  0
  187.9450  177.9820  138.3580 N   0  0  1  0  0  0  0  0  0  0  0  0
  187.5520  175.7750  137.2080 C   0  0  0  0  0  2  0  0  0  0  0  0
  186.1530  175.2640  135.1510 S   0  0  0  0  0  0  0  0  0  0  0  0
  186.2230  175.6530  136.5320 C   0  0  0  0  0  0  0  0  0  0  0  0
  184.3970  177.1530  136.3830 O   0  0  0  0  0  1  0  0  0  0  0  0
  185.0150  176.2130  137.2080 C   0  0  0  0  0  2  0  0  0  0  0  0
  1 10  1  0  0  0  0
  1 11  2  0  0  0  0
  2  6  1  0  0  0  0
  4  8  2  0  0  0  0
  6  4  1  0  0  0  0
  6  7  2  0  0  0  0
  7  5  1  0  0  0  0
  8  5  1  0  0  0  0
  8 12  1  0  0  0  0
  9  3  1  0  0  0  0
  9 14  2  0  0  0  0
 10 13  1  0  0  0  0
 11  9  1  0  0  0  0
 13 12  1  0  0  0  0
 13  3  2  0  0  0  0
 15 17  1  0  0  0  0
 16  7  1  1  0  0  0
 16 15  1  0  0  0  0
 16 17  1  0  0  0  0
 18  1  1  0  0  0  0
 19 18  1  0  0  0  0
 20 19  1  1  0  0  0
 21 23  1  0  0  0  0
 21 26  1  0  0  0  0
 22 20  1  0  0  0  0
 23 24  1  0  0  0  0
 24 25  1  0  0  0  0
 25 20  1  0  0  0  0
 26 28  1  1  0  0  0
 26 27  1  0  0  0  0
 27 22  1  6  0  0  0
 27 20  1  0  0  0  0
 29 30  2  0  0  0  0
 30 32  1  0  0  0  0
 30 28  1  0  0  0  0
 31 32  1  0  0  0  0
M  END
>  <MODEL>
7

>  <REMARK>
 VINA RESULT:      -7.5      3.520      6.678
  Name = 
  7 active torsions:
  status: ('A' for Active; 'I' for Inactive)
    1  A    between atoms: C_1  and  C_29
    2  A    between atoms: C_5  and  C_13
    3  A    between atoms: C_7  and  C_9
    4  A    between atoms: C_7  and  C_29
    5  A    between atoms: C_14  and  C_17
    6  A    between atoms: C_14  and  C_22
    7  A    between atoms: C_17  and  C_28
                            x       y       z     vdW  Elec       q    Type
                         _______ _______ _______ _____ _____    ______ ____

>  <TORSDO>
F 7

$$$$
=
 OpenBabel11062414143D

 32 36  0  0  1  0  0  0  0  0999 V2000
  185.3710  178.5870  141.8660 C   0  0  0  0  0  0  0  0  0  0  0  0
  191.1230  177.3280  143.4090 N   0  0  0  0  0  1  0  0  0  0  0  0
  184.6050  178.4490  144.5890 N   0  0  0  0  0  0  0  0  0  0  0  0
  188.8600  177.6690  144.2230 N   0  0  0  0  0  0  0  0  0  0  0  0
  189.0750  177.2640  146.7050 S   0  0  0  0  0  0  0  0  0  0  0  0
  190.1650  177.3800  144.4620 C   0  0  0  0  0  0  0  0  0  0  0  0
  190.4870  177.1360  145.7960 C   0  0  0  0  0  0  0  0  0  0  0  0
  188.1340  177.6460  145.3630 C   0  0  0  0  0  0  0  0  0  0  0  0
  183.6630  178.7780  143.5670 C   0  0  0  0  0  0  0  0  0  0  0  0
  186.4160  178.3940  142.9350 C   0  0  0  0  0  2  0  0  0  0  0  0
  184.0900  178.8010  142.1690 C   0  0  0  0  0  3  0  0  0  0  0  0
  186.7280  177.9090  145.4330 N   0  0  0  0  0  2  0  0  0  0  0  0
  185.8650  178.2420  144.3390 C   0  0  0  0  0  0  0  0  0  0  0  0
  182.4290  178.9980  143.8710 N   0  0  0  0  0  2  0  0  0  0  0  0
  192.0610  175.3050  146.0650 N   0  0  0  0  0  2  0  0  0  0  0  0
  191.8310  176.7350  146.3210 C   0  0  2  0  0  3  0  0  0  0  0  0
  191.6800  175.7690  147.4040 C   0  0  0  0  0  2  0  0  0  0  0  0
  185.8090  178.6260  140.4430 C   0  0  0  0  0  2  0  0  0  0  0  0
  187.2780  178.2500  140.3300 C   0  0  0  0  0  2  0  0  0  0  0  0
  187.6860  178.1120  138.8750 C   0  0  1  0  0  0  0  0  0  0  0  0
  188.2950  177.0580  136.0940 O   0  0  0  0  0  0  0  0  0  0  0  0
  186.5910  177.9040  137.9290 C   0  0  0  0  0  2  0  0  0  0  0  0
  189.3890  177.9390  136.1390 C   0  0  0  0  0  2  0  0  0  0  0  0
  189.0570  179.1650  136.9640 C   0  0  0  0  0  2  0  0  0  0  0  0
  189.0040  178.7790  138.4330 C   0  0  0  0  0  2  0  0  0  0  0  0
  188.2620  176.2530  137.2660 C   0  0  2  0  0  3  0  0  0  0  0  0
  187.4040  176.7450  138.3690 N   0  0  1  0  0  0  0  0  0  0  0  0
  189.5910  175.6550  137.7550 C   0  0  0  0  0  2  0  0  0  0  0  0
  188.8750  173.4620  136.6900 S   0  0  0  0  0  0  0  0  0  0  0  0
  189.9190  174.3920  137.0220 C   0  0  0  0  0  0  0  0  0  0  0  0
  192.0880  174.4960  137.9670 O   0  0  0  0  0  1  0  0  0  0  0  0
  191.3480  173.9770  136.9040 C   0  0  0  0  0  2  0  0  0  0  0  0
  1 11  2  0  0  0  0
  1 10  1  0  0  0  0
  2  6  1  0  0  0  0
  4  6  1  0  0  0  0
  4  8  2  0  0  0  0
  6  7  2  0  0  0  0
  7  5  1  0  0  0  0
  8 12  1  0  0  0  0
  8  5  1  0  0  0  0
  9 14  2  0  0  0  0
  9  3  1  0  0  0  0
 10 13  1  0  0  0  0
 11  9  1  0  0  0  0
 13  3  2  0  0  0  0
 13 12  1  0  0  0  0
 15 16  1  0  0  0  0
 15 17  1  0  0  0  0
 16  7  1  6  0  0  0
 16 17  1  0  0  0  0
 18  1  1  0  0  0  0
 19 18  1  0  0  0  0
 20 19  1  1  0  0  0
 21 23  1  0  0  0  0
 21 26  1  0  0  0  0
 22 20  1  0  0  0  0
 23 24  1  0  0  0  0
 24 25  1  0  0  0  0
 25 20  1  0  0  0  0
 26 28  1  1  0  0  0
 26 27  1  0  0  0  0
 27 22  1  6  0  0  0
 27 20  1  0  0  0  0
 29 30  2  0  0  0  0
 30 28  1  0  0  0  0
 32 30  1  0  0  0  0
 32 31  1  0  0  0  0
M  END
>  <MODEL>
8

>  <REMARK>
 VINA RESULT:      -7.5      3.646      8.363
  Name = 
  7 active torsions:
  status: ('A' for Active; 'I' for Inactive)
    1  A    between atoms: C_1  and  C_29
    2  A    between atoms: C_5  and  C_13
    3  A    between atoms: C_7  and  C_9
    4  A    between atoms: C_7  and  C_29
    5  A    between atoms: C_14  and  C_17
    6  A    between atoms: C_14  and  C_22
    7  A    between atoms: C_17  and  C_28
                            x       y       z     vdW  Elec       q    Type
                         _______ _______ _______ _____ _____    ______ ____

>  <TORSDO>
F 7

$$$$
=
 OpenBabel11062414143D

 32 36  0  0  1  0  0  0  0  0999 V2000
  185.2120  178.4780  143.9080 C   0  0  0  0  0  0  0  0  0  0  0  0
  187.6550  178.0860  138.3470 N   0  0  0  0  0  1  0  0  0  0  0  0
  187.7030  177.7770  145.0570 N   0  0  0  0  0  0  0  0  0  0  0  0
  188.0600  177.8690  140.7320 N   0  0  0  0  0  0  0  0  0  0  0  0
  190.4700  177.1280  140.8400 S   0  0  0  0  0  0  0  0  0  0  0  0
  188.5050  177.7930  139.4500 C   0  0  0  0  0  0  0  0  0  0  0  0
  189.8370  177.4090  139.3040 C   0  0  0  0  0  0  0  0  0  0  0  0
  189.0300  177.5340  141.6110 C   0  0  0  0  0  0  0  0  0  0  0  0
  186.5680  178.0800  145.8700 C   0  0  0  0  0  0  0  0  0  0  0  0
  186.4280  178.3180  143.0320 C   0  0  0  0  0  2  0  0  0  0  0  0
  185.2890  178.4000  145.2360 C   0  0  0  0  0  3  0  0  0  0  0  0
  188.8640  177.5150  143.0330 N   0  0  0  0  0  2  0  0  0  0  0  0
  187.6740  177.8490  143.7580 C   0  0  0  0  0  0  0  0  0  0  0  0
  186.6570  178.0160  147.1550 N   0  0  0  0  0  2  0  0  0  0  0  0
  190.4920  175.7650  137.6390 N   0  0  0  0  0  2  0  0  0  0  0  0
  190.5540  177.1880  138.0090 C   0  0  2  0  0  3  0  0  0  0  0  0
  191.7170  176.3310  138.2180 C   0  0  0  0  0  2  0  0  0  0  0  0
  183.9130  178.8180  143.2640 C   0  0  0  0  0  2  0  0  0  0  0  0
  184.0020  178.6280  141.7580 C   0  0  0  0  0  2  0  0  0  0  0  0
  182.6240  178.3940  141.1650 C   0  0  1  0  0  0  0  0  0  0  0  0
  180.2290  178.2250  139.3070 O   0  0  0  0  0  0  0  0  0  0  0  0
  182.5250  177.2830  140.2180 C   0  0  0  0  0  2  0  0  0  0  0  0
  179.4880  178.6110  140.4360 C   0  0  0  0  0  2  0  0  0  0  0  0
  180.1250  178.0800  141.7030 C   0  0  0  0  0  2  0  0  0  0  0  0
  181.4020  178.8550  141.9830 C   0  0  0  0  0  2  0  0  0  0  0  0
  181.3310  179.1040  139.1150 C   0  0  2  0  0  3  0  0  0  0  0  0
  182.6190  178.6720  139.7050 N   0  0  1  0  0  0  0  0  0  0  0  0
  181.0710  180.6120  139.2690 C   0  0  0  0  0  2  0  0  0  0  0  0
  180.8050  180.4610  136.7470 S   0  0  0  0  0  0  0  0  0  0  0  0
  180.8430  181.2610  137.9400 C   0  0  0  0  0  0  0  0  0  0  0  0
  180.8060  183.1440  136.5050 O   0  0  0  0  0  1  0  0  0  0  0  0
  180.9470  182.7460  137.8350 C   0  0  0  0  0  2  0  0  0  0  0  0
  1 11  2  0  0  0  0
  2  6  1  0  0  0  0
  3  9  1  0  0  0  0
  4  8  2  0  0  0  0
  5  8  1  0  0  0  0
  6  4  1  0  0  0  0
  7  6  2  0  0  0  0
  7  5  1  0  0  0  0
  8 12  1  0  0  0  0
  9 14  2  0  0  0  0
 10 13  1  0  0  0  0
 10  1  1  0  0  0  0
 11  9  1  0  0  0  0
 12 13  1  0  0  0  0
 13  3  2  0  0  0  0
 15 16  1  0  0  0  0
 15 17  1  0  0  0  0
 16 17  1  0  0  0  0
 16  7  1  1  0  0  0
 18  1  1  0  0  0  0
 19 18  1  0  0  0  0
 20 19  1  1  0  0  0
 20 25  1  0  0  0  0
 21 23  1  0  0  0  0
 22 20  1  0  0  0  0
 23 24  1  0  0  0  0
 24 25  1  0  0  0  0
 26 28  1  1  0  0  0
 26 21  1  0  0  0  0
 26 27  1  0  0  0  0
 27 22  1  6  0  0  0
 27 20  1  0  0  0  0
 29 30  2  0  0  0  0
 30 28  1  0  0  0  0
 31 32  1  0  0  0  0
 32 30  1  0  0  0  0
M  END
>  <MODEL>
9

>  <REMARK>
 VINA RESULT:      -7.4      4.076      9.363
  Name = 
  7 active torsions:
  status: ('A' for Active; 'I' for Inactive)
    1  A    between atoms: C_1  and  C_29
    2  A    between atoms: C_5  and  C_13
    3  A    between atoms: C_7  and  C_9
    4  A    between atoms: C_7  and  C_29
    5  A    between atoms: C_14  and  C_17
    6  A    between atoms: C_14  and  C_22
    7  A    between atoms: C_17  and  C_28
                            x       y       z     vdW  Elec       q    Type
                         _______ _______ _______ _____ _____    ______ ____

>  <TORSDO>
F 7

$$$$
