=
 OpenBabel11062413463D

 35 36  0  0  1  0  0  0  0  0999 V2000
  183.3600  179.1440  145.0670 N   0  0  0  0  0  0  0  0  0  0  0  0
  184.4850  178.6350  145.7880 C   0  0  0  0  0  0  0  0  0  0  0  0
  185.6460  178.1270  145.0430 C   0  0  0  0  0  0  0  0  0  0  0  0
  185.6910  178.2880  143.7200 C   0  0  0  0  0  3  0  0  0  0  0  0
  184.6390  179.0620  142.9590 C   0  0  2  0  0  3  0  0  0  0  0  0
  183.3900  179.3120  143.7790 C   0  0  0  0  0  3  0  0  0  0  0  0
  184.4520  178.5810  147.0450 O   0  0  0  0  0  0  0  0  0  0  0  0
  182.4250  177.7370  140.0490 C   0  0  0  0  0  2  0  0  0  0  0  0
  184.2950  179.2190  139.1290 C   0  0  1  0  0  3  0  0  0  0  0  0
  183.4290  177.9680  138.9050 C   0  0  2  0  0  3  0  0  0  0  0  0
  186.3890  178.3990  140.1860 C   0  0  0  0  0  1  0  0  0  0  0  0
  183.5090  180.3760  139.1250 O   0  0  0  0  0  1  0  0  0  0  0  0
  182.7990  178.4580  141.3470 C   0  0  0  0  0  2  0  0  0  0  0  0
  184.3120  178.4280  141.5960 C   0  0  1  0  0  3  0  0  0  0  0  0
  185.0800  179.1240  140.4450 C   0  0  2  0  0  3  0  0  0  0  0  0
  182.7280  177.9860  137.5420 C   0  0  1  0  0  3  0  0  0  0  0  0
  184.0830  177.2770  135.7050 O   0  0  0  0  0  1  0  0  0  0  0  0
  183.2060  176.8190  136.6880 C   0  0  0  0  0  2  0  0  0  0  0  0
  181.3420  177.8970  137.7060 O   0  0  0  0  0  0  0  0  0  0  0  0
  180.8050  178.6200  136.6400 C   0  0  0  0  0  2  0  0  0  0  0  0
  181.2150  179.9500  136.7270 O   0  0  0  0  0  1  0  0  0  0  0  0
  186.7600  177.4240  145.7410 C   0  0  0  0  0  2  0  0  0  0  0  0
  187.8200  178.3090  145.9550 O   0  0  0  0  0  0  0  0  0  0  0  0
  188.8420  177.5280  146.5020 C   0  0  2  0  0  3  0  0  0  0  0  0
  189.0900  177.9160  147.9490 C   0  0  0  0  0  1  0  0  0  0  0  0
  190.1310  177.5770  145.6600 C   0  0  2  0  0  3  0  0  0  0  0  0
  191.0300  179.2340  143.9380 C   0  0  0  0  0  1  0  0  0  0  0  0
  190.0040  178.1530  144.2360 C   0  0  1  0  0  3  0  0  0  0  0  0
  188.7200  176.6490  142.8970 O   0  0  0  0  0  1  0  0  0  0  0  0
  190.0190  177.0910  143.1510 C   0  0  0  0  0  2  0  0  0  0  0  0
  190.7200  176.3080  145.6130 O   0  0  0  0  0  0  0  0  0  0  0  0
  191.9870  176.4730  146.1750 C   0  0  0  0  0  2  0  0  0  0  0  0
  192.0440  175.7800  147.4880 C   0  0  0  0  0  0  0  0  0  0  0  0
  193.0870  176.0810  148.4080 N   0  0  0  0  0  1  0  0  0  0  0  0
  191.1550  174.9460  147.7960 O   0  0  0  0  0  0  0  0  0  0  0  0
  1  2  1  0  0  0  0
  2  7  2  0  0  0  0
  3 22  1  0  0  0  0
  3  2  1  0  0  0  0
  4  3  2  0  0  0  0
  5  4  1  1  0  0  0
  5  6  1  0  0  0  0
  6  1  2  0  0  0  0
  8 13  1  0  0  0  0
  9 12  1  1  0  0  0
  9 15  1  0  0  0  0
 10 16  1  6  0  0  0
 10  9  1  0  0  0  0
 10  8  1  0  0  0  0
 14 13  1  6  0  0  0
 14  5  1  0  0  0  0
 15 11  1  6  0  0  0
 15 14  1  0  0  0  0
 16 18  1  6  0  0  0
 16 19  1  0  0  0  0
 17 18  1  0  0  0  0
 20 21  1  0  0  0  0
 20 19  1  0  0  0  0
 22 23  1  0  0  0  0
 23 24  1  0  0  0  0
 24 25  1  1  0  0  0
 26 31  1  6  0  0  0
 26 24  1  0  0  0  0
 28 27  1  6  0  0  0
 28 26  1  0  0  0  0
 29 30  1  0  0  0  0
 30 28  1  0  0  0  0
 31 32  1  0  0  0  0
 32 33  1  0  0  0  0
 33 35  2  0  0  0  0
 33 34  1  0  0  0  0
M  END
>  <MODEL>
1

>  <REMARK>
 VINA RESULT:      -7.2      0.000      0.000
  Name = 
  14 active torsions:
  status: ('A' for Active; 'I' for Inactive)
    1  A    between atoms: C_5  and  O_33
    2  A    between atoms: C_7  and  C_32
    3  A    between atoms: C_8  and  C_24
    4  A    between atoms: C_9  and  O_14
    5  A    between atoms: C_9  and  C_24
    6  A    between atoms: C_9  and  C_25
    7  A    between atoms: C_10  and  C_32
    8  A    between atoms: O_14  and  C_29
    9  A    between atoms: C_15  and  C_35
   10  A    between atoms: C_18  and  C_29
   11  A    between atoms: C_19  and  C_30
   12  A    between atoms: O_23  and  C_25
   13  A    between atoms: O_23  and  C_35
   14  A    between atoms: C_32  and  O_33
                            x       y       z     vdW  Elec       q    Type
                         _______ _______ _______ _____ _____    ______ ____

>  <TORSDO>
F 14

$$$$
=
 OpenBabel11062413463D

 35 36  0  0  1  0  0  0  0  0999 V2000
  187.4780  178.1570  147.1900 N   0  0  0  0  0  0  0  0  0  0  0  0
  186.2310  178.6670  146.7110 C   0  0  0  0  0  0  0  0  0  0  0  0
  185.8820  178.5010  145.2930 C   0  0  0  0  0  0  0  0  0  0  0  0
  186.6610  177.7480  144.5160 C   0  0  0  0  0  3  0  0  0  0  0  0
  187.8430  176.9750  145.0550 C   0  0  2  0  0  3  0  0  0  0  0  0
  188.2460  177.4180  146.4460 C   0  0  0  0  0  3  0  0  0  0  0  0
  185.4700  179.2960  147.4930 O   0  0  0  0  0  0  0  0  0  0  0  0
  189.9870  175.8930  141.9960 C   0  0  0  0  0  2  0  0  0  0  0  0
  189.8360  178.4430  142.1080 C   0  0  1  0  0  3  0  0  0  0  0  0
  190.7200  177.2290  141.7750 C   0  0  2  0  0  3  0  0  0  0  0  0
  190.3960  179.0500  144.4510 C   0  0  0  0  0  1  0  0  0  0  0  0
  188.7400  178.5130  141.2430 O   0  0  0  0  0  1  0  0  0  0  0  0
  188.7750  176.0040  142.9240 C   0  0  0  0  0  2  0  0  0  0  0  0
  189.0370  176.9720  144.0850 C   0  0  1  0  0  3  0  0  0  0  0  0
  189.3520  178.3960  143.5640 C   0  0  2  0  0  3  0  0  0  0  0  0
  191.3120  177.3140  140.3640 C   0  0  1  0  0  3  0  0  0  0  0  0
  193.3610  176.9810  139.1800 O   0  0  0  0  0  1  0  0  0  0  0  0
  192.8330  177.3040  140.4300 C   0  0  0  0  0  2  0  0  0  0  0  0
  190.8790  176.2340  139.5880 O   0  0  0  0  0  0  0  0  0  0  0  0
  190.2530  176.8120  138.4830 C   0  0  0  0  0  2  0  0  0  0  0  0
  188.8720  176.6480  138.5910 O   0  0  0  0  0  1  0  0  0  0  0  0
  184.6830  179.1700  144.7120 C   0  0  0  0  0  2  0  0  0  0  0  0
  183.9660  178.2620  143.9280 O   0  0  0  0  0  0  0  0  0  0  0  0
  182.9540  179.0180  143.3290 C   0  0  2  0  0  3  0  0  0  0  0  0
  181.6080  178.6870  143.9460 C   0  0  0  0  0  1  0  0  0  0  0  0
  182.9410  178.8690  141.7960 C   0  0  2  0  0  3  0  0  0  0  0  0
  180.9690  179.5320  140.3140 C   0  0  0  0  0  1  0  0  0  0  0  0
  181.6060  178.4390  141.1560 C   0  0  1  0  0  3  0  0  0  0  0  0
  180.4410  176.5780  140.2160 O   0  0  0  0  0  1  0  0  0  0  0  0
  181.7060  177.1470  140.3630 C   0  0  0  0  0  2  0  0  0  0  0  0
  183.9670  178.0100  141.3900 O   0  0  0  0  0  0  0  0  0  0  0  0
  184.9670  178.8460  140.8900 C   0  0  0  0  0  2  0  0  0  0  0  0
  184.7160  179.1160  139.4510 C   0  0  0  0  0  0  0  0  0  0  0  0
  184.7130  178.0450  138.5140 N   0  0  0  0  0  1  0  0  0  0  0  0
  184.4790  180.2900  139.0650 O   0  0  0  0  0  0  0  0  0  0  0  0
  2  1  1  0  0  0  0
  2  7  2  0  0  0  0
  3  2  1  0  0  0  0
  4  3  2  0  0  0  0
  5  4  1  6  0  0  0
  5  6  1  0  0  0  0
  6  1  2  0  0  0  0
  8 13  1  0  0  0  0
  9 12  1  6  0  0  0
  9 15  1  0  0  0  0
 10 16  1  6  0  0  0
 10  8  1  0  0  0  0
 10  9  1  0  0  0  0
 14 13  1  6  0  0  0
 14  5  1  0  0  0  0
 15 14  1  0  0  0  0
 15 11  1  1  0  0  0
 16 18  1  1  0  0  0
 17 18  1  0  0  0  0
 19 16  1  0  0  0  0
 20 21  1  0  0  0  0
 20 19  1  0  0  0  0
 22  3  1  0  0  0  0
 23 22  1  0  0  0  0
 24 23  1  0  0  0  0
 24 25  1  1  0  0  0
 26 31  1  1  0  0  0
 26 24  1  0  0  0  0
 28 27  1  6  0  0  0
 28 26  1  0  0  0  0
 29 30  1  0  0  0  0
 30 28  1  0  0  0  0
 32 31  1  0  0  0  0
 33 32  1  0  0  0  0
 34 33  1  0  0  0  0
 35 33  2  0  0  0  0
M  END
>  <MODEL>
2

>  <REMARK>
 VINA RESULT:      -6.9      2.925      7.818
  Name = 
  14 active torsions:
  status: ('A' for Active; 'I' for Inactive)
    1  A    between atoms: C_5  and  O_33
    2  A    between atoms: C_7  and  C_32
    3  A    between atoms: C_8  and  C_24
    4  A    between atoms: C_9  and  O_14
    5  A    between atoms: C_9  and  C_24
    6  A    between atoms: C_9  and  C_25
    7  A    between atoms: C_10  and  C_32
    8  A    between atoms: O_14  and  C_29
    9  A    between atoms: C_15  and  C_35
   10  A    between atoms: C_18  and  C_29
   11  A    between atoms: C_19  and  C_30
   12  A    between atoms: O_23  and  C_25
   13  A    between atoms: O_23  and  C_35
   14  A    between atoms: C_32  and  O_33
                            x       y       z     vdW  Elec       q    Type
                         _______ _______ _______ _____ _____    ______ ____

>  <TORSDO>
F 14

$$$$
=
 OpenBabel11062413463D

 35 36  0  0  1  0  0  0  0  0999 V2000
  183.7860  178.9990  145.2760 N   0  0  0  0  0  0  0  0  0  0  0  0
  184.9670  178.5920  145.9730 C   0  0  0  0  0  0  0  0  0  0  0  0
  186.1510  178.1850  145.2040 C   0  0  0  0  0  0  0  0  0  0  0  0
  186.1550  178.3450  143.8810 C   0  0  0  0  0  3  0  0  0  0  0  0
  185.0230  179.0220  143.1410 C   0  0  2  0  0  3  0  0  0  0  0  0
  183.7750  179.1650  143.9870 C   0  0  0  0  0  3  0  0  0  0  0  0
  184.9650  178.5390  147.2310 O   0  0  0  0  0  0  0  0  0  0  0  0
  182.8700  177.6550  140.2050 C   0  0  0  0  0  2  0  0  0  0  0  0
  184.7880  179.0830  139.3000 C   0  0  1  0  0  3  0  0  0  0  0  0
  183.9090  177.8400  139.0840 C   0  0  2  0  0  3  0  0  0  0  0  0
  186.8380  178.2590  140.4360 C   0  0  0  0  0  1  0  0  0  0  0  0
  184.0210  180.2520  139.2440 O   0  0  0  0  0  1  0  0  0  0  0  0
  183.2190  178.4040  141.4940 C   0  0  0  0  0  2  0  0  0  0  0  0
  184.7240  178.3580  141.7860 C   0  0  1  0  0  3  0  0  0  0  0  0
  185.5340  179.0110  140.6390 C   0  0  2  0  0  3  0  0  0  0  0  0
  183.2460  177.8340  137.7020 C   0  0  1  0  0  3  0  0  0  0  0  0
  182.5450  175.6640  136.9860 O   0  0  0  0  0  1  0  0  0  0  0  0
  183.6120  176.5620  136.9490 C   0  0  0  0  0  2  0  0  0  0  0  0
  181.8550  177.9080  137.8280 O   0  0  0  0  0  0  0  0  0  0  0  0
  181.4890  179.0500  137.1150 C   0  0  0  0  0  2  0  0  0  0  0  0
  180.8010  179.9240  137.9560 O   0  0  0  0  0  1  0  0  0  0  0  0
  187.3380  177.5840  145.8790 C   0  0  0  0  0  2  0  0  0  0  0  0
  188.2870  177.2090  144.9250 O   0  0  0  0  0  0  0  0  0  0  0  0
  189.4580  177.8770  145.2950 C   0  0  2  0  0  3  0  0  0  0  0  0
  189.8480  178.8900  144.2350 C   0  0  0  0  0  1  0  0  0  0  0  0
  190.6090  176.9060  145.6200 C   0  0  2  0  0  3  0  0  0  0  0  0
  190.1440  177.4170  148.0790 C   0  0  0  0  0  1  0  0  0  0  0  0
  191.1680  176.9540  147.0560 C   0  0  1  0  0  3  0  0  0  0  0  0
  193.0960  175.8890  147.9810 O   0  0  0  0  0  1  0  0  0  0  0  0
  191.8090  175.6490  147.4980 C   0  0  0  0  0  2  0  0  0  0  0  0
  191.6460  177.0680  144.6950 O   0  0  0  0  0  0  0  0  0  0  0  0
  191.5150  175.9980  143.8080 C   0  0  0  0  0  2  0  0  0  0  0  0
  191.2620  176.5150  142.4380 C   0  0  0  0  0  0  0  0  0  0  0  0
  190.0900  176.1230  141.7340 N   0  0  0  0  0  1  0  0  0  0  0  0
  192.0720  177.3210  141.9130 O   0  0  0  0  0  0  0  0  0  0  0  0
  1  2  1  0  0  0  0
  2  7  2  0  0  0  0
  3 22  1  0  0  0  0
  3  2  1  0  0  0  0
  4  3  2  0  0  0  0
  5  4  1  1  0  0  0
  5  6  1  0  0  0  0
  6  1  2  0  0  0  0
  8 13  1  0  0  0  0
  9 12  1  1  0  0  0
  9 15  1  0  0  0  0
 10 16  1  6  0  0  0
 10  9  1  0  0  0  0
 10  8  1  0  0  0  0
 14 13  1  6  0  0  0
 14  5  1  0  0  0  0
 15 11  1  6  0  0  0
 15 14  1  0  0  0  0
 16 18  1  1  0  0  0
 16 19  1  0  0  0  0
 18 17  1  0  0  0  0
 20 19  1  0  0  0  0
 20 21  1  0  0  0  0
 23 24  1  0  0  0  0
 23 22  1  0  0  0  0
 24 25  1  6  0  0  0
 24 26  1  0  0  0  0
 26 31  1  6  0  0  0
 26 28  1  0  0  0  0
 28 30  1  0  0  0  0
 28 27  1  1  0  0  0
 30 29  1  0  0  0  0
 32 31  1  0  0  0  0
 33 32  1  0  0  0  0
 34 33  1  0  0  0  0
 35 33  2  0  0  0  0
M  END
>  <MODEL>
3

>  <REMARK>
 VINA RESULT:      -6.9      1.700      2.757
  Name = 
  14 active torsions:
  status: ('A' for Active; 'I' for Inactive)
    1  A    between atoms: C_5  and  O_33
    2  A    between atoms: C_7  and  C_32
    3  A    between atoms: C_8  and  C_24
    4  A    between atoms: C_9  and  O_14
    5  A    between atoms: C_9  and  C_24
    6  A    between atoms: C_9  and  C_25
    7  A    between atoms: C_10  and  C_32
    8  A    between atoms: O_14  and  C_29
    9  A    between atoms: C_15  and  C_35
   10  A    between atoms: C_18  and  C_29
   11  A    between atoms: C_19  and  C_30
   12  A    between atoms: O_23  and  C_25
   13  A    between atoms: O_23  and  C_35
   14  A    between atoms: C_32  and  O_33
                            x       y       z     vdW  Elec       q    Type
                         _______ _______ _______ _____ _____    ______ ____

>  <TORSDO>
F 14

$$$$
=
 OpenBabel11062413463D

 35 36  0  0  1  0  0  0  0  0999 V2000
  189.8460  177.5620  147.9110 N   0  0  0  0  0  0  0  0  0  0  0  0
  188.5270  178.0970  148.0450 C   0  0  0  0  0  0  0  0  0  0  0  0
  187.6470  178.1480  146.8690 C   0  0  0  0  0  0  0  0  0  0  0  0
  188.0390  177.5590  145.7390 C   0  0  0  0  0  3  0  0  0  0  0  0
  189.3140  176.7520  145.6420 C   0  0  2  0  0  3  0  0  0  0  0  0
  190.2400  176.9800  146.8180 C   0  0  0  0  0  3  0  0  0  0  0  0
  188.1490  178.5630  149.1530 O   0  0  0  0  0  0  0  0  0  0  0  0
  190.2990  176.0240  141.9510 C   0  0  0  0  0  2  0  0  0  0  0  0
  189.7610  178.5060  142.2450 C   0  0  1  0  0  3  0  0  0  0  0  0
  190.6500  177.4660  141.5430 C   0  0  2  0  0  3  0  0  0  0  0  0
  191.0480  179.2440  144.2380 C   0  0  0  0  0  1  0  0  0  0  0  0
  188.4250  178.3630  141.8580 O   0  0  0  0  0  1  0  0  0  0  0  0
  189.5260  175.9300  143.2690 C   0  0  0  0  0  2  0  0  0  0  0  0
  190.0350  176.9490  144.2970 C   0  0  1  0  0  3  0  0  0  0  0  0
  189.8780  178.3970  143.7720 C   0  0  2  0  0  3  0  0  0  0  0  0
  190.6410  177.6340  140.0190 C   0  0  1  0  0  3  0  0  0  0  0  0
  193.0020  177.2580  139.9750 O   0  0  0  0  0  1  0  0  0  0  0  0
  191.7960  176.8590  139.3980 C   0  0  0  0  0  2  0  0  0  0  0  0
  189.4360  177.1660  139.4840 O   0  0  0  0  0  0  0  0  0  0  0  0
  189.2370  177.9230  138.3290 C   0  0  0  0  0  2  0  0  0  0  0  0
  188.9030  179.2300  138.6800 O   0  0  0  0  0  1  0  0  0  0  0  0
  186.3370  178.8570  146.9170 C   0  0  0  0  0  2  0  0  0  0  0  0
  185.9760  179.2740  145.6330 O   0  0  0  0  0  0  0  0  0  0  0  0
  184.5970  179.0530  145.5540 C   0  0  2  0  0  3  0  0  0  0  0  0
  184.1760  177.9730  146.5330 C   0  0  0  0  0  1  0  0  0  0  0  0
  184.1360  178.7440  144.1170 C   0  0  2  0  0  3  0  0  0  0  0  0
  186.1230  177.4480  143.1680 C   0  0  0  0  0  1  0  0  0  0  0  0
  185.2360  178.6760  143.0380 C   0  0  1  0  0  3  0  0  0  0  0  0
  185.6710  179.3590  140.7910 O   0  0  0  0  0  1  0  0  0  0  0  0
  184.7010  178.7970  141.6220 C   0  0  0  0  0  2  0  0  0  0  0  0
  183.1400  179.6470  143.7300 O   0  0  0  0  0  0  0  0  0  0  0  0
  181.9380  178.9520  143.8840 C   0  0  0  0  0  2  0  0  0  0  0  0
  180.9760  179.3840  142.8380 C   0  0  0  0  0  0  0  0  0  0  0  0
  180.8260  178.6180  141.6490 N   0  0  0  0  0  1  0  0  0  0  0  0
  180.2740  180.4120  143.0170 O   0  0  0  0  0  0  0  0  0  0  0  0
  1  2  1  0  0  0  0
  2  7  2  0  0  0  0
  3 22  1  0  0  0  0
  3  2  1  0  0  0  0
  4  3  2  0  0  0  0
  5  4  1  1  0  0  0
  5  6  1  0  0  0  0
  6  1  2  0  0  0  0
  8 13  1  0  0  0  0
  9 12  1  1  0  0  0
  9 15  1  0  0  0  0
 10 16  1  6  0  0  0
 10  8  1  0  0  0  0
 10  9  1  0  0  0  0
 14 13  1  6  0  0  0
 14  5  1  0  0  0  0
 15 11  1  6  0  0  0
 15 14  1  0  0  0  0
 16 18  1  6  0  0  0
 18 17  1  0  0  0  0
 19 16  1  0  0  0  0
 20 21  1  0  0  0  0
 20 19  1  0  0  0  0
 23 22  1  0  0  0  0
 24 23  1  0  0  0  0
 24 25  1  1  0  0  0
 26 31  1  6  0  0  0
 26 24  1  0  0  0  0
 28 27  1  6  0  0  0
 28 26  1  0  0  0  0
 29 30  1  0  0  0  0
 30 28  1  0  0  0  0
 31 32  1  0  0  0  0
 33 35  2  0  0  0  0
 33 32  1  0  0  0  0
 34 33  1  0  0  0  0
M  END
>  <MODEL>
4

>  <REMARK>
 VINA RESULT:      -6.8      3.149      7.469
  Name = 
  14 active torsions:
  status: ('A' for Active; 'I' for Inactive)
    1  A    between atoms: C_5  and  O_33
    2  A    between atoms: C_7  and  C_32
    3  A    between atoms: C_8  and  C_24
    4  A    between atoms: C_9  and  O_14
    5  A    between atoms: C_9  and  C_24
    6  A    between atoms: C_9  and  C_25
    7  A    between atoms: C_10  and  C_32
    8  A    between atoms: O_14  and  C_29
    9  A    between atoms: C_15  and  C_35
   10  A    between atoms: C_18  and  C_29
   11  A    between atoms: C_19  and  C_30
   12  A    between atoms: O_23  and  C_25
   13  A    between atoms: O_23  and  C_35
   14  A    between atoms: C_32  and  O_33
                            x       y       z     vdW  Elec       q    Type
                         _______ _______ _______ _____ _____    ______ ____

>  <TORSDO>
F 14

$$$$
=
 OpenBabel11062413463D

 35 36  0  0  1  0  0  0  0  0999 V2000
  183.1850  179.2350  145.0320 N   0  0  0  0  0  0  0  0  0  0  0  0
  184.3660  178.7220  145.6540 C   0  0  0  0  0  0  0  0  0  0  0  0
  185.4670  178.2310  144.8140 C   0  0  0  0  0  0  0  0  0  0  0  0
  185.4090  178.4130  143.4940 C   0  0  0  0  0  3  0  0  0  0  0  0
  184.2970  179.1920  142.8300 C   0  0  2  0  0  3  0  0  0  0  0  0
  183.1150  179.4230  143.7480 C   0  0  0  0  0  3  0  0  0  0  0  0
  184.4310  178.6480  146.9100 O   0  0  0  0  0  0  0  0  0  0  0  0
  181.8690  177.9700  140.0480 C   0  0  0  0  0  2  0  0  0  0  0  0
  183.7440  179.3760  139.0250 C   0  0  1  0  0  3  0  0  0  0  0  0
  182.8150  178.1620  138.8490 C   0  0  2  0  0  3  0  0  0  0  0  0
  185.8570  178.4660  139.9610 C   0  0  0  0  0  1  0  0  0  0  0  0
  183.0070  180.5640  139.0670 O   0  0  0  0  0  1  0  0  0  0  0  0
  182.3440  178.6700  141.3230 C   0  0  0  0  0  2  0  0  0  0  0  0
  183.8670  178.5770  141.4860 C   0  0  1  0  0  3  0  0  0  0  0  0
  184.5960  179.2440  140.2940 C   0  0  2  0  0  3  0  0  0  0  0  0
  182.0390  178.2140  137.5280 C   0  0  1  0  0  3  0  0  0  0  0  0
  183.2600  176.1880  137.1860 O   0  0  0  0  0  1  0  0  0  0  0  0
  182.0890  176.8590  136.8350 C   0  0  0  0  0  2  0  0  0  0  0  0
  180.7040  178.5620  137.7610 O   0  0  0  0  0  0  0  0  0  0  0  0
  180.2880  179.1960  136.5890 C   0  0  0  0  0  2  0  0  0  0  0  0
  180.9660  180.4060  136.4490 O   0  0  0  0  0  1  0  0  0  0  0  0
  186.6360  177.5250  145.4110 C   0  0  0  0  0  2  0  0  0  0  0  0
  187.3300  176.8300  144.4170 O   0  0  0  0  0  0  0  0  0  0  0  0
  188.6610  176.8140  144.8470 C   0  0  2  0  0  3  0  0  0  0  0  0
  188.9220  177.9600  145.8070 C   0  0  0  0  0  1  0  0  0  0  0  0
  189.6560  176.8050  143.6710 C   0  0  2  0  0  3  0  0  0  0  0  0
  191.8800  175.5570  143.8170 C   0  0  0  0  0  1  0  0  0  0  0  0
  191.1530  176.8750  144.0330 C   0  0  1  0  0  3  0  0  0  0  0  0
  191.9490  179.1220  144.1790 O   0  0  0  0  0  1  0  0  0  0  0  0
  191.8890  178.0080  143.3400 C   0  0  0  0  0  2  0  0  0  0  0  0
  189.3340  177.8210  142.7650 O   0  0  0  0  0  0  0  0  0  0  0  0
  188.8000  177.1640  141.6540 C   0  0  0  0  0  2  0  0  0  0  0  0
  189.6130  177.4780  140.4510 C   0  0  0  0  0  0  0  0  0  0  0  0
  190.8090  176.7530  140.1910 N   0  0  0  0  0  1  0  0  0  0  0  0
  189.2300  178.3680  139.6500 O   0  0  0  0  0  0  0  0  0  0  0  0
  1  2  1  0  0  0  0
  2  7  2  0  0  0  0
  3 22  1  0  0  0  0
  3  2  1  0  0  0  0
  4  3  2  0  0  0  0
  5  4  1  1  0  0  0
  5  6  1  0  0  0  0
  6  1  2  0  0  0  0
  8 13  1  0  0  0  0
  9 12  1  1  0  0  0
  9 15  1  0  0  0  0
 10 16  1  6  0  0  0
 10  9  1  0  0  0  0
 10  8  1  0  0  0  0
 14 13  1  6  0  0  0
 14  5  1  0  0  0  0
 15 11  1  6  0  0  0
 15 14  1  0  0  0  0
 16 18  1  1  0  0  0
 16 19  1  0  0  0  0
 18 17  1  0  0  0  0
 20 19  1  0  0  0  0
 21 20  1  0  0  0  0
 23 24  1  0  0  0  0
 23 22  1  0  0  0  0
 24 25  1  1  0  0  0
 26 31  1  6  0  0  0
 26 28  1  0  0  0  0
 26 24  1  0  0  0  0
 28 27  1  6  0  0  0
 30 28  1  0  0  0  0
 30 29  1  0  0  0  0
 32 31  1  0  0  0  0
 33 32  1  0  0  0  0
 34 33  1  0  0  0  0
 35 33  2  0  0  0  0
M  END
>  <MODEL>
5

>  <REMARK>
 VINA RESULT:      -6.6      2.158      3.046
  Name = 
  14 active torsions:
  status: ('A' for Active; 'I' for Inactive)
    1  A    between atoms: C_5  and  O_33
    2  A    between atoms: C_7  and  C_32
    3  A    between atoms: C_8  and  C_24
    4  A    between atoms: C_9  and  O_14
    5  A    between atoms: C_9  and  C_24
    6  A    between atoms: C_9  and  C_25
    7  A    between atoms: C_10  and  C_32
    8  A    between atoms: O_14  and  C_29
    9  A    between atoms: C_15  and  C_35
   10  A    between atoms: C_18  and  C_29
   11  A    between atoms: C_19  and  C_30
   12  A    between atoms: O_23  and  C_25
   13  A    between atoms: O_23  and  C_35
   14  A    between atoms: C_32  and  O_33
                            x       y       z     vdW  Elec       q    Type
                         _______ _______ _______ _____ _____    ______ ____

>  <TORSDO>
F 14

$$$$
=
 OpenBabel11062413463D

 35 36  0  0  1  0  0  0  0  0999 V2000
  193.4810  177.2310  139.4690 N   0  0  0  0  0  0  0  0  0  0  0  0
  192.9980  176.5510  138.3080 C   0  0  0  0  0  0  0  0  0  0  0  0
  191.6080  176.0750  138.2780 C   0  0  0  0  0  0  0  0  0  0  0  0
  190.7830  176.4180  139.2680 C   0  0  0  0  0  3  0  0  0  0  0  0
  191.1910  177.3610  140.3770 C   0  0  2  0  0  3  0  0  0  0  0  0
  192.6880  177.5760  140.4390 C   0  0  0  0  0  3  0  0  0  0  0  0
  193.7780  176.3220  137.3460 O   0  0  0  0  0  0  0  0  0  0  0  0
  191.2150  176.1330  144.0670 C   0  0  0  0  0  2  0  0  0  0  0  0
  189.7060  178.1830  143.8310 C   0  0  1  0  0  3  0  0  0  0  0  0
  189.9190  176.8270  144.5240 C   0  0  2  0  0  3  0  0  0  0  0  0
  188.2280  177.7140  141.8900 C   0  0  0  0  0  1  0  0  0  0  0  0
  190.7130  179.0870  144.1840 O   0  0  0  0  0  1  0  0  0  0  0  0
  191.7500  176.6520  142.7300 C   0  0  0  0  0  2  0  0  0  0  0  0
  190.6140  176.9490  141.7430 C   0  0  1  0  0  3  0  0  0  0  0  0
  189.6550  178.0270  142.3050 C   0  0  2  0  0  3  0  0  0  0  0  0
  189.8550  176.9410  146.0510 C   0  0  1  0  0  3  0  0  0  0  0  0
  191.3790  175.8690  147.5480 O   0  0  0  0  0  1  0  0  0  0  0  0
  191.2590  176.9210  146.6400 C   0  0  0  0  0  2  0  0  0  0  0  0
  189.2190  178.1300  146.4240 O   0  0  0  0  0  0  0  0  0  0  0  0
  188.2200  177.7390  147.3160 C   0  0  0  0  0  2  0  0  0  0  0  0
  188.6370  177.9940  148.6220 O   0  0  0  0  0  1  0  0  0  0  0  0
  191.1140  175.2070  137.1710 C   0  0  0  0  0  2  0  0  0  0  0  0
  190.2350  174.2460  137.6770 O   0  0  0  0  0  0  0  0  0  0  0  0
  189.3720  173.9490  136.6180 C   0  0  2  0  0  3  0  0  0  0  0  0
  189.8720  174.5830  135.3320 C   0  0  0  0  0  1  0  0  0  0  0  0
  187.9130  174.3350  136.9250 C   0  0  2  0  0  3  0  0  0  0  0  0
  187.4070  171.9880  136.0560 C   0  0  0  0  0  1  0  0  0  0  0  0
  186.8300  173.3110  136.5320 C   0  0  1  0  0  3  0  0  0  0  0  0
  184.7840  174.0360  137.5270 O   0  0  0  0  0  1  0  0  0  0  0  0
  185.7950  173.0790  137.6190 C   0  0  0  0  0  2  0  0  0  0  0  0
  187.6200  175.5830  136.3630 O   0  0  0  0  0  0  0  0  0  0  0  0
  187.4590  176.4440  137.4500 C   0  0  0  0  0  2  0  0  0  0  0  0
  187.8880  177.8140  137.0680 C   0  0  0  0  0  0  0  0  0  0  0  0
  189.0750  178.0020  136.3060 N   0  0  0  0  0  1  0  0  0  0  0  0
  187.1870  178.8050  137.3950 O   0  0  0  0  0  0  0  0  0  0  0  0
  1  6  2  0  0  0  0
  2  1  1  0  0  0  0
  3  2  1  0  0  0  0
  3  4  2  0  0  0  0
  5  4  1  6  0  0  0
  5  6  1  0  0  0  0
  5 14  1  0  0  0  0
  7  2  2  0  0  0  0
  8 10  1  0  0  0  0
  9 12  1  6  0  0  0
  9 10  1  0  0  0  0
 10 16  1  1  0  0  0
 13  8  1  0  0  0  0
 14 15  1  0  0  0  0
 14 13  1  1  0  0  0
 15 11  1  1  0  0  0
 15  9  1  0  0  0  0
 16 19  1  0  0  0  0
 16 18  1  1  0  0  0
 18 17  1  0  0  0  0
 19 20  1  0  0  0  0
 20 21  1  0  0  0  0
 22 23  1  0  0  0  0
 22  3  1  0  0  0  0
 24 25  1  6  0  0  0
 24 26  1  0  0  0  0
 24 23  1  0  0  0  0
 26 31  1  6  0  0  0
 28 27  1  1  0  0  0
 28 26  1  0  0  0  0
 28 30  1  0  0  0  0
 29 30  1  0  0  0  0
 31 32  1  0  0  0  0
 33 35  2  0  0  0  0
 33 32  1  0  0  0  0
 34 33  1  0  0  0  0
M  END
>  <MODEL>
6

>  <REMARK>
 VINA RESULT:      -6.6      4.610     10.314
  Name = 
  14 active torsions:
  status: ('A' for Active; 'I' for Inactive)
    1  A    between atoms: C_5  and  O_33
    2  A    between atoms: C_7  and  C_32
    3  A    between atoms: C_8  and  C_24
    4  A    between atoms: C_9  and  O_14
    5  A    between atoms: C_9  and  C_24
    6  A    between atoms: C_9  and  C_25
    7  A    between atoms: C_10  and  C_32
    8  A    between atoms: O_14  and  C_29
    9  A    between atoms: C_15  and  C_35
   10  A    between atoms: C_18  and  C_29
   11  A    between atoms: C_19  and  C_30
   12  A    between atoms: O_23  and  C_25
   13  A    between atoms: O_23  and  C_35
   14  A    between atoms: C_32  and  O_33
                            x       y       z     vdW  Elec       q    Type
                         _______ _______ _______ _____ _____    ______ ____

>  <TORSDO>
F 14

$$$$
=
 OpenBabel11062413463D

 35 36  0  0  1  0  0  0  0  0999 V2000
  182.9800  179.3170  144.5470 N   0  0  0  0  0  0  0  0  0  0  0  0
  182.4410  179.2560  143.2250 C   0  0  0  0  0  0  0  0  0  0  0  0
  183.2610  178.7020  142.1380 C   0  0  0  0  0  0  0  0  0  0  0  0
  184.4280  178.1290  142.4320 C   0  0  0  0  0  3  0  0  0  0  0  0
  184.9050  177.9370  143.8540 C   0  0  2  0  0  3  0  0  0  0  0  0
  184.1140  178.7590  144.8510 C   0  0  0  0  0  3  0  0  0  0  0  0
  181.2940  179.7220  142.9930 O   0  0  0  0  0  0  0  0  0  0  0  0
  188.4090  177.8010  145.5340 C   0  0  0  0  0  2  0  0  0  0  0  0
  188.5670  177.0220  143.1040 C   0  0  1  0  0  3  0  0  0  0  0  0
  189.2540  177.7870  144.2470 C   0  0  2  0  0  3  0  0  0  0  0  0
  187.3870  178.7490  141.7630 C   0  0  0  0  0  1  0  0  0  0  0  0
  188.4220  175.6690  143.4260 O   0  0  0  0  0  1  0  0  0  0  0  0
  186.9260  177.5080  145.2960 C   0  0  0  0  0  2  0  0  0  0  0  0
  186.4200  178.1590  144.0030 C   0  0  1  0  0  3  0  0  0  0  0  0
  187.1980  177.6300  142.7720 C   0  0  2  0  0  3  0  0  0  0  0  0
  190.6730  177.2720  144.5160 C   0  0  1  0  0  3  0  0  0  0  0  0
  191.6690  179.3750  143.9710 O   0  0  0  0  0  1  0  0  0  0  0  0
  191.6770  178.0180  143.6480 C   0  0  0  0  0  2  0  0  0  0  0  0
  191.0090  177.4500  145.8630 O   0  0  0  0  0  0  0  0  0  0  0  0
  191.7480  176.3170  146.2030 C   0  0  0  0  0  2  0  0  0  0  0  0
  192.0310  176.3370  147.5680 O   0  0  0  0  0  1  0  0  0  0  0  0
  182.8140  178.7840  140.7180 C   0  0  0  0  0  2  0  0  0  0  0  0
  183.8760  178.4660  139.8670 O   0  0  0  0  0  0  0  0  0  0  0  0
  183.4630  178.8840  138.5980 C   0  0  2  0  0  3  0  0  0  0  0  0
  182.2010  179.7210  138.7000 C   0  0  0  0  0  1  0  0  0  0  0  0
  183.3000  177.7060  137.6180 C   0  0  2  0  0  3  0  0  0  0  0  0
  181.2690  176.7740  136.3820 C   0  0  0  0  0  1  0  0  0  0  0  0
  181.9860  176.9050  137.7150 C   0  0  1  0  0  3  0  0  0  0  0  0
  181.8290  175.6130  139.7180 O   0  0  0  0  0  1  0  0  0  0  0  0
  182.1570  175.5420  138.3630 C   0  0  0  0  0  2  0  0  0  0  0  0
  184.3960  176.8430  137.7200 O   0  0  0  0  0  0  0  0  0  0  0  0
  185.3300  177.3300  136.8030 C   0  0  0  0  0  2  0  0  0  0  0  0
  186.6850  177.3080  137.4120 C   0  0  0  0  0  0  0  0  0  0  0  0
  187.1400  178.4170  138.1780 N   0  0  0  0  0  1  0  0  0  0  0  0
  187.4190  176.2960  137.2730 O   0  0  0  0  0  0  0  0  0  0  0  0
  1  6  2  0  0  0  0
  2  1  1  0  0  0  0
  3  4  2  0  0  0  0
  3  2  1  0  0  0  0
  5  4  1  6  0  0  0
  5 14  1  0  0  0  0
  5  6  1  0  0  0  0
  7  2  2  0  0  0  0
  9 12  1  1  0  0  0
  9 10  1  0  0  0  0
 10 16  1  1  0  0  0
 10  8  1  0  0  0  0
 13  8  1  0  0  0  0
 14 13  1  1  0  0  0
 15 11  1  6  0  0  0
 15  9  1  0  0  0  0
 15 14  1  0  0  0  0
 16 18  1  6  0  0  0
 16 19  1  0  0  0  0
 18 17  1  0  0  0  0
 19 20  1  0  0  0  0
 20 21  1  0  0  0  0
 22  3  1  0  0  0  0
 23 22  1  0  0  0  0
 24 25  1  1  0  0  0
 24 23  1  0  0  0  0
 26 28  1  0  0  0  0
 26 31  1  1  0  0  0
 26 24  1  0  0  0  0
 28 27  1  6  0  0  0
 28 30  1  0  0  0  0
 30 29  1  0  0  0  0
 32 33  1  0  0  0  0
 32 31  1  0  0  0  0
 33 34  1  0  0  0  0
 35 33  2  0  0  0  0
M  END
>  <MODEL>
7

>  <REMARK>
 VINA RESULT:      -6.6      2.679      8.992
  Name = 
  14 active torsions:
  status: ('A' for Active; 'I' for Inactive)
    1  A    between atoms: C_5  and  O_33
    2  A    between atoms: C_7  and  C_32
    3  A    between atoms: C_8  and  C_24
    4  A    between atoms: C_9  and  O_14
    5  A    between atoms: C_9  and  C_24
    6  A    between atoms: C_9  and  C_25
    7  A    between atoms: C_10  and  C_32
    8  A    between atoms: O_14  and  C_29
    9  A    between atoms: C_15  and  C_35
   10  A    between atoms: C_18  and  C_29
   11  A    between atoms: C_19  and  C_30
   12  A    between atoms: O_23  and  C_25
   13  A    between atoms: O_23  and  C_35
   14  A    between atoms: C_32  and  O_33
                            x       y       z     vdW  Elec       q    Type
                         _______ _______ _______ _____ _____    ______ ____

>  <TORSDO>
F 14

$$$$
=
 OpenBabel11062413463D

 35 36  0  0  1  0  0  0  0  0999 V2000
  190.1850  176.4410  139.6890 N   0  0  0  0  0  0  0  0  0  0  0  0
  189.0490  176.8890  138.9460 C   0  0  0  0  0  0  0  0  0  0  0  0
  188.1380  177.8730  139.5460 C   0  0  0  0  0  0  0  0  0  0  0  0
  188.4680  178.4420  140.7060 C   0  0  0  0  0  3  0  0  0  0  0  0
  189.7940  178.1880  141.3880 C   0  0  2  0  0  3  0  0  0  0  0  0
  190.5220  176.9880  140.8190 C   0  0  0  0  0  3  0  0  0  0  0  0
  188.8110  176.4010  137.8090 O   0  0  0  0  0  0  0  0  0  0  0  0
  188.6810  176.7600  144.8290 C   0  0  0  0  0  2  0  0  0  0  0  0
  191.1710  177.3370  144.8790 C   0  0  1  0  0  3  0  0  0  0  0  0
  189.8510  177.3060  145.6670 C   0  0  2  0  0  3  0  0  0  0  0  0
  191.3490  179.6410  143.9680 C   0  0  0  0  0  1  0  0  0  0  0  0
  191.5770  176.0430  144.5370 O   0  0  0  0  0  1  0  0  0  0  0  0
  188.9260  176.8220  143.3200 C   0  0  0  0  0  2  0  0  0  0  0  0
  189.6630  178.1060  142.9190 C   0  0  1  0  0  3  0  0  0  0  0  0
  191.0440  178.1960  143.6140 C   0  0  2  0  0  3  0  0  0  0  0  0
  189.9880  176.5510  146.9940 C   0  0  1  0  0  3  0  0  0  0  0  0
  192.2130  176.2410  147.8110 O   0  0  0  0  0  1  0  0  0  0  0  0
  191.1360  177.1280  147.8120 C   0  0  0  0  0  2  0  0  0  0  0  0
  188.8040  176.6480  147.7340 O   0  0  0  0  0  0  0  0  0  0  0  0
  188.8650  177.8990  148.3500 C   0  0  0  0  0  2  0  0  0  0  0  0
  187.6350  178.5410  148.2220 O   0  0  0  0  0  1  0  0  0  0  0  0
  186.8490  178.2330  138.8880 C   0  0  0  0  0  2  0  0  0  0  0  0
  186.0710  179.0040  139.7550 O   0  0  0  0  0  0  0  0  0  0  0  0
  184.8080  178.4050  139.7400 C   0  0  2  0  0  3  0  0  0  0  0  0
  184.2090  178.4660  138.3460 C   0  0  0  0  0  1  0  0  0  0  0  0
  183.8640  179.0010  140.8020 C   0  0  2  0  0  3  0  0  0  0  0  0
  185.3700  178.0690  142.6420 C   0  0  0  0  0  1  0  0  0  0  0  0
  183.9480  178.3940  142.2170 C   0  0  1  0  0  3  0  0  0  0  0  0
  183.4130  178.6470  144.5310 O   0  0  0  0  0  1  0  0  0  0  0  0
  183.2550  179.2350  143.2750 C   0  0  0  0  0  2  0  0  0  0  0  0
  182.5440  178.9650  140.3420 O   0  0  0  0  0  0  0  0  0  0  0  0
  181.9870  177.8220  140.9180 C   0  0  0  0  0  2  0  0  0  0  0  0
  181.1440  177.1190  139.9170 C   0  0  0  0  0  0  0  0  0  0  0  0
  179.7680  177.4560  139.7810 N   0  0  0  0  0  1  0  0  0  0  0  0
  181.6540  176.2450  139.1710 O   0  0  0  0  0  0  0  0  0  0  0  0
  1  6  2  0  0  0  0
  2  3  1  0  0  0  0
  2  1  1  0  0  0  0
  3  4  2  0  0  0  0
  5  4  1  6  0  0  0
  5 14  1  0  0  0  0
  6  5  1  0  0  0  0
  7  2  2  0  0  0  0
  8 10  1  0  0  0  0
  9 12  1  6  0  0  0
  9 10  1  0  0  0  0
 10 16  1  1  0  0  0
 13  8  1  0  0  0  0
 14 13  1  6  0  0  0
 14 15  1  0  0  0  0
 15 11  1  1  0  0  0
 15  9  1  0  0  0  0
 16 19  1  0  0  0  0
 16 18  1  1  0  0  0
 17 18  1  0  0  0  0
 19 20  1  0  0  0  0
 21 20  1  0  0  0  0
 22  3  1  0  0  0  0
 22 23  1  0  0  0  0
 24 25  1  6  0  0  0
 24 23  1  0  0  0  0
 24 26  1  0  0  0  0
 26 31  1  6  0  0  0
 26 28  1  0  0  0  0
 28 27  1  1  0  0  0
 28 30  1  0  0  0  0
 30 29  1  0  0  0  0
 31 32  1  0  0  0  0
 33 32  1  0  0  0  0
 34 33  1  0  0  0  0
 35 33  2  0  0  0  0
M  END
>  <MODEL>
8

>  <REMARK>
 VINA RESULT:      -6.5      2.750      9.745
  Name = 
  14 active torsions:
  status: ('A' for Active; 'I' for Inactive)
    1  A    between atoms: C_5  and  O_33
    2  A    between atoms: C_7  and  C_32
    3  A    between atoms: C_8  and  C_24
    4  A    between atoms: C_9  and  O_14
    5  A    between atoms: C_9  and  C_24
    6  A    between atoms: C_9  and  C_25
    7  A    between atoms: C_10  and  C_32
    8  A    between atoms: O_14  and  C_29
    9  A    between atoms: C_15  and  C_35
   10  A    between atoms: C_18  and  C_29
   11  A    between atoms: C_19  and  C_30
   12  A    between atoms: O_23  and  C_25
   13  A    between atoms: O_23  and  C_35
   14  A    between atoms: C_32  and  O_33
                            x       y       z     vdW  Elec       q    Type
                         _______ _______ _______ _____ _____    ______ ____

>  <TORSDO>
F 14

$$$$
=
 OpenBabel11062413463D

 35 36  0  0  1  0  0  0  0  0999 V2000
  190.5460  176.0670  139.7900 N   0  0  0  0  0  0  0  0  0  0  0  0
  189.7820  176.5040  138.6630 C   0  0  0  0  0  0  0  0  0  0  0  0
  188.8890  177.6630  138.8050 C   0  0  0  0  0  0  0  0  0  0  0  0
  188.9220  178.3740  139.9320 C   0  0  0  0  0  3  0  0  0  0  0  0
  189.9130  178.0970  141.0400 C   0  0  2  0  0  3  0  0  0  0  0  0
  190.5930  176.7520  140.8930 C   0  0  0  0  0  3  0  0  0  0  0  0
  189.8420  175.8660  137.5790 O   0  0  0  0  0  0  0  0  0  0  0  0
  187.4390  177.5150  143.9830 C   0  0  0  0  0  2  0  0  0  0  0  0
  189.8490  177.4660  144.8360 C   0  0  1  0  0  3  0  0  0  0  0  0
  188.3970  177.8770  145.1330 C   0  0  2  0  0  3  0  0  0  0  0  0
  190.9370  179.4950  143.9020 C   0  0  0  0  0  1  0  0  0  0  0  0
  189.9610  176.0760  144.7300 O   0  0  0  0  0  1  0  0  0  0  0  0
  188.1450  177.2900  142.6440 C   0  0  0  0  0  2  0  0  0  0  0  0
  189.2990  178.2800  142.4390 C   0  0  1  0  0  3  0  0  0  0  0  0
  190.3640  178.1320  143.5530 C   0  0  2  0  0  3  0  0  0  0  0  0
  187.9000  177.3190  146.4710 C   0  0  1  0  0  3  0  0  0  0  0  0
  189.6370  177.5050  148.1030 O   0  0  0  0  0  1  0  0  0  0  0  0
  188.4810  178.1240  147.6260 C   0  0  0  0  0  2  0  0  0  0  0  0
  186.5030  177.3720  146.5320 O   0  0  0  0  0  0  0  0  0  0  0  0
  186.2160  178.5830  147.1620 C   0  0  0  0  0  2  0  0  0  0  0  0
  184.9280  178.9920  146.8200 O   0  0  0  0  0  1  0  0  0  0  0  0
  187.9420  178.0430  137.7180 C   0  0  0  0  0  2  0  0  0  0  0  0
  186.7550  178.5300  138.2720 O   0  0  0  0  0  0  0  0  0  0  0  0
  185.7590  177.6600  137.8170 C   0  0  2  0  0  3  0  0  0  0  0  0
  185.9500  177.3600  136.3410 C   0  0  0  0  0  1  0  0  0  0  0  0
  184.3420  178.1820  138.1230 C   0  0  2  0  0  3  0  0  0  0  0  0
  183.0450  180.2650  138.8310 C   0  0  0  0  0  1  0  0  0  0  0  0
  184.2390  179.3650  139.1050 C   0  0  1  0  0  3  0  0  0  0  0  0
  185.4440  179.3780  141.1670 O   0  0  0  0  0  1  0  0  0  0  0  0
  184.2630  178.9430  140.5640 C   0  0  0  0  0  2  0  0  0  0  0  0
  183.5280  177.1290  138.5540 O   0  0  0  0  0  0  0  0  0  0  0  0
  182.6700  176.8690  137.4830 C   0  0  0  0  0  2  0  0  0  0  0  0
  182.5660  175.4020  137.2730 C   0  0  0  0  0  0  0  0  0  0  0  0
  181.6230  174.6400  138.0180 N   0  0  0  0  0  1  0  0  0  0  0  0
  183.2930  174.8380  136.4150 O   0  0  0  0  0  0  0  0  0  0  0  0
  1  6  2  0  0  0  0
  2  3  1  0  0  0  0
  2  1  1  0  0  0  0
  3  4  2  0  0  0  0
  5  4  1  6  0  0  0
  5 14  1  0  0  0  0
  6  5  1  0  0  0  0
  7  2  2  0  0  0  0
  8 10  1  0  0  0  0
  9 12  1  6  0  0  0
  9 10  1  0  0  0  0
 10 16  1  1  0  0  0
 13  8  1  0  0  0  0
 14 13  1  1  0  0  0
 14 15  1  0  0  0  0
 15 11  1  1  0  0  0
 15  9  1  0  0  0  0
 16 19  1  0  0  0  0
 16 18  1  1  0  0  0
 18 17  1  0  0  0  0
 19 20  1  0  0  0  0
 21 20  1  0  0  0  0
 22 23  1  0  0  0  0
 22  3  1  0  0  0  0
 24 25  1  6  0  0  0
 24 26  1  0  0  0  0
 24 23  1  0  0  0  0
 26 31  1  1  0  0  0
 26 28  1  0  0  0  0
 28 27  1  6  0  0  0
 28 30  1  0  0  0  0
 30 29  1  0  0  0  0
 32 31  1  0  0  0  0
 33 32  1  0  0  0  0
 33 34  1  0  0  0  0
 35 33  2  0  0  0  0
M  END
>  <MODEL>
9

>  <REMARK>
 VINA RESULT:      -6.5      3.060      9.596
  Name = 
  14 active torsions:
  status: ('A' for Active; 'I' for Inactive)
    1  A    between atoms: C_5  and  O_33
    2  A    between atoms: C_7  and  C_32
    3  A    between atoms: C_8  and  C_24
    4  A    between atoms: C_9  and  O_14
    5  A    between atoms: C_9  and  C_24
    6  A    between atoms: C_9  and  C_25
    7  A    between atoms: C_10  and  C_32
    8  A    between atoms: O_14  and  C_29
    9  A    between atoms: C_15  and  C_35
   10  A    between atoms: C_18  and  C_29
   11  A    between atoms: C_19  and  C_30
   12  A    between atoms: O_23  and  C_25
   13  A    between atoms: O_23  and  C_35
   14  A    between atoms: C_32  and  O_33
                            x       y       z     vdW  Elec       q    Type
                         _______ _______ _______ _____ _____    ______ ____

>  <TORSDO>
F 14

$$$$
