=
 OpenBabel11062412213D

 43 46  0  0  1  0  0  0  0  0999 V2000
  184.5260  178.7220  143.0960 C   0  0  2  0  0  3  0  0  0  0  0  0
  188.5030  174.1690  137.1220 C   0  0  0  0  0  2  0  0  0  0  0  0
  183.1100  178.5600  139.5740 C   0  0  2  0  0  3  0  0  0  0  0  0
  186.2560  174.4590  134.7970 C   0  0  0  0  0  1  0  0  0  0  0  0
  188.6620  176.3520  142.0430 C   0  0  0  0  0  2  0  0  0  0  0  0
  185.5400  179.5010  145.6790 C   0  0  0  0  0  2  0  0  0  0  0  0
  186.6430  175.7810  136.9570 C   0  0  2  0  0  0  0  0  0  0  0  0
  185.1250  175.8220  137.0780 C   0  0  0  0  0  0  0  0  0  0  0  0
  183.3070  178.5460  144.0400 C   0  0  2  0  0  3  0  0  0  0  0  0
  181.5220  176.7650  139.6620 O   0  0  0  0  0  0  0  0  0  0  0  0
  186.3360  178.6960  144.7690 N   0  0  0  0  0  0  0  0  0  0  0  0
  182.9220  178.6270  141.0890 C   0  0  0  0  0  2  0  0  0  0  0  0
  182.3180  177.4340  138.9450 C   0  0  0  0  0  0  0  0  0  0  0  0
  184.2950  176.5740  136.0710 C   0  0  0  0  0  2  0  0  0  0  0  0
  188.4280  178.5140  139.1200 C   0  0  1  0  0  3  0  0  0  0  0  0
  184.6040  178.3910  139.3430 C   0  0  0  0  0  2  0  0  0  0  0  0
  182.4320  179.7850  143.9730 C   0  0  0  0  0  1  0  0  0  0  0  0
  187.7940  177.2750  138.6890 N   0  0  0  0  0  2  0  0  0  0  0  0
  187.9590  176.9670  143.2420 C   0  0  0  0  0  2  0  0  0  0  0  0
  187.2430  174.6610  137.8210 C   0  0  0  0  0  2  0  0  0  0  0  0
  188.5670  178.5540  140.6420 C   0  0  0  0  0  2  0  0  0  0  0  0
  184.5660  175.2430  137.9980 O   0  0  0  0  0  0  0  0  0  0  0  0
  186.6710  177.4170  142.8460 O   0  0  0  0  0  0  0  0  0  0  0  0
  187.1030  178.1180  136.6260 O   0  0  0  0  0  0  0  0  0  0  0  0
  182.3950  177.1530  137.5320 N   0  0  0  0  0  0  0  0  0  0  0  0
  187.1970  177.1210  137.3950 C   0  0  0  0  0  0  0  0  0  0  0  0
  184.4970  178.6700  146.2180 N   0  0  0  0  0  0  0  0  0  0  0  0
  189.3430  177.4000  141.2160 C   0  0  0  0  0  0  0  0  0  0  0  0
  184.2360  178.1570  141.6900 C   0  0  1  0  0  3  0  0  0  0  0  0
  185.8790  178.2630  143.6300 C   0  0  0  0  0  0  0  0  0  0  0  0
  190.5450  177.3220  141.0280 O   0  0  0  0  0  0  0  0  0  0  0  0
  185.2660  178.6040  140.6800 C   0  0  0  0  0  2  0  0  0  0  0  0
  188.5390  174.8810  135.7800 C   0  0  2  0  0  3  0  0  0  0  0  0
  183.4700  177.6940  136.7040 C   0  0  0  0  0  2  0  0  0  0  0  0
  187.1490  175.4600  135.5350 C   0  0  1  0  0  3  0  0  0  0  0  0
  189.7700  178.6970  138.4300 C   0  0  0  0  0  1  0  0  0  0  0  0
  183.5410  178.1970  145.4940 C   0  0  0  0  0  3  0  0  0  0  0  0
  180.2200  177.3730  136.4300 C   0  0  0  0  0  1  0  0  0  0  0  0
  181.3200  176.4230  136.8670 C   0  0  0  0  0  2  0  0  0  0  0  0
  189.1930  174.1420  134.5940 C   0  0  0  0  0  2  0  0  0  0  0  0
  191.3790  175.3330  135.0000 C   0  0  0  0  0  1  0  0  0  0  0  0
  190.7230  174.0280  134.5950 C   0  0  1  0  0  3  0  0  0  0  0  0
  191.1640  172.9860  135.4110 O   0  0  0  0  0  1  0  0  0  0  0  0
  1 30  1  1  0  0  0
  1  9  1  0  0  0  0
  2 20  1  0  0  0  0
  3 16  1  1  0  0  0
  3 12  1  0  0  0  0
  5 19  1  0  0  0  0
  6 27  1  0  0  0  0
  7  8  1  0  0  0  0
  7 26  1  0  0  0  0
  7 20  1  1  0  0  0
  8 22  2  0  0  0  0
  9 17  1  1  0  0  0
  9 37  1  0  0  0  0
 11  6  1  0  0  0  0
 12 29  1  0  0  0  0
 13  3  1  0  0  0  0
 13 10  2  0  0  0  0
 14 34  1  0  0  0  0
 14  8  1  0  0  0  0
 15 36  1  6  0  0  0
 15 21  1  0  0  0  0
 16 32  1  0  0  0  0
 18 15  1  0  0  0  0
 21 28  1  0  0  0  0
 23 19  1  0  0  0  0
 23 30  1  0  0  0  0
 24 26  2  0  0  0  0
 25 13  1  0  0  0  0
 26 18  1  0  0  0  0
 28  5  1  0  0  0  0
 29 32  1  6  0  0  0
 29  1  1  0  0  0  0
 30 11  2  0  0  0  0
 31 28  2  0  0  0  0
 33 40  1  6  0  0  0
 33  2  1  0  0  0  0
 34 25  1  0  0  0  0
 35  4  1  1  0  0  0
 35 33  1  0  0  0  0
 35  7  1  0  0  0  0
 37 27  2  0  0  0  0
 38 39  1  0  0  0  0
 39 25  1  0  0  0  0
 40 42  1  0  0  0  0
 42 41  1  1  0  0  0
 42 43  1  0  0  0  0
M  END
>  <MODEL>
1

>  <REMARK>
 VINA RESULT:      -6.1      0.000      0.000
  Name = 
  3 active torsions:
  status: ('A' for Active; 'I' for Inactive)
    1  A    between atoms: C_21  and  C_33
    2  A    between atoms: N_29  and  C_32
    3  A    between atoms: C_33  and  C_39
                            x       y       z     vdW  Elec       q    Type
                         _______ _______ _______ _____ _____    ______ ____

>  <TORSDO>
F 3

$$$$
=
 OpenBabel11062412213D

 43 46  0  0  1  0  0  0  0  0999 V2000
  189.0520  177.9950  140.9100 C   0  0  2  0  0  3  0  0  0  0  0  0
  182.9170  174.2080  136.4090 C   0  0  0  0  0  2  0  0  0  0  0  0
  185.4530  179.1670  141.2420 C   0  0  2  0  0  3  0  0  0  0  0  0
  180.3910  175.7240  137.7700 C   0  0  0  0  0  1  0  0  0  0  0  0
  188.1950  174.8970  137.2360 C   0  0  0  0  0  2  0  0  0  0  0  0
  191.9020  177.7520  140.5520 C   0  0  0  0  0  2  0  0  0  0  0  0
  182.8940  176.2710  137.7620 C   0  0  2  0  0  0  0  0  0  0  0  0
  182.6940  176.7130  139.2050 C   0  0  0  0  0  0  0  0  0  0  0  0
  189.6040  177.9370  142.3590 C   0  0  2  0  0  3  0  0  0  0  0  0
  184.6090  177.9450  143.1250 O   0  0  0  0  0  0  0  0  0  0  0  0
  190.9720  177.0170  139.7120 N   0  0  0  0  0  0  0  0  0  0  0  0
  186.8300  178.8890  141.8440 C   0  0  0  0  0  2  0  0  0  0  0  0
  184.3380  178.5190  142.0340 C   0  0  0  0  0  0  0  0  0  0  0  0
  181.8340  177.9060  139.5310 C   0  0  0  0  0  2  0  0  0  0  0  0
  186.1590  177.7170  136.1540 C   0  0  1  0  0  3  0  0  0  0  0  0
  185.5060  178.6430  139.8150 C   0  0  0  0  0  2  0  0  0  0  0  0
  189.7590  179.3480  142.8980 C   0  0  0  0  0  1  0  0  0  0  0  0
  185.2220  176.8690  136.8790 N   0  0  0  0  0  2  0  0  0  0  0  0
  189.3500  175.3540  138.1130 C   0  0  0  0  0  2  0  0  0  0  0  0
  183.4530  174.8420  137.6860 C   0  0  0  0  0  2  0  0  0  0  0  0
  187.6030  177.3180  136.4580 C   0  0  0  0  0  2  0  0  0  0  0  0
  183.2330  176.1000  140.1160 O   0  0  0  0  0  0  0  0  0  0  0  0
  188.8560  176.2410  139.1070 O   0  0  0  0  0  0  0  0  0  0  0  0
  183.4500  178.3800  136.7490 O   0  0  0  0  0  0  0  0  0  0  0  0
  182.9620  178.6060  141.6100 N   0  0  0  0  0  0  0  0  0  0  0  0
  183.8530  177.2340  137.0920 C   0  0  0  0  0  0  0  0  0  0  0  0
  191.9040  177.1440  141.8560 N   0  0  0  0  0  0  0  0  0  0  0  0
  187.9210  175.8830  136.1420 C   0  0  0  0  0  0  0  0  0  0  0  0
  187.5110  177.9230  140.8900 C   0  0  1  0  0  3  0  0  0  0  0  0
  189.6850  177.0450  139.8970 C   0  0  0  0  0  0  0  0  0  0  0  0
  187.9790  175.5140  134.9800 O   0  0  0  0  0  0  0  0  0  0  0  0
  186.9470  178.3010  139.5410 C   0  0  0  0  0  2  0  0  0  0  0  0
  181.9220  175.2030  135.8360 C   0  0  2  0  0  3  0  0  0  0  0  0
  182.6060  179.0110  140.2510 C   0  0  0  0  0  2  0  0  0  0  0  0
  181.5880  176.2000  136.9420 C   0  0  1  0  0  3  0  0  0  0  0  0
  185.8700  177.6790  134.6620 C   0  0  0  0  0  1  0  0  0  0  0  0
  190.8790  177.1710  142.6370 C   0  0  0  0  0  3  0  0  0  0  0  0
  180.9270  179.5940  142.5470 C   0  0  0  0  0  1  0  0  0  0  0  0
  181.8820  178.4130  142.5720 C   0  0  0  0  0  2  0  0  0  0  0  0
  180.7290  174.6420  135.0350 C   0  0  0  0  0  2  0  0  0  0  0  0
  178.9610  172.8640  134.7650 C   0  0  0  0  0  1  0  0  0  0  0  0
  180.3600  173.1710  135.2620 C   0  0  1  0  0  3  0  0  0  0  0  0
  181.2860  172.3080  134.6760 O   0  0  0  0  0  1  0  0  0  0  0  0
  1 30  1  6  0  0  0
  1  9  1  0  0  0  0
  2 20  1  0  0  0  0
  3 16  1  6  0  0  0
  3 12  1  0  0  0  0
  3 13  1  0  0  0  0
  5 19  1  0  0  0  0
  6 27  1  0  0  0  0
  7 20  1  1  0  0  0
  7  8  1  0  0  0  0
  8 14  1  0  0  0  0
  8 22  2  0  0  0  0
  9 37  1  0  0  0  0
  9 17  1  6  0  0  0
 11 30  2  0  0  0  0
 11  6  1  0  0  0  0
 13 10  2  0  0  0  0
 14 34  1  0  0  0  0
 15 36  1  6  0  0  0
 15 21  1  0  0  0  0
 15 18  1  0  0  0  0
 18 26  1  0  0  0  0
 19 23  1  0  0  0  0
 23 30  1  0  0  0  0
 24 26  2  0  0  0  0
 25 13  1  0  0  0  0
 25 39  1  0  0  0  0
 26  7  1  0  0  0  0
 27 37  2  0  0  0  0
 28 21  1  0  0  0  0
 28  5  1  0  0  0  0
 29 32  1  6  0  0  0
 29  1  1  0  0  0  0
 29 12  1  0  0  0  0
 31 28  2  0  0  0  0
 32 16  1  0  0  0  0
 33 40  1  1  0  0  0
 33  2  1  0  0  0  0
 33 35  1  0  0  0  0
 34 25  1  0  0  0  0
 35  7  1  0  0  0  0
 35  4  1  1  0  0  0
 38 39  1  0  0  0  0
 40 42  1  0  0  0  0
 42 41  1  6  0  0  0
 43 42  1  0  0  0  0
M  END
>  <MODEL>
2

>  <REMARK>
 VINA RESULT:      -4.7      2.440      5.943
  Name = 
  3 active torsions:
  status: ('A' for Active; 'I' for Inactive)
    1  A    between atoms: C_21  and  C_33
    2  A    between atoms: N_29  and  C_32
    3  A    between atoms: C_33  and  C_39
                            x       y       z     vdW  Elec       q    Type
                         _______ _______ _______ _____ _____    ______ ____

>  <TORSDO>
F 3

$$$$
=
 OpenBabel11062412213D

 43 46  0  0  1  0  0  0  0  0999 V2000
  190.3460  174.2650  136.0900 C   0  0  2  0  0  3  0  0  0  0  0  0
  182.6710  177.6750  134.7840 C   0  0  0  0  0  2  0  0  0  0  0  0
  187.2170  172.2250  136.7860 C   0  0  2  0  0  3  0  0  0  0  0  0
  180.9170  174.9960  135.3130 C   0  0  0  0  0  1  0  0  0  0  0  0
  187.9860  178.4440  135.1960 C   0  0  0  0  0  2  0  0  0  0  0  0
  192.8840  175.6270  136.1790 C   0  0  0  0  0  2  0  0  0  0  0  0
  183.3430  175.5790  135.8980 C   0  0  2  0  0  0  0  0  0  0  0  0
  183.6620  174.1300  135.5550 C   0  0  0  0  0  0  0  0  0  0  0  0
  191.3090  173.3040  135.3430 C   0  0  2  0  0  3  0  0  0  0  0  0
  186.8470  171.0050  134.7550 O   0  0  0  0  0  0  0  0  0  0  0  0
  191.6500  176.3500  135.9200 N   0  0  0  0  0  0  0  0  0  0  0  0
  188.6630  172.3330  136.3050 C   0  0  0  0  0  2  0  0  0  0  0  0
  186.3270  171.5210  135.7840 C   0  0  0  0  0  0  0  0  0  0  0  0
  183.1120  173.0040  136.3890 C   0  0  0  0  0  2  0  0  0  0  0  0
  186.1050  177.2800  138.0900 C   0  0  1  0  0  3  0  0  0  0  0  0
  186.7530  173.6500  137.0440 C   0  0  0  0  0  2  0  0  0  0  0  0
  191.8080  172.2400  136.3040 C   0  0  0  0  0  1  0  0  0  0  0  0
  185.3380  176.7870  136.9550 N   0  0  0  0  0  2  0  0  0  0  0  0
  189.4060  177.9000  135.2050 C   0  0  0  0  0  2  0  0  0  0  0  0
  183.6560  176.5160  134.7210 C   0  0  0  0  0  2  0  0  0  0  0  0
  187.5070  177.7100  137.6560 C   0  0  0  0  0  2  0  0  0  0  0  0
  184.3710  173.8690  134.5940 O   0  0  0  0  0  0  0  0  0  0  0  0
  189.3680  176.5030  135.4590 O   0  0  0  0  0  0  0  0  0  0  0  0
  183.8280  175.5710  138.2530 O   0  0  0  0  0  0  0  0  0  0  0  0
  184.9120  171.3620  136.0110 N   0  0  0  0  0  0  0  0  0  0  0  0
  184.1640  175.9800  137.1060 C   0  0  0  0  0  0  0  0  0  0  0  0
  193.2120  174.8640  135.0040 N   0  0  0  0  0  0  0  0  0  0  0  0
  187.5190  178.7640  136.5830 C   0  0  0  0  0  0  0  0  0  0  0  0
  188.8800  173.7990  135.9710 C   0  0  1  0  0  3  0  0  0  0  0  0
  190.5000  175.7540  135.7980 C   0  0  0  0  0  0  0  0  0  0  0  0
  187.1630  179.9010  136.8430 O   0  0  0  0  0  0  0  0  0  0  0  0
  187.9790  174.5200  136.9460 C   0  0  0  0  0  2  0  0  0  0  0  0
  181.6880  177.3270  135.8880 C   0  0  2  0  0  3  0  0  0  0  0  0
  184.2080  172.1470  137.0220 C   0  0  0  0  0  2  0  0  0  0  0  0
  181.8490  175.8390  136.1880 C   0  0  1  0  0  3  0  0  0  0  0  0
  185.3640  178.4100  138.7870 C   0  0  0  0  0  1  0  0  0  0  0  0
  192.4930  173.8750  134.5950 C   0  0  0  0  0  3  0  0  0  0  0  0
  183.0270  169.8100  136.1820 C   0  0  0  0  0  1  0  0  0  0  0  0
  184.1690  170.3130  135.3190 C   0  0  0  0  0  2  0  0  0  0  0  0
  180.2410  177.8460  135.7500 C   0  0  0  0  0  2  0  0  0  0  0  0
  180.9010  179.5140  137.5230 C   0  0  0  0  0  1  0  0  0  0  0  0
  179.9060  179.1800  136.4280 C   0  0  1  0  0  3  0  0  0  0  0  0
  179.8250  180.2240  135.5070 O   0  0  0  0  0  1  0  0  0  0  0  0
  1 30  1  6  0  0  0
  2 33  1  0  0  0  0
  3 12  1  6  0  0  0
  3 16  1  0  0  0  0
  5 19  1  0  0  0  0
  5 28  1  0  0  0  0
  7 20  1  6  0  0  0
  7 35  1  0  0  0  0
  7 26  1  0  0  0  0
  8  7  1  0  0  0  0
  8 14  1  0  0  0  0
  9  1  1  0  0  0  0
  9 17  1  1  0  0  0
 10 13  2  0  0  0  0
 11  6  1  0  0  0  0
 13 25  1  0  0  0  0
 13  3  1  0  0  0  0
 14 34  1  0  0  0  0
 15 36  1  6  0  0  0
 18 26  1  0  0  0  0
 18 15  1  0  0  0  0
 19 23  1  0  0  0  0
 20  2  1  0  0  0  0
 21 15  1  0  0  0  0
 22  8  2  0  0  0  0
 23 30  1  0  0  0  0
 25 34  1  0  0  0  0
 26 24  2  0  0  0  0
 27  6  1  0  0  0  0
 28 31  2  0  0  0  0
 28 21  1  0  0  0  0
 29  1  1  0  0  0  0
 29 12  1  1  0  0  0
 29 32  1  0  0  0  0
 30 11  2  0  0  0  0
 32 16  1  0  0  0  0
 33 40  1  6  0  0  0
 33 35  1  0  0  0  0
 35  4  1  6  0  0  0
 37 27  2  0  0  0  0
 37  9  1  0  0  0  0
 39 25  1  0  0  0  0
 39 38  1  0  0  0  0
 40 42  1  0  0  0  0
 42 41  1  1  0  0  0
 43 42  1  0  0  0  0
M  END
>  <MODEL>
3

>  <REMARK>
 VINA RESULT:      -3.8      3.842      8.379
  Name = 
  3 active torsions:
  status: ('A' for Active; 'I' for Inactive)
    1  A    between atoms: C_21  and  C_33
    2  A    between atoms: N_29  and  C_32
    3  A    between atoms: C_33  and  C_39
                            x       y       z     vdW  Elec       q    Type
                         _______ _______ _______ _____ _____    ______ ____

>  <TORSDO>
F 3

$$$$
=
 OpenBabel11062412213D

 43 46  0  0  1  0  0  0  0  0999 V2000
  182.9180  177.2370  138.6420 C   0  0  2  0  0  3  0  0  0  0  0  0
  190.8830  174.3970  137.7870 C   0  0  0  0  0  2  0  0  0  0  0  0
  183.7070  174.5290  136.0950 C   0  0  2  0  0  3  0  0  0  0  0  0
  190.2530  171.9710  135.7250 C   0  0  0  0  0  1  0  0  0  0  0  0
  187.5680  178.1060  139.8500 C   0  0  0  0  0  2  0  0  0  0  0  0
  182.0310  179.5880  140.0530 C   0  0  0  0  0  2  0  0  0  0  0  0
  188.8730  174.0200  136.4070 C   0  0  2  0  0  0  0  0  0  0  0  0
  187.6650  173.0950  136.3410 C   0  0  0  0  0  0  0  0  0  0  0  0
  181.6130  176.7770  139.3440 C   0  0  2  0  0  3  0  0  0  0  0  0
  183.2690  172.4810  137.2620 O   0  0  0  0  0  0  0  0  0  0  0  0
  183.4360  179.2170  140.0160 N   0  0  0  0  0  0  0  0  0  0  0  0
  182.7760  175.1650  137.1270 C   0  0  0  0  0  2  0  0  0  0  0  0
  183.9280  173.0540  136.3500 C   0  0  0  0  0  0  0  0  0  0  0  0
  187.2230  172.5000  135.0300 C   0  0  0  0  0  2  0  0  0  0  0  0
  187.9140  177.8120  136.2360 C   0  0  1  0  0  3  0  0  0  0  0  0
  185.0090  175.3120  136.1670 C   0  0  0  0  0  2  0  0  0  0  0  0
  180.4510  176.8820  138.3720 C   0  0  0  0  0  1  0  0  0  0  0  0
  188.2030  176.4700  136.7240 N   0  0  0  0  0  2  0  0  0  0  0  0
  186.1700  178.5670  140.2350 C   0  0  0  0  0  2  0  0  0  0  0  0
  189.3780  174.1800  137.8500 C   0  0  0  0  0  2  0  0  0  0  0  0
  187.2340  178.6510  137.3180 C   0  0  0  0  0  2  0  0  0  0  0  0
  187.0410  172.8270  137.3580 O   0  0  0  0  0  0  0  0  0  0  0  0
  185.2140  177.7850  139.5350 O   0  0  0  0  0  0  0  0  0  0  0  0
  188.3560  175.5180  134.6000 O   0  0  0  0  0  0  0  0  0  0  0  0
  184.8190  172.2710  135.5300 N   0  0  0  0  0  0  0  0  0  0  0  0
  188.4770  175.3700  135.8480 C   0  0  0  0  0  0  0  0  0  0  0  0
  181.3490  178.6720  140.9290 N   0  0  0  0  0  0  0  0  0  0  0  0
  188.0290  178.7710  138.5890 C   0  0  0  0  0  0  0  0  0  0  0  0
  183.6570  176.0490  137.9920 C   0  0  1  0  0  3  0  0  0  0  0  0
  183.8580  178.1230  139.4540 C   0  0  0  0  0  0  0  0  0  0  0  0
  189.0540  179.4330  138.6060 O   0  0  0  0  0  0  0  0  0  0  0  0
  184.7360  176.5100  137.0400 C   0  0  0  0  0  2  0  0  0  0  0  0
  191.2720  174.1960  136.3320 C   0  0  2  0  0  3  0  0  0  0  0  0
  185.7990  172.9030  134.6490 C   0  0  0  0  0  2  0  0  0  0  0  0
  190.1060  173.4930  135.6430 C   0  0  1  0  0  3  0  0  0  0  0  0
  189.1800  178.4790  135.7230 C   0  0  0  0  0  1  0  0  0  0  0  0
  181.2090  177.4210  140.6520 C   0  0  0  0  0  3  0  0  0  0  0  0
  183.4890  170.4410  134.5950 C   0  0  0  0  0  1  0  0  0  0  0  0
  184.6740  170.8200  135.4640 C   0  0  0  0  0  2  0  0  0  0  0  0
  192.6800  173.6370  136.0380 C   0  0  0  0  0  2  0  0  0  0  0  0
  193.4250  176.0200  135.6780 C   0  0  0  0  0  1  0  0  0  0  0  0
  193.6680  174.5660  135.3220 C   0  0  1  0  0  3  0  0  0  0  0  0
  194.9930  174.2150  135.5830 O   0  0  0  0  0  1  0  0  0  0  0  0
  1  9  1  0  0  0  0
  1 30  1  1  0  0  0
  2 20  1  0  0  0  0
  3 16  1  1  0  0  0
  3 13  1  0  0  0  0
  3 12  1  0  0  0  0
  5 19  1  0  0  0  0
  6 27  1  0  0  0  0
  7 20  1  1  0  0  0
  8  7  1  0  0  0  0
  8 22  2  0  0  0  0
  9 17  1  6  0  0  0
  9 37  1  0  0  0  0
 11  6  1  0  0  0  0
 12 29  1  0  0  0  0
 13 10  2  0  0  0  0
 14  8  1  0  0  0  0
 15 36  1  1  0  0  0
 15 18  1  0  0  0  0
 15 21  1  0  0  0  0
 16 32  1  0  0  0  0
 21 28  1  0  0  0  0
 23 19  1  0  0  0  0
 24 26  2  0  0  0  0
 25 13  1  0  0  0  0
 26  7  1  0  0  0  0
 26 18  1  0  0  0  0
 28 31  2  0  0  0  0
 28  5  1  0  0  0  0
 29 32  1  6  0  0  0
 29  1  1  0  0  0  0
 30 23  1  0  0  0  0
 30 11  2  0  0  0  0
 33 40  1  1  0  0  0
 33  2  1  0  0  0  0
 34 14  1  0  0  0  0
 34 25  1  0  0  0  0
 35  4  1  1  0  0  0
 35 33  1  0  0  0  0
 35  7  1  0  0  0  0
 37 27  2  0  0  0  0
 38 39  1  0  0  0  0
 39 25  1  0  0  0  0
 42 43  1  0  0  0  0
 42 41  1  1  0  0  0
 42 40  1  0  0  0  0
M  END
>  <MODEL>
4

>  <REMARK>
 VINA RESULT:      -3.5      2.871      4.517
  Name = 
  3 active torsions:
  status: ('A' for Active; 'I' for Inactive)
    1  A    between atoms: C_21  and  C_33
    2  A    between atoms: N_29  and  C_32
    3  A    between atoms: C_33  and  C_39
                            x       y       z     vdW  Elec       q    Type
                         _______ _______ _______ _____ _____    ______ ____

>  <TORSDO>
F 3

$$$$
=
 OpenBabel11062412213D

 43 46  0  0  1  0  0  0  0  0999 V2000
  184.7570  177.4930  137.0680 C   0  0  2  0  0  3  0  0  0  0  0  0
  187.6390  176.3810  144.9860 C   0  0  0  0  0  2  0  0  0  0  0  0
  188.4790  177.7530  137.7890 C   0  0  2  0  0  3  0  0  0  0  0  0
  190.8110  176.4390  144.2990 C   0  0  0  0  0  1  0  0  0  0  0  0
  183.4030  177.1220  141.7440 C   0  0  0  0  0  2  0  0  0  0  0  0
  182.0280  177.8860  136.2280 C   0  0  0  0  0  2  0  0  0  0  0  0
  188.7690  177.2040  142.9530 C   0  0  2  0  0  0  0  0  0  0  0  0
  189.5040  176.6660  141.7330 C   0  0  0  0  0  0  0  0  0  0  0  0
  184.6450  176.6550  135.7670 C   0  0  2  0  0  3  0  0  0  0  0  0
  189.3180  175.5510  137.3430 O   0  0  0  0  0  0  0  0  0  0  0  0
  182.3640  177.6850  137.6280 N   0  0  0  0  0  0  0  0  0  0  0  0
  187.3170  177.3530  136.8800 C   0  0  0  0  0  2  0  0  0  0  0  0
  189.4630  176.6220  137.9960 C   0  0  0  0  0  0  0  0  0  0  0  0
  190.7860  177.3030  141.2660 C   0  0  0  0  0  2  0  0  0  0  0  0
  185.9240  179.7340  142.0370 C   0  0  1  0  0  3  0  0  0  0  0  0
  187.8510  178.1960  139.1010 C   0  0  0  0  0  2  0  0  0  0  0  0
  185.1590  177.4700  134.5940 C   0  0  0  0  0  1  0  0  0  0  0  0
  186.6590  178.5080  142.3160 N   0  0  0  0  0  2  0  0  0  0  0  0
  182.7780  177.1110  140.3570 C   0  0  0  0  0  2  0  0  0  0  0  0
  187.7400  176.1910  143.4790 C   0  0  0  0  0  2  0  0  0  0  0  0
  184.5780  179.4260  141.3820 C   0  0  0  0  0  2  0  0  0  0  0  0
  189.0570  175.7070  141.1190 O   0  0  0  0  0  0  0  0  0  0  0  0
  183.8090  177.1560  139.3820 O   0  0  0  0  0  0  0  0  0  0  0  0
  188.7430  179.5500  142.4290 O   0  0  0  0  0  0  0  0  0  0  0  0
  190.6050  176.7640  138.8670 N   0  0  0  0  0  0  0  0  0  0  0  0
  188.0700  178.4910  142.5650 C   0  0  0  0  0  0  0  0  0  0  0  0
  182.1710  176.6270  135.5470 N   0  0  0  0  0  0  0  0  0  0  0  0
  183.6950  178.5200  142.1960 C   0  0  0  0  0  0  0  0  0  0  0  0
  186.1020  177.2460  137.7840 C   0  0  1  0  0  3  0  0  0  0  0  0
  183.5750  177.4280  138.0290 C   0  0  0  0  0  0  0  0  0  0  0  0
  183.1910  178.9290  143.2290 O   0  0  0  0  0  0  0  0  0  0  0  0
  186.3660  178.2780  138.8550 C   0  0  0  0  0  2  0  0  0  0  0  0
  188.7230  177.3810  145.3530 C   0  0  2  0  0  3  0  0  0  0  0  0
  190.6900  177.8490  139.8420 C   0  0  0  0  0  2  0  0  0  0  0  0
  189.6820  177.4660  144.1690 C   0  0  1  0  0  3  0  0  0  0  0  0
  185.7560  180.5580  143.3030 C   0  0  0  0  0  1  0  0  0  0  0  0
  183.3120  176.0480  135.3890 C   0  0  0  0  0  3  0  0  0  0  0  0
  192.6750  176.4210  137.6060 C   0  0  0  0  0  1  0  0  0  0  0  0
  191.7670  175.8960  138.7040 C   0  0  0  0  0  2  0  0  0  0  0  0
  189.3670  177.2590  146.7500 C   0  0  0  0  0  2  0  0  0  0  0  0
  187.5550  177.8690  148.3960 C   0  0  0  0  0  1  0  0  0  0  0  0
  188.9060  178.2530  147.8240 C   0  0  1  0  0  3  0  0  0  0  0  0
  189.8480  178.3870  148.8440 O   0  0  0  0  0  1  0  0  0  0  0  0
  1 29  1  0  0  0  0
  1 30  1  1  0  0  0
  2 33  1  0  0  0  0
  3 12  1  6  0  0  0
  3 13  1  0  0  0  0
  3 16  1  0  0  0  0
  5 28  1  0  0  0  0
  6 11  1  0  0  0  0
  7 20  1  1  0  0  0
  7 35  1  0  0  0  0
  8  7  1  0  0  0  0
  9 17  1  6  0  0  0
  9  1  1  0  0  0  0
 10 13  2  0  0  0  0
 11 30  2  0  0  0  0
 13 25  1  0  0  0  0
 14  8  1  0  0  0  0
 15 18  1  0  0  0  0
 15 36  1  1  0  0  0
 18 26  1  0  0  0  0
 19  5  1  0  0  0  0
 20  2  1  0  0  0  0
 21 15  1  0  0  0  0
 21 28  1  0  0  0  0
 22  8  2  0  0  0  0
 23 19  1  0  0  0  0
 24 26  2  0  0  0  0
 25 34  1  0  0  0  0
 26  7  1  0  0  0  0
 27  6  1  0  0  0  0
 28 31  2  0  0  0  0
 29 12  1  6  0  0  0
 29 32  1  0  0  0  0
 30 23  1  0  0  0  0
 32 16  1  0  0  0  0
 33 40  1  1  0  0  0
 34 14  1  0  0  0  0
 35  4  1  1  0  0  0
 35 33  1  0  0  0  0
 37 27  2  0  0  0  0
 37  9  1  0  0  0  0
 38 39  1  0  0  0  0
 39 25  1  0  0  0  0
 40 42  1  0  0  0  0
 42 41  1  1  0  0  0
 42 43  1  0  0  0  0
M  END
>  <MODEL>
5

>  <REMARK>
 VINA RESULT:      -3.5      2.417      8.310
  Name = 
  3 active torsions:
  status: ('A' for Active; 'I' for Inactive)
    1  A    between atoms: C_21  and  C_33
    2  A    between atoms: N_29  and  C_32
    3  A    between atoms: C_33  and  C_39
                            x       y       z     vdW  Elec       q    Type
                         _______ _______ _______ _____ _____    ______ ____

>  <TORSDO>
F 3

$$$$
=
 OpenBabel11062412213D

 43 46  0  0  1  0  0  0  0  0999 V2000
  189.2900  177.8520  142.2170 C   0  0  2  0  0  3  0  0  0  0  0  0
  183.2220  175.7350  136.6550 C   0  0  0  0  0  2  0  0  0  0  0  0
  185.7420  179.1230  142.7000 C   0  0  2  0  0  3  0  0  0  0  0  0
  180.7050  177.0080  138.2630 C   0  0  0  0  0  1  0  0  0  0  0  0
  188.4750  175.8570  137.8360 C   0  0  0  0  0  2  0  0  0  0  0  0
  192.1390  177.5300  141.9200 C   0  0  0  0  0  2  0  0  0  0  0  0
  183.2300  177.3810  138.4930 C   0  0  2  0  0  0  0  0  0  0  0  0
  182.9750  177.4500  139.9930 C   0  0  0  0  0  0  0  0  0  0  0  0
  189.7590  177.3910  143.6220 C   0  0  2  0  0  3  0  0  0  0  0  0
  184.7370  177.5160  144.1690 O   0  0  0  0  0  0  0  0  0  0  0  0
  191.2180  177.0940  140.8820 N   0  0  0  0  0  0  0  0  0  0  0  0
  187.0690  178.6140  143.2630 C   0  0  0  0  0  2  0  0  0  0  0  0
  184.5540  178.3660  143.2540 C   0  0  0  0  0  0  0  0  0  0  0  0
  182.1610  178.5710  140.5830 C   0  0  0  0  0  2  0  0  0  0  0  0
  186.6450  178.9820  137.4410 C   0  0  1  0  0  3  0  0  0  0  0  0
  185.8440  178.9790  141.1900 C   0  0  0  0  0  2  0  0  0  0  0  0
  189.9560  178.6040  144.5130 C   0  0  0  0  0  1  0  0  0  0  0  0
  185.6290  178.0370  137.8860 N   0  0  0  0  0  2  0  0  0  0  0  0
  189.6030  176.0010  138.8470 C   0  0  0  0  0  2  0  0  0  0  0  0
  183.7190  175.9860  138.0720 C   0  0  0  0  0  2  0  0  0  0  0  0
  188.0490  178.4290  137.6880 C   0  0  0  0  0  2  0  0  0  0  0  0
  183.4320  176.5920  140.7340 O   0  0  0  0  0  0  0  0  0  0  0  0
  189.1010  176.6340  140.0150 O   0  0  0  0  0  0  0  0  0  0  0  0
  183.9450  179.6390  138.0820 O   0  0  0  0  0  0  0  0  0  0  0  0
  183.2090  178.6440  142.8130 N   0  0  0  0  0  0  0  0  0  0  0  0
  184.2710  178.4200  138.1330 C   0  0  0  0  0  0  0  0  0  0  0  0
  192.0400  176.6100  143.0210 N   0  0  0  0  0  0  0  0  0  0  0  0
  188.3110  177.1050  137.0240 C   0  0  0  0  0  0  0  0  0  0  0  0
  187.7500  177.8840  142.1190 C   0  0  1  0  0  3  0  0  0  0  0  0
  189.9260  177.1550  141.0190 C   0  0  0  0  0  0  0  0  0  0  0  0
  188.4120  177.0430  135.8100 O   0  0  0  0  0  0  0  0  0  0  0  0
  187.2790  178.6300  140.8930 C   0  0  0  0  0  2  0  0  0  0  0  0
  182.3100  176.9030  136.3210 C   0  0  2  0  0  3  0  0  0  0  0  0
  182.9480  179.4050  141.5930 C   0  0  0  0  0  2  0  0  0  0  0  0
  181.9680  177.6030  137.6330 C   0  0  1  0  0  3  0  0  0  0  0  0
  186.4350  179.3460  135.9810 C   0  0  0  0  0  1  0  0  0  0  0  0
  190.9760  176.5010  143.7420 C   0  0  0  0  0  3  0  0  0  0  0  0
  181.0230  179.3790  143.6350 C   0  0  0  0  0  1  0  0  0  0  0  0
  182.0700  178.2790  143.6510 C   0  0  0  0  0  2  0  0  0  0  0  0
  181.1350  176.6420  135.3560 C   0  0  0  0  0  2  0  0  0  0  0  0
  179.0720  178.0880  135.2250 C   0  0  0  0  0  1  0  0  0  0  0  0
  180.4780  177.8640  134.7030 C   0  0  1  0  0  3  0  0  0  0  0  0
  181.2480  179.0160  134.8660 O   0  0  0  0  0  1  0  0  0  0  0  0
  1 30  1  6  0  0  0
  1  9  1  0  0  0  0
  2 20  1  0  0  0  0
  3 16  1  6  0  0  0
  3 13  1  0  0  0  0
  3 12  1  0  0  0  0
  5 19  1  0  0  0  0
  6 27  1  0  0  0  0
  7 20  1  6  0  0  0
  7  8  1  0  0  0  0
  8 14  1  0  0  0  0
  8 22  2  0  0  0  0
  9 37  1  0  0  0  0
  9 17  1  1  0  0  0
 11 30  2  0  0  0  0
 11  6  1  0  0  0  0
 13 10  2  0  0  0  0
 14 34  1  0  0  0  0
 15 36  1  6  0  0  0
 15 21  1  0  0  0  0
 15 18  1  0  0  0  0
 18 26  1  0  0  0  0
 19 23  1  0  0  0  0
 23 30  1  0  0  0  0
 24 26  2  0  0  0  0
 25 13  1  0  0  0  0
 25 39  1  0  0  0  0
 26  7  1  0  0  0  0
 27 37  2  0  0  0  0
 28 21  1  0  0  0  0
 28  5  1  0  0  0  0
 29 32  1  6  0  0  0
 29  1  1  0  0  0  0
 29 12  1  0  0  0  0
 31 28  2  0  0  0  0
 32 16  1  0  0  0  0
 33 40  1  1  0  0  0
 33  2  1  0  0  0  0
 33 35  1  0  0  0  0
 34 25  1  0  0  0  0
 35  4  1  1  0  0  0
 35  7  1  0  0  0  0
 38 39  1  0  0  0  0
 42 43  1  0  0  0  0
 42 41  1  1  0  0  0
 42 40  1  0  0  0  0
M  END
>  <MODEL>
6

>  <REMARK>
 VINA RESULT:      -3.4      2.339      6.037
  Name = 
  3 active torsions:
  status: ('A' for Active; 'I' for Inactive)
    1  A    between atoms: C_21  and  C_33
    2  A    between atoms: N_29  and  C_32
    3  A    between atoms: C_33  and  C_39
                            x       y       z     vdW  Elec       q    Type
                         _______ _______ _______ _____ _____    ______ ____

>  <TORSDO>
F 3

$$$$
