=
 OpenBabel11062413173D

 30 33  0  0  1  0  0  0  0  0999 V2000
  192.5740  175.1750  135.9970 N   0  0  0  0  0  2  0  0  0  0  0  0
  187.8420  177.7900  142.0460 C   0  0  0  0  0  0  0  0  0  0  0  0
  186.1920  177.8450  143.9060 N   0  0  0  0  0  1  0  0  0  0  0  0
  189.0630  178.5820  138.0040 C   0  0  0  0  0  2  0  0  0  0  0  0
  193.1060  176.1460  136.9450 C   0  0  0  0  0  2  0  0  0  0  0  0
  189.0610  177.3030  137.1540 C   0  0  1  0  0  3  0  0  0  0  0  0
  192.4740  175.9580  138.3170 C   0  0  0  0  0  2  0  0  0  0  0  0
  191.2320  175.5880  135.6070 C   0  0  0  0  0  2  0  0  0  0  0  0
  189.1120  177.3350  141.6090 C   0  0  0  0  0  0  0  0  0  0  0  0
  189.5520  177.5840  140.2960 C   0  0  0  0  0  0  0  0  0  0  0  0
  187.4610  177.4740  143.3750 C   0  0  0  0  0  0  0  0  0  0  0  0
  187.4940  178.7370  139.8710 N   0  0  0  0  0  0  0  0  0  0  0  0
  191.1970  176.7850  138.4240 C   0  0  1  0  0  3  0  0  0  0  0  0
  189.9140  176.6460  142.4660 N   0  0  0  0  0  0  0  0  0  0  0  0
  188.3110  176.7810  144.1750 N   0  0  0  0  0  0  0  0  0  0  0  0
  189.5240  176.3720  143.7340 C   0  0  0  0  0  3  0  0  0  0  0  0
  188.7030  178.3090  139.4310 C   0  0  0  0  0  0  0  0  0  0  0  0
  190.2310  175.1190  136.6560 C   0  0  0  0  0  2  0  0  0  0  0  0
  189.9540  176.1870  137.7230 C   0  0  2  0  0  3  0  0  0  0  0  0
  187.0410  178.5180  141.1310 C   0  0  0  0  0  0  0  0  0  0  0  0
  190.9390  177.1090  139.9000 C   0  0  0  0  0  2  0  0  0  0  0  0
  187.6650  176.8250  136.9010 C   0  0  0  0  0  0  0  0  0  0  0  0
  187.1800  175.6890  137.5410 O   0  0  0  0  0  1  0  0  0  0  0  0
  186.9170  177.4670  136.1200 O   0  0  0  0  0  0  0  0  0  0  0  0
  185.7020  179.0910  141.4800 C   0  0  0  0  0  2  0  0  0  0  0  0
  184.5670  178.2380  140.9290 C   0  0  0  0  0  2  0  0  0  0  0  0
  184.4930  180.3080  139.1460 O   0  0  0  0  0  0  0  0  0  0  0  0
  183.9400  177.8780  138.0630 C   0  0  0  0  0  1  0  0  0  0  0  0
  183.7930  179.0080  139.4730 P   0  0  1  0  0  0  0  0  0  0  0  0
  182.1540  179.3060  139.7710 O   0  0  0  0  0  1  0  0  0  0  0  0
  1  5  1  0  0  0  0
  2 11  1  0  0  0  0
  4 17  1  0  0  0  0
  5  7  1  0  0  0  0
  6 22  1  1  0  0  0
  6 19  1  0  0  0  0
  6  4  1  0  0  0  0
  8  1  1  0  0  0  0
  8 18  1  0  0  0  0
  9  2  2  0  0  0  0
  9 14  1  0  0  0  0
 10  9  1  0  0  0  0
 11  3  1  0  0  0  0
 11 15  2  0  0  0  0
 12 20  2  0  0  0  0
 13  7  1  1  0  0  0
 13 21  1  0  0  0  0
 14 16  2  0  0  0  0
 16 15  1  0  0  0  0
 17 12  1  0  0  0  0
 17 10  2  0  0  0  0
 19 18  1  6  0  0  0
 19 13  1  0  0  0  0
 20 25  1  0  0  0  0
 20  2  1  0  0  0  0
 21 10  1  0  0  0  0
 22 23  1  0  0  0  0
 24 22  2  0  0  0  0
 26 25  1  0  0  0  0
 27 29  2  0  0  0  0
 29 28  1  6  0  0  0
 29 30  1  0  0  0  0
 29 26  1  0  0  0  0
M  END
>  <MODEL>
1

>  <REMARK>
 VINA RESULT:      -7.9      0.000      0.000
  Name = 
  4 active torsions:
  status: ('A' for Active; 'I' for Inactive)
    1  A    between atoms: C_6  and  C_16
    2  A    between atoms: C_6  and  P_27
    3  A    between atoms: C_7  and  C_18
    4  A    between atoms: C_16  and  C_26
                            x       y       z     vdW  Elec       q    Type
                         _______ _______ _______ _____ _____    ______ ____

>  <TORSDO>
F 4

$$$$
=
 OpenBabel11062413173D

 30 33  0  0  1  0  0  0  0  0999 V2000
  186.4290  178.0450  147.1410 N   0  0  0  0  0  2  0  0  0  0  0  0
  184.2770  178.0790  139.3190 C   0  0  0  0  0  0  0  0  0  0  0  0
  183.4730  177.3480  137.0820 N   0  0  0  0  0  1  0  0  0  0  0  0
  187.3650  179.2330  142.0740 C   0  0  0  0  0  2  0  0  0  0  0  0
  185.6920  179.1870  146.6130 C   0  0  0  0  0  2  0  0  0  0  0  0
  187.6870  178.1040  143.0640 C   0  0  1  0  0  3  0  0  0  0  0  0
  184.7660  178.7520  145.4850 C   0  0  0  0  0  2  0  0  0  0  0  0
  187.4850  177.6930  146.2010 C   0  0  0  0  0  2  0  0  0  0  0  0
  183.9350  178.3260  140.6720 C   0  0  0  0  0  0  0  0  0  0  0  0
  184.9160  178.7160  141.6020 C   0  0  0  0  0  0  0  0  0  0  0  0
  183.2360  177.6630  138.4510 C   0  0  0  0  0  0  0  0  0  0  0  0
  186.5490  178.6290  139.8510 N   0  0  0  0  0  0  0  0  0  0  0  0
  185.5030  178.8070  144.1520 C   0  0  1  0  0  3  0  0  0  0  0  0
  182.6440  178.1810  141.0790 N   0  0  0  0  0  0  0  0  0  0  0  0
  181.9710  177.5370  138.9250 N   0  0  0  0  0  0  0  0  0  0  0  0
  181.6710  177.7930  140.2210 C   0  0  0  0  0  3  0  0  0  0  0  0
  186.2450  178.8680  141.1510 C   0  0  0  0  0  0  0  0  0  0  0  0
  186.9100  176.8170  145.0950 C   0  0  0  0  0  2  0  0  0  0  0  0
  186.4660  177.6300  143.8720 C   0  0  2  0  0  3  0  0  0  0  0  0
  185.6290  178.2550  138.9280 C   0  0  0  0  0  0  0  0  0  0  0  0
  184.4790  179.0090  143.0280 C   0  0  0  0  0  2  0  0  0  0  0  0
  188.3790  176.9660  142.3800 C   0  0  0  0  0  0  0  0  0  0  0  0
  189.1400  177.1860  141.2370 O   0  0  0  0  0  0  0  0  0  0  0  0
  188.2890  175.8050  142.8550 O   0  0  0  0  0  1  0  0  0  0  0  0
  186.1120  178.0710  137.5230 C   0  0  0  0  0  2  0  0  0  0  0  0
  187.2960  177.1150  137.4590 C   0  0  0  0  0  2  0  0  0  0  0  0
  188.7300  179.4340  137.2630 O   0  0  0  0  0  1  0  0  0  0  0  0
  190.2310  177.2310  137.7880 C   0  0  0  0  0  1  0  0  0  0  0  0
  188.8160  177.9630  136.9240 P   0  0  1  0  0  0  0  0  0  0  0  0
  189.0330  177.7780  135.2570 O   0  0  0  0  0  0  0  0  0  0  0  0
  2  9  1  0  0  0  0
  3 11  1  0  0  0  0
  4  6  1  0  0  0  0
  5  1  1  0  0  0  0
  6 22  1  6  0  0  0
  6 19  1  0  0  0  0
  7  5  1  0  0  0  0
  8  1  1  0  0  0  0
  9 14  1  0  0  0  0
  9 10  2  0  0  0  0
 10 21  1  0  0  0  0
 11 15  2  0  0  0  0
 11  2  1  0  0  0  0
 12 17  2  0  0  0  0
 13 21  1  6  0  0  0
 13  7  1  0  0  0  0
 15 16  1  0  0  0  0
 16 14  2  0  0  0  0
 17 10  1  0  0  0  0
 17  4  1  0  0  0  0
 18  8  1  0  0  0  0
 19 13  1  0  0  0  0
 19 18  1  1  0  0  0
 20  2  2  0  0  0  0
 20 12  1  0  0  0  0
 22 24  1  0  0  0  0
 23 22  2  0  0  0  0
 25 20  1  0  0  0  0
 26 25  1  0  0  0  0
 29 27  1  0  0  0  0
 29 26  1  0  0  0  0
 29 28  1  1  0  0  0
 30 29  2  0  0  0  0
M  END
>  <MODEL>
2

>  <REMARK>
 VINA RESULT:      -7.6      3.158      7.275
  Name = 
  4 active torsions:
  status: ('A' for Active; 'I' for Inactive)
    1  A    between atoms: C_6  and  C_16
    2  A    between atoms: C_6  and  P_27
    3  A    between atoms: C_7  and  C_18
    4  A    between atoms: C_16  and  C_26
                            x       y       z     vdW  Elec       q    Type
                         _______ _______ _______ _____ _____    ______ ____

>  <TORSDO>
F 4

$$$$
=
 OpenBabel11062413173D

 30 33  0  0  1  0  0  0  0  0999 V2000
  185.4500  178.2250  146.6140 N   0  0  0  0  0  2  0  0  0  0  0  0
  187.4360  177.8760  138.7560 C   0  0  0  0  0  0  0  0  0  0  0  0
  187.7110  177.0770  136.4170 N   0  0  0  0  0  1  0  0  0  0  0  0
  188.9350  178.7870  142.6780 C   0  0  0  0  0  2  0  0  0  0  0  0
  185.2820  179.4130  145.7870 C   0  0  0  0  0  2  0  0  0  0  0  0
  188.5260  177.7170  143.7000 C   0  0  1  0  0  3  0  0  0  0  0  0
  184.9650  179.0250  144.3490 C   0  0  0  0  0  2  0  0  0  0  0  0
  186.7480  177.6300  146.3230 C   0  0  0  0  0  2  0  0  0  0  0  0
  186.5280  178.2960  139.7600 C   0  0  0  0  0  0  0  0  0  0  0  0
  186.9810  178.6130  141.0530 C   0  0  0  0  0  0  0  0  0  0  0  0
  186.8960  177.5480  137.4870 C   0  0  0  0  0  0  0  0  0  0  0  0
  189.2160  178.1170  140.3450 N   0  0  0  0  0  0  0  0  0  0  0  0
  186.2550  178.8450  143.5580 C   0  0  1  0  0  3  0  0  0  0  0  0
  185.2000  178.3890  139.4730 N   0  0  0  0  0  0  0  0  0  0  0  0
  185.5610  177.6620  137.2710 N   0  0  0  0  0  0  0  0  0  0  0  0
  184.7180  178.0790  138.2460 C   0  0  0  0  0  3  0  0  0  0  0  0
  188.3640  178.5160  141.3210 C   0  0  0  0  0  0  0  0  0  0  0  0
  186.6400  176.7550  145.0810 C   0  0  0  0  0  2  0  0  0  0  0  0
  187.0040  177.5120  143.7960 C   0  0  2  0  0  3  0  0  0  0  0  0
  188.8130  177.8060  139.0870 C   0  0  0  0  0  0  0  0  0  0  0  0
  185.9650  179.0980  142.0730 C   0  0  0  0  0  2  0  0  0  0  0  0
  189.2470  176.4290  143.4530 C   0  0  0  0  0  0  0  0  0  0  0  0
  190.5500  176.2500  143.9040 O   0  0  0  0  0  1  0  0  0  0  0  0
  188.6620  175.4920  142.8510 O   0  0  0  0  0  0  0  0  0  0  0  0
  189.8790  177.4230  138.1080 C   0  0  0  0  0  2  0  0  0  0  0  0
  190.8370  176.3940  138.6970 C   0  0  0  0  0  2  0  0  0  0  0  0
  190.4650  173.9200  137.5960 O   0  0  0  0  0  0  0  0  0  0  0  0
  191.1200  175.8550  135.8050 C   0  0  0  0  0  1  0  0  0  0  0  0
  191.3320  175.1520  137.4620 P   0  0  1  0  0  0  0  0  0  0  0  0
  192.9550  174.7290  137.6770 O   0  0  0  0  0  1  0  0  0  0  0  0
  2 20  2  0  0  0  0
  2  9  1  0  0  0  0
  3 11  1  0  0  0  0
  4  6  1  0  0  0  0
  5  1  1  0  0  0  0
  6 22  1  6  0  0  0
  6 19  1  0  0  0  0
  7  5  1  0  0  0  0
  8  1  1  0  0  0  0
  9 10  2  0  0  0  0
 10 17  1  0  0  0  0
 10 21  1  0  0  0  0
 11  2  1  0  0  0  0
 12 17  2  0  0  0  0
 13 21  1  6  0  0  0
 13 19  1  0  0  0  0
 13  7  1  0  0  0  0
 14  9  1  0  0  0  0
 15 11  2  0  0  0  0
 15 16  1  0  0  0  0
 16 14  2  0  0  0  0
 17  4  1  0  0  0  0
 18  8  1  0  0  0  0
 19 18  1  1  0  0  0
 20 12  1  0  0  0  0
 22 23  1  0  0  0  0
 24 22  2  0  0  0  0
 25 26  1  0  0  0  0
 25 20  1  0  0  0  0
 29 28  1  6  0  0  0
 29 27  2  0  0  0  0
 29 30  1  0  0  0  0
 29 26  1  0  0  0  0
M  END
>  <MODEL>
3

>  <REMARK>
 VINA RESULT:      -7.3      3.322      7.581
  Name = 
  4 active torsions:
  status: ('A' for Active; 'I' for Inactive)
    1  A    between atoms: C_6  and  C_16
    2  A    between atoms: C_6  and  P_27
    3  A    between atoms: C_7  and  C_18
    4  A    between atoms: C_16  and  C_26
                            x       y       z     vdW  Elec       q    Type
                         _______ _______ _______ _____ _____    ______ ____

>  <TORSDO>
F 4

$$$$
=
 OpenBabel11062413173D

 30 33  0  0  1  0  0  0  0  0999 V2000
  190.7570  177.4930  148.2450 N   0  0  0  0  0  2  0  0  0  0  0  0
  185.9540  178.3240  141.7610 C   0  0  0  0  0  0  0  0  0  0  0  0
  184.8040  179.2810  139.7730 N   0  0  0  0  0  1  0  0  0  0  0  0
  186.0580  177.0510  145.8620 C   0  0  0  0  0  2  0  0  0  0  0  0
  190.6230  176.3790  147.3150 C   0  0  0  0  0  2  0  0  0  0  0  0
  186.8020  178.0610  146.7470 C   0  0  1  0  0  3  0  0  0  0  0  0
  190.3690  176.8890  145.9020 C   0  0  0  0  0  2  0  0  0  0  0  0
  189.4340  178.0420  148.5130 C   0  0  0  0  0  2  0  0  0  0  0  0
  187.1810  177.8780  142.3120 C   0  0  0  0  0  0  0  0  0  0  0  0
  187.2530  177.4430  143.6480 C   0  0  0  0  0  0  0  0  0  0  0  0
  185.9700  178.7730  140.4150 C   0  0  0  0  0  0  0  0  0  0  0  0
  184.9080  177.8780  143.8710 N   0  0  0  0  0  0  0  0  0  0  0  0
  188.8730  177.0620  145.6690 C   0  0  1  0  0  3  0  0  0  0  0  0
  188.3040  177.8730  141.5420 N   0  0  0  0  0  0  0  0  0  0  0  0
  187.1270  178.7420  139.7080 N   0  0  0  0  0  0  0  0  0  0  0  0
  188.2830  178.2970  140.2570 C   0  0  0  0  0  3  0  0  0  0  0  0
  186.0710  177.4500  144.4200 C   0  0  0  0  0  0  0  0  0  0  0  0
  189.0500  179.0110  147.4030 C   0  0  0  0  0  2  0  0  0  0  0  0
  188.2440  178.3340  146.2850 C   0  0  2  0  0  3  0  0  0  0  0  0
  184.8010  178.3010  142.5870 C   0  0  0  0  0  0  0  0  0  0  0  0
  188.5870  176.9350  144.1680 C   0  0  0  0  0  2  0  0  0  0  0  0
  186.0170  179.3260  146.9010 C   0  0  0  0  0  0  0  0  0  0  0  0
  186.0550  180.0410  148.0930 O   0  0  0  0  0  1  0  0  0  0  0  0
  185.3340  179.7580  145.9370 O   0  0  0  0  0  0  0  0  0  0  0  0
  183.4390  178.7020  142.1140 C   0  0  0  0  0  2  0  0  0  0  0  0
  182.5060  179.0000  143.2820 C   0  0  0  0  0  2  0  0  0  0  0  0
  180.2640  180.5010  142.8440 O   0  0  0  0  0  0  0  0  0  0  0  0
  180.6530  178.5160  141.0310 C   0  0  0  0  0  1  0  0  0  0  0  0
  180.7670  179.0780  142.7510 P   0  0  1  0  0  0  0  0  0  0  0  0
  179.8130  178.0750  143.7230 O   0  0  0  0  0  1  0  0  0  0  0  0
  1  8  1  0  0  0  0
  2  9  1  0  0  0  0
  2 20  2  0  0  0  0
  3 11  1  0  0  0  0
  4  6  1  0  0  0  0
  5  1  1  0  0  0  0
  6 22  1  6  0  0  0
  7  5  1  0  0  0  0
  9 10  2  0  0  0  0
 10 21  1  0  0  0  0
 10 17  1  0  0  0  0
 11  2  1  0  0  0  0
 12 17  2  0  0  0  0
 13 21  1  6  0  0  0
 13  7  1  0  0  0  0
 13 19  1  0  0  0  0
 14  9  1  0  0  0  0
 15 16  1  0  0  0  0
 15 11  2  0  0  0  0
 16 14  2  0  0  0  0
 17  4  1  0  0  0  0
 18  8  1  0  0  0  0
 19  6  1  0  0  0  0
 19 18  1  1  0  0  0
 20 12  1  0  0  0  0
 22 23  1  0  0  0  0
 24 22  2  0  0  0  0
 25 20  1  0  0  0  0
 25 26  1  0  0  0  0
 29 28  1  6  0  0  0
 29 27  2  0  0  0  0
 29 26  1  0  0  0  0
 29 30  1  0  0  0  0
M  END
>  <MODEL>
4

>  <REMARK>
 VINA RESULT:      -7.2      4.271      7.305
  Name = 
  4 active torsions:
  status: ('A' for Active; 'I' for Inactive)
    1  A    between atoms: C_6  and  C_16
    2  A    between atoms: C_6  and  P_27
    3  A    between atoms: C_7  and  C_18
    4  A    between atoms: C_16  and  C_26
                            x       y       z     vdW  Elec       q    Type
                         _______ _______ _______ _____ _____    ______ ____

>  <TORSDO>
F 4

$$$$
=
 OpenBabel11062413173D

 30 33  0  0  1  0  0  0  0  0999 V2000
  190.6470  177.4590  148.2560 N   0  0  0  0  0  2  0  0  0  0  0  0
  186.2400  178.3290  141.5020 C   0  0  0  0  0  0  0  0  0  0  0  0
  185.2070  179.2990  139.4570 N   0  0  0  0  0  1  0  0  0  0  0  0
  186.1030  177.0180  145.5900 C   0  0  0  0  0  2  0  0  0  0  0  0
  190.5760  176.3540  147.3100 C   0  0  0  0  0  2  0  0  0  0  0  0
  186.7870  178.0230  146.5270 C   0  0  1  0  0  3  0  0  0  0  0  0
  190.4050  176.8750  145.8890 C   0  0  0  0  0  2  0  0  0  0  0  0
  189.3080  178.0000  148.4490 C   0  0  0  0  0  2  0  0  0  0  0  0
  187.4340  177.8830  142.1220 C   0  0  0  0  0  0  0  0  0  0  0  0
  187.4280  177.4360  143.4550 C   0  0  0  0  0  0  0  0  0  0  0  0
  186.3350  178.7900  140.1640 C   0  0  0  0  0  0  0  0  0  0  0  0
  185.0710  177.8580  143.5410 N   0  0  0  0  0  0  0  0  0  0  0  0
  188.9240  177.0440  145.5670 C   0  0  1  0  0  3  0  0  0  0  0  0
  188.6010  177.8900  141.4210 N   0  0  0  0  0  0  0  0  0  0  0  0
  187.5330  178.7710  139.5270 N   0  0  0  0  0  0  0  0  0  0  0  0
  188.6560  178.3260  140.1400 C   0  0  0  0  0  3  0  0  0  0  0  0
  186.2010  177.4310  144.1550 C   0  0  0  0  0  0  0  0  0  0  0  0
  188.9870  178.9770  147.3260 C   0  0  0  0  0  2  0  0  0  0  0  0
  188.2530  178.3070  146.1560 C   0  0  2  0  0  3  0  0  0  0  0  0
  185.0400  178.2930  142.2560 C   0  0  0  0  0  0  0  0  0  0  0  0
  188.7310  176.9290  144.0500 C   0  0  0  0  0  2  0  0  0  0  0  0
  185.9880  179.2840  146.6450 C   0  0  0  0  0  0  0  0  0  0  0  0
  185.9580  179.9930  147.8410 O   0  0  0  0  0  1  0  0  0  0  0  0
  185.3560  179.7160  145.6480 O   0  0  0  0  0  0  0  0  0  0  0  0
  183.7060  178.6920  141.7060 C   0  0  0  0  0  2  0  0  0  0  0  0
  182.9940  177.5130  141.0540 C   0  0  0  0  0  2  0  0  0  0  0  0
  180.5070  176.7780  140.1880 O   0  0  0  0  0  1  0  0  0  0  0  0
  180.5760  179.1500  141.5110 C   0  0  0  0  0  1  0  0  0  0  0  0
  181.3810  178.0000  140.3650 P   0  0  1  0  0  0  0  0  0  0  0  0
  181.5910  178.7670  138.8720 O   0  0  0  0  0  0  0  0  0  0  0  0
  1  8  1  0  0  0  0
  2  9  1  0  0  0  0
  2 20  2  0  0  0  0
  3 11  1  0  0  0  0
  4  6  1  0  0  0  0
  5  1  1  0  0  0  0
  6 22  1  6  0  0  0
  7  5  1  0  0  0  0
  9 10  2  0  0  0  0
 10 21  1  0  0  0  0
 10 17  1  0  0  0  0
 11  2  1  0  0  0  0
 12 17  2  0  0  0  0
 13 21  1  6  0  0  0
 13  7  1  0  0  0  0
 13 19  1  0  0  0  0
 14  9  1  0  0  0  0
 15 16  1  0  0  0  0
 15 11  2  0  0  0  0
 16 14  2  0  0  0  0
 17  4  1  0  0  0  0
 18  8  1  0  0  0  0
 19  6  1  0  0  0  0
 19 18  1  1  0  0  0
 20 12  1  0  0  0  0
 22 23  1  0  0  0  0
 24 22  2  0  0  0  0
 25 20  1  0  0  0  0
 26 25  1  0  0  0  0
 27 29  1  0  0  0  0
 29 26  1  0  0  0  0
 29 28  1  1  0  0  0
 30 29  2  0  0  0  0
M  END
>  <MODEL>
5

>  <REMARK>
 VINA RESULT:      -6.2      3.476      7.114
  Name = 
  4 active torsions:
  status: ('A' for Active; 'I' for Inactive)
    1  A    between atoms: C_6  and  C_16
    2  A    between atoms: C_6  and  P_27
    3  A    between atoms: C_7  and  C_18
    4  A    between atoms: C_16  and  C_26
                            x       y       z     vdW  Elec       q    Type
                         _______ _______ _______ _____ _____    ______ ____

>  <TORSDO>
F 4

$$$$
=
 OpenBabel11062413173D

 30 33  0  0  1  0  0  0  0  0999 V2000
  179.5120  177.5070  141.7560 N   0  0  0  0  0  2  0  0  0  0  0  0
  185.4830  175.2060  136.7710 C   0  0  0  0  0  0  0  0  0  0  0  0
  187.6610  174.3580  135.9180 N   0  0  0  0  0  1  0  0  0  0  0  0
  182.6740  178.3480  137.6030 C   0  0  0  0  0  2  0  0  0  0  0  0
  179.1790  176.7620  140.5480 C   0  0  0  0  0  2  0  0  0  0  0  0
  182.6360  178.6870  139.1000 C   0  0  1  0  0  3  0  0  0  0  0  0
  180.3110  175.8140  140.1750 C   0  0  0  0  0  2  0  0  0  0  0  0
  180.4770  178.5440  141.4170 C   0  0  0  0  0  2  0  0  0  0  0  0
  184.2780  174.8900  137.4460 C   0  0  0  0  0  0  0  0  0  0  0  0
  183.3280  175.8890  137.7270 C   0  0  0  0  0  0  0  0  0  0  0  0
  186.4010  174.1470  136.5500 C   0  0  0  0  0  0  0  0  0  0  0  0
  184.7590  177.4890  136.6610 N   0  0  0  0  0  0  0  0  0  0  0  0
  181.3150  176.5260  139.2740 C   0  0  1  0  0  3  0  0  0  0  0  0
  184.0360  173.6070  137.8310 N   0  0  0  0  0  0  0  0  0  0  0  0
  186.0960  172.8920  136.9630 N   0  0  0  0  0  0  0  0  0  0  0  0
  184.9290  172.6170  137.5940 C   0  0  0  0  0  3  0  0  0  0  0  0
  183.6010  177.2100  137.3090 C   0  0  0  0  0  0  0  0  0  0  0  0
  181.8790  177.9470  141.3950 C   0  0  0  0  0  2  0  0  0  0  0  0
  182.2960  177.4810  139.9930 C   0  0  2  0  0  3  0  0  0  0  0  0
  185.6940  176.5500  136.3710 C   0  0  0  0  0  0  0  0  0  0  0  0
  182.0360  175.4810  138.4140 C   0  0  0  0  0  2  0  0  0  0  0  0
  183.8990  179.3640  139.5340 C   0  0  0  0  0  0  0  0  0  0  0  0
  184.7810  178.7270  140.4000 O   0  0  0  0  0  1  0  0  0  0  0  0
  184.1760  180.5090  139.0930 O   0  0  0  0  0  0  0  0  0  0  0  0
  186.9020  177.0060  135.6120 C   0  0  0  0  0  2  0  0  0  0  0  0
  187.3200  178.4130  136.0190 C   0  0  0  0  0  2  0  0  0  0  0  0
  189.0560  179.7970  137.6140 O   0  0  0  0  0  1  0  0  0  0  0  0
  187.8670  177.6760  138.8280 C   0  0  0  0  0  1  0  0  0  0  0  0
  188.5870  178.3880  137.3240 P   0  0  1  0  0  0  0  0  0  0  0  0
  189.9040  177.4410  136.8430 O   0  0  0  0  0  0  0  0  0  0  0  0
  2  9  1  0  0  0  0
  3 11  1  0  0  0  0
  4  6  1  0  0  0  0
  5  1  1  0  0  0  0
  6 22  1  1  0  0  0
  6 19  1  0  0  0  0
  7  5  1  0  0  0  0
  8  1  1  0  0  0  0
  9 10  1  0  0  0  0
  9 14  2  0  0  0  0
 10 21  1  0  0  0  0
 11  2  2  0  0  0  0
 11 15  1  0  0  0  0
 12 17  1  0  0  0  0
 13 21  1  1  0  0  0
 13 19  1  0  0  0  0
 13  7  1  0  0  0  0
 15 16  2  0  0  0  0
 16 14  1  0  0  0  0
 17  4  1  0  0  0  0
 17 10  2  0  0  0  0
 18  8  1  0  0  0  0
 19 18  1  1  0  0  0
 20 12  2  0  0  0  0
 20  2  1  0  0  0  0
 22 23  1  0  0  0  0
 24 22  2  0  0  0  0
 25 26  1  0  0  0  0
 25 20  1  0  0  0  0
 26 29  1  0  0  0  0
 29 27  1  0  0  0  0
 29 28  1  1  0  0  0
 30 29  2  0  0  0  0
M  END
>  <MODEL>
6

>  <REMARK>
 VINA RESULT:      -6.0      4.076      8.189
  Name = 
  4 active torsions:
  status: ('A' for Active; 'I' for Inactive)
    1  A    between atoms: C_6  and  C_16
    2  A    between atoms: C_6  and  P_27
    3  A    between atoms: C_7  and  C_18
    4  A    between atoms: C_16  and  C_26
                            x       y       z     vdW  Elec       q    Type
                         _______ _______ _______ _____ _____    ______ ____

>  <TORSDO>
F 4

$$$$
=
 OpenBabel11062413173D

 30 33  0  0  1  0  0  0  0  0999 V2000
  191.0460  175.4060  136.8320 N   0  0  0  0  0  2  0  0  0  0  0  0
  185.0330  178.6240  141.2260 C   0  0  0  0  0  0  0  0  0  0  0  0
  183.0810  178.8660  142.7480 N   0  0  0  0  0  1  0  0  0  0  0  0
  186.8580  178.5940  137.3370 C   0  0  0  0  0  2  0  0  0  0  0  0
  191.2820  176.6500  137.5540 C   0  0  0  0  0  2  0  0  0  0  0  0
  187.1580  177.1640  136.8660 C   0  0  1  0  0  3  0  0  0  0  0  0
  190.4400  176.7020  138.8220 C   0  0  0  0  0  2  0  0  0  0  0  0
  189.7560  175.4920  136.1590 C   0  0  0  0  0  2  0  0  0  0  0  0
  186.4050  178.2850  141.1120 C   0  0  0  0  0  0  0  0  0  0  0  0
  187.0410  178.2740  139.8570 C   0  0  0  0  0  0  0  0  0  0  0  0
  184.4590  178.5840  142.5220 C   0  0  0  0  0  0  0  0  0  0  0  0
  184.9730  178.9470  138.8510 N   0  0  0  0  0  0  0  0  0  0  0  0
  189.0780  177.3160  138.5210 C   0  0  1  0  0  3  0  0  0  0  0  0
  187.1150  177.9620  142.2270 N   0  0  0  0  0  0  0  0  0  0  0  0
  185.2270  178.2510  143.5900 N   0  0  0  0  0  0  0  0  0  0  0  0
  186.5390  177.9450  143.4530 C   0  0  0  0  0  3  0  0  0  0  0  0
  186.2820  178.6220  138.7180 C   0  0  0  0  0  0  0  0  0  0  0  0
  188.6450  175.1390  137.1390 C   0  0  0  0  0  2  0  0  0  0  0  0
  188.0590  176.3770  137.8330 C   0  0  2  0  0  3  0  0  0  0  0  0
  184.3290  178.9710  140.0450 C   0  0  0  0  0  0  0  0  0  0  0  0
  188.5230  177.9450  139.8050 C   0  0  0  0  0  2  0  0  0  0  0  0
  185.8950  176.4220  136.5530 C   0  0  0  0  0  0  0  0  0  0  0  0
  185.2650  175.6550  137.5260 O   0  0  0  0  0  1  0  0  0  0  0  0
  185.3890  176.5110  135.4050 O   0  0  0  0  0  0  0  0  0  0  0  0
  182.8920  179.3910  140.0340 C   0  0  0  0  0  2  0  0  0  0  0  0
  182.1250  178.7330  138.8940 C   0  0  0  0  0  2  0  0  0  0  0  0
  182.4090  176.1430  139.7200 O   0  0  0  0  0  1  0  0  0  0  0  0
  180.3720  177.4820  140.9180 C   0  0  0  0  0  1  0  0  0  0  0  0
  181.3450  177.1750  139.4200 P   0  0  1  0  0  0  0  0  0  0  0  0
  180.3190  176.5960  138.2070 O   0  0  0  0  0  0  0  0  0  0  0  0
  1  5  1  0  0  0  0
  2 11  1  0  0  0  0
  4 17  1  0  0  0  0
  5  7  1  0  0  0  0
  6 22  1  1  0  0  0
  6  4  1  0  0  0  0
  6 19  1  0  0  0  0
  8  1  1  0  0  0  0
  8 18  1  0  0  0  0
  9  2  2  0  0  0  0
  9 14  1  0  0  0  0
 10  9  1  0  0  0  0
 11  3  1  0  0  0  0
 11 15  2  0  0  0  0
 12 20  2  0  0  0  0
 13  7  1  1  0  0  0
 13 21  1  0  0  0  0
 14 16  2  0  0  0  0
 16 15  1  0  0  0  0
 17 12  1  0  0  0  0
 17 10  2  0  0  0  0
 19 18  1  6  0  0  0
 19 13  1  0  0  0  0
 20  2  1  0  0  0  0
 21 10  1  0  0  0  0
 22 23  1  0  0  0  0
 24 22  2  0  0  0  0
 25 20  1  0  0  0  0
 26 29  1  0  0  0  0
 26 25  1  0  0  0  0
 29 27  1  0  0  0  0
 29 28  1  1  0  0  0
 30 29  2  0  0  0  0
M  END
>  <MODEL>
7

>  <REMARK>
 VINA RESULT:      -5.7      2.045      2.838
  Name = 
  4 active torsions:
  status: ('A' for Active; 'I' for Inactive)
    1  A    between atoms: C_6  and  C_16
    2  A    between atoms: C_6  and  P_27
    3  A    between atoms: C_7  and  C_18
    4  A    between atoms: C_16  and  C_26
                            x       y       z     vdW  Elec       q    Type
                         _______ _______ _______ _____ _____    ______ ____

>  <TORSDO>
F 4

$$$$
=
 OpenBabel11062413173D

 30 33  0  0  1  0  0  0  0  0999 V2000
  181.0660  176.3060  135.3700 N   0  0  0  0  0  2  0  0  0  0  0  0
  188.4120  177.1280  138.7120 C   0  0  0  0  0  0  0  0  0  0  0  0
  190.5100  176.6570  139.9620 N   0  0  0  0  0  1  0  0  0  0  0  0
  184.5690  178.9980  138.2740 C   0  0  0  0  0  2  0  0  0  0  0  0
  182.1120  176.9910  134.6220 C   0  0  0  0  0  2  0  0  0  0  0  0
  183.4270  177.9970  138.4960 C   0  0  1  0  0  3  0  0  0  0  0  0
  183.4820  176.4310  134.9810 C   0  0  0  0  0  2  0  0  0  0  0  0
  181.0770  176.7910  136.7440 C   0  0  0  0  0  2  0  0  0  0  0  0
  187.6250  176.8250  137.5720 C   0  0  0  0  0  0  0  0  0  0  0  0
  186.3660  177.4250  137.3880 C   0  0  0  0  0  0  0  0  0  0  0  0
  189.6570  176.4600  138.8380 C   0  0  0  0  0  0  0  0  0  0  0  0
  186.6850  178.6230  139.4390 N   0  0  0  0  0  0  0  0  0  0  0  0
  184.0580  177.1820  136.1760 C   0  0  1  0  0  3  0  0  0  0  0  0
  188.0890  175.9400  136.6480 N   0  0  0  0  0  0  0  0  0  0  0  0
  190.0560  175.5880  137.8780 N   0  0  0  0  0  0  0  0  0  0  0  0
  189.2880  175.3280  136.7920 C   0  0  0  0  0  3  0  0  0  0  0  0
  185.9130  178.3450  138.3590 C   0  0  0  0  0  0  0  0  0  0  0  0
  182.1400  176.0440  137.5390 C   0  0  0  0  0  2  0  0  0  0  0  0
  183.4860  176.7800  137.5560 C   0  0  2  0  0  3  0  0  0  0  0  0
  187.9040  178.0660  139.6460 C   0  0  0  0  0  0  0  0  0  0  0  0
  185.5890  177.0930  136.1260 C   0  0  0  0  0  2  0  0  0  0  0  0
  183.3400  177.5860  139.9340 C   0  0  0  0  0  0  0  0  0  0  0  0
  183.5930  178.5030  140.9480 O   0  0  0  0  0  1  0  0  0  0  0  0
  183.0130  176.4070  140.2260 O   0  0  0  0  0  0  0  0  0  0  0  0
  188.6540  178.5060  140.8650 C   0  0  0  0  0  2  0  0  0  0  0  0
  187.8970  178.1630  142.1420 C   0  0  0  0  0  2  0  0  0  0  0  0
  189.1330  175.9750  143.2180 O   0  0  0  0  0  0  0  0  0  0  0  0
  190.6340  178.2400  143.2540 C   0  0  0  0  0  1  0  0  0  0  0  0
  189.0010  177.4700  143.4120 P   0  0  1  0  0  0  0  0  0  0  0  0
  188.3890  177.7880  144.9560 O   0  0  0  0  0  1  0  0  0  0  0  0
  1  8  1  0  0  0  0
  2 11  1  0  0  0  0
  2 20  2  0  0  0  0
  4 17  1  0  0  0  0
  4  6  1  0  0  0  0
  5  7  1  0  0  0  0
  5  1  1  0  0  0  0
  6 22  1  1  0  0  0
  8 18  1  0  0  0  0
  9  2  1  0  0  0  0
 10  9  2  0  0  0  0
 10 17  1  0  0  0  0
 11  3  1  0  0  0  0
 12 20  1  0  0  0  0
 13  7  1  6  0  0  0
 13 19  1  0  0  0  0
 14 16  2  0  0  0  0
 14  9  1  0  0  0  0
 15 11  2  0  0  0  0
 16 15  1  0  0  0  0
 17 12  2  0  0  0  0
 19 18  1  6  0  0  0
 19  6  1  0  0  0  0
 20 25  1  0  0  0  0
 21 13  1  0  0  0  0
 21 10  1  0  0  0  0
 22 24  2  0  0  0  0
 22 23  1  0  0  0  0
 25 26  1  0  0  0  0
 26 29  1  0  0  0  0
 27 29  2  0  0  0  0
 29 28  1  6  0  0  0
 29 30  1  0  0  0  0
M  END
>  <MODEL>
8

>  <REMARK>
 VINA RESULT:      -5.6      3.337      6.672
  Name = 
  4 active torsions:
  status: ('A' for Active; 'I' for Inactive)
    1  A    between atoms: C_6  and  C_16
    2  A    between atoms: C_6  and  P_27
    3  A    between atoms: C_7  and  C_18
    4  A    between atoms: C_16  and  C_26
                            x       y       z     vdW  Elec       q    Type
                         _______ _______ _______ _____ _____    ______ ____

>  <TORSDO>
F 4

$$$$
=
 OpenBabel11062413173D

 30 33  0  0  1  0  0  0  0  0999 V2000
  192.4530  173.4950  136.4580 N   0  0  0  0  0  2  0  0  0  0  0  0
  186.6260  178.2680  139.4710 C   0  0  0  0  0  0  0  0  0  0  0  0
  184.7480  179.1220  140.8600 N   0  0  0  0  0  1  0  0  0  0  0  0
  188.2600  176.6550  135.8390 C   0  0  0  0  0  2  0  0  0  0  0  0
  192.7110  174.9220  136.6050 C   0  0  0  0  0  2  0  0  0  0  0  0
  188.5520  175.1540  135.9710 C   0  0  1  0  0  3  0  0  0  0  0  0
  191.9310  175.4890  137.7830 C   0  0  0  0  0  2  0  0  0  0  0  0
  191.1320  173.3150  135.8720 C   0  0  0  0  0  2  0  0  0  0  0  0
  187.9940  177.8990  139.4360 C   0  0  0  0  0  0  0  0  0  0  0  0
  188.5680  177.3770  138.2620 C   0  0  0  0  0  0  0  0  0  0  0  0
  186.1170  178.7600  140.6990 C   0  0  0  0  0  0  0  0  0  0  0  0
  186.4460  177.6060  137.1730 N   0  0  0  0  0  0  0  0  0  0  0  0
  190.5490  175.9430  137.3270 C   0  0  1  0  0  3  0  0  0  0  0  0
  188.7610  178.0460  140.5510 N   0  0  0  0  0  0  0  0  0  0  0  0
  186.9390  178.8780  141.7720 N   0  0  0  0  0  0  0  0  0  0  0  0
  188.2460  178.5310  141.7050 C   0  0  0  0  0  3  0  0  0  0  0  0
  187.7520  177.2430  137.1180 C   0  0  0  0  0  0  0  0  0  0  0  0
  190.0740  173.3980  136.9640 C   0  0  0  0  0  2  0  0  0  0  0  0
  189.5080  174.8150  137.1280 C   0  0  2  0  0  3  0  0  0  0  0  0
  185.8610  178.1160  138.2860 C   0  0  0  0  0  0  0  0  0  0  0  0
  190.0500  177.0410  138.2750 C   0  0  0  0  0  2  0  0  0  0  0  0
  187.2840  174.3610  136.0460 C   0  0  0  0  0  0  0  0  0  0  0  0
  186.7780  173.7290  134.9150 O   0  0  0  0  0  0  0  0  0  0  0  0
  186.6840  174.2470  137.1450 O   0  0  0  0  0  1  0  0  0  0  0  0
  184.4210  178.5100  138.1770 C   0  0  0  0  0  2  0  0  0  0  0  0
  183.6790  177.6430  137.1670 C   0  0  0  0  0  2  0  0  0  0  0  0
  181.0460  177.0860  136.6860 O   0  0  0  0  0  0  0  0  0  0  0  0
  182.2300  175.4290  138.4850 C   0  0  0  0  0  1  0  0  0  0  0  0
  182.0630  177.1010  137.8060 P   0  0  1  0  0  0  0  0  0  0  0  0
  181.5390  178.1430  139.0310 O   0  0  0  0  0  1  0  0  0  0  0  0
  1  5  1  0  0  0  0
  2 11  1  0  0  0  0
  4  6  1  0  0  0  0
  4 17  1  0  0  0  0
  5  7  1  0  0  0  0
  6 22  1  1  0  0  0
  6 19  1  0  0  0  0
  8  1  1  0  0  0  0
  8 18  1  0  0  0  0
  9  2  2  0  0  0  0
  9 14  1  0  0  0  0
 10 21  1  0  0  0  0
 10  9  1  0  0  0  0
 11  3  1  0  0  0  0
 11 15  2  0  0  0  0
 12 20  2  0  0  0  0
 13  7  1  1  0  0  0
 13 21  1  0  0  0  0
 14 16  2  0  0  0  0
 16 15  1  0  0  0  0
 17 12  1  0  0  0  0
 17 10  2  0  0  0  0
 19 18  1  6  0  0  0
 19 13  1  0  0  0  0
 20  2  1  0  0  0  0
 22 24  1  0  0  0  0
 23 22  2  0  0  0  0
 25 20  1  0  0  0  0
 26 29  1  0  0  0  0
 26 25  1  0  0  0  0
 27 29  2  0  0  0  0
 29 28  1  1  0  0  0
 29 30  1  0  0  0  0
M  END
>  <MODEL>
9

>  <REMARK>
 VINA RESULT:      -5.2      1.955      2.849
  Name = 
  4 active torsions:
  status: ('A' for Active; 'I' for Inactive)
    1  A    between atoms: C_6  and  C_16
    2  A    between atoms: C_6  and  P_27
    3  A    between atoms: C_7  and  C_18
    4  A    between atoms: C_16  and  C_26
                            x       y       z     vdW  Elec       q    Type
                         _______ _______ _______ _____ _____    ______ ____

>  <TORSDO>
F 4

$$$$
