=
 OpenBabel11062418113D

 25 27  0  0  1  0  0  0  0  0999 V2000
  185.3080  179.2260  147.1470 O   0  0  0  0  0  1  0  0  0  0  0  0
  188.4440  176.7710  143.1050 C   0  0  1  0  0  3  0  0  0  0  0  0
  189.6840  176.4750  143.9740 C   0  0  0  0  0  2  0  0  0  0  0  0
  184.3030  178.1030  142.2470 C   0  0  0  0  0  0  0  0  0  0  0  0
  183.7150  177.9090  140.8970 C   0  0  0  0  0  1  0  0  0  0  0  0
  183.2960  179.5040  145.4970 O   0  0  0  0  0  1  0  0  0  0  0  0
  186.1680  177.8600  143.7740 C   0  0  0  0  0  0  0  0  0  0  0  0
  184.0900  178.8960  144.5310 C   0  0  0  0  0  0  0  0  0  0  0  0
  187.4800  177.4420  144.0420 C   0  0  0  0  0  0  0  0  0  0  0  0
  186.0010  178.6340  146.0980 C   0  0  0  0  0  0  0  0  0  0  0  0
  183.5520  178.7080  143.2550 C   0  0  0  0  0  3  0  0  0  0  0  0
  188.0180  177.5970  145.2930 C   0  0  0  0  0  0  0  0  0  0  0  0
  185.4100  178.4730  144.8150 C   0  0  0  0  0  0  0  0  0  0  0  0
  189.3500  177.0450  145.3170 C   0  0  0  0  0  0  0  0  0  0  0  0
  190.1130  177.0480  146.3710 N   0  0  0  0  0  0  0  0  0  0  0  0
  185.6050  177.6800  142.5050 C   0  0  0  0  0  3  0  0  0  0  0  0
  187.3080  178.1880  146.3360 C   0  0  0  0  0  3  0  0  0  0  0  0
  192.1350  176.6100  147.6560 O   0  0  0  0  0  1  0  0  0  0  0  0
  191.4410  176.5120  146.4580 C   0  0  0  0  0  0  0  0  0  0  0  0
  191.9910  175.9550  145.4700 O   0  0  0  0  0  0  0  0  0  0  0  0
  188.9200  177.2660  140.7840 N   0  0  0  0  0  0  0  0  0  0  0  0
  188.8200  177.7000  141.9980 C   0  0  0  0  0  3  0  0  0  0  0  0
  188.5160  179.0620  139.3350 O   0  0  0  0  0  1  0  0  0  0  0  0
  189.2760  178.1240  139.6960 C   0  0  0  0  0  0  0  0  0  0  0  0
  190.4770  177.9180  139.0300 O   0  0  0  0  0  0  0  0  0  0  0  0
  2 22  1  6  0  0  0
  2  3  1  0  0  0  0
  2  9  1  0  0  0  0
  3 14  1  0  0  0  0
  4 16  2  0  0  0  0
  4 11  1  0  0  0  0
  5  4  1  0  0  0  0
  7  9  2  0  0  0  0
  7 13  1  0  0  0  0
  8 13  1  0  0  0  0
  8  6  1  0  0  0  0
  9 12  1  0  0  0  0
 10 17  1  0  0  0  0
 10  1  1  0  0  0  0
 11  8  2  0  0  0  0
 12 14  1  0  0  0  0
 12 17  2  0  0  0  0
 13 10  2  0  0  0  0
 14 15  2  0  0  0  0
 15 19  1  0  0  0  0
 16  7  1  0  0  0  0
 19 18  1  0  0  0  0
 20 19  2  0  0  0  0
 21 22  2  0  0  0  0
 23 24  1  0  0  0  0
 24 21  1  0  0  0  0
 25 24  2  0  0  0  0
M  END
>  <MODEL>
1

>  <REMARK>
 VINA RESULT:     -10.0      0.000      0.000
  Name = 
  3 active torsions:
  status: ('A' for Active; 'I' for Inactive)
    1  A    between atoms: N_2  and  C_12
    2  A    between atoms: C_4  and  C_7
    3  A    between atoms: C_18  and  N_22
                            x       y       z     vdW  Elec       q    Type
                         _______ _______ _______ _____ _____    ______ ____

>  <TORSDO>
F 3

$$$$
=
 OpenBabel11062418113D

 25 27  0  0  1  0  0  0  0  0999 V2000
  184.2560  178.2520  144.1070 O   0  0  0  0  0  1  0  0  0  0  0  0
  189.8730  177.8470  143.4050 C   0  0  1  0  0  3  0  0  0  0  0  0
  189.8790  177.8750  141.8630 C   0  0  0  0  0  2  0  0  0  0  0  0
  188.1210  178.0940  147.4710 C   0  0  0  0  0  0  0  0  0  0  0  0
  188.9980  178.0760  148.6700 C   0  0  0  0  0  1  0  0  0  0  0  0
  184.5280  178.3060  146.7090 O   0  0  0  0  0  1  0  0  0  0  0  0
  187.8650  178.0310  145.0620 C   0  0  0  0  0  0  0  0  0  0  0  0
  185.8990  178.2090  146.5020 C   0  0  0  0  0  0  0  0  0  0  0  0
  188.4210  177.9480  143.7770 C   0  0  0  0  0  0  0  0  0  0  0  0
  185.6410  178.1570  144.0300 C   0  0  0  0  0  0  0  0  0  0  0  0
  186.7380  178.1890  147.6200 C   0  0  0  0  0  3  0  0  0  0  0  0
  187.6170  177.9890  142.6680 C   0  0  0  0  0  0  0  0  0  0  0  0
  186.4490  178.1320  145.2000 C   0  0  0  0  0  0  0  0  0  0  0  0
  188.4330  177.9370  141.4800 C   0  0  0  0  0  0  0  0  0  0  0  0
  187.9500  177.9570  140.2720 N   0  0  0  0  0  0  0  0  0  0  0  0
  188.6830  178.0170  146.1980 C   0  0  0  0  0  3  0  0  0  0  0  0
  186.2310  178.0910  142.7610 C   0  0  0  0  0  3  0  0  0  0  0  0
  189.0170  179.1000  138.4040 O   0  0  0  0  0  0  0  0  0  0  0  0
  188.7080  177.9130  139.0550 C   0  0  0  0  0  0  0  0  0  0  0  0
  189.0990  176.8210  138.5630 O   0  0  0  0  0  1  0  0  0  0  0  0
  191.4700  176.5350  144.6650 N   0  0  0  0  0  0  0  0  0  0  0  0
  190.4400  176.5500  143.8840 C   0  0  0  0  0  3  0  0  0  0  0  0
  192.3290  174.3780  144.3520 O   0  0  0  0  0  0  0  0  0  0  0  0
  192.0420  175.3150  145.1450 C   0  0  0  0  0  0  0  0  0  0  0  0
  192.2840  175.1620  146.5030 O   0  0  0  0  0  1  0  0  0  0  0  0
  2  9  1  0  0  0  0
  2 22  1  6  0  0  0
  3  2  1  0  0  0  0
  4 11  1  0  0  0  0
  4  5  1  0  0  0  0
  7 13  1  0  0  0  0
  7 16  1  0  0  0  0
  8  6  1  0  0  0  0
  8 11  2  0  0  0  0
  9  7  2  0  0  0  0
 10  1  1  0  0  0  0
 10 13  2  0  0  0  0
 12 17  2  0  0  0  0
 12  9  1  0  0  0  0
 13  8  1  0  0  0  0
 14  3  1  0  0  0  0
 14 12  1  0  0  0  0
 15 14  2  0  0  0  0
 16  4  2  0  0  0  0
 17 10  1  0  0  0  0
 18 19  2  0  0  0  0
 19 15  1  0  0  0  0
 20 19  1  0  0  0  0
 21 24  1  0  0  0  0
 22 21  2  0  0  0  0
 23 24  2  0  0  0  0
 24 25  1  0  0  0  0
M  END
>  <MODEL>
2

>  <REMARK>
 VINA RESULT:      -9.8      1.545      5.418
  Name = 
  3 active torsions:
  status: ('A' for Active; 'I' for Inactive)
    1  A    between atoms: N_2  and  C_12
    2  A    between atoms: C_4  and  C_7
    3  A    between atoms: C_18  and  N_22
                            x       y       z     vdW  Elec       q    Type
                         _______ _______ _______ _____ _____    ______ ____

>  <TORSDO>
F 3

$$$$
=
 OpenBabel11062418113D

 25 27  0  0  1  0  0  0  0  0999 V2000
  188.2410  178.7580  139.6760 O   0  0  0  0  0  1  0  0  0  0  0  0
  186.9460  177.1280  144.9550 C   0  0  1  0  0  3  0  0  0  0  0  0
  185.5010  177.6690  144.9770 C   0  0  0  0  0  2  0  0  0  0  0  0
  190.8860  176.1200  143.1880 C   0  0  0  0  0  0  0  0  0  0  0  0
  191.8850  175.3470  143.9690 C   0  0  0  0  0  1  0  0  0  0  0  0
  190.6050  177.6490  139.8520 O   0  0  0  0  0  1  0  0  0  0  0  0
  188.7030  177.1600  143.0250 C   0  0  0  0  0  0  0  0  0  0  0  0
  190.2540  177.2620  141.1410 C   0  0  0  0  0  0  0  0  0  0  0  0
  187.4600  177.4820  143.5890 C   0  0  0  0  0  0  0  0  0  0  0  0
  188.0100  178.3170  140.9740 C   0  0  0  0  0  0  0  0  0  0  0  0
  191.1840  176.5350  141.8900 C   0  0  0  0  0  3  0  0  0  0  0  0
  186.5260  178.1750  142.8630 C   0  0  0  0  0  0  0  0  0  0  0  0
  188.9940  177.5870  141.6960 C   0  0  0  0  0  0  0  0  0  0  0  0
  185.3260  178.3310  143.6460 C   0  0  0  0  0  0  0  0  0  0  0  0
  184.2630  178.9500  143.2220 N   0  0  0  0  0  0  0  0  0  0  0  0
  189.6510  176.4300  143.7530 C   0  0  0  0  0  3  0  0  0  0  0  0
  186.7710  178.6050  141.5610 C   0  0  0  0  0  3  0  0  0  0  0  0
  181.8290  179.0410  143.2790 O   0  0  0  0  0  0  0  0  0  0  0  0
  183.0400  179.1340  143.9510 C   0  0  0  0  0  0  0  0  0  0  0  0
  183.0420  179.3780  145.1870 O   0  0  0  0  0  1  0  0  0  0  0  0
  188.2760  177.1430  146.9780 N   0  0  0  0  0  0  0  0  0  0  0  0
  187.7540  177.8170  146.0050 C   0  0  0  0  0  3  0  0  0  0  0  0
  188.5260  178.5490  148.8350 O   0  0  0  0  0  1  0  0  0  0  0  0
  189.0570  177.7660  148.0020 C   0  0  0  0  0  0  0  0  0  0  0  0
  190.4170  177.5040  148.0790 O   0  0  0  0  0  0  0  0  0  0  0  0
  1 10  1  0  0  0  0
  2  3  1  0  0  0  0
  2 22  1  1  0  0  0
  4 16  1  0  0  0  0
  4  5  1  0  0  0  0
  6  8  1  0  0  0  0
  7  9  1  0  0  0  0
  7 16  2  0  0  0  0
  8 13  2  0  0  0  0
  8 11  1  0  0  0  0
  9  2  1  0  0  0  0
 10 17  2  0  0  0  0
 10 13  1  0  0  0  0
 11  4  2  0  0  0  0
 12  9  2  0  0  0  0
 12 14  1  0  0  0  0
 13  7  1  0  0  0  0
 14  3  1  0  0  0  0
 15 14  2  0  0  0  0
 15 19  1  0  0  0  0
 17 12  1  0  0  0  0
 18 19  2  0  0  0  0
 19 20  1  0  0  0  0
 21 24  1  0  0  0  0
 22 21  2  0  0  0  0
 24 25  2  0  0  0  0
 24 23  1  0  0  0  0
M  END
>  <MODEL>
3

>  <REMARK>
 VINA RESULT:      -9.1      1.967      6.965
  Name = 
  3 active torsions:
  status: ('A' for Active; 'I' for Inactive)
    1  A    between atoms: N_2  and  C_12
    2  A    between atoms: C_4  and  C_7
    3  A    between atoms: C_18  and  N_22
                            x       y       z     vdW  Elec       q    Type
                         _______ _______ _______ _____ _____    ______ ____

>  <TORSDO>
F 3

$$$$
=
 OpenBabel11062418113D

 25 27  0  0  1  0  0  0  0  0999 V2000
  182.0050  178.5150  141.4530 O   0  0  0  0  0  1  0  0  0  0  0  0
  187.6690  178.6560  141.7840 C   0  0  1  0  0  3  0  0  0  0  0  0
  187.9530  178.6280  140.2680 C   0  0  0  0  0  2  0  0  0  0  0  0
  185.1900  178.8750  145.4540 C   0  0  0  0  0  0  0  0  0  0  0  0
  185.8320  178.9900  146.7890 C   0  0  0  0  0  1  0  0  0  0  0  0
  181.7920  178.6920  144.0550 O   0  0  0  0  0  1  0  0  0  0  0  0
  185.3840  178.6970  143.0460 C   0  0  0  0  0  0  0  0  0  0  0  0
  183.1810  178.7270  144.1010 C   0  0  0  0  0  0  0  0  0  0  0  0
  186.1700  178.6230  141.8860 C   0  0  0  0  0  0  0  0  0  0  0  0
  183.3840  178.5580  141.6300 C   0  0  0  0  0  0  0  0  0  0  0  0
  183.8010  178.8340  145.3490 C   0  0  0  0  0  3  0  0  0  0  0  0
  185.5820  178.5410  140.6510 C   0  0  0  0  0  0  0  0  0  0  0  0
  183.9640  178.6590  142.9240 C   0  0  0  0  0  0  0  0  0  0  0  0
  186.6020  178.5280  139.6320 C   0  0  0  0  0  0  0  0  0  0  0  0
  186.3480  178.4540  138.3580 N   0  0  0  0  0  0  0  0  0  0  0  0
  185.9800  178.8080  144.3080 C   0  0  0  0  0  3  0  0  0  0  0  0
  184.1990  178.5050  140.4910 C   0  0  0  0  0  3  0  0  0  0  0  0
  187.7230  177.2280  136.7650 O   0  0  0  0  0  0  0  0  0  0  0  0
  187.3160  178.4430  137.2990 C   0  0  0  0  0  0  0  0  0  0  0  0
  187.8040  179.5110  136.8430 O   0  0  0  0  0  1  0  0  0  0  0  0
  189.4750  177.4570  142.8610 N   0  0  0  0  0  0  0  0  0  0  0  0
  188.2570  177.4430  142.4260 C   0  0  0  0  0  3  0  0  0  0  0  0
  190.2360  175.2420  142.8430 O   0  0  0  0  0  0  0  0  0  0  0  0
  190.0740  176.3160  143.4820 C   0  0  0  0  0  0  0  0  0  0  0  0
  190.4840  176.3950  144.8060 O   0  0  0  0  0  1  0  0  0  0  0  0
  1 10  1  0  0  0  0
  2  9  1  0  0  0  0
  2 22  1  1  0  0  0
  3  2  1  0  0  0  0
  4  5  1  0  0  0  0
  6  8  1  0  0  0  0
  7 16  1  0  0  0  0
  8 11  2  0  0  0  0
  9  7  2  0  0  0  0
 10 13  2  0  0  0  0
 11  4  1  0  0  0  0
 12  9  1  0  0  0  0
 13  7  1  0  0  0  0
 13  8  1  0  0  0  0
 14  3  1  0  0  0  0
 14 12  1  0  0  0  0
 15 14  2  0  0  0  0
 16  4  2  0  0  0  0
 17 12  2  0  0  0  0
 17 10  1  0  0  0  0
 18 19  2  0  0  0  0
 19 15  1  0  0  0  0
 20 19  1  0  0  0  0
 21 24  1  0  0  0  0
 22 21  2  0  0  0  0
 23 24  2  0  0  0  0
 24 25  1  0  0  0  0
M  END
>  <MODEL>
4

>  <REMARK>
 VINA RESULT:      -8.8      2.168      5.699
  Name = 
  3 active torsions:
  status: ('A' for Active; 'I' for Inactive)
    1  A    between atoms: N_2  and  C_12
    2  A    between atoms: C_4  and  C_7
    3  A    between atoms: C_18  and  N_22
                            x       y       z     vdW  Elec       q    Type
                         _______ _______ _______ _____ _____    ______ ____

>  <TORSDO>
F 3

$$$$
=
 OpenBabel11062418113D

 25 27  0  0  1  0  0  0  0  0999 V2000
  190.0700  175.7520  142.9500 O   0  0  0  0  0  1  0  0  0  0  0  0
  185.8930  179.3780  141.6810 C   0  0  1  0  0  3  0  0  0  0  0  0
  185.2180  179.3900  143.0680 C   0  0  0  0  0  2  0  0  0  0  0  0
  188.9880  178.3630  138.6730 C   0  0  0  0  0  0  0  0  0  0  0  0
  188.9490  178.9720  137.3180 C   0  0  0  0  0  1  0  0  0  0  0  0
  191.0910  176.0000  140.5530 O   0  0  0  0  0  1  0  0  0  0  0  0
  188.0390  178.1210  140.8890 C   0  0  0  0  0  0  0  0  0  0  0  0
  190.0560  176.8870  140.2760 C   0  0  0  0  0  0  0  0  0  0  0  0
  187.0560  178.4390  141.8370 C   0  0  0  0  0  0  0  0  0  0  0  0
  189.0860  176.6500  142.5520 C   0  0  0  0  0  0  0  0  0  0  0  0
  190.0030  177.4670  139.0050 C   0  0  0  0  0  3  0  0  0  0  0  0
  187.1030  177.8990  143.0960 C   0  0  0  0  0  0  0  0  0  0  0  0
  189.0740  177.2060  141.2430 C   0  0  0  0  0  0  0  0  0  0  0  0
  186.0160  178.4220  143.8860 C   0  0  0  0  0  0  0  0  0  0  0  0
  185.7990  178.0900  145.1250 N   0  0  0  0  0  0  0  0  0  0  0  0
  188.0110  178.6900  139.6100 C   0  0  0  0  0  3  0  0  0  0  0  0
  188.0990  177.0050  143.4810 C   0  0  0  0  0  3  0  0  0  0  0  0
  184.9300  178.6280  147.3360 O   0  0  0  0  0  1  0  0  0  0  0  0
  184.7410  178.5780  145.9620 C   0  0  0  0  0  0  0  0  0  0  0  0
  183.6430  178.9620  145.4760 O   0  0  0  0  0  0  0  0  0  0  0  0
  184.5020  179.6110  139.7130 N   0  0  0  0  0  0  0  0  0  0  0  0
  184.9350  178.8490  140.6640 C   0  0  0  0  0  3  0  0  0  0  0  0
  183.8600  178.1410  138.0070 O   0  0  0  0  0  0  0  0  0  0  0  0
  183.5860  179.1430  138.7210 C   0  0  0  0  0  0  0  0  0  0  0  0
  182.3770  179.8010  138.5410 O   0  0  0  0  0  1  0  0  0  0  0  0
  2 22  1  6  0  0  0
  2  9  1  0  0  0  0
  2  3  1  0  0  0  0
  3 14  1  0  0  0  0
  4 11  2  0  0  0  0
  4 16  1  0  0  0  0
  5  4  1  0  0  0  0
  7 13  1  0  0  0  0
  7  9  1  0  0  0  0
  8  6  1  0  0  0  0
  8 13  2  0  0  0  0
  9 12  2  0  0  0  0
 10  1  1  0  0  0  0
 10 17  2  0  0  0  0
 11  8  1  0  0  0  0
 12 17  1  0  0  0  0
 12 14  1  0  0  0  0
 13 10  1  0  0  0  0
 14 15  2  0  0  0  0
 15 19  1  0  0  0  0
 16  7  2  0  0  0  0
 19 18  1  0  0  0  0
 20 19  2  0  0  0  0
 21 22  2  0  0  0  0
 23 24  2  0  0  0  0
 24 21  1  0  0  0  0
 25 24  1  0  0  0  0
M  END
>  <MODEL>
5

>  <REMARK>
 VINA RESULT:      -8.3      2.593      5.951
  Name = 
  3 active torsions:
  status: ('A' for Active; 'I' for Inactive)
    1  A    between atoms: N_2  and  C_12
    2  A    between atoms: C_4  and  C_7
    3  A    between atoms: C_18  and  N_22
                            x       y       z     vdW  Elec       q    Type
                         _______ _______ _______ _____ _____    ______ ____

>  <TORSDO>
F 3

$$$$
=
 OpenBabel11062418113D

 25 27  0  0  1  0  0  0  0  0999 V2000
  185.2680  177.6720  146.0490 O   0  0  0  0  0  1  0  0  0  0  0  0
  188.0020  178.6200  141.1670 C   0  0  1  0  0  3  0  0  0  0  0  0
  186.7620  178.9530  140.3110 C   0  0  0  0  0  2  0  0  0  0  0  0
  190.2570  177.6780  144.8660 C   0  0  0  0  0  0  0  0  0  0  0  0
  191.7410  177.6110  144.8460 C   0  0  0  0  0  1  0  0  0  0  0  0
  187.5300  177.2660  147.3020 O   0  0  0  0  0  1  0  0  0  0  0  0
  188.1600  178.0400  143.7070 C   0  0  0  0  0  0  0  0  0  0  0  0
  188.1680  177.5060  146.0900 C   0  0  0  0  0  0  0  0  0  0  0  0
  187.4490  178.3340  142.5340 C   0  0  0  0  0  0  0  0  0  0  0  0
  186.0210  177.8910  144.9000 C   0  0  0  0  0  0  0  0  0  0  0  0
  189.5640  177.4450  146.0540 C   0  0  0  0  0  3  0  0  0  0  0  0
  186.0810  178.4210  142.5540 C   0  0  0  0  0  0  0  0  0  0  0  0
  187.4400  177.8080  144.9150 C   0  0  0  0  0  0  0  0  0  0  0  0
  185.6020  178.7800  141.2420 C   0  0  0  0  0  0  0  0  0  0  0  0
  184.3440  178.9360  140.9510 N   0  0  0  0  0  0  0  0  0  0  0  0
  189.5590  177.9760  143.6980 C   0  0  0  0  0  3  0  0  0  0  0  0
  185.3430  178.2050  143.7150 C   0  0  0  0  0  3  0  0  0  0  0  0
  184.1800  180.5030  139.0940 O   0  0  0  0  0  1  0  0  0  0  0  0
  183.8070  179.2960  139.6700 C   0  0  0  0  0  0  0  0  0  0  0  0
  183.0050  178.5420  139.0580 O   0  0  0  0  0  0  0  0  0  0  0  0
  189.2220  177.4330  139.4460 N   0  0  0  0  0  0  0  0  0  0  0  0
  188.6760  177.4050  140.6170 C   0  0  0  0  0  3  0  0  0  0  0  0
  190.9310  175.8310  139.4010 O   0  0  0  0  0  1  0  0  0  0  0  0
  189.8780  176.2920  138.8850 C   0  0  0  0  0  0  0  0  0  0  0  0
  189.3450  175.6850  137.7560 O   0  0  0  0  0  0  0  0  0  0  0  0
  2 22  1  6  0  0  0
  2  9  1  0  0  0  0
  3  2  1  0  0  0  0
  3 14  1  0  0  0  0
  4 11  1  0  0  0  0
  5  4  1  0  0  0  0
  7 13  1  0  0  0  0
  8  6  1  0  0  0  0
  9 12  1  0  0  0  0
  9  7  2  0  0  0  0
 10 13  2  0  0  0  0
 10  1  1  0  0  0  0
 11  8  2  0  0  0  0
 12 17  2  0  0  0  0
 13  8  1  0  0  0  0
 14 12  1  0  0  0  0
 15 14  2  0  0  0  0
 16  7  1  0  0  0  0
 16  4  2  0  0  0  0
 17 10  1  0  0  0  0
 18 19  1  0  0  0  0
 19 15  1  0  0  0  0
 20 19  2  0  0  0  0
 21 22  2  0  0  0  0
 24 23  1  0  0  0  0
 24 21  1  0  0  0  0
 25 24  2  0  0  0  0
M  END
>  <MODEL>
6

>  <REMARK>
 VINA RESULT:      -8.3      2.536      5.771
  Name = 
  3 active torsions:
  status: ('A' for Active; 'I' for Inactive)
    1  A    between atoms: N_2  and  C_12
    2  A    between atoms: C_4  and  C_7
    3  A    between atoms: C_18  and  N_22
                            x       y       z     vdW  Elec       q    Type
                         _______ _______ _______ _____ _____    ______ ____

>  <TORSDO>
F 3

$$$$
=
 OpenBabel11062418113D

 25 27  0  0  1  0  0  0  0  0999 V2000
  192.0560  177.5030  146.2560 O   0  0  0  0  0  1  0  0  0  0  0  0
  188.4220  177.1150  141.9140 C   0  0  1  0  0  3  0  0  0  0  0  0
  189.4730  177.0180  140.7880 C   0  0  0  0  0  2  0  0  0  0  0  0
  186.9360  177.2870  146.0870 C   0  0  0  0  0  0  0  0  0  0  0  0
  185.4780  177.2390  146.3700 C   0  0  0  0  0  1  0  0  0  0  0  0
  190.0850  177.5290  147.9770 O   0  0  0  0  0  1  0  0  0  0  0  0
  188.7640  177.2770  144.4960 C   0  0  0  0  0  0  0  0  0  0  0  0
  189.2220  177.4310  146.8910 C   0  0  0  0  0  0  0  0  0  0  0  0
  189.2310  177.2270  143.1750 C   0  0  0  0  0  0  0  0  0  0  0  0
  191.0940  177.4070  145.2560 C   0  0  0  0  0  0  0  0  0  0  0  0
  187.8470  177.3860  147.1390 C   0  0  0  0  0  3  0  0  0  0  0  0
  190.5760  177.2460  142.9120 C   0  0  0  0  0  0  0  0  0  0  0  0
  189.7060  177.3740  145.5620 C   0  0  0  0  0  0  0  0  0  0  0  0
  190.7910  177.1350  141.4900 C   0  0  0  0  0  0  0  0  0  0  0  0
  191.9680  177.1270  140.9370 N   0  0  0  0  0  0  0  0  0  0  0  0
  187.3910  177.2310  144.7720 C   0  0  0  0  0  3  0  0  0  0  0  0
  191.5270  177.3370  143.9250 C   0  0  0  0  0  3  0  0  0  0  0  0
  193.5550  177.1280  139.0890 O   0  0  0  0  0  1  0  0  0  0  0  0
  192.2450  177.0140  139.5340 C   0  0  0  0  0  0  0  0  0  0  0  0
  191.3260  176.8140  138.6960 O   0  0  0  0  0  0  0  0  0  0  0  0
  186.3050  178.2620  141.6710 N   0  0  0  0  0  0  0  0  0  0  0  0
  187.5950  178.3430  141.7200 C   0  0  0  0  0  3  0  0  0  0  0  0
  185.1330  180.1280  142.4680 O   0  0  0  0  0  1  0  0  0  0  0  0
  185.4770  179.4140  141.4870 C   0  0  0  0  0  0  0  0  0  0  0  0
  185.0470  179.7500  140.2110 O   0  0  0  0  0  0  0  0  0  0  0  0
  2 22  1  6  0  0  0
  2  9  1  0  0  0  0
  3 14  1  0  0  0  0
  3  2  1  0  0  0  0
  4  5  1  0  0  0  0
  4 11  1  0  0  0  0
  7 16  1  0  0  0  0
  7 13  1  0  0  0  0
  8 11  2  0  0  0  0
  8  6  1  0  0  0  0
  9  7  2  0  0  0  0
 10 13  2  0  0  0  0
 10  1  1  0  0  0  0
 12  9  1  0  0  0  0
 12 17  2  0  0  0  0
 13  8  1  0  0  0  0
 14 12  1  0  0  0  0
 15 14  2  0  0  0  0
 16  4  2  0  0  0  0
 17 10  1  0  0  0  0
 18 19  1  0  0  0  0
 19 15  1  0  0  0  0
 20 19  2  0  0  0  0
 21 22  2  0  0  0  0
 24 21  1  0  0  0  0
 24 23  1  0  0  0  0
 25 24  2  0  0  0  0
M  END
>  <MODEL>
7

>  <REMARK>
 VINA RESULT:      -8.1      2.422      5.120
  Name = 
  3 active torsions:
  status: ('A' for Active; 'I' for Inactive)
    1  A    between atoms: N_2  and  C_12
    2  A    between atoms: C_4  and  C_7
    3  A    between atoms: C_18  and  N_22
                            x       y       z     vdW  Elec       q    Type
                         _______ _______ _______ _____ _____    ______ ____

>  <TORSDO>
F 3

$$$$
=
 OpenBabel11062418113D

 25 27  0  0  1  0  0  0  0  0999 V2000
  186.0270  178.7760  144.6200 O   0  0  0  0  0  1  0  0  0  0  0  0
  183.8920  178.5530  139.3670 C   0  0  1  0  0  3  0  0  0  0  0  0
  185.2320  178.3950  138.6190 C   0  0  0  0  0  2  0  0  0  0  0  0
  181.2040  178.8270  142.8820 C   0  0  0  0  0  0  0  0  0  0  0  0
  179.7300  178.8580  142.7010 C   0  0  0  0  0  1  0  0  0  0  0  0
  183.6250  178.9140  145.6510 O   0  0  0  0  0  1  0  0  0  0  0  0
  183.4290  178.7120  141.9310 C   0  0  0  0  0  0  0  0  0  0  0  0
  183.1350  178.8550  144.3510 C   0  0  0  0  0  0  0  0  0  0  0  0
  184.2780  178.6300  140.8170 C   0  0  0  0  0  0  0  0  0  0  0  0
  185.4160  178.7240  143.3720 C   0  0  0  0  0  0  0  0  0  0  0  0
  181.7510  178.8850  144.1640 C   0  0  0  0  0  3  0  0  0  0  0  0
  185.6370  178.5780  140.9810 C   0  0  0  0  0  0  0  0  0  0  0  0
  184.0010  178.7660  143.2360 C   0  0  0  0  0  0  0  0  0  0  0  0
  186.2730  178.4470  139.6930 C   0  0  0  0  0  0  0  0  0  0  0  0
  187.5620  178.3740  139.5290 N   0  0  0  0  0  0  0  0  0  0  0  0
  182.0390  178.7400  141.7700 C   0  0  0  0  0  3  0  0  0  0  0  0
  186.2330  178.6240  142.2390 C   0  0  0  0  0  3  0  0  0  0  0  0
  188.6410  179.3800  137.5910 O   0  0  0  0  0  0  0  0  0  0  0  0
  188.2510  178.2380  138.2780 C   0  0  0  0  0  0  0  0  0  0  0  0
  188.5100  177.1060  137.7890 O   0  0  0  0  0  1  0  0  0  0  0  0
  182.1170  179.7900  138.2800 N   0  0  0  0  0  0  0  0  0  0  0  0
  183.2290  179.8220  138.9410 C   0  0  0  0  0  3  0  0  0  0  0  0
  181.5510  182.0510  138.5150 O   0  0  0  0  0  1  0  0  0  0  0  0
  181.4510  180.9820  137.8550 C   0  0  0  0  0  0  0  0  0  0  0  0
  180.6830  180.9600  136.6990 O   0  0  0  0  0  0  0  0  0  0  0  0
  2 22  1  6  0  0  0
  2  9  1  0  0  0  0
  3  2  1  0  0  0  0
  3 14  1  0  0  0  0
  4 11  1  0  0  0  0
  5  4  1  0  0  0  0
  7 13  1  0  0  0  0
  8  6  1  0  0  0  0
  9 12  1  0  0  0  0
  9  7  2  0  0  0  0
 10  1  1  0  0  0  0
 11  8  2  0  0  0  0
 12 17  2  0  0  0  0
 13 10  2  0  0  0  0
 13  8  1  0  0  0  0
 14 12  1  0  0  0  0
 15 14  2  0  0  0  0
 16  7  1  0  0  0  0
 16  4  2  0  0  0  0
 17 10  1  0  0  0  0
 18 19  2  0  0  0  0
 19 15  1  0  0  0  0
 20 19  1  0  0  0  0
 21 22  2  0  0  0  0
 24 21  1  0  0  0  0
 24 23  1  0  0  0  0
 25 24  2  0  0  0  0
M  END
>  <MODEL>
8

>  <REMARK>
 VINA RESULT:      -7.8      3.616      6.179
  Name = 
  3 active torsions:
  status: ('A' for Active; 'I' for Inactive)
    1  A    between atoms: N_2  and  C_12
    2  A    between atoms: C_4  and  C_7
    3  A    between atoms: C_18  and  N_22
                            x       y       z     vdW  Elec       q    Type
                         _______ _______ _______ _____ _____    ______ ____

>  <TORSDO>
F 3

$$$$
=
 OpenBabel11062418113D

 25 27  0  0  1  0  0  0  0  0999 V2000
  185.1230  179.7300  139.7580 O   0  0  0  0  0  1  0  0  0  0  0  0
  188.0800  176.9790  143.7450 C   0  0  1  0  0  3  0  0  0  0  0  0
  187.1610  177.3180  144.9370 C   0  0  0  0  0  2  0  0  0  0  0  0
  189.3470  176.8350  139.4980 C   0  0  0  0  0  0  0  0  0  0  0  0
  190.5500  176.0620  139.0980 C   0  0  0  0  0  1  0  0  0  0  0  0
  186.7720  178.9180  137.8950 O   0  0  0  0  0  1  0  0  0  0  0  0
  187.8260  177.6000  141.2220 C   0  0  0  0  0  0  0  0  0  0  0  0
  187.4720  178.2540  138.8960 C   0  0  0  0  0  0  0  0  0  0  0  0
  187.4300  177.6480  142.5670 C   0  0  0  0  0  0  0  0  0  0  0  0
  185.9070  179.0260  140.6650 C   0  0  0  0  0  0  0  0  0  0  0  0
  188.6080  177.5230  138.5360 C   0  0  0  0  0  3  0  0  0  0  0  0
  186.3070  178.3410  142.9370 C   0  0  0  0  0  0  0  0  0  0  0  0
  187.0590  178.3040  140.2480 C   0  0  0  0  0  0  0  0  0  0  0  0
  186.0940  178.1920  144.3550 C   0  0  0  0  0  0  0  0  0  0  0  0
  185.1030  178.7390  144.9980 N   0  0  0  0  0  0  0  0  0  0  0  0
  188.9580  176.8730  140.8360 C   0  0  0  0  0  3  0  0  0  0  0  0
  185.5290  179.0370  142.0150 C   0  0  0  0  0  3  0  0  0  0  0  0
  185.6280  179.3230  147.3030 O   0  0  0  0  0  1  0  0  0  0  0  0
  184.8370  178.6240  146.4030 C   0  0  0  0  0  0  0  0  0  0  0  0
  183.9000  177.9020  146.8370 O   0  0  0  0  0  0  0  0  0  0  0  0
  190.2230  177.0380  144.8690 N   0  0  0  0  0  0  0  0  0  0  0  0
  189.4380  177.5560  143.9820 C   0  0  0  0  0  3  0  0  0  0  0  0
  192.0540  178.4050  144.3500 O   0  0  0  0  0  0  0  0  0  0  0  0
  191.5300  177.5590  145.1250 C   0  0  0  0  0  0  0  0  0  0  0  0
  192.2310  177.1280  146.2430 O   0  0  0  0  0  1  0  0  0  0  0  0
  1 10  1  0  0  0  0
  2 22  1  1  0  0  0
  2  3  1  0  0  0  0
  4 16  1  0  0  0  0
  5  4  1  0  0  0  0
  6  8  1  0  0  0  0
  7  9  1  0  0  0  0
  8 13  2  0  0  0  0
  9 12  2  0  0  0  0
  9  2  1  0  0  0  0
 10 17  2  0  0  0  0
 11  8  1  0  0  0  0
 11  4  2  0  0  0  0
 12 14  1  0  0  0  0
 13 10  1  0  0  0  0
 13  7  1  0  0  0  0
 14  3  1  0  0  0  0
 14 15  2  0  0  0  0
 15 19  1  0  0  0  0
 16  7  2  0  0  0  0
 17 12  1  0  0  0  0
 19 20  2  0  0  0  0
 19 18  1  0  0  0  0
 21 24  1  0  0  0  0
 22 21  2  0  0  0  0
 23 24  2  0  0  0  0
 24 25  1  0  0  0  0
M  END
>  <MODEL>
9

>  <REMARK>
 VINA RESULT:      -7.8      2.035      5.617
  Name = 
  3 active torsions:
  status: ('A' for Active; 'I' for Inactive)
    1  A    between atoms: N_2  and  C_12
    2  A    between atoms: C_4  and  C_7
    3  A    between atoms: C_18  and  N_22
                            x       y       z     vdW  Elec       q    Type
                         _______ _______ _______ _____ _____    ______ ____

>  <TORSDO>
F 3

$$$$
