=
 OpenBabel11062413003D

 38 41  0  0  1  0  0  0  0  0999 V2000
  191.0800  177.2600  144.9040 C   0  0  2  0  0  3  0  0  0  0  0  0
  191.3660  177.4200  142.8150 C   0  0  1  0  0  3  0  0  0  0  0  0
  190.9060  178.7800  143.9300 S   0  0  0  0  0  0  0  0  0  0  0  0
  191.4220  176.3610  143.8130 N   0  0  0  0  0  2  0  0  0  0  0  0
  190.2400  177.1310  141.8180 C   0  0  1  0  0  3  0  0  0  0  0  0
  189.6000  177.2890  139.6730 N   0  0  0  0  0  0  0  0  0  0  0  0
  189.3670  178.2320  141.6790 O   0  0  0  0  0  0  0  0  0  0  0  0
  190.2660  176.4020  137.6240 O   0  0  0  0  0  0  0  0  0  0  0  0
  188.7720  178.1070  140.4500 N   0  0  0  0  0  2  0  0  0  0  0  0
  189.3580  176.9780  138.2850 C   0  0  0  0  0  0  0  0  0  0  0  0
  190.6880  176.7450  140.4280 C   0  0  1  0  0  3  0  0  0  0  0  0
  191.9830  177.4400  140.0060 C   0  0  0  0  0  1  0  0  0  0  0  0
  188.0850  177.3120  137.5940 C   0  0  0  0  0  0  0  0  0  0  0  0
  187.5380  179.6780  136.8290 O   0  0  0  0  0  0  0  0  0  0  0  0
  187.8080  178.5290  137.2000 C   0  0  0  0  0  0  0  0  0  0  0  0
  187.0690  176.2340  137.3290 C   0  0  0  0  0  2  0  0  0  0  0  0
  185.9300  174.9070  135.5400 C   0  0  0  0  0  1  0  0  0  0  0  0
  187.2670  175.4620  136.0030 C   0  0  0  0  0  0  0  0  0  0  0  0
  187.7830  176.3730  134.8870 C   0  0  0  0  0  1  0  0  0  0  0  0
  188.1280  174.3540  136.1960 O   0  0  0  0  0  0  0  0  0  0  0  0
  187.4300  173.1530  135.9700 C   0  0  0  0  0  2  0  0  0  0  0  0
  187.8200  172.1350  137.0210 C   0  0  0  0  0  1  0  0  0  0  0  0
  189.7870  176.8930  145.4690 N   0  0  0  0  0  2  0  0  0  0  0  0
  188.9040  177.9540  145.2160 N   0  0  0  0  0  2  0  0  0  0  0  0
  187.5730  177.5040  145.5930 C   0  0  0  0  0  2  0  0  0  0  0  0
  186.5520  178.6240  145.3740 C   0  0  1  0  0  3  0  0  0  0  0  0
  186.1930  177.6470  142.7500 S   0  0  0  0  0  0  0  0  0  0  0  0
  184.8880  179.5360  143.6780 C   0  0  0  0  0  2  0  0  0  0  0  0
  185.3520  179.1900  142.2750 C   0  0  2  0  0  3  0  0  0  0  0  0
  185.4930  178.2970  144.3020 C   0  0  2  0  0  3  0  0  0  0  0  0
  184.1590  178.8650  141.3920 C   0  0  0  0  0  2  0  0  0  0  0  0
  184.4680  179.1830  139.9410 C   0  0  0  0  0  2  0  0  0  0  0  0
  183.3200  178.7150  139.0700 C   0  0  0  0  0  3  0  0  0  0  0  0
  183.2480  177.2070  139.1150 C   0  0  0  0  0  2  0  0  0  0  0  0
  183.8760  177.8960  137.9240 C   0  0  0  0  0  2  0  0  0  0  0  0
  186.7400  178.5960  147.8770 C   0  0  0  0  0  1  0  0  0  0  0  0
  185.8780  179.0070  146.6960 C   0  0  2  0  0  3  0  0  0  0  0  0
  184.5840  178.3560  146.8180 N   0  0  0  0  0  1  0  0  0  0  0  0
  1 23  1  6  0  0  0
  2  4  1  1  0  0  0
  2  3  1  0  0  0  0
  3  1  1  0  0  0  0
  4  1  1  0  0  0  0
  5  7  1  6  0  0  0
  5  2  1  0  0  0  0
  6 11  1  0  0  0  0
  6  9  1  0  0  0  0
  8 10  2  0  0  0  0
  9  7  1  0  0  0  0
 10  6  1  0  0  0  0
 11 12  1  6  0  0  0
 11  5  1  0  0  0  0
 13 10  1  0  0  0  0
 14 15  2  0  0  0  0
 15 13  2  0  0  0  0
 16 13  1  0  0  0  0
 17 18  1  0  0  0  0
 18 20  1  0  0  0  0
 18 16  1  0  0  0  0
 19 18  1  0  0  0  0
 21 20  1  0  0  0  0
 21 22  1  0  0  0  0
 24 23  1  0  0  0  0
 24 25  1  0  0  0  0
 26 25  1  1  0  0  0
 26 37  1  0  0  0  0
 27 30  1  0  0  0  0
 28 30  1  0  0  0  0
 29 31  1  6  0  0  0
 29 27  1  0  0  0  0
 29 28  1  0  0  0  0
 30 26  1  1  0  0  0
 32 31  1  0  0  0  0
 33 34  1  0  0  0  0
 33 32  1  0  0  0  0
 35 33  1  0  0  0  0
 35 34  1  0  0  0  0
 37 38  1  0  0  0  0
 37 36  1  1  0  0  0
M  END
>  <MODEL>
1

>  <REMARK>
 VINA RESULT:      -6.6      0.000      0.000
  Name = 
  15 active torsions:
  status: ('A' for Active; 'I' for Inactive)
    1  A    between atoms: O_1  and  C_12
    2  A    between atoms: O_1  and  C_17
    3  A    between atoms: C_2  and  C_11
    4  A    between atoms: N_3  and  C_23
    5  A    between atoms: N_3  and  N_36
    6  A    between atoms: C_4  and  C_18
    7  A    between atoms: C_7  and  C_24
    8  A    between atoms: C_7  and  C_31
    9  A    between atoms: C_11  and  C_35
   10  A    between atoms: C_12  and  C_31
   11  A    between atoms: C_14  and  C_23
   12  A    between atoms: C_14  and  C_25
   13  A    between atoms: C_14  and  C_28
   14  A    between atoms: C_16  and  N_36
   15  A    between atoms: C_27  and  C_35
                            x       y       z     vdW  Elec       q    Type
                         _______ _______ _______ _____ _____    ______ ____

>  <TORSDO>
F 15

$$$$
=
 OpenBabel11062413003D

 38 41  0  0  1  0  0  0  0  0999 V2000
  190.0700  177.3680  138.1120 C   0  0  2  0  0  3  0  0  0  0  0  0
  188.1520  177.2160  137.2370 C   0  0  1  0  0  3  0  0  0  0  0  0
  189.1420  178.7350  137.3610 S   0  0  0  0  0  0  0  0  0  0  0  0
  189.0850  176.3180  137.9010 N   0  0  0  0  0  2  0  0  0  0  0  0
  186.8690  177.3350  138.0660 C   0  0  1  0  0  3  0  0  0  0  0  0
  184.7180  177.9710  138.0420 N   0  0  0  0  0  0  0  0  0  0  0  0
  186.7590  178.5990  138.6830 O   0  0  0  0  0  0  0  0  0  0  0  0
  182.7560  177.3140  136.9710 O   0  0  0  0  0  0  0  0  0  0  0  0
  185.4230  178.8050  138.9180 N   0  0  0  0  0  2  0  0  0  0  0  0
  183.2800  177.9500  137.9280 C   0  0  0  0  0  0  0  0  0  0  0  0
  185.5840  177.0970  137.3090 C   0  0  1  0  0  3  0  0  0  0  0  0
  185.6520  177.5680  135.8560 C   0  0  0  0  0  1  0  0  0  0  0  0
  182.3840  178.6490  138.8860 C   0  0  0  0  0  0  0  0  0  0  0  0
  180.5830  177.4200  140.2000 O   0  0  0  0  0  0  0  0  0  0  0  0
  181.4610  178.0140  139.5620 C   0  0  0  0  0  0  0  0  0  0  0  0
  182.5260  180.1310  139.1020 C   0  0  0  0  0  2  0  0  0  0  0  0
  180.9990  180.3940  137.1380 C   0  0  0  0  0  1  0  0  0  0  0  0
  181.4070  180.9940  138.4730 C   0  0  0  0  0  0  0  0  0  0  0  0
  180.1540  181.0250  139.3510 C   0  0  0  0  0  1  0  0  0  0  0  0
  181.8770  182.3030  138.2090 O   0  0  0  0  0  0  0  0  0  0  0  0
  180.8930  183.0450  137.5290 C   0  0  0  0  0  2  0  0  0  0  0  0
  181.4710  184.3760  137.0980 C   0  0  0  0  0  1  0  0  0  0  0  0
  190.2370  177.6200  139.5380 N   0  0  0  0  0  2  0  0  0  0  0  0
  190.7660  176.4520  140.1100 N   0  0  0  0  0  2  0  0  0  0  0  0
  190.1480  176.2980  141.4190 C   0  0  0  0  0  2  0  0  0  0  0  0
  190.3820  177.5530  142.2670 C   0  0  1  0  0  3  0  0  0  0  0  0
  188.0730  176.5940  143.5780 S   0  0  0  0  0  0  0  0  0  0  0  0
  188.1070  178.6920  142.2620 C   0  0  0  0  0  2  0  0  0  0  0  0
  187.0250  177.6660  142.5450 C   0  0  2  0  0  3  0  0  0  0  0  0
  189.1530  177.9810  143.0930 C   0  0  2  0  0  3  0  0  0  0  0  0
  185.9290  178.2800  143.4020 C   0  0  0  0  0  2  0  0  0  0  0  0
  184.5910  178.2010  142.6930 C   0  0  0  0  0  2  0  0  0  0  0  0
  183.6890  179.3070  143.2010 C   0  0  0  0  0  3  0  0  0  0  0  0
  182.9360  178.8130  144.4140 C   0  0  0  0  0  2  0  0  0  0  0  0
  182.2470  178.8620  143.0680 C   0  0  0  0  0  2  0  0  0  0  0  0
  191.7180  175.9300  143.6390 C   0  0  0  0  0  1  0  0  0  0  0  0
  191.6030  177.3710  143.1750 C   0  0  2  0  0  3  0  0  0  0  0  0
  191.5020  178.2270  144.3440 N   0  0  0  0  0  1  0  0  0  0  0  0
  1 23  1  1  0  0  0
  2  3  1  1  0  0  0
  2  4  1  0  0  0  0
  2  5  1  0  0  0  0
  3  1  1  0  0  0  0
  4  1  1  0  0  0  0
  5  7  1  6  0  0  0
  6  9  1  0  0  0  0
  7  9  1  0  0  0  0
  8 10  2  0  0  0  0
 10  6  1  0  0  0  0
 10 13  1  0  0  0  0
 11 12  1  6  0  0  0
 11  6  1  0  0  0  0
 11  5  1  0  0  0  0
 13 16  1  0  0  0  0
 13 15  2  0  0  0  0
 15 14  2  0  0  0  0
 17 18  1  0  0  0  0
 18 16  1  0  0  0  0
 18 19  1  0  0  0  0
 20 18  1  0  0  0  0
 21 20  1  0  0  0  0
 22 21  1  0  0  0  0
 23 24  1  0  0  0  0
 24 25  1  0  0  0  0
 26 25  1  1  0  0  0
 26 37  1  0  0  0  0
 28 29  1  0  0  0  0
 28 30  1  0  0  0  0
 29 31  1  1  0  0  0
 29 27  1  0  0  0  0
 30 26  1  6  0  0  0
 30 27  1  0  0  0  0
 32 33  1  0  0  0  0
 32 31  1  0  0  0  0
 33 34  1  0  0  0  0
 35 33  1  0  0  0  0
 35 34  1  0  0  0  0
 37 36  1  1  0  0  0
 37 38  1  0  0  0  0
M  END
>  <MODEL>
2

>  <REMARK>
 VINA RESULT:      -6.6      3.201      6.695
  Name = 
  15 active torsions:
  status: ('A' for Active; 'I' for Inactive)
    1  A    between atoms: O_1  and  C_12
    2  A    between atoms: O_1  and  C_17
    3  A    between atoms: C_2  and  C_11
    4  A    between atoms: N_3  and  C_23
    5  A    between atoms: N_3  and  N_36
    6  A    between atoms: C_4  and  C_18
    7  A    between atoms: C_7  and  C_24
    8  A    between atoms: C_7  and  C_31
    9  A    between atoms: C_11  and  C_35
   10  A    between atoms: C_12  and  C_31
   11  A    between atoms: C_14  and  C_23
   12  A    between atoms: C_14  and  C_25
   13  A    between atoms: C_14  and  C_28
   14  A    between atoms: C_16  and  N_36
   15  A    between atoms: C_27  and  C_35
                            x       y       z     vdW  Elec       q    Type
                         _______ _______ _______ _____ _____    ______ ____

>  <TORSDO>
F 15

$$$$
=
 OpenBabel11062413003D

 38 41  0  0  1  0  0  0  0  0999 V2000
  185.4570  179.3110  141.9750 C   0  0  2  0  0  3  0  0  0  0  0  0
  183.9480  178.9490  140.5380 C   0  0  1  0  0  3  0  0  0  0  0  0
  183.8170  178.6160  142.3200 S   0  0  0  0  0  0  0  0  0  0  0  0
  185.3100  179.4640  140.5360 N   0  0  0  0  0  2  0  0  0  0  0  0
  183.8870  177.6460  139.7370 C   0  0  1  0  0  3  0  0  0  0  0  0
  182.8020  176.5330  138.1180 N   0  0  0  0  0  0  0  0  0  0  0  0
  183.0170  176.7050  140.3300 O   0  0  0  0  0  0  0  0  0  0  0  0
  182.4480  176.7700  135.8270 O   0  0  0  0  0  0  0  0  0  0  0  0
  182.6160  175.8570  139.3290 N   0  0  0  0  0  2  0  0  0  0  0  0
  182.4250  176.0040  136.8300 C   0  0  0  0  0  0  0  0  0  0  0  0
  183.4630  177.7910  138.2940 C   0  0  1  0  0  3  0  0  0  0  0  0
  182.4520  178.9190  138.0810 C   0  0  0  0  0  1  0  0  0  0  0  0
  182.0050  174.5920  136.6310 C   0  0  0  0  0  0  0  0  0  0  0  0
  179.9240  173.6280  137.7360 O   0  0  0  0  0  0  0  0  0  0  0  0
  180.9330  174.1000  137.1980 C   0  0  0  0  0  0  0  0  0  0  0  0
  182.8210  173.6820  135.7530 C   0  0  0  0  0  2  0  0  0  0  0  0
  183.0820  171.5770  137.0780 C   0  0  0  0  0  1  0  0  0  0  0  0
  183.8220  172.7740  136.5040 C   0  0  0  0  0  0  0  0  0  0  0  0
  184.9030  172.2260  135.5700 C   0  0  0  0  0  1  0  0  0  0  0  0
  184.3960  173.4660  137.5990 O   0  0  0  0  0  0  0  0  0  0  0  0
  185.7650  173.6940  137.3640 C   0  0  0  0  0  2  0  0  0  0  0  0
  185.9940  175.1680  137.1020 C   0  0  0  0  0  1  0  0  0  0  0  0
  186.4790  178.3150  142.2710 N   0  0  0  0  0  2  0  0  0  0  0  0
  187.6150  178.6420  141.5140 N   0  0  0  0  0  2  0  0  0  0  0  0
  188.3870  177.4200  141.3480 C   0  0  0  0  0  2  0  0  0  0  0  0
  189.8670  177.7530  141.1320 C   0  0  1  0  0  3  0  0  0  0  0  0
  190.1610  175.8810  143.2240 S   0  0  0  0  0  0  0  0  0  0  0  0
  190.7070  178.2840  143.4740 C   0  0  0  0  0  2  0  0  0  0  0  0
  190.2040  177.2320  144.4440 C   0  0  2  0  0  3  0  0  0  0  0  0
  190.7760  177.3290  142.3020 C   0  0  2  0  0  3  0  0  0  0  0  0
  191.2630  176.9330  145.4930 C   0  0  0  0  0  2  0  0  0  0  0  0
  190.6440  176.8860  146.8770 C   0  0  0  0  0  2  0  0  0  0  0  0
  189.3010  177.5870  146.8500 C   0  0  0  0  0  3  0  0  0  0  0  0
  189.0430  178.2120  148.2010 C   0  0  0  0  0  2  0  0  0  0  0  0
  188.3740  176.9060  147.8360 C   0  0  0  0  0  2  0  0  0  0  0  0
  191.8850  177.1860  139.7510 C   0  0  0  0  0  1  0  0  0  0  0  0
  190.3690  177.1490  139.8160 C   0  0  2  0  0  3  0  0  0  0  0  0
  189.8380  177.8850  138.6810 N   0  0  0  0  0  1  0  0  0  0  0  0
  1 23  1  6  0  0  0
  1  3  1  0  0  0  0
  2  4  1  1  0  0  0
  2  3  1  0  0  0  0
  4  1  1  0  0  0  0
  5  7  1  1  0  0  0
  5  2  1  0  0  0  0
  6 11  1  0  0  0  0
  6  9  1  0  0  0  0
  8 10  2  0  0  0  0
  9  7  1  0  0  0  0
 10  6  1  0  0  0  0
 11 12  1  1  0  0  0
 11  5  1  0  0  0  0
 13 10  1  0  0  0  0
 13 15  2  0  0  0  0
 15 14  2  0  0  0  0
 16 18  1  0  0  0  0
 16 13  1  0  0  0  0
 18 17  1  0  0  0  0
 18 20  1  0  0  0  0
 19 18  1  0  0  0  0
 21 20  1  0  0  0  0
 22 21  1  0  0  0  0
 24 23  1  0  0  0  0
 25 24  1  0  0  0  0
 26 25  1  1  0  0  0
 27 29  1  0  0  0  0
 28 29  1  0  0  0  0
 29 31  1  1  0  0  0
 30 26  1  6  0  0  0
 30 27  1  0  0  0  0
 30 28  1  0  0  0  0
 31 32  1  0  0  0  0
 33 32  1  0  0  0  0
 33 35  1  0  0  0  0
 33 34  1  0  0  0  0
 35 34  1  0  0  0  0
 37 36  1  1  0  0  0
 37 26  1  0  0  0  0
 38 37  1  0  0  0  0
M  END
>  <MODEL>
3

>  <REMARK>
 VINA RESULT:      -6.5      3.343      7.199
  Name = 
  15 active torsions:
  status: ('A' for Active; 'I' for Inactive)
    1  A    between atoms: O_1  and  C_12
    2  A    between atoms: O_1  and  C_17
    3  A    between atoms: C_2  and  C_11
    4  A    between atoms: N_3  and  C_23
    5  A    between atoms: N_3  and  N_36
    6  A    between atoms: C_4  and  C_18
    7  A    between atoms: C_7  and  C_24
    8  A    between atoms: C_7  and  C_31
    9  A    between atoms: C_11  and  C_35
   10  A    between atoms: C_12  and  C_31
   11  A    between atoms: C_14  and  C_23
   12  A    between atoms: C_14  and  C_25
   13  A    between atoms: C_14  and  C_28
   14  A    between atoms: C_16  and  N_36
   15  A    between atoms: C_27  and  C_35
                            x       y       z     vdW  Elec       q    Type
                         _______ _______ _______ _____ _____    ______ ____

>  <TORSDO>
F 15

$$$$
=
 OpenBabel11062413003D

 38 41  0  0  1  0  0  0  0  0999 V2000
  183.0880  177.9410  139.6730 C   0  0  2  0  0  3  0  0  0  0  0  0
  184.1670  178.8610  141.2420 C   0  0  1  0  0  3  0  0  0  0  0  0
  184.6620  178.8270  139.4930 S   0  0  0  0  0  0  0  0  0  0  0  0
  182.9340  178.0990  141.1110 N   0  0  0  0  0  2  0  0  0  0  0  0
  185.1660  178.0840  142.1040 C   0  0  1  0  0  3  0  0  0  0  0  0
  186.3820  178.1180  143.9890 N   0  0  0  0  0  0  0  0  0  0  0  0
  186.5010  178.4100  141.7830 O   0  0  0  0  0  0  0  0  0  0  0  0
  185.9740  178.1440  146.2830 O   0  0  0  0  0  0  0  0  0  0  0  0
  187.2530  178.1220  142.8940 N   0  0  0  0  0  2  0  0  0  0  0  0
  186.8040  177.9290  145.3560 C   0  0  0  0  0  0  0  0  0  0  0  0
  185.0130  178.2650  143.5960 C   0  0  1  0  0  3  0  0  0  0  0  0
  184.5330  179.6660  143.9790 C   0  0  0  0  0  1  0  0  0  0  0  0
  188.1770  177.4960  145.7240 C   0  0  0  0  0  0  0  0  0  0  0  0
  189.1530  177.9070  148.0390 O   0  0  0  0  0  0  0  0  0  0  0  0
  188.6750  177.7070  146.9160 C   0  0  0  0  0  0  0  0  0  0  0  0
  189.0390  176.7920  144.7120 C   0  0  0  0  0  2  0  0  0  0  0  0
  191.2220  176.5610  143.5120 C   0  0  0  0  0  1  0  0  0  0  0  0
  190.4580  177.3810  144.5380 C   0  0  0  0  0  0  0  0  0  0  0  0
  190.4160  178.8200  144.0180 C   0  0  0  0  0  1  0  0  0  0  0  0
  191.1830  177.2980  145.7520 O   0  0  0  0  0  0  0  0  0  0  0  0
  191.8260  176.0500  145.8500 C   0  0  0  0  0  2  0  0  0  0  0  0
  192.1320  175.7500  147.3020 C   0  0  0  0  0  1  0  0  0  0  0  0
  183.2810  176.5350  139.3410 N   0  0  0  0  0  2  0  0  0  0  0  0
  183.0010  176.3860  137.9740 N   0  0  0  0  0  2  0  0  0  0  0  0
  183.9490  175.4170  137.4450 C   0  0  0  0  0  2  0  0  0  0  0  0
  184.2930  175.7500  135.9900 C   0  0  1  0  0  3  0  0  0  0  0  0
  186.8810  175.2100  136.9770 S   0  0  0  0  0  0  0  0  0  0  0  0
  186.2090  177.4220  136.0880 C   0  0  0  0  0  2  0  0  0  0  0  0
  187.2010  176.9940  137.1530 C   0  0  2  0  0  3  0  0  0  0  0  0
  185.7930  176.0060  135.7500 C   0  0  2  0  0  3  0  0  0  0  0  0
  188.6200  177.3000  136.7030 C   0  0  0  0  0  2  0  0  0  0  0  0
  189.4210  177.9050  137.8400 C   0  0  0  0  0  2  0  0  0  0  0  0
  189.5880  176.8750  138.9390 C   0  0  0  0  0  3  0  0  0  0  0  0
  189.7110  177.5850  140.2670 C   0  0  0  0  0  2  0  0  0  0  0  0
  190.9490  177.0580  139.5780 C   0  0  0  0  0  2  0  0  0  0  0  0
  182.2950  174.8390  134.7730 C   0  0  0  0  0  1  0  0  0  0  0  0
  183.7770  174.6560  135.0490 C   0  0  2  0  0  3  0  0  0  0  0  0
  183.9800  173.3410  135.6340 N   0  0  0  0  0  1  0  0  0  0  0  0
  1 23  1  1  0  0  0
  1  4  1  0  0  0  0
  2  3  1  6  0  0  0
  2  5  1  0  0  0  0
  3  1  1  0  0  0  0
  4  2  1  0  0  0  0
  5  7  1  6  0  0  0
  5 11  1  0  0  0  0
  6 10  1  0  0  0  0
  7  9  1  0  0  0  0
  9  6  1  0  0  0  0
 10 13  1  0  0  0  0
 10  8  2  0  0  0  0
 11 12  1  6  0  0  0
 11  6  1  0  0  0  0
 13 15  2  0  0  0  0
 15 14  2  0  0  0  0
 16 13  1  0  0  0  0
 17 18  1  0  0  0  0
 18 16  1  0  0  0  0
 18 20  1  0  0  0  0
 19 18  1  0  0  0  0
 20 21  1  0  0  0  0
 21 22  1  0  0  0  0
 24 23  1  0  0  0  0
 25 24  1  0  0  0  0
 26 25  1  1  0  0  0
 27 29  1  0  0  0  0
 28 29  1  0  0  0  0
 29 31  1  6  0  0  0
 30 26  1  1  0  0  0
 30 28  1  0  0  0  0
 30 27  1  0  0  0  0
 31 32  1  0  0  0  0
 32 33  1  0  0  0  0
 33 35  1  0  0  0  0
 33 34  1  0  0  0  0
 35 34  1  0  0  0  0
 37 36  1  1  0  0  0
 37 38  1  0  0  0  0
 37 26  1  0  0  0  0
M  END
>  <MODEL>
4

>  <REMARK>
 VINA RESULT:      -6.5      3.302      8.795
  Name = 
  15 active torsions:
  status: ('A' for Active; 'I' for Inactive)
    1  A    between atoms: O_1  and  C_12
    2  A    between atoms: O_1  and  C_17
    3  A    between atoms: C_2  and  C_11
    4  A    between atoms: N_3  and  C_23
    5  A    between atoms: N_3  and  N_36
    6  A    between atoms: C_4  and  C_18
    7  A    between atoms: C_7  and  C_24
    8  A    between atoms: C_7  and  C_31
    9  A    between atoms: C_11  and  C_35
   10  A    between atoms: C_12  and  C_31
   11  A    between atoms: C_14  and  C_23
   12  A    between atoms: C_14  and  C_25
   13  A    between atoms: C_14  and  C_28
   14  A    between atoms: C_16  and  N_36
   15  A    between atoms: C_27  and  C_35
                            x       y       z     vdW  Elec       q    Type
                         _______ _______ _______ _____ _____    ______ ____

>  <TORSDO>
F 15

$$$$
=
 OpenBabel11062413003D

 38 41  0  0  1  0  0  0  0  0999 V2000
  190.1890  177.3790  138.8030 C   0  0  2  0  0  3  0  0  0  0  0  0
  188.3400  177.2050  137.7920 C   0  0  1  0  0  3  0  0  0  0  0  0
  189.3630  178.7050  137.8790 S   0  0  0  0  0  0  0  0  0  0  0  0
  189.1920  176.3400  138.5950 N   0  0  0  0  0  2  0  0  0  0  0  0
  187.0020  177.4190  138.5050 C   0  0  1  0  0  3  0  0  0  0  0  0
  184.9060  178.1880  138.2870 N   0  0  0  0  0  0  0  0  0  0  0  0
  186.9200  178.7000  139.0930 O   0  0  0  0  0  0  0  0  0  0  0  0
  183.0040  177.6350  137.0590 O   0  0  0  0  0  0  0  0  0  0  0  0
  185.5840  178.9920  139.2100 N   0  0  0  0  0  2  0  0  0  0  0  0
  183.4840  178.2550  138.0490 C   0  0  0  0  0  0  0  0  0  0  0  0
  185.7730  177.2480  137.6430 C   0  0  1  0  0  3  0  0  0  0  0  0
  185.9960  177.6870  136.1960 C   0  0  0  0  0  1  0  0  0  0  0  0
  182.5560  179.0260  138.9170 C   0  0  0  0  0  0  0  0  0  0  0  0
  181.9510  181.4510  138.4340 O   0  0  0  0  0  0  0  0  0  0  0  0
  182.2450  180.2720  138.6640 C   0  0  0  0  0  0  0  0  0  0  0  0
  181.9430  178.3750  140.1260 C   0  0  0  0  0  2  0  0  0  0  0  0
  179.6190  179.0870  140.7170 C   0  0  0  0  0  1  0  0  0  0  0  0
  180.4410  178.0320  139.9940 C   0  0  0  0  0  0  0  0  0  0  0  0
  179.9850  178.0320  138.5340 C   0  0  0  0  0  1  0  0  0  0  0  0
  180.1570  176.7920  140.6180 O   0  0  0  0  0  0  0  0  0  0  0  0
  180.3890  175.7330  139.7200 C   0  0  0  0  0  2  0  0  0  0  0  0
  179.8430  174.4470  140.3020 C   0  0  0  0  0  1  0  0  0  0  0  0
  190.2530  177.7370  140.2140 N   0  0  0  0  0  2  0  0  0  0  0  0
  189.5060  176.7830  140.9220 N   0  0  0  0  0  2  0  0  0  0  0  0
  190.3340  176.3260  142.0280 C   0  0  0  0  0  2  0  0  0  0  0  0
  190.2480  177.3110  143.1980 C   0  0  1  0  0  3  0  0  0  0  0  0
  187.5500  176.5640  143.5590 S   0  0  0  0  0  0  0  0  0  0  0  0
  188.7390  178.1100  145.0850 C   0  0  0  0  0  2  0  0  0  0  0  0
  187.2880  177.9900  144.6590 C   0  0  2  0  0  3  0  0  0  0  0  0
  189.1940  176.9280  144.2560 C   0  0  2  0  0  3  0  0  0  0  0  0
  186.4260  177.5680  145.8380 C   0  0  0  0  0  2  0  0  0  0  0  0
  185.1210  178.3400  145.8470 C   0  0  0  0  0  2  0  0  0  0  0  0
  184.6000  178.4620  144.4300 C   0  0  0  0  0  3  0  0  0  0  0  0
  184.2060  179.8970  144.1700 C   0  0  0  0  0  2  0  0  0  0  0  0
  183.1420  178.8670  144.4770 C   0  0  0  0  0  2  0  0  0  0  0  0
  191.6900  176.7600  145.1780 C   0  0  0  0  0  1  0  0  0  0  0  0
  191.6220  177.4950  143.8510 C   0  0  2  0  0  3  0  0  0  0  0  0
  191.8920  178.9030  144.0870 N   0  0  0  0  0  1  0  0  0  0  0  0
  1 23  1  1  0  0  0
  2  3  1  1  0  0  0
  2  5  1  0  0  0  0
  2  4  1  0  0  0  0
  3  1  1  0  0  0  0
  4  1  1  0  0  0  0
  5  7  1  6  0  0  0
  6  9  1  0  0  0  0
  7  9  1  0  0  0  0
  8 10  2  0  0  0  0
 10  6  1  0  0  0  0
 10 13  1  0  0  0  0
 11 12  1  6  0  0  0
 11  6  1  0  0  0  0
 11  5  1  0  0  0  0
 13 16  1  0  0  0  0
 14 15  2  0  0  0  0
 15 13  2  0  0  0  0
 18 16  1  0  0  0  0
 18 20  1  0  0  0  0
 18 17  1  0  0  0  0
 19 18  1  0  0  0  0
 21 22  1  0  0  0  0
 21 20  1  0  0  0  0
 23 24  1  0  0  0  0
 24 25  1  0  0  0  0
 26 25  1  6  0  0  0
 26 37  1  0  0  0  0
 27 30  1  0  0  0  0
 27 29  1  0  0  0  0
 29 28  1  0  0  0  0
 29 31  1  1  0  0  0
 30 26  1  6  0  0  0
 30 28  1  0  0  0  0
 31 32  1  0  0  0  0
 33 35  1  0  0  0  0
 33 32  1  0  0  0  0
 34 33  1  0  0  0  0
 34 35  1  0  0  0  0
 37 38  1  0  0  0  0
 37 36  1  1  0  0  0
M  END
>  <MODEL>
5

>  <REMARK>
 VINA RESULT:      -6.3      2.970      6.188
  Name = 
  15 active torsions:
  status: ('A' for Active; 'I' for Inactive)
    1  A    between atoms: O_1  and  C_12
    2  A    between atoms: O_1  and  C_17
    3  A    between atoms: C_2  and  C_11
    4  A    between atoms: N_3  and  C_23
    5  A    between atoms: N_3  and  N_36
    6  A    between atoms: C_4  and  C_18
    7  A    between atoms: C_7  and  C_24
    8  A    between atoms: C_7  and  C_31
    9  A    between atoms: C_11  and  C_35
   10  A    between atoms: C_12  and  C_31
   11  A    between atoms: C_14  and  C_23
   12  A    between atoms: C_14  and  C_25
   13  A    between atoms: C_14  and  C_28
   14  A    between atoms: C_16  and  N_36
   15  A    between atoms: C_27  and  C_35
                            x       y       z     vdW  Elec       q    Type
                         _______ _______ _______ _____ _____    ______ ____

>  <TORSDO>
F 15

$$$$
=
 OpenBabel11062413003D

 38 41  0  0  1  0  0  0  0  0999 V2000
  190.8650  174.2460  136.6300 C   0  0  2  0  0  3  0  0  0  0  0  0
  188.7980  174.0200  136.2440 C   0  0  1  0  0  3  0  0  0  0  0  0
  189.9950  174.8520  135.1570 S   0  0  0  0  0  0  0  0  0  0  0  0
  189.7200  173.6600  137.3110 N   0  0  0  0  0  2  0  0  0  0  0  0
  187.7600  175.0160  136.7700 C   0  0  1  0  0  3  0  0  0  0  0  0
  185.5710  175.4850  136.9120 N   0  0  0  0  0  0  0  0  0  0  0  0
  187.4380  175.9970  135.8080 O   0  0  0  0  0  0  0  0  0  0  0  0
  183.6860  174.5480  137.9110 O   0  0  0  0  0  0  0  0  0  0  0  0
  186.1900  176.4670  136.1300 N   0  0  0  0  0  2  0  0  0  0  0  0
  184.2120  175.5700  137.3890 C   0  0  0  0  0  0  0  0  0  0  0  0
  186.4580  174.4090  137.2360 C   0  0  1  0  0  3  0  0  0  0  0  0
  186.0550  173.1730  136.4300 C   0  0  0  0  0  1  0  0  0  0  0  0
  183.3980  176.8100  137.2890 C   0  0  0  0  0  0  0  0  0  0  0  0
  181.2930  176.9380  135.8630 O   0  0  0  0  0  0  0  0  0  0  0  0
  182.3150  176.8720  136.5570 C   0  0  0  0  0  0  0  0  0  0  0  0
  183.8130  178.0440  138.0440 C   0  0  0  0  0  2  0  0  0  0  0  0
  181.9040  179.2970  139.0650 C   0  0  0  0  0  1  0  0  0  0  0  0
  183.0230  178.3090  139.3470 C   0  0  0  0  0  0  0  0  0  0  0  0
  182.3710  177.0340  139.8850 C   0  0  0  0  0  1  0  0  0  0  0  0
  183.8610  178.9050  140.3230 O   0  0  0  0  0  0  0  0  0  0  0  0
  183.8520  178.1380  141.5030 C   0  0  0  0  0  2  0  0  0  0  0  0
  185.1380  178.3700  142.2670 C   0  0  0  0  0  1  0  0  0  0  0  0
  191.3750  175.3790  137.3930 N   0  0  0  0  0  2  0  0  0  0  0  0
  190.8410  175.2870  138.6870 N   0  0  0  0  0  2  0  0  0  0  0  0
  190.7930  176.6370  139.2280 C   0  0  0  0  0  2  0  0  0  0  0  0
  189.4220  176.9090  139.8560 C   0  0  1  0  0  3  0  0  0  0  0  0
  191.0590  177.5300  142.0700 S   0  0  0  0  0  0  0  0  0  0  0  0
  188.6190  177.1450  142.2590 C   0  0  0  0  0  2  0  0  0  0  0  0
  189.7810  176.9070  143.2070 C   0  0  2  0  0  3  0  0  0  0  0  0
  189.4890  177.7220  141.1630 C   0  0  2  0  0  3  0  0  0  0  0  0
  189.6770  177.8330  144.4080 C   0  0  0  0  0  2  0  0  0  0  0  0
  189.5050  177.0330  145.6850 C   0  0  0  0  0  2  0  0  0  0  0  0
  188.5130  177.7370  146.5880 C   0  0  0  0  0  3  0  0  0  0  0  0
  189.2030  178.1190  147.8770 C   0  0  0  0  0  2  0  0  0  0  0  0
  188.3070  176.9010  147.8340 C   0  0  0  0  0  2  0  0  0  0  0  0
  189.2850  178.4450  137.8760 C   0  0  0  0  0  1  0  0  0  0  0  0
  188.4910  177.5890  138.8470 C   0  0  2  0  0  3  0  0  0  0  0  0
  187.5270  178.4350  139.5300 N   0  0  0  0  0  1  0  0  0  0  0  0
  1  4  1  0  0  0  0
  1 23  1  1  0  0  0
  2  3  1  6  0  0  0
  2  5  1  0  0  0  0
  2  4  1  0  0  0  0
  3  1  1  0  0  0  0
  5  7  1  6  0  0  0
  5 11  1  0  0  0  0
  6 11  1  0  0  0  0
  6 10  1  0  0  0  0
  7  9  1  0  0  0  0
  9  6  1  0  0  0  0
 10  8  2  0  0  0  0
 11 12  1  6  0  0  0
 13 10  1  0  0  0  0
 13 16  1  0  0  0  0
 14 15  2  0  0  0  0
 15 13  2  0  0  0  0
 16 18  1  0  0  0  0
 17 18  1  0  0  0  0
 18 19  1  0  0  0  0
 18 20  1  0  0  0  0
 20 21  1  0  0  0  0
 21 22  1  0  0  0  0
 23 24  1  0  0  0  0
 24 25  1  0  0  0  0
 26 25  1  6  0  0  0
 27 29  1  0  0  0  0
 28 29  1  0  0  0  0
 29 31  1  1  0  0  0
 30 26  1  6  0  0  0
 30 27  1  0  0  0  0
 30 28  1  0  0  0  0
 31 32  1  0  0  0  0
 32 33  1  0  0  0  0
 33 35  1  0  0  0  0
 33 34  1  0  0  0  0
 35 34  1  0  0  0  0
 37 36  1  6  0  0  0
 37 38  1  0  0  0  0
 37 26  1  0  0  0  0
M  END
>  <MODEL>
6

>  <REMARK>
 VINA RESULT:      -6.3      3.032      7.297
  Name = 
  15 active torsions:
  status: ('A' for Active; 'I' for Inactive)
    1  A    between atoms: O_1  and  C_12
    2  A    between atoms: O_1  and  C_17
    3  A    between atoms: C_2  and  C_11
    4  A    between atoms: N_3  and  C_23
    5  A    between atoms: N_3  and  N_36
    6  A    between atoms: C_4  and  C_18
    7  A    between atoms: C_7  and  C_24
    8  A    between atoms: C_7  and  C_31
    9  A    between atoms: C_11  and  C_35
   10  A    between atoms: C_12  and  C_31
   11  A    between atoms: C_14  and  C_23
   12  A    between atoms: C_14  and  C_25
   13  A    between atoms: C_14  and  C_28
   14  A    between atoms: C_16  and  N_36
   15  A    between atoms: C_27  and  C_35
                            x       y       z     vdW  Elec       q    Type
                         _______ _______ _______ _____ _____    ______ ____

>  <TORSDO>
F 15

$$$$
=
 OpenBabel11062413003D

 38 41  0  0  1  0  0  0  0  0999 V2000
  190.9340  175.3010  136.7810 C   0  0  2  0  0  3  0  0  0  0  0  0
  188.8760  175.3600  136.2970 C   0  0  1  0  0  3  0  0  0  0  0  0
  190.1820  176.3380  135.4950 S   0  0  0  0  0  0  0  0  0  0  0  0
  189.7180  174.6600  137.2560 N   0  0  0  0  0  2  0  0  0  0  0  0
  187.8940  176.2720  137.0390 C   0  0  1  0  0  3  0  0  0  0  0  0
  185.7340  176.8200  137.3000 N   0  0  0  0  0  0  0  0  0  0  0  0
  187.6320  177.4570  136.3190 O   0  0  0  0  0  0  0  0  0  0  0  0
  183.7960  175.7930  138.0840 O   0  0  0  0  0  0  0  0  0  0  0  0
  186.4110  177.9130  136.7470 N   0  0  0  0  0  2  0  0  0  0  0  0
  184.3800  176.8730  137.7950 C   0  0  0  0  0  0  0  0  0  0  0  0
  186.5580  175.6510  137.3710 C   0  0  1  0  0  3  0  0  0  0  0  0
  186.0890  174.6470  136.3170 C   0  0  0  0  0  1  0  0  0  0  0  0
  183.6380  178.1490  137.9780 C   0  0  0  0  0  0  0  0  0  0  0  0
  184.5360  180.0450  139.4200 O   0  0  0  0  0  0  0  0  0  0  0  0
  184.1040  179.1220  138.7180 C   0  0  0  0  0  0  0  0  0  0  0  0
  182.3090  178.3480  137.3000 C   0  0  0  0  0  2  0  0  0  0  0  0
  179.8530  177.9580  137.5650 C   0  0  0  0  0  1  0  0  0  0  0  0
  181.1010  178.4800  138.2560 C   0  0  0  0  0  0  0  0  0  0  0  0
  181.2900  177.6500  139.5280 C   0  0  0  0  0  1  0  0  0  0  0  0
  180.8600  179.8410  138.5660 O   0  0  0  0  0  0  0  0  0  0  0  0
  180.9740  180.6310  137.4070 C   0  0  0  0  0  2  0  0  0  0  0  0
  180.8120  182.0910  137.7710 C   0  0  0  0  0  1  0  0  0  0  0  0
  191.4940  176.1510  137.8240 N   0  0  0  0  0  2  0  0  0  0  0  0
  190.7220  175.9570  138.9810 N   0  0  0  0  0  2  0  0  0  0  0  0
  190.7840  177.1910  139.7490 C   0  0  0  0  0  2  0  0  0  0  0  0
  189.5530  177.3150  140.6530 C   0  0  1  0  0  3  0  0  0  0  0  0
  189.1950  175.9290  143.0860 S   0  0  0  0  0  0  0  0  0  0  0  0
  189.1200  178.3990  142.9140 C   0  0  0  0  0  2  0  0  0  0  0  0
  188.4300  177.4040  143.8290 C   0  0  2  0  0  3  0  0  0  0  0  0
  189.8880  177.3360  142.1570 C   0  0  2  0  0  3  0  0  0  0  0  0
  188.9290  177.5680  145.2560 C   0  0  0  0  0  2  0  0  0  0  0  0
  187.7710  177.5230  146.2340 C   0  0  0  0  0  2  0  0  0  0  0  0
  186.7380  178.5570  145.8370 C   0  0  0  0  0  3  0  0  0  0  0  0
  185.7460  178.7230  146.9640 C   0  0  0  0  0  2  0  0  0  0  0  0
  185.3810  177.8890  145.7560 C   0  0  0  0  0  2  0  0  0  0  0  0
  187.2400  178.2260  140.3060 C   0  0  0  0  0  1  0  0  0  0  0  0
  188.7240  178.5450  140.2700 C   0  0  2  0  0  3  0  0  0  0  0  0
  189.0670  178.9970  138.9320 N   0  0  0  0  0  1  0  0  0  0  0  0
  1  4  1  0  0  0  0
  1 23  1  1  0  0  0
  2  3  1  6  0  0  0
  2  5  1  0  0  0  0
  2  4  1  0  0  0  0
  3  1  1  0  0  0  0
  5  7  1  6  0  0  0
  5 11  1  0  0  0  0
  6 11  1  0  0  0  0
  6 10  1  0  0  0  0
  7  9  1  0  0  0  0
  9  6  1  0  0  0  0
 10 13  1  0  0  0  0
 10  8  2  0  0  0  0
 11 12  1  6  0  0  0
 13 15  2  0  0  0  0
 15 14  2  0  0  0  0
 16 13  1  0  0  0  0
 16 18  1  0  0  0  0
 17 18  1  0  0  0  0
 18 20  1  0  0  0  0
 18 19  1  0  0  0  0
 21 22  1  0  0  0  0
 21 20  1  0  0  0  0
 23 24  1  0  0  0  0
 24 25  1  0  0  0  0
 26 25  1  6  0  0  0
 27 29  1  0  0  0  0
 28 29  1  0  0  0  0
 29 31  1  1  0  0  0
 30 26  1  6  0  0  0
 30 28  1  0  0  0  0
 30 27  1  0  0  0  0
 31 32  1  0  0  0  0
 33 32  1  0  0  0  0
 33 34  1  0  0  0  0
 35 33  1  0  0  0  0
 35 34  1  0  0  0  0
 37 36  1  6  0  0  0
 37 26  1  0  0  0  0
 38 37  1  0  0  0  0
M  END
>  <MODEL>
7

>  <REMARK>
 VINA RESULT:      -6.1      3.050      6.917
  Name = 
  15 active torsions:
  status: ('A' for Active; 'I' for Inactive)
    1  A    between atoms: O_1  and  C_12
    2  A    between atoms: O_1  and  C_17
    3  A    between atoms: C_2  and  C_11
    4  A    between atoms: N_3  and  C_23
    5  A    between atoms: N_3  and  N_36
    6  A    between atoms: C_4  and  C_18
    7  A    between atoms: C_7  and  C_24
    8  A    between atoms: C_7  and  C_31
    9  A    between atoms: C_11  and  C_35
   10  A    between atoms: C_12  and  C_31
   11  A    between atoms: C_14  and  C_23
   12  A    between atoms: C_14  and  C_25
   13  A    between atoms: C_14  and  C_28
   14  A    between atoms: C_16  and  N_36
   15  A    between atoms: C_27  and  C_35
                            x       y       z     vdW  Elec       q    Type
                         _______ _______ _______ _____ _____    ______ ____

>  <TORSDO>
F 15

$$$$
=
 OpenBabel11062413003D

 38 41  0  0  1  0  0  0  0  0999 V2000
  187.2300  177.5940  136.4120 C   0  0  2  0  0  3  0  0  0  0  0  0
  189.1480  177.3730  137.2740 C   0  0  1  0  0  3  0  0  0  0  0  0
  187.8070  176.1480  137.3440 S   0  0  0  0  0  0  0  0  0  0  0  0
  188.4400  178.3950  136.5170 N   0  0  0  0  0  2  0  0  0  0  0  0
  189.4740  177.9000  138.6750 C   0  0  1  0  0  3  0  0  0  0  0  0
  190.5130  177.4510  140.6120 N   0  0  0  0  0  0  0  0  0  0  0  0
  188.5140  177.4920  139.6260 O   0  0  0  0  0  0  0  0  0  0  0  0
  192.7020  177.1130  141.3360 O   0  0  0  0  0  0  0  0  0  0  0  0
  189.1350  177.5250  140.8490 N   0  0  0  0  0  2  0  0  0  0  0  0
  191.5090  177.3820  141.6530 C   0  0  0  0  0  0  0  0  0  0  0  0
  190.8280  177.5080  139.2170 C   0  0  1  0  0  3  0  0  0  0  0  0
  191.2770  176.1220  138.7510 C   0  0  0  0  0  1  0  0  0  0  0  0
  191.1940  177.6090  143.0880 C   0  0  0  0  0  0  0  0  0  0  0  0
  191.8740  179.7390  144.3040 O   0  0  0  0  0  0  0  0  0  0  0  0
  191.5430  178.7060  143.7090 C   0  0  0  0  0  0  0  0  0  0  0  0
  190.4510  176.5590  143.8690 C   0  0  0  0  0  2  0  0  0  0  0  0
  188.8430  178.4590  144.1120 C   0  0  0  0  0  1  0  0  0  0  0  0
  189.0320  176.9670  144.3280 C   0  0  0  0  0  0  0  0  0  0  0  0
  187.9460  176.2560  143.5180 C   0  0  0  0  0  1  0  0  0  0  0  0
  188.8710  176.7290  145.7150 O   0  0  0  0  0  0  0  0  0  0  0  0
  189.6580  177.6310  146.4570 C   0  0  0  0  0  2  0  0  0  0  0  0
  189.0270  177.8550  147.8150 C   0  0  0  0  0  1  0  0  0  0  0  0
  186.1400  178.2360  137.1370 N   0  0  0  0  0  2  0  0  0  0  0  0
  185.2030  177.2400  137.4520 N   0  0  0  0  0  2  0  0  0  0  0  0
  183.8900  177.7640  137.1110 C   0  0  0  0  0  2  0  0  0  0  0  0
  182.8200  177.1470  138.0170 C   0  0  1  0  0  3  0  0  0  0  0  0
  183.6600  179.3890  139.5120 S   0  0  0  0  0  0  0  0  0  0  0  0
  183.2970  177.1540  140.5170 C   0  0  0  0  0  2  0  0  0  0  0  0
  184.2380  178.2970  140.8500 C   0  0  2  0  0  3  0  0  0  0  0  0
  182.6450  177.8820  139.3610 C   0  0  2  0  0  3  0  0  0  0  0  0
  183.8710  178.9060  142.1930 C   0  0  0  0  0  2  0  0  0  0  0  0
  185.1150  179.1520  143.0250 C   0  0  0  0  0  2  0  0  0  0  0  0
  185.0810  178.2650  144.2520 C   0  0  0  0  0  3  0  0  0  0  0  0
  183.9120  178.6680  145.1210 C   0  0  0  0  0  2  0  0  0  0  0  0
  185.3100  179.1200  145.4810 C   0  0  0  0  0  2  0  0  0  0  0  0
  181.2730  178.2510  136.3770 C   0  0  0  0  0  1  0  0  0  0  0  0
  181.4800  177.0480  137.2810 C   0  0  2  0  0  3  0  0  0  0  0  0
  180.3790  176.9850  138.2270 N   0  0  0  0  0  1  0  0  0  0  0  0
  1  4  1  0  0  0  0
  1 23  1  1  0  0  0
  1  3  1  0  0  0  0
  2  4  1  6  0  0  0
  2  3  1  0  0  0  0
  2  5  1  0  0  0  0
  5 11  1  0  0  0  0
  5  7  1  1  0  0  0
  6  9  1  0  0  0  0
  6 10  1  0  0  0  0
  7  9  1  0  0  0  0
  8 10  2  0  0  0  0
 10 13  1  0  0  0  0
 11 12  1  6  0  0  0
 11  6  1  0  0  0  0
 13 15  2  0  0  0  0
 13 16  1  0  0  0  0
 15 14  2  0  0  0  0
 16 18  1  0  0  0  0
 17 18  1  0  0  0  0
 18 20  1  0  0  0  0
 19 18  1  0  0  0  0
 20 21  1  0  0  0  0
 21 22  1  0  0  0  0
 23 24  1  0  0  0  0
 25 24  1  0  0  0  0
 26 25  1  6  0  0  0
 27 29  1  0  0  0  0
 28 29  1  0  0  0  0
 29 31  1  1  0  0  0
 30 26  1  6  0  0  0
 30 27  1  0  0  0  0
 30 28  1  0  0  0  0
 31 32  1  0  0  0  0
 32 33  1  0  0  0  0
 33 34  1  0  0  0  0
 33 35  1  0  0  0  0
 34 35  1  0  0  0  0
 37 36  1  6  0  0  0
 37 26  1  0  0  0  0
 37 38  1  0  0  0  0
M  END
>  <MODEL>
8

>  <REMARK>
 VINA RESULT:      -6.1      3.010      7.361
  Name = 
  15 active torsions:
  status: ('A' for Active; 'I' for Inactive)
    1  A    between atoms: O_1  and  C_12
    2  A    between atoms: O_1  and  C_17
    3  A    between atoms: C_2  and  C_11
    4  A    between atoms: N_3  and  C_23
    5  A    between atoms: N_3  and  N_36
    6  A    between atoms: C_4  and  C_18
    7  A    between atoms: C_7  and  C_24
    8  A    between atoms: C_7  and  C_31
    9  A    between atoms: C_11  and  C_35
   10  A    between atoms: C_12  and  C_31
   11  A    between atoms: C_14  and  C_23
   12  A    between atoms: C_14  and  C_25
   13  A    between atoms: C_14  and  C_28
   14  A    between atoms: C_16  and  N_36
   15  A    between atoms: C_27  and  C_35
                            x       y       z     vdW  Elec       q    Type
                         _______ _______ _______ _____ _____    ______ ____

>  <TORSDO>
F 15

$$$$
=
 OpenBabel11062413003D

 38 41  0  0  1  0  0  0  0  0999 V2000
  185.8480  178.6100  143.3780 C   0  0  2  0  0  3  0  0  0  0  0  0
  184.4130  179.1050  141.9060 C   0  0  1  0  0  3  0  0  0  0  0  0
  184.0890  178.9360  143.6870 S   0  0  0  0  0  0  0  0  0  0  0  0
  185.8330  178.7880  141.9340 N   0  0  0  0  0  2  0  0  0  0  0  0
  183.6590  178.0320  141.1140 C   0  0  1  0  0  3  0  0  0  0  0  0
  182.6160  177.5680  139.1830 N   0  0  0  0  0  0  0  0  0  0  0  0
  182.2640  178.1150  141.3150 O   0  0  0  0  0  0  0  0  0  0  0  0
  183.1940  177.3770  136.9340 O   0  0  0  0  0  0  0  0  0  0  0  0
  181.6760  177.5350  140.2200 N   0  0  0  0  0  2  0  0  0  0  0  0
  182.3510  177.1190  137.8380 C   0  0  0  0  0  0  0  0  0  0  0  0
  183.8920  178.0450  139.6220 C   0  0  1  0  0  3  0  0  0  0  0  0
  184.1160  179.4520  139.0660 C   0  0  0  0  0  1  0  0  0  0  0  0
  181.1240  176.3670  137.4650 C   0  0  0  0  0  0  0  0  0  0  0  0
  179.1940  177.4580  136.2150 O   0  0  0  0  0  0  0  0  0  0  0  0
  180.1350  176.9300  136.8200 C   0  0  0  0  0  0  0  0  0  0  0  0
  180.9950  174.9120  137.8290 C   0  0  0  0  0  2  0  0  0  0  0  0
  181.4210  172.5330  137.1870 C   0  0  0  0  0  1  0  0  0  0  0  0
  181.9290  173.9580  137.0490 C   0  0  0  0  0  0  0  0  0  0  0  0
  181.9530  174.2820  135.5540 C   0  0  0  0  0  1  0  0  0  0  0  0
  183.2350  173.9830  137.5970 O   0  0  0  0  0  0  0  0  0  0  0  0
  184.0760  173.1050  136.8890 C   0  0  0  0  0  2  0  0  0  0  0  0
  185.4120  173.0030  137.5940 C   0  0  0  0  0  1  0  0  0  0  0  0
  186.1500  177.2230  143.7080 N   0  0  0  0  0  2  0  0  0  0  0  0
  186.5620  177.1920  145.0500 N   0  0  0  0  0  2  0  0  0  0  0  0
  187.8090  177.9380  145.1320 C   0  0  0  0  0  2  0  0  0  0  0  0
  188.9570  177.0090  145.5390 C   0  0  1  0  0  3  0  0  0  0  0  0
  190.4270  178.3320  143.5240 S   0  0  0  0  0  0  0  0  0  0  0  0
  189.4690  176.0670  143.2310 C   0  0  0  0  0  2  0  0  0  0  0  0
  189.7430  177.2070  142.2670 C   0  0  2  0  0  3  0  0  0  0  0  0
  190.0130  176.8070  144.4340 C   0  0  2  0  0  3  0  0  0  0  0  0
  190.8380  176.8160  141.2880 C   0  0  0  0  0  2  0  0  0  0  0  0
  190.6270  177.5000  139.9510 C   0  0  0  0  0  2  0  0  0  0  0  0
  189.1530  177.7990  139.7680 C   0  0  0  0  0  3  0  0  0  0  0  0
  188.6680  177.1370  138.5000 C   0  0  0  0  0  2  0  0  0  0  0  0
  188.9730  178.6180  138.5070 C   0  0  0  0  0  2  0  0  0  0  0  0
  190.8980  176.7320  147.1070 C   0  0  0  0  0  1  0  0  0  0  0  0
  189.6190  177.5020  146.8300 C   0  0  2  0  0  3  0  0  0  0  0  0
  188.7220  177.3320  147.9610 N   0  0  0  0  0  1  0  0  0  0  0  0
  1  3  1  0  0  0  0
  1 23  1  6  0  0  0
  2  4  1  1  0  0  0
  2  3  1  0  0  0  0
  4  1  1  0  0  0  0
  5  7  1  6  0  0  0
  5  2  1  0  0  0  0
  6 11  1  0  0  0  0
  6  9  1  0  0  0  0
  8 10  2  0  0  0  0
  9  7  1  0  0  0  0
 10  6  1  0  0  0  0
 11 12  1  6  0  0  0
 11  5  1  0  0  0  0
 13 16  1  0  0  0  0
 13 10  1  0  0  0  0
 14 15  2  0  0  0  0
 15 13  2  0  0  0  0
 18 17  1  0  0  0  0
 18 20  1  0  0  0  0
 18 16  1  0  0  0  0
 19 18  1  0  0  0  0
 21 22  1  0  0  0  0
 21 20  1  0  0  0  0
 23 24  1  0  0  0  0
 24 25  1  0  0  0  0
 26 25  1  6  0  0  0
 26 37  1  0  0  0  0
 27 30  1  0  0  0  0
 28 30  1  0  0  0  0
 29 31  1  6  0  0  0
 29 28  1  0  0  0  0
 29 27  1  0  0  0  0
 30 26  1  1  0  0  0
 32 31  1  0  0  0  0
 33 32  1  0  0  0  0
 34 35  1  0  0  0  0
 34 33  1  0  0  0  0
 35 33  1  0  0  0  0
 37 36  1  1  0  0  0
 37 38  1  0  0  0  0
M  END
>  <MODEL>
9

>  <REMARK>
 VINA RESULT:      -6.0      3.459      5.892
  Name = 
  15 active torsions:
  status: ('A' for Active; 'I' for Inactive)
    1  A    between atoms: O_1  and  C_12
    2  A    between atoms: O_1  and  C_17
    3  A    between atoms: C_2  and  C_11
    4  A    between atoms: N_3  and  C_23
    5  A    between atoms: N_3  and  N_36
    6  A    between atoms: C_4  and  C_18
    7  A    between atoms: C_7  and  C_24
    8  A    between atoms: C_7  and  C_31
    9  A    between atoms: C_11  and  C_35
   10  A    between atoms: C_12  and  C_31
   11  A    between atoms: C_14  and  C_23
   12  A    between atoms: C_14  and  C_25
   13  A    between atoms: C_14  and  C_28
   14  A    between atoms: C_16  and  N_36
   15  A    between atoms: C_27  and  C_35
                            x       y       z     vdW  Elec       q    Type
                         _______ _______ _______ _____ _____    ______ ____

>  <TORSDO>
F 15

$$$$
