=
 OpenBabel11062417313D

 47 52  0  0  1  0  0  0  0  0999 V2000
  189.9510  176.7000  141.6210 C   0  0  0  0  0  0  0  0  0  0  0  0
  188.8570  177.5930  139.3310 N   0  0  0  0  0  0  0  0  0  0  0  0
  189.4410  177.1420  143.7290 N   0  0  0  0  0  2  0  0  0  0  0  0
  188.6270  177.8070  142.9440 O   0  0  0  0  0  0  0  0  0  0  0  0
  190.4730  176.2560  140.4550 N   0  0  0  0  0  2  0  0  0  0  0  0
  191.2090  175.7030  143.3340 O   0  0  0  0  0  0  0  0  0  0  0  0
  189.9120  176.7120  139.2890 C   0  0  0  0  0  0  0  0  0  0  0  0
  188.9100  177.5610  141.6840 C   0  0  0  0  0  0  0  0  0  0  0  0
  188.3300  178.0320  140.5150 C   0  0  2  0  0  3  0  0  0  0  0  0
  190.2780  176.4460  142.9240 C   0  0  0  0  0  0  0  0  0  0  0  0
  185.9640  178.3400  139.8630 C   0  0  0  0  0  2  0  0  0  0  0  0
  187.1600  178.9640  140.5510 C   0  0  1  0  0  3  0  0  0  0  0  0
  184.8470  178.3800  140.8830 C   0  0  0  0  0  2  0  0  0  0  0  0
  186.7310  179.2190  141.9840 C   0  0  0  0  0  2  0  0  0  0  0  0
  185.4620  178.5300  142.1960 N   0  0  0  0  0  0  0  0  0  0  0  0
  184.6000  179.3160  143.0860 C   0  0  0  0  0  2  0  0  0  0  0  0
  184.1430  178.5620  144.3400 C   0  0  2  0  0  3  0  0  0  0  0  0
  182.6800  178.8650  144.5920 C   0  0  0  0  0  1  0  0  0  0  0  0
  186.6420  178.6330  147.2290 N   0  0  0  0  0  2  0  0  0  0  0  0
  184.9380  178.9870  145.4840 N   0  0  0  0  0  2  0  0  0  0  0  0
  186.1690  177.0060  145.6240 O   0  0  0  0  0  0  0  0  0  0  0  0
  185.9260  178.1530  146.0920 C   0  0  0  0  0  0  0  0  0  0  0  0
  187.6450  177.8260  147.9060 C   0  0  0  0  0  2  0  0  0  0  0  0
  188.9810  177.9500  147.1920 C   0  0  0  0  0  2  0  0  0  0  0  0
  189.8070  176.6850  147.3450 C   0  0  0  0  0  2  0  0  0  0  0  0
  191.2020  176.8940  146.7860 C   0  0  0  0  0  1  0  0  0  0  0  0
  190.4400  176.2610  137.9530 C   0  0  1  0  0  3  0  0  0  0  0  0
  192.6470  175.2110  137.9620 C   0  0  1  0  0  3  0  0  0  0  0  0
  193.8430  173.2100  136.4550 C   0  0  0  0  0  3  0  0  0  0  0  0
  193.2310  176.5690  137.5720 C   0  0  0  0  0  2  0  0  0  0  0  0
  194.5830  175.5060  135.6500 C   0  0  0  0  0  3  0  0  0  0  0  0
  192.3320  173.3640  136.5000 C   0  0  0  0  0  2  0  0  0  0  0  0
  194.8070  174.1080  136.1360 C   0  0  0  0  0  0  0  0  0  0  0  0
  191.1790  174.9980  138.0570 N   0  0  0  0  0  0  0  0  0  0  0  0
  193.9320  176.5370  136.2270 C   0  0  0  0  0  3  0  0  0  0  0  0
  191.8860  174.7850  136.7870 C   0  0  1  0  0  3  0  0  0  0  0  0
  196.2290  173.6020  136.0660 C   0  0  0  0  0  0  0  0  0  0  0  0
  196.3970  172.7320  134.9990 F   0  0  0  0  0  0  0  0  0  0  0  0
  196.5280  172.9050  137.2260 F   0  0  0  0  0  0  0  0  0  0  0  0
  197.6990  175.1830  137.2420 N   0  0  0  0  0  1  0  0  0  0  0  0
  197.2110  174.7630  135.9360 C   0  0  0  0  0  2  0  0  0  0  0  0
  187.2370  175.9720  135.0930 C   0  0  0  0  0  3  0  0  0  0  0  0
  188.3710  175.1120  137.0540 C   0  0  0  0  0  3  0  0  0  0  0  0
  188.1820  176.9990  134.9960 C   0  0  0  0  0  3  0  0  0  0  0  0
  189.3240  176.1390  136.9560 C   0  0  0  0  0  0  0  0  0  0  0  0
  189.2230  177.0830  135.9260 C   0  0  0  0  0  3  0  0  0  0  0  0
  187.3320  175.0290  136.1220 C   0  0  0  0  0  3  0  0  0  0  0  0
  1  8  2  0  0  0  0
  1 10  1  0  0  0  0
  4  3  1  0  0  0  0
  5  1  1  0  0  0  0
  7  2  2  0  0  0  0
  7  5  1  0  0  0  0
  8  4  1  0  0  0  0
  9  2  1  6  0  0  0
  9 12  1  0  0  0  0
  9  8  1  0  0  0  0
 10  6  2  0  0  0  0
 10  3  1  0  0  0  0
 11 13  1  0  0  0  0
 12 11  1  6  0  0  0
 12 14  1  0  0  0  0
 13 15  1  0  0  0  0
 14 15  1  0  0  0  0
 15 16  1  0  0  0  0
 16 17  1  0  0  0  0
 17 18  1  1  0  0  0
 17 20  1  0  0  0  0
 19 23  1  0  0  0  0
 20 22  1  0  0  0  0
 21 22  2  0  0  0  0
 22 19  1  0  0  0  0
 24 25  1  0  0  0  0
 24 23  1  0  0  0  0
 26 25  1  0  0  0  0
 27 45  1  6  0  0  0
 27 34  1  0  0  0  0
 27  7  1  0  0  0  0
 28 30  1  6  0  0  0
 28 34  1  0  0  0  0
 29 32  1  0  0  0  0
 31 33  1  0  0  0  0
 31 35  2  0  0  0  0
 33 29  2  0  0  0  0
 35 30  1  0  0  0  0
 36 32  1  1  0  0  0
 36 28  1  0  0  0  0
 36 34  1  0  0  0  0
 37 33  1  0  0  0  0
 37 39  1  0  0  0  0
 38 37  1  0  0  0  0
 41 37  1  0  0  0  0
 41 40  1  0  0  0  0
 42 47  1  0  0  0  0
 44 42  2  0  0  0  0
 44 46  1  0  0  0  0
 45 43  1  0  0  0  0
 46 45  2  0  0  0  0
 47 43  2  0  0  0  0
M  END
>  <MODEL>
1

>  <REMARK>
 VINA RESULT:      -8.0      0.000      0.000
  Name = 
  12 active torsions:
  status: ('A' for Active; 'I' for Inactive)
    1  A    between atoms: C_8  and  C_26
    2  A    between atoms: C_9  and  C_28
    3  A    between atoms: C_9  and  N_40
    4  A    between atoms: C_10  and  C_29
    5  A    between atoms: C_10  and  C_39
    6  A    between atoms: C_15  and  N_17
    7  A    between atoms: C_15  and  C_26
    8  A    between atoms: C_21  and  C_45
    9  A    between atoms: C_25  and  C_30
   10  A    between atoms: C_25  and  C_32
   11  A    between atoms: C_25  and  N_41
   12  A    between atoms: C_28  and  N_31
                            x       y       z     vdW  Elec       q    Type
                         _______ _______ _______ _____ _____    ______ ____

>  <TORSDO>
F 12

$$$$
=
 OpenBabel11062417313D

 47 52  0  0  1  0  0  0  0  0999 V2000
  184.1910  178.6770  143.4870 C   0  0  0  0  0  0  0  0  0  0  0  0
  185.4190  178.2640  141.1290 N   0  0  0  0  0  0  0  0  0  0  0  0
  185.0290  179.0370  145.5040 N   0  0  0  0  0  2  0  0  0  0  0  0
  186.0160  178.8950  144.6500 O   0  0  0  0  0  0  0  0  0  0  0  0
  183.4160  178.4800  142.3960 N   0  0  0  0  0  2  0  0  0  0  0  0
  182.7260  178.9630  145.2990 O   0  0  0  0  0  0  0  0  0  0  0  0
  184.0460  178.2710  141.1950 C   0  0  0  0  0  0  0  0  0  0  0  0
  185.5430  178.6790  143.4430 C   0  0  0  0  0  0  0  0  0  0  0  0
  186.1960  178.4700  142.2370 C   0  0  2  0  0  3  0  0  0  0  0  0
  183.8810  178.9020  144.8000 C   0  0  0  0  0  0  0  0  0  0  0  0
  188.2650  177.1500  142.5450 C   0  0  0  0  0  2  0  0  0  0  0  0
  187.6890  178.4940  142.1490 C   0  0  1  0  0  3  0  0  0  0  0  0
  189.1270  176.7230  141.3760 C   0  0  0  0  0  2  0  0  0  0  0  0
  188.1310  178.7310  140.7160 C   0  0  0  0  0  2  0  0  0  0  0  0
  188.6900  177.4820  140.2120 N   0  0  0  0  0  0  0  0  0  0  0  0
  189.8200  177.7560  139.3160 C   0  0  0  0  0  2  0  0  0  0  0  0
  189.4780  177.6440  137.8270 C   0  0  2  0  0  3  0  0  0  0  0  0
  189.1570  179.0240  137.2900 C   0  0  0  0  0  1  0  0  0  0  0  0
  186.9330  175.2050  136.3530 N   0  0  0  0  0  2  0  0  0  0  0  0
  188.3280  176.7680  137.6520 N   0  0  0  0  0  2  0  0  0  0  0  0
  188.9280  176.0710  135.5040 O   0  0  0  0  0  0  0  0  0  0  0  0
  188.1010  176.0190  136.4570 C   0  0  0  0  0  0  0  0  0  0  0  0
  186.6330  174.4360  135.1560 C   0  0  0  0  0  2  0  0  0  0  0  0
  185.9200  173.1470  135.5320 C   0  0  0  0  0  2  0  0  0  0  0  0
  186.1000  172.8280  137.0060 C   0  0  0  0  0  2  0  0  0  0  0  0
  184.7520  172.7480  137.6970 C   0  0  0  0  0  1  0  0  0  0  0  0
  183.2490  178.0460  139.9380 C   0  0  1  0  0  3  0  0  0  0  0  0
  182.9700  175.8490  138.9030 C   0  0  1  0  0  3  0  0  0  0  0  0
  180.8180  174.4940  137.7920 C   0  0  0  0  0  3  0  0  0  0  0  0
  183.9140  176.3150  137.7950 C   0  0  0  0  0  2  0  0  0  0  0  0
  182.2680  175.5230  135.9740 C   0  0  0  0  0  3  0  0  0  0  0  0
  180.6070  175.6710  138.7300 C   0  0  0  0  0  2  0  0  0  0  0  0
  181.5410  174.4030  136.6490 C   0  0  0  0  0  0  0  0  0  0  0  0
  182.5180  176.7750  139.9760 N   0  0  0  0  0  0  0  0  0  0  0  0
  183.2500  176.3280  136.4310 C   0  0  0  0  0  3  0  0  0  0  0  0
  181.7610  176.6540  138.7220 C   0  0  1  0  0  3  0  0  0  0  0  0
  181.4470  173.1100  135.8720 C   0  0  0  0  0  0  0  0  0  0  0  0
  182.6140  172.8680  135.1620 F   0  0  0  0  0  0  0  0  0  0  0  0
  180.4090  173.1950  134.9580 F   0  0  0  0  0  0  0  0  0  0  0  0
  180.6420  170.7950  136.0720 N   0  0  0  0  0  1  0  0  0  0  0  0
  181.1690  171.9360  136.8080 C   0  0  0  0  0  2  0  0  0  0  0  0
  180.5950  181.3610  139.2370 C   0  0  0  0  0  3  0  0  0  0  0  0
  181.1000  179.3000  140.4060 C   0  0  0  0  0  3  0  0  0  0  0  0
  181.7980  181.2560  138.5300 C   0  0  0  0  0  3  0  0  0  0  0  0
  182.3070  179.1900  139.6960 C   0  0  0  0  0  0  0  0  0  0  0  0
  182.6530  180.1730  138.7600 C   0  0  0  0  0  3  0  0  0  0  0  0
  180.2460  180.3830  140.1740 C   0  0  0  0  0  3  0  0  0  0  0  0
  1 10  1  0  0  0  0
  2  7  2  0  0  0  0
  4  3  1  0  0  0  0
  5  1  1  0  0  0  0
  7  5  1  0  0  0  0
  8  1  2  0  0  0  0
  8  4  1  0  0  0  0
  9  2  1  6  0  0  0
  9  8  1  0  0  0  0
 10  6  2  0  0  0  0
 10  3  1  0  0  0  0
 12 14  1  6  0  0  0
 12  9  1  0  0  0  0
 12 11  1  0  0  0  0
 13 11  1  0  0  0  0
 15 14  1  0  0  0  0
 15 13  1  0  0  0  0
 16 15  1  0  0  0  0
 17 18  1  1  0  0  0
 17 16  1  0  0  0  0
 19 22  1  0  0  0  0
 20 17  1  0  0  0  0
 21 22  2  0  0  0  0
 22 20  1  0  0  0  0
 23 24  1  0  0  0  0
 23 19  1  0  0  0  0
 24 25  1  0  0  0  0
 25 26  1  0  0  0  0
 27 45  1  1  0  0  0
 27 34  1  0  0  0  0
 27  7  1  0  0  0  0
 28 30  1  6  0  0  0
 28 34  1  0  0  0  0
 29 32  1  0  0  0  0
 31 35  2  0  0  0  0
 31 33  1  0  0  0  0
 33 29  2  0  0  0  0
 35 30  1  0  0  0  0
 36 32  1  1  0  0  0
 36 28  1  0  0  0  0
 36 34  1  0  0  0  0
 37 33  1  0  0  0  0
 37 41  1  0  0  0  0
 38 37  1  0  0  0  0
 39 37  1  0  0  0  0
 40 41  1  0  0  0  0
 42 47  1  0  0  0  0
 44 46  1  0  0  0  0
 44 42  2  0  0  0  0
 45 43  1  0  0  0  0
 46 45  2  0  0  0  0
 47 43  2  0  0  0  0
M  END
>  <MODEL>
2

>  <REMARK>
 VINA RESULT:      -7.9      4.915      9.866
  Name = 
  12 active torsions:
  status: ('A' for Active; 'I' for Inactive)
    1  A    between atoms: C_8  and  C_26
    2  A    between atoms: C_9  and  C_28
    3  A    between atoms: C_9  and  N_40
    4  A    between atoms: C_10  and  C_29
    5  A    between atoms: C_10  and  C_39
    6  A    between atoms: C_15  and  N_17
    7  A    between atoms: C_15  and  C_26
    8  A    between atoms: C_21  and  C_45
    9  A    between atoms: C_25  and  C_30
   10  A    between atoms: C_25  and  C_32
   11  A    between atoms: C_25  and  N_41
   12  A    between atoms: C_28  and  N_31
                            x       y       z     vdW  Elec       q    Type
                         _______ _______ _______ _____ _____    ______ ____

>  <TORSDO>
F 12

$$$$
=
 OpenBabel11062417313D

 47 52  0  0  1  0  0  0  0  0999 V2000
  186.7640  178.5960  140.3660 C   0  0  0  0  0  0  0  0  0  0  0  0
  188.5890  177.3200  138.8560 N   0  0  0  0  0  0  0  0  0  0  0  0
  184.7150  179.2780  139.8800 N   0  0  0  0  0  2  0  0  0  0  0  0
  185.2330  178.6950  138.8240 O   0  0  0  0  0  0  0  0  0  0  0  0
  187.9550  178.2960  140.9320 N   0  0  0  0  0  2  0  0  0  0  0  0
  185.5110  179.7120  142.0090 O   0  0  0  0  0  0  0  0  0  0  0  0
  188.8830  177.6450  140.1590 C   0  0  0  0  0  0  0  0  0  0  0  0
  186.4520  178.2810  139.0890 C   0  0  0  0  0  0  0  0  0  0  0  0
  187.3780  177.6210  138.2930 C   0  0  2  0  0  3  0  0  0  0  0  0
  185.6540  179.2300  140.8530 C   0  0  0  0  0  0  0  0  0  0  0  0
  188.2270  177.5250  135.9730 C   0  0  0  0  0  2  0  0  0  0  0  0
  187.0540  177.2340  136.8850 C   0  0  1  0  0  3  0  0  0  0  0  0
  188.5360  176.2130  135.2830 C   0  0  0  0  0  2  0  0  0  0  0  0
  186.8140  175.7370  136.7900 C   0  0  0  0  0  2  0  0  0  0  0  0
  187.9500  175.1500  136.0880 N   0  0  0  0  0  0  0  0  0  0  0  0
  187.5020  174.0410  135.2370 C   0  0  0  0  0  2  0  0  0  0  0  0
  187.1330  172.7700  136.0100 C   0  0  2  0  0  3  0  0  0  0  0  0
  188.1270  171.6790  135.6680 C   0  0  0  0  0  1  0  0  0  0  0  0
  183.4170  171.8910  136.1280 N   0  0  0  0  0  2  0  0  0  0  0  0
  185.7900  172.3450  135.6410 N   0  0  0  0  0  2  0  0  0  0  0  0
  184.8580  172.7660  137.7420 O   0  0  0  0  0  0  0  0  0  0  0  0
  184.6960  172.3510  136.5610 C   0  0  0  0  0  0  0  0  0  0  0  0
  182.2680  171.8520  137.0200 C   0  0  0  0  0  2  0  0  0  0  0  0
  181.2850  172.9500  136.6500 C   0  0  0  0  0  2  0  0  0  0  0  0
  181.3880  174.1260  137.6040 C   0  0  0  0  0  2  0  0  0  0  0  0
  182.2330  175.2280  136.9940 C   0  0  0  0  0  1  0  0  0  0  0  0
  190.2310  177.2790  140.7210 C   0  0  1  0  0  3  0  0  0  0  0  0
  189.8590  176.8910  143.1060 C   0  0  1  0  0  3  0  0  0  0  0  0
  191.2990  175.6130  145.1050 C   0  0  0  0  0  3  0  0  0  0  0  0
  189.9330  178.4060  143.3050 C   0  0  0  0  0  2  0  0  0  0  0  0
  191.6210  178.1320  145.2360 C   0  0  0  0  0  3  0  0  0  0  0  0
  191.5760  175.3360  143.6370 C   0  0  0  0  0  2  0  0  0  0  0  0
  191.2780  176.7840  145.7880 C   0  0  0  0  0  0  0  0  0  0  0  0
  190.1240  176.2700  141.7810 N   0  0  0  0  0  0  0  0  0  0  0  0
  191.0790  178.8190  144.2090 C   0  0  0  0  0  3  0  0  0  0  0  0
  191.2200  176.5000  142.7330 C   0  0  1  0  0  3  0  0  0  0  0  0
  191.0890  176.7080  147.2850 C   0  0  0  0  0  0  0  0  0  0  0  0
  192.2040  177.1940  147.9530 F   0  0  0  0  0  0  0  0  0  0  0  0
  190.9170  175.3860  147.6620 F   0  0  0  0  0  0  0  0  0  0  0  0
  188.6720  177.0490  146.9910 N   0  0  0  0  0  1  0  0  0  0  0  0
  189.8540  177.4960  147.7150 C   0  0  0  0  0  2  0  0  0  0  0  0
  192.8400  175.8640  137.6050 C   0  0  0  0  0  3  0  0  0  0  0  0
  192.4620  177.2910  139.5260 C   0  0  0  0  0  3  0  0  0  0  0  0
  191.5330  175.3750  137.7090 C   0  0  0  0  0  3  0  0  0  0  0  0
  191.1490  176.8050  139.6320 C   0  0  0  0  0  0  0  0  0  0  0  0
  190.6890  175.8430  138.7220 C   0  0  0  0  0  3  0  0  0  0  0  0
  193.3040  176.8220  138.5120 C   0  0  0  0  0  3  0  0  0  0  0  0
  1 10  1  0  0  0  0
  1  5  1  0  0  0  0
  2  7  2  0  0  0  0
  3 10  1  0  0  0  0
  4  8  1  0  0  0  0
  4  3  1  0  0  0  0
  7 27  1  0  0  0  0
  7  5  1  0  0  0  0
  8  1  2  0  0  0  0
  9  2  1  1  0  0  0
  9  8  1  0  0  0  0
 10  6  2  0  0  0  0
 12 11  1  6  0  0  0
 12  9  1  0  0  0  0
 13 11  1  0  0  0  0
 13 15  1  0  0  0  0
 14 12  1  0  0  0  0
 15 14  1  0  0  0  0
 16 17  1  0  0  0  0
 16 15  1  0  0  0  0
 17 18  1  6  0  0  0
 19 22  1  0  0  0  0
 19 23  1  0  0  0  0
 20 17  1  0  0  0  0
 20 22  1  0  0  0  0
 22 21  2  0  0  0  0
 24 23  1  0  0  0  0
 24 25  1  0  0  0  0
 26 25  1  0  0  0  0
 27 45  1  6  0  0  0
 27 34  1  0  0  0  0
 28 30  1  6  0  0  0
 29 33  2  0  0  0  0
 30 35  1  0  0  0  0
 31 33  1  0  0  0  0
 32 29  1  0  0  0  0
 33 37  1  0  0  0  0
 34 36  1  0  0  0  0
 34 28  1  0  0  0  0
 35 31  2  0  0  0  0
 36 28  1  0  0  0  0
 36 32  1  1  0  0  0
 37 39  1  0  0  0  0
 37 41  1  0  0  0  0
 37 38  1  0  0  0  0
 40 41  1  0  0  0  0
 42 44  2  0  0  0  0
 42 47  1  0  0  0  0
 43 45  1  0  0  0  0
 44 46  1  0  0  0  0
 46 45  2  0  0  0  0
 47 43  2  0  0  0  0
M  END
>  <MODEL>
3

>  <REMARK>
 VINA RESULT:      -7.5      4.095      8.812
  Name = 
  12 active torsions:
  status: ('A' for Active; 'I' for Inactive)
    1  A    between atoms: C_8  and  C_26
    2  A    between atoms: C_9  and  C_28
    3  A    between atoms: C_9  and  N_40
    4  A    between atoms: C_10  and  C_29
    5  A    between atoms: C_10  and  C_39
    6  A    between atoms: C_15  and  N_17
    7  A    between atoms: C_15  and  C_26
    8  A    between atoms: C_21  and  C_45
    9  A    between atoms: C_25  and  C_30
   10  A    between atoms: C_25  and  C_32
   11  A    between atoms: C_25  and  N_41
   12  A    between atoms: C_28  and  N_31
                            x       y       z     vdW  Elec       q    Type
                         _______ _______ _______ _____ _____    ______ ____

>  <TORSDO>
F 12

$$$$
=
 OpenBabel11062417313D

 47 52  0  0  1  0  0  0  0  0999 V2000
  186.6590  178.6730  140.3540 C   0  0  0  0  0  0  0  0  0  0  0  0
  188.5940  177.6360  138.7990 N   0  0  0  0  0  0  0  0  0  0  0  0
  184.6240  179.3790  139.8430 N   0  0  0  0  0  2  0  0  0  0  0  0
  185.2130  178.9480  138.7530 O   0  0  0  0  0  0  0  0  0  0  0  0
  187.8240  178.3220  140.9440 N   0  0  0  0  0  2  0  0  0  0  0  0
  185.2920  179.5440  142.0520 O   0  0  0  0  0  0  0  0  0  0  0  0
  188.8090  177.7930  140.1490 C   0  0  0  0  0  0  0  0  0  0  0  0
  186.4250  178.5230  139.0310 C   0  0  0  0  0  0  0  0  0  0  0  0
  187.4090  177.9880  138.2110 C   0  0  2  0  0  3  0  0  0  0  0  0
  185.5090  179.2200  140.8540 C   0  0  0  0  0  0  0  0  0  0  0  0
  188.4880  177.6040  136.0190 C   0  0  0  0  0  2  0  0  0  0  0  0
  187.1730  177.7830  136.7480 C   0  0  1  0  0  3  0  0  0  0  0  0
  188.3620  176.2880  135.2810 C   0  0  0  0  0  2  0  0  0  0  0  0
  186.3890  176.5050  136.5140 C   0  0  0  0  0  2  0  0  0  0  0  0
  187.2980  175.5290  135.9230 N   0  0  0  0  0  0  0  0  0  0  0  0
  186.5860  174.7010  134.9420 C   0  0  0  0  0  2  0  0  0  0  0  0
  185.9330  173.4490  135.5380 C   0  0  2  0  0  3  0  0  0  0  0  0
  186.3800  172.2360  134.7470 C   0  0  0  0  0  1  0  0  0  0  0  0
  182.2590  173.9150  136.4740 N   0  0  0  0  0  2  0  0  0  0  0  0
  184.4840  173.5730  135.4710 N   0  0  0  0  0  2  0  0  0  0  0  0
  184.2110  174.0070  137.7500 O   0  0  0  0  0  0  0  0  0  0  0  0
  183.6760  173.8370  136.6190 C   0  0  0  0  0  0  0  0  0  0  0  0
  181.3790  174.1600  137.6070 C   0  0  0  0  0  2  0  0  0  0  0  0
  181.1740  175.6550  137.7920 C   0  0  0  0  0  2  0  0  0  0  0  0
  180.0960  175.9390  138.8230 C   0  0  0  0  0  2  0  0  0  0  0  0
  180.2260  174.9890  139.9980 C   0  0  0  0  0  1  0  0  0  0  0  0
  190.1310  177.3780  140.7350 C   0  0  1  0  0  3  0  0  0  0  0  0
  189.7770  177.0110  143.1260 C   0  0  1  0  0  3  0  0  0  0  0  0
  191.1540  175.6190  145.0930 C   0  0  0  0  0  3  0  0  0  0  0  0
  189.9700  178.5140  143.3260 C   0  0  0  0  0  2  0  0  0  0  0  0
  191.6680  178.1060  145.2240 C   0  0  0  0  0  3  0  0  0  0  0  0
  191.3810  175.3280  143.6190 C   0  0  0  0  0  2  0  0  0  0  0  0
  191.2350  176.7860  145.7790 C   0  0  0  0  0  0  0  0  0  0  0  0
  189.9690  176.3770  141.7940 N   0  0  0  0  0  0  0  0  0  0  0  0
  191.1610  178.8360  144.2090 C   0  0  0  0  0  3  0  0  0  0  0  0
  191.0970  176.5190  142.7250 C   0  0  1  0  0  3  0  0  0  0  0  0
  191.0700  176.7190  147.2800 C   0  0  0  0  0  0  0  0  0  0  0  0
  192.1940  177.2090  147.9270 F   0  0  0  0  0  0  0  0  0  0  0  0
  190.9030  175.3990  147.6670 F   0  0  0  0  0  0  0  0  0  0  0  0
  188.6490  177.0620  147.0180 N   0  0  0  0  0  1  0  0  0  0  0  0
  189.8420  177.5090  147.7240 C   0  0  0  0  0  2  0  0  0  0  0  0
  192.7430  175.8620  137.6680 C   0  0  0  0  0  3  0  0  0  0  0  0
  192.3740  177.3270  139.5620 C   0  0  0  0  0  3  0  0  0  0  0  0
  191.4260  175.3990  137.7680 C   0  0  0  0  0  3  0  0  0  0  0  0
  191.0500  176.8680  139.6630 C   0  0  0  0  0  0  0  0  0  0  0  0
  190.5820  175.9010  138.7640 C   0  0  0  0  0  3  0  0  0  0  0  0
  193.2170  176.8250  138.5650 C   0  0  0  0  0  3  0  0  0  0  0  0
  1 10  1  0  0  0  0
  1  5  1  0  0  0  0
  2  7  2  0  0  0  0
  3 10  1  0  0  0  0
  4  8  1  0  0  0  0
  4  3  1  0  0  0  0
  7 27  1  0  0  0  0
  7  5  1  0  0  0  0
  8  1  2  0  0  0  0
  9  2  1  1  0  0  0
  9  8  1  0  0  0  0
 10  6  2  0  0  0  0
 12 11  1  6  0  0  0
 12  9  1  0  0  0  0
 13 15  1  0  0  0  0
 13 11  1  0  0  0  0
 14 12  1  0  0  0  0
 15 14  1  0  0  0  0
 16 17  1  0  0  0  0
 16 15  1  0  0  0  0
 17 18  1  6  0  0  0
 19 22  1  0  0  0  0
 19 23  1  0  0  0  0
 20 17  1  0  0  0  0
 20 22  1  0  0  0  0
 22 21  2  0  0  0  0
 23 24  1  0  0  0  0
 24 25  1  0  0  0  0
 25 26  1  0  0  0  0
 27 45  1  6  0  0  0
 27 34  1  0  0  0  0
 28 30  1  6  0  0  0
 29 33  2  0  0  0  0
 30 35  1  0  0  0  0
 31 33  1  0  0  0  0
 32 29  1  0  0  0  0
 33 37  1  0  0  0  0
 34 36  1  0  0  0  0
 34 28  1  0  0  0  0
 35 31  2  0  0  0  0
 36 28  1  0  0  0  0
 36 32  1  1  0  0  0
 37 39  1  0  0  0  0
 37 41  1  0  0  0  0
 37 38  1  0  0  0  0
 40 41  1  0  0  0  0
 42 44  2  0  0  0  0
 42 47  1  0  0  0  0
 43 45  1  0  0  0  0
 44 46  1  0  0  0  0
 46 45  2  0  0  0  0
 47 43  2  0  0  0  0
M  END
>  <MODEL>
4

>  <REMARK>
 VINA RESULT:      -7.4      4.080      8.633
  Name = 
  12 active torsions:
  status: ('A' for Active; 'I' for Inactive)
    1  A    between atoms: C_8  and  C_26
    2  A    between atoms: C_9  and  C_28
    3  A    between atoms: C_9  and  N_40
    4  A    between atoms: C_10  and  C_29
    5  A    between atoms: C_10  and  C_39
    6  A    between atoms: C_15  and  N_17
    7  A    between atoms: C_15  and  C_26
    8  A    between atoms: C_21  and  C_45
    9  A    between atoms: C_25  and  C_30
   10  A    between atoms: C_25  and  C_32
   11  A    between atoms: C_25  and  N_41
   12  A    between atoms: C_28  and  N_31
                            x       y       z     vdW  Elec       q    Type
                         _______ _______ _______ _____ _____    ______ ____

>  <TORSDO>
F 12

$$$$
=
 OpenBabel11062417313D

 47 52  0  0  1  0  0  0  0  0999 V2000
  185.0430  178.5700  142.9440 C   0  0  0  0  0  0  0  0  0  0  0  0
  186.2990  178.2480  140.5860 N   0  0  0  0  0  0  0  0  0  0  0  0
  182.9180  178.9960  143.3970 N   0  0  0  0  0  2  0  0  0  0  0  0
  183.0700  178.9190  142.0950 O   0  0  0  0  0  0  0  0  0  0  0  0
  186.3710  178.3140  142.9640 N   0  0  0  0  0  2  0  0  0  0  0  0
  184.3760  178.8020  145.1830 O   0  0  0  0  0  0  0  0  0  0  0  0
  187.0080  178.1500  141.7610 C   0  0  0  0  0  0  0  0  0  0  0  0
  184.3260  178.6660  141.8010 C   0  0  0  0  0  0  0  0  0  0  0  0
  184.9540  178.5010  140.5740 C   0  0  2  0  0  3  0  0  0  0  0  0
  184.1370  178.7850  143.9460 C   0  0  0  0  0  0  0  0  0  0  0  0
  185.1210  178.4690  138.1070 C   0  0  0  0  0  2  0  0  0  0  0  0
  184.1860  178.5740  139.2930 C   0  0  1  0  0  3  0  0  0  0  0  0
  184.5950  177.3160  137.2810 C   0  0  0  0  0  2  0  0  0  0  0  0
  183.2350  177.3960  139.1800 C   0  0  0  0  0  2  0  0  0  0  0  0
  183.7580  176.5020  138.1520 N   0  0  0  0  0  0  0  0  0  0  0  0
  182.6550  175.8970  137.3960 C   0  0  0  0  0  2  0  0  0  0  0  0
  183.0160  174.5720  136.7160 C   0  0  2  0  0  3  0  0  0  0  0  0
  181.8130  173.6520  136.7600 C   0  0  0  0  0  1  0  0  0  0  0  0
  186.3600  172.8950  137.4920 N   0  0  0  0  0  2  0  0  0  0  0  0
  184.1350  173.9520  137.4120 N   0  0  0  0  0  2  0  0  0  0  0  0
  185.4490  173.6970  135.4970 O   0  0  0  0  0  0  0  0  0  0  0  0
  185.3200  173.5210  136.7410 C   0  0  0  0  0  0  0  0  0  0  0  0
  187.5820  172.4140  136.8660 C   0  0  0  0  0  2  0  0  0  0  0  0
  188.6320  173.5130  136.8640 C   0  0  0  0  0  2  0  0  0  0  0  0
  189.8040  173.1530  135.9670 C   0  0  0  0  0  2  0  0  0  0  0  0
  191.1100  173.5740  136.6120 C   0  0  0  0  0  1  0  0  0  0  0  0
  188.4840  177.8610  141.7060 C   0  0  1  0  0  3  0  0  0  0  0  0
  189.1030  176.8810  143.8580 C   0  0  1  0  0  3  0  0  0  0  0  0
  191.2420  175.3490  144.7420 C   0  0  0  0  0  3  0  0  0  0  0  0
  189.2260  178.3040  144.4050 C   0  0  0  0  0  2  0  0  0  0  0  0
  191.5490  177.7870  145.4000 C   0  0  0  0  0  3  0  0  0  0  0  0
  190.9130  175.4610  143.2630 C   0  0  0  0  0  2  0  0  0  0  0  0
  191.4760  176.3160  145.6640 C   0  0  0  0  0  0  0  0  0  0  0  0
  188.8260  176.6260  142.4200 N   0  0  0  0  0  0  0  0  0  0  0  0
  190.6310  178.6260  144.8770 C   0  0  0  0  0  3  0  0  0  0  0  0
  190.2070  176.7550  142.9050 C   0  0  1  0  0  3  0  0  0  0  0  0
  191.9030  175.8670  147.0430 C   0  0  0  0  0  0  0  0  0  0  0  0
  193.2020  175.3810  147.0290 F   0  0  0  0  0  0  0  0  0  0  0  0
  191.0760  174.8420  147.4720 F   0  0  0  0  0  0  0  0  0  0  0  0
  192.8890  176.9700  149.0070 N   0  0  0  0  0  1  0  0  0  0  0  0
  191.8000  177.0180  148.0410 C   0  0  0  0  0  2  0  0  0  0  0  0
  189.7970  177.7060  137.6100 C   0  0  0  0  0  3  0  0  0  0  0  0
  189.6190  176.6590  139.7880 C   0  0  0  0  0  3  0  0  0  0  0  0
  189.1370  178.8390  138.0990 C   0  0  0  0  0  3  0  0  0  0  0  0
  188.9600  177.7970  140.2830 C   0  0  0  0  0  0  0  0  0  0  0  0
  188.7180  178.8840  139.4320 C   0  0  0  0  0  3  0  0  0  0  0  0
  190.0380  176.6170  138.4540 C   0  0  0  0  0  3  0  0  0  0  0  0
  1  5  1  0  0  0  0
  1 10  1  0  0  0  0
  2  7  2  0  0  0  0
  3 10  1  0  0  0  0
  4  3  1  0  0  0  0
  7  5  1  0  0  0  0
  8  4  1  0  0  0  0
  8  1  2  0  0  0  0
  9  2  1  1  0  0  0
  9  8  1  0  0  0  0
 10  6  2  0  0  0  0
 12 11  1  6  0  0  0
 12  9  1  0  0  0  0
 13 11  1  0  0  0  0
 13 15  1  0  0  0  0
 14 12  1  0  0  0  0
 15 14  1  0  0  0  0
 16 15  1  0  0  0  0
 17 18  1  1  0  0  0
 17 16  1  0  0  0  0
 17 20  1  0  0  0  0
 21 22  2  0  0  0  0
 22 20  1  0  0  0  0
 22 19  1  0  0  0  0
 23 19  1  0  0  0  0
 24 23  1  0  0  0  0
 25 26  1  0  0  0  0
 25 24  1  0  0  0  0
 27 45  1  6  0  0  0
 27  7  1  0  0  0  0
 27 34  1  0  0  0  0
 28 30  1  6  0  0  0
 29 33  2  0  0  0  0
 30 35  1  0  0  0  0
 31 33  1  0  0  0  0
 32 29  1  0  0  0  0
 33 37  1  0  0  0  0
 34 36  1  0  0  0  0
 34 28  1  0  0  0  0
 35 31  2  0  0  0  0
 36 32  1  1  0  0  0
 36 28  1  0  0  0  0
 37 39  1  0  0  0  0
 37 41  1  0  0  0  0
 38 37  1  0  0  0  0
 41 40  1  0  0  0  0
 42 44  2  0  0  0  0
 42 47  1  0  0  0  0
 43 45  1  0  0  0  0
 44 46  1  0  0  0  0
 46 45  2  0  0  0  0
 47 43  2  0  0  0  0
M  END
>  <MODEL>
5

>  <REMARK>
 VINA RESULT:      -7.2      4.056      8.102
  Name = 
  12 active torsions:
  status: ('A' for Active; 'I' for Inactive)
    1  A    between atoms: C_8  and  C_26
    2  A    between atoms: C_9  and  C_28
    3  A    between atoms: C_9  and  N_40
    4  A    between atoms: C_10  and  C_29
    5  A    between atoms: C_10  and  C_39
    6  A    between atoms: C_15  and  N_17
    7  A    between atoms: C_15  and  C_26
    8  A    between atoms: C_21  and  C_45
    9  A    between atoms: C_25  and  C_30
   10  A    between atoms: C_25  and  C_32
   11  A    between atoms: C_25  and  N_41
   12  A    between atoms: C_28  and  N_31
                            x       y       z     vdW  Elec       q    Type
                         _______ _______ _______ _____ _____    ______ ____

>  <TORSDO>
F 12

$$$$
=
 OpenBabel11062417313D

 47 52  0  0  1  0  0  0  0  0999 V2000
  186.6940  178.6340  140.7060 C   0  0  0  0  0  0  0  0  0  0  0  0
  188.4730  177.5890  138.9790 N   0  0  0  0  0  0  0  0  0  0  0  0
  184.6290  179.3620  140.3820 N   0  0  0  0  0  2  0  0  0  0  0  0
  185.1140  178.9320  139.2410 O   0  0  0  0  0  0  0  0  0  0  0  0
  187.9040  178.2690  141.1880 N   0  0  0  0  0  2  0  0  0  0  0  0
  185.4920  179.5070  142.5240 O   0  0  0  0  0  0  0  0  0  0  0  0
  188.8080  177.7360  140.3050 C   0  0  0  0  0  0  0  0  0  0  0  0
  186.3420  178.4940  139.4080 C   0  0  0  0  0  0  0  0  0  0  0  0
  187.2440  177.9560  138.5000 C   0  0  2  0  0  3  0  0  0  0  0  0
  185.5990  179.1880  141.3090 C   0  0  0  0  0  0  0  0  0  0  0  0
  187.7910  176.7440  136.4160 C   0  0  0  0  0  2  0  0  0  0  0  0
  186.8770  177.7620  137.0640 C   0  0  1  0  0  3  0  0  0  0  0  0
  186.8720  175.6920  135.8320 C   0  0  0  0  0  2  0  0  0  0  0  0
  185.4730  177.1950  136.9490 C   0  0  0  0  0  2  0  0  0  0  0  0
  185.5900  175.8070  136.5140 N   0  0  0  0  0  0  0  0  0  0  0  0
  184.4870  175.4630  135.6100 C   0  0  0  0  0  2  0  0  0  0  0  0
  183.3140  174.7540  136.2950 C   0  0  2  0  0  3  0  0  0  0  0  0
  182.6640  173.8080  135.3050 C   0  0  0  0  0  1  0  0  0  0  0  0
  181.1800  177.0440  138.4840 N   0  0  0  0  0  2  0  0  0  0  0  0
  182.3410  175.7390  136.7460 N   0  0  0  0  0  2  0  0  0  0  0  0
  182.9100  175.5660  139.0060 O   0  0  0  0  0  0  0  0  0  0  0  0
  182.1770  176.0900  138.1210 C   0  0  0  0  0  0  0  0  0  0  0  0
  180.9470  177.4290  139.8680 C   0  0  0  0  0  2  0  0  0  0  0  0
  181.0210  178.9400  140.0070 C   0  0  0  0  0  2  0  0  0  0  0  0
  180.7630  179.6290  138.6780 C   0  0  0  0  0  2  0  0  0  0  0  0
  181.8520  180.6450  138.3900 C   0  0  0  0  0  1  0  0  0  0  0  0
  190.1740  177.3050  140.7690 C   0  0  1  0  0  3  0  0  0  0  0  0
  189.8690  176.8520  143.1510 C   0  0  1  0  0  3  0  0  0  0  0  0
  191.3650  175.5200  145.0730 C   0  0  0  0  0  3  0  0  0  0  0  0
  189.9490  178.3610  143.3890 C   0  0  0  0  0  2  0  0  0  0  0  0
  191.6900  178.0350  145.2640 C   0  0  0  0  0  3  0  0  0  0  0  0
  191.6000  175.2840  143.5910 C   0  0  0  0  0  2  0  0  0  0  0  0
  191.3630  176.6730  145.7880 C   0  0  0  0  0  0  0  0  0  0  0  0
  190.0970  176.2680  141.8030 N   0  0  0  0  0  0  0  0  0  0  0  0
  191.1200  178.7490  144.2720 C   0  0  0  0  0  3  0  0  0  0  0  0
  191.2190  176.4730  142.7300 C   0  0  1  0  0  3  0  0  0  0  0  0
  191.2160  176.5560  147.2880 C   0  0  0  0  0  0  0  0  0  0  0  0
  189.9760  176.0370  147.6280 F   0  0  0  0  0  0  0  0  0  0  0  0
  191.3170  177.8130  147.8610 F   0  0  0  0  0  0  0  0  0  0  0  0
  193.1610  176.4240  148.7860 N   0  0  0  0  0  1  0  0  0  0  0  0
  192.3150  175.6710  147.8710 C   0  0  0  0  0  2  0  0  0  0  0  0
  192.5780  176.0100  137.4420 C   0  0  0  0  0  3  0  0  0  0  0  0
  190.4730  175.9670  138.6410 C   0  0  0  0  0  3  0  0  0  0  0  0
  193.1090  176.8780  138.4030 C   0  0  0  0  0  3  0  0  0  0  0  0
  191.0040  176.8340  139.6100 C   0  0  0  0  0  0  0  0  0  0  0  0
  192.3230  177.2900  139.4840 C   0  0  0  0  0  3  0  0  0  0  0  0
  191.2610  175.5540  137.5610 C   0  0  0  0  0  3  0  0  0  0  0  0
  1  5  1  0  0  0  0
  1 10  1  0  0  0  0
  2  7  2  0  0  0  0
  3 10  1  0  0  0  0
  4  8  1  0  0  0  0
  4  3  1  0  0  0  0
  7 27  1  0  0  0  0
  7  5  1  0  0  0  0
  8  1  2  0  0  0  0
  9  2  1  1  0  0  0
  9  8  1  0  0  0  0
 10  6  2  0  0  0  0
 12 11  1  1  0  0  0
 12  9  1  0  0  0  0
 13 11  1  0  0  0  0
 13 15  1  0  0  0  0
 14 12  1  0  0  0  0
 15 14  1  0  0  0  0
 16 17  1  0  0  0  0
 16 15  1  0  0  0  0
 17 18  1  6  0  0  0
 17 20  1  0  0  0  0
 19 23  1  0  0  0  0
 20 22  1  0  0  0  0
 22 19  1  0  0  0  0
 22 21  2  0  0  0  0
 23 24  1  0  0  0  0
 25 24  1  0  0  0  0
 26 25  1  0  0  0  0
 27 45  1  6  0  0  0
 27 34  1  0  0  0  0
 28 30  1  6  0  0  0
 29 33  2  0  0  0  0
 30 35  1  0  0  0  0
 31 33  1  0  0  0  0
 32 29  1  0  0  0  0
 33 37  1  0  0  0  0
 34 36  1  0  0  0  0
 34 28  1  0  0  0  0
 35 31  2  0  0  0  0
 36 28  1  0  0  0  0
 36 32  1  1  0  0  0
 37 38  1  0  0  0  0
 37 39  1  0  0  0  0
 37 41  1  0  0  0  0
 41 40  1  0  0  0  0
 42 47  2  0  0  0  0
 42 44  1  0  0  0  0
 43 45  2  0  0  0  0
 44 46  2  0  0  0  0
 46 45  1  0  0  0  0
 47 43  1  0  0  0  0
M  END
>  <MODEL>
6

>  <REMARK>
 VINA RESULT:      -7.0      4.162      8.085
  Name = 
  12 active torsions:
  status: ('A' for Active; 'I' for Inactive)
    1  A    between atoms: C_8  and  C_26
    2  A    between atoms: C_9  and  C_28
    3  A    between atoms: C_9  and  N_40
    4  A    between atoms: C_10  and  C_29
    5  A    between atoms: C_10  and  C_39
    6  A    between atoms: C_15  and  N_17
    7  A    between atoms: C_15  and  C_26
    8  A    between atoms: C_21  and  C_45
    9  A    between atoms: C_25  and  C_30
   10  A    between atoms: C_25  and  C_32
   11  A    between atoms: C_25  and  N_41
   12  A    between atoms: C_28  and  N_31
                            x       y       z     vdW  Elec       q    Type
                         _______ _______ _______ _____ _____    ______ ____

>  <TORSDO>
F 12

$$$$
=
 OpenBabel11062417313D

 47 52  0  0  1  0  0  0  0  0999 V2000
  184.1460  178.7340  143.3440 C   0  0  0  0  0  0  0  0  0  0  0  0
  185.4250  178.3910  141.0020 N   0  0  0  0  0  0  0  0  0  0  0  0
  184.9400  179.0410  145.3870 N   0  0  0  0  0  2  0  0  0  0  0  0
  185.9450  178.9270  144.5510 O   0  0  0  0  0  0  0  0  0  0  0  0
  183.3950  178.5640  142.2320 N   0  0  0  0  0  2  0  0  0  0  0  0
  182.6420  178.9640  145.1320 O   0  0  0  0  0  0  0  0  0  0  0  0
  184.0500  178.3910  141.0400 C   0  0  0  0  0  0  0  0  0  0  0  0
  185.4980  178.7430  143.3290 C   0  0  0  0  0  0  0  0  0  0  0  0
  186.1780  178.5700  142.1310 C   0  0  2  0  0  3  0  0  0  0  0  0
  183.8080  178.9210  144.6560 C   0  0  0  0  0  0  0  0  0  0  0  0
  188.2520  177.3400  142.6790 C   0  0  0  0  0  2  0  0  0  0  0  0
  187.6720  178.6020  142.0760 C   0  0  1  0  0  3  0  0  0  0  0  0
  189.1480  176.7570  141.6070 C   0  0  0  0  0  2  0  0  0  0  0  0
  188.1460  178.6310  140.6340 C   0  0  0  0  0  2  0  0  0  0  0  0
  188.7320  177.3290  140.3330 N   0  0  0  0  0  0  0  0  0  0  0  0
  189.8810  177.4840  139.4330 C   0  0  0  0  0  2  0  0  0  0  0  0
  189.7580  176.7000  138.1220 C   0  0  2  0  0  3  0  0  0  0  0  0
  188.3210  176.2500  137.9500 C   0  0  0  0  0  1  0  0  0  0  0  0
  192.8140  174.4200  137.8880 N   0  0  0  0  0  2  0  0  0  0  0  0
  190.6350  175.5380  138.1610 N   0  0  0  0  0  2  0  0  0  0  0  0
  192.5610  176.7180  137.5640 O   0  0  0  0  0  0  0  0  0  0  0  0
  192.0290  175.6110  137.8550 C   0  0  0  0  0  0  0  0  0  0  0  0
  194.2330  174.4230  137.5660 C   0  0  0  0  0  2  0  0  0  0  0  0
  194.7530  172.9960  137.5000 C   0  0  0  0  0  2  0  0  0  0  0  0
  196.0050  172.9060  136.6450 C   0  0  0  0  0  2  0  0  0  0  0  0
  197.0790  172.1120  137.3640 C   0  0  0  0  0  1  0  0  0  0  0  0
  183.2800  178.1980  139.7600 C   0  0  1  0  0  3  0  0  0  0  0  0
  183.1630  175.9550  138.7950 C   0  0  1  0  0  3  0  0  0  0  0  0
  181.2010  174.5330  137.4420 C   0  0  0  0  0  3  0  0  0  0  0  0
  184.2590  176.3810  137.8170 C   0  0  0  0  0  2  0  0  0  0  0  0
  182.9000  175.4940  135.8120 C   0  0  0  0  0  3  0  0  0  0  0  0
  180.8520  175.7470  138.2850 C   0  0  0  0  0  2  0  0  0  0  0  0
  182.0850  174.3980  136.4220 C   0  0  0  0  0  0  0  0  0  0  0  0
  182.5560  176.9220  139.7470 N   0  0  0  0  0  0  0  0  0  0  0  0
  183.8020  176.3280  136.3720 C   0  0  0  0  0  3  0  0  0  0  0  0
  181.9910  176.7400  138.4020 C   0  0  1  0  0  3  0  0  0  0  0  0
  182.1100  173.0710  135.6990 C   0  0  0  0  0  0  0  0  0  0  0  0
  183.0080  173.0970  134.6410 F   0  0  0  0  0  0  0  0  0  0  0  0
  180.8540  172.8070  135.1760 F   0  0  0  0  0  0  0  0  0  0  0  0
  183.8610  172.0680  137.1020 N   0  0  0  0  0  1  0  0  0  0  0  0
  182.4810  171.9410  136.6550 C   0  0  0  0  0  2  0  0  0  0  0  0
  180.6230  181.5190  139.1020 C   0  0  0  0  0  3  0  0  0  0  0  0
  181.0790  179.3840  140.1540 C   0  0  0  0  0  3  0  0  0  0  0  0
  181.8780  181.4830  138.4830 C   0  0  0  0  0  3  0  0  0  0  0  0
  182.3370  179.3430  139.5300 C   0  0  0  0  0  0  0  0  0  0  0  0
  182.7340  180.3980  138.6980 C   0  0  0  0  0  3  0  0  0  0  0  0
  180.2240  180.4700  139.9370 C   0  0  0  0  0  3  0  0  0  0  0  0
  1 10  1  0  0  0  0
  2  7  2  0  0  0  0
  4  3  1  0  0  0  0
  5  1  1  0  0  0  0
  7  5  1  0  0  0  0
  8  1  2  0  0  0  0
  8  4  1  0  0  0  0
  9  2  1  6  0  0  0
  9  8  1  0  0  0  0
 10  6  2  0  0  0  0
 10  3  1  0  0  0  0
 12 14  1  6  0  0  0
 12  9  1  0  0  0  0
 12 11  1  0  0  0  0
 13 11  1  0  0  0  0
 15 14  1  0  0  0  0
 15 13  1  0  0  0  0
 16 15  1  0  0  0  0
 17 18  1  1  0  0  0
 17 20  1  0  0  0  0
 17 16  1  0  0  0  0
 21 22  2  0  0  0  0
 22 19  1  0  0  0  0
 22 20  1  0  0  0  0
 23 19  1  0  0  0  0
 24 23  1  0  0  0  0
 25 26  1  0  0  0  0
 25 24  1  0  0  0  0
 27 45  1  1  0  0  0
 27  7  1  0  0  0  0
 28 30  1  6  0  0  0
 28 34  1  0  0  0  0
 29 32  1  0  0  0  0
 31 35  2  0  0  0  0
 31 33  1  0  0  0  0
 33 29  2  0  0  0  0
 34 27  1  0  0  0  0
 35 30  1  0  0  0  0
 36 32  1  1  0  0  0
 36 28  1  0  0  0  0
 36 34  1  0  0  0  0
 37 33  1  0  0  0  0
 37 41  1  0  0  0  0
 38 37  1  0  0  0  0
 39 37  1  0  0  0  0
 41 40  1  0  0  0  0
 42 47  1  0  0  0  0
 44 46  1  0  0  0  0
 44 42  2  0  0  0  0
 45 43  1  0  0  0  0
 46 45  2  0  0  0  0
 47 43  2  0  0  0  0
M  END
>  <MODEL>
7

>  <REMARK>
 VINA RESULT:      -6.9      4.490      9.609
  Name = 
  12 active torsions:
  status: ('A' for Active; 'I' for Inactive)
    1  A    between atoms: C_8  and  C_26
    2  A    between atoms: C_9  and  C_28
    3  A    between atoms: C_9  and  N_40
    4  A    between atoms: C_10  and  C_29
    5  A    between atoms: C_10  and  C_39
    6  A    between atoms: C_15  and  N_17
    7  A    between atoms: C_15  and  C_26
    8  A    between atoms: C_21  and  C_45
    9  A    between atoms: C_25  and  C_30
   10  A    between atoms: C_25  and  C_32
   11  A    between atoms: C_25  and  N_41
   12  A    between atoms: C_28  and  N_31
                            x       y       z     vdW  Elec       q    Type
                         _______ _______ _______ _____ _____    ______ ____

>  <TORSDO>
F 12

$$$$
=
 OpenBabel11062417313D

 47 52  0  0  1  0  0  0  0  0999 V2000
  188.4960  177.5540  142.8060 C   0  0  0  0  0  0  0  0  0  0  0  0
  187.3850  178.3170  140.4780 N   0  0  0  0  0  0  0  0  0  0  0  0
  190.5680  176.9360  143.2800 N   0  0  0  0  0  2  0  0  0  0  0  0
  190.4900  177.2270  142.0020 O   0  0  0  0  0  0  0  0  0  0  0  0
  187.1840  177.8820  142.8090 N   0  0  0  0  0  2  0  0  0  0  0  0
  189.0290  176.9330  145.0070 O   0  0  0  0  0  0  0  0  0  0  0  0
  186.6210  178.2720  141.6200 C   0  0  0  0  0  0  0  0  0  0  0  0
  189.2670  177.5970  141.6960 C   0  0  0  0  0  0  0  0  0  0  0  0
  188.7150  177.9900  140.4850 C   0  0  2  0  0  3  0  0  0  0  0  0
  189.3350  177.1310  143.8000 C   0  0  0  0  0  0  0  0  0  0  0  0
  190.2760  176.7700  139.0050 C   0  0  0  0  0  2  0  0  0  0  0  0
  189.5450  178.0750  139.2440 C   0  0  1  0  0  3  0  0  0  0  0  0
  189.8890  176.3430  137.6050 C   0  0  0  0  0  2  0  0  0  0  0  0
  188.6600  178.2860  138.0290 C   0  0  0  0  0  2  0  0  0  0  0  0
  188.6610  177.0460  137.2600 N   0  0  0  0  0  0  0  0  0  0  0  0
  188.6170  177.3400  135.8220 C   0  0  0  0  0  2  0  0  0  0  0  0
  187.3570  176.8270  135.1180 C   0  0  2  0  0  3  0  0  0  0  0  0
  186.5690  178.0110  134.5940 C   0  0  0  0  0  1  0  0  0  0  0  0
  185.5330  173.9930  136.9160 N   0  0  0  0  0  2  0  0  0  0  0  0
  186.5420  176.0720  136.0580 N   0  0  0  0  0  2  0  0  0  0  0  0
  186.9650  173.9960  135.0720 O   0  0  0  0  0  0  0  0  0  0  0  0
  186.3730  174.6550  135.9710 C   0  0  0  0  0  0  0  0  0  0  0  0
  185.3020  172.5570  136.8690 C   0  0  0  0  0  2  0  0  0  0  0  0
  183.8530  172.2530  137.2150 C   0  0  0  0  0  2  0  0  0  0  0  0
  183.3730  170.9950  136.5130 C   0  0  0  0  0  2  0  0  0  0  0  0
  184.4070  170.5230  135.5090 C   0  0  0  0  0  1  0  0  0  0  0  0
  185.1670  178.6520  141.5460 C   0  0  1  0  0  3  0  0  0  0  0  0
  184.0780  178.2730  139.3900 C   0  0  1  0  0  3  0  0  0  0  0  0
  181.4990  177.5980  138.6180 C   0  0  0  0  0  3  0  0  0  0  0  0
  184.3490  179.7410  139.0610 C   0  0  0  0  0  2  0  0  0  0  0  0
  181.8970  180.0950  138.3410 C   0  0  0  0  0  3  0  0  0  0  0  0
  181.9830  177.3580  140.0380 C   0  0  0  0  0  2  0  0  0  0  0  0
  181.4880  178.7330  137.8760 C   0  0  0  0  0  0  0  0  0  0  0  0
  184.3970  177.7080  140.7290 N   0  0  0  0  0  0  0  0  0  0  0  0
  183.0730  180.5310  138.8380 C   0  0  0  0  0  3  0  0  0  0  0  0
  183.0830  178.3120  140.4630 C   0  0  1  0  0  3  0  0  0  0  0  0
  180.8170  178.6670  136.5230 C   0  0  0  0  0  0  0  0  0  0  0  0
  179.6350  177.9450  136.5870 F   0  0  0  0  0  0  0  0  0  0  0  0
  181.6530  178.0260  135.6240 F   0  0  0  0  0  0  0  0  0  0  0  0
  179.1560  180.1770  135.5210 N   0  0  0  0  0  1  0  0  0  0  0  0
  180.5290  180.0700  135.9950 C   0  0  0  0  0  2  0  0  0  0  0  0
  183.4300  179.0010  145.4690 C   0  0  0  0  0  3  0  0  0  0  0  0
  185.3940  178.9330  144.0520 C   0  0  0  0  0  3  0  0  0  0  0  0
  182.6120  178.8350  144.3450 C   0  0  0  0  0  3  0  0  0  0  0  0
  184.5760  178.7620  142.9220 C   0  0  0  0  0  0  0  0  0  0  0  0
  183.1840  178.7180  143.0740 C   0  0  0  0  0  3  0  0  0  0  0  0
  184.8200  179.0490  145.3220 C   0  0  0  0  0  3  0  0  0  0  0  0
  1  5  1  0  0  0  0
  1 10  1  0  0  0  0
  2  7  2  0  0  0  0
  3 10  1  0  0  0  0
  4  3  1  0  0  0  0
  7  5  1  0  0  0  0
  8  4  1  0  0  0  0
  8  1  2  0  0  0  0
  9  2  1  1  0  0  0
  9  8  1  0  0  0  0
 10  6  2  0  0  0  0
 11 12  1  0  0  0  0
 12 14  1  6  0  0  0
 12  9  1  0  0  0  0
 13 11  1  0  0  0  0
 15 13  1  0  0  0  0
 15 14  1  0  0  0  0
 16 15  1  0  0  0  0
 17 18  1  1  0  0  0
 17 16  1  0  0  0  0
 17 20  1  0  0  0  0
 21 22  2  0  0  0  0
 22 20  1  0  0  0  0
 22 19  1  0  0  0  0
 23 19  1  0  0  0  0
 23 24  1  0  0  0  0
 25 24  1  0  0  0  0
 26 25  1  0  0  0  0
 27  7  1  1  0  0  0
 27 45  1  0  0  0  0
 28 30  1  1  0  0  0
 28 36  1  0  0  0  0
 28 34  1  0  0  0  0
 29 32  1  0  0  0  0
 31 35  2  0  0  0  0
 33 31  1  0  0  0  0
 33 29  2  0  0  0  0
 34 27  1  0  0  0  0
 35 30  1  0  0  0  0
 36 32  1  6  0  0  0
 36 34  1  0  0  0  0
 37 38  1  0  0  0  0
 37 33  1  0  0  0  0
 39 37  1  0  0  0  0
 40 41  1  0  0  0  0
 41 37  1  0  0  0  0
 43 47  2  0  0  0  0
 44 42  2  0  0  0  0
 45 46  2  0  0  0  0
 45 43  1  0  0  0  0
 46 44  1  0  0  0  0
 47 42  1  0  0  0  0
M  END
>  <MODEL>
8

>  <REMARK>
 VINA RESULT:      -6.8      4.812     10.295
  Name = 
  12 active torsions:
  status: ('A' for Active; 'I' for Inactive)
    1  A    between atoms: C_8  and  C_26
    2  A    between atoms: C_9  and  C_28
    3  A    between atoms: C_9  and  N_40
    4  A    between atoms: C_10  and  C_29
    5  A    between atoms: C_10  and  C_39
    6  A    between atoms: C_15  and  N_17
    7  A    between atoms: C_15  and  C_26
    8  A    between atoms: C_21  and  C_45
    9  A    between atoms: C_25  and  C_30
   10  A    between atoms: C_25  and  C_32
   11  A    between atoms: C_25  and  N_41
   12  A    between atoms: C_28  and  N_31
                            x       y       z     vdW  Elec       q    Type
                         _______ _______ _______ _____ _____    ______ ____

>  <TORSDO>
F 12

$$$$
=
 OpenBabel11062417313D

 47 52  0  0  1  0  0  0  0  0999 V2000
  189.2720  177.1010  139.5140 C   0  0  0  0  0  0  0  0  0  0  0  0
  188.7290  176.5160  136.9450 N   0  0  0  0  0  0  0  0  0  0  0  0
  188.2020  178.4000  140.9530 N   0  0  0  0  0  2  0  0  0  0  0  0
  187.5620  178.4130  139.8070 O   0  0  0  0  0  0  0  0  0  0  0  0
  190.1120  176.2630  138.8650 N   0  0  0  0  0  2  0  0  0  0  0  0
  190.1300  177.3500  141.6850 O   0  0  0  0  0  0  0  0  0  0  0  0
  189.8320  175.9660  137.5560 C   0  0  0  0  0  0  0  0  0  0  0  0
  188.1800  177.6480  138.9350 C   0  0  0  0  0  0  0  0  0  0  0  0
  187.8800  177.3580  137.6110 C   0  0  2  0  0  3  0  0  0  0  0  0
  189.2740  177.5890  140.7920 C   0  0  0  0  0  0  0  0  0  0  0  0
  185.8960  176.8360  136.2300 C   0  0  0  0  0  2  0  0  0  0  0  0
  186.6650  177.9250  136.9480 C   0  0  1  0  0  3  0  0  0  0  0  0
  184.4900  176.9040  136.7850 C   0  0  0  0  0  2  0  0  0  0  0  0
  185.7130  178.4920  137.9860 C   0  0  0  0  0  2  0  0  0  0  0  0
  184.5580  177.6030  138.0610 N   0  0  0  0  0  0  0  0  0  0  0  0
  183.3350  178.3790  138.2950 C   0  0  0  0  0  2  0  0  0  0  0  0
  182.8500  178.3590  139.7480 C   0  0  2  0  0  3  0  0  0  0  0  0
  181.5560  179.1430  139.8470 C   0  0  0  0  0  1  0  0  0  0  0  0
  184.9260  179.3620  142.7940 N   0  0  0  0  0  2  0  0  0  0  0  0
  183.8570  178.9620  140.6090 N   0  0  0  0  0  2  0  0  0  0  0  0
  183.1140  177.9090  142.5580 O   0  0  0  0  0  0  0  0  0  0  0  0
  183.9260  178.7080  142.0140 C   0  0  0  0  0  0  0  0  0  0  0  0
  185.0360  179.1630  144.2310 C   0  0  0  0  0  2  0  0  0  0  0  0
  186.1030  178.1230  144.5320 C   0  0  0  0  0  2  0  0  0  0  0  0
  186.0430  177.6770  145.9820 C   0  0  0  0  0  2  0  0  0  0  0  0
  185.7750  178.8630  146.8880 C   0  0  0  0  0  1  0  0  0  0  0  0
  190.7210  175.0400  136.7700 C   0  0  1  0  0  3  0  0  0  0  0  0
  193.1310  175.2670  137.1100 C   0  0  1  0  0  3  0  0  0  0  0  0
  195.2600  173.4860  137.1150 C   0  0  0  0  0  3  0  0  0  0  0  0
  193.1720  176.1170  135.8390 C   0  0  0  0  0  2  0  0  0  0  0  0
  195.1310  174.7270  134.8990 C   0  0  0  0  0  3  0  0  0  0  0  0
  193.8300  173.0030  137.2890 C   0  0  0  0  0  2  0  0  0  0  0  0
  195.8170  174.2410  136.1360 C   0  0  0  0  0  0  0  0  0  0  0  0
  191.8790  174.5990  137.5550 N   0  0  0  0  0  0  0  0  0  0  0  0
  194.0350  175.5000  134.7550 C   0  0  0  0  0  3  0  0  0  0  0  0
  192.8080  173.9180  136.6420 C   0  0  1  0  0  3  0  0  0  0  0  0
  197.3140  174.4470  136.1890 C   0  0  0  0  0  0  0  0  0  0  0  0
  197.6470  175.7620  135.8970 F   0  0  0  0  0  0  0  0  0  0  0  0
  197.9250  173.6390  135.2440 F   0  0  0  0  0  0  0  0  0  0  0  0
  198.1710  175.2690  138.3410 N   0  0  0  0  0  1  0  0  0  0  0  0
  197.8610  174.0770  137.5650 C   0  0  0  0  0  2  0  0  0  0  0  0
  188.4840  171.6350  135.3830 C   0  0  0  0  0  3  0  0  0  0  0  0
  190.3500  173.1570  135.1190 C   0  0  0  0  0  3  0  0  0  0  0  0
  188.0790  172.3280  136.5300 C   0  0  0  0  0  3  0  0  0  0  0  0
  189.9440  173.8580  136.2670 C   0  0  0  0  0  0  0  0  0  0  0  0
  188.8090  173.4370  136.9710 C   0  0  0  0  0  3  0  0  0  0  0  0
  189.6180  172.0490  134.6790 C   0  0  0  0  0  3  0  0  0  0  0  0
  1 10  1  0  0  0  0
  2  7  2  0  0  0  0
  4  3  1  0  0  0  0
  5  1  1  0  0  0  0
  7  5  1  0  0  0  0
  8  1  2  0  0  0  0
  8  4  1  0  0  0  0
  9  2  1  1  0  0  0
  9  8  1  0  0  0  0
 10  3  1  0  0  0  0
 10  6  2  0  0  0  0
 11 13  1  0  0  0  0
 12 11  1  1  0  0  0
 12  9  1  0  0  0  0
 12 14  1  0  0  0  0
 13 15  1  0  0  0  0
 14 15  1  0  0  0  0
 15 16  1  0  0  0  0
 16 17  1  0  0  0  0
 17 18  1  6  0  0  0
 17 20  1  0  0  0  0
 19 23  1  0  0  0  0
 20 22  1  0  0  0  0
 22 21  2  0  0  0  0
 22 19  1  0  0  0  0
 23 24  1  0  0  0  0
 24 25  1  0  0  0  0
 25 26  1  0  0  0  0
 27 45  1  1  0  0  0
 27 34  1  0  0  0  0
 27  7  1  0  0  0  0
 28 30  1  6  0  0  0
 28 34  1  0  0  0  0
 29 32  1  0  0  0  0
 31 33  1  0  0  0  0
 33 37  1  0  0  0  0
 33 29  2  0  0  0  0
 35 31  2  0  0  0  0
 35 30  1  0  0  0  0
 36 28  1  0  0  0  0
 36 32  1  1  0  0  0
 36 34  1  0  0  0  0
 37 41  1  0  0  0  0
 38 37  1  0  0  0  0
 39 37  1  0  0  0  0
 41 40  1  0  0  0  0
 42 44  1  0  0  0  0
 43 45  2  0  0  0  0
 44 46  2  0  0  0  0
 45 46  1  0  0  0  0
 47 43  1  0  0  0  0
 47 42  2  0  0  0  0
M  END
>  <MODEL>
9

>  <REMARK>
 VINA RESULT:      -6.7      2.188      3.400
  Name = 
  12 active torsions:
  status: ('A' for Active; 'I' for Inactive)
    1  A    between atoms: C_8  and  C_26
    2  A    between atoms: C_9  and  C_28
    3  A    between atoms: C_9  and  N_40
    4  A    between atoms: C_10  and  C_29
    5  A    between atoms: C_10  and  C_39
    6  A    between atoms: C_15  and  N_17
    7  A    between atoms: C_15  and  C_26
    8  A    between atoms: C_21  and  C_45
    9  A    between atoms: C_25  and  C_30
   10  A    between atoms: C_25  and  C_32
   11  A    between atoms: C_25  and  N_41
   12  A    between atoms: C_28  and  N_31
                            x       y       z     vdW  Elec       q    Type
                         _______ _______ _______ _____ _____    ______ ____

>  <TORSDO>
F 12

$$$$
