=
 OpenBabel11062413523D

 25 28  0  0  1  0  0  0  0  0999 V2000
  189.1600  177.1990  145.7180 C   0  0  0  0  0  0  0  0  0  0  0  0
  191.1840  175.6610  143.2210 N   0  0  0  0  0  2  0  0  0  0  0  0
  189.9730  176.4530  143.4040 C   0  0  1  0  0  3  0  0  0  0  0  0
  190.2550  177.2550  144.6820 C   0  0  2  0  0  3  0  0  0  0  0  0
  190.8810  176.8430  147.4500 C   0  0  0  0  0  3  0  0  0  0  0  0
  191.9760  175.7230  144.3690 N   0  0  0  0  0  0  0  0  0  0  0  0
  191.4830  176.5810  145.1890 C   0  0  0  0  0  0  0  0  0  0  0  0
  189.4790  177.0690  147.0210 C   0  0  0  0  0  3  0  0  0  0  0  0
  191.8150  176.5940  146.5780 N   0  0  0  0  0  0  0  0  0  0  0  0
  189.7220  177.3410  142.1860 C   0  0  1  0  0  3  0  0  0  0  0  0
  190.4640  176.7970  140.9620 C   0  0  0  0  0  2  0  0  0  0  0  0
  188.2900  177.4570  141.8970 N   0  0  0  0  0  2  0  0  0  0  0  0
  188.8410  177.7850  139.5360 C   0  0  0  0  0  2  0  0  0  0  0  0
  190.8460  177.0940  138.7560 O   0  0  0  0  0  1  0  0  0  0  0  0
  188.1060  178.3470  140.7520 C   0  0  0  0  0  2  0  0  0  0  0  0
  190.2700  177.6930  139.8240 N   0  0  0  0  0  0  0  0  0  0  0  0
  187.8360  177.3760  145.3050 O   0  0  0  0  0  0  0  0  0  0  0  0
  186.8410  177.9950  146.1100 C   0  0  0  0  0  2  0  0  0  0  0  0
  185.7030  178.0990  143.8860 C   0  0  0  0  0  3  0  0  0  0  0  0
  185.6570  178.3110  145.2690 C   0  0  0  0  0  0  0  0  0  0  0  0
  183.4000  178.8230  143.6980 C   0  0  0  0  0  3  0  0  0  0  0  0
  184.4760  178.7660  145.8670 C   0  0  0  0  0  3  0  0  0  0  0  0
  184.5760  178.3580  143.1010 C   0  0  0  0  0  0  0  0  0  0  0  0
  183.3500  179.0260  145.0810 C   0  0  0  0  0  3  0  0  0  0  0  0
  184.6240  178.1520  141.7290 O   0  0  0  0  0  1  0  0  0  0  0  0
  1  8  2  0  0  0  0
  2  6  1  0  0  0  0
  3  2  1  6  0  0  0
  3  4  1  0  0  0  0
  4  7  1  1  0  0  0
  4  1  1  0  0  0  0
  6  7  2  0  0  0  0
  7  9  1  0  0  0  0
  8  5  1  0  0  0  0
  9  5  2  0  0  0  0
 10 11  1  6  0  0  0
 10  3  1  0  0  0  0
 12 10  1  0  0  0  0
 13 16  1  0  0  0  0
 13 15  1  0  0  0  0
 14 16  1  0  0  0  0
 15 12  1  0  0  0  0
 16 11  1  0  0  0  0
 17  1  1  0  0  0  0
 17 18  1  0  0  0  0
 19 20  1  0  0  0  0
 20 22  2  0  0  0  0
 20 18  1  0  0  0  0
 21 24  2  0  0  0  0
 23 21  1  0  0  0  0
 23 19  2  0  0  0  0
 24 22  1  0  0  0  0
 25 23  1  0  0  0  0
M  END
>  <MODEL>
1

>  <REMARK>
 VINA RESULT:      -9.6      0.000      0.000
  Name = 
  4 active torsions:
  status: ('A' for Active; 'I' for Inactive)
    1  A    between atoms: C_2  and  O_17
    2  A    between atoms: C_4  and  C_8
    3  A    between atoms: C_7  and  C_10
    4  A    between atoms: C_7  and  O_17
                            x       y       z     vdW  Elec       q    Type
                         _______ _______ _______ _____ _____    ______ ____

>  <TORSDO>
F 4

$$$$
=
 OpenBabel11062413523D

 25 28  0  0  1  0  0  0  0  0999 V2000
  188.4360  177.7410  141.5660 C   0  0  0  0  0  0  0  0  0  0  0  0
  191.6160  177.9190  143.1630 N   0  0  0  0  0  2  0  0  0  0  0  0
  190.1840  177.8960  143.4350 C   0  0  1  0  0  3  0  0  0  0  0  0
  189.6070  177.0920  142.2630 C   0  0  2  0  0  3  0  0  0  0  0  0
  189.4640  177.1630  139.3990 C   0  0  0  0  0  3  0  0  0  0  0  0
  191.8660  177.4690  141.8660 N   0  0  0  0  0  0  0  0  0  0  0  0
  190.7790  177.0210  141.3470 C   0  0  0  0  0  0  0  0  0  0  0  0
  188.3560  177.7080  140.2220 C   0  0  0  0  0  3  0  0  0  0  0  0
  190.6100  176.8600  139.9380 N   0  0  0  0  0  0  0  0  0  0  0  0
  189.9060  177.2520  144.7940 C   0  0  1  0  0  3  0  0  0  0  0  0
  191.1770  177.2280  145.6480 C   0  0  0  0  0  2  0  0  0  0  0  0
  188.8340  177.9530  145.5050 N   0  0  0  0  0  2  0  0  0  0  0  0
  189.8540  177.2680  147.6200 C   0  0  0  0  0  2  0  0  0  0  0  0
  192.0330  176.6700  147.6620 O   0  0  0  0  0  1  0  0  0  0  0  0
  188.5810  177.2730  146.7750 C   0  0  0  0  0  2  0  0  0  0  0  0
  190.9110  176.5500  146.9140 N   0  0  0  0  0  0  0  0  0  0  0  0
  187.4110  178.2860  142.3450 O   0  0  0  0  0  0  0  0  0  0  0  0
  186.1270  178.6140  141.8310 C   0  0  0  0  0  2  0  0  0  0  0  0
  185.6130  178.7340  144.2750 C   0  0  0  0  0  3  0  0  0  0  0  0
  185.1550  178.6930  142.9530 C   0  0  0  0  0  0  0  0  0  0  0  0
  183.3310  178.9310  145.0600 C   0  0  0  0  0  3  0  0  0  0  0  0
  183.7840  178.7840  142.6860 C   0  0  0  0  0  3  0  0  0  0  0  0
  184.7010  178.8500  145.3280 C   0  0  0  0  0  0  0  0  0  0  0  0
  182.8730  178.8990  143.7400 C   0  0  0  0  0  3  0  0  0  0  0  0
  185.1560  178.8860  146.6390 O   0  0  0  0  0  1  0  0  0  0  0  0
  1  4  1  0  0  0  0
  1 17  1  0  0  0  0
  3  2  1  6  0  0  0
  3 10  1  0  0  0  0
  4  7  1  6  0  0  0
  4  3  1  0  0  0  0
  5  9  2  0  0  0  0
  5  8  1  0  0  0  0
  6  2  1  0  0  0  0
  7  6  2  0  0  0  0
  8  1  2  0  0  0  0
  9  7  1  0  0  0  0
 10 12  1  0  0  0  0
 10 11  1  1  0  0  0
 11 16  1  0  0  0  0
 12 15  1  0  0  0  0
 15 13  1  0  0  0  0
 16 13  1  0  0  0  0
 16 14  1  0  0  0  0
 18 17  1  0  0  0  0
 18 20  1  0  0  0  0
 19 23  1  0  0  0  0
 20 19  2  0  0  0  0
 21 23  2  0  0  0  0
 22 20  1  0  0  0  0
 22 24  2  0  0  0  0
 23 25  1  0  0  0  0
 24 21  1  0  0  0  0
M  END
>  <MODEL>
2

>  <REMARK>
 VINA RESULT:      -9.2      1.807      4.805
  Name = 
  4 active torsions:
  status: ('A' for Active; 'I' for Inactive)
    1  A    between atoms: C_2  and  O_17
    2  A    between atoms: C_4  and  C_8
    3  A    between atoms: C_7  and  C_10
    4  A    between atoms: C_7  and  O_17
                            x       y       z     vdW  Elec       q    Type
                         _______ _______ _______ _____ _____    ______ ____

>  <TORSDO>
F 4

$$$$
=
 OpenBabel11062413523D

 25 28  0  0  1  0  0  0  0  0999 V2000
  184.8000  178.5570  143.8660 C   0  0  0  0  0  0  0  0  0  0  0  0
  185.7170  179.4630  140.5440 N   0  0  0  0  0  2  0  0  0  0  0  0
  186.2520  178.9080  141.7820 C   0  0  1  0  0  3  0  0  0  0  0  0
  185.0410  178.2110  142.4170 C   0  0  2  0  0  3  0  0  0  0  0  0
  182.3980  178.8040  143.3580 C   0  0  0  0  0  3  0  0  0  0  0  0
  184.3230  179.3930  140.5490 N   0  0  0  0  0  0  0  0  0  0  0  0
  183.9280  178.7210  141.5700 C   0  0  0  0  0  0  0  0  0  0  0  0
  183.5430  178.7700  144.3020 C   0  0  0  0  0  3  0  0  0  0  0  0
  182.5920  178.8000  142.0710 N   0  0  0  0  0  0  0  0  0  0  0  0
  187.4050  177.9500  141.4870 C   0  0  1  0  0  3  0  0  0  0  0  0
  187.9900  178.2230  140.0980 C   0  0  0  0  0  2  0  0  0  0  0  0
  188.4550  178.0510  142.5050 N   0  0  0  0  0  2  0  0  0  0  0  0
  190.0910  177.3790  140.8150 C   0  0  0  0  0  2  0  0  0  0  0  0
  189.5940  177.6280  138.6250 O   0  0  0  0  0  1  0  0  0  0  0  0
  189.5100  177.0860  142.1970 C   0  0  0  0  0  2  0  0  0  0  0  0
  189.0450  177.2560  139.8040 N   0  0  0  0  0  0  0  0  0  0  0  0
  185.8870  178.5590  144.7450 O   0  0  0  0  0  0  0  0  0  0  0  0
  185.7750  178.2570  146.1290 C   0  0  0  0  0  2  0  0  0  0  0  0
  188.1420  177.5030  145.8470 C   0  0  0  0  0  3  0  0  0  0  0  0
  187.1280  177.9840  146.6820 C   0  0  0  0  0  0  0  0  0  0  0  0
  189.6960  177.5510  147.7040 C   0  0  0  0  0  3  0  0  0  0  0  0
  187.4030  178.2610  148.0260 C   0  0  0  0  0  3  0  0  0  0  0  0
  189.4250  177.2840  146.3580 C   0  0  0  0  0  0  0  0  0  0  0  0
  188.6850  178.0410  148.5370 C   0  0  0  0  0  3  0  0  0  0  0  0
  190.4290  176.8030  145.5290 O   0  0  0  0  0  1  0  0  0  0  0  0
  1  8  2  0  0  0  0
  1 17  1  0  0  0  0
  2  6  1  0  0  0  0
  3  2  1  6  0  0  0
  3  4  1  0  0  0  0
  4  7  1  6  0  0  0
  4  1  1  0  0  0  0
  5  8  1  0  0  0  0
  6  7  2  0  0  0  0
  7  9  1  0  0  0  0
  9  5  2  0  0  0  0
 10 11  1  6  0  0  0
 10  3  1  0  0  0  0
 10 12  1  0  0  0  0
 13 15  1  0  0  0  0
 14 16  1  0  0  0  0
 15 12  1  0  0  0  0
 16 11  1  0  0  0  0
 16 13  1  0  0  0  0
 17 18  1  0  0  0  0
 18 20  1  0  0  0  0
 19 23  2  0  0  0  0
 19 20  1  0  0  0  0
 20 22  2  0  0  0  0
 21 24  2  0  0  0  0
 22 24  1  0  0  0  0
 23 21  1  0  0  0  0
 25 23  1  0  0  0  0
M  END
>  <MODEL>
3

>  <REMARK>
 VINA RESULT:      -9.1      2.091      5.615
  Name = 
  4 active torsions:
  status: ('A' for Active; 'I' for Inactive)
    1  A    between atoms: C_2  and  O_17
    2  A    between atoms: C_4  and  C_8
    3  A    between atoms: C_7  and  C_10
    4  A    between atoms: C_7  and  O_17
                            x       y       z     vdW  Elec       q    Type
                         _______ _______ _______ _____ _____    ______ ____

>  <TORSDO>
F 4

$$$$
=
 OpenBabel11062413523D

 25 28  0  0  1  0  0  0  0  0999 V2000
  187.8430  177.4180  145.3480 C   0  0  0  0  0  0  0  0  0  0  0  0
  191.1430  176.3380  144.5480 N   0  0  0  0  0  2  0  0  0  0  0  0
  189.8730  176.7260  143.9440 C   0  0  1  0  0  3  0  0  0  0  0  0
  189.2730  177.7040  144.9630 C   0  0  2  0  0  3  0  0  0  0  0  0
  188.4510  177.7990  147.7090 C   0  0  0  0  0  3  0  0  0  0  0  0
  191.1920  176.7630  145.8760 N   0  0  0  0  0  0  0  0  0  0  0  0
  190.1740  177.5040  146.1320 C   0  0  0  0  0  0  0  0  0  0  0  0
  187.4620  177.5300  146.6350 C   0  0  0  0  0  3  0  0  0  0  0  0
  189.7290  177.7650  147.4630 N   0  0  0  0  0  0  0  0  0  0  0  0
  190.1030  177.3600  142.5720 C   0  0  1  0  0  3  0  0  0  0  0  0
  191.5430  177.1290  142.1070 C   0  0  0  0  0  2  0  0  0  0  0  0
  189.1620  176.8340  141.5790 N   0  0  0  0  0  2  0  0  0  0  0  0
  190.8330  177.2530  139.8430 C   0  0  0  0  0  2  0  0  0  0  0  0
  193.0090  177.4540  140.4200 O   0  0  0  0  0  1  0  0  0  0  0  0
  189.3970  177.5030  140.3000 C   0  0  0  0  0  2  0  0  0  0  0  0
  191.7650  177.7970  140.8270 N   0  0  0  0  0  0  0  0  0  0  0  0
  186.9210  177.1290  144.3370 O   0  0  0  0  0  0  0  0  0  0  0  0
  186.5880  178.0390  143.2980 C   0  0  0  0  0  2  0  0  0  0  0  0
  184.3340  178.3390  142.2580 C   0  0  0  0  0  3  0  0  0  0  0  0
  185.1460  178.3890  143.3970 C   0  0  0  0  0  0  0  0  0  0  0  0
  182.4150  178.9620  143.5980 C   0  0  0  0  0  3  0  0  0  0  0  0
  184.5880  178.7130  144.6390 C   0  0  0  0  0  3  0  0  0  0  0  0
  182.9700  178.6280  142.3580 C   0  0  0  0  0  0  0  0  0  0  0  0
  183.2240  179.0020  144.7380 C   0  0  0  0  0  3  0  0  0  0  0  0
  182.1660  178.5820  141.2280 O   0  0  0  0  0  1  0  0  0  0  0  0
  1  8  2  0  0  0  0
  2  6  1  0  0  0  0
  3  2  1  1  0  0  0
  3  4  1  0  0  0  0
  4  1  1  1  0  0  0
  4  7  1  0  0  0  0
  6  7  2  0  0  0  0
  7  9  1  0  0  0  0
  8  5  1  0  0  0  0
  9  5  2  0  0  0  0
 10 11  1  6  0  0  0
 10  3  1  0  0  0  0
 12 10  1  0  0  0  0
 13 15  1  0  0  0  0
 13 16  1  0  0  0  0
 14 16  1  0  0  0  0
 15 12  1  0  0  0  0
 16 11  1  0  0  0  0
 17  1  1  0  0  0  0
 18 20  1  0  0  0  0
 18 17  1  0  0  0  0
 19 23  2  0  0  0  0
 19 20  1  0  0  0  0
 20 22  2  0  0  0  0
 21 24  2  0  0  0  0
 22 24  1  0  0  0  0
 23 21  1  0  0  0  0
 25 23  1  0  0  0  0
M  END
>  <MODEL>
4

>  <REMARK>
 VINA RESULT:      -8.7      1.396      1.826
  Name = 
  4 active torsions:
  status: ('A' for Active; 'I' for Inactive)
    1  A    between atoms: C_2  and  O_17
    2  A    between atoms: C_4  and  C_8
    3  A    between atoms: C_7  and  C_10
    4  A    between atoms: C_7  and  O_17
                            x       y       z     vdW  Elec       q    Type
                         _______ _______ _______ _____ _____    ______ ____

>  <TORSDO>
F 4

$$$$
=
 OpenBabel11062413523D

 25 28  0  0  1  0  0  0  0  0999 V2000
  188.1450  177.6780  145.1560 C   0  0  0  0  0  0  0  0  0  0  0  0
  185.2280  179.4480  146.1810 N   0  0  0  0  0  2  0  0  0  0  0  0
  185.8860  178.8810  145.0100 C   0  0  1  0  0  3  0  0  0  0  0  0
  186.6980  177.7120  145.5830 C   0  0  2  0  0  3  0  0  0  0  0  0
  188.7750  177.1970  147.4920 C   0  0  0  0  0  3  0  0  0  0  0  0
  185.7800  178.9160  147.3470 N   0  0  0  0  0  0  0  0  0  0  0  0
  186.5960  177.9700  147.0460 C   0  0  0  0  0  0  0  0  0  0  0  0
  189.1000  177.3710  146.0550 C   0  0  0  0  0  3  0  0  0  0  0  0
  187.5960  177.5020  147.9530 N   0  0  0  0  0  0  0  0  0  0  0  0
  184.8520  178.4390  143.9750 C   0  0  1  0  0  3  0  0  0  0  0  0
  183.5030  179.1120  144.2400 C   0  0  0  0  0  2  0  0  0  0  0  0
  185.3040  178.7330  142.6120 N   0  0  0  0  0  2  0  0  0  0  0  0
  182.9630  178.9420  141.9330 C   0  0  0  0  0  2  0  0  0  0  0  0
  181.3830  179.3470  143.4970 O   0  0  0  0  0  1  0  0  0  0  0  0
  184.2990  178.2530  141.6640 C   0  0  0  0  0  2  0  0  0  0  0  0
  182.5090  178.6270  143.2850 N   0  0  0  0  0  0  0  0  0  0  0  0
  188.4500  177.8780  143.8060 O   0  0  0  0  0  0  0  0  0  0  0  0
  189.6970  177.5230  143.2250 C   0  0  0  0  0  2  0  0  0  0  0  0
  188.4150  178.0610  141.1470 C   0  0  0  0  0  3  0  0  0  0  0  0
  189.5740  177.5540  141.7440 C   0  0  0  0  0  0  0  0  0  0  0  0
  189.3780  177.6920  138.9570 C   0  0  0  0  0  3  0  0  0  0  0  0
  190.6420  177.1270  140.9450 C   0  0  0  0  0  3  0  0  0  0  0  0
  188.3160  178.1280  139.7550 C   0  0  0  0  0  0  0  0  0  0  0  0
  190.5410  177.1930  139.5520 C   0  0  0  0  0  3  0  0  0  0  0  0
  187.1630  178.6270  139.1640 O   0  0  0  0  0  1  0  0  0  0  0  0
  1  8  2  0  0  0  0
  2  6  1  0  0  0  0
  3  4  1  0  0  0  0
  3  2  1  1  0  0  0
  4  1  1  6  0  0  0
  4  7  1  0  0  0  0
  5  9  2  0  0  0  0
  7  6  2  0  0  0  0
  7  9  1  0  0  0  0
  8  5  1  0  0  0  0
 10 11  1  1  0  0  0
 10  3  1  0  0  0  0
 12 10  1  0  0  0  0
 13 16  1  0  0  0  0
 15 13  1  0  0  0  0
 15 12  1  0  0  0  0
 16 14  1  0  0  0  0
 16 11  1  0  0  0  0
 17  1  1  0  0  0  0
 18 17  1  0  0  0  0
 19 20  1  0  0  0  0
 20 18  1  0  0  0  0
 21 24  2  0  0  0  0
 21 23  1  0  0  0  0
 22 20  2  0  0  0  0
 23 19  2  0  0  0  0
 24 22  1  0  0  0  0
 25 23  1  0  0  0  0
M  END
>  <MODEL>
5

>  <REMARK>
 VINA RESULT:      -8.4      2.792      5.913
  Name = 
  4 active torsions:
  status: ('A' for Active; 'I' for Inactive)
    1  A    between atoms: C_2  and  O_17
    2  A    between atoms: C_4  and  C_8
    3  A    between atoms: C_7  and  C_10
    4  A    between atoms: C_7  and  O_17
                            x       y       z     vdW  Elec       q    Type
                         _______ _______ _______ _____ _____    ______ ____

>  <TORSDO>
F 4

$$$$
=
 OpenBabel11062413523D

 25 28  0  0  1  0  0  0  0  0999 V2000
  188.3580  177.8370  141.7830 C   0  0  0  0  0  0  0  0  0  0  0  0
  190.9370  178.2070  144.2140 N   0  0  0  0  0  2  0  0  0  0  0  0
  189.4880  178.1610  144.0620 C   0  0  1  0  0  3  0  0  0  0  0  0
  189.2820  177.2670  142.8310 C   0  0  2  0  0  3  0  0  0  0  0  0
  189.9760  177.1510  140.0510 C   0  0  0  0  0  3  0  0  0  0  0  0
  191.5560  177.6820  143.0790 N   0  0  0  0  0  0  0  0  0  0  0  0
  190.6700  177.1710  142.3010 C   0  0  0  0  0  0  0  0  0  0  0  0
  188.6710  177.7160  140.4790 C   0  0  0  0  0  3  0  0  0  0  0  0
  190.9190  176.9160  140.9170 N   0  0  0  0  0  0  0  0  0  0  0  0
  188.8330  177.5980  145.3240 C   0  0  1  0  0  3  0  0  0  0  0  0
  189.5610  178.0950  146.5750 C   0  0  0  0  0  2  0  0  0  0  0  0
  187.4130  177.9530  145.3910 N   0  0  0  0  0  2  0  0  0  0  0  0
  187.5570  177.8720  147.8310 C   0  0  0  0  0  2  0  0  0  0  0  0
  189.5730  178.0670  148.8330 O   0  0  0  0  0  1  0  0  0  0  0  0
  186.8290  177.3560  146.5910 C   0  0  0  0  0  2  0  0  0  0  0  0
  188.9660  177.4960  147.7680 N   0  0  0  0  0  0  0  0  0  0  0  0
  187.1460  178.4010  142.1930 O   0  0  0  0  0  0  0  0  0  0  0  0
  186.0990  178.7430  141.2960 C   0  0  0  0  0  2  0  0  0  0  0  0
  184.7900  178.9530  143.4160 C   0  0  0  0  0  3  0  0  0  0  0  0
  184.8070  178.7530  142.0310 C   0  0  0  0  0  0  0  0  0  0  0  0
  182.3710  178.8590  143.4020 C   0  0  0  0  0  3  0  0  0  0  0  0
  183.6020  178.6190  141.3310 C   0  0  0  0  0  3  0  0  0  0  0  0
  183.5740  179.0040  144.1020 C   0  0  0  0  0  0  0  0  0  0  0  0
  182.3860  178.6680  142.0170 C   0  0  0  0  0  3  0  0  0  0  0  0
  183.5580  179.1980  145.4760 O   0  0  0  0  0  1  0  0  0  0  0  0
  1 17  1  0  0  0  0
  3  2  1  1  0  0  0
  3 10  1  0  0  0  0
  4  1  1  6  0  0  0
  4  3  1  0  0  0  0
  5  8  1  0  0  0  0
  5  9  2  0  0  0  0
  6  2  1  0  0  0  0
  7  4  1  0  0  0  0
  7  6  2  0  0  0  0
  8  1  2  0  0  0  0
  9  7  1  0  0  0  0
 10 12  1  0  0  0  0
 10 11  1  1  0  0  0
 11 16  1  0  0  0  0
 12 15  1  0  0  0  0
 15 13  1  0  0  0  0
 16 13  1  0  0  0  0
 16 14  1  0  0  0  0
 18 20  1  0  0  0  0
 18 17  1  0  0  0  0
 19 23  1  0  0  0  0
 20 19  2  0  0  0  0
 21 23  2  0  0  0  0
 22 24  2  0  0  0  0
 22 20  1  0  0  0  0
 23 25  1  0  0  0  0
 24 21  1  0  0  0  0
M  END
>  <MODEL>
6

>  <REMARK>
 VINA RESULT:      -8.1      2.067      4.955
  Name = 
  4 active torsions:
  status: ('A' for Active; 'I' for Inactive)
    1  A    between atoms: C_2  and  O_17
    2  A    between atoms: C_4  and  C_8
    3  A    between atoms: C_7  and  C_10
    4  A    between atoms: C_7  and  O_17
                            x       y       z     vdW  Elec       q    Type
                         _______ _______ _______ _____ _____    ______ ____

>  <TORSDO>
F 4

$$$$
=
 OpenBabel11062413523D

 25 28  0  0  1  0  0  0  0  0999 V2000
  188.5970  177.8300  141.3840 C   0  0  0  0  0  0  0  0  0  0  0  0
  192.0740  177.8160  142.1630 N   0  0  0  0  0  2  0  0  0  0  0  0
  190.7510  177.7190  142.7690 C   0  0  1  0  0  3  0  0  0  0  0  0
  189.8900  177.1020  141.6590 C   0  0  2  0  0  3  0  0  0  0  0  0
  189.0540  177.6310  138.9670 C   0  0  0  0  0  3  0  0  0  0  0  0
  191.9900  177.5870  140.7890 N   0  0  0  0  0  0  0  0  0  0  0  0
  190.8020  177.2040  140.4860 C   0  0  0  0  0  0  0  0  0  0  0  0
  188.1900  178.0120  140.1120 C   0  0  0  0  0  3  0  0  0  0  0  0
  190.2910  177.2700  139.1540 N   0  0  0  0  0  0  0  0  0  0  0  0
  190.8020  176.8590  144.0320 C   0  0  1  0  0  3  0  0  0  0  0  0
  191.7920  175.7040  143.8580 C   0  0  0  0  0  2  0  0  0  0  0  0
  191.1610  177.6590  145.2060 N   0  0  0  0  0  2  0  0  0  0  0  0
  192.1540  175.6580  146.2050 C   0  0  0  0  0  2  0  0  0  0  0  0
  192.7540  173.9330  144.8760 O   0  0  0  0  0  1  0  0  0  0  0  0
  191.1530  176.7980  146.3880 C   0  0  0  0  0  2  0  0  0  0  0  0
  191.7780  174.8540  145.0460 N   0  0  0  0  0  0  0  0  0  0  0  0
  187.8040  178.2200  142.4670 O   0  0  0  0  0  0  0  0  0  0  0  0
  186.7270  177.4400  142.9690 C   0  0  0  0  0  2  0  0  0  0  0  0
  187.3570  177.4890  145.3890 C   0  0  0  0  0  3  0  0  0  0  0  0
  186.4530  177.8320  144.3770 C   0  0  0  0  0  0  0  0  0  0  0  0
  185.9810  178.6440  147.0110 C   0  0  0  0  0  3  0  0  0  0  0  0
  185.3190  178.5930  144.6820 C   0  0  0  0  0  3  0  0  0  0  0  0
  187.1200  177.8930  146.7050 C   0  0  0  0  0  0  0  0  0  0  0  0
  185.0810  178.9950  146.0000 C   0  0  0  0  0  3  0  0  0  0  0  0
  188.0150  177.5490  147.7090 O   0  0  0  0  0  1  0  0  0  0  0  0
  1  4  1  0  0  0  0
  1 17  1  0  0  0  0
  3  2  1  6  0  0  0
  3 10  1  0  0  0  0
  4  7  1  6  0  0  0
  4  3  1  0  0  0  0
  5  9  2  0  0  0  0
  5  8  1  0  0  0  0
  6  2  1  0  0  0  0
  7  6  2  0  0  0  0
  8  1  2  0  0  0  0
  9  7  1  0  0  0  0
 10 11  1  6  0  0  0
 10 12  1  0  0  0  0
 11 16  1  0  0  0  0
 12 15  1  0  0  0  0
 13 15  1  0  0  0  0
 14 16  1  0  0  0  0
 16 13  1  0  0  0  0
 17 18  1  0  0  0  0
 18 20  1  0  0  0  0
 19 23  1  0  0  0  0
 20 22  1  0  0  0  0
 20 19  2  0  0  0  0
 22 24  2  0  0  0  0
 23 21  2  0  0  0  0
 23 25  1  0  0  0  0
 24 21  1  0  0  0  0
M  END
>  <MODEL>
7

>  <REMARK>
 VINA RESULT:      -8.1      1.891      4.922
  Name = 
  4 active torsions:
  status: ('A' for Active; 'I' for Inactive)
    1  A    between atoms: C_2  and  O_17
    2  A    between atoms: C_4  and  C_8
    3  A    between atoms: C_7  and  C_10
    4  A    between atoms: C_7  and  O_17
                            x       y       z     vdW  Elec       q    Type
                         _______ _______ _______ _____ _____    ______ ____

>  <TORSDO>
F 4

$$$$
=
 OpenBabel11062413523D

 25 28  0  0  1  0  0  0  0  0999 V2000
  185.0510  178.5520  142.9900 C   0  0  0  0  0  0  0  0  0  0  0  0
  184.8910  179.5790  139.5820 N   0  0  0  0  0  2  0  0  0  0  0  0
  185.8010  179.0480  140.5890 C   0  0  1  0  0  3  0  0  0  0  0  0
  184.8820  178.2480  141.5210 C   0  0  2  0  0  3  0  0  0  0  0  0
  182.5950  178.6180  143.2110 C   0  0  0  0  0  3  0  0  0  0  0  0
  183.5680  179.4000  139.9890 N   0  0  0  0  0  0  0  0  0  0  0  0
  183.5360  178.6830  141.0540 C   0  0  0  0  0  0  0  0  0  0  0  0
  183.9650  178.6590  143.7800 C   0  0  0  0  0  3  0  0  0  0  0  0
  182.4040  178.6500  141.9240 N   0  0  0  0  0  0  0  0  0  0  0  0
  186.8830  178.1880  139.9360 C   0  0  1  0  0  3  0  0  0  0  0  0
  186.7480  178.2210  138.4110 C   0  0  0  0  0  2  0  0  0  0  0  0
  188.2240  178.6250  140.3330 N   0  0  0  0  0  2  0  0  0  0  0  0
  189.0760  177.7980  138.1950 C   0  0  0  0  0  2  0  0  0  0  0  0
  187.6500  177.5110  136.4660 O   0  0  0  0  0  1  0  0  0  0  0  0
  189.2140  177.7440  139.7150 C   0  0  0  0  0  2  0  0  0  0  0  0
  187.7450  177.3410  137.8040 N   0  0  0  0  0  0  0  0  0  0  0  0
  186.3450  178.6260  143.5140 O   0  0  0  0  0  0  0  0  0  0  0  0
  187.1750  177.4890  143.7120 C   0  0  0  0  0  2  0  0  0  0  0  0
  188.9900  177.1190  145.3920 C   0  0  0  0  0  3  0  0  0  0  0  0
  187.6660  177.4790  145.1150 C   0  0  0  0  0  0  0  0  0  0  0  0
  188.6150  177.5430  147.7460 C   0  0  0  0  0  3  0  0  0  0  0  0
  186.8210  177.8840  146.1550 C   0  0  0  0  0  3  0  0  0  0  0  0
  189.4640  177.1480  146.7060 C   0  0  0  0  0  0  0  0  0  0  0  0
  187.2950  177.9120  147.4700 C   0  0  0  0  0  3  0  0  0  0  0  0
  190.7750  176.7870  146.9800 O   0  0  0  0  0  1  0  0  0  0  0  0
  1 17  1  0  0  0  0
  1  8  2  0  0  0  0
  2  6  1  0  0  0  0
  3  2  1  6  0  0  0
  3  4  1  0  0  0  0
  4  7  1  6  0  0  0
  4  1  1  0  0  0  0
  5  8  1  0  0  0  0
  6  7  2  0  0  0  0
  7  9  1  0  0  0  0
  9  5  2  0  0  0  0
 10 11  1  6  0  0  0
 10 12  1  0  0  0  0
 10  3  1  0  0  0  0
 13 15  1  0  0  0  0
 14 16  1  0  0  0  0
 15 12  1  0  0  0  0
 16 13  1  0  0  0  0
 16 11  1  0  0  0  0
 17 18  1  0  0  0  0
 18 20  1  0  0  0  0
 19 23  1  0  0  0  0
 20 19  2  0  0  0  0
 20 22  1  0  0  0  0
 22 24  2  0  0  0  0
 23 25  1  0  0  0  0
 23 21  2  0  0  0  0
 24 21  1  0  0  0  0
M  END
>  <MODEL>
8

>  <REMARK>
 VINA RESULT:      -8.0      2.827      5.948
  Name = 
  4 active torsions:
  status: ('A' for Active; 'I' for Inactive)
    1  A    between atoms: C_2  and  O_17
    2  A    between atoms: C_4  and  C_8
    3  A    between atoms: C_7  and  C_10
    4  A    between atoms: C_7  and  O_17
                            x       y       z     vdW  Elec       q    Type
                         _______ _______ _______ _____ _____    ______ ____

>  <TORSDO>
F 4

$$$$
=
 OpenBabel11062413523D

 25 28  0  0  1  0  0  0  0  0999 V2000
  189.1410  177.7730  143.8780 C   0  0  0  0  0  0  0  0  0  0  0  0
  190.7430  176.8880  140.8210 N   0  0  0  0  0  2  0  0  0  0  0  0
  189.4640  177.3130  141.3770 C   0  0  1  0  0  3  0  0  0  0  0  0
  189.8620  178.1430  142.6050 C   0  0  2  0  0  3  0  0  0  0  0  0
  191.2960  177.8760  145.0740 C   0  0  0  0  0  3  0  0  0  0  0  0
  191.7700  177.1470  141.7290 N   0  0  0  0  0  0  0  0  0  0  0  0
  191.3120  177.8240  142.7200 C   0  0  0  0  0  0  0  0  0  0  0  0
  189.8210  177.7160  145.0390 C   0  0  0  0  0  3  0  0  0  0  0  0
  191.9920  177.9070  143.9740 N   0  0  0  0  0  0  0  0  0  0  0  0
  188.6710  178.1170  140.3460 C   0  0  1  0  0  3  0  0  0  0  0  0
  189.4270  178.1800  139.0160 C   0  0  0  0  0  2  0  0  0  0  0  0
  187.3360  177.5500  140.1410 N   0  0  0  0  0  2  0  0  0  0  0  0
  187.3680  178.4210  137.8560 C   0  0  0  0  0  2  0  0  0  0  0  0
  189.3460  178.9190  136.8840 O   0  0  0  0  0  1  0  0  0  0  0  0
  186.6090  178.3790  139.1810 C   0  0  0  0  0  2  0  0  0  0  0  0
  188.6900  179.0070  138.0630 N   0  0  0  0  0  0  0  0  0  0  0  0
  187.7560  177.5870  143.8350 O   0  0  0  0  0  0  0  0  0  0  0  0
  186.9000  177.8090  144.9470 C   0  0  0  0  0  2  0  0  0  0  0  0
  185.2860  178.2520  143.0900 C   0  0  0  0  0  3  0  0  0  0  0  0
  185.5690  178.2560  144.4610 C   0  0  0  0  0  0  0  0  0  0  0  0
  183.0340  179.0130  143.5520 C   0  0  0  0  0  3  0  0  0  0  0  0
  184.5780  178.6270  145.3770 C   0  0  0  0  0  3  0  0  0  0  0  0
  184.0200  178.6320  142.6360 C   0  0  0  0  0  0  0  0  0  0  0  0
  183.3120  179.0080  144.9220 C   0  0  0  0  0  3  0  0  0  0  0  0
  183.7420  178.6320  141.2760 O   0  0  0  0  0  1  0  0  0  0  0  0
  1  8  2  0  0  0  0
  2  6  1  0  0  0  0
  3  2  1  6  0  0  0
  3  4  1  0  0  0  0
  4  7  1  1  0  0  0
  4  1  1  0  0  0  0
  6  7  2  0  0  0  0
  7  9  1  0  0  0  0
  8  5  1  0  0  0  0
  9  5  2  0  0  0  0
 10 11  1  6  0  0  0
 10  3  1  0  0  0  0
 12 10  1  0  0  0  0
 13 16  1  0  0  0  0
 13 15  1  0  0  0  0
 14 16  1  0  0  0  0
 15 12  1  0  0  0  0
 16 11  1  0  0  0  0
 17  1  1  0  0  0  0
 17 18  1  0  0  0  0
 19 20  1  0  0  0  0
 20 18  1  0  0  0  0
 20 22  2  0  0  0  0
 21 24  2  0  0  0  0
 23 19  2  0  0  0  0
 23 21  1  0  0  0  0
 24 22  1  0  0  0  0
 25 23  1  0  0  0  0
M  END
>  <MODEL>
9

>  <REMARK>
 VINA RESULT:      -7.8      1.561      2.078
  Name = 
  4 active torsions:
  status: ('A' for Active; 'I' for Inactive)
    1  A    between atoms: C_2  and  O_17
    2  A    between atoms: C_4  and  C_8
    3  A    between atoms: C_7  and  C_10
    4  A    between atoms: C_7  and  O_17
                            x       y       z     vdW  Elec       q    Type
                         _______ _______ _______ _____ _____    ______ ____

>  <TORSDO>
F 4

$$$$
