=
 OpenBabel11062412153D

 55 61  0  0  1  0  0  0  0  0999 V2000
  187.5640  177.1260  144.4040 C   0  0  1  0  0  3  0  0  0  0  0  0
  189.5350  177.4160  143.0230 N   0  0  0  0  0  0  0  0  0  0  0  0
  187.0970  177.1870  142.9730 C   0  0  0  0  0  2  0  0  0  0  0  0
  188.3540  177.4440  142.1540 C   0  0  1  0  0  3  0  0  0  0  0  0
  189.0720  176.8720  144.2990 C   0  0  1  0  0  3  0  0  0  0  0  0
  192.0100  178.2760  144.8400 O   0  0  0  0  0  1  0  0  0  0  0  0
  191.8400  176.8730  146.7430 C   0  0  0  0  0  2  0  0  0  0  0  0
  190.6190  176.3220  147.4430 C   0  0  0  0  0  2  0  0  0  0  0  0
  189.8820  177.4150  145.4910 C   0  0  1  0  0  3  0  0  0  0  0  0
  189.4340  176.7900  146.7330 N   0  0  0  0  0  2  0  0  0  0  0  0
  191.3650  177.1460  145.3440 C   0  0  1  0  0  3  0  0  0  0  0  0
  190.0820  175.1570  142.8400 O   0  0  0  0  0  1  0  0  0  0  0  0
  190.4490  176.4430  142.4440 C   0  0  0  0  0  2  0  0  0  0  0  0
  187.2250  178.4550  145.0730 C   0  0  0  0  0  2  0  0  0  0  0  0
  186.3090  176.9080  146.6410 O   0  0  0  0  0  1  0  0  0  0  0  0
  186.2230  178.2260  146.1870 C   0  0  2  0  0  3  0  0  0  0  0  0
  184.8240  178.5010  145.6680 C   0  0  0  0  0  2  0  0  0  0  0  0
  184.8590  179.5660  144.5820 C   0  0  0  0  0  2  0  0  0  0  0  0
  182.2100  178.6950  142.3820 N   0  0  0  0  0  0  0  0  0  0  0  0
  184.3880  179.0270  142.1210 C   0  0  0  0  0  3  0  0  0  0  0  0
  183.9670  179.1920  143.4480 C   0  0  0  0  0  0  0  0  0  0  0  0
  182.6230  179.0660  143.5740 N   0  0  0  0  0  0  0  0  0  0  0  0
  180.4280  179.4560  139.1520 C   0  0  0  0  0  1  0  0  0  0  0  0
  179.8990  179.2130  142.2130 O   0  0  0  0  0  0  0  0  0  0  0  0
  181.3610  179.0940  140.2560 C   0  0  0  0  0  0  0  0  0  0  0  0
  182.6890  178.9170  140.1460 C   0  0  0  0  0  0  0  0  0  0  0  0
  181.0200  178.9940  141.6800 C   0  0  0  0  0  0  0  0  0  0  0  0
  183.1980  178.6950  141.5070 C   0  0  0  0  0  0  0  0  0  0  0  0
  184.3340  177.8480  138.6310 C   0  0  0  0  0  1  0  0  0  0  0  0
  183.4950  179.0840  138.8950 C   0  0  2  0  0  3  0  0  0  0  0  0
  184.3530  180.2500  139.0040 N   0  0  0  0  0  1  0  0  0  0  0  0
  188.2780  178.6230  141.3770 O   0  0  0  0  0  0  0  0  0  0  0  0
  187.9930  178.2830  140.0430 C   0  0  0  0  0  2  0  0  0  0  0  0
  189.2530  178.3780  139.1970 C   0  0  0  0  0  2  0  0  0  0  0  0
  189.7990  176.9990  138.8660 C   0  0  0  0  0  2  0  0  0  0  0  0
  190.4720  177.0340  137.6400 O   0  0  0  0  0  0  0  0  0  0  0  0
  190.2580  175.7790  137.0640 C   0  0  2  0  0  3  0  0  0  0  0  0
  191.5780  175.1290  136.7730 C   0  0  0  0  0  0  0  0  0  0  0  0
  191.6540  173.7940  136.7400 C   0  0  0  0  0  3  0  0  0  0  0  0
  194.0800  175.2760  136.7540 C   0  0  1  0  0  3  0  0  0  0  0  0
  192.9280  173.1220  136.4220 C   0  0  0  0  0  3  0  0  0  0  0  0
  192.7680  175.9640  136.3660 C   0  0  0  0  0  2  0  0  0  0  0  0
  194.0670  173.8190  136.3820 C   0  0  0  0  0  3  0  0  0  0  0  0
  195.1510  175.9110  136.1540 F   0  0  0  0  0  0  0  0  0  0  0  0
  189.4160  175.9330  135.7900 C   0  0  2  0  0  3  0  0  0  0  0  0
  189.5170  177.2370  135.2970 O   0  0  0  0  0  1  0  0  0  0  0  0
  185.3400  174.9570  136.4580 C   0  0  0  0  0  0  0  0  0  0  0  0
  186.9360  176.4020  135.5230 C   0  0  0  0  0  3  0  0  0  0  0  0
  185.6300  176.0790  135.7520 N   0  0  0  0  0  0  0  0  0  0  0  0
  184.2150  173.4140  137.4820 C   0  0  0  0  0  3  0  0  0  0  0  0
  187.6560  174.4230  136.7430 C   0  0  0  0  0  3  0  0  0  0  0  0
  187.9770  175.5790  136.0120 C   0  0  0  0  0  0  0  0  0  0  0  0
  184.0480  174.4990  136.7900 N   0  0  0  0  0  0  0  0  0  0  0  0
  185.6640  173.0340  137.6820 C   0  0  0  0  0  2  0  0  0  0  0  0
  186.3120  174.1420  136.9490 C   0  0  0  0  0  0  0  0  0  0  0  0
  1 14  1  6  0  0  0
  3  1  1  0  0  0  0
  4 32  1  1  0  0  0
  4  3  1  0  0  0  0
  4  2  1  0  0  0  0
  5  2  1  6  0  0  0
  5  1  1  0  0  0  0
  5  9  1  0  0  0  0
  7  8  1  0  0  0  0
  9 10  1  1  0  0  0
 10  8  1  0  0  0  0
 11  6  1  1  0  0  0
 11  9  1  0  0  0  0
 11  7  1  0  0  0  0
 13 12  1  0  0  0  0
 13  2  1  0  0  0  0
 14 16  1  0  0  0  0
 16 15  1  6  0  0  0
 17 16  1  0  0  0  0
 18 17  1  0  0  0  0
 19 22  1  0  0  0  0
 20 21  1  0  0  0  0
 21 22  2  0  0  0  0
 21 18  1  0  0  0  0
 23 25  1  0  0  0  0
 25 27  1  0  0  0  0
 26 25  2  0  0  0  0
 26 28  1  0  0  0  0
 27 24  2  0  0  0  0
 27 19  1  0  0  0  0
 28 20  2  0  0  0  0
 28 19  1  0  0  0  0
 30 29  1  1  0  0  0
 30 31  1  0  0  0  0
 30 26  1  0  0  0  0
 33 32  1  0  0  0  0
 34 33  1  0  0  0  0
 35 34  1  0  0  0  0
 36 35  1  0  0  0  0
 37 36  1  6  0  0  0
 38 37  1  0  0  0  0
 39 38  2  0  0  0  0
 40 44  1  6  0  0  0
 41 39  1  0  0  0  0
 42 40  1  0  0  0  0
 42 38  1  0  0  0  0
 43 41  2  0  0  0  0
 43 40  1  0  0  0  0
 45 46  1  1  0  0  0
 45 52  1  0  0  0  0
 45 37  1  0  0  0  0
 47 53  1  0  0  0  0
 47 55  1  0  0  0  0
 48 49  1  0  0  0  0
 48 52  2  0  0  0  0
 49 47  2  0  0  0  0
 50 54  1  0  0  0  0
 51 55  2  0  0  0  0
 52 51  1  0  0  0  0
 53 50  2  0  0  0  0
 55 54  1  0  0  0  0
M  END
>  <MODEL>
1

>  <REMARK>
 VINA RESULT:      -8.4      0.000      0.000
  Name = 
  17 active torsions:
  status: ('A' for Active; 'I' for Inactive)
    1  A    between atoms: C_3  and  C_39
    2  A    between atoms: C_3  and  C_42
    3  A    between atoms: C_4  and  C_18
    4  A    between atoms: N_7  and  C_51
    5  A    between atoms: C_8  and  C_39
    6  A    between atoms: C_10  and  C_18
    7  A    between atoms: C_10  and  C_53
    8  A    between atoms: C_11  and  O_34
    9  A    between atoms: C_11  and  C_35
   10  A    between atoms: C_20  and  O_34
   11  A    between atoms: C_21  and  C_48
   12  A    between atoms: O_22  and  C_36
   13  A    between atoms: O_22  and  C_39
   14  A    between atoms: C_24  and  C_44
   15  A    between atoms: C_33  and  C_54
   16  A    between atoms: C_35  and  C_36
   17  A    between atoms: C_48  and  C_53
                            x       y       z     vdW  Elec       q    Type
                         _______ _______ _______ _____ _____    ______ ____

>  <TORSDO>
F 17

$$$$
=
 OpenBabel11062412153D

 55 61  0  0  1  0  0  0  0  0999 V2000
  187.6460  177.0800  144.4260 C   0  0  1  0  0  3  0  0  0  0  0  0
  189.6060  177.1940  143.0040 N   0  0  0  0  0  0  0  0  0  0  0  0
  187.1600  177.0840  143.0000 C   0  0  0  0  0  2  0  0  0  0  0  0
  188.4150  177.2310  142.1510 C   0  0  1  0  0  3  0  0  0  0  0  0
  189.1380  176.7460  144.3160 C   0  0  1  0  0  3  0  0  0  0  0  0
  192.0540  178.2450  144.7010 O   0  0  0  0  0  1  0  0  0  0  0  0
  192.0310  176.8360  146.6070 C   0  0  0  0  0  2  0  0  0  0  0  0
  190.8680  176.2450  147.3710 C   0  0  0  0  0  2  0  0  0  0  0  0
  189.9920  177.3150  145.4630 C   0  0  1  0  0  3  0  0  0  0  0  0
  189.6320  176.6740  146.7260 N   0  0  0  0  0  2  0  0  0  0  0  0
  191.4740  177.0950  145.2370 C   0  0  1  0  0  3  0  0  0  0  0  0
  190.1670  174.9320  143.0920 O   0  0  0  0  0  1  0  0  0  0  0  0
  190.4620  176.1450  142.4700 C   0  0  0  0  0  2  0  0  0  0  0  0
  187.3830  178.4600  145.0220 C   0  0  0  0  0  2  0  0  0  0  0  0
  186.6320  177.1120  146.8420 O   0  0  0  0  0  1  0  0  0  0  0  0
  186.4350  178.3370  146.1990 C   0  0  2  0  0  3  0  0  0  0  0  0
  185.0050  178.4340  145.7030 C   0  0  0  0  0  2  0  0  0  0  0  0
  184.8680  179.5580  144.6870 C   0  0  0  0  0  2  0  0  0  0  0  0
  182.0610  178.7580  142.6650 N   0  0  0  0  0  0  0  0  0  0  0  0
  184.2400  178.9250  142.2840 C   0  0  0  0  0  3  0  0  0  0  0  0
  183.8970  179.1870  143.6190 C   0  0  0  0  0  0  0  0  0  0  0  0
  182.5560  179.1620  143.8140 N   0  0  0  0  0  0  0  0  0  0  0  0
  180.1730  179.4700  139.4830 C   0  0  0  0  0  1  0  0  0  0  0  0
  179.7830  179.4250  142.5740 O   0  0  0  0  0  0  0  0  0  0  0  0
  181.1340  179.1030  140.5610 C   0  0  0  0  0  0  0  0  0  0  0  0
  182.4400  178.8300  140.3990 C   0  0  0  0  0  0  0  0  0  0  0  0
  180.8590  179.1020  142.0030 C   0  0  0  0  0  0  0  0  0  0  0  0
  183.0010  178.6440  141.7460 C   0  0  0  0  0  0  0  0  0  0  0  0
  183.6280  177.4820  138.6910 C   0  0  0  0  0  1  0  0  0  0  0  0
  183.1920  178.8750  139.1050 C   0  0  2  0  0  3  0  0  0  0  0  0
  184.3510  179.7400  139.2290 N   0  0  0  0  0  1  0  0  0  0  0  0
  188.3840  178.3670  141.3080 O   0  0  0  0  0  0  0  0  0  0  0  0
  188.2330  177.9520  139.9740 C   0  0  0  0  0  2  0  0  0  0  0  0
  189.4060  178.4380  139.1380 C   0  0  0  0  0  2  0  0  0  0  0  0
  190.2530  177.2750  138.6490 C   0  0  0  0  0  2  0  0  0  0  0  0
  189.4310  176.1990  138.3000 O   0  0  0  0  0  0  0  0  0  0  0  0
  189.6260  176.0130  136.9280 C   0  0  2  0  0  3  0  0  0  0  0  0
  188.2990  175.9960  136.2300 C   0  0  0  0  0  0  0  0  0  0  0  0
  188.0750  175.0850  135.2760 C   0  0  0  0  0  3  0  0  0  0  0  0
  186.2190  177.2190  135.5550 C   0  0  1  0  0  3  0  0  0  0  0  0
  186.7690  175.0170  134.5950 C   0  0  0  0  0  3  0  0  0  0  0  0
  187.1750  176.8860  136.7040 C   0  0  0  0  0  2  0  0  0  0  0  0
  185.8720  175.9940  134.7560 C   0  0  0  0  0  3  0  0  0  0  0  0
  185.0680  177.8090  136.0450 F   0  0  0  0  0  0  0  0  0  0  0  0
  190.4020  174.7100  136.6900 C   0  0  2  0  0  3  0  0  0  0  0  0
  190.0330  173.7460  137.6330 O   0  0  0  0  0  1  0  0  0  0  0  0
  194.6100  175.2620  136.7390 C   0  0  0  0  0  0  0  0  0  0  0  0
  192.5120  175.8610  135.8740 C   0  0  0  0  0  3  0  0  0  0  0  0
  193.8670  176.0220  135.8960 N   0  0  0  0  0  0  0  0  0  0  0  0
  196.3200  174.4060  137.7590 C   0  0  0  0  0  3  0  0  0  0  0  0
  192.6730  174.1360  137.5830 C   0  0  0  0  0  3  0  0  0  0  0  0
  191.8860  174.9170  136.7200 C   0  0  0  0  0  0  0  0  0  0  0  0
  196.0140  175.2980  136.8670 N   0  0  0  0  0  0  0  0  0  0  0  0
  195.1250  173.6740  138.3260 C   0  0  0  0  0  2  0  0  0  0  0  0
  194.0470  174.3390  137.5650 C   0  0  0  0  0  0  0  0  0  0  0  0
  1 14  1  6  0  0  0
  3  1  1  0  0  0  0
  4 32  1  1  0  0  0
  4  3  1  0  0  0  0
  4  2  1  0  0  0  0
  5  2  1  6  0  0  0
  5  1  1  0  0  0  0
  5  9  1  0  0  0  0
  7  8  1  0  0  0  0
  9 10  1  1  0  0  0
 10  8  1  0  0  0  0
 11  6  1  1  0  0  0
 11  9  1  0  0  0  0
 11  7  1  0  0  0  0
 13  2  1  0  0  0  0
 13 12  1  0  0  0  0
 14 16  1  0  0  0  0
 16 15  1  6  0  0  0
 17 16  1  0  0  0  0
 18 17  1  0  0  0  0
 19 22  1  0  0  0  0
 20 21  1  0  0  0  0
 21 22  2  0  0  0  0
 21 18  1  0  0  0  0
 23 25  1  0  0  0  0
 25 27  1  0  0  0  0
 26 25  2  0  0  0  0
 26 28  1  0  0  0  0
 27 24  2  0  0  0  0
 27 19  1  0  0  0  0
 28 20  2  0  0  0  0
 28 19  1  0  0  0  0
 30 29  1  1  0  0  0
 30 31  1  0  0  0  0
 30 26  1  0  0  0  0
 33 32  1  0  0  0  0
 34 33  1  0  0  0  0
 35 34  1  0  0  0  0
 36 35  1  0  0  0  0
 37 36  1  1  0  0  0
 38 42  1  0  0  0  0
 38 37  1  0  0  0  0
 39 38  2  0  0  0  0
 40 44  1  1  0  0  0
 40 42  1  0  0  0  0
 41 43  2  0  0  0  0
 41 39  1  0  0  0  0
 43 40  1  0  0  0  0
 45 52  1  0  0  0  0
 45 37  1  0  0  0  0
 45 46  1  1  0  0  0
 47 53  1  0  0  0  0
 47 55  1  0  0  0  0
 48 49  1  0  0  0  0
 48 52  2  0  0  0  0
 49 47  2  0  0  0  0
 50 54  1  0  0  0  0
 52 51  1  0  0  0  0
 53 50  2  0  0  0  0
 55 51  2  0  0  0  0
 55 54  1  0  0  0  0
M  END
>  <MODEL>
2

>  <REMARK>
 VINA RESULT:      -8.0      2.339      4.369
  Name = 
  17 active torsions:
  status: ('A' for Active; 'I' for Inactive)
    1  A    between atoms: C_3  and  C_39
    2  A    between atoms: C_3  and  C_42
    3  A    between atoms: C_4  and  C_18
    4  A    between atoms: N_7  and  C_51
    5  A    between atoms: C_8  and  C_39
    6  A    between atoms: C_10  and  C_18
    7  A    between atoms: C_10  and  C_53
    8  A    between atoms: C_11  and  O_34
    9  A    between atoms: C_11  and  C_35
   10  A    between atoms: C_20  and  O_34
   11  A    between atoms: C_21  and  C_48
   12  A    between atoms: O_22  and  C_36
   13  A    between atoms: O_22  and  C_39
   14  A    between atoms: C_24  and  C_44
   15  A    between atoms: C_33  and  C_54
   16  A    between atoms: C_35  and  C_36
   17  A    between atoms: C_48  and  C_53
                            x       y       z     vdW  Elec       q    Type
                         _______ _______ _______ _____ _____    ______ ____

>  <TORSDO>
F 17

$$$$
=
 OpenBabel11062412153D

 55 61  0  0  1  0  0  0  0  0999 V2000
  190.5780  175.2810  138.3280 C   0  0  1  0  0  3  0  0  0  0  0  0
  191.1010  175.7020  135.9990 N   0  0  0  0  0  0  0  0  0  0  0  0
  189.3290  175.8230  137.6850 C   0  0  0  0  0  2  0  0  0  0  0  0
  189.7250  176.1410  136.2490 C   0  0  1  0  0  3  0  0  0  0  0  0
  191.4660  174.8720  137.1470 C   0  0  1  0  0  3  0  0  0  0  0  0
  193.8870  177.1160  137.1730 O   0  0  0  0  0  1  0  0  0  0  0  0
  195.0390  175.2410  136.2930 C   0  0  0  0  0  2  0  0  0  0  0  0
  194.7610  173.7630  136.4500 C   0  0  0  0  0  2  0  0  0  0  0  0
  192.9740  174.9280  137.4490 C   0  0  1  0  0  3  0  0  0  0  0  0
  193.5730  173.6060  137.2800 N   0  0  0  0  0  2  0  0  0  0  0  0
  193.7060  175.8890  136.5340 C   0  0  1  0  0  3  0  0  0  0  0  0
  190.7560  173.5260  135.2340 O   0  0  0  0  0  1  0  0  0  0  0  0
  191.0500  174.8300  134.8350 C   0  0  0  0  0  2  0  0  0  0  0  0
  191.1920  176.3880  139.1830 C   0  0  0  0  0  2  0  0  0  0  0  0
  189.7040  178.1320  139.8440 O   0  0  0  0  0  1  0  0  0  0  0  0
  190.1780  176.8670  140.2030 C   0  0  2  0  0  3  0  0  0  0  0  0
  190.8340  176.9330  141.5700 C   0  0  0  0  0  2  0  0  0  0  0  0
  190.1210  176.0120  142.5480 C   0  0  0  0  0  2  0  0  0  0  0  0
  187.5160  177.9210  144.0260 N   0  0  0  0  0  0  0  0  0  0  0  0
  189.3860  177.0040  144.7930 C   0  0  0  0  0  3  0  0  0  0  0  0
  189.1940  176.7860  143.4210 C   0  0  0  0  0  0  0  0  0  0  0  0
  188.0090  177.2810  142.9880 N   0  0  0  0  0  0  0  0  0  0  0  0
  185.0050  178.1770  146.8220 C   0  0  0  0  0  1  0  0  0  0  0  0
  185.1720  178.1330  143.7110 O   0  0  0  0  0  0  0  0  0  0  0  0
  186.1960  178.0900  145.9320 C   0  0  0  0  0  0  0  0  0  0  0  0
  187.4660  177.8830  146.3230 C   0  0  0  0  0  0  0  0  0  0  0  0
  186.1820  178.0850  144.4640 C   0  0  0  0  0  0  0  0  0  0  0  0
  188.2680  177.7540  145.0980 C   0  0  0  0  0  0  0  0  0  0  0  0
  189.1560  178.4990  148.0290 C   0  0  0  0  0  1  0  0  0  0  0  0
  187.9250  177.6640  147.7310 C   0  0  2  0  0  3  0  0  0  0  0  0
  188.2140  176.2590  147.9510 N   0  0  0  0  0  1  0  0  0  0  0  0
  189.5140  177.4960  135.9030 O   0  0  0  0  0  0  0  0  0  0  0  0
  188.1780  177.6700  135.5020 C   0  0  0  0  0  2  0  0  0  0  0  0
  187.5010  178.7130  136.3770 C   0  0  0  0  0  2  0  0  0  0  0  0
  186.4760  178.0750  137.3010 C   0  0  0  0  0  2  0  0  0  0  0  0
  185.5210  177.3820  136.5500 O   0  0  0  0  0  0  0  0  0  0  0  0
  184.8320  176.5870  137.4700 C   0  0  2  0  0  3  0  0  0  0  0  0
  185.1000  175.1400  137.1810 C   0  0  0  0  0  0  0  0  0  0  0  0
  184.2210  174.2190  137.5920 C   0  0  0  0  0  3  0  0  0  0  0  0
  186.7540  173.3310  136.6560 C   0  0  1  0  0  3  0  0  0  0  0  0
  184.4360  172.7910  137.2950 C   0  0  0  0  0  3  0  0  0  0  0  0
  186.2610  174.7380  136.3040 C   0  0  0  0  0  2  0  0  0  0  0  0
  185.6080  172.3710  136.8120 C   0  0  0  0  0  3  0  0  0  0  0  0
  187.6310  172.8750  135.6900 F   0  0  0  0  0  0  0  0  0  0  0  0
  183.3320  176.9030  137.4030 C   0  0  2  0  0  3  0  0  0  0  0  0
  183.0610  177.7450  136.3200 O   0  0  0  0  0  1  0  0  0  0  0  0
  181.8790  178.6000  141.0110 C   0  0  0  0  0  0  0  0  0  0  0  0
  183.6780  177.7390  139.7740 C   0  0  0  0  0  3  0  0  0  0  0  0
  183.1950  178.2790  140.9310 N   0  0  0  0  0  0  0  0  0  0  0  0
  179.9800  179.2810  141.8050 C   0  0  0  0  0  3  0  0  0  0  0  0
  181.4620  177.8540  138.7750 C   0  0  0  0  0  3  0  0  0  0  0  0
  182.8220  177.5180  138.6710 C   0  0  0  0  0  0  0  0  0  0  0  0
  181.2280  179.1470  142.1370 N   0  0  0  0  0  0  0  0  0  0  0  0
  179.6720  178.8280  140.3960 C   0  0  0  0  0  2  0  0  0  0  0  0
  181.0220  178.3980  139.9750 C   0  0  0  0  0  0  0  0  0  0  0  0
  1 14  1  6  0  0  0
  2  4  1  0  0  0  0
  3  1  1  0  0  0  0
  4 32  1  1  0  0  0
  4  3  1  0  0  0  0
  5  2  1  6  0  0  0
  5  9  1  0  0  0  0
  5  1  1  0  0  0  0
  7  8  1  0  0  0  0
  7 11  1  0  0  0  0
  8 10  1  0  0  0  0
  9 10  1  6  0  0  0
 11  6  1  1  0  0  0
 11  9  1  0  0  0  0
 13 12  1  0  0  0  0
 13  2  1  0  0  0  0
 14 16  1  0  0  0  0
 16 15  1  6  0  0  0
 16 17  1  0  0  0  0
 17 18  1  0  0  0  0
 18 21  1  0  0  0  0
 19 27  1  0  0  0  0
 19 28  1  0  0  0  0
 20 28  2  0  0  0  0
 21 20  1  0  0  0  0
 22 21  2  0  0  0  0
 22 19  1  0  0  0  0
 24 27  2  0  0  0  0
 25 26  2  0  0  0  0
 25 23  1  0  0  0  0
 26 30  1  0  0  0  0
 27 25  1  0  0  0  0
 28 26  1  0  0  0  0
 30 31  1  0  0  0  0
 30 29  1  6  0  0  0
 33 32  1  0  0  0  0
 33 34  1  0  0  0  0
 34 35  1  0  0  0  0
 36 35  1  0  0  0  0
 37 36  1  6  0  0  0
 38 37  1  0  0  0  0
 38 39  2  0  0  0  0
 40 44  1  6  0  0  0
 40 43  1  0  0  0  0
 41 39  1  0  0  0  0
 42 40  1  0  0  0  0
 42 38  1  0  0  0  0
 43 41  2  0  0  0  0
 45 46  1  6  0  0  0
 45 37  1  0  0  0  0
 45 52  1  0  0  0  0
 47 53  1  0  0  0  0
 48 49  1  0  0  0  0
 49 47  2  0  0  0  0
 50 53  2  0  0  0  0
 51 55  2  0  0  0  0
 52 51  1  0  0  0  0
 52 48  2  0  0  0  0
 54 50  1  0  0  0  0
 55 54  1  0  0  0  0
 55 47  1  0  0  0  0
M  END
>  <MODEL>
3

>  <REMARK>
 VINA RESULT:      -7.7      2.550      7.507
  Name = 
  17 active torsions:
  status: ('A' for Active; 'I' for Inactive)
    1  A    between atoms: C_3  and  C_39
    2  A    between atoms: C_3  and  C_42
    3  A    between atoms: C_4  and  C_18
    4  A    between atoms: N_7  and  C_51
    5  A    between atoms: C_8  and  C_39
    6  A    between atoms: C_10  and  C_18
    7  A    between atoms: C_10  and  C_53
    8  A    between atoms: C_11  and  O_34
    9  A    between atoms: C_11  and  C_35
   10  A    between atoms: C_20  and  O_34
   11  A    between atoms: C_21  and  C_48
   12  A    between atoms: O_22  and  C_36
   13  A    between atoms: O_22  and  C_39
   14  A    between atoms: C_24  and  C_44
   15  A    between atoms: C_33  and  C_54
   16  A    between atoms: C_35  and  C_36
   17  A    between atoms: C_48  and  C_53
                            x       y       z     vdW  Elec       q    Type
                         _______ _______ _______ _____ _____    ______ ____

>  <TORSDO>
F 17

$$$$
=
 OpenBabel11062412153D

 55 61  0  0  1  0  0  0  0  0999 V2000
  190.7360  175.8610  138.6330 C   0  0  1  0  0  3  0  0  0  0  0  0
  190.9410  175.2590  136.2940 N   0  0  0  0  0  0  0  0  0  0  0  0
  189.4080  176.1510  137.9830 C   0  0  0  0  0  2  0  0  0  0  0  0
  189.6070  175.8290  136.5080 C   0  0  1  0  0  3  0  0  0  0  0  0
  191.4610  174.9590  137.6270 C   0  0  1  0  0  3  0  0  0  0  0  0
  193.8180  177.1150  136.8000 O   0  0  0  0  0  1  0  0  0  0  0  0
  194.8670  175.0740  136.2080 C   0  0  0  0  0  2  0  0  0  0  0  0
  194.6420  173.6730  136.7320 C   0  0  0  0  0  2  0  0  0  0  0  0
  192.9950  175.0600  137.6890 C   0  0  1  0  0  3  0  0  0  0  0  0
  193.5880  173.7240  137.7370 N   0  0  0  0  0  2  0  0  0  0  0  0
  193.5700  175.7790  136.4860 C   0  0  1  0  0  3  0  0  0  0  0  0
  189.5140  173.4400  135.9880 O   0  0  0  0  0  1  0  0  0  0  0  0
  190.7400  173.9890  135.6120 C   0  0  0  0  0  2  0  0  0  0  0  0
  191.4510  177.1900  138.8680 C   0  0  0  0  0  2  0  0  0  0  0  0
  192.6780  177.1440  140.9140 O   0  0  0  0  0  1  0  0  0  0  0  0
  191.4540  177.5130  140.3500 C   0  0  2  0  0  3  0  0  0  0  0  0
  190.3270  176.7600  141.0300 C   0  0  0  0  0  2  0  0  0  0  0  0
  189.2400  177.7240  141.4830 C   0  0  0  0  0  2  0  0  0  0  0  0
  189.0010  176.9050  144.9310 N   0  0  0  0  0  0  0  0  0  0  0  0
  187.5530  177.6190  143.4090 C   0  0  0  0  0  3  0  0  0  0  0  0
  188.8460  177.4480  142.8930 C   0  0  0  0  0  0  0  0  0  0  0  0
  189.7330  177.0920  143.8540 N   0  0  0  0  0  0  0  0  0  0  0  0
  187.8720  178.0060  148.3520 C   0  0  0  0  0  1  0  0  0  0  0  0
  190.4240  177.0790  146.8240 O   0  0  0  0  0  0  0  0  0  0  0  0
  188.0330  177.5820  146.9330 C   0  0  0  0  0  0  0  0  0  0  0  0
  187.0910  177.6400  145.9750 C   0  0  0  0  0  0  0  0  0  0  0  0
  189.2830  177.1490  146.2950 C   0  0  0  0  0  0  0  0  0  0  0  0
  187.7410  177.2330  144.7210 C   0  0  0  0  0  0  0  0  0  0  0  0
  185.0280  178.3430  144.7940 C   0  0  0  0  0  1  0  0  0  0  0  0
  185.7030  178.1760  146.1420 C   0  0  2  0  0  3  0  0  0  0  0  0
  185.7380  179.4490  146.8390 N   0  0  0  0  0  1  0  0  0  0  0  0
  189.3430  176.9300  135.6600 O   0  0  0  0  0  0  0  0  0  0  0  0
  187.9580  177.0210  135.4330 C   0  0  0  0  0  2  0  0  0  0  0  0
  187.4060  178.2890  136.0630 C   0  0  0  0  0  2  0  0  0  0  0  0
  186.3360  177.9720  137.0950 C   0  0  0  0  0  2  0  0  0  0  0  0
  185.2960  177.2530  136.4970 O   0  0  0  0  0  0  0  0  0  0  0  0
  184.6450  176.5990  137.5480 C   0  0  2  0  0  3  0  0  0  0  0  0
  184.6790  175.1180  137.3140 C   0  0  0  0  0  0  0  0  0  0  0  0
  183.5330  174.4690  137.0820 C   0  0  0  0  0  3  0  0  0  0  0  0
  185.8640  172.9300  137.6090 C   0  0  1  0  0  3  0  0  0  0  0  0
  183.5330  173.0190  136.8130 C   0  0  0  0  0  3  0  0  0  0  0  0
  185.9980  174.3950  137.1830 C   0  0  0  0  0  2  0  0  0  0  0  0
  184.6380  172.2950  137.0140 C   0  0  0  0  0  3  0  0  0  0  0  0
  186.9930  172.2200  137.2440 F   0  0  0  0  0  0  0  0  0  0  0  0
  183.2050  177.1160  137.6650 C   0  0  2  0  0  3  0  0  0  0  0  0
  182.9610  178.0960  136.6970 O   0  0  0  0  0  1  0  0  0  0  0  0
  182.3560  178.6010  141.5490 C   0  0  0  0  0  0  0  0  0  0  0  0
  183.9270  178.1670  139.8590 C   0  0  0  0  0  3  0  0  0  0  0  0
  183.6390  178.6350  141.1090 N   0  0  0  0  0  0  0  0  0  0  0  0
  180.6250  178.8070  142.8370 C   0  0  0  0  0  3  0  0  0  0  0  0
  181.5810  177.6260  139.5050 C   0  0  0  0  0  3  0  0  0  0  0  0
  182.9020  177.6560  139.0300 C   0  0  0  0  0  0  0  0  0  0  0  0
  181.9040  179.0290  142.8140 N   0  0  0  0  0  0  0  0  0  0  0  0
  180.0900  178.1980  141.5610 C   0  0  0  0  0  2  0  0  0  0  0  0
  181.3430  178.1130  140.7840 C   0  0  0  0  0  0  0  0  0  0  0  0
  1 14  1  6  0  0  0
  2  4  1  0  0  0  0
  3  1  1  0  0  0  0
  4 32  1  6  0  0  0
  4  3  1  0  0  0  0
  5  2  1  6  0  0  0
  5  9  1  0  0  0  0
  5  1  1  0  0  0  0
  7 11  1  0  0  0  0
  7  8  1  0  0  0  0
  8 10  1  0  0  0  0
  9 10  1  6  0  0  0
 11  6  1  1  0  0  0
 11  9  1  0  0  0  0
 13 12  1  0  0  0  0
 13  2  1  0  0  0  0
 14 16  1  0  0  0  0
 16 15  1  1  0  0  0
 16 17  1  0  0  0  0
 17 18  1  0  0  0  0
 18 21  1  0  0  0  0
 19 27  1  0  0  0  0
 20 28  2  0  0  0  0
 21 20  1  0  0  0  0
 21 22  2  0  0  0  0
 22 19  1  0  0  0  0
 25 23  1  0  0  0  0
 26 30  1  0  0  0  0
 26 25  2  0  0  0  0
 27 24  2  0  0  0  0
 27 25  1  0  0  0  0
 28 19  1  0  0  0  0
 28 26  1  0  0  0  0
 30 29  1  6  0  0  0
 30 31  1  0  0  0  0
 33 32  1  0  0  0  0
 33 34  1  0  0  0  0
 34 35  1  0  0  0  0
 36 35  1  0  0  0  0
 37 36  1  6  0  0  0
 37 45  1  0  0  0  0
 38 37  1  0  0  0  0
 39 38  2  0  0  0  0
 40 44  1  6  0  0  0
 41 43  2  0  0  0  0
 41 39  1  0  0  0  0
 42 38  1  0  0  0  0
 42 40  1  0  0  0  0
 43 40  1  0  0  0  0
 45 46  1  6  0  0  0
 45 52  1  0  0  0  0
 47 53  1  0  0  0  0
 48 49  1  0  0  0  0
 49 47  2  0  0  0  0
 51 55  2  0  0  0  0
 52 51  1  0  0  0  0
 52 48  2  0  0  0  0
 53 50  2  0  0  0  0
 54 50  1  0  0  0  0
 55 47  1  0  0  0  0
 55 54  1  0  0  0  0
M  END
>  <MODEL>
4

>  <REMARK>
 VINA RESULT:      -7.6      2.630      7.715
  Name = 
  17 active torsions:
  status: ('A' for Active; 'I' for Inactive)
    1  A    between atoms: C_3  and  C_39
    2  A    between atoms: C_3  and  C_42
    3  A    between atoms: C_4  and  C_18
    4  A    between atoms: N_7  and  C_51
    5  A    between atoms: C_8  and  C_39
    6  A    between atoms: C_10  and  C_18
    7  A    between atoms: C_10  and  C_53
    8  A    between atoms: C_11  and  O_34
    9  A    between atoms: C_11  and  C_35
   10  A    between atoms: C_20  and  O_34
   11  A    between atoms: C_21  and  C_48
   12  A    between atoms: O_22  and  C_36
   13  A    between atoms: O_22  and  C_39
   14  A    between atoms: C_24  and  C_44
   15  A    between atoms: C_33  and  C_54
   16  A    between atoms: C_35  and  C_36
   17  A    between atoms: C_48  and  C_53
                            x       y       z     vdW  Elec       q    Type
                         _______ _______ _______ _____ _____    ______ ____

>  <TORSDO>
F 17

$$$$
=
 OpenBabel11062412153D

 55 61  0  0  1  0  0  0  0  0999 V2000
  188.1870  176.7510  144.0910 C   0  0  1  0  0  3  0  0  0  0  0  0
  190.3880  177.4020  144.8710 N   0  0  0  0  0  0  0  0  0  0  0  0
  189.1730  176.3350  143.0310 C   0  0  0  0  0  2  0  0  0  0  0  0
  190.5250  176.8280  143.5290 C   0  0  1  0  0  3  0  0  0  0  0  0
  189.0510  177.0210  145.3280 C   0  0  1  0  0  3  0  0  0  0  0  0
  189.6900  178.2410  148.3270 O   0  0  0  0  0  1  0  0  0  0  0  0
  187.3240  178.1240  148.3990 C   0  0  0  0  0  2  0  0  0  0  0  0
  186.3110  178.1490  147.2770 C   0  0  0  0  0  2  0  0  0  0  0  0
  188.4510  178.0560  146.2960 C   0  0  1  0  0  3  0  0  0  0  0  0
  187.0310  178.2500  146.0120 N   0  0  0  0  0  2  0  0  0  0  0  0
  188.5810  177.6290  147.7430 C   0  0  1  0  0  3  0  0  0  0  0  0
  192.0240  175.7430  144.9670 O   0  0  0  0  0  1  0  0  0  0  0  0
  191.3470  176.7060  145.7160 C   0  0  0  0  0  2  0  0  0  0  0  0
  187.4490  177.9920  143.5940 C   0  0  0  0  0  2  0  0  0  0  0  0
  188.3120  178.9450  141.5830 O   0  0  0  0  0  1  0  0  0  0  0  0
  187.4150  177.9940  142.0780 C   0  0  2  0  0  3  0  0  0  0  0  0
  186.0100  178.3190  141.6080 C   0  0  0  0  0  2  0  0  0  0  0  0
  185.0540  178.3800  142.7890 C   0  0  0  0  0  2  0  0  0  0  0  0
  181.5850  178.9950  142.3430 N   0  0  0  0  0  0  0  0  0  0  0  0
  183.1990  178.2290  141.0270 C   0  0  0  0  0  3  0  0  0  0  0  0
  183.6470  178.5310  142.3220 C   0  0  0  0  0  0  0  0  0  0  0  0
  182.6680  179.0750  143.0850 N   0  0  0  0  0  0  0  0  0  0  0  0
  178.9310  180.6460  140.2400 C   0  0  0  0  0  1  0  0  0  0  0  0
  180.0200  180.5840  143.1580 O   0  0  0  0  0  0  0  0  0  0  0  0
  180.0320  179.8350  140.8300 C   0  0  0  0  0  0  0  0  0  0  0  0
  180.8770  179.0350  140.1570 C   0  0  0  0  0  0  0  0  0  0  0  0
  180.4750  179.8640  142.2300 C   0  0  0  0  0  0  0  0  0  0  0  0
  181.8590  178.5430  141.1340 C   0  0  0  0  0  0  0  0  0  0  0  0
  180.9960  177.3540  138.3390 C   0  0  0  0  0  1  0  0  0  0  0  0
  180.8970  178.8300  138.6740 C   0  0  2  0  0  3  0  0  0  0  0  0
  182.0110  179.5480  138.0840 N   0  0  0  0  0  1  0  0  0  0  0  0
  191.1610  177.7090  142.6240 O   0  0  0  0  0  0  0  0  0  0  0  0
  191.9150  176.9620  141.7010 C   0  0  0  0  0  2  0  0  0  0  0  0
  191.5350  177.3480  140.2800 C   0  0  0  0  0  2  0  0  0  0  0  0
  190.3390  176.5480  139.7940 C   0  0  0  0  0  2  0  0  0  0  0  0
  190.6960  175.7860  138.6770 O   0  0  0  0  0  0  0  0  0  0  0  0
  190.7060  176.6820  137.6040 C   0  0  2  0  0  3  0  0  0  0  0  0
  189.3170  176.8240  137.0570 C   0  0  0  0  0  0  0  0  0  0  0  0
  188.9660  177.9680  136.4580 C   0  0  0  0  0  3  0  0  0  0  0  0
  186.9170  176.1010  137.0900 C   0  0  1  0  0  3  0  0  0  0  0  0
  187.6200  178.1280  135.8770 C   0  0  0  0  0  3  0  0  0  0  0  0
  188.3780  175.6420  137.0390 C   0  0  0  0  0  2  0  0  0  0  0  0
  186.6630  177.2320  136.1320 C   0  0  0  0  0  3  0  0  0  0  0  0
  186.0720  175.0430  136.8130 F   0  0  0  0  0  0  0  0  0  0  0  0
  191.6840  176.1910  136.5300 C   0  0  2  0  0  3  0  0  0  0  0  0
  191.0060  175.4440  135.5610 O   0  0  0  0  0  1  0  0  0  0  0  0
  194.8910  173.9150  138.1280 C   0  0  0  0  0  0  0  0  0  0  0  0
  193.7430  175.9590  137.9950 C   0  0  0  0  0  3  0  0  0  0  0  0
  194.7740  175.2160  138.4950 N   0  0  0  0  0  0  0  0  0  0  0  0
  195.6610  171.8980  137.9490 C   0  0  0  0  0  3  0  0  0  0  0  0
  192.9470  174.0340  136.7350 C   0  0  0  0  0  3  0  0  0  0  0  0
  192.8060  175.3820  137.1070 C   0  0  0  0  0  0  0  0  0  0  0  0
  195.9040  173.0260  138.5430 N   0  0  0  0  0  0  0  0  0  0  0  0
  194.4360  171.9240  137.0640 C   0  0  0  0  0  2  0  0  0  0  0  0
  194.0140  173.3250  137.2720 C   0  0  0  0  0  0  0  0  0  0  0  0
  1 14  1  6  0  0  0
  1  5  1  0  0  0  0
  2 13  1  0  0  0  0
  3  4  1  0  0  0  0
  3  1  1  0  0  0  0
  4 32  1  6  0  0  0
  4  2  1  0  0  0  0
  5  2  1  6  0  0  0
  5  9  1  0  0  0  0
  8  7  1  0  0  0  0
  9 10  1  6  0  0  0
  9 11  1  0  0  0  0
 10  8  1  0  0  0  0
 11  6  1  1  0  0  0
 11  7  1  0  0  0  0
 12 13  1  0  0  0  0
 16 15  1  6  0  0  0
 16 14  1  0  0  0  0
 17 16  1  0  0  0  0
 17 18  1  0  0  0  0
 19 22  1  0  0  0  0
 20 28  2  0  0  0  0
 20 21  1  0  0  0  0
 21 18  1  0  0  0  0
 21 22  2  0  0  0  0
 23 25  1  0  0  0  0
 25 27  1  0  0  0  0
 26 25  2  0  0  0  0
 26 28  1  0  0  0  0
 27 19  1  0  0  0  0
 27 24  2  0  0  0  0
 28 19  1  0  0  0  0
 30 29  1  1  0  0  0
 30 26  1  0  0  0  0
 31 30  1  0  0  0  0
 33 32  1  0  0  0  0
 34 33  1  0  0  0  0
 35 34  1  0  0  0  0
 36 35  1  0  0  0  0
 37 36  1  1  0  0  0
 38 37  1  0  0  0  0
 39 38  2  0  0  0  0
 40 44  1  6  0  0  0
 41 43  2  0  0  0  0
 41 39  1  0  0  0  0
 42 38  1  0  0  0  0
 42 40  1  0  0  0  0
 43 40  1  0  0  0  0
 45 46  1  6  0  0  0
 45 52  1  0  0  0  0
 45 37  1  0  0  0  0
 47 49  2  0  0  0  0
 47 53  1  0  0  0  0
 48 49  1  0  0  0  0
 50 53  2  0  0  0  0
 51 52  1  0  0  0  0
 51 55  2  0  0  0  0
 52 48  2  0  0  0  0
 54 55  1  0  0  0  0
 54 50  1  0  0  0  0
 55 47  1  0  0  0  0
M  END
>  <MODEL>
5

>  <REMARK>
 VINA RESULT:      -7.4      2.596      4.910
  Name = 
  17 active torsions:
  status: ('A' for Active; 'I' for Inactive)
    1  A    between atoms: C_3  and  C_39
    2  A    between atoms: C_3  and  C_42
    3  A    between atoms: C_4  and  C_18
    4  A    between atoms: N_7  and  C_51
    5  A    between atoms: C_8  and  C_39
    6  A    between atoms: C_10  and  C_18
    7  A    between atoms: C_10  and  C_53
    8  A    between atoms: C_11  and  O_34
    9  A    between atoms: C_11  and  C_35
   10  A    between atoms: C_20  and  O_34
   11  A    between atoms: C_21  and  C_48
   12  A    between atoms: O_22  and  C_36
   13  A    between atoms: O_22  and  C_39
   14  A    between atoms: C_24  and  C_44
   15  A    between atoms: C_33  and  C_54
   16  A    between atoms: C_35  and  C_36
   17  A    between atoms: C_48  and  C_53
                            x       y       z     vdW  Elec       q    Type
                         _______ _______ _______ _____ _____    ______ ____

>  <TORSDO>
F 17

$$$$
=
 OpenBabel11062412153D

 55 61  0  0  1  0  0  0  0  0999 V2000
  187.0650  178.3710  143.2190 C   0  0  1  0  0  3  0  0  0  0  0  0
  184.6930  178.3460  143.7170 N   0  0  0  0  0  0  0  0  0  0  0  0
  186.3380  178.6060  141.9210 C   0  0  0  0  0  2  0  0  0  0  0  0
  184.8590  178.5080  142.2690 C   0  0  1  0  0  3  0  0  0  0  0  0
  186.0060  178.6240  144.2980 C   0  0  1  0  0  3  0  0  0  0  0  0
  184.5540  178.2530  147.2390 O   0  0  0  0  0  1  0  0  0  0  0  0
  186.8360  178.2570  147.8760 C   0  0  0  0  0  2  0  0  0  0  0  0
  188.0710  177.8900  147.0860 C   0  0  0  0  0  2  0  0  0  0  0  0
  186.2410  177.8420  145.6030 C   0  0  1  0  0  3  0  0  0  0  0  0
  187.6570  177.5060  145.7410 N   0  0  0  0  0  2  0  0  0  0  0  0
  185.8310  178.6340  146.8270 C   0  0  1  0  0  3  0  0  0  0  0  0
  182.4840  179.0900  143.7930 O   0  0  0  0  0  1  0  0  0  0  0  0
  183.7950  179.4070  144.1490 C   0  0  0  0  0  2  0  0  0  0  0  0
  187.5880  176.9370  143.2200 C   0  0  0  0  0  2  0  0  0  0  0  0
  189.5740  178.2590  143.2290 O   0  0  0  0  0  1  0  0  0  0  0  0
  189.1030  176.9450  143.2780 C   0  0  2  0  0  3  0  0  0  0  0  0
  189.6550  176.1560  142.1050 C   0  0  0  0  0  2  0  0  0  0  0  0
  190.7840  176.9220  141.4330 C   0  0  0  0  0  2  0  0  0  0  0  0
  190.9420  176.9840  137.8860 N   0  0  0  0  0  0  0  0  0  0  0  0
  189.3160  177.2880  139.3650 C   0  0  0  0  0  3  0  0  0  0  0  0
  190.5550  177.0180  139.9640 C   0  0  0  0  0  0  0  0  0  0  0  0
  191.5170  176.7530  139.0460 N   0  0  0  0  0  0  0  0  0  0  0  0
  189.4760  175.7240  134.6520 C   0  0  0  0  0  1  0  0  0  0  0  0
  192.1680  175.8230  136.2170 O   0  0  0  0  0  0  0  0  0  0  0  0
  189.7920  176.3450  135.9690 C   0  0  0  0  0  0  0  0  0  0  0  0
  188.9080  176.8940  136.8200 C   0  0  0  0  0  0  0  0  0  0  0  0
  191.1020  176.3510  136.6320 C   0  0  0  0  0  0  0  0  0  0  0  0
  189.6600  177.2620  138.0290 C   0  0  0  0  0  0  0  0  0  0  0  0
  186.8670  178.2530  137.1830 C   0  0  0  0  0  1  0  0  0  0  0  0
  187.4250  176.9590  136.6230 C   0  0  2  0  0  3  0  0  0  0  0  0
  186.7850  175.8250  137.2640 N   0  0  0  0  0  1  0  0  0  0  0  0
  184.1810  177.5120  141.5290 O   0  0  0  0  0  0  0  0  0  0  0  0
  183.2640  178.1250  140.6570 C   0  0  0  0  0  2  0  0  0  0  0  0
  183.7880  178.0810  139.2300 C   0  0  0  0  0  2  0  0  0  0  0  0
  183.0700  179.0890  138.3480 C   0  0  0  0  0  2  0  0  0  0  0  0
  182.3120  179.9590  139.1380 O   0  0  0  0  0  0  0  0  0  0  0  0
  181.0640  180.0360  138.5120 C   0  0  2  0  0  3  0  0  0  0  0  0
  180.9490  181.3390  137.7800 C   0  0  0  0  0  0  0  0  0  0  0  0
  180.1630  181.4130  136.7000 C   0  0  0  0  0  3  0  0  0  0  0  0
  181.9310  183.5770  137.2230 C   0  0  1  0  0  3  0  0  0  0  0  0
  179.9990  182.6880  135.9770 C   0  0  0  0  0  3  0  0  0  0  0  0
  181.5830  182.5900  138.3410 C   0  0  0  0  0  2  0  0  0  0  0  0
  180.7960  183.7250  136.2480 C   0  0  0  0  0  3  0  0  0  0  0  0
  182.2640  184.8080  137.7580 F   0  0  0  0  0  0  0  0  0  0  0  0
  179.9520  179.8800  139.5580 C   0  0  2  0  0  3  0  0  0  0  0  0
  180.2320  180.6620  140.6830 O   0  0  0  0  0  1  0  0  0  0  0  0
  179.4180  175.8330  140.7190 C   0  0  0  0  0  0  0  0  0  0  0  0
  179.4680  178.1050  141.3070 C   0  0  0  0  0  3  0  0  0  0  0  0
  179.3060  176.7980  141.6660 N   0  0  0  0  0  0  0  0  0  0  0  0
  179.4910  173.8800  139.7830 C   0  0  0  0  0  3  0  0  0  0  0  0
  179.8630  177.4380  138.9990 C   0  0  0  0  0  3  0  0  0  0  0  0
  179.7470  178.4520  139.9640 C   0  0  0  0  0  0  0  0  0  0  0  0
  179.2950  174.4450  140.9350 N   0  0  0  0  0  0  0  0  0  0  0  0
  179.7680  174.8580  138.6630 C   0  0  0  0  0  2  0  0  0  0  0  0
  179.6900  176.1250  139.4190 C   0  0  0  0  0  0  0  0  0  0  0  0
  1 14  1  6  0  0  0
  1  5  1  0  0  0  0
  2 13  1  0  0  0  0
  3  4  1  0  0  0  0
  3  1  1  0  0  0  0
  4 32  1  6  0  0  0
  4  2  1  0  0  0  0
  5  2  1  6  0  0  0
  5  9  1  0  0  0  0
  8  7  1  0  0  0  0
  9 10  1  1  0  0  0
  9 11  1  0  0  0  0
 10  8  1  0  0  0  0
 11  6  1  1  0  0  0
 11  7  1  0  0  0  0
 12 13  1  0  0  0  0
 14 16  1  0  0  0  0
 16 15  1  6  0  0  0
 17 16  1  0  0  0  0
 18 17  1  0  0  0  0
 19 28  1  0  0  0  0
 19 22  1  0  0  0  0
 20 21  1  0  0  0  0
 21 18  1  0  0  0  0
 22 21  2  0  0  0  0
 23 25  1  0  0  0  0
 24 27  2  0  0  0  0
 25 27  1  0  0  0  0
 25 26  2  0  0  0  0
 26 28  1  0  0  0  0
 27 19  1  0  0  0  0
 28 20  2  0  0  0  0
 30 26  1  0  0  0  0
 30 29  1  1  0  0  0
 30 31  1  0  0  0  0
 33 32  1  0  0  0  0
 34 33  1  0  0  0  0
 35 36  1  0  0  0  0
 35 34  1  0  0  0  0
 37 36  1  1  0  0  0
 37 45  1  0  0  0  0
 38 42  1  0  0  0  0
 38 37  1  0  0  0  0
 39 38  2  0  0  0  0
 40 44  1  1  0  0  0
 40 42  1  0  0  0  0
 41 43  2  0  0  0  0
 41 39  1  0  0  0  0
 43 40  1  0  0  0  0
 45 52  1  0  0  0  0
 45 46  1  1  0  0  0
 47 53  1  0  0  0  0
 47 49  2  0  0  0  0
 48 49  1  0  0  0  0
 50 53  2  0  0  0  0
 51 55  2  0  0  0  0
 51 52  1  0  0  0  0
 52 48  2  0  0  0  0
 54 55  1  0  0  0  0
 54 50  1  0  0  0  0
 55 47  1  0  0  0  0
M  END
>  <MODEL>
6

>  <REMARK>
 VINA RESULT:      -7.2      3.408      8.644
  Name = 
  17 active torsions:
  status: ('A' for Active; 'I' for Inactive)
    1  A    between atoms: C_3  and  C_39
    2  A    between atoms: C_3  and  C_42
    3  A    between atoms: C_4  and  C_18
    4  A    between atoms: N_7  and  C_51
    5  A    between atoms: C_8  and  C_39
    6  A    between atoms: C_10  and  C_18
    7  A    between atoms: C_10  and  C_53
    8  A    between atoms: C_11  and  O_34
    9  A    between atoms: C_11  and  C_35
   10  A    between atoms: C_20  and  O_34
   11  A    between atoms: C_21  and  C_48
   12  A    between atoms: O_22  and  C_36
   13  A    between atoms: O_22  and  C_39
   14  A    between atoms: C_24  and  C_44
   15  A    between atoms: C_33  and  C_54
   16  A    between atoms: C_35  and  C_36
   17  A    between atoms: C_48  and  C_53
                            x       y       z     vdW  Elec       q    Type
                         _______ _______ _______ _____ _____    ______ ____

>  <TORSDO>
F 17

$$$$
=
 OpenBabel11062412153D

 55 61  0  0  1  0  0  0  0  0999 V2000
  187.4630  177.1120  143.5890 C   0  0  1  0  0  3  0  0  0  0  0  0
  189.4350  177.5290  144.9350 N   0  0  0  0  0  0  0  0  0  0  0  0
  188.6480  176.6170  142.8030 C   0  0  0  0  0  2  0  0  0  0  0  0
  189.8630  176.9660  143.6510 C   0  0  1  0  0  3  0  0  0  0  0  0
  187.9970  177.2760  145.0170 C   0  0  1  0  0  3  0  0  0  0  0  0
  187.9540  178.3880  148.1240 O   0  0  0  0  0  1  0  0  0  0  0  0
  185.6470  178.4960  147.5900 C   0  0  0  0  0  2  0  0  0  0  0  0
  184.9610  178.6320  146.2490 C   0  0  0  0  0  2  0  0  0  0  0  0
  187.2640  178.3500  145.8400 C   0  0  1  0  0  3  0  0  0  0  0  0
  185.9860  178.6820  145.2130 N   0  0  0  0  0  2  0  0  0  0  0  0
  186.9810  177.8920  147.2560 C   0  0  1  0  0  3  0  0  0  0  0  0
  191.4570  176.9100  145.9190 O   0  0  0  0  0  1  0  0  0  0  0  0
  190.0750  176.7280  145.9690 C   0  0  0  0  0  2  0  0  0  0  0  0
  186.9960  178.4270  142.9700 C   0  0  0  0  0  2  0  0  0  0  0  0
  188.0220  178.9690  140.8850 O   0  0  0  0  0  1  0  0  0  0  0  0
  186.9440  178.2920  141.4610 C   0  0  2  0  0  3  0  0  0  0  0  0
  185.6390  178.8740  140.9500 C   0  0  0  0  0  2  0  0  0  0  0  0
  185.4320  178.5150  139.4870 C   0  0  0  0  0  2  0  0  0  0  0  0
  182.3570  180.1270  138.7410 N   0  0  0  0  0  0  0  0  0  0  0  0
  183.2280  178.1510  138.2310 C   0  0  0  0  0  3  0  0  0  0  0  0
  184.0770  178.9320  139.0290 C   0  0  0  0  0  0  0  0  0  0  0  0
  183.5640  180.1660  139.2600 N   0  0  0  0  0  0  0  0  0  0  0  0
  179.9120  181.1490  136.0630 C   0  0  0  0  0  1  0  0  0  0  0  0
  181.6610  182.3610  138.3390 O   0  0  0  0  0  0  0  0  0  0  0  0
  180.8110  180.4720  137.0390 C   0  0  0  0  0  0  0  0  0  0  0  0
  181.1430  179.1690  137.0410 C   0  0  0  0  0  0  0  0  0  0  0  0
  181.5960  181.1270  138.0920 C   0  0  0  0  0  0  0  0  0  0  0  0
  182.1390  178.9900  138.1070 C   0  0  0  0  0  0  0  0  0  0  0  0
  180.1750  176.9080  136.7330 C   0  0  0  0  0  1  0  0  0  0  0  0
  180.7000  178.1500  136.0380 C   0  0  2  0  0  3  0  0  0  0  0  0
  181.8010  177.7990  135.1600 N   0  0  0  0  0  1  0  0  0  0  0  0
  190.7910  177.7940  142.9760 O   0  0  0  0  0  0  0  0  0  0  0  0
  191.6560  176.9930  142.2090 C   0  0  0  0  0  2  0  0  0  0  0  0
  191.7130  177.5050  140.7790 C   0  0  0  0  0  2  0  0  0  0  0  0
  190.6780  176.8150  139.9060 C   0  0  0  0  0  2  0  0  0  0  0  0
  190.8380  177.2090  138.5730 O   0  0  0  0  0  0  0  0  0  0  0  0
  190.3700  176.1350  137.8110 C   0  0  2  0  0  3  0  0  0  0  0  0
  191.5330  175.3520  137.2790 C   0  0  0  0  0  0  0  0  0  0  0  0
  191.3730  174.0530  137.0040 C   0  0  0  0  0  3  0  0  0  0  0  0
  194.0150  175.1030  137.0350 C   0  0  1  0  0  3  0  0  0  0  0  0
  192.4860  173.2620  136.4460 C   0  0  0  0  0  3  0  0  0  0  0  0
  192.8190  176.0510  136.9080 C   0  0  0  0  0  2  0  0  0  0  0  0
  193.7230  173.7650  136.4150 C   0  0  0  0  0  3  0  0  0  0  0  0
  195.1350  175.6640  136.4510 F   0  0  0  0  0  0  0  0  0  0  0  0
  189.4800  176.6580  136.6750 C   0  0  2  0  0  3  0  0  0  0  0  0
  189.4480  178.0560  136.6890 O   0  0  0  0  0  1  0  0  0  0  0  0
  185.5280  175.1290  136.9220 C   0  0  0  0  0  0  0  0  0  0  0  0
  186.9650  176.9270  136.4580 C   0  0  0  0  0  3  0  0  0  0  0  0
  185.7000  176.4220  136.5490 N   0  0  0  0  0  0  0  0  0  0  0  0
  184.5690  173.2620  137.4630 C   0  0  0  0  0  3  0  0  0  0  0  0
  187.8860  174.7780  137.1350 C   0  0  0  0  0  3  0  0  0  0  0  0
  188.0850  176.1130  136.7460 C   0  0  0  0  0  0  0  0  0  0  0  0
  184.2910  174.4700  137.0770 N   0  0  0  0  0  0  0  0  0  0  0  0
  186.0500  172.9930  137.6030 C   0  0  0  0  0  2  0  0  0  0  0  0
  186.5790  174.3160  137.2130 C   0  0  0  0  0  0  0  0  0  0  0  0
  1 14  1  6  0  0  0
  1  5  1  0  0  0  0
  2 13  1  0  0  0  0
  3  1  1  0  0  0  0
  3  4  1  0  0  0  0
  4 32  1  6  0  0  0
  4  2  1  0  0  0  0
  5  2  1  6  0  0  0
  5  9  1  0  0  0  0
  8  7  1  0  0  0  0
  9 10  1  6  0  0  0
  9 11  1  0  0  0  0
 10  8  1  0  0  0  0
 11  7  1  0  0  0  0
 11  6  1  1  0  0  0
 12 13  1  0  0  0  0
 16 15  1  6  0  0  0
 16 14  1  0  0  0  0
 17 16  1  0  0  0  0
 18 17  1  0  0  0  0
 19 22  1  0  0  0  0
 20 21  1  0  0  0  0
 21 22  2  0  0  0  0
 21 18  1  0  0  0  0
 23 25  1  0  0  0  0
 25 26  2  0  0  0  0
 25 27  1  0  0  0  0
 26 28  1  0  0  0  0
 27 24  2  0  0  0  0
 27 19  1  0  0  0  0
 28 20  2  0  0  0  0
 28 19  1  0  0  0  0
 30 29  1  1  0  0  0
 30 26  1  0  0  0  0
 31 30  1  0  0  0  0
 33 32  1  0  0  0  0
 34 33  1  0  0  0  0
 35 34  1  0  0  0  0
 36 35  1  0  0  0  0
 37 36  1  6  0  0  0
 38 37  1  0  0  0  0
 39 38  2  0  0  0  0
 40 44  1  6  0  0  0
 41 39  1  0  0  0  0
 42 40  1  0  0  0  0
 42 38  1  0  0  0  0
 43 41  2  0  0  0  0
 43 40  1  0  0  0  0
 45 46  1  1  0  0  0
 45 52  1  0  0  0  0
 45 37  1  0  0  0  0
 47 53  1  0  0  0  0
 47 55  1  0  0  0  0
 48 49  1  0  0  0  0
 48 52  2  0  0  0  0
 49 47  2  0  0  0  0
 50 54  1  0  0  0  0
 51 55  2  0  0  0  0
 52 51  1  0  0  0  0
 53 50  2  0  0  0  0
 55 54  1  0  0  0  0
M  END
>  <MODEL>
7

>  <REMARK>
 VINA RESULT:      -7.1      1.814      3.308
  Name = 
  17 active torsions:
  status: ('A' for Active; 'I' for Inactive)
    1  A    between atoms: C_3  and  C_39
    2  A    between atoms: C_3  and  C_42
    3  A    between atoms: C_4  and  C_18
    4  A    between atoms: N_7  and  C_51
    5  A    between atoms: C_8  and  C_39
    6  A    between atoms: C_10  and  C_18
    7  A    between atoms: C_10  and  C_53
    8  A    between atoms: C_11  and  O_34
    9  A    between atoms: C_11  and  C_35
   10  A    between atoms: C_20  and  O_34
   11  A    between atoms: C_21  and  C_48
   12  A    between atoms: O_22  and  C_36
   13  A    between atoms: O_22  and  C_39
   14  A    between atoms: C_24  and  C_44
   15  A    between atoms: C_33  and  C_54
   16  A    between atoms: C_35  and  C_36
   17  A    between atoms: C_48  and  C_53
                            x       y       z     vdW  Elec       q    Type
                         _______ _______ _______ _____ _____    ______ ____

>  <TORSDO>
F 17

$$$$
=
 OpenBabel11062412153D

 55 61  0  0  1  0  0  0  0  0999 V2000
  188.3520  176.7520  143.9700 C   0  0  1  0  0  3  0  0  0  0  0  0
  190.6340  177.2020  144.6550 N   0  0  0  0  0  0  0  0  0  0  0  0
  189.2450  176.3500  142.8260 C   0  0  0  0  0  2  0  0  0  0  0  0
  190.6540  176.7180  143.2710 C   0  0  1  0  0  3  0  0  0  0  0  0
  189.3030  176.8770  145.1670 C   0  0  1  0  0  3  0  0  0  0  0  0
  190.2170  177.8640  148.1800 O   0  0  0  0  0  1  0  0  0  0  0  0
  187.8590  177.8670  148.4180 C   0  0  0  0  0  2  0  0  0  0  0  0
  186.7740  178.0170  147.3760 C   0  0  0  0  0  2  0  0  0  0  0  0
  188.8320  177.8770  146.2380 C   0  0  1  0  0  3  0  0  0  0  0  0
  187.4080  178.1630  146.0710 N   0  0  0  0  0  2  0  0  0  0  0  0
  189.0370  177.3500  147.6430 C   0  0  1  0  0  3  0  0  0  0  0  0
  192.0550  175.3540  144.5750 O   0  0  0  0  0  1  0  0  0  0  0  0
  191.5900  176.3870  145.3900 C   0  0  0  0  0  2  0  0  0  0  0  0
  187.6740  178.0700  143.6040 C   0  0  0  0  0  2  0  0  0  0  0  0
  188.2900  178.9540  141.4750 O   0  0  0  0  0  1  0  0  0  0  0  0
  187.3870  178.1020  142.1160 C   0  0  2  0  0  3  0  0  0  0  0  0
  185.9690  178.5910  141.8890 C   0  0  0  0  0  2  0  0  0  0  0  0
  185.6720  178.6940  140.4010 C   0  0  0  0  0  2  0  0  0  0  0  0
  182.4830  179.9070  139.4150 N   0  0  0  0  0  0  0  0  0  0  0  0
  183.1690  178.2550  140.7280 C   0  0  0  0  0  3  0  0  0  0  0  0
  184.2290  178.9840  140.1700 C   0  0  0  0  0  0  0  0  0  0  0  0
  183.7940  179.9340  139.3070 N   0  0  0  0  0  0  0  0  0  0  0  0
  179.1000  179.0580  137.9940 C   0  0  0  0  0  1  0  0  0  0  0  0
  181.5660  180.8840  137.4550 O   0  0  0  0  0  0  0  0  0  0  0  0
  180.3560  179.2200  138.7770 C   0  0  0  0  0  0  0  0  0  0  0  0
  180.7280  178.4860  139.8410 C   0  0  0  0  0  0  0  0  0  0  0  0
  181.4710  180.1180  138.4510 C   0  0  0  0  0  0  0  0  0  0  0  0
  182.0840  178.9260  140.2020 C   0  0  0  0  0  0  0  0  0  0  0  0
  179.7280  177.5530  141.9080 C   0  0  0  0  0  1  0  0  0  0  0  0
  179.9640  177.3390  140.4250 C   0  0  2  0  0  3  0  0  0  0  0  0
  180.6850  176.0970  140.2130 N   0  0  0  0  0  1  0  0  0  0  0  0
  191.2970  177.6180  142.3900 O   0  0  0  0  0  0  0  0  0  0  0  0
  191.7200  176.9230  141.2430 C   0  0  0  0  0  2  0  0  0  0  0  0
  191.0760  177.5190  140.0020 C   0  0  0  0  0  2  0  0  0  0  0  0
  190.5850  176.4310  139.0610 C   0  0  0  0  0  2  0  0  0  0  0  0
  190.0710  177.0060  137.8940 O   0  0  0  0  0  0  0  0  0  0  0  0
  189.5750  175.9370  137.1410 C   0  0  2  0  0  3  0  0  0  0  0  0
  190.7100  175.2400  136.4520 C   0  0  0  0  0  0  0  0  0  0  0  0
  191.6130  175.9670  135.7840 C   0  0  0  0  0  3  0  0  0  0  0  0
  191.6330  173.1470  135.4280 C   0  0  1  0  0  3  0  0  0  0  0  0
  192.7610  175.3170  135.1250 C   0  0  0  0  0  3  0  0  0  0  0  0
  190.9240  173.7570  136.6400 C   0  0  0  0  0  2  0  0  0  0  0  0
  192.8000  173.9890  134.9930 C   0  0  0  0  0  3  0  0  0  0  0  0
  192.0530  171.8620  135.7140 F   0  0  0  0  0  0  0  0  0  0  0  0
  188.5390  176.4520  136.1340 C   0  0  2  0  0  3  0  0  0  0  0  0
  188.6470  177.8390  135.9930 O   0  0  0  0  0  1  0  0  0  0  0  0
  184.5620  175.3960  137.1760 C   0  0  0  0  0  0  0  0  0  0  0  0
  186.8030  174.7590  136.8850 C   0  0  0  0  0  3  0  0  0  0  0  0
  185.5180  174.4330  137.2100 N   0  0  0  0  0  0  0  0  0  0  0  0
  182.6310  176.3700  137.2950 C   0  0  0  0  0  3  0  0  0  0  0  0
  186.1330  177.0650  136.4850 C   0  0  0  0  0  3  0  0  0  0  0  0
  187.1380  176.0830  136.5180 C   0  0  0  0  0  0  0  0  0  0  0  0
  183.1940  175.2140  137.4670 N   0  0  0  0  0  0  0  0  0  0  0  0
  183.5880  177.4580  136.8660 C   0  0  0  0  0  2  0  0  0  0  0  0
  184.8430  176.6790  136.8240 C   0  0  0  0  0  0  0  0  0  0  0  0
  1 14  1  6  0  0  0
  1  5  1  0  0  0  0
  2 13  1  0  0  0  0
  3  4  1  0  0  0  0
  3  1  1  0  0  0  0
  4 32  1  6  0  0  0
  4  2  1  0  0  0  0
  5  2  1  6  0  0  0
  5  9  1  0  0  0  0
  8  7  1  0  0  0  0
  9 10  1  6  0  0  0
  9 11  1  0  0  0  0
 10  8  1  0  0  0  0
 11  6  1  1  0  0  0
 11  7  1  0  0  0  0
 12 13  1  0  0  0  0
 16 15  1  6  0  0  0
 16 14  1  0  0  0  0
 17 16  1  0  0  0  0
 18 17  1  0  0  0  0
 19 28  1  0  0  0  0
 21 18  1  0  0  0  0
 21 20  1  0  0  0  0
 22 19  1  0  0  0  0
 22 21  2  0  0  0  0
 23 25  1  0  0  0  0
 24 27  2  0  0  0  0
 25 26  2  0  0  0  0
 26 28  1  0  0  0  0
 26 30  1  0  0  0  0
 27 25  1  0  0  0  0
 27 19  1  0  0  0  0
 28 20  2  0  0  0  0
 30 29  1  1  0  0  0
 31 30  1  0  0  0  0
 33 32  1  0  0  0  0
 34 33  1  0  0  0  0
 35 34  1  0  0  0  0
 36 35  1  0  0  0  0
 37 36  1  6  0  0  0
 38 42  1  0  0  0  0
 38 37  1  0  0  0  0
 39 38  2  0  0  0  0
 40 44  1  1  0  0  0
 40 42  1  0  0  0  0
 41 39  1  0  0  0  0
 43 41  2  0  0  0  0
 43 40  1  0  0  0  0
 45 46  1  1  0  0  0
 45 52  1  0  0  0  0
 45 37  1  0  0  0  0
 47 49  2  0  0  0  0
 47 53  1  0  0  0  0
 48 49  1  0  0  0  0
 50 53  2  0  0  0  0
 51 52  1  0  0  0  0
 51 55  2  0  0  0  0
 52 48  2  0  0  0  0
 54 50  1  0  0  0  0
 55 54  1  0  0  0  0
 55 47  1  0  0  0  0
M  END
>  <MODEL>
8

>  <REMARK>
 VINA RESULT:      -7.1      2.034      3.149
  Name = 
  17 active torsions:
  status: ('A' for Active; 'I' for Inactive)
    1  A    between atoms: C_3  and  C_39
    2  A    between atoms: C_3  and  C_42
    3  A    between atoms: C_4  and  C_18
    4  A    between atoms: N_7  and  C_51
    5  A    between atoms: C_8  and  C_39
    6  A    between atoms: C_10  and  C_18
    7  A    between atoms: C_10  and  C_53
    8  A    between atoms: C_11  and  O_34
    9  A    between atoms: C_11  and  C_35
   10  A    between atoms: C_20  and  O_34
   11  A    between atoms: C_21  and  C_48
   12  A    between atoms: O_22  and  C_36
   13  A    between atoms: O_22  and  C_39
   14  A    between atoms: C_24  and  C_44
   15  A    between atoms: C_33  and  C_54
   16  A    between atoms: C_35  and  C_36
   17  A    between atoms: C_48  and  C_53
                            x       y       z     vdW  Elec       q    Type
                         _______ _______ _______ _____ _____    ______ ____

>  <TORSDO>
F 17

$$$$
=
 OpenBabel11062412153D

 55 61  0  0  1  0  0  0  0  0999 V2000
  189.9960  177.7950  139.8240 C   0  0  1  0  0  3  0  0  0  0  0  0
  187.9210  177.9760  141.0630 N   0  0  0  0  0  0  0  0  0  0  0  0
  188.9350  178.2310  138.8490 C   0  0  0  0  0  2  0  0  0  0  0  0
  187.6420  178.2590  139.6520 C   0  0  1  0  0  3  0  0  0  0  0  0
  189.3740  178.0550  141.2020 C   0  0  1  0  0  3  0  0  0  0  0  0
  188.2100  175.7090  143.2100 O   0  0  0  0  0  1  0  0  0  0  0  0
  189.6980  176.8350  144.6710 C   0  0  0  0  0  2  0  0  0  0  0  0
  190.9270  177.6620  144.3660 C   0  0  0  0  0  2  0  0  0  0  0  0
  189.9040  177.1290  142.3120 C   0  0  1  0  0  3  0  0  0  0  0  0
  191.1030  177.7030  142.9190 N   0  0  0  0  0  2  0  0  0  0  0  0
  188.8850  176.9130  143.4110 C   0  0  1  0  0  3  0  0  0  0  0  0
  186.1120  178.7080  142.3410 O   0  0  0  0  0  1  0  0  0  0  0  0
  187.3530  179.0800  141.8230 C   0  0  0  0  0  2  0  0  0  0  0  0
  190.2980  176.3200  139.5720 C   0  0  0  0  0  2  0  0  0  0  0  0
  190.2710  174.7910  137.7410 O   0  0  0  0  0  1  0  0  0  0  0  0
  190.5920  176.1020  138.1010 C   0  0  2  0  0  3  0  0  0  0  0  0
  192.0630  176.3620  137.8390 C   0  0  0  0  0  2  0  0  0  0  0  0
  192.3860  176.1650  136.3660 C   0  0  0  0  0  2  0  0  0  0  0  0
  195.7280  175.0860  135.8390 N   0  0  0  0  0  0  0  0  0  0  0  0
  193.8400  174.0550  136.3830 C   0  0  0  0  0  3  0  0  0  0  0  0
  193.6750  175.4360  136.2020 C   0  0  0  0  0  0  0  0  0  0  0  0
  194.8520  176.0600  135.9520 N   0  0  0  0  0  0  0  0  0  0  0  0
  198.6550  173.1440  137.1990 C   0  0  0  0  0  1  0  0  0  0  0  0
  197.8890  175.9970  136.2120 O   0  0  0  0  0  0  0  0  0  0  0  0
  197.3630  173.6520  136.6600 C   0  0  0  0  0  0  0  0  0  0  0  0
  196.2020  172.9740  136.6120 C   0  0  0  0  0  0  0  0  0  0  0  0
  197.0920  175.0210  136.2060 C   0  0  0  0  0  0  0  0  0  0  0  0
  195.1870  173.9150  136.1160 C   0  0  0  0  0  0  0  0  0  0  0  0
  195.1780  170.7710  136.1240 C   0  0  0  0  0  1  0  0  0  0  0  0
  195.9750  171.5860  137.1240 C   0  0  2  0  0  3  0  0  0  0  0  0
  195.2780  171.6290  138.3970 N   0  0  0  0  0  1  0  0  0  0  0  0
  186.6390  177.4170  139.1160 O   0  0  0  0  0  0  0  0  0  0  0  0
  186.3740  177.7970  137.7880 C   0  0  0  0  0  2  0  0  0  0  0  0
  184.8800  177.7390  137.5150 C   0  0  0  0  0  2  0  0  0  0  0  0
  184.1140  178.6700  138.4400 C   0  0  0  0  0  2  0  0  0  0  0  0
  182.9300  178.0570  138.8620 O   0  0  0  0  0  0  0  0  0  0  0  0
  182.1110  179.0990  139.3070 C   0  0  2  0  0  3  0  0  0  0  0  0
  181.7860  178.8980  140.7570 C   0  0  0  0  0  0  0  0  0  0  0  0
  180.5060  178.9170  141.1470 C   0  0  0  0  0  3  0  0  0  0  0  0
  182.5210  178.9970  143.1510 C   0  0  1  0  0  3  0  0  0  0  0  0
  180.1490  178.6870  142.5590 C   0  0  0  0  0  3  0  0  0  0  0  0
  182.8700  178.5200  141.7380 C   0  0  0  0  0  2  0  0  0  0  0  0
  181.0950  178.6770  143.5020 C   0  0  0  0  0  3  0  0  0  0  0  0
  183.3780  178.4280  144.0740 F   0  0  0  0  0  0  0  0  0  0  0  0
  180.8400  179.1580  138.4500 C   0  0  2  0  0  3  0  0  0  0  0  0
  180.7150  177.9930  137.6860 O   0  0  0  0  0  1  0  0  0  0  0  0
  180.7990  182.5650  135.9200 C   0  0  0  0  0  0  0  0  0  0  0  0
  180.7760  180.2290  136.1500 C   0  0  0  0  0  3  0  0  0  0  0  0
  180.7700  181.3350  135.3490 N   0  0  0  0  0  0  0  0  0  0  0  0
  180.8640  184.7200  136.1430 C   0  0  0  0  0  3  0  0  0  0  0  0
  180.8410  181.6440  138.1290 C   0  0  0  0  0  3  0  0  0  0  0  0
  180.8080  180.3620  137.5570 C   0  0  0  0  0  0  0  0  0  0  0  0
  180.8150  183.7970  135.2320 N   0  0  0  0  0  0  0  0  0  0  0  0
  180.8840  184.1840  137.5560 C   0  0  0  0  0  2  0  0  0  0  0  0
  180.8360  182.7350  137.2690 C   0  0  0  0  0  0  0  0  0  0  0  0
  1 14  1  1  0  0  0
  1  5  1  0  0  0  0
  2 13  1  0  0  0  0
  3  4  1  0  0  0  0
  3  1  1  0  0  0  0
  4 32  1  6  0  0  0
  4  2  1  0  0  0  0
  5  2  1  6  0  0  0
  5  9  1  0  0  0  0
  8  7  1  0  0  0  0
  9 10  1  1  0  0  0
  9 11  1  0  0  0  0
 10  8  1  0  0  0  0
 11  6  1  6  0  0  0
 11  7  1  0  0  0  0
 13 12  1  0  0  0  0
 16 15  1  1  0  0  0
 16 14  1  0  0  0  0
 17 16  1  0  0  0  0
 18 17  1  0  0  0  0
 19 22  1  0  0  0  0
 19 28  1  0  0  0  0
 19 27  1  0  0  0  0
 21 18  1  0  0  0  0
 21 20  1  0  0  0  0
 22 21  2  0  0  0  0
 25 23  1  0  0  0  0
 26 25  2  0  0  0  0
 26 30  1  0  0  0  0
 27 24  2  0  0  0  0
 27 25  1  0  0  0  0
 28 20  2  0  0  0  0
 28 26  1  0  0  0  0
 30 29  1  6  0  0  0
 30 31  1  0  0  0  0
 33 32  1  0  0  0  0
 34 33  1  0  0  0  0
 34 35  1  0  0  0  0
 35 36  1  0  0  0  0
 37 36  1  6  0  0  0
 37 38  1  0  0  0  0
 38 39  2  0  0  0  0
 38 42  1  0  0  0  0
 39 41  1  0  0  0  0
 40 43  1  0  0  0  0
 40 44  1  1  0  0  0
 41 43  2  0  0  0  0
 42 40  1  0  0  0  0
 45 46  1  6  0  0  0
 45 37  1  0  0  0  0
 47 55  1  0  0  0  0
 48 52  2  0  0  0  0
 49 47  2  0  0  0  0
 49 48  1  0  0  0  0
 50 54  1  0  0  0  0
 52 51  1  0  0  0  0
 52 45  1  0  0  0  0
 53 47  1  0  0  0  0
 53 50  2  0  0  0  0
 55 54  1  0  0  0  0
 55 51  2  0  0  0  0
M  END
>  <MODEL>
9

>  <REMARK>
 VINA RESULT:      -6.9      4.031     10.747
  Name = 
  17 active torsions:
  status: ('A' for Active; 'I' for Inactive)
    1  A    between atoms: C_3  and  C_39
    2  A    between atoms: C_3  and  C_42
    3  A    between atoms: C_4  and  C_18
    4  A    between atoms: N_7  and  C_51
    5  A    between atoms: C_8  and  C_39
    6  A    between atoms: C_10  and  C_18
    7  A    between atoms: C_10  and  C_53
    8  A    between atoms: C_11  and  O_34
    9  A    between atoms: C_11  and  C_35
   10  A    between atoms: C_20  and  O_34
   11  A    between atoms: C_21  and  C_48
   12  A    between atoms: O_22  and  C_36
   13  A    between atoms: O_22  and  C_39
   14  A    between atoms: C_24  and  C_44
   15  A    between atoms: C_33  and  C_54
   16  A    between atoms: C_35  and  C_36
   17  A    between atoms: C_48  and  C_53
                            x       y       z     vdW  Elec       q    Type
                         _______ _______ _______ _____ _____    ______ ____

>  <TORSDO>
F 17

$$$$
