=
 OpenBabel11062416493D

 34 35  0  0  1  0  0  0  0  0999 V2000
  190.0220  177.4910  144.1700 C   0  0  0  0  0  0  0  0  0  0  0  0
  189.2780  178.1290  145.2200 N   0  0  0  0  0  2  0  0  0  0  0  0
  191.1470  178.0110  143.8030 N   0  0  0  0  0  2  0  0  0  0  0  0
  185.9360  178.6270  146.4600 C   0  0  0  0  0  3  0  0  0  0  0  0
  187.1050  178.0870  146.2620 C   0  0  0  0  0  0  0  0  0  0  0  0
  188.2760  177.5420  146.0640 C   0  0  0  0  0  3  0  0  0  0  0  0
  185.1240  179.0890  145.3000 C   0  0  0  0  0  2  0  0  0  0  0  0
  185.4180  178.2370  144.0740 C   0  0  0  0  0  2  0  0  0  0  0  0
  184.2420  178.2430  143.1010 C   0  0  2  0  0  3  0  0  0  0  0  0
  185.3350  179.5150  141.2800 N   0  0  0  0  0  2  0  0  0  0  0  0
  183.7310  179.1820  139.7390 C   0  0  0  0  0  2  0  0  0  0  0  0
  183.6530  178.0750  140.6890 C   0  0  0  0  0  0  0  0  0  0  0  0
  184.7350  178.2360  141.6450 C   0  0  2  0  0  3  0  0  0  0  0  0
  181.8260  176.9860  139.6510 O   0  0  0  0  0  1  0  0  0  0  0  0
  184.9420  179.8510  140.0070 O   0  0  0  0  0  0  0  0  0  0  0  0
  182.7990  177.0570  140.6410 C   0  0  0  0  0  3  0  0  0  0  0  0
  183.2300  179.3510  143.4210 C   0  0  0  0  0  2  0  0  0  0  0  0
  181.9790  178.8180  143.7400 O   0  0  0  0  0  1  0  0  0  0  0  0
  189.5540  176.2200  143.5110 C   0  0  1  0  0  3  0  0  0  0  0  0
  188.1470  176.2040  143.4290 O   0  0  0  0  0  0  0  0  0  0  0  0
  188.8250  176.3720  142.2090 C   0  0  1  0  0  3  0  0  0  0  0  0
  188.6050  177.7980  141.7170 C   0  0  0  0  0  2  0  0  0  0  0  0
  188.7280  177.8460  140.2360 C   0  0  0  0  0  0  0  0  0  0  0  0
  188.0050  178.6410  139.5780 O   0  0  0  0  0  0  0  0  0  0  0  0
  189.6270  176.9930  139.5910 O   0  0  0  0  0  0  0  0  0  0  0  0
  191.0270  177.2460  139.5550 C   0  0  0  0  0  2  0  0  0  0  0  0
  191.6560  176.6130  138.3170 C   0  0  1  0  0  3  0  0  0  0  0  0
  193.1510  176.7150  138.3140 C   0  0  0  0  0  0  0  0  0  0  0  0
  193.8670  176.9750  139.5180 N   0  0  0  0  0  1  0  0  0  0  0  0
  193.7820  176.5460  137.2390 O   0  0  0  0  0  0  0  0  0  0  0  0
  191.1670  175.1790  138.0860 C   0  0  0  0  0  2  0  0  0  0  0  0
  190.4610  174.9820  136.7770 C   0  0  0  0  0  0  0  0  0  0  0  0
  189.9310  173.6370  136.4200 C   0  0  0  0  0  1  0  0  0  0  0  0
  190.3490  175.9060  135.9890 O   0  0  0  0  0  0  0  0  0  0  0  0
  1  2  1  0  0  0  0
  2  6  1  0  0  0  0
  3  1  2  0  0  0  0
  5  4  2  0  0  0  0
  6  5  2  0  0  0  0
  7  4  1  0  0  0  0
  8  7  1  0  0  0  0
  9 17  1  6  0  0  0
  9  8  1  0  0  0  0
 10 13  1  0  0  0  0
 11 15  1  0  0  0  0
 11 12  1  0  0  0  0
 12 13  1  0  0  0  0
 13  9  1  1  0  0  0
 14 16  1  0  0  0  0
 15 10  1  0  0  0  0
 16 12  2  0  0  0  0
 17 18  1  0  0  0  0
 19  1  1  1  0  0  0
 20 19  1  0  0  0  0
 21 22  1  1  0  0  0
 21 20  1  0  0  0  0
 21 19  1  0  0  0  0
 23 22  1  0  0  0  0
 24 23  2  0  0  0  0
 25 23  1  0  0  0  0
 26 25  1  0  0  0  0
 27 31  1  1  0  0  0
 27 26  1  0  0  0  0
 28 27  1  0  0  0  0
 28 29  1  0  0  0  0
 30 28  2  0  0  0  0
 32 31  1  0  0  0  0
 33 32  1  0  0  0  0
 34 32  2  0  0  0  0
M  END
>  <MODEL>
1

>  <REMARK>
 VINA RESULT:      -7.0      0.000      0.000
  Name = 
  15 active torsions:
  status: ('A' for Active; 'I' for Inactive)
    1  A    between atoms: C_1  and  C_33
    2  A    between atoms: C_2  and  C_21
    3  A    between atoms: C_4  and  C_18
    4  A    between atoms: C_4  and  O_28
    5  A    between atoms: C_5  and  C_15
    6  A    between atoms: C_6  and  C_21
    7  A    between atoms: C_6  and  C_33
    8  A    between atoms: C_10  and  C_34
    9  A    between atoms: C_11  and  O_28
   10  A    between atoms: C_11  and  C_34
   11  A    between atoms: C_12  and  C_32
   12  A    between atoms: C_13  and  C_33
   13  A    between atoms: N_17  and  C_30
   14  A    between atoms: C_18  and  C_26
   15  A    between atoms: C_32  and  C_34
                            x       y       z     vdW  Elec       q    Type
                         _______ _______ _______ _____ _____    ______ ____

>  <TORSDO>
F 15

$$$$
=
 OpenBabel11062416493D

 34 35  0  0  1  0  0  0  0  0999 V2000
  190.4410  177.6650  144.3550 C   0  0  0  0  0  0  0  0  0  0  0  0
  189.3420  178.1920  145.1140 N   0  0  0  0  0  2  0  0  0  0  0  0
  191.4880  178.4040  144.1830 N   0  0  0  0  0  2  0  0  0  0  0  0
  185.8980  178.3950  146.1410 C   0  0  0  0  0  3  0  0  0  0  0  0
  187.1020  177.9280  145.9620 C   0  0  0  0  0  0  0  0  0  0  0  0
  188.3060  177.4560  145.7820 C   0  0  0  0  0  3  0  0  0  0  0  0
  185.1560  178.9950  144.9990 C   0  0  0  0  0  2  0  0  0  0  0  0
  185.4650  178.2450  143.7120 C   0  0  0  0  0  2  0  0  0  0  0  0
  184.2660  178.2470  142.7670 C   0  0  2  0  0  3  0  0  0  0  0  0
  185.2780  179.5430  140.9180 N   0  0  0  0  0  2  0  0  0  0  0  0
  183.6480  179.1600  139.4170 C   0  0  0  0  0  2  0  0  0  0  0  0
  183.6240  178.0540  140.3710 C   0  0  0  0  0  0  0  0  0  0  0  0
  184.7240  178.2490  141.3000 C   0  0  2  0  0  3  0  0  0  0  0  0
  181.8040  176.9120  139.3800 O   0  0  0  0  0  1  0  0  0  0  0  0
  184.8460  179.8630  139.6530 O   0  0  0  0  0  0  0  0  0  0  0  0
  182.7970  177.0130  140.3460 C   0  0  0  0  0  3  0  0  0  0  0  0
  183.2550  179.3480  143.1170 C   0  0  0  0  0  2  0  0  0  0  0  0
  182.0000  178.8080  143.4100 O   0  0  0  0  0  1  0  0  0  0  0  0
  190.4300  176.2690  143.7870 C   0  0  1  0  0  3  0  0  0  0  0  0
  189.1590  175.9720  143.2550 O   0  0  0  0  0  0  0  0  0  0  0  0
  190.1850  176.1510  142.3120 C   0  0  1  0  0  3  0  0  0  0  0  0
  189.9380  177.4540  141.5590 C   0  0  0  0  0  2  0  0  0  0  0  0
  190.8160  177.5200  140.3600 C   0  0  0  0  0  0  0  0  0  0  0  0
  192.0670  177.4580  140.5010 O   0  0  0  0  0  0  0  0  0  0  0  0
  190.2440  177.6730  139.0950 O   0  0  0  0  0  0  0  0  0  0  0  0
  190.6220  176.8680  137.9840 C   0  0  0  0  0  2  0  0  0  0  0  0
  189.3870  176.3490  137.2520 C   0  0  1  0  0  3  0  0  0  0  0  0
  189.4880  174.8930  136.9150 C   0  0  0  0  0  0  0  0  0  0  0  0
  188.8130  174.3570  135.7800 N   0  0  0  0  0  1  0  0  0  0  0  0
  190.1960  174.1380  137.6300 O   0  0  0  0  0  0  0  0  0  0  0  0
  188.0880  176.6920  137.9890 C   0  0  0  0  0  2  0  0  0  0  0  0
  187.1890  177.6230  137.2320 C   0  0  0  0  0  0  0  0  0  0  0  0
  185.7590  177.2610  137.0240 C   0  0  0  0  0  1  0  0  0  0  0  0
  187.6270  178.6580  136.7570 O   0  0  0  0  0  0  0  0  0  0  0  0
  1  2  1  0  0  0  0
  2  6  1  0  0  0  0
  3  1  2  0  0  0  0
  5  4  2  0  0  0  0
  6  5  2  0  0  0  0
  7  4  1  0  0  0  0
  8  7  1  0  0  0  0
  9 17  1  1  0  0  0
  9  8  1  0  0  0  0
 10 13  1  0  0  0  0
 11 15  1  0  0  0  0
 11 12  1  0  0  0  0
 12 13  1  0  0  0  0
 13  9  1  1  0  0  0
 14 16  1  0  0  0  0
 15 10  1  0  0  0  0
 16 12  2  0  0  0  0
 17 18  1  0  0  0  0
 19  1  1  6  0  0  0
 20 19  1  0  0  0  0
 21 22  1  6  0  0  0
 21 20  1  0  0  0  0
 21 19  1  0  0  0  0
 23 24  2  0  0  0  0
 23 22  1  0  0  0  0
 25 23  1  0  0  0  0
 26 25  1  0  0  0  0
 27 26  1  1  0  0  0
 27 31  1  0  0  0  0
 28 27  1  0  0  0  0
 28 30  2  0  0  0  0
 29 28  1  0  0  0  0
 32 31  1  0  0  0  0
 33 32  1  0  0  0  0
 34 32  2  0  0  0  0
M  END
>  <MODEL>
2

>  <REMARK>
 VINA RESULT:      -6.9      1.848      2.435
  Name = 
  15 active torsions:
  status: ('A' for Active; 'I' for Inactive)
    1  A    between atoms: C_1  and  C_33
    2  A    between atoms: C_2  and  C_21
    3  A    between atoms: C_4  and  C_18
    4  A    between atoms: C_4  and  O_28
    5  A    between atoms: C_5  and  C_15
    6  A    between atoms: C_6  and  C_21
    7  A    between atoms: C_6  and  C_33
    8  A    between atoms: C_10  and  C_34
    9  A    between atoms: C_11  and  O_28
   10  A    between atoms: C_11  and  C_34
   11  A    between atoms: C_12  and  C_32
   12  A    between atoms: C_13  and  C_33
   13  A    between atoms: N_17  and  C_30
   14  A    between atoms: C_18  and  C_26
   15  A    between atoms: C_32  and  C_34
                            x       y       z     vdW  Elec       q    Type
                         _______ _______ _______ _____ _____    ______ ____

>  <TORSDO>
F 15

$$$$
=
 OpenBabel11062416493D

 34 35  0  0  1  0  0  0  0  0999 V2000
  183.4180  177.9720  140.5930 C   0  0  0  0  0  0  0  0  0  0  0  0
  183.9990  177.8800  141.9040 N   0  0  0  0  0  2  0  0  0  0  0  0
  182.7410  176.9680  140.1430 N   0  0  0  0  0  2  0  0  0  0  0  0
  185.4920  178.5850  145.1020 C   0  0  0  0  0  3  0  0  0  0  0  0
  184.9460  178.7700  143.9320 C   0  0  0  0  0  0  0  0  0  0  0  0
  184.4020  178.9590  142.7610 C   0  0  0  0  0  3  0  0  0  0  0  0
  186.6320  177.6390  145.2490 C   0  0  0  0  0  2  0  0  0  0  0  0
  187.0870  177.5770  146.6990 C   0  0  0  0  0  2  0  0  0  0  0  0
  188.5580  177.9610  146.8360 C   0  0  2  0  0  3  0  0  0  0  0  0
  190.3920  176.3310  147.1610 N   0  0  0  0  0  2  0  0  0  0  0  0
  191.7050  177.0920  145.5030 C   0  0  0  0  0  2  0  0  0  0  0  0
  190.3320  177.4560  145.1650 C   0  0  0  0  0  0  0  0  0  0  0  0
  189.4640  176.9010  146.1900 C   0  0  2  0  0  3  0  0  0  0  0  0
  190.8570  178.5560  143.1370 O   0  0  0  0  0  1  0  0  0  0  0  0
  191.6240  176.1790  146.5730 O   0  0  0  0  0  0  0  0  0  0  0  0
  189.9360  178.1050  144.0750 C   0  0  0  0  0  3  0  0  0  0  0  0
  188.9320  178.3200  148.2800 C   0  0  0  0  0  2  0  0  0  0  0  0
  187.8630  178.0960  149.1510 O   0  0  0  0  0  1  0  0  0  0  0  0
  183.5390  179.2120  139.7450 C   0  0  1  0  0  3  0  0  0  0  0  0
  184.8010  179.8100  139.9370 O   0  0  0  0  0  0  0  0  0  0  0  0
  184.6040  179.1960  138.6890 C   0  0  1  0  0  3  0  0  0  0  0  0
  185.4690  177.9430  138.6170 C   0  0  0  0  0  2  0  0  0  0  0  0
  185.4000  177.3590  137.2510 C   0  0  0  0  0  0  0  0  0  0  0  0
  184.3070  177.3720  136.6230 O   0  0  0  0  0  0  0  0  0  0  0  0
  186.5420  176.7820  136.6900 O   0  0  0  0  0  0  0  0  0  0  0  0
  187.7210  176.5300  137.4470 C   0  0  0  0  0  2  0  0  0  0  0  0
  188.8490  177.4600  137.0100 C   0  0  1  0  0  3  0  0  0  0  0  0
  188.9760  178.6650  137.8920 C   0  0  0  0  0  0  0  0  0  0  0  0
  189.1040  178.5260  139.3040 N   0  0  0  0  0  1  0  0  0  0  0  0
  188.9940  179.8120  137.3750 O   0  0  0  0  0  0  0  0  0  0  0  0
  190.1780  176.7180  136.8360 C   0  0  0  0  0  2  0  0  0  0  0  0
  190.2940  175.4770  137.6700 C   0  0  0  0  0  0  0  0  0  0  0  0
  189.8800  174.1640  137.1000 C   0  0  0  0  0  1  0  0  0  0  0  0
  190.6910  175.5390  138.8220 O   0  0  0  0  0  0  0  0  0  0  0  0
  1  2  1  0  0  0  0
  2  6  1  0  0  0  0
  3  1  2  0  0  0  0
  4  7  1  0  0  0  0
  5  4  2  0  0  0  0
  6  5  2  0  0  0  0
  7  8  1  0  0  0  0
  9  8  1  1  0  0  0
  9 17  1  0  0  0  0
 11 15  1  0  0  0  0
 12 11  1  0  0  0  0
 12 13  1  0  0  0  0
 13  9  1  1  0  0  0
 13 10  1  0  0  0  0
 14 16  1  0  0  0  0
 15 10  1  0  0  0  0
 16 12  2  0  0  0  0
 17 18  1  0  0  0  0
 19 20  1  0  0  0  0
 19  1  1  1  0  0  0
 21 22  1  1  0  0  0
 21 19  1  0  0  0  0
 21 20  1  0  0  0  0
 23 22  1  0  0  0  0
 24 23  2  0  0  0  0
 25 23  1  0  0  0  0
 25 26  1  0  0  0  0
 27 31  1  1  0  0  0
 27 26  1  0  0  0  0
 27 28  1  0  0  0  0
 28 29  1  0  0  0  0
 30 28  2  0  0  0  0
 31 32  1  0  0  0  0
 32 34  2  0  0  0  0
 33 32  1  0  0  0  0
M  END
>  <MODEL>
3

>  <REMARK>
 VINA RESULT:      -6.9      2.585      6.110
  Name = 
  15 active torsions:
  status: ('A' for Active; 'I' for Inactive)
    1  A    between atoms: C_1  and  C_33
    2  A    between atoms: C_2  and  C_21
    3  A    between atoms: C_4  and  C_18
    4  A    between atoms: C_4  and  O_28
    5  A    between atoms: C_5  and  C_15
    6  A    between atoms: C_6  and  C_21
    7  A    between atoms: C_6  and  C_33
    8  A    between atoms: C_10  and  C_34
    9  A    between atoms: C_11  and  O_28
   10  A    between atoms: C_11  and  C_34
   11  A    between atoms: C_12  and  C_32
   12  A    between atoms: C_13  and  C_33
   13  A    between atoms: N_17  and  C_30
   14  A    between atoms: C_18  and  C_26
   15  A    between atoms: C_32  and  C_34
                            x       y       z     vdW  Elec       q    Type
                         _______ _______ _______ _____ _____    ______ ____

>  <TORSDO>
F 15

$$$$
=
 OpenBabel11062416493D

 34 35  0  0  1  0  0  0  0  0999 V2000
  190.4040  175.6690  137.9190 C   0  0  0  0  0  0  0  0  0  0  0  0
  190.9340  175.9490  139.2250 N   0  0  0  0  0  2  0  0  0  0  0  0
  190.0240  174.4650  137.6480 N   0  0  0  0  0  2  0  0  0  0  0  0
  190.4590  177.5520  142.4120 C   0  0  0  0  0  3  0  0  0  0  0  0
  190.7340  177.3860  141.1490 C   0  0  0  0  0  0  0  0  0  0  0  0
  191.0120  177.2210  139.8830 C   0  0  0  0  0  3  0  0  0  0  0  0
  191.0590  176.6460  143.4290 C   0  0  0  0  0  2  0  0  0  0  0  0
  191.4250  177.4240  144.6840 C   0  0  0  0  0  2  0  0  0  0  0  0
  190.7260  176.8530  145.9140 C   0  0  2  0  0  3  0  0  0  0  0  0
  189.7020  177.8370  147.9410 N   0  0  0  0  0  2  0  0  0  0  0  0
  187.5650  177.4480  147.3610 C   0  0  0  0  0  2  0  0  0  0  0  0
  188.3390  177.5250  146.1250 C   0  0  0  0  0  0  0  0  0  0  0  0
  189.7090  177.8550  146.4830 C   0  0  2  0  0  3  0  0  0  0  0  0
  186.5200  177.1220  144.6670 O   0  0  0  0  0  1  0  0  0  0  0  0
  188.4060  177.9220  148.3880 O   0  0  0  0  0  0  0  0  0  0  0  0
  187.8640  177.3990  144.8900 C   0  0  0  0  0  3  0  0  0  0  0  0
  191.7230  176.3080  146.9460 C   0  0  0  0  0  2  0  0  0  0  0  0
  192.3880  175.1800  146.4620 O   0  0  0  0  0  1  0  0  0  0  0  0
  190.2450  176.7400  136.8700 C   0  0  1  0  0  3  0  0  0  0  0  0
  189.2280  176.3830  135.9620 O   0  0  0  0  0  0  0  0  0  0  0  0
  188.9200  177.4430  136.8300 C   0  0  1  0  0  3  0  0  0  0  0  0
  187.8710  176.9710  137.8300 C   0  0  0  0  0  2  0  0  0  0  0  0
  187.2850  178.1400  138.5380 C   0  0  0  0  0  0  0  0  0  0  0  0
  187.9120  178.6650  139.4980 O   0  0  0  0  0  0  0  0  0  0  0  0
  186.0360  178.6270  138.1460 O   0  0  0  0  0  0  0  0  0  0  0  0
  184.8300  177.9060  138.3730 C   0  0  0  0  0  2  0  0  0  0  0  0
  183.9400  178.6480  139.3670 C   0  0  1  0  0  3  0  0  0  0  0  0
  182.6070  179.0100  138.7860 C   0  0  0  0  0  0  0  0  0  0  0  0
  181.6080  179.6360  139.5860 N   0  0  0  0  0  1  0  0  0  0  0  0
  182.3770  178.7800  137.5710 O   0  0  0  0  0  0  0  0  0  0  0  0
  183.8150  177.9050  140.7010 C   0  0  0  0  0  2  0  0  0  0  0  0
  184.1930  178.7330  141.8940 C   0  0  0  0  0  0  0  0  0  0  0  0
  185.5850  179.2450  142.0250 C   0  0  0  0  0  1  0  0  0  0  0  0
  183.3780  178.9610  142.7730 O   0  0  0  0  0  0  0  0  0  0  0  0
  1  2  1  0  0  0  0
  2  6  1  0  0  0  0
  3  1  2  0  0  0  0
  4  7  1  0  0  0  0
  5  4  2  0  0  0  0
  6  5  2  0  0  0  0
  7  8  1  0  0  0  0
  9  8  1  6  0  0  0
  9 17  1  0  0  0  0
 10 15  1  0  0  0  0
 11 15  1  0  0  0  0
 12 13  1  0  0  0  0
 12 11  1  0  0  0  0
 13  9  1  6  0  0  0
 13 10  1  0  0  0  0
 14 16  1  0  0  0  0
 16 12  2  0  0  0  0
 18 17  1  0  0  0  0
 19  1  1  1  0  0  0
 20 21  1  0  0  0  0
 20 19  1  0  0  0  0
 21 19  1  0  0  0  0
 21 22  1  1  0  0  0
 22 23  1  0  0  0  0
 23 24  2  0  0  0  0
 25 26  1  0  0  0  0
 25 23  1  0  0  0  0
 27 26  1  6  0  0  0
 27 31  1  0  0  0  0
 28 27  1  0  0  0  0
 28 29  1  0  0  0  0
 30 28  2  0  0  0  0
 31 32  1  0  0  0  0
 32 33  1  0  0  0  0
 32 34  2  0  0  0  0
M  END
>  <MODEL>
4

>  <REMARK>
 VINA RESULT:      -6.8      2.454      7.776
  Name = 
  15 active torsions:
  status: ('A' for Active; 'I' for Inactive)
    1  A    between atoms: C_1  and  C_33
    2  A    between atoms: C_2  and  C_21
    3  A    between atoms: C_4  and  C_18
    4  A    between atoms: C_4  and  O_28
    5  A    between atoms: C_5  and  C_15
    6  A    between atoms: C_6  and  C_21
    7  A    between atoms: C_6  and  C_33
    8  A    between atoms: C_10  and  C_34
    9  A    between atoms: C_11  and  O_28
   10  A    between atoms: C_11  and  C_34
   11  A    between atoms: C_12  and  C_32
   12  A    between atoms: C_13  and  C_33
   13  A    between atoms: N_17  and  C_30
   14  A    between atoms: C_18  and  C_26
   15  A    between atoms: C_32  and  C_34
                            x       y       z     vdW  Elec       q    Type
                         _______ _______ _______ _____ _____    ______ ____

>  <TORSDO>
F 15

$$$$
=
 OpenBabel11062416493D

 34 35  0  0  1  0  0  0  0  0999 V2000
  190.3770  177.7450  144.0650 C   0  0  0  0  0  0  0  0  0  0  0  0
  189.4390  178.2210  145.0440 N   0  0  0  0  0  2  0  0  0  0  0  0
  191.4120  178.4690  143.7930 N   0  0  0  0  0  2  0  0  0  0  0  0
  186.0960  178.2950  146.3720 C   0  0  0  0  0  3  0  0  0  0  0  0
  187.2950  177.8740  146.0870 C   0  0  0  0  0  0  0  0  0  0  0  0
  188.4960  177.4480  145.8010 C   0  0  0  0  0  3  0  0  0  0  0  0
  185.2320  178.8630  145.3010 C   0  0  0  0  0  2  0  0  0  0  0  0
  185.5670  178.2310  143.9580 C   0  0  0  0  0  2  0  0  0  0  0  0
  184.3630  178.2490  143.0210 C   0  0  2  0  0  3  0  0  0  0  0  0
  185.4190  179.5230  141.1810 N   0  0  0  0  0  2  0  0  0  0  0  0
  183.7650  179.2300  139.6860 C   0  0  0  0  0  2  0  0  0  0  0  0
  183.6990  178.1140  140.6260 C   0  0  0  0  0  0  0  0  0  0  0  0
  184.8120  178.2500  141.5510 C   0  0  2  0  0  3  0  0  0  0  0  0
  181.8260  177.0630  139.6330 O   0  0  0  0  0  1  0  0  0  0  0  0
  184.9930  179.8780  139.9230 O   0  0  0  0  0  0  0  0  0  0  0  0
  182.8290  177.1100  140.5940 C   0  0  0  0  0  3  0  0  0  0  0  0
  183.3660  179.3590  143.3790 C   0  0  0  0  0  2  0  0  0  0  0  0
  182.1190  178.8300  143.7200 O   0  0  0  0  0  1  0  0  0  0  0  0
  190.2140  176.4150  143.3750 C   0  0  1  0  0  3  0  0  0  0  0  0
  188.8560  176.0370  143.3640 O   0  0  0  0  0  0  0  0  0  0  0  0
  189.3920  176.4110  142.1200 C   0  0  1  0  0  3  0  0  0  0  0  0
  188.7830  177.7450  141.7040 C   0  0  0  0  0  2  0  0  0  0  0  0
  189.0330  177.9860  140.2580 C   0  0  0  0  0  0  0  0  0  0  0  0
  188.2700  178.7560  139.6150 O   0  0  0  0  0  0  0  0  0  0  0  0
  190.0960  177.3380  139.6250 O   0  0  0  0  0  0  0  0  0  0  0  0
  190.2740  177.3630  138.2130 C   0  0  0  0  0  2  0  0  0  0  0  0
  189.9180  176.0110  137.6030 C   0  0  1  0  0  3  0  0  0  0  0  0
  188.5180  175.9710  137.0700 C   0  0  0  0  0  0  0  0  0  0  0  0
  187.9500  177.1070  136.4230 N   0  0  0  0  0  1  0  0  0  0  0  0
  187.8440  174.9140  137.1740 O   0  0  0  0  0  0  0  0  0  0  0  0
  190.9510  175.5490  136.5700 C   0  0  0  0  0  2  0  0  0  0  0  0
  192.3140  175.3000  137.1440 C   0  0  0  0  0  0  0  0  0  0  0  0
  193.3940  176.3040  136.9420 C   0  0  0  0  0  1  0  0  0  0  0  0
  192.5520  174.2660  137.7460 O   0  0  0  0  0  0  0  0  0  0  0  0
  1  2  1  0  0  0  0
  2  6  1  0  0  0  0
  3  1  2  0  0  0  0
  5  4  2  0  0  0  0
  6  5  2  0  0  0  0
  7  4  1  0  0  0  0
  8  7  1  0  0  0  0
  9 17  1  1  0  0  0
  9  8  1  0  0  0  0
 10 13  1  0  0  0  0
 11 15  1  0  0  0  0
 11 12  1  0  0  0  0
 12 13  1  0  0  0  0
 13  9  1  1  0  0  0
 14 16  1  0  0  0  0
 15 10  1  0  0  0  0
 16 12  2  0  0  0  0
 17 18  1  0  0  0  0
 19  1  1  1  0  0  0
 20 19  1  0  0  0  0
 21 22  1  1  0  0  0
 21 20  1  0  0  0  0
 21 19  1  0  0  0  0
 23 22  1  0  0  0  0
 24 23  2  0  0  0  0
 25 23  1  0  0  0  0
 26 25  1  0  0  0  0
 27 31  1  6  0  0  0
 27 26  1  0  0  0  0
 28 30  2  0  0  0  0
 28 27  1  0  0  0  0
 29 28  1  0  0  0  0
 31 32  1  0  0  0  0
 32 34  2  0  0  0  0
 33 32  1  0  0  0  0
M  END
>  <MODEL>
5

>  <REMARK>
 VINA RESULT:      -6.8      1.426      2.112
  Name = 
  15 active torsions:
  status: ('A' for Active; 'I' for Inactive)
    1  A    between atoms: C_1  and  C_33
    2  A    between atoms: C_2  and  C_21
    3  A    between atoms: C_4  and  C_18
    4  A    between atoms: C_4  and  O_28
    5  A    between atoms: C_5  and  C_15
    6  A    between atoms: C_6  and  C_21
    7  A    between atoms: C_6  and  C_33
    8  A    between atoms: C_10  and  C_34
    9  A    between atoms: C_11  and  O_28
   10  A    between atoms: C_11  and  C_34
   11  A    between atoms: C_12  and  C_32
   12  A    between atoms: C_13  and  C_33
   13  A    between atoms: N_17  and  C_30
   14  A    between atoms: C_18  and  C_26
   15  A    between atoms: C_32  and  C_34
                            x       y       z     vdW  Elec       q    Type
                         _______ _______ _______ _____ _____    ______ ____

>  <TORSDO>
F 15

$$$$
=
 OpenBabel11062416493D

 34 35  0  0  1  0  0  0  0  0999 V2000
  188.8140  176.5440  137.3530 C   0  0  0  0  0  0  0  0  0  0  0  0
  189.3190  177.0870  138.5840 N   0  0  0  0  0  2  0  0  0  0  0  0
  188.8770  175.2670  137.1670 N   0  0  0  0  0  2  0  0  0  0  0  0
  187.4850  178.5560  141.3090 C   0  0  0  0  0  3  0  0  0  0  0  0
  188.2340  178.4500  140.2480 C   0  0  0  0  0  0  0  0  0  0  0  0
  188.9870  178.3470  139.1860 C   0  0  0  0  0  3  0  0  0  0  0  0
  187.7630  177.7130  142.5030 C   0  0  0  0  0  2  0  0  0  0  0  0
  189.1040  178.0870  143.1170 C   0  0  0  0  0  2  0  0  0  0  0  0
  189.6450  176.9620  143.9950 C   0  0  2  0  0  3  0  0  0  0  0  0
  191.7220  176.9360  145.3410 N   0  0  0  0  0  2  0  0  0  0  0  0
  190.7350  176.5520  147.3240 C   0  0  0  0  0  2  0  0  0  0  0  0
  189.7460  177.2030  146.4700 C   0  0  0  0  0  0  0  0  0  0  0  0
  190.3960  177.5280  145.2110 C   0  0  2  0  0  3  0  0  0  0  0  0
  187.9960  177.1910  148.0620 O   0  0  0  0  0  1  0  0  0  0  0  0
  191.9750  176.6800  146.6660 O   0  0  0  0  0  0  0  0  0  0  0  0
  188.5000  177.5170  146.8090 C   0  0  0  0  0  3  0  0  0  0  0  0
  190.4390  175.9270  143.1870 C   0  0  0  0  0  2  0  0  0  0  0  0
  190.8300  176.4420  141.9490 O   0  0  0  0  0  1  0  0  0  0  0  0
  188.1830  177.4080  136.2930 C   0  0  1  0  0  3  0  0  0  0  0  0
  187.2600  176.6540  135.5380 O   0  0  0  0  0  0  0  0  0  0  0  0
  186.7010  177.6150  136.3960 C   0  0  1  0  0  3  0  0  0  0  0  0
  185.9940  176.8990  137.5410 C   0  0  0  0  0  2  0  0  0  0  0  0
  184.7770  177.6570  137.9380 C   0  0  0  0  0  0  0  0  0  0  0  0
  183.8010  177.7260  137.1440 O   0  0  0  0  0  0  0  0  0  0  0  0
  184.7410  178.3030  139.1760 O   0  0  0  0  0  0  0  0  0  0  0  0
  183.7910  179.3200  139.4790 C   0  0  0  0  0  2  0  0  0  0  0  0
  183.0020  178.9600  140.7350 C   0  0  1  0  0  3  0  0  0  0  0  0
  181.7440  178.2060  140.4270 C   0  0  0  0  0  0  0  0  0  0  0  0
  181.7960  176.8800  139.9080 N   0  0  0  0  0  1  0  0  0  0  0  0
  180.6290  178.7420  140.6520 O   0  0  0  0  0  0  0  0  0  0  0  0
  183.8680  178.2530  141.7820 C   0  0  0  0  0  2  0  0  0  0  0  0
  183.6710  178.7640  143.1780 C   0  0  0  0  0  0  0  0  0  0  0  0
  184.8360  179.2860  143.9440 C   0  0  0  0  0  1  0  0  0  0  0  0
  182.5700  178.7220  143.7020 O   0  0  0  0  0  0  0  0  0  0  0  0
  1  2  1  0  0  0  0
  2  6  1  0  0  0  0
  3  1  2  0  0  0  0
  4  7  1  0  0  0  0
  5  4  2  0  0  0  0
  6  5  2  0  0  0  0
  7  8  1  0  0  0  0
  9  8  1  6  0  0  0
 10 15  1  0  0  0  0
 12 16  2  0  0  0  0
 12 11  1  0  0  0  0
 13  9  1  6  0  0  0
 13 10  1  0  0  0  0
 13 12  1  0  0  0  0
 15 11  1  0  0  0  0
 16 14  1  0  0  0  0
 17  9  1  0  0  0  0
 18 17  1  0  0  0  0
 19 21  1  0  0  0  0
 19  1  1  1  0  0  0
 20 19  1  0  0  0  0
 20 21  1  0  0  0  0
 21 22  1  1  0  0  0
 22 23  1  0  0  0  0
 23 25  1  0  0  0  0
 24 23  2  0  0  0  0
 25 26  1  0  0  0  0
 27 26  1  6  0  0  0
 27 31  1  0  0  0  0
 28 30  2  0  0  0  0
 28 27  1  0  0  0  0
 29 28  1  0  0  0  0
 31 32  1  0  0  0  0
 32 34  2  0  0  0  0
 32 33  1  0  0  0  0
M  END
>  <MODEL>
6

>  <REMARK>
 VINA RESULT:      -6.8      2.719      8.308
  Name = 
  15 active torsions:
  status: ('A' for Active; 'I' for Inactive)
    1  A    between atoms: C_1  and  C_33
    2  A    between atoms: C_2  and  C_21
    3  A    between atoms: C_4  and  C_18
    4  A    between atoms: C_4  and  O_28
    5  A    between atoms: C_5  and  C_15
    6  A    between atoms: C_6  and  C_21
    7  A    between atoms: C_6  and  C_33
    8  A    between atoms: C_10  and  C_34
    9  A    between atoms: C_11  and  O_28
   10  A    between atoms: C_11  and  C_34
   11  A    between atoms: C_12  and  C_32
   12  A    between atoms: C_13  and  C_33
   13  A    between atoms: N_17  and  C_30
   14  A    between atoms: C_18  and  C_26
   15  A    between atoms: C_32  and  C_34
                            x       y       z     vdW  Elec       q    Type
                         _______ _______ _______ _____ _____    ______ ____

>  <TORSDO>
F 15

$$$$
=
 OpenBabel11062416493D

 34 35  0  0  1  0  0  0  0  0999 V2000
  183.3260  178.1580  140.6640 C   0  0  0  0  0  0  0  0  0  0  0  0
  183.8310  178.0060  142.0010 N   0  0  0  0  0  2  0  0  0  0  0  0
  182.5280  177.2570  140.1960 N   0  0  0  0  0  2  0  0  0  0  0  0
  185.4690  178.5200  145.1640 C   0  0  0  0  0  3  0  0  0  0  0  0
  184.9100  178.7730  144.0140 C   0  0  0  0  0  0  0  0  0  0  0  0
  184.3520  179.0300  142.8610 C   0  0  0  0  0  3  0  0  0  0  0  0
  186.5240  177.4740  145.2630 C   0  0  0  0  0  2  0  0  0  0  0  0
  187.6790  177.7930  144.3250 C   0  0  0  0  0  2  0  0  0  0  0  0
  188.8310  176.8100  144.5110 C   0  0  2  0  0  3  0  0  0  0  0  0
  191.2530  176.7800  145.0200 N   0  0  0  0  0  2  0  0  0  0  0  0
  191.0420  176.7440  147.2580 C   0  0  0  0  0  2  0  0  0  0  0  0
  189.8320  177.3610  146.7220 C   0  0  0  0  0  0  0  0  0  0  0  0
  189.9910  177.4620  145.2800 C   0  0  2  0  0  3  0  0  0  0  0  0
  188.7820  177.7080  148.8130 O   0  0  0  0  0  1  0  0  0  0  0  0
  191.9620  176.6780  146.1920 O   0  0  0  0  0  0  0  0  0  0  0  0
  188.8060  177.8240  147.4280 C   0  0  0  0  0  3  0  0  0  0  0  0
  189.2430  176.1430  143.1910 C   0  0  0  0  0  2  0  0  0  0  0  0
  188.6080  176.7430  142.1010 O   0  0  0  0  0  1  0  0  0  0  0  0
  183.6660  179.3500  139.8070 C   0  0  1  0  0  3  0  0  0  0  0  0
  185.0270  179.6850  139.9580 O   0  0  0  0  0  0  0  0  0  0  0  0
  184.6740  179.1240  138.7190 C   0  0  1  0  0  3  0  0  0  0  0  0
  185.2690  177.7240  138.6260 C   0  0  0  0  0  2  0  0  0  0  0  0
  185.5550  177.3890  137.2050 C   0  0  0  0  0  0  0  0  0  0  0  0
  184.6450  176.8910  136.4890 O   0  0  0  0  0  0  0  0  0  0  0  0
  186.8340  177.6100  136.6900 O   0  0  0  0  0  0  0  0  0  0  0  0
  187.8940  176.6740  136.8530 C   0  0  0  0  0  2  0  0  0  0  0  0
  189.1740  177.3830  137.2890 C   0  0  1  0  0  3  0  0  0  0  0  0
  188.9020  178.6690  138.0080 C   0  0  0  0  0  0  0  0  0  0  0  0
  188.7440  178.6950  139.4240 N   0  0  0  0  0  1  0  0  0  0  0  0
  188.8350  179.7420  137.3550 O   0  0  0  0  0  0  0  0  0  0  0  0
  190.1100  176.4590  138.0750 C   0  0  0  0  0  2  0  0  0  0  0  0
  190.6720  175.3310  137.2620 C   0  0  0  0  0  0  0  0  0  0  0  0
  191.2890  175.6120  135.9360 C   0  0  0  0  0  1  0  0  0  0  0  0
  190.5960  174.1810  137.6630 O   0  0  0  0  0  0  0  0  0  0  0  0
  1  2  1  0  0  0  0
  2  6  1  0  0  0  0
  3  1  2  0  0  0  0
  4  7  1  0  0  0  0
  5  4  2  0  0  0  0
  6  5  2  0  0  0  0
  8  9  1  0  0  0  0
  8  7  1  0  0  0  0
  9 17  1  6  0  0  0
 10 13  1  0  0  0  0
 10 15  1  0  0  0  0
 12 11  1  0  0  0  0
 12 16  2  0  0  0  0
 13  9  1  6  0  0  0
 13 12  1  0  0  0  0
 15 11  1  0  0  0  0
 16 14  1  0  0  0  0
 18 17  1  0  0  0  0
 19 20  1  0  0  0  0
 19  1  1  1  0  0  0
 21 22  1  1  0  0  0
 21 19  1  0  0  0  0
 21 20  1  0  0  0  0
 23 22  1  0  0  0  0
 24 23  2  0  0  0  0
 25 26  1  0  0  0  0
 25 23  1  0  0  0  0
 27 26  1  1  0  0  0
 27 28  1  0  0  0  0
 27 31  1  0  0  0  0
 28 29  1  0  0  0  0
 30 28  2  0  0  0  0
 32 34  2  0  0  0  0
 32 31  1  0  0  0  0
 33 32  1  0  0  0  0
M  END
>  <MODEL>
7

>  <REMARK>
 VINA RESULT:      -6.7      2.479      6.174
  Name = 
  15 active torsions:
  status: ('A' for Active; 'I' for Inactive)
    1  A    between atoms: C_1  and  C_33
    2  A    between atoms: C_2  and  C_21
    3  A    between atoms: C_4  and  C_18
    4  A    between atoms: C_4  and  O_28
    5  A    between atoms: C_5  and  C_15
    6  A    between atoms: C_6  and  C_21
    7  A    between atoms: C_6  and  C_33
    8  A    between atoms: C_10  and  C_34
    9  A    between atoms: C_11  and  O_28
   10  A    between atoms: C_11  and  C_34
   11  A    between atoms: C_12  and  C_32
   12  A    between atoms: C_13  and  C_33
   13  A    between atoms: N_17  and  C_30
   14  A    between atoms: C_18  and  C_26
   15  A    between atoms: C_32  and  C_34
                            x       y       z     vdW  Elec       q    Type
                         _______ _______ _______ _____ _____    ______ ____

>  <TORSDO>
F 15

$$$$
=
 OpenBabel11062416493D

 34 35  0  0  1  0  0  0  0  0999 V2000
  190.1300  176.7910  142.4100 C   0  0  0  0  0  0  0  0  0  0  0  0
  188.9320  177.0470  141.6600 N   0  0  0  0  0  2  0  0  0  0  0  0
  190.5520  175.5740  142.5080 N   0  0  0  0  0  2  0  0  0  0  0  0
  189.0610  178.9310  138.5960 C   0  0  0  0  0  3  0  0  0  0  0  0
  188.7920  178.6090  139.8300 C   0  0  0  0  0  0  0  0  0  0  0  0
  188.5190  178.2870  141.0660 C   0  0  0  0  0  3  0  0  0  0  0  0
  188.7880  177.9630  137.4980 C   0  0  0  0  0  2  0  0  0  0  0  0
  188.6510  176.5540  138.0550 C   0  0  0  0  0  2  0  0  0  0  0  0
  189.8070  175.6650  137.6040 C   0  0  2  0  0  3  0  0  0  0  0  0
  191.0750  175.9540  135.4990 N   0  0  0  0  0  2  0  0  0  0  0  0
  193.1200  175.9640  136.4330 C   0  0  0  0  0  2  0  0  0  0  0  0
  192.1770  176.4070  137.4560 C   0  0  0  0  0  0  0  0  0  0  0  0
  190.8620  176.4810  136.8420 C   0  0  2  0  0  3  0  0  0  0  0  0
  193.7840  176.6860  139.1700 O   0  0  0  0  0  1  0  0  0  0  0  0
  192.4180  175.9800  135.2110 O   0  0  0  0  0  0  0  0  0  0  0  0
  192.4780  176.7600  138.7020 C   0  0  0  0  0  3  0  0  0  0  0  0
  189.3200  174.4120  136.8640 C   0  0  0  0  0  2  0  0  0  0  0  0
  190.0710  173.2890  137.2190 O   0  0  0  0  0  1  0  0  0  0  0  0
  190.9280  177.8960  143.0520 C   0  0  1  0  0  3  0  0  0  0  0  0
  190.0650  178.8290  143.6600 O   0  0  0  0  0  0  0  0  0  0  0  0
  190.8090  178.0270  144.5410 C   0  0  1  0  0  3  0  0  0  0  0  0
  189.8650  177.0520  145.2350 C   0  0  0  0  0  2  0  0  0  0  0  0
  188.7230  177.7930  145.8340 C   0  0  0  0  0  0  0  0  0  0  0  0
  188.7150  178.0260  147.0730 O   0  0  0  0  0  0  0  0  0  0  0  0
  187.6630  178.2010  145.0210 O   0  0  0  0  0  0  0  0  0  0  0  0
  186.5060  177.3970  144.8150 C   0  0  0  0  0  2  0  0  0  0  0  0
  185.3380  178.2520  144.3310 C   0  0  1  0  0  3  0  0  0  0  0  0
  184.6310  178.9480  145.4540 C   0  0  0  0  0  0  0  0  0  0  0  0
  185.3040  179.2300  146.6770 N   0  0  0  0  0  1  0  0  0  0  0  0
  183.4350  179.3090  145.3040 O   0  0  0  0  0  0  0  0  0  0  0  0
  185.7480  179.2140  143.2110 C   0  0  0  0  0  2  0  0  0  0  0  0
  184.9610  179.0420  141.9450 C   0  0  0  0  0  0  0  0  0  0  0  0
  183.7830  178.1300  141.9270 C   0  0  0  0  0  1  0  0  0  0  0  0
  185.2990  179.6160  140.9230 O   0  0  0  0  0  0  0  0  0  0  0  0
  1  3  2  0  0  0  0
  2  1  1  0  0  0  0
  4  5  2  0  0  0  0
  5  6  2  0  0  0  0
  6  2  1  0  0  0  0
  7  8  1  0  0  0  0
  7  4  1  0  0  0  0
  9 17  1  6  0  0  0
  9  8  1  0  0  0  0
 10 13  1  0  0  0  0
 11 12  1  0  0  0  0
 12 16  2  0  0  0  0
 13 12  1  0  0  0  0
 13  9  1  1  0  0  0
 15 10  1  0  0  0  0
 15 11  1  0  0  0  0
 16 14  1  0  0  0  0
 17 18  1  0  0  0  0
 19  1  1  1  0  0  0
 19 20  1  0  0  0  0
 19 21  1  0  0  0  0
 20 21  1  0  0  0  0
 21 22  1  1  0  0  0
 22 23  1  0  0  0  0
 23 24  2  0  0  0  0
 25 23  1  0  0  0  0
 26 25  1  0  0  0  0
 27 31  1  6  0  0  0
 27 26  1  0  0  0  0
 27 28  1  0  0  0  0
 28 29  1  0  0  0  0
 30 28  2  0  0  0  0
 32 31  1  0  0  0  0
 33 32  1  0  0  0  0
 34 32  2  0  0  0  0
M  END
>  <MODEL>
8

>  <REMARK>
 VINA RESULT:      -6.7      2.251      8.231
  Name = 
  15 active torsions:
  status: ('A' for Active; 'I' for Inactive)
    1  A    between atoms: C_1  and  C_33
    2  A    between atoms: C_2  and  C_21
    3  A    between atoms: C_4  and  C_18
    4  A    between atoms: C_4  and  O_28
    5  A    between atoms: C_5  and  C_15
    6  A    between atoms: C_6  and  C_21
    7  A    between atoms: C_6  and  C_33
    8  A    between atoms: C_10  and  C_34
    9  A    between atoms: C_11  and  O_28
   10  A    between atoms: C_11  and  C_34
   11  A    between atoms: C_12  and  C_32
   12  A    between atoms: C_13  and  C_33
   13  A    between atoms: N_17  and  C_30
   14  A    between atoms: C_18  and  C_26
   15  A    between atoms: C_32  and  C_34
                            x       y       z     vdW  Elec       q    Type
                         _______ _______ _______ _____ _____    ______ ____

>  <TORSDO>
F 15

$$$$
=
 OpenBabel11062416493D

 34 35  0  0  1  0  0  0  0  0999 V2000
  191.3210  177.9100  144.3460 C   0  0  0  0  0  0  0  0  0  0  0  0
  190.4690  178.1610  145.4750 N   0  0  0  0  0  2  0  0  0  0  0  0
  192.1590  178.8240  143.9850 N   0  0  0  0  0  2  0  0  0  0  0  0
  187.8220  177.8060  147.8870 C   0  0  0  0  0  3  0  0  0  0  0  0
  188.8110  177.5020  147.0950 C   0  0  0  0  0  0  0  0  0  0  0  0
  189.8010  177.1950  146.3000 C   0  0  0  0  0  3  0  0  0  0  0  0
  186.6800  178.6110  147.3760 C   0  0  0  0  0  2  0  0  0  0  0  0
  185.8840  177.8150  146.3530 C   0  0  0  0  0  2  0  0  0  0  0  0
  186.0660  178.3800  144.9470 C   0  0  2  0  0  3  0  0  0  0  0  0
  183.7000  179.0040  145.3240 N   0  0  0  0  0  2  0  0  0  0  0  0
  183.0780  178.9590  143.1640 C   0  0  0  0  0  2  0  0  0  0  0  0
  184.5140  179.2220  143.1920 C   0  0  0  0  0  0  0  0  0  0  0  0
  184.9150  179.3320  144.5850 C   0  0  2  0  0  3  0  0  0  0  0  0
  184.7950  179.3200  140.8450 O   0  0  0  0  0  1  0  0  0  0  0  0
  182.6180  179.1180  144.4860 O   0  0  0  0  0  0  0  0  0  0  0  0
  185.3000  179.4100  142.1370 C   0  0  0  0  0  3  0  0  0  0  0  0
  186.3270  177.2800  143.9090 C   0  0  0  0  0  2  0  0  0  0  0  0
  187.3290  176.4060  144.3380 O   0  0  0  0  0  1  0  0  0  0  0  0
  191.2950  176.6040  143.5940 C   0  0  1  0  0  3  0  0  0  0  0  0
  190.0010  176.0450  143.6360 O   0  0  0  0  0  0  0  0  0  0  0  0
  190.4050  176.5460  142.3880 C   0  0  1  0  0  3  0  0  0  0  0  0
  189.5990  177.8020  142.0790 C   0  0  0  0  0  2  0  0  0  0  0  0
  189.2090  177.8130  140.6430 C   0  0  0  0  0  0  0  0  0  0  0  0
  188.0360  178.1400  140.3200 O   0  0  0  0  0  0  0  0  0  0  0  0
  190.1420  177.4390  139.6730 O   0  0  0  0  0  0  0  0  0  0  0  0
  189.8130  176.5720  138.5930 C   0  0  0  0  0  2  0  0  0  0  0  0
  190.3420  177.1320  137.2750 C   0  0  1  0  0  3  0  0  0  0  0  0
  191.3430  176.2260  136.6250 C   0  0  0  0  0  0  0  0  0  0  0  0
  191.1030  175.6820  135.3310 N   0  0  0  0  0  1  0  0  0  0  0  0
  192.4190  175.9620  137.2210 O   0  0  0  0  0  0  0  0  0  0  0  0
  189.2130  177.5380  136.3220 C   0  0  0  0  0  2  0  0  0  0  0  0
  188.2630  178.5450  136.9000 C   0  0  0  0  0  0  0  0  0  0  0  0
  186.8100  178.2270  136.9800 C   0  0  0  0  0  1  0  0  0  0  0  0
  188.6670  179.6340  137.2730 O   0  0  0  0  0  0  0  0  0  0  0  0
  1  2  1  0  0  0  0
  2  6  1  0  0  0  0
  3  1  2  0  0  0  0
  5  4  2  0  0  0  0
  6  5  2  0  0  0  0
  7  4  1  0  0  0  0
  8  7  1  0  0  0  0
  9 17  1  6  0  0  0
  9  8  1  0  0  0  0
 11 12  1  0  0  0  0
 11 15  1  0  0  0  0
 12 13  1  0  0  0  0
 13  9  1  1  0  0  0
 13 10  1  0  0  0  0
 14 16  1  0  0  0  0
 15 10  1  0  0  0  0
 16 12  2  0  0  0  0
 17 18  1  0  0  0  0
 19 20  1  0  0  0  0
 19  1  1  1  0  0  0
 21 22  1  1  0  0  0
 21 19  1  0  0  0  0
 21 20  1  0  0  0  0
 23 22  1  0  0  0  0
 24 23  2  0  0  0  0
 25 23  1  0  0  0  0
 26 25  1  0  0  0  0
 27 31  1  6  0  0  0
 27 26  1  0  0  0  0
 28 30  2  0  0  0  0
 28 27  1  0  0  0  0
 29 28  1  0  0  0  0
 31 32  1  0  0  0  0
 32 33  1  0  0  0  0
 32 34  2  0  0  0  0
M  END
>  <MODEL>
9

>  <REMARK>
 VINA RESULT:      -6.6      2.069      3.089
  Name = 
  15 active torsions:
  status: ('A' for Active; 'I' for Inactive)
    1  A    between atoms: C_1  and  C_33
    2  A    between atoms: C_2  and  C_21
    3  A    between atoms: C_4  and  C_18
    4  A    between atoms: C_4  and  O_28
    5  A    between atoms: C_5  and  C_15
    6  A    between atoms: C_6  and  C_21
    7  A    between atoms: C_6  and  C_33
    8  A    between atoms: C_10  and  C_34
    9  A    between atoms: C_11  and  O_28
   10  A    between atoms: C_11  and  C_34
   11  A    between atoms: C_12  and  C_32
   12  A    between atoms: C_13  and  C_33
   13  A    between atoms: N_17  and  C_30
   14  A    between atoms: C_18  and  C_26
   15  A    between atoms: C_32  and  C_34
                            x       y       z     vdW  Elec       q    Type
                         _______ _______ _______ _____ _____    ______ ____

>  <TORSDO>
F 15

$$$$
