=
 OpenBabel11062413093D

 40 41  0  0  1  0  0  0  0  0999 V2000
  185.0940  178.2900  143.9580 C   0  0  1  0  0  3  0  0  0  0  0  0
  186.3970  177.8710  144.5830 C   0  0  0  0  0  0  0  0  0  0  0  0
  188.7800  177.0860  145.7490 N   0  0  0  0  0  0  0  0  0  0  0  0
  187.5740  177.8210  143.8270 C   0  0  0  0  0  3  0  0  0  0  0  0
  185.3180  177.5500  146.7000 F   0  0  0  0  0  0  0  0  0  0  0  0
  188.7780  177.4240  144.4280 C   0  0  0  0  0  0  0  0  0  0  0  0
  186.4390  177.5170  145.9370 C   0  0  0  0  0  0  0  0  0  0  0  0
  187.6500  177.1240  146.5050 C   0  0  0  0  0  3  0  0  0  0  0  0
  190.0000  177.3720  143.6680 N   0  0  0  0  0  0  0  0  0  0  0  0
  191.0460  178.3230  143.9040 C   0  0  0  0  0  3  0  0  0  0  0  0
  192.1270  178.2790  143.2570 O   0  0  0  0  0  0  0  0  0  0  0  0
  190.1980  176.3190  142.6750 C   0  0  0  0  0  2  0  0  0  0  0  0
  191.1500  176.7440  140.2470 C   0  0  0  0  0  2  0  0  0  0  0  0
  190.1040  176.8810  141.2970 C   0  0  0  0  0  0  0  0  0  0  0  0
  190.5270  177.4260  139.1240 N   0  0  0  0  0  0  0  0  0  0  0  0
  189.3640  177.8330  139.5180 C   0  0  0  0  0  0  0  0  0  0  0  0
  189.0620  177.5060  140.8670 N   0  0  0  0  0  0  0  0  0  0  0  0
  188.9350  179.3040  137.5380 N   0  0  0  0  0  1  0  0  0  0  0  0
  187.2000  178.5410  138.8740 O   0  0  0  0  0  0  0  0  0  0  0  0
  188.4370  178.5620  138.6460 C   0  0  0  0  0  0  0  0  0  0  0  0
  183.3600  178.9860  145.4330 F   0  0  0  0  0  0  0  0  0  0  0  0
  184.4290  179.4570  144.6940 C   0  0  0  0  0  0  0  0  0  0  0  0
  183.9720  180.4080  143.7960 F   0  0  0  0  0  0  0  0  0  0  0  0
  185.3360  180.0460  145.5560 F   0  0  0  0  0  0  0  0  0  0  0  0
  185.2500  178.5810  142.4650 C   0  0  0  0  0  2  0  0  0  0  0  0
  184.1880  177.8550  141.6510 C   0  0  0  0  0  2  0  0  0  0  0  0
  183.1800  178.8320  141.0640 C   0  0  0  0  0  1  0  0  0  0  0  0
  184.3770  177.4600  137.2330 C   0  0  0  0  0  2  0  0  0  0  0  0
  182.0980  179.4530  138.2220 C   0  0  0  0  0  2  0  0  0  0  0  0
  183.6510  177.4360  138.5680 C   0  0  0  0  0  2  0  0  0  0  0  0
  183.5430  175.2100  135.7790 O   0  0  0  0  0  1  0  0  0  0  0  0
  180.9280  178.7780  138.8910 C   0  0  0  0  0  2  0  0  0  0  0  0
  183.6620  174.5710  138.0120 C   0  0  0  0  0  2  0  0  0  0  0  0
  185.2050  176.1850  137.0560 C   0  0  0  0  0  2  0  0  0  0  0  0
  184.4000  174.9830  136.8080 N   0  0  0  0  0  0  0  0  0  0  0  0
  182.5400  180.5060  138.8830 O   0  0  0  0  0  0  0  0  0  0  0  0
  180.9620  177.2820  138.5700 C   0  0  0  0  0  2  0  0  0  0  0  0
  182.3430  176.6510  138.4860 C   0  0  0  0  0  0  0  0  0  0  0  0
  182.3800  175.3400  138.2240 C   0  0  0  0  0  3  0  0  0  0  0  0
  183.5190  179.1070  139.2960 P   0  0  0  0  0  1  0  0  0  0  0  0
  1 25  1  6  0  0  0
  1  2  1  0  0  0  0
  1 22  1  0  0  0  0
  2  7  1  0  0  0  0
  3  8  1  0  0  0  0
  4  6  1  0  0  0  0
  4  2  2  0  0  0  0
  6  3  2  0  0  0  0
  7  8  2  0  0  0  0
  7  5  1  0  0  0  0
  9 10  1  0  0  0  0
  9  6  1  0  0  0  0
 11 10  2  0  0  0  0
 12  9  1  0  0  0  0
 13 14  1  0  0  0  0
 14 12  1  0  0  0  0
 15 16  2  0  0  0  0
 15 13  1  0  0  0  0
 16 17  1  0  0  0  0
 17 14  2  0  0  0  0
 18 20  1  0  0  0  0
 20 19  2  0  0  0  0
 20 16  1  0  0  0  0
 22 21  1  0  0  0  0
 22 24  1  0  0  0  0
 23 22  1  0  0  0  0
 26 25  1  0  0  0  0
 27 26  1  0  0  0  0
 28 30  1  0  0  0  0
 29 36  1  0  0  0  0
 29 32  1  0  0  0  0
 31 35  1  0  0  0  0
 33 39  1  0  0  0  0
 34 28  1  0  0  0  0
 35 34  1  0  0  0  0
 35 33  1  0  0  0  0
 36 40  1  0  0  0  0
 37 32  1  0  0  0  0
 38 30  1  0  0  0  0
 38 37  1  0  0  0  0
 39 38  2  0  0  0  0
M  END
>  <MODEL>
1

>  <REMARK>
 VINA RESULT:      -8.3      0.000      0.000
  Name = 
  10 active torsions:
  status: ('A' for Active; 'I' for Inactive)
    1  A    between atoms: N_3  and  C_14
    2  A    between atoms: N_3  and  C_30
    3  A    between atoms: C_8  and  C_21
    4  A    between atoms: C_11  and  C_22
    5  A    between atoms: C_11  and  P_37
    6  A    between atoms: C_13  and  C_21
    7  A    between atoms: C_13  and  C_22
    8  A    between atoms: C_14  and  C_19
    9  A    between atoms: C_21  and  C_27
   10  A    between atoms: C_26  and  C_38
                            x       y       z     vdW  Elec       q    Type
                         _______ _______ _______ _____ _____    ______ ____

>  <TORSDO>
F 10

$$$$
=
 OpenBabel11062413093D

 40 41  0  0  1  0  0  0  0  0999 V2000
  184.8840  178.9580  143.9610 C   0  0  1  0  0  3  0  0  0  0  0  0
  186.0100  178.3790  144.7740 C   0  0  0  0  0  0  0  0  0  0  0  0
  188.0630  177.3070  146.2870 N   0  0  0  0  0  0  0  0  0  0  0  0
  187.1970  177.9590  144.1630 C   0  0  0  0  0  3  0  0  0  0  0  0
  184.7360  178.6430  146.7880 F   0  0  0  0  0  0  0  0  0  0  0  0
  188.2330  177.4190  144.9390 C   0  0  0  0  0  0  0  0  0  0  0  0
  185.8720  178.2500  146.1620 C   0  0  0  0  0  0  0  0  0  0  0  0
  186.9190  177.7060  146.9060 C   0  0  0  0  0  3  0  0  0  0  0  0
  189.4630  176.9860  144.3280 N   0  0  0  0  0  0  0  0  0  0  0  0
  190.7250  177.4550  144.8200 C   0  0  0  0  0  3  0  0  0  0  0  0
  191.8090  177.0710  144.3060 O   0  0  0  0  0  0  0  0  0  0  0  0
  189.4340  176.0290  143.2240 C   0  0  0  0  0  2  0  0  0  0  0  0
  190.8750  176.8900  141.1840 C   0  0  0  0  0  2  0  0  0  0  0  0
  189.5910  176.7370  141.9210 C   0  0  0  0  0  0  0  0  0  0  0  0
  190.4440  177.6040  139.9920 N   0  0  0  0  0  0  0  0  0  0  0  0
  189.1660  177.7780  140.0900 C   0  0  0  0  0  0  0  0  0  0  0  0
  188.5970  177.2450  141.2780 N   0  0  0  0  0  0  0  0  0  0  0  0
  189.0220  179.0720  137.9510 N   0  0  0  0  0  1  0  0  0  0  0  0
  187.1200  178.5160  139.1570 O   0  0  0  0  0  0  0  0  0  0  0  0
  188.3740  178.4610  139.0620 C   0  0  0  0  0  0  0  0  0  0  0  0
  184.7130  177.5140  142.0760 F   0  0  0  0  0  0  0  0  0  0  0  0
  185.0910  178.7890  142.4530 C   0  0  0  0  0  0  0  0  0  0  0  0
  186.4200  178.9840  142.1140 F   0  0  0  0  0  0  0  0  0  0  0  0
  184.3100  179.7020  141.7670 F   0  0  0  0  0  0  0  0  0  0  0  0
  183.5270  178.4180  144.4080 C   0  0  0  0  0  2  0  0  0  0  0  0
  182.4020  179.3700  144.0230 C   0  0  0  0  0  2  0  0  0  0  0  0
  181.2300  178.6200  143.4080 C   0  0  0  0  0  1  0  0  0  0  0  0
  181.7760  179.7000  139.3430 C   0  0  0  0  0  2  0  0  0  0  0  0
  179.2480  178.7370  141.0230 C   0  0  0  0  0  2  0  0  0  0  0  0
  181.7760  178.8000  140.5670 C   0  0  0  0  0  2  0  0  0  0  0  0
  182.5030  178.1250  137.1370 O   0  0  0  0  0  1  0  0  0  0  0  0
  179.2610  177.2720  141.3820 C   0  0  0  0  0  2  0  0  0  0  0  0
  183.7380  177.3630  138.9540 C   0  0  0  0  0  2  0  0  0  0  0  0
  183.1610  179.7070  138.6900 C   0  0  0  0  0  2  0  0  0  0  0  0
  183.4990  178.4560  138.0000 N   0  0  0  0  0  0  0  0  0  0  0  0
  178.9330  179.5200  142.0370 O   0  0  0  0  0  0  0  0  0  0  0  0
  180.2930  176.5520  140.5120 C   0  0  0  0  0  2  0  0  0  0  0  0
  181.5560  177.3360  140.1910 C   0  0  0  0  0  0  0  0  0  0  0  0
  182.4710  176.7050  139.4460 C   0  0  0  0  0  3  0  0  0  0  0  0
  180.6810  179.4450  141.8810 P   0  0  0  0  0  1  0  0  0  0  0  0
  1 25  1  1  0  0  0
  1  2  1  0  0  0  0
  2  7  1  0  0  0  0
  3  8  1  0  0  0  0
  4  2  2  0  0  0  0
  4  6  1  0  0  0  0
  6  3  2  0  0  0  0
  7  5  1  0  0  0  0
  7  8  2  0  0  0  0
  9 10  1  0  0  0  0
  9  6  1  0  0  0  0
 11 10  2  0  0  0  0
 12  9  1  0  0  0  0
 13 14  1  0  0  0  0
 14 12  1  0  0  0  0
 15 16  2  0  0  0  0
 15 13  1  0  0  0  0
 16 17  1  0  0  0  0
 17 14  2  0  0  0  0
 18 20  1  0  0  0  0
 20 19  2  0  0  0  0
 20 16  1  0  0  0  0
 21 22  1  0  0  0  0
 22  1  1  0  0  0  0
 23 22  1  0  0  0  0
 24 22  1  0  0  0  0
 26 25  1  0  0  0  0
 27 26  1  0  0  0  0
 28 30  1  0  0  0  0
 29 32  1  0  0  0  0
 29 36  1  0  0  0  0
 31 35  1  0  0  0  0
 33 39  1  0  0  0  0
 34 28  1  0  0  0  0
 35 34  1  0  0  0  0
 35 33  1  0  0  0  0
 37 32  1  0  0  0  0
 38 37  1  0  0  0  0
 38 30  1  0  0  0  0
 39 38  2  0  0  0  0
 40 36  1  0  0  0  0
M  END
>  <MODEL>
2

>  <REMARK>
 VINA RESULT:      -8.0      1.956      2.494
  Name = 
  10 active torsions:
  status: ('A' for Active; 'I' for Inactive)
    1  A    between atoms: N_3  and  C_14
    2  A    between atoms: N_3  and  C_30
    3  A    between atoms: C_8  and  C_21
    4  A    between atoms: C_11  and  C_22
    5  A    between atoms: C_11  and  P_37
    6  A    between atoms: C_13  and  C_21
    7  A    between atoms: C_13  and  C_22
    8  A    between atoms: C_14  and  C_19
    9  A    between atoms: C_21  and  C_27
   10  A    between atoms: C_26  and  C_38
                            x       y       z     vdW  Elec       q    Type
                         _______ _______ _______ _____ _____    ______ ____

>  <TORSDO>
F 10

$$$$
=
 OpenBabel11062413093D

 40 41  0  0  1  0  0  0  0  0999 V2000
  189.9450  177.4830  143.1870 C   0  0  1  0  0  3  0  0  0  0  0  0
  188.9920  177.6180  144.3440 C   0  0  0  0  0  0  0  0  0  0  0  0
  187.2600  177.8700  146.4870 N   0  0  0  0  0  0  0  0  0  0  0  0
  187.7240  178.1840  144.1680 C   0  0  0  0  0  3  0  0  0  0  0  0
  190.5980  176.6330  145.8270 F   0  0  0  0  0  0  0  0  0  0  0  0
  186.8520  178.3040  145.2600 C   0  0  0  0  0  0  0  0  0  0  0  0
  189.3760  177.1820  145.6180 C   0  0  0  0  0  0  0  0  0  0  0  0
  188.4880  177.3190  146.6850 C   0  0  0  0  0  3  0  0  0  0  0  0
  185.5410  178.8770  145.0980 N   0  0  0  0  0  0  0  0  0  0  0  0
  184.4660  178.4970  145.9660 C   0  0  0  0  0  3  0  0  0  0  0  0
  183.3190  179.0030  145.8450 O   0  0  0  0  0  0  0  0  0  0  0  0
  185.3080  179.8870  144.0680 C   0  0  0  0  0  2  0  0  0  0  0  0
  183.8900  178.0740  142.7700 C   0  0  0  0  0  2  0  0  0  0  0  0
  184.8070  179.2460  142.8180 C   0  0  0  0  0  0  0  0  0  0  0  0
  183.7040  177.9080  141.3370 N   0  0  0  0  0  0  0  0  0  0  0  0
  184.3910  178.8330  140.7510 C   0  0  0  0  0  0  0  0  0  0  0  0
  185.0880  179.6920  141.6420 N   0  0  0  0  0  0  0  0  0  0  0  0
  184.3650  177.8390  138.4530 N   0  0  0  0  0  1  0  0  0  0  0  0
  184.5550  180.1280  138.7760 O   0  0  0  0  0  0  0  0  0  0  0  0
  184.4410  178.9860  139.2930 C   0  0  0  0  0  0  0  0  0  0  0  0
  190.5560  175.9070  141.5100 F   0  0  0  0  0  0  0  0  0  0  0  0
  190.2810  176.0240  142.8600 C   0  0  0  0  0  0  0  0  0  0  0  0
  189.2200  175.1930  143.1780 F   0  0  0  0  0  0  0  0  0  0  0  0
  191.3970  175.6290  143.5740 F   0  0  0  0  0  0  0  0  0  0  0  0
  189.4490  178.2370  141.9540 C   0  0  0  0  0  2  0  0  0  0  0  0
  188.5350  177.3640  141.1060 C   0  0  0  0  0  2  0  0  0  0  0  0
  188.0260  178.1190  139.8870 C   0  0  0  0  0  1  0  0  0  0  0  0
  190.8430  176.3860  137.2330 C   0  0  0  0  0  2  0  0  0  0  0  0
  188.8550  178.8620  136.9910 C   0  0  0  0  0  2  0  0  0  0  0  0
  189.5110  176.5680  137.9410 C   0  0  0  0  0  2  0  0  0  0  0  0
  190.5260  174.3230  135.3580 O   0  0  0  0  0  1  0  0  0  0  0  0
  187.4040  178.4820  136.8410 C   0  0  0  0  0  2  0  0  0  0  0  0
  189.2540  173.7520  137.2190 C   0  0  0  0  0  2  0  0  0  0  0  0
  191.3540  174.9550  137.4210 C   0  0  0  0  0  2  0  0  0  0  0  0
  190.6010  173.9500  136.6620 N   0  0  0  0  0  0  0  0  0  0  0  0
  189.0560  179.8160  137.8800 O   0  0  0  0  0  0  0  0  0  0  0  0
  187.3100  177.0050  136.4540 C   0  0  0  0  0  2  0  0  0  0  0  0
  188.3440  176.0850  137.0830 C   0  0  0  0  0  0  0  0  0  0  0  0
  188.2560  174.7890  136.7640 C   0  0  0  0  0  3  0  0  0  0  0  0
  189.3360  178.2520  138.6300 P   0  0  0  0  0  1  0  0  0  0  0  0
  1 25  1  6  0  0  0
  1  2  1  0  0  0  0
  2  7  1  0  0  0  0
  3  8  1  0  0  0  0
  4  2  2  0  0  0  0
  4  6  1  0  0  0  0
  6  3  2  0  0  0  0
  7  5  1  0  0  0  0
  7  8  2  0  0  0  0
  9  6  1  0  0  0  0
  9 10  1  0  0  0  0
 11 10  2  0  0  0  0
 12  9  1  0  0  0  0
 13 14  1  0  0  0  0
 14 12  1  0  0  0  0
 15 13  1  0  0  0  0
 16 15  2  0  0  0  0
 16 17  1  0  0  0  0
 17 14  2  0  0  0  0
 18 20  1  0  0  0  0
 19 20  2  0  0  0  0
 20 16  1  0  0  0  0
 21 22  1  0  0  0  0
 22 23  1  0  0  0  0
 22  1  1  0  0  0  0
 22 24  1  0  0  0  0
 26 25  1  0  0  0  0
 27 26  1  0  0  0  0
 28 34  1  0  0  0  0
 28 30  1  0  0  0  0
 29 36  1  0  0  0  0
 31 35  1  0  0  0  0
 32 29  1  0  0  0  0
 35 33  1  0  0  0  0
 35 34  1  0  0  0  0
 36 40  1  0  0  0  0
 37 32  1  0  0  0  0
 37 38  1  0  0  0  0
 38 30  1  0  0  0  0
 39 38  2  0  0  0  0
 39 33  1  0  0  0  0
M  END
>  <MODEL>
3

>  <REMARK>
 VINA RESULT:      -7.9      3.607      5.827
  Name = 
  10 active torsions:
  status: ('A' for Active; 'I' for Inactive)
    1  A    between atoms: N_3  and  C_14
    2  A    between atoms: N_3  and  C_30
    3  A    between atoms: C_8  and  C_21
    4  A    between atoms: C_11  and  C_22
    5  A    between atoms: C_11  and  P_37
    6  A    between atoms: C_13  and  C_21
    7  A    between atoms: C_13  and  C_22
    8  A    between atoms: C_14  and  C_19
    9  A    between atoms: C_21  and  C_27
   10  A    between atoms: C_26  and  C_38
                            x       y       z     vdW  Elec       q    Type
                         _______ _______ _______ _____ _____    ______ ____

>  <TORSDO>
F 10

$$$$
=
 OpenBabel11062413093D

 40 41  0  0  1  0  0  0  0  0999 V2000
  184.9880  178.2290  144.0110 C   0  0  1  0  0  3  0  0  0  0  0  0
  186.3000  177.8430  144.6380 C   0  0  0  0  0  0  0  0  0  0  0  0
  188.7000  177.1200  145.8100 N   0  0  0  0  0  0  0  0  0  0  0  0
  187.4670  177.7580  143.8700 C   0  0  0  0  0  3  0  0  0  0  0  0
  185.2490  177.6240  146.7830 F   0  0  0  0  0  0  0  0  0  0  0  0
  188.6790  177.3930  144.4740 C   0  0  0  0  0  0  0  0  0  0  0  0
  186.3600  177.5560  146.0070 C   0  0  0  0  0  0  0  0  0  0  0  0
  187.5800  177.1930  146.5780 C   0  0  0  0  0  3  0  0  0  0  0  0
  189.8910  177.3060  143.7010 N   0  0  0  0  0  0  0  0  0  0  0  0
  190.9640  178.2320  143.9210 C   0  0  0  0  0  3  0  0  0  0  0  0
  192.0360  178.1570  143.2640 O   0  0  0  0  0  0  0  0  0  0  0  0
  190.0520  176.2440  142.7120 C   0  0  0  0  0  2  0  0  0  0  0  0
  190.9450  176.6330  140.2560 C   0  0  0  0  0  2  0  0  0  0  0  0
  189.9300  176.7970  141.3330 C   0  0  0  0  0  0  0  0  0  0  0  0
  190.3040  177.3170  139.1440 N   0  0  0  0  0  0  0  0  0  0  0  0
  189.1600  177.7470  139.5660 C   0  0  0  0  0  0  0  0  0  0  0  0
  188.8880  177.4360  140.9260 N   0  0  0  0  0  0  0  0  0  0  0  0
  188.7090  179.2580  137.6220 N   0  0  0  0  0  1  0  0  0  0  0  0
  186.9860  178.4450  138.9440 O   0  0  0  0  0  0  0  0  0  0  0  0
  188.2220  178.4860  138.7140 C   0  0  0  0  0  0  0  0  0  0  0  0
  185.2950  180.0530  145.5100 F   0  0  0  0  0  0  0  0  0  0  0  0
  184.4180  179.5330  144.5760 C   0  0  0  0  0  0  0  0  0  0  0  0
  183.1920  179.3120  145.1820 F   0  0  0  0  0  0  0  0  0  0  0  0
  184.2600  180.4560  143.5570 F   0  0  0  0  0  0  0  0  0  0  0  0
  185.0800  178.2670  142.4860 C   0  0  0  0  0  2  0  0  0  0  0  0
  183.7390  178.6330  141.8630 C   0  0  0  0  0  2  0  0  0  0  0  0
  183.4110  177.7260  140.6860 C   0  0  0  0  0  1  0  0  0  0  0  0
  179.6620  179.5480  139.9030 C   0  0  0  0  0  2  0  0  0  0  0  0
  181.0220  176.8430  138.9140 C   0  0  0  0  0  2  0  0  0  0  0  0
  181.1480  179.2720  139.7430 C   0  0  0  0  0  2  0  0  0  0  0  0
  178.9310  181.3930  137.9200 O   0  0  0  0  0  1  0  0  0  0  0  0
  182.1330  177.0350  137.9140 C   0  0  0  0  0  2  0  0  0  0  0  0
  181.0720  181.9650  138.6250 C   0  0  0  0  0  2  0  0  0  0  0  0
  179.4240  181.0400  140.1500 C   0  0  0  0  0  2  0  0  0  0  0  0
  179.6440  181.8820  138.9680 N   0  0  0  0  0  0  0  0  0  0  0  0
  181.3290  175.9990  139.8810 O   0  0  0  0  0  0  0  0  0  0  0  0
  182.0550  178.4530  137.3440 C   0  0  0  0  0  2  0  0  0  0  0  0
  181.6220  179.5390  138.3160 C   0  0  0  0  0  0  0  0  0  0  0  0
  181.5700  180.7830  137.8300 C   0  0  0  0  0  3  0  0  0  0  0  0
  181.6100  177.6430  140.4320 P   0  0  0  0  0  1  0  0  0  0  0  0
  1 25  1  6  0  0  0
  1 22  1  0  0  0  0
  1  2  1  0  0  0  0
  2  7  1  0  0  0  0
  3  8  1  0  0  0  0
  4  6  1  0  0  0  0
  4  2  2  0  0  0  0
  6  3  2  0  0  0  0
  7  8  2  0  0  0  0
  7  5  1  0  0  0  0
  9 10  1  0  0  0  0
  9  6  1  0  0  0  0
 11 10  2  0  0  0  0
 12  9  1  0  0  0  0
 13 14  1  0  0  0  0
 14 12  1  0  0  0  0
 15 16  2  0  0  0  0
 15 13  1  0  0  0  0
 16 17  1  0  0  0  0
 17 14  2  0  0  0  0
 18 20  1  0  0  0  0
 20 19  2  0  0  0  0
 20 16  1  0  0  0  0
 22 23  1  0  0  0  0
 22 21  1  0  0  0  0
 24 22  1  0  0  0  0
 26 25  1  0  0  0  0
 27 26  1  0  0  0  0
 28 34  1  0  0  0  0
 29 36  1  0  0  0  0
 30 28  1  0  0  0  0
 31 35  1  0  0  0  0
 32 29  1  0  0  0  0
 33 35  1  0  0  0  0
 35 34  1  0  0  0  0
 36 40  1  0  0  0  0
 37 32  1  0  0  0  0
 37 38  1  0  0  0  0
 38 30  1  0  0  0  0
 39 38  2  0  0  0  0
 39 33  1  0  0  0  0
M  END
>  <MODEL>
4

>  <REMARK>
 VINA RESULT:      -7.9      1.925      3.226
  Name = 
  10 active torsions:
  status: ('A' for Active; 'I' for Inactive)
    1  A    between atoms: N_3  and  C_14
    2  A    between atoms: N_3  and  C_30
    3  A    between atoms: C_8  and  C_21
    4  A    between atoms: C_11  and  C_22
    5  A    between atoms: C_11  and  P_37
    6  A    between atoms: C_13  and  C_21
    7  A    between atoms: C_13  and  C_22
    8  A    between atoms: C_14  and  C_19
    9  A    between atoms: C_21  and  C_27
   10  A    between atoms: C_26  and  C_38
                            x       y       z     vdW  Elec       q    Type
                         _______ _______ _______ _____ _____    ______ ____

>  <TORSDO>
F 10

$$$$
=
 OpenBabel11062413093D

 40 41  0  0  1  0  0  0  0  0999 V2000
  187.7240  177.7220  137.7620 C   0  0  1  0  0  3  0  0  0  0  0  0
  188.7500  177.2980  138.7780 C   0  0  0  0  0  0  0  0  0  0  0  0
  190.6530  176.5210  140.6300 N   0  0  0  0  0  0  0  0  0  0  0  0
  188.5360  177.5080  140.1460 C   0  0  0  0  0  3  0  0  0  0  0  0
  190.1820  176.4740  137.0400 F   0  0  0  0  0  0  0  0  0  0  0  0
  189.5060  177.1080  141.0770 C   0  0  0  0  0  0  0  0  0  0  0  0
  189.9390  176.6910  138.3570 C   0  0  0  0  0  0  0  0  0  0  0  0
  190.8860  176.3070  139.3070 C   0  0  0  0  0  3  0  0  0  0  0  0
  189.3020  177.3110  142.4880 N   0  0  0  0  0  0  0  0  0  0  0  0
  190.0580  178.2990  143.1990 C   0  0  0  0  0  3  0  0  0  0  0  0
  189.8770  178.4980  144.4300 O   0  0  0  0  0  0  0  0  0  0  0  0
  188.2880  176.5350  143.1980 C   0  0  0  0  0  2  0  0  0  0  0  0
  186.2880  178.1560  142.6040 C   0  0  0  0  0  2  0  0  0  0  0  0
  187.1360  177.4050  143.5700 C   0  0  0  0  0  0  0  0  0  0  0  0
  185.3190  178.7810  143.4900 N   0  0  0  0  0  0  0  0  0  0  0  0
  185.6070  178.4110  144.6960 C   0  0  0  0  0  0  0  0  0  0  0  0
  186.7300  177.5470  144.7850 N   0  0  0  0  0  0  0  0  0  0  0  0
  185.4910  179.0650  147.1100 N   0  0  0  0  0  1  0  0  0  0  0  0
  183.5910  179.0100  145.7820 O   0  0  0  0  0  0  0  0  0  0  0  0
  184.8350  178.8410  145.8670 C   0  0  0  0  0  0  0  0  0  0  0  0
  187.2310  179.6600  136.4690 F   0  0  0  0  0  0  0  0  0  0  0  0
  188.2510  178.7840  136.7920 C   0  0  0  0  0  0  0  0  0  0  0  0
  188.7250  178.1960  135.6310 F   0  0  0  0  0  0  0  0  0  0  0  0
  189.2740  179.4980  137.3890 F   0  0  0  0  0  0  0  0  0  0  0  0
  187.1340  176.5230  137.0200 C   0  0  0  0  0  2  0  0  0  0  0  0
  185.7040  176.8020  136.5760 C   0  0  0  0  0  2  0  0  0  0  0  0
  184.9640  175.5120  136.2550 C   0  0  0  0  0  1  0  0  0  0  0  0
  182.7370  176.5430  139.7140 C   0  0  0  0  0  2  0  0  0  0  0  0
  182.0650  174.8220  137.1200 C   0  0  0  0  0  2  0  0  0  0  0  0
  183.3250  176.7110  138.3230 C   0  0  0  0  0  2  0  0  0  0  0  0
  181.1030  178.7690  140.2120 O   0  0  0  0  0  1  0  0  0  0  0  0
  181.8610  175.6380  135.8680 C   0  0  0  0  0  2  0  0  0  0  0  0
  182.9250  179.5250  138.9820 C   0  0  0  0  0  2  0  0  0  0  0  0
  183.1290  177.7270  140.6010 C   0  0  0  0  0  2  0  0  0  0  0  0
  182.4440  178.9790  140.2600 N   0  0  0  0  0  0  0  0  0  0  0  0
  182.8470  173.7750  136.9390 O   0  0  0  0  0  0  0  0  0  0  0  0
  181.6460  177.1030  136.2540 C   0  0  0  0  0  2  0  0  0  0  0  0
  182.4500  177.6020  137.4430 C   0  0  0  0  0  0  0  0  0  0  0  0
  182.2820  178.8870  137.7740 C   0  0  0  0  0  3  0  0  0  0  0  0
  183.7940  175.1040  137.5890 P   0  0  0  0  0  1  0  0  0  0  0  0
  1 25  1  6  0  0  0
  1  2  1  0  0  0  0
  2  4  1  0  0  0  0
  3  6  1  0  0  0  0
  4  6  2  0  0  0  0
  5  7  1  0  0  0  0
  6  9  1  0  0  0  0
  7  2  2  0  0  0  0
  7  8  1  0  0  0  0
  8  3  2  0  0  0  0
  9 12  1  0  0  0  0
  9 10  1  0  0  0  0
 10 11  2  0  0  0  0
 12 14  1  0  0  0  0
 13 15  1  0  0  0  0
 13 14  1  0  0  0  0
 14 17  2  0  0  0  0
 15 16  2  0  0  0  0
 16 17  1  0  0  0  0
 16 20  1  0  0  0  0
 19 20  2  0  0  0  0
 20 18  1  0  0  0  0
 21 22  1  0  0  0  0
 22 24  1  0  0  0  0
 22  1  1  0  0  0  0
 23 22  1  0  0  0  0
 26 25  1  0  0  0  0
 27 26  1  0  0  0  0
 28 34  1  0  0  0  0
 30 28  1  0  0  0  0
 31 35  1  0  0  0  0
 32 37  1  0  0  0  0
 32 29  1  0  0  0  0
 33 35  1  0  0  0  0
 35 34  1  0  0  0  0
 36 29  1  0  0  0  0
 36 40  1  0  0  0  0
 37 38  1  0  0  0  0
 38 39  2  0  0  0  0
 38 30  1  0  0  0  0
 39 33  1  0  0  0  0
M  END
>  <MODEL>
5

>  <REMARK>
 VINA RESULT:      -7.8      3.681      6.130
  Name = 
  10 active torsions:
  status: ('A' for Active; 'I' for Inactive)
    1  A    between atoms: N_3  and  C_14
    2  A    between atoms: N_3  and  C_30
    3  A    between atoms: C_8  and  C_21
    4  A    between atoms: C_11  and  C_22
    5  A    between atoms: C_11  and  P_37
    6  A    between atoms: C_13  and  C_21
    7  A    between atoms: C_13  and  C_22
    8  A    between atoms: C_14  and  C_19
    9  A    between atoms: C_21  and  C_27
   10  A    between atoms: C_26  and  C_38
                            x       y       z     vdW  Elec       q    Type
                         _______ _______ _______ _____ _____    ______ ____

>  <TORSDO>
F 10

$$$$
=
 OpenBabel11062413093D

 40 41  0  0  1  0  0  0  0  0999 V2000
  190.2080  177.7410  141.6280 C   0  0  1  0  0  3  0  0  0  0  0  0
  188.7610  178.0190  141.9330 C   0  0  0  0  0  0  0  0  0  0  0  0
  186.0940  178.5220  142.4720 N   0  0  0  0  0  0  0  0  0  0  0  0
  188.2690  177.9120  143.2390 C   0  0  0  0  0  3  0  0  0  0  0  0
  188.3280  178.4910  139.6230 F   0  0  0  0  0  0  0  0  0  0  0  0
  186.9160  178.1720  143.5030 C   0  0  0  0  0  0  0  0  0  0  0  0
  187.8880  178.3810  140.9010 C   0  0  0  0  0  0  0  0  0  0  0  0
  186.5470  178.6300  141.1930 C   0  0  0  0  0  3  0  0  0  0  0  0
  186.3920  178.0730  144.8400 N   0  0  0  0  0  0  0  0  0  0  0  0
  185.5170  179.0850  145.3570 C   0  0  0  0  0  3  0  0  0  0  0  0
  185.0390  179.0020  146.5200 O   0  0  0  0  0  0  0  0  0  0  0  0
  186.7190  176.9150  145.6690 C   0  0  0  0  0  2  0  0  0  0  0  0
  187.9520  177.9760  147.7510 C   0  0  0  0  0  2  0  0  0  0  0  0
  187.9350  177.1900  146.4870 C   0  0  0  0  0  0  0  0  0  0  0  0
  189.3530  177.8870  148.1300 N   0  0  0  0  0  0  0  0  0  0  0  0
  189.9500  177.1740  147.2310 C   0  0  0  0  0  0  0  0  0  0  0  0
  189.0970  176.7150  146.1930 N   0  0  0  0  0  0  0  0  0  0  0  0
  192.0200  176.2500  146.1690 N   0  0  0  0  0  1  0  0  0  0  0  0
  192.0540  177.1280  148.3150 O   0  0  0  0  0  0  0  0  0  0  0  0
  191.3820  176.8620  147.2840 C   0  0  0  0  0  0  0  0  0  0  0  0
  192.3320  177.1310  142.5150 F   0  0  0  0  0  0  0  0  0  0  0  0
  191.0060  177.3140  142.8630 C   0  0  0  0  0  0  0  0  0  0  0  0
  190.5100  176.1310  143.3830 F   0  0  0  0  0  0  0  0  0  0  0  0
  190.9360  178.3000  143.8310 F   0  0  0  0  0  0  0  0  0  0  0  0
  190.3630  176.7420  140.4820 C   0  0  0  0  0  2  0  0  0  0  0  0
  191.5180  177.1280  139.5680 C   0  0  0  0  0  2  0  0  0  0  0  0
  191.1680  176.8910  138.1070 C   0  0  0  0  0  1  0  0  0  0  0  0
  187.1920  175.7130  137.2150 C   0  0  0  0  0  2  0  0  0  0  0  0
  190.0370  174.4020  136.6390 C   0  0  0  0  0  2  0  0  0  0  0  0
  188.5160  176.4350  137.0290 C   0  0  0  0  0  2  0  0  0  0  0  0
  185.5940  176.2950  134.9840 O   0  0  0  0  0  1  0  0  0  0  0  0
  190.8350  175.0960  135.5650 C   0  0  0  0  0  2  0  0  0  0  0  0
  186.8110  178.2160  135.4680 C   0  0  0  0  0  2  0  0  0  0  0  0
  186.0360  176.7160  137.2130 C   0  0  0  0  0  2  0  0  0  0  0  0
  185.7500  177.2910  135.8940 N   0  0  0  0  0  0  0  0  0  0  0  0
  190.7430  174.1280  137.7190 O   0  0  0  0  0  0  0  0  0  0  0  0
  189.9080  176.0120  134.7630 C   0  0  0  0  0  2  0  0  0  0  0  0
  188.8110  176.7050  135.5550 C   0  0  0  0  0  0  0  0  0  0  0  0
  188.0080  177.5220  134.8640 C   0  0  0  0  0  3  0  0  0  0  0  0
  189.8640  175.6290  137.9640 P   0  0  0  0  0  1  0  0  0  0  0  0
  1 25  1  6  0  0  0
  1  2  1  0  0  0  0
  1 22  1  0  0  0  0
  2  4  1  0  0  0  0
  3  6  1  0  0  0  0
  4  6  2  0  0  0  0
  5  7  1  0  0  0  0
  6  9  1  0  0  0  0
  7  8  1  0  0  0  0
  7  2  2  0  0  0  0
  8  3  2  0  0  0  0
  9 10  1  0  0  0  0
  9 12  1  0  0  0  0
 10 11  2  0  0  0  0
 12 14  1  0  0  0  0
 13 15  1  0  0  0  0
 14 13  1  0  0  0  0
 16 20  1  0  0  0  0
 16 15  2  0  0  0  0
 17 14  2  0  0  0  0
 17 16  1  0  0  0  0
 18 20  1  0  0  0  0
 20 19  2  0  0  0  0
 21 22  1  0  0  0  0
 22 23  1  0  0  0  0
 22 24  1  0  0  0  0
 26 25  1  0  0  0  0
 27 26  1  0  0  0  0
 29 36  1  0  0  0  0
 30 28  1  0  0  0  0
 31 35  1  0  0  0  0
 32 29  1  0  0  0  0
 33 35  1  0  0  0  0
 34 28  1  0  0  0  0
 35 34  1  0  0  0  0
 36 40  1  0  0  0  0
 37 38  1  0  0  0  0
 37 32  1  0  0  0  0
 38 30  1  0  0  0  0
 39 33  1  0  0  0  0
 39 38  2  0  0  0  0
M  END
>  <MODEL>
6

>  <REMARK>
 VINA RESULT:      -7.8      3.839      6.986
  Name = 
  10 active torsions:
  status: ('A' for Active; 'I' for Inactive)
    1  A    between atoms: N_3  and  C_14
    2  A    between atoms: N_3  and  C_30
    3  A    between atoms: C_8  and  C_21
    4  A    between atoms: C_11  and  C_22
    5  A    between atoms: C_11  and  P_37
    6  A    between atoms: C_13  and  C_21
    7  A    between atoms: C_13  and  C_22
    8  A    between atoms: C_14  and  C_19
    9  A    between atoms: C_21  and  C_27
   10  A    between atoms: C_26  and  C_38
                            x       y       z     vdW  Elec       q    Type
                         _______ _______ _______ _____ _____    ______ ____

>  <TORSDO>
F 10

$$$$
=
 OpenBabel11062413093D

 40 41  0  0  1  0  0  0  0  0999 V2000
  185.1260  178.2390  143.9230 C   0  0  1  0  0  3  0  0  0  0  0  0
  186.4520  177.8260  144.5020 C   0  0  0  0  0  0  0  0  0  0  0  0
  188.8790  177.0540  145.5840 N   0  0  0  0  0  0  0  0  0  0  0  0
  187.5940  177.7450  143.6970 C   0  0  0  0  0  3  0  0  0  0  0  0
  185.4650  177.5730  146.6730 F   0  0  0  0  0  0  0  0  0  0  0  0
  188.8210  177.3550  144.2550 C   0  0  0  0  0  0  0  0  0  0  0  0
  186.5510  177.5090  145.8630 C   0  0  0  0  0  0  0  0  0  0  0  0
  187.7840  177.1220  146.3880 C   0  0  0  0  0  3  0  0  0  0  0  0
  190.0070  177.2720  143.4440 N   0  0  0  0  0  0  0  0  0  0  0  0
  191.0940  178.1850  143.6470 C   0  0  0  0  0  3  0  0  0  0  0  0
  192.1450  178.1120  142.9550 O   0  0  0  0  0  0  0  0  0  0  0  0
  190.1280  176.2260  142.4310 C   0  0  0  0  0  2  0  0  0  0  0  0
  191.0500  176.6740  139.9960 C   0  0  0  0  0  2  0  0  0  0  0  0
  190.0230  176.8130  141.0650 C   0  0  0  0  0  0  0  0  0  0  0  0
  190.4230  177.3860  138.8940 N   0  0  0  0  0  0  0  0  0  0  0  0
  189.2740  177.8070  139.3130 C   0  0  0  0  0  0  0  0  0  0  0  0
  188.9860  177.4640  140.6610 N   0  0  0  0  0  0  0  0  0  0  0  0
  188.8520  179.4230  137.4470 N   0  0  0  0  0  1  0  0  0  0  0  0
  187.1050  178.4750  138.6420 O   0  0  0  0  0  0  0  0  0  0  0  0
  188.3480  178.5680  138.4680 C   0  0  0  0  0  0  0  0  0  0  0  0
  184.8760  180.5500  143.4080 F   0  0  0  0  0  0  0  0  0  0  0  0
  184.6680  179.6180  144.4070 C   0  0  0  0  0  0  0  0  0  0  0  0
  185.3730  180.0010  145.5350 F   0  0  0  0  0  0  0  0  0  0  0  0
  183.3180  179.5850  144.7070 F   0  0  0  0  0  0  0  0  0  0  0  0
  185.1210  178.1460  142.3980 C   0  0  0  0  0  2  0  0  0  0  0  0
  183.7080  177.9520  141.8640 C   0  0  0  0  0  2  0  0  0  0  0  0
  183.6520  178.1710  140.3590 C   0  0  0  0  0  1  0  0  0  0  0  0
  180.7620  178.9960  137.3670 C   0  0  0  0  0  2  0  0  0  0  0  0
  180.7320  177.1900  139.9900 C   0  0  0  0  0  2  0  0  0  0  0  0
  181.9470  178.3040  138.0190 C   0  0  0  0  0  2  0  0  0  0  0  0
  180.2620  177.6960  134.9310 O   0  0  0  0  0  1  0  0  0  0  0  0
  181.5330  175.9180  139.8780 C   0  0  0  0  0  2  0  0  0  0  0  0
  182.5680  177.7210  135.2290 C   0  0  0  0  0  2  0  0  0  0  0  0
  181.1580  179.5430  135.9930 C   0  0  0  0  0  2  0  0  0  0  0  0
  181.3520  178.5070  134.9730 N   0  0  0  0  0  0  0  0  0  0  0  0
  180.9510  177.8480  141.1120 O   0  0  0  0  0  0  0  0  0  0  0  0
  181.8320  175.6410  138.4030 C   0  0  0  0  0  2  0  0  0  0  0  0
  182.0950  176.8620  137.5370 C   0  0  0  0  0  0  0  0  0  0  0  0
  182.3750  176.6270  136.2510 C   0  0  0  0  0  3  0  0  0  0  0  0
  181.9460  178.5280  139.8340 P   0  0  0  0  0  1  0  0  0  0  0  0
  1 25  1  6  0  0  0
  1 22  1  0  0  0  0
  1  2  1  0  0  0  0
  2  7  1  0  0  0  0
  3  8  1  0  0  0  0
  4  6  1  0  0  0  0
  4  2  2  0  0  0  0
  6  3  2  0  0  0  0
  7  8  2  0  0  0  0
  7  5  1  0  0  0  0
  9 10  1  0  0  0  0
  9  6  1  0  0  0  0
 11 10  2  0  0  0  0
 12  9  1  0  0  0  0
 13 14  1  0  0  0  0
 14 12  1  0  0  0  0
 15 16  2  0  0  0  0
 15 13  1  0  0  0  0
 16 17  1  0  0  0  0
 17 14  2  0  0  0  0
 18 20  1  0  0  0  0
 20 19  2  0  0  0  0
 20 16  1  0  0  0  0
 21 22  1  0  0  0  0
 22 24  1  0  0  0  0
 22 23  1  0  0  0  0
 26 25  1  0  0  0  0
 27 26  1  0  0  0  0
 28 30  1  0  0  0  0
 29 36  1  0  0  0  0
 31 35  1  0  0  0  0
 32 29  1  0  0  0  0
 33 39  1  0  0  0  0
 34 28  1  0  0  0  0
 35 33  1  0  0  0  0
 35 34  1  0  0  0  0
 37 32  1  0  0  0  0
 38 30  1  0  0  0  0
 38 37  1  0  0  0  0
 39 38  2  0  0  0  0
 40 36  1  0  0  0  0
M  END
>  <MODEL>
7

>  <REMARK>
 VINA RESULT:      -7.7      1.540      2.115
  Name = 
  10 active torsions:
  status: ('A' for Active; 'I' for Inactive)
    1  A    between atoms: N_3  and  C_14
    2  A    between atoms: N_3  and  C_30
    3  A    between atoms: C_8  and  C_21
    4  A    between atoms: C_11  and  C_22
    5  A    between atoms: C_11  and  P_37
    6  A    between atoms: C_13  and  C_21
    7  A    between atoms: C_13  and  C_22
    8  A    between atoms: C_14  and  C_19
    9  A    between atoms: C_21  and  C_27
   10  A    between atoms: C_26  and  C_38
                            x       y       z     vdW  Elec       q    Type
                         _______ _______ _______ _____ _____    ______ ____

>  <TORSDO>
F 10

$$$$
=
 OpenBabel11062413093D

 40 41  0  0  1  0  0  0  0  0999 V2000
  187.7880  177.8990  138.1810 C   0  0  1  0  0  3  0  0  0  0  0  0
  187.7130  177.9950  139.6810 C   0  0  0  0  0  0  0  0  0  0  0  0
  187.5520  178.1710  142.4370 N   0  0  0  0  0  0  0  0  0  0  0  0
  188.7630  177.5340  140.4830 C   0  0  0  0  0  3  0  0  0  0  0  0
  185.5400  178.9990  139.5430 F   0  0  0  0  0  0  0  0  0  0  0  0
  188.6730  177.6300  141.8800 C   0  0  0  0  0  0  0  0  0  0  0  0
  186.5780  178.5460  140.2890 C   0  0  0  0  0  0  0  0  0  0  0  0
  186.5170  178.6240  141.6800 C   0  0  0  0  0  3  0  0  0  0  0  0
  189.7460  177.1660  142.7220 N   0  0  0  0  0  0  0  0  0  0  0  0
  190.1960  175.8080  142.6460 C   0  0  0  0  0  3  0  0  0  0  0  0
  191.1440  175.3930  143.3650 O   0  0  0  0  0  0  0  0  0  0  0  0
  190.4120  178.0940  143.6330 C   0  0  0  0  0  2  0  0  0  0  0  0
  190.8960  177.1690  146.0600 C   0  0  0  0  0  2  0  0  0  0  0  0
  190.0180  177.8080  145.0420 C   0  0  0  0  0  0  0  0  0  0  0  0
  190.0380  177.1780  147.2340 N   0  0  0  0  0  0  0  0  0  0  0  0
  188.9220  177.7330  146.8880 C   0  0  0  0  0  0  0  0  0  0  0  0
  188.8740  178.1460  145.5300 N   0  0  0  0  0  0  0  0  0  0  0  0
  186.5200  178.2890  147.3290 N   0  0  0  0  0  1  0  0  0  0  0  0
  187.9780  177.7760  149.0580 O   0  0  0  0  0  0  0  0  0  0  0  0
  187.8060  177.9260  147.8200 C   0  0  0  0  0  0  0  0  0  0  0  0
  188.8040  178.8950  136.2720 F   0  0  0  0  0  0  0  0  0  0  0  0
  189.0280  178.5850  137.6000 C   0  0  0  0  0  0  0  0  0  0  0  0
  190.1340  177.7570  137.6900 F   0  0  0  0  0  0  0  0  0  0  0  0
  189.2810  179.7570  138.2900 F   0  0  0  0  0  0  0  0  0  0  0  0
  187.6650  176.4540  137.7000 C   0  0  0  0  0  2  0  0  0  0  0  0
  186.8100  176.3630  136.4430 C   0  0  0  0  0  2  0  0  0  0  0  0
  185.5330  177.1780  136.5850 C   0  0  0  0  0  1  0  0  0  0  0  0
  182.3400  176.8120  139.3520 C   0  0  0  0  0  2  0  0  0  0  0  0
  182.8450  175.6350  136.4360 C   0  0  0  0  0  2  0  0  0  0  0  0
  183.1680  177.4350  138.2400 C   0  0  0  0  0  2  0  0  0  0  0  0
  180.0550  178.4050  139.6930 O   0  0  0  0  0  1  0  0  0  0  0  0
  182.7170  176.6470  135.3260 C   0  0  0  0  0  2  0  0  0  0  0  0
  181.8150  179.8390  139.1900 C   0  0  0  0  0  2  0  0  0  0  0  0
  182.1430  177.8150  140.4910 C   0  0  0  0  0  2  0  0  0  0  0  0
  181.2230  178.9120  140.1670 N   0  0  0  0  0  0  0  0  0  0  0  0
  183.9190  174.8760  136.3300 O   0  0  0  0  0  0  0  0  0  0  0  0
  181.9960  177.8870  135.8580 C   0  0  0  0  0  2  0  0  0  0  0  0
  182.3080  178.2720  137.2960 C   0  0  0  0  0  0  0  0  0  0  0  0
  181.6960  179.3660  137.7620 C   0  0  0  0  0  3  0  0  0  0  0  0
  184.2500  176.2030  137.4320 P   0  0  0  0  0  1  0  0  0  0  0  0
  1 25  1  1  0  0  0
  1  2  1  0  0  0  0
  2  7  2  0  0  0  0
  2  4  1  0  0  0  0
  4  6  2  0  0  0  0
  5  7  1  0  0  0  0
  6  3  1  0  0  0  0
  6  9  1  0  0  0  0
  7  8  1  0  0  0  0
  8  3  2  0  0  0  0
  9 12  1  0  0  0  0
 10  9  1  0  0  0  0
 10 11  2  0  0  0  0
 12 14  1  0  0  0  0
 13 15  1  0  0  0  0
 14 17  2  0  0  0  0
 14 13  1  0  0  0  0
 16 15  2  0  0  0  0
 16 20  1  0  0  0  0
 17 16  1  0  0  0  0
 18 20  1  0  0  0  0
 20 19  2  0  0  0  0
 21 22  1  0  0  0  0
 22 23  1  0  0  0  0
 22  1  1  0  0  0  0
 22 24  1  0  0  0  0
 26 27  1  0  0  0  0
 26 25  1  0  0  0  0
 28 34  1  0  0  0  0
 30 28  1  0  0  0  0
 31 35  1  0  0  0  0
 32 37  1  0  0  0  0
 32 29  1  0  0  0  0
 33 35  1  0  0  0  0
 35 34  1  0  0  0  0
 36 29  1  0  0  0  0
 36 40  1  0  0  0  0
 37 38  1  0  0  0  0
 38 39  2  0  0  0  0
 38 30  1  0  0  0  0
 39 33  1  0  0  0  0
M  END
>  <MODEL>
8

>  <REMARK>
 VINA RESULT:      -7.5      3.369      5.949
  Name = 
  10 active torsions:
  status: ('A' for Active; 'I' for Inactive)
    1  A    between atoms: N_3  and  C_14
    2  A    between atoms: N_3  and  C_30
    3  A    between atoms: C_8  and  C_21
    4  A    between atoms: C_11  and  C_22
    5  A    between atoms: C_11  and  P_37
    6  A    between atoms: C_13  and  C_21
    7  A    between atoms: C_13  and  C_22
    8  A    between atoms: C_14  and  C_19
    9  A    between atoms: C_21  and  C_27
   10  A    between atoms: C_26  and  C_38
                            x       y       z     vdW  Elec       q    Type
                         _______ _______ _______ _____ _____    ______ ____

>  <TORSDO>
F 10

$$$$
=
 OpenBabel11062413093D

 40 41  0  0  1  0  0  0  0  0999 V2000
  186.8010  178.3840  143.1320 C   0  0  1  0  0  3  0  0  0  0  0  0
  185.3170  178.5950  143.2680 C   0  0  0  0  0  0  0  0  0  0  0  0
  182.5930  179.0030  143.5330 N   0  0  0  0  0  0  0  0  0  0  0  0
  184.4410  178.2210  142.2420 C   0  0  0  0  0  3  0  0  0  0  0  0
  185.6180  179.5580  145.4430 F   0  0  0  0  0  0  0  0  0  0  0  0
  183.0610  178.4300  142.3870 C   0  0  0  0  0  0  0  0  0  0  0  0
  184.8000  179.1800  144.4300 C   0  0  0  0  0  0  0  0  0  0  0  0
  183.4240  179.3770  144.5440 C   0  0  0  0  0  3  0  0  0  0  0  0
  182.1440  178.0460  141.3460 N   0  0  0  0  0  0  0  0  0  0  0  0
  182.6270  177.4670  140.1270 C   0  0  0  0  0  3  0  0  0  0  0  0
  181.8340  177.1120  139.2140 O   0  0  0  0  0  0  0  0  0  0  0  0
  180.7050  178.2080  141.5430 C   0  0  0  0  0  2  0  0  0  0  0  0
  179.4260  180.5030  141.8210 C   0  0  0  0  0  2  0  0  0  0  0  0
  180.2610  179.5430  141.0490 C   0  0  0  0  0  0  0  0  0  0  0  0
  179.3400  181.6240  140.8980 N   0  0  0  0  0  0  0  0  0  0  0  0
  180.0180  181.3050  139.8440 C   0  0  0  0  0  0  0  0  0  0  0  0
  180.6140  180.0170  139.9030 N   0  0  0  0  0  0  0  0  0  0  0  0
  179.1680  183.1780  138.4160 N   0  0  0  0  0  1  0  0  0  0  0  0
  181.1670  182.1050  137.9350 O   0  0  0  0  0  0  0  0  0  0  0  0
  180.1640  182.1990  138.6900 C   0  0  0  0  0  0  0  0  0  0  0  0
  188.4940  177.5880  144.6050 F   0  0  0  0  0  0  0  0  0  0  0  0
  187.3170  177.2180  143.9810 C   0  0  0  0  0  0  0  0  0  0  0  0
  187.5550  176.1050  143.1930 F   0  0  0  0  0  0  0  0  0  0  0  0
  186.3850  176.8970  144.9510 F   0  0  0  0  0  0  0  0  0  0  0  0
  187.2210  178.2450  141.6690 C   0  0  0  0  0  2  0  0  0  0  0  0
  188.7370  178.2470  141.5300 C   0  0  0  0  0  2  0  0  0  0  0  0
  189.2080  177.1300  140.6120 C   0  0  0  0  0  1  0  0  0  0  0  0
  191.3740  176.7130  136.9890 C   0  0  0  0  0  2  0  0  0  0  0  0
  188.8370  178.4460  137.8260 C   0  0  0  0  0  2  0  0  0  0  0  0
  190.3430  176.3770  138.0530 C   0  0  0  0  0  2  0  0  0  0  0  0
  191.0260  174.9020  134.8750 O   0  0  0  0  0  1  0  0  0  0  0  0
  187.5690  177.6490  137.9970 C   0  0  0  0  0  2  0  0  0  0  0  0
  190.6170  173.7350  136.8440 C   0  0  0  0  0  2  0  0  0  0  0  0
  192.2760  175.5050  136.7230 C   0  0  0  0  0  2  0  0  0  0  0  0
  191.6110  174.4150  136.0000 N   0  0  0  0  0  0  0  0  0  0  0  0
  189.0550  179.2970  138.8110 O   0  0  0  0  0  0  0  0  0  0  0  0
  187.7470  176.2770  137.3440 C   0  0  0  0  0  2  0  0  0  0  0  0
  189.1320  175.6600  137.4590 C   0  0  0  0  0  0  0  0  0  0  0  0
  189.2900  174.4520  136.9070 C   0  0  0  0  0  3  0  0  0  0  0  0
  189.9610  177.8220  139.1050 P   0  0  0  0  0  1  0  0  0  0  0  0
  1 25  1  6  0  0  0
  1  2  1  0  0  0  0
  1 22  1  0  0  0  0
  2  7  1  0  0  0  0
  3  8  1  0  0  0  0
  4  6  1  0  0  0  0
  4  2  2  0  0  0  0
  6  3  2  0  0  0  0
  7  8  2  0  0  0  0
  7  5  1  0  0  0  0
  9 12  1  0  0  0  0
  9  6  1  0  0  0  0
 10  9  1  0  0  0  0
 11 10  2  0  0  0  0
 14 12  1  0  0  0  0
 14 13  1  0  0  0  0
 15 13  1  0  0  0  0
 16 17  1  0  0  0  0
 16 15  2  0  0  0  0
 17 14  2  0  0  0  0
 18 20  1  0  0  0  0
 19 20  2  0  0  0  0
 20 16  1  0  0  0  0
 22 21  1  0  0  0  0
 22 24  1  0  0  0  0
 23 22  1  0  0  0  0
 26 25  1  0  0  0  0
 27 26  1  0  0  0  0
 28 30  1  0  0  0  0
 29 32  1  0  0  0  0
 29 36  1  0  0  0  0
 31 35  1  0  0  0  0
 33 39  1  0  0  0  0
 34 28  1  0  0  0  0
 35 34  1  0  0  0  0
 35 33  1  0  0  0  0
 36 40  1  0  0  0  0
 37 38  1  0  0  0  0
 37 32  1  0  0  0  0
 38 30  1  0  0  0  0
 39 38  2  0  0  0  0
M  END
>  <MODEL>
9

>  <REMARK>
 VINA RESULT:      -7.4      3.987      7.290
  Name = 
  10 active torsions:
  status: ('A' for Active; 'I' for Inactive)
    1  A    between atoms: N_3  and  C_14
    2  A    between atoms: N_3  and  C_30
    3  A    between atoms: C_8  and  C_21
    4  A    between atoms: C_11  and  C_22
    5  A    between atoms: C_11  and  P_37
    6  A    between atoms: C_13  and  C_21
    7  A    between atoms: C_13  and  C_22
    8  A    between atoms: C_14  and  C_19
    9  A    between atoms: C_21  and  C_27
   10  A    between atoms: C_26  and  C_38
                            x       y       z     vdW  Elec       q    Type
                         _______ _______ _______ _____ _____    ______ ____

>  <TORSDO>
F 10

$$$$
