=
 OpenBabel11062416563D

 56 60  0  0  1  0  0  0  0  0999 V2000
  191.3630  177.8810  141.5420 O   0  0  0  0  0  0  0  0  0  0  0  0
  190.9620  177.0750  145.1350 C   0  0  0  0  0  0  0  0  0  0  0  0
  189.6140  176.6730  145.0820 C   0  0  0  0  0  3  0  0  0  0  0  0
  190.3610  177.6490  140.5520 C   0  0  2  0  0  3  0  0  0  0  0  0
  189.5580  177.2380  142.7400 C   0  0  0  0  0  0  0  0  0  0  0  0
  191.6170  177.5100  143.9720 C   0  0  0  0  0  3  0  0  0  0  0  0
  189.0520  177.3920  141.3350 C   0  0  1  0  0  3  0  0  0  0  0  0
  188.9050  176.7390  143.8720 C   0  0  0  0  0  0  0  0  0  0  0  0
  190.8820  177.5660  142.7890 C   0  0  0  0  0  0  0  0  0  0  0  0
  191.6400  177.0020  146.3050 F   0  0  0  0  0  0  0  0  0  0  0  0
  187.5870  176.3060  143.8150 O   0  0  0  0  0  1  0  0  0  0  0  0
  190.7450  176.4210  139.7360 C   0  0  0  0  0  2  0  0  0  0  0  0
  189.7800  176.1550  138.5710 C   0  0  0  0  0  2  0  0  0  0  0  0
  191.9450  176.0860  137.2660 C   0  0  0  0  0  2  0  0  0  0  0  0
  190.4120  176.0960  137.1660 C   0  0  1  0  0  0  0  0  0  0  0  0
  192.5340  175.8660  135.8760 C   0  0  2  0  0  3  0  0  0  0  0  0
  189.9590  174.8300  136.4800 C   0  0  0  0  0  3  0  0  0  0  0  0
  190.7110  174.2180  135.5520 C   0  0  0  0  0  0  0  0  0  0  0  0
  192.0140  174.6770  135.2850 O   0  0  0  0  0  0  0  0  0  0  0  0
  194.0290  175.8840  135.8900 C   0  0  0  0  0  0  0  0  0  0  0  0
  196.0950  176.5660  135.4580 N   0  0  0  0  0  0  0  0  0  0  0  0
  194.9370  175.0140  136.4850 C   0  0  0  0  0  0  0  0  0  0  0  0
  194.7940  176.8560  135.2630 C   0  0  0  0  0  3  0  0  0  0  0  0
  196.1700  175.4600  136.1840 N   0  0  0  0  0  0  0  0  0  0  0  0
  197.3880  174.8550  136.5340 C   0  0  0  0  0  0  0  0  0  0  0  0
  198.4410  174.3420  136.8280 C   0  0  0  0  0  3  0  0  0  0  0  0
  194.3960  172.6280  136.8430 C   0  0  0  0  0  2  0  0  0  0  0  0
  194.6900  173.8280  137.3280 C   0  0  0  0  0  3  0  0  0  0  0  0
  188.5850  177.1270  135.6980 C   0  0  0  0  0  1  0  0  0  0  0  0
  189.9620  177.3050  136.3260 C   0  0  0  0  0  2  0  0  0  0  0  0
  190.2110  172.9870  134.8440 C   0  0  1  0  0  3  0  0  0  0  0  0
  190.9190  171.8480  135.2460 O   0  0  0  0  0  1  0  0  0  0  0  0
  187.8990  173.6140  134.7100 O   0  0  0  0  0  0  0  0  0  0  0  0
  188.7530  172.7770  135.1090 C   0  0  0  0  0  0  0  0  0  0  0  0
  188.3330  171.6420  135.7930 O   0  0  0  0  0  1  0  0  0  0  0  0
  188.2060  178.6590  141.1560 C   0  0  0  0  0  2  0  0  0  0  0  0
  187.1410  178.0920  139.0380 C   0  0  0  0  0  2  0  0  0  0  0  0
  186.9860  178.4900  140.3000 C   0  0  0  0  0  0  0  0  0  0  0  0
  185.6010  178.4400  140.8810 C   0  0  2  0  0  3  0  0  0  0  0  0
  183.6780  179.3360  139.5030 C   0  0  0  0  0  0  0  0  0  0  0  0
  184.8100  179.5400  140.3480 N   0  0  0  0  0  2  0  0  0  0  0  0
  183.1950  178.1820  139.3430 O   0  0  0  0  0  0  0  0  0  0  0  0
  183.0890  180.5020  138.7790 C   0  0  0  0  0  2  0  0  0  0  0  0
  181.0990  181.3460  137.7270 O   0  0  0  0  0  0  0  0  0  0  0  0
  180.6710  180.9270  138.9980 C   0  0  0  0  0  2  0  0  0  0  0  0
  181.6990  180.1770  138.2410 C   0  0  2  0  0  3  0  0  0  0  0  0
  185.5790  178.4640  142.3490 N   0  0  0  0  0  2  0  0  0  0  0  0
  184.5100  179.3150  142.8940 C   0  0  1  0  0  3  0  0  0  0  0  0
  183.2210  178.5100  142.9930 C   0  0  0  0  0  2  0  0  0  0  0  0
  182.3730  178.9660  144.1690 C   0  0  0  0  0  2  0  0  0  0  0  0
  180.9420  178.5260  143.9540 C   0  0  0  0  0  1  0  0  0  0  0  0
  184.8470  179.8930  144.2770 C   0  0  0  0  0  2  0  0  0  0  0  0
  185.7250  178.9440  145.0900 C   0  0  0  0  0  2  0  0  0  0  0  0
  186.0550  179.6210  147.3490 O   0  0  0  0  0  1  0  0  0  0  0  0
  184.3030  178.1810  147.0110 O   0  0  0  0  0  0  0  0  0  0  0  0
  185.3780  178.9290  146.5430 C   0  0  0  0  0  0  0  0  0  0  0  0
  1  9  1  0  0  0  0
  2 10  1  0  0  0  0
  3  2  1  0  0  0  0
  4 12  1  1  0  0  0
  4  7  1  0  0  0  0
  4  1  1  0  0  0  0
  5  9  2  0  0  0  0
  5  8  1  0  0  0  0
  6  2  2  0  0  0  0
  7 36  1  1  0  0  0
  7  5  1  0  0  0  0
  8  3  2  0  0  0  0
  9  6  1  0  0  0  0
 11  8  1  0  0  0  0
 13 12  1  0  0  0  0
 15 30  1  6  0  0  0
 15 14  1  0  0  0  0
 15 13  1  0  0  0  0
 16 20  1  1  0  0  0
 16 14  1  0  0  0  0
 17 15  1  0  0  0  0
 18 17  2  0  0  0  0
 19 18  1  0  0  0  0
 19 16  1  0  0  0  0
 20 22  2  0  0  0  0
 21 24  1  0  0  0  0
 22 28  1  0  0  0  0
 23 21  2  0  0  0  0
 23 20  1  0  0  0  0
 24 22  1  0  0  0  0
 24 25  1  0  0  0  0
 25 26  3  0  0  0  0
 27 28  2  0  0  0  0
 29 30  1  0  0  0  0
 31 34  1  0  0  0  0
 31 32  1  1  0  0  0
 31 18  1  0  0  0  0
 33 34  2  0  0  0  0
 34 35  1  0  0  0  0
 37 38  2  0  0  0  0
 38 36  1  0  0  0  0
 39 38  1  1  0  0  0
 39 47  1  0  0  0  0
 40 41  1  0  0  0  0
 41 39  1  0  0  0  0
 42 40  2  0  0  0  0
 43 40  1  0  0  0  0
 44 46  1  0  0  0  0
 44 45  1  0  0  0  0
 46 43  1  1  0  0  0
 46 45  1  0  0  0  0
 47 48  1  0  0  0  0
 48 49  1  1  0  0  0
 48 52  1  0  0  0  0
 49 50  1  0  0  0  0
 51 50  1  0  0  0  0
 52 53  1  0  0  0  0
 53 56  1  0  0  0  0
 56 55  2  0  0  0  0
 56 54  1  0  0  0  0
M  END
>  <MODEL>
1

>  <REMARK>
 VINA RESULT:      -7.0      0.000      0.000
  Name = 
  22 active torsions:
  status: ('A' for Active; 'I' for Inactive)
    1  A    between atoms: C_1  and  C_15
    2  A    between atoms: C_1  and  C_18
    3  A    between atoms: C_2  and  C_31
    4  A    between atoms: C_2  and  C_47
    5  A    between atoms: C_8  and  C_32
    6  A    between atoms: C_8  and  C_54
    7  A    between atoms: C_11  and  C_14
    8  A    between atoms: C_11  and  N_27
    9  A    between atoms: C_11  and  C_41
   10  A    between atoms: C_12  and  C_36
   11  A    between atoms: C_14  and  C_50
   12  A    between atoms: C_15  and  C_20
   13  A    between atoms: C_16  and  C_22
   14  A    between atoms: C_17  and  C_41
   15  A    between atoms: C_20  and  C_40
   16  A    between atoms: C_21  and  N_27
   17  A    between atoms: C_21  and  N_42
   18  A    between atoms: C_21  and  C_54
   19  A    between atoms: C_23  and  C_46
   20  A    between atoms: C_25  and  N_48
   21  A    between atoms: C_43  and  C_46
   22  A    between atoms: C_50  and  C_52
                            x       y       z     vdW  Elec       q    Type
                         _______ _______ _______ _____ _____    ______ ____

>  <TORSDO>
F 22

$$$$
=
 OpenBabel11062416563D

 56 60  0  0  1  0  0  0  0  0999 V2000
  189.6380  178.6330  141.0990 O   0  0  0  0  0  0  0  0  0  0  0  0
  190.2900  177.6670  144.6150 C   0  0  0  0  0  0  0  0  0  0  0  0
  189.0230  177.1200  144.8920 C   0  0  0  0  0  3  0  0  0  0  0  0
  188.4360  178.3250  140.3930 C   0  0  2  0  0  3  0  0  0  0  0  0
  188.2890  177.7530  142.6840 C   0  0  0  0  0  0  0  0  0  0  0  0
  190.5650  178.2110  143.3500 C   0  0  0  0  0  3  0  0  0  0  0  0
  187.4150  177.8970  141.4730 C   0  0  1  0  0  3  0  0  0  0  0  0
  188.0140  177.1470  143.9150 C   0  0  0  0  0  0  0  0  0  0  0  0
  189.5390  178.2250  142.4060 C   0  0  0  0  0  0  0  0  0  0  0  0
  191.2590  177.6310  145.5600 F   0  0  0  0  0  0  0  0  0  0  0  0
  186.7770  176.5720  144.1780 O   0  0  0  0  0  1  0  0  0  0  0  0
  188.7070  177.1740  139.4310 C   0  0  0  0  0  2  0  0  0  0  0  0
  187.6040  177.0090  138.3750 C   0  0  0  0  0  2  0  0  0  0  0  0
  189.3690  175.6070  137.2300 C   0  0  0  0  0  2  0  0  0  0  0  0
  188.0200  176.3210  137.0590 C   0  0  1  0  0  0  0  0  0  0  0  0
  189.6740  174.8070  135.9670 C   0  0  2  0  0  3  0  0  0  0  0  0
  186.9710  175.3000  136.6900 C   0  0  0  0  0  3  0  0  0  0  0  0
  187.2700  174.2010  135.9790 C   0  0  0  0  0  0  0  0  0  0  0  0
  188.6100  173.9060  135.6670 O   0  0  0  0  0  0  0  0  0  0  0  0
  190.9970  174.1150  136.0450 C   0  0  0  0  0  0  0  0  0  0  0  0
  192.4770  172.4650  135.9670 N   0  0  0  0  0  0  0  0  0  0  0  0
  192.2590  174.6120  136.3500 C   0  0  0  0  0  0  0  0  0  0  0  0
  191.1740  172.7620  135.7960 C   0  0  0  0  0  3  0  0  0  0  0  0
  193.1160  173.5760  136.3040 N   0  0  0  0  0  0  0  0  0  0  0  0
  194.4880  173.6100  136.5980 C   0  0  0  0  0  0  0  0  0  0  0  0
  195.6660  173.6420  136.8630 C   0  0  0  0  0  3  0  0  0  0  0  0
  192.7420  176.4990  137.8730 C   0  0  0  0  0  2  0  0  0  0  0  0
  192.6790  175.9960  136.6470 C   0  0  0  0  0  3  0  0  0  0  0  0
  189.2180  178.3940  136.1550 C   0  0  0  0  0  1  0  0  0  0  0  0
  188.1270  177.3560  135.9250 C   0  0  0  0  0  2  0  0  0  0  0  0
  186.1940  173.2270  135.5780 C   0  0  1  0  0  3  0  0  0  0  0  0
  186.7150  171.9390  135.4050 O   0  0  0  0  0  1  0  0  0  0  0  0
  183.9280  173.5180  136.3080 O   0  0  0  0  0  0  0  0  0  0  0  0
  185.1060  173.1830  136.6050 C   0  0  0  0  0  0  0  0  0  0  0  0
  185.3940  172.7600  137.8970 O   0  0  0  0  0  1  0  0  0  0  0  0
  186.4310  179.0680  141.6000 C   0  0  0  0  0  2  0  0  0  0  0  0
  184.9900  179.3050  139.6480 C   0  0  0  0  0  2  0  0  0  0  0  0
  185.1180  178.8710  140.9010 C   0  0  0  0  0  0  0  0  0  0  0  0
  184.0640  177.9370  141.4260 C   0  0  2  0  0  3  0  0  0  0  0  0
  182.0850  177.3680  139.9580 C   0  0  0  0  0  0  0  0  0  0  0  0
  182.7800  178.2650  140.8220 N   0  0  0  0  0  2  0  0  0  0  0  0
  182.4600  176.1700  139.8380 O   0  0  0  0  0  0  0  0  0  0  0  0
  180.9230  177.8720  139.1650 C   0  0  0  0  0  2  0  0  0  0  0  0
  181.3580  180.0620  138.2720 O   0  0  0  0  0  0  0  0  0  0  0  0
  180.2950  179.5720  137.4930 C   0  0  0  0  0  2  0  0  0  0  0  0
  181.3860  178.6860  137.9600 C   0  0  2  0  0  3  0  0  0  0  0  0
  183.9520  177.9420  142.8900 N   0  0  0  0  0  2  0  0  0  0  0  0
  183.1890  179.0900  143.4050 C   0  0  1  0  0  3  0  0  0  0  0  0
  181.9570  178.5900  144.1470 C   0  0  0  0  0  2  0  0  0  0  0  0
  180.6790  178.9980  143.4350 C   0  0  0  0  0  2  0  0  0  0  0  0
  179.5040  178.8150  144.3710 C   0  0  0  0  0  1  0  0  0  0  0  0
  184.0100  179.9860  144.3440 C   0  0  0  0  0  2  0  0  0  0  0  0
  185.2130  179.2460  144.9270 C   0  0  0  0  0  2  0  0  0  0  0  0
  184.3130  178.1360  146.8310 O   0  0  0  0  0  0  0  0  0  0  0  0
  185.8690  179.7550  147.2940 O   0  0  0  0  0  1  0  0  0  0  0  0
  185.0990  179.0200  146.4000 C   0  0  0  0  0  0  0  0  0  0  0  0
  1  9  1  0  0  0  0
  2  3  1  0  0  0  0
  2 10  1  0  0  0  0
  4 12  1  6  0  0  0
  4  1  1  0  0  0  0
  4  7  1  0  0  0  0
  5  8  1  0  0  0  0
  6  2  2  0  0  0  0
  7 36  1  1  0  0  0
  7  5  1  0  0  0  0
  8 11  1  0  0  0  0
  8  3  2  0  0  0  0
  9  5  2  0  0  0  0
  9  6  1  0  0  0  0
 13 12  1  0  0  0  0
 15 30  1  6  0  0  0
 15 14  1  0  0  0  0
 15 13  1  0  0  0  0
 16 20  1  1  0  0  0
 16 14  1  0  0  0  0
 17 15  1  0  0  0  0
 18 17  2  0  0  0  0
 19 16  1  0  0  0  0
 19 18  1  0  0  0  0
 20 22  2  0  0  0  0
 21 24  1  0  0  0  0
 22 28  1  0  0  0  0
 23 21  2  0  0  0  0
 23 20  1  0  0  0  0
 24 22  1  0  0  0  0
 24 25  1  0  0  0  0
 25 26  3  0  0  0  0
 28 27  2  0  0  0  0
 30 29  1  0  0  0  0
 31 32  1  1  0  0  0
 31 18  1  0  0  0  0
 31 34  1  0  0  0  0
 33 34  2  0  0  0  0
 34 35  1  0  0  0  0
 37 38  2  0  0  0  0
 38 39  1  0  0  0  0
 38 36  1  0  0  0  0
 39 41  1  6  0  0  0
 39 47  1  0  0  0  0
 40 41  1  0  0  0  0
 42 40  2  0  0  0  0
 43 40  1  0  0  0  0
 45 46  1  0  0  0  0
 45 44  1  0  0  0  0
 46 44  1  0  0  0  0
 46 43  1  1  0  0  0
 47 48  1  0  0  0  0
 48 49  1  1  0  0  0
 48 52  1  0  0  0  0
 50 49  1  0  0  0  0
 50 51  1  0  0  0  0
 52 53  1  0  0  0  0
 53 56  1  0  0  0  0
 56 54  2  0  0  0  0
 56 55  1  0  0  0  0
M  END
>  <MODEL>
2

>  <REMARK>
 VINA RESULT:      -6.7      1.826      2.657
  Name = 
  22 active torsions:
  status: ('A' for Active; 'I' for Inactive)
    1  A    between atoms: C_1  and  C_15
    2  A    between atoms: C_1  and  C_18
    3  A    between atoms: C_2  and  C_31
    4  A    between atoms: C_2  and  C_47
    5  A    between atoms: C_8  and  C_32
    6  A    between atoms: C_8  and  C_54
    7  A    between atoms: C_11  and  C_14
    8  A    between atoms: C_11  and  N_27
    9  A    between atoms: C_11  and  C_41
   10  A    between atoms: C_12  and  C_36
   11  A    between atoms: C_14  and  C_50
   12  A    between atoms: C_15  and  C_20
   13  A    between atoms: C_16  and  C_22
   14  A    between atoms: C_17  and  C_41
   15  A    between atoms: C_20  and  C_40
   16  A    between atoms: C_21  and  N_27
   17  A    between atoms: C_21  and  N_42
   18  A    between atoms: C_21  and  C_54
   19  A    between atoms: C_23  and  C_46
   20  A    between atoms: C_25  and  N_48
   21  A    between atoms: C_43  and  C_46
   22  A    between atoms: C_50  and  C_52
                            x       y       z     vdW  Elec       q    Type
                         _______ _______ _______ _____ _____    ______ ____

>  <TORSDO>
F 22

$$$$
=
 OpenBabel11062416563D

 56 60  0  0  1  0  0  0  0  0999 V2000
  184.7410  177.7300  141.2290 O   0  0  0  0  0  0  0  0  0  0  0  0
  182.2940  179.0100  143.6980 C   0  0  0  0  0  0  0  0  0  0  0  0
  183.2210  179.4580  144.6580 C   0  0  0  0  0  3  0  0  0  0  0  0
  186.1550  177.8740  141.3540 C   0  0  2  0  0  3  0  0  0  0  0  0
  185.0150  178.5980  143.2970 C   0  0  0  0  0  0  0  0  0  0  0  0
  182.7400  178.4010  142.5140 C   0  0  0  0  0  3  0  0  0  0  0  0
  186.4050  178.2850  142.8240 C   0  0  1  0  0  3  0  0  0  0  0  0
  184.5970  179.2660  144.4530 C   0  0  0  0  0  0  0  0  0  0  0  0
  184.1120  178.2240  142.3450 C   0  0  0  0  0  0  0  0  0  0  0  0
  180.9700  179.2050  143.9010 F   0  0  0  0  0  0  0  0  0  0  0  0
  185.5110  179.7440  145.3830 O   0  0  0  0  0  1  0  0  0  0  0  0
  186.6280  178.9690  140.4050 C   0  0  0  0  0  2  0  0  0  0  0  0
  187.5770  178.4450  139.3180 C   0  0  0  0  0  2  0  0  0  0  0  0
  187.1590  176.4400  137.8340 C   0  0  0  0  0  2  0  0  0  0  0  0
  186.9120  177.9460  138.0190 C   0  0  1  0  0  0  0  0  0  0  0  0
  186.3590  175.9480  136.6320 C   0  0  2  0  0  3  0  0  0  0  0  0
  185.4260  178.1890  138.1070 C   0  0  0  0  0  3  0  0  0  0  0  0
  184.5400  177.4150  137.4590 C   0  0  0  0  0  0  0  0  0  0  0  0
  184.9760  176.2640  136.7770 O   0  0  0  0  0  0  0  0  0  0  0  0
  186.5810  174.4930  136.3660 C   0  0  0  0  0  0  0  0  0  0  0  0
  186.2790  172.2990  136.4750 N   0  0  0  0  0  0  0  0  0  0  0  0
  187.5350  173.8560  135.5790 C   0  0  0  0  0  0  0  0  0  0  0  0
  185.7990  173.4830  136.9040 C   0  0  0  0  0  3  0  0  0  0  0  0
  187.3200  172.5320  135.6890 N   0  0  0  0  0  0  0  0  0  0  0  0
  188.0830  171.5080  135.1050 C   0  0  0  0  0  0  0  0  0  0  0  0
  188.7290  170.6200  134.6030 C   0  0  0  0  0  3  0  0  0  0  0  0
  189.5600  175.2190  135.1870 C   0  0  0  0  0  2  0  0  0  0  0  0
  188.5940  174.4340  134.7280 C   0  0  0  0  0  3  0  0  0  0  0  0
  188.9920  178.7060  136.7350 C   0  0  0  0  0  1  0  0  0  0  0  0
  187.4700  178.7090  136.8040 C   0  0  0  0  0  2  0  0  0  0  0  0
  183.0660  177.7140  137.5200 C   0  0  1  0  0  3  0  0  0  0  0  0
  182.5640  178.0530  136.2580 O   0  0  0  0  0  1  0  0  0  0  0  0
  181.3100  176.0810  137.4270 O   0  0  0  0  0  0  0  0  0  0  0  0
  182.3060  176.5390  138.0510 C   0  0  0  0  0  0  0  0  0  0  0  0
  182.7050  175.9380  139.2380 O   0  0  0  0  0  1  0  0  0  0  0  0
  186.9880  177.0420  143.5090 C   0  0  0  0  0  2  0  0  0  0  0  0
  188.8610  175.5380  143.0950 C   0  0  0  0  0  2  0  0  0  0  0  0
  188.4430  176.7940  143.2390 C   0  0  0  0  0  0  0  0  0  0  0  0
  189.3770  177.8920  142.8130 C   0  0  2  0  0  3  0  0  0  0  0  0
  191.4500  177.3310  141.4780 C   0  0  0  0  0  0  0  0  0  0  0  0
  190.0380  177.5130  141.5730 N   0  0  0  0  0  2  0  0  0  0  0  0
  192.1650  177.2990  142.5160 O   0  0  0  0  0  0  0  0  0  0  0  0
  192.0810  177.2150  140.1290 C   0  0  0  0  0  2  0  0  0  0  0  0
  191.0000  175.4910  138.8490 O   0  0  0  0  0  0  0  0  0  0  0  0
  191.7000  176.2470  137.8940 C   0  0  0  0  0  2  0  0  0  0  0  0
  191.0450  176.8860  139.0580 C   0  0  2  0  0  3  0  0  0  0  0  0
  190.3720  178.2440  143.8330 N   0  0  0  0  0  2  0  0  0  0  0  0
  190.1760  177.5250  145.1020 C   0  0  1  0  0  3  0  0  0  0  0  0
  191.5230  177.3100  145.7790 C   0  0  0  0  0  2  0  0  0  0  0  0
  191.7350  175.8490  146.1360 C   0  0  0  0  0  2  0  0  0  0  0  0
  192.2590  175.7510  147.5520 C   0  0  0  0  0  1  0  0  0  0  0  0
  189.2390  178.2600  146.0720 C   0  0  0  0  0  2  0  0  0  0  0  0
  188.4560  177.2880  146.9510 C   0  0  0  0  0  2  0  0  0  0  0  0
  188.1510  178.1580  149.1470 O   0  0  0  0  0  1  0  0  0  0  0  0
  186.3660  178.4340  147.7340 O   0  0  0  0  0  0  0  0  0  0  0  0
  187.6500  177.9750  148.0060 C   0  0  0  0  0  0  0  0  0  0  0  0
  1  4  1  0  0  0  0
  1  9  1  0  0  0  0
  2 10  1  0  0  0  0
  2  3  1  0  0  0  0
  4 12  1  6  0  0  0
  4  7  1  0  0  0  0
  5  8  1  0  0  0  0
  6  2  2  0  0  0  0
  7  5  1  0  0  0  0
  7 36  1  1  0  0  0
  8  3  2  0  0  0  0
  8 11  1  0  0  0  0
  9  6  1  0  0  0  0
  9  5  2  0  0  0  0
 13 12  1  0  0  0  0
 14 15  1  0  0  0  0
 15 30  1  6  0  0  0
 15 17  1  0  0  0  0
 15 13  1  0  0  0  0
 16 20  1  1  0  0  0
 16 19  1  0  0  0  0
 16 14  1  0  0  0  0
 18 31  1  0  0  0  0
 18 17  2  0  0  0  0
 19 18  1  0  0  0  0
 20 23  1  0  0  0  0
 21 23  2  0  0  0  0
 22 24  1  0  0  0  0
 22 20  2  0  0  0  0
 24 21  1  0  0  0  0
 25 24  1  0  0  0  0
 26 25  3  0  0  0  0
 28 27  2  0  0  0  0
 28 22  1  0  0  0  0
 29 30  1  0  0  0  0
 31 32  1  6  0  0  0
 31 34  1  0  0  0  0
 33 34  2  0  0  0  0
 34 35  1  0  0  0  0
 37 38  2  0  0  0  0
 38 36  1  0  0  0  0
 39 41  1  6  0  0  0
 39 38  1  0  0  0  0
 39 47  1  0  0  0  0
 40 41  1  0  0  0  0
 40 42  2  0  0  0  0
 43 40  1  0  0  0  0
 44 46  1  0  0  0  0
 45 44  1  0  0  0  0
 45 46  1  0  0  0  0
 46 43  1  1  0  0  0
 47 48  1  0  0  0  0
 48 49  1  1  0  0  0
 48 52  1  0  0  0  0
 49 50  1  0  0  0  0
 50 51  1  0  0  0  0
 52 53  1  0  0  0  0
 53 56  1  0  0  0  0
 55 56  2  0  0  0  0
 56 54  1  0  0  0  0
M  END
>  <MODEL>
3

>  <REMARK>
 VINA RESULT:      -6.6      3.599      7.378
  Name = 
  22 active torsions:
  status: ('A' for Active; 'I' for Inactive)
    1  A    between atoms: C_1  and  C_15
    2  A    between atoms: C_1  and  C_18
    3  A    between atoms: C_2  and  C_31
    4  A    between atoms: C_2  and  C_47
    5  A    between atoms: C_8  and  C_32
    6  A    between atoms: C_8  and  C_54
    7  A    between atoms: C_11  and  C_14
    8  A    between atoms: C_11  and  N_27
    9  A    between atoms: C_11  and  C_41
   10  A    between atoms: C_12  and  C_36
   11  A    between atoms: C_14  and  C_50
   12  A    between atoms: C_15  and  C_20
   13  A    between atoms: C_16  and  C_22
   14  A    between atoms: C_17  and  C_41
   15  A    between atoms: C_20  and  C_40
   16  A    between atoms: C_21  and  N_27
   17  A    between atoms: C_21  and  N_42
   18  A    between atoms: C_21  and  C_54
   19  A    between atoms: C_23  and  C_46
   20  A    between atoms: C_25  and  N_48
   21  A    between atoms: C_43  and  C_46
   22  A    between atoms: C_50  and  C_52
                            x       y       z     vdW  Elec       q    Type
                         _______ _______ _______ _____ _____    ______ ____

>  <TORSDO>
F 22

$$$$
=
 OpenBabel11062416563D

 56 60  0  0  1  0  0  0  0  0999 V2000
  190.6580  177.7380  140.3080 O   0  0  0  0  0  0  0  0  0  0  0  0
  191.1200  176.8710  143.8790 C   0  0  0  0  0  0  0  0  0  0  0  0
  189.7830  176.5290  144.1580 C   0  0  0  0  0  3  0  0  0  0  0  0
  189.4320  177.5720  139.5950 C   0  0  2  0  0  3  0  0  0  0  0  0
  189.1770  177.1480  141.9090 C   0  0  0  0  0  0  0  0  0  0  0  0
  191.4870  177.3030  142.5940 C   0  0  0  0  0  3  0  0  0  0  0  0
  188.3470  177.3550  140.6760 C   0  0  1  0  0  3  0  0  0  0  0  0
  188.8010  176.6530  143.1630 C   0  0  0  0  0  0  0  0  0  0  0  0
  190.4850  177.4170  141.6320 C   0  0  0  0  0  0  0  0  0  0  0  0
  192.0620  176.7430  144.8430 F   0  0  0  0  0  0  0  0  0  0  0  0
  187.4900  176.2790  143.4300 O   0  0  0  0  0  1  0  0  0  0  0  0
  189.5430  176.3460  138.6960 C   0  0  0  0  0  2  0  0  0  0  0  0
  190.9970  175.9040  138.4720 C   0  0  0  0  0  2  0  0  0  0  0  0
  192.3440  174.0600  137.3870 C   0  0  0  0  0  2  0  0  0  0  0  0
  191.2810  175.1460  137.1590 C   0  0  1  0  0  0  0  0  0  0  0  0
  192.4860  173.2270  136.1170 C   0  0  2  0  0  3  0  0  0  0  0  0
  190.0070  174.4890  136.6890 C   0  0  0  0  0  3  0  0  0  0  0  0
  190.0160  173.3630  135.9580 C   0  0  0  0  0  0  0  0  0  0  0  0
  191.2270  172.6880  135.7190 O   0  0  0  0  0  0  0  0  0  0  0  0
  193.5360  172.1710  136.2510 C   0  0  0  0  0  0  0  0  0  0  0  0
  194.4830  170.1680  136.1460 N   0  0  0  0  0  0  0  0  0  0  0  0
  194.8400  172.2500  136.7290 C   0  0  0  0  0  0  0  0  0  0  0  0
  193.3500  170.8480  135.8800 C   0  0  0  0  0  3  0  0  0  0  0  0
  195.3650  171.0130  136.6580 N   0  0  0  0  0  0  0  0  0  0  0  0
  196.6420  170.6200  137.0880 C   0  0  0  0  0  0  0  0  0  0  0  0
  197.7460  170.2900  137.4520 C   0  0  0  0  0  3  0  0  0  0  0  0
  195.6960  173.7620  138.4880 C   0  0  0  0  0  2  0  0  0  0  0  0
  195.5970  173.4230  137.2090 C   0  0  0  0  0  3  0  0  0  0  0  0
  190.6520  176.6300  135.1720 C   0  0  0  0  0  1  0  0  0  0  0  0
  191.7690  176.1210  136.0730 C   0  0  0  0  0  2  0  0  0  0  0  0
  188.7310  172.7600  135.4560 C   0  0  1  0  0  3  0  0  0  0  0  0
  188.8370  171.3690  135.3360 O   0  0  0  0  0  1  0  0  0  0  0  0
  186.8360  174.0660  136.1310 O   0  0  0  0  0  0  0  0  0  0  0  0
  187.5950  173.0890  136.3720 C   0  0  0  0  0  0  0  0  0  0  0  0
  187.3660  172.3060  137.4970 O   0  0  0  0  0  1  0  0  0  0  0  0
  187.5440  178.6610  140.7250 C   0  0  0  0  0  2  0  0  0  0  0  0
  186.2030  178.2280  138.7360 C   0  0  0  0  0  2  0  0  0  0  0  0
  186.2260  178.6230  140.0090 C   0  0  0  0  0  0  0  0  0  0  0  0
  184.9150  178.6980  140.7390 C   0  0  2  0  0  3  0  0  0  0  0  0
  182.9350  178.9680  139.1880 C   0  0  0  0  0  0  0  0  0  0  0  0
  183.9840  179.5220  139.9810 N   0  0  0  0  0  2  0  0  0  0  0  0
  182.6480  177.7430  139.2680 O   0  0  0  0  0  0  0  0  0  0  0  0
  182.2010  179.8490  138.2310 C   0  0  0  0  0  2  0  0  0  0  0  0
  180.7500  181.5560  139.1040 O   0  0  0  0  0  0  0  0  0  0  0  0
  181.2120  182.0800  137.8840 C   0  0  0  0  0  2  0  0  0  0  0  0
  182.0910  181.2750  138.7630 C   0  0  2  0  0  3  0  0  0  0  0  0
  185.0370  179.2020  142.1130 N   0  0  0  0  0  2  0  0  0  0  0  0
  184.1130  178.5430  143.0500 C   0  0  1  0  0  3  0  0  0  0  0  0
  184.3530  179.0740  144.4570 C   0  0  0  0  0  2  0  0  0  0  0  0
  185.7990  178.8800  144.8820 C   0  0  0  0  0  2  0  0  0  0  0  0
  185.8440  178.0110  146.1200 C   0  0  0  0  0  1  0  0  0  0  0  0
  182.6360  178.7480  142.6830 C   0  0  0  0  0  2  0  0  0  0  0  0
  181.7380  178.7430  143.9180 C   0  0  0  0  0  2  0  0  0  0  0  0
  179.3780  178.4300  143.9810 O   0  0  0  0  0  1  0  0  0  0  0  0
  180.0760  180.3690  142.9750 O   0  0  0  0  0  0  0  0  0  0  0  0
  180.3350  179.1650  143.6210 C   0  0  0  0  0  0  0  0  0  0  0  0
  1  9  1  0  0  0  0
  2  3  1  0  0  0  0
  2 10  1  0  0  0  0
  4 12  1  6  0  0  0
  4  1  1  0  0  0  0
  4  7  1  0  0  0  0
  5  8  1  0  0  0  0
  6  2  2  0  0  0  0
  7 36  1  1  0  0  0
  7  5  1  0  0  0  0
  8 11  1  0  0  0  0
  8  3  2  0  0  0  0
  9  5  2  0  0  0  0
  9  6  1  0  0  0  0
 13 12  1  0  0  0  0
 15 30  1  6  0  0  0
 15 14  1  0  0  0  0
 15 13  1  0  0  0  0
 16 20  1  1  0  0  0
 16 14  1  0  0  0  0
 17 15  1  0  0  0  0
 18 17  2  0  0  0  0
 19 18  1  0  0  0  0
 19 16  1  0  0  0  0
 20 22  2  0  0  0  0
 21 24  1  0  0  0  0
 22 28  1  0  0  0  0
 23 21  2  0  0  0  0
 23 20  1  0  0  0  0
 24 22  1  0  0  0  0
 24 25  1  0  0  0  0
 25 26  3  0  0  0  0
 28 27  2  0  0  0  0
 29 30  1  0  0  0  0
 31 32  1  1  0  0  0
 31 18  1  0  0  0  0
 31 34  1  0  0  0  0
 33 34  2  0  0  0  0
 34 35  1  0  0  0  0
 37 38  2  0  0  0  0
 38 36  1  0  0  0  0
 38 39  1  0  0  0  0
 39 41  1  6  0  0  0
 39 47  1  0  0  0  0
 40 42  2  0  0  0  0
 40 41  1  0  0  0  0
 43 40  1  0  0  0  0
 45 46  1  0  0  0  0
 45 44  1  0  0  0  0
 46 43  1  6  0  0  0
 46 44  1  0  0  0  0
 47 48  1  0  0  0  0
 48 52  1  6  0  0  0
 48 49  1  0  0  0  0
 49 50  1  0  0  0  0
 50 51  1  0  0  0  0
 52 53  1  0  0  0  0
 55 56  2  0  0  0  0
 56 53  1  0  0  0  0
 56 54  1  0  0  0  0
M  END
>  <MODEL>
4

>  <REMARK>
 VINA RESULT:      -6.4      1.921      2.833
  Name = 
  22 active torsions:
  status: ('A' for Active; 'I' for Inactive)
    1  A    between atoms: C_1  and  C_15
    2  A    between atoms: C_1  and  C_18
    3  A    between atoms: C_2  and  C_31
    4  A    between atoms: C_2  and  C_47
    5  A    between atoms: C_8  and  C_32
    6  A    between atoms: C_8  and  C_54
    7  A    between atoms: C_11  and  C_14
    8  A    between atoms: C_11  and  N_27
    9  A    between atoms: C_11  and  C_41
   10  A    between atoms: C_12  and  C_36
   11  A    between atoms: C_14  and  C_50
   12  A    between atoms: C_15  and  C_20
   13  A    between atoms: C_16  and  C_22
   14  A    between atoms: C_17  and  C_41
   15  A    between atoms: C_20  and  C_40
   16  A    between atoms: C_21  and  N_27
   17  A    between atoms: C_21  and  N_42
   18  A    between atoms: C_21  and  C_54
   19  A    between atoms: C_23  and  C_46
   20  A    between atoms: C_25  and  N_48
   21  A    between atoms: C_43  and  C_46
   22  A    between atoms: C_50  and  C_52
                            x       y       z     vdW  Elec       q    Type
                         _______ _______ _______ _____ _____    ______ ____

>  <TORSDO>
F 22

$$$$
=
 OpenBabel11062416563D

 56 60  0  0  1  0  0  0  0  0999 V2000
  186.9290  177.0420  142.8250 O   0  0  0  0  0  0  0  0  0  0  0  0
  189.0760  177.4020  145.8220 C   0  0  0  0  0  0  0  0  0  0  0  0
  190.0860  178.1840  145.2300 C   0  0  0  0  0  3  0  0  0  0  0  0
  187.1750  177.6970  141.5800 C   0  0  2  0  0  3  0  0  0  0  0  0
  188.9540  178.0040  143.1100 C   0  0  0  0  0  0  0  0  0  0  0  0
  187.9800  176.9680  145.0600 C   0  0  0  0  0  3  0  0  0  0  0  0
  188.6320  178.2100  141.6580 C   0  0  1  0  0  3  0  0  0  0  0  0
  190.0220  178.5030  143.8640 C   0  0  0  0  0  0  0  0  0  0  0  0
  187.9500  177.3000  143.7070 C   0  0  0  0  0  0  0  0  0  0  0  0
  189.1440  177.1040  147.1410 F   0  0  0  0  0  0  0  0  0  0  0  0
  190.9990  179.3070  143.2910 O   0  0  0  0  0  1  0  0  0  0  0  0
  186.2050  178.8640  141.4350 C   0  0  0  0  0  2  0  0  0  0  0  0
  185.4910  178.8780  140.0760 C   0  0  0  0  0  2  0  0  0  0  0  0
  183.4320  177.4840  139.6160 C   0  0  0  0  0  2  0  0  0  0  0  0
  183.9500  178.8420  140.1170 C   0  0  1  0  0  0  0  0  0  0  0  0
  181.9210  177.4220  139.8190 C   0  0  2  0  0  3  0  0  0  0  0  0
  183.4950  179.0420  141.5410 C   0  0  0  0  0  3  0  0  0  0  0  0
  182.3410  178.5300  141.9960 C   0  0  0  0  0  0  0  0  0  0  0  0
  181.5800  177.6730  141.1810 O   0  0  0  0  0  0  0  0  0  0  0  0
  181.3380  176.1400  139.3160 C   0  0  0  0  0  0  0  0  0  0  0  0
  180.1110  174.2930  139.2930 N   0  0  0  0  0  0  0  0  0  0  0  0
  181.5540  175.4570  138.1240 C   0  0  0  0  0  0  0  0  0  0  0  0
  180.4140  175.3850  140.0220 C   0  0  0  0  0  3  0  0  0  0  0  0
  180.8020  174.3420  138.1640 N   0  0  0  0  0  0  0  0  0  0  0  0
  180.7520  173.3300  137.1920 C   0  0  0  0  0  0  0  0  0  0  0  0
  180.7210  172.4580  136.3580 C   0  0  0  0  0  3  0  0  0  0  0  0
  181.9710  176.5510  135.9470 C   0  0  0  0  0  2  0  0  0  0  0  0
  182.3980  175.8220  136.9700 C   0  0  0  0  0  3  0  0  0  0  0  0
  182.5950  179.4550  138.0340 C   0  0  0  0  0  1  0  0  0  0  0  0
  183.3650  179.9670  139.2440 C   0  0  0  0  0  2  0  0  0  0  0  0
  181.8850  178.7920  143.4070 C   0  0  1  0  0  3  0  0  0  0  0  0
  182.7520  179.6730  144.0650 O   0  0  0  0  0  1  0  0  0  0  0  0
  179.5680  178.7750  144.0330 O   0  0  0  0  0  1  0  0  0  0  0  0
  180.5010  179.3630  143.4220 C   0  0  0  0  0  0  0  0  0  0  0  0
  180.2410  180.5590  142.7620 O   0  0  0  0  0  0  0  0  0  0  0  0
  189.4460  177.2850  140.7430 C   0  0  0  0  0  2  0  0  0  0  0  0
  189.1770  178.8030  138.8560 C   0  0  0  0  0  2  0  0  0  0  0  0
  189.2830  177.5430  139.2750 C   0  0  0  0  0  0  0  0  0  0  0  0
  189.5500  176.4850  138.2420 C   0  0  2  0  0  3  0  0  0  0  0  0
  187.4290  176.0360  136.9380 C   0  0  0  0  0  0  0  0  0  0  0  0
  188.3310  175.7250  137.9980 N   0  0  0  0  0  2  0  0  0  0  0  0
  187.7510  176.8630  136.0420 O   0  0  0  0  0  0  0  0  0  0  0  0
  186.0790  175.3970  136.9180 C   0  0  0  0  0  2  0  0  0  0  0  0
  185.0350  173.3170  136.3120 O   0  0  0  0  0  0  0  0  0  0  0  0
  185.0950  173.2820  137.7160 C   0  0  0  0  0  2  0  0  0  0  0  0
  186.1860  173.8750  136.9090 C   0  0  2  0  0  3  0  0  0  0  0  0
  190.6490  175.5800  138.5990 N   0  0  0  0  0  2  0  0  0  0  0  0
  191.6100  175.3820  137.5020 C   0  0  1  0  0  3  0  0  0  0  0  0
  192.7630  176.3650  137.6520 C   0  0  0  0  0  2  0  0  0  0  0  0
  194.0450  175.8100  137.0550 C   0  0  0  0  0  2  0  0  0  0  0  0
  194.3030  176.4730  135.7200 C   0  0  0  0  0  1  0  0  0  0  0  0
  192.1730  173.9540  137.4460 C   0  0  0  0  0  2  0  0  0  0  0  0
  191.6730  173.1940  136.2190 C   0  0  0  0  0  2  0  0  0  0  0  0
  193.4130  173.0660  134.5990 O   0  0  0  0  0  0  0  0  0  0  0  0
  193.0820  171.1560  135.8240 O   0  0  0  0  0  1  0  0  0  0  0  0
  192.7630  172.4700  135.4980 C   0  0  0  0  0  0  0  0  0  0  0  0
  1  9  1  0  0  0  0
  2 10  1  0  0  0  0
  3  2  1  0  0  0  0
  4 12  1  1  0  0  0
  4  7  1  0  0  0  0
  4  1  1  0  0  0  0
  5  9  2  0  0  0  0
  5  8  1  0  0  0  0
  6  2  2  0  0  0  0
  7 36  1  6  0  0  0
  7  5  1  0  0  0  0
  8  3  2  0  0  0  0
  9  6  1  0  0  0  0
 11  8  1  0  0  0  0
 13 15  1  0  0  0  0
 13 12  1  0  0  0  0
 14 16  1  0  0  0  0
 14 15  1  0  0  0  0
 15 30  1  6  0  0  0
 15 17  1  0  0  0  0
 16 20  1  1  0  0  0
 16 19  1  0  0  0  0
 17 18  2  0  0  0  0
 18 31  1  0  0  0  0
 19 18  1  0  0  0  0
 20 23  1  0  0  0  0
 21 23  2  0  0  0  0
 22 24  1  0  0  0  0
 22 20  2  0  0  0  0
 24 21  1  0  0  0  0
 25 24  1  0  0  0  0
 26 25  3  0  0  0  0
 27 28  2  0  0  0  0
 28 22  1  0  0  0  0
 29 30  1  0  0  0  0
 31 34  1  0  0  0  0
 31 32  1  6  0  0  0
 34 33  1  0  0  0  0
 35 34  2  0  0  0  0
 37 38  2  0  0  0  0
 38 36  1  0  0  0  0
 39 41  1  1  0  0  0
 39 47  1  0  0  0  0
 39 38  1  0  0  0  0
 40 41  1  0  0  0  0
 42 40  2  0  0  0  0
 43 40  1  0  0  0  0
 44 46  1  0  0  0  0
 44 45  1  0  0  0  0
 46 43  1  1  0  0  0
 46 45  1  0  0  0  0
 48 52  1  1  0  0  0
 48 49  1  0  0  0  0
 48 47  1  0  0  0  0
 50 49  1  0  0  0  0
 51 50  1  0  0  0  0
 53 52  1  0  0  0  0
 54 56  2  0  0  0  0
 56 55  1  0  0  0  0
 56 53  1  0  0  0  0
M  END
>  <MODEL>
5

>  <REMARK>
 VINA RESULT:      -6.2      3.303     10.344
  Name = 
  22 active torsions:
  status: ('A' for Active; 'I' for Inactive)
    1  A    between atoms: C_1  and  C_15
    2  A    between atoms: C_1  and  C_18
    3  A    between atoms: C_2  and  C_31
    4  A    between atoms: C_2  and  C_47
    5  A    between atoms: C_8  and  C_32
    6  A    between atoms: C_8  and  C_54
    7  A    between atoms: C_11  and  C_14
    8  A    between atoms: C_11  and  N_27
    9  A    between atoms: C_11  and  C_41
   10  A    between atoms: C_12  and  C_36
   11  A    between atoms: C_14  and  C_50
   12  A    between atoms: C_15  and  C_20
   13  A    between atoms: C_16  and  C_22
   14  A    between atoms: C_17  and  C_41
   15  A    between atoms: C_20  and  C_40
   16  A    between atoms: C_21  and  N_27
   17  A    between atoms: C_21  and  N_42
   18  A    between atoms: C_21  and  C_54
   19  A    between atoms: C_23  and  C_46
   20  A    between atoms: C_25  and  N_48
   21  A    between atoms: C_43  and  C_46
   22  A    between atoms: C_50  and  C_52
                            x       y       z     vdW  Elec       q    Type
                         _______ _______ _______ _____ _____    ______ ____

>  <TORSDO>
F 22

$$$$
=
 OpenBabel11062416563D

 56 60  0  0  1  0  0  0  0  0999 V2000
  190.8950  175.4810  139.1560 O   0  0  0  0  0  0  0  0  0  0  0  0
  192.0620  175.3080  135.6450 C   0  0  0  0  0  0  0  0  0  0  0  0
  191.1950  176.2840  135.1160 C   0  0  0  0  0  3  0  0  0  0  0  0
  189.9370  176.4250  139.6360 C   0  0  2  0  0  3  0  0  0  0  0  0
  190.1630  176.5110  137.2830 C   0  0  0  0  0  0  0  0  0  0  0  0
  192.0050  174.9750  137.0070 C   0  0  0  0  0  3  0  0  0  0  0  0
  189.2690  177.0210  138.3760 C   0  0  1  0  0  3  0  0  0  0  0  0
  190.2450  176.9060  135.9430 C   0  0  0  0  0  0  0  0  0  0  0  0
  191.0480  175.6090  137.7970 C   0  0  0  0  0  0  0  0  0  0  0  0
  192.9780  174.7180  134.8420 F   0  0  0  0  0  0  0  0  0  0  0  0
  189.4190  177.8960  135.4280 O   0  0  0  0  0  1  0  0  0  0  0  0
  190.6630  177.5120  140.4210 C   0  0  0  0  0  2  0  0  0  0  0  0
  190.9250  177.1160  141.8810 C   0  0  0  0  0  2  0  0  0  0  0  0
  188.5780  177.7670  142.5610 C   0  0  0  0  0  2  0  0  0  0  0  0
  190.0650  177.8310  142.9440 C   0  0  1  0  0  0  0  0  0  0  0  0
  187.7450  178.3390  143.7040 C   0  0  2  0  0  3  0  0  0  0  0  0
  190.2570  177.1400  144.2710 C   0  0  0  0  0  3  0  0  0  0  0  0
  189.2980  177.1310  145.2110 C   0  0  0  0  0  0  0  0  0  0  0  0
  188.0270  177.6610  144.9270 O   0  0  0  0  0  0  0  0  0  0  0  0
  186.2840  178.3470  143.3860 C   0  0  0  0  0  0  0  0  0  0  0  0
  184.4300  178.3020  142.1700 N   0  0  0  0  0  0  0  0  0  0  0  0
  185.1780  178.4380  144.2250 C   0  0  0  0  0  0  0  0  0  0  0  0
  185.7750  178.2490  142.1000 C   0  0  0  0  0  3  0  0  0  0  0  0
  184.0840  178.4210  143.4430 N   0  0  0  0  0  0  0  0  0  0  0  0
  182.7510  178.5470  143.8650 C   0  0  0  0  0  0  0  0  0  0  0  0
  181.6060  178.6500  144.2380 C   0  0  0  0  0  3  0  0  0  0  0  0
  185.8490  179.3440  146.4260 C   0  0  0  0  0  2  0  0  0  0  0  0
  185.1170  178.5100  145.6980 C   0  0  0  0  0  3  0  0  0  0  0  0
  191.6570  179.5040  144.0470 C   0  0  0  0  0  1  0  0  0  0  0  0
  190.4970  179.3020  143.0810 C   0  0  0  0  0  2  0  0  0  0  0  0
  189.5370  176.4810  146.5490 C   0  0  1  0  0  3  0  0  0  0  0  0
  190.9060  176.3370  146.8050 O   0  0  0  0  0  1  0  0  0  0  0  0
  189.4040  178.3900  147.9960 O   0  0  0  0  0  0  0  0  0  0  0  0
  188.9130  177.2830  147.6490 C   0  0  0  0  0  0  0  0  0  0  0  0
  187.7760  176.8060  148.2890 O   0  0  0  0  0  1  0  0  0  0  0  0
  187.8660  176.4030  138.3180 C   0  0  0  0  0  2  0  0  0  0  0  0
  187.0050  178.4880  137.3960 C   0  0  0  0  0  2  0  0  0  0  0  0
  186.8710  177.1660  137.4960 C   0  0  0  0  0  0  0  0  0  0  0  0
  185.9350  176.4860  136.5370 C   0  0  2  0  0  3  0  0  0  0  0  0
  183.4520  176.2620  136.9640 C   0  0  0  0  0  0  0  0  0  0  0  0
  184.8060  175.9320  137.2700 N   0  0  0  0  0  2  0  0  0  0  0  0
  183.1680  176.8990  135.9140 O   0  0  0  0  0  0  0  0  0  0  0  0
  182.3730  175.8770  137.9230 C   0  0  0  0  0  2  0  0  0  0  0  0
  180.4760  175.0490  136.6990 O   0  0  0  0  0  0  0  0  0  0  0  0
  180.2510  174.6260  138.0200 C   0  0  0  0  0  2  0  0  0  0  0  0
  181.6110  174.6480  137.4360 C   0  0  2  0  0  3  0  0  0  0  0  0
  186.5790  175.4420  135.7300 N   0  0  0  0  0  2  0  0  0  0  0  0
  186.4050  174.0930  136.2900 C   0  0  1  0  0  3  0  0  0  0  0  0
  185.6500  173.2220  135.2960 C   0  0  0  0  0  2  0  0  0  0  0  0
  185.3500  171.8510  135.8770 C   0  0  0  0  0  2  0  0  0  0  0  0
  184.0940  171.9280  136.7180 C   0  0  0  0  0  1  0  0  0  0  0  0
  187.7360  173.4120  136.6430 C   0  0  0  0  0  2  0  0  0  0  0  0
  188.7460  173.5160  135.5030 C   0  0  0  0  0  2  0  0  0  0  0  0
  188.7610  171.1700  135.0940 O   0  0  0  0  0  1  0  0  0  0  0  0
  190.8220  172.1740  135.0700 O   0  0  0  0  0  0  0  0  0  0  0  0
  189.4400  172.2230  135.2200 C   0  0  0  0  0  0  0  0  0  0  0  0
  1  4  1  0  0  0  0
  2  6  1  0  0  0  0
  3  2  2  0  0  0  0
  3  8  1  0  0  0  0
  4 12  1  6  0  0  0
  5  9  1  0  0  0  0
  5  7  1  0  0  0  0
  6  9  2  0  0  0  0
  7 36  1  6  0  0  0
  7  4  1  0  0  0  0
  8  5  2  0  0  0  0
  9  1  1  0  0  0  0
 10  2  1  0  0  0  0
 11  8  1  0  0  0  0
 12 13  1  0  0  0  0
 14 15  1  0  0  0  0
 14 16  1  0  0  0  0
 15 13  1  6  0  0  0
 15 30  1  0  0  0  0
 15 17  1  0  0  0  0
 16 20  1  6  0  0  0
 16 19  1  0  0  0  0
 17 18  2  0  0  0  0
 18 31  1  0  0  0  0
 19 18  1  0  0  0  0
 20 22  2  0  0  0  0
 21 24  1  0  0  0  0
 22 28  1  0  0  0  0
 23 21  2  0  0  0  0
 23 20  1  0  0  0  0
 24 25  1  0  0  0  0
 24 22  1  0  0  0  0
 25 26  3  0  0  0  0
 28 27  2  0  0  0  0
 30 29  1  0  0  0  0
 31 32  1  1  0  0  0
 31 34  1  0  0  0  0
 34 33  2  0  0  0  0
 34 35  1  0  0  0  0
 37 38  2  0  0  0  0
 38 36  1  0  0  0  0
 39 47  1  1  0  0  0
 39 41  1  0  0  0  0
 39 38  1  0  0  0  0
 40 41  1  0  0  0  0
 40 43  1  0  0  0  0
 42 40  2  0  0  0  0
 44 46  1  0  0  0  0
 44 45  1  0  0  0  0
 46 43  1  1  0  0  0
 46 45  1  0  0  0  0
 47 48  1  0  0  0  0
 48 49  1  6  0  0  0
 48 52  1  0  0  0  0
 49 50  1  0  0  0  0
 50 51  1  0  0  0  0
 53 52  1  0  0  0  0
 54 56  1  0  0  0  0
 55 56  2  0  0  0  0
 56 53  1  0  0  0  0
M  END
>  <MODEL>
6

>  <REMARK>
 VINA RESULT:      -6.2      3.457      9.909
  Name = 
  22 active torsions:
  status: ('A' for Active; 'I' for Inactive)
    1  A    between atoms: C_1  and  C_15
    2  A    between atoms: C_1  and  C_18
    3  A    between atoms: C_2  and  C_31
    4  A    between atoms: C_2  and  C_47
    5  A    between atoms: C_8  and  C_32
    6  A    between atoms: C_8  and  C_54
    7  A    between atoms: C_11  and  C_14
    8  A    between atoms: C_11  and  N_27
    9  A    between atoms: C_11  and  C_41
   10  A    between atoms: C_12  and  C_36
   11  A    between atoms: C_14  and  C_50
   12  A    between atoms: C_15  and  C_20
   13  A    between atoms: C_16  and  C_22
   14  A    between atoms: C_17  and  C_41
   15  A    between atoms: C_20  and  C_40
   16  A    between atoms: C_21  and  N_27
   17  A    between atoms: C_21  and  N_42
   18  A    between atoms: C_21  and  C_54
   19  A    between atoms: C_23  and  C_46
   20  A    between atoms: C_25  and  N_48
   21  A    between atoms: C_43  and  C_46
   22  A    between atoms: C_50  and  C_52
                            x       y       z     vdW  Elec       q    Type
                         _______ _______ _______ _____ _____    ______ ____

>  <TORSDO>
F 22

$$$$
=
 OpenBabel11062416563D

 56 60  0  0  1  0  0  0  0  0999 V2000
  186.7070  176.9570  142.8390 O   0  0  0  0  0  0  0  0  0  0  0  0
  188.7730  177.3090  145.8940 C   0  0  0  0  0  0  0  0  0  0  0  0
  189.8050  178.0820  145.3280 C   0  0  0  0  0  3  0  0  0  0  0  0
  186.9920  177.6070  141.6010 C   0  0  2  0  0  3  0  0  0  0  0  0
  188.7300  177.9050  143.1770 C   0  0  0  0  0  0  0  0  0  0  0  0
  187.6950  176.8800  145.1030 C   0  0  0  0  0  3  0  0  0  0  0  0
  188.4490  178.1090  141.7170 C   0  0  1  0  0  3  0  0  0  0  0  0
  189.7800  178.3980  143.9600 C   0  0  0  0  0  0  0  0  0  0  0  0
  187.7050  177.2100  143.7490 C   0  0  0  0  0  0  0  0  0  0  0  0
  188.8030  177.0130  147.2150 F   0  0  0  0  0  0  0  0  0  0  0  0
  190.7790  179.1930  143.4120 O   0  0  0  0  0  1  0  0  0  0  0  0
  186.0350  178.7810  141.4260 C   0  0  0  0  0  2  0  0  0  0  0  0
  185.2700  178.7310  140.0950 C   0  0  0  0  0  2  0  0  0  0  0  0
  183.1680  177.3550  139.8140 C   0  0  0  0  0  2  0  0  0  0  0  0
  183.7310  178.7320  140.1950 C   0  0  1  0  0  0  0  0  0  0  0  0
  181.6650  177.3410  140.0760 C   0  0  2  0  0  3  0  0  0  0  0  0
  183.3350  179.0440  141.6170 C   0  0  0  0  0  3  0  0  0  0  0  0
  182.1890  178.5910  142.1500 C   0  0  0  0  0  0  0  0  0  0  0  0
  181.3810  177.6950  141.4270 O   0  0  0  0  0  0  0  0  0  0  0  0
  181.0380  176.0390  139.6880 C   0  0  0  0  0  0  0  0  0  0  0  0
  179.7500  174.2400  139.8280 N   0  0  0  0  0  0  0  0  0  0  0  0
  181.2290  175.2450  138.5620 C   0  0  0  0  0  0  0  0  0  0  0  0
  180.0900  175.3820  140.4570 C   0  0  0  0  0  3  0  0  0  0  0  0
  180.4400  174.1650  138.7000 N   0  0  0  0  0  0  0  0  0  0  0  0
  180.3550  173.0720  137.8220 C   0  0  0  0  0  0  0  0  0  0  0  0
  180.2700  172.1340  137.0660 C   0  0  0  0  0  3  0  0  0  0  0  0
  183.2580  174.8900  137.1940 C   0  0  0  0  0  2  0  0  0  0  0  0
  182.0830  175.4770  137.3810 C   0  0  0  0  0  3  0  0  0  0  0  0
  182.7490  179.2690  137.8930 C   0  0  0  0  0  1  0  0  0  0  0  0
  183.1350  179.8050  139.2660 C   0  0  0  0  0  2  0  0  0  0  0  0
  181.7920  178.9640  143.5540 C   0  0  1  0  0  3  0  0  0  0  0  0
  182.5740  180.0180  144.0400 O   0  0  0  0  0  1  0  0  0  0  0  0
  179.9690  180.4790  143.1850 O   0  0  0  0  0  0  0  0  0  0  0  0
  180.3480  179.3560  143.6130 C   0  0  0  0  0  0  0  0  0  0  0  0
  179.4140  178.4710  144.1370 O   0  0  0  0  0  1  0  0  0  0  0  0
  189.2820  177.1770  140.8270 C   0  0  0  0  0  2  0  0  0  0  0  0
  189.1710  178.8160  139.0270 C   0  0  0  0  0  2  0  0  0  0  0  0
  189.2940  177.5350  139.3710 C   0  0  0  0  0  0  0  0  0  0  0  0
  189.7510  176.5700  138.3130 C   0  0  2  0  0  3  0  0  0  0  0  0
  192.0940  175.6730  137.9940 C   0  0  0  0  0  0  0  0  0  0  0  0
  191.1730  176.7600  138.0640 N   0  0  0  0  0  2  0  0  0  0  0  0
  191.6810  174.4830  137.9480 O   0  0  0  0  0  0  0  0  0  0  0  0
  193.5600  175.9570  138.0120 C   0  0  0  0  0  2  0  0  0  0  0  0
  195.7290  175.1240  137.3950 O   0  0  0  0  0  0  0  0  0  0  0  0
  195.0240  175.1930  136.1810 C   0  0  0  0  0  2  0  0  0  0  0  0
  194.3590  174.7890  137.4410 C   0  0  2  0  0  3  0  0  0  0  0  0
  188.9970  176.6760  137.0570 N   0  0  0  0  0  2  0  0  0  0  0  0
  187.9280  175.6720  136.9420 C   0  0  1  0  0  3  0  0  0  0  0  0
  188.3920  174.3610  137.5620 C   0  0  0  0  0  2  0  0  0  0  0  0
  187.6930  173.1710  136.9280 C   0  0  0  0  0  2  0  0  0  0  0  0
  187.6270  173.3700  135.4290 C   0  0  0  0  0  1  0  0  0  0  0  0
  186.6180  176.1080  137.6130 C   0  0  0  0  0  2  0  0  0  0  0  0
  186.0460  177.3730  136.9760 C   0  0  0  0  0  2  0  0  0  0  0  0
  186.4870  178.2870  134.8210 O   0  0  0  0  0  1  0  0  0  0  0  0
  185.5410  176.1980  134.8180 O   0  0  0  0  0  0  0  0  0  0  0  0
  186.0300  177.3170  135.4820 C   0  0  0  0  0  0  0  0  0  0  0  0
  1  9  1  0  0  0  0
  2 10  1  0  0  0  0
  3  2  1  0  0  0  0
  4 12  1  1  0  0  0
  4  7  1  0  0  0  0
  4  1  1  0  0  0  0
  5  9  2  0  0  0  0
  5  8  1  0  0  0  0
  6  2  2  0  0  0  0
  7 36  1  6  0  0  0
  7  5  1  0  0  0  0
  8  3  2  0  0  0  0
  9  6  1  0  0  0  0
 11  8  1  0  0  0  0
 13 15  1  0  0  0  0
 13 12  1  0  0  0  0
 14 16  1  0  0  0  0
 14 15  1  0  0  0  0
 15 30  1  6  0  0  0
 15 17  1  0  0  0  0
 16 20  1  1  0  0  0
 16 19  1  0  0  0  0
 17 18  2  0  0  0  0
 18 31  1  0  0  0  0
 19 18  1  0  0  0  0
 20 23  1  0  0  0  0
 21 23  2  0  0  0  0
 22 24  1  0  0  0  0
 22 20  2  0  0  0  0
 24 21  1  0  0  0  0
 25 24  1  0  0  0  0
 26 25  3  0  0  0  0
 27 28  2  0  0  0  0
 28 22  1  0  0  0  0
 29 30  1  0  0  0  0
 31 34  1  0  0  0  0
 31 32  1  6  0  0  0
 33 34  2  0  0  0  0
 34 35  1  0  0  0  0
 37 38  2  0  0  0  0
 38 36  1  0  0  0  0
 39 47  1  6  0  0  0
 39 38  1  0  0  0  0
 40 43  1  0  0  0  0
 40 41  1  0  0  0  0
 41 39  1  0  0  0  0
 42 40  2  0  0  0  0
 44 46  1  0  0  0  0
 45 44  1  0  0  0  0
 45 46  1  0  0  0  0
 46 43  1  1  0  0  0
 48 47  1  0  0  0  0
 48 49  1  1  0  0  0
 48 52  1  0  0  0  0
 50 49  1  0  0  0  0
 51 50  1  0  0  0  0
 53 52  1  0  0  0  0
 54 56  1  0  0  0  0
 55 56  2  0  0  0  0
 56 53  1  0  0  0  0
M  END
>  <MODEL>
7

>  <REMARK>
 VINA RESULT:      -6.1      3.414     10.421
  Name = 
  22 active torsions:
  status: ('A' for Active; 'I' for Inactive)
    1  A    between atoms: C_1  and  C_15
    2  A    between atoms: C_1  and  C_18
    3  A    between atoms: C_2  and  C_31
    4  A    between atoms: C_2  and  C_47
    5  A    between atoms: C_8  and  C_32
    6  A    between atoms: C_8  and  C_54
    7  A    between atoms: C_11  and  C_14
    8  A    between atoms: C_11  and  N_27
    9  A    between atoms: C_11  and  C_41
   10  A    between atoms: C_12  and  C_36
   11  A    between atoms: C_14  and  C_50
   12  A    between atoms: C_15  and  C_20
   13  A    between atoms: C_16  and  C_22
   14  A    between atoms: C_17  and  C_41
   15  A    between atoms: C_20  and  C_40
   16  A    between atoms: C_21  and  N_27
   17  A    between atoms: C_21  and  N_42
   18  A    between atoms: C_21  and  C_54
   19  A    between atoms: C_23  and  C_46
   20  A    between atoms: C_25  and  N_48
   21  A    between atoms: C_43  and  C_46
   22  A    between atoms: C_50  and  C_52
                            x       y       z     vdW  Elec       q    Type
                         _______ _______ _______ _____ _____    ______ ____

>  <TORSDO>
F 22

$$$$
=
 OpenBabel11062416563D

 56 60  0  0  1  0  0  0  0  0999 V2000
  190.1160  175.5170  139.3180 O   0  0  0  0  0  0  0  0  0  0  0  0
  191.9830  175.6090  136.1200 C   0  0  0  0  0  0  0  0  0  0  0  0
  191.2410  176.6360  135.5050 C   0  0  0  0  0  3  0  0  0  0  0  0
  189.0770  176.4330  139.6660 C   0  0  2  0  0  3  0  0  0  0  0  0
  189.7830  176.7040  137.4240 C   0  0  0  0  0  0  0  0  0  0  0  0
  191.6480  175.1690  137.4110 C   0  0  0  0  0  3  0  0  0  0  0  0
  188.6820  177.1370  138.3470 C   0  0  1  0  0  3  0  0  0  0  0  0
  190.1390  177.2020  136.1660 C   0  0  0  0  0  0  0  0  0  0  0  0
  190.5460  175.7520  138.0350 C   0  0  0  0  0  0  0  0  0  0  0  0
  193.0470  175.0730  135.4780 F   0  0  0  0  0  0  0  0  0  0  0  0
  189.4330  178.2420  135.5740 O   0  0  0  0  0  1  0  0  0  0  0  0
  189.6220  177.4440  140.6680 C   0  0  0  0  0  2  0  0  0  0  0  0
  189.8080  176.8490  142.0710 C   0  0  0  0  0  2  0  0  0  0  0  0
  187.7900  177.7960  143.2640 C   0  0  0  0  0  2  0  0  0  0  0  0
  189.3250  177.7190  143.2490 C   0  0  1  0  0  0  0  0  0  0  0  0
  187.3400  178.5270  144.5250 C   0  0  2  0  0  3  0  0  0  0  0  0
  189.7940  177.0970  144.5410 C   0  0  0  0  0  3  0  0  0  0  0  0
  189.1190  177.2530  145.6900 C   0  0  0  0  0  0  0  0  0  0  0  0
  187.8700  177.9010  145.6920 O   0  0  0  0  0  0  0  0  0  0  0  0
  185.8530  178.6760  144.5890 C   0  0  0  0  0  0  0  0  0  0  0  0
  183.8420  179.0020  145.4640 N   0  0  0  0  0  0  0  0  0  0  0  0
  184.8940  178.5950  143.5850 C   0  0  0  0  0  0  0  0  0  0  0  0
  185.1560  178.9470  145.7560 C   0  0  0  0  0  3  0  0  0  0  0  0
  183.6950  178.7840  144.1650 N   0  0  0  0  0  0  0  0  0  0  0  0
  182.4420  178.7310  143.5350 C   0  0  0  0  0  0  0  0  0  0  0  0
  181.3690  178.6780  142.9840 C   0  0  0  0  0  3  0  0  0  0  0  0
  185.2280  179.3620  141.2580 C   0  0  0  0  0  2  0  0  0  0  0  0
  185.0650  178.3790  142.1350 C   0  0  0  0  0  3  0  0  0  0  0  0
  191.1790  179.3360  143.9550 C   0  0  0  0  0  1  0  0  0  0  0  0
  189.9080  179.1390  143.1390 C   0  0  0  0  0  2  0  0  0  0  0  0
  189.6400  176.6670  146.9760 C   0  0  1  0  0  3  0  0  0  0  0  0
  191.0390  176.6800  147.0090 O   0  0  0  0  0  1  0  0  0  0  0  0
  189.8040  178.3250  148.7020 O   0  0  0  0  0  1  0  0  0  0  0  0
  189.1140  177.4220  148.1570 C   0  0  0  0  0  0  0  0  0  0  0  0
  187.8480  177.1330  148.6530 O   0  0  0  0  0  0  0  0  0  0  0  0
  187.3230  176.5440  137.9520 C   0  0  0  0  0  2  0  0  0  0  0  0
  186.5250  178.8360  137.7250 C   0  0  0  0  0  2  0  0  0  0  0  0
  186.2130  177.5430  137.8090 C   0  0  0  0  0  0  0  0  0  0  0  0
  184.8140  177.1380  137.4390 C   0  0  2  0  0  3  0  0  0  0  0  0
  182.6610  178.3330  138.0160 C   0  0  0  0  0  0  0  0  0  0  0  0
  183.8760  177.6960  138.4040 N   0  0  0  0  0  2  0  0  0  0  0  0
  182.2510  178.2660  136.8250 O   0  0  0  0  0  0  0  0  0  0  0  0
  181.8920  179.1160  139.0300 C   0  0  0  0  0  2  0  0  0  0  0  0
  181.4450  181.1820  137.8850 O   0  0  0  0  0  0  0  0  0  0  0  0
  180.7290  181.2890  139.0900 C   0  0  0  0  0  2  0  0  0  0  0  0
  180.8410  180.0020  138.3670 C   0  0  2  0  0  3  0  0  0  0  0  0
  184.6320  175.6850  137.3350 N   0  0  0  0  0  2  0  0  0  0  0  0
  184.2210  175.2520  135.9890 C   0  0  1  0  0  3  0  0  0  0  0  0
  185.0380  174.0370  135.5750 C   0  0  0  0  0  2  0  0  0  0  0  0
  185.9380  173.5640  136.7030 C   0  0  0  0  0  2  0  0  0  0  0  0
  185.1690  172.6100  137.5900 C   0  0  0  0  0  1  0  0  0  0  0  0
  182.7270  174.9070  135.8990 C   0  0  0  0  0  2  0  0  0  0  0  0
  182.1230  174.6360  137.2750 C   0  0  0  0  0  2  0  0  0  0  0  0
  180.2620  173.3220  137.9700 O   0  0  0  0  0  1  0  0  0  0  0  0
  181.7950  172.2250  136.6640 O   0  0  0  0  0  0  0  0  0  0  0  0
  181.3460  173.3610  137.3300 C   0  0  0  0  0  0  0  0  0  0  0  0
  1  4  1  0  0  0  0
  2  6  1  0  0  0  0
  3  2  2  0  0  0  0
  3  8  1  0  0  0  0
  4 12  1  1  0  0  0
  5  9  1  0  0  0  0
  5  7  1  0  0  0  0
  6  9  2  0  0  0  0
  7 36  1  6  0  0  0
  7  4  1  0  0  0  0
  8  5  2  0  0  0  0
  9  1  1  0  0  0  0
 10  2  1  0  0  0  0
 11  8  1  0  0  0  0
 12 13  1  0  0  0  0
 14 16  1  0  0  0  0
 15 13  1  6  0  0  0
 15 14  1  0  0  0  0
 15 17  1  0  0  0  0
 16 20  1  1  0  0  0
 16 19  1  0  0  0  0
 17 18  2  0  0  0  0
 18 19  1  0  0  0  0
 18 31  1  0  0  0  0
 20 23  1  0  0  0  0
 21 23  2  0  0  0  0
 22 24  1  0  0  0  0
 22 20  2  0  0  0  0
 24 21  1  0  0  0  0
 25 24  1  0  0  0  0
 26 25  3  0  0  0  0
 27 28  2  0  0  0  0
 28 22  1  0  0  0  0
 30 15  1  0  0  0  0
 30 29  1  0  0  0  0
 31 32  1  6  0  0  0
 31 34  1  0  0  0  0
 34 35  2  0  0  0  0
 34 33  1  0  0  0  0
 37 38  2  0  0  0  0
 38 36  1  0  0  0  0
 39 47  1  1  0  0  0
 39 38  1  0  0  0  0
 39 41  1  0  0  0  0
 40 41  1  0  0  0  0
 40 43  1  0  0  0  0
 42 40  2  0  0  0  0
 44 46  1  0  0  0  0
 44 45  1  0  0  0  0
 46 43  1  1  0  0  0
 46 45  1  0  0  0  0
 48 49  1  1  0  0  0
 48 47  1  0  0  0  0
 49 50  1  0  0  0  0
 50 51  1  0  0  0  0
 52 48  1  0  0  0  0
 52 53  1  0  0  0  0
 53 56  1  0  0  0  0
 55 56  2  0  0  0  0
 56 54  1  0  0  0  0
M  END
>  <MODEL>
8

>  <REMARK>
 VINA RESULT:      -6.1      3.690      9.604
  Name = 
  22 active torsions:
  status: ('A' for Active; 'I' for Inactive)
    1  A    between atoms: C_1  and  C_15
    2  A    between atoms: C_1  and  C_18
    3  A    between atoms: C_2  and  C_31
    4  A    between atoms: C_2  and  C_47
    5  A    between atoms: C_8  and  C_32
    6  A    between atoms: C_8  and  C_54
    7  A    between atoms: C_11  and  C_14
    8  A    between atoms: C_11  and  N_27
    9  A    between atoms: C_11  and  C_41
   10  A    between atoms: C_12  and  C_36
   11  A    between atoms: C_14  and  C_50
   12  A    between atoms: C_15  and  C_20
   13  A    between atoms: C_16  and  C_22
   14  A    between atoms: C_17  and  C_41
   15  A    between atoms: C_20  and  C_40
   16  A    between atoms: C_21  and  N_27
   17  A    between atoms: C_21  and  N_42
   18  A    between atoms: C_21  and  C_54
   19  A    between atoms: C_23  and  C_46
   20  A    between atoms: C_25  and  N_48
   21  A    between atoms: C_43  and  C_46
   22  A    between atoms: C_50  and  C_52
                            x       y       z     vdW  Elec       q    Type
                         _______ _______ _______ _____ _____    ______ ____

>  <TORSDO>
F 22

$$$$
=
 OpenBabel11062416563D

 56 60  0  0  1  0  0  0  0  0999 V2000
  184.4800  177.6950  141.4900 O   0  0  0  0  0  0  0  0  0  0  0  0
  181.8410  179.0150  143.7300 C   0  0  0  0  0  0  0  0  0  0  0  0
  182.6890  179.5110  144.7390 C   0  0  0  0  0  3  0  0  0  0  0  0
  185.8790  177.8670  141.7130 C   0  0  2  0  0  3  0  0  0  0  0  0
  184.5900  178.6370  143.5410 C   0  0  0  0  0  0  0  0  0  0  0  0
  182.3810  178.3750  142.6030 C   0  0  0  0  0  3  0  0  0  0  0  0
  186.0150  178.3320  143.1810 C   0  0  1  0  0  3  0  0  0  0  0  0
  184.0790  179.3350  144.6410 C   0  0  0  0  0  0  0  0  0  0  0  0
  183.7640  178.2150  142.5410 C   0  0  0  0  0  0  0  0  0  0  0  0
  180.5030  179.1940  143.8300 F   0  0  0  0  0  0  0  0  0  0  0  0
  184.9160  179.8590  145.6170 O   0  0  0  0  0  1  0  0  0  0  0  0
  186.4040  178.9390  140.7640 C   0  0  0  0  0  2  0  0  0  0  0  0
  186.7900  178.3760  139.3880 C   0  0  0  0  0  2  0  0  0  0  0  0
  185.0580  176.8520  138.3520 C   0  0  0  0  0  2  0  0  0  0  0  0
  185.6510  178.2690  138.3530 C   0  0  1  0  0  0  0  0  0  0  0  0
  183.8360  176.8240  137.4390 C   0  0  2  0  0  3  0  0  0  0  0  0
  184.5660  179.2520  138.7180 C   0  0  0  0  0  3  0  0  0  0  0  0
  183.2790  179.0390  138.4010 C   0  0  0  0  0  0  0  0  0  0  0  0
  182.8880  177.8160  137.8260 O   0  0  0  0  0  0  0  0  0  0  0  0
  183.2260  175.4610  137.3570 C   0  0  0  0  0  0  0  0  0  0  0  0
  181.7250  173.8470  137.5990 N   0  0  0  0  0  0  0  0  0  0  0  0
  183.7380  174.2730  136.8450 C   0  0  0  0  0  0  0  0  0  0  0  0
  181.9520  175.1580  137.8110 C   0  0  0  0  0  3  0  0  0  0  0  0
  182.8000  173.3260  137.0270 N   0  0  0  0  0  0  0  0  0  0  0  0
  182.9130  171.9630  136.7090 C   0  0  0  0  0  0  0  0  0  0  0  0
  183.0000  170.7910  136.4300 C   0  0  0  0  0  3  0  0  0  0  0  0
  186.1360  173.6700  136.8340 C   0  0  0  0  0  2  0  0  0  0  0  0
  185.0320  174.0120  136.1840 C   0  0  0  0  0  3  0  0  0  0  0  0
  187.0540  177.5150  136.3490 C   0  0  0  0  0  1  0  0  0  0  0  0
  186.1740  178.6070  136.9450 C   0  0  0  0  0  2  0  0  0  0  0  0
  182.2250  180.0630  138.7290 C   0  0  1  0  0  3  0  0  0  0  0  0
  182.7480  181.3600  138.6910 O   0  0  0  0  0  1  0  0  0  0  0  0
  181.1390  180.5050  136.6360 O   0  0  0  0  0  0  0  0  0  0  0  0
  181.0750  179.9680  137.7750 C   0  0  0  0  0  0  0  0  0  0  0  0
  179.9290  179.2750  138.1430 O   0  0  0  0  0  1  0  0  0  0  0  0
  186.5650  177.1230  143.9490 C   0  0  0  0  0  2  0  0  0  0  0  0
  188.3140  175.6240  143.1520 C   0  0  0  0  0  2  0  0  0  0  0  0
  188.0070  176.8060  143.6840 C   0  0  0  0  0  0  0  0  0  0  0  0
  189.0730  177.8650  143.6920 C   0  0  2  0  0  3  0  0  0  0  0  0
  190.2270  177.8420  141.4410 C   0  0  0  0  0  0  0  0  0  0  0  0
  190.1640  177.4630  142.8150 N   0  0  0  0  0  2  0  0  0  0  0  0
  189.4380  178.7100  140.9770 O   0  0  0  0  0  0  0  0  0  0  0  0
  191.2170  177.1730  140.5450 C   0  0  0  0  0  2  0  0  0  0  0  0
  190.9600  175.4820  138.8560 O   0  0  0  0  0  0  0  0  0  0  0  0
  191.6440  176.5230  138.2050 C   0  0  0  0  0  2  0  0  0  0  0  0
  190.5880  176.7970  139.2060 C   0  0  2  0  0  3  0  0  0  0  0  0
  189.5870  178.1710  145.0330 N   0  0  0  0  0  2  0  0  0  0  0  0
  190.0150  176.9730  145.7720 C   0  0  1  0  0  3  0  0  0  0  0  0
  191.5140  177.0440  146.0320 C   0  0  0  0  0  2  0  0  0  0  0  0
  192.0860  175.6730  146.3460 C   0  0  0  0  0  2  0  0  0  0  0  0
  192.5640  175.6460  147.7820 C   0  0  0  0  0  1  0  0  0  0  0  0
  189.2820  176.7970  147.1100 C   0  0  0  0  0  2  0  0  0  0  0  0
  188.7910  178.1310  147.6680 C   0  0  0  0  0  2  0  0  0  0  0  0
  186.7620  179.2980  148.1080 O   0  0  0  0  0  1  0  0  0  0  0  0
  186.5150  177.2900  147.0290 O   0  0  0  0  0  0  0  0  0  0  0  0
  187.3030  178.2700  147.6220 C   0  0  0  0  0  0  0  0  0  0  0  0
  1  4  1  0  0  0  0
  1  9  1  0  0  0  0
  2 10  1  0  0  0  0
  2  3  1  0  0  0  0
  4 12  1  6  0  0  0
  4  7  1  0  0  0  0
  5  8  1  0  0  0  0
  6  2  2  0  0  0  0
  7  5  1  0  0  0  0
  7 36  1  1  0  0  0
  8  3  2  0  0  0  0
  8 11  1  0  0  0  0
  9  6  1  0  0  0  0
  9  5  2  0  0  0  0
 13 12  1  0  0  0  0
 14 15  1  0  0  0  0
 15 30  1  6  0  0  0
 15 17  1  0  0  0  0
 15 13  1  0  0  0  0
 16 20  1  1  0  0  0
 16 19  1  0  0  0  0
 16 14  1  0  0  0  0
 18 17  2  0  0  0  0
 18 31  1  0  0  0  0
 19 18  1  0  0  0  0
 20 23  1  0  0  0  0
 21 23  2  0  0  0  0
 22 24  1  0  0  0  0
 22 20  2  0  0  0  0
 24 21  1  0  0  0  0
 25 24  1  0  0  0  0
 26 25  3  0  0  0  0
 28 27  2  0  0  0  0
 28 22  1  0  0  0  0
 29 30  1  0  0  0  0
 31 32  1  6  0  0  0
 33 34  2  0  0  0  0
 34 35  1  0  0  0  0
 34 31  1  0  0  0  0
 37 38  2  0  0  0  0
 38 39  1  0  0  0  0
 38 36  1  0  0  0  0
 39 41  1  6  0  0  0
 39 47  1  0  0  0  0
 40 41  1  0  0  0  0
 42 40  2  0  0  0  0
 43 40  1  0  0  0  0
 44 46  1  0  0  0  0
 45 44  1  0  0  0  0
 45 46  1  0  0  0  0
 46 43  1  1  0  0  0
 47 48  1  0  0  0  0
 48 49  1  1  0  0  0
 48 52  1  0  0  0  0
 49 50  1  0  0  0  0
 50 51  1  0  0  0  0
 52 53  1  0  0  0  0
 55 56  2  0  0  0  0
 56 53  1  0  0  0  0
 56 54  1  0  0  0  0
M  END
>  <MODEL>
9

>  <REMARK>
 VINA RESULT:      -6.1      3.762      8.733
  Name = 
  22 active torsions:
  status: ('A' for Active; 'I' for Inactive)
    1  A    between atoms: C_1  and  C_15
    2  A    between atoms: C_1  and  C_18
    3  A    between atoms: C_2  and  C_31
    4  A    between atoms: C_2  and  C_47
    5  A    between atoms: C_8  and  C_32
    6  A    between atoms: C_8  and  C_54
    7  A    between atoms: C_11  and  C_14
    8  A    between atoms: C_11  and  N_27
    9  A    between atoms: C_11  and  C_41
   10  A    between atoms: C_12  and  C_36
   11  A    between atoms: C_14  and  C_50
   12  A    between atoms: C_15  and  C_20
   13  A    between atoms: C_16  and  C_22
   14  A    between atoms: C_17  and  C_41
   15  A    between atoms: C_20  and  C_40
   16  A    between atoms: C_21  and  N_27
   17  A    between atoms: C_21  and  N_42
   18  A    between atoms: C_21  and  C_54
   19  A    between atoms: C_23  and  C_46
   20  A    between atoms: C_25  and  N_48
   21  A    between atoms: C_43  and  C_46
   22  A    between atoms: C_50  and  C_52
                            x       y       z     vdW  Elec       q    Type
                         _______ _______ _______ _____ _____    ______ ____

>  <TORSDO>
F 22

$$$$
