=
 OpenBabel11062417063D

 69 76  0  0  1  0  0  0  0  0999 V2000
  180.4490  178.5850  139.6450 C   0  0  0  0  0  3  0  0  0  0  0  0
  181.4170  177.7830  140.2510 C   0  0  0  0  0  0  0  0  0  0  0  0
  180.2080  179.8520  141.7010 C   0  0  0  0  0  3  0  0  0  0  0  0
  181.1810  179.0360  142.3070 C   0  0  0  0  0  0  0  0  0  0  0  0
  179.8540  179.6590  140.3590 C   0  0  0  0  0  0  0  0  0  0  0  0
  181.7720  177.9980  141.5720 C   0  0  0  0  0  3  0  0  0  0  0  0
  181.4980  179.1790  143.7490 C   0  0  0  0  0  2  0  0  0  0  0  0
  182.7450  178.3640  144.1080 C   0  0  0  0  0  2  0  0  0  0  0  0
  184.0140  179.0700  143.6490 C   0  0  0  0  0  2  0  0  0  0  0  0
  184.7780  178.2080  142.6140 C   0  0  0  0  0  2  0  0  0  0  0  0
  186.2140  178.6520  142.3660 C   0  0  0  0  0  0  0  0  0  0  0  0
  186.4780  179.7870  142.0000 O   0  0  0  0  0  0  0  0  0  0  0  0
  187.3560  177.7570  142.7980 C   0  0  0  0  0  2  0  0  0  0  0  0
  190.4020  176.7510  140.7170 C   0  0  0  0  0  3  0  0  0  0  0  0
  188.6790  177.4720  139.2090 C   0  0  0  0  0  3  0  0  0  0  0  0
  189.9440  176.9460  139.4180 C   0  0  0  0  0  3  0  0  0  0  0  0
  187.8520  177.7850  140.3030 C   0  0  0  0  0  0  0  0  0  0  0  0
  186.6880  178.4460  140.0900 F   0  0  0  0  0  0  0  0  0  0  0  0
  189.5900  177.0500  141.8240 C   0  0  0  0  0  0  0  0  0  0  0  0
  188.2720  177.5080  141.6150 C   0  0  0  0  0  0  0  0  0  0  0  0
  191.3820  177.5240  143.6190 C   0  0  0  0  0  0  0  0  0  0  0  0
  190.1170  177.0200  143.1550 N   0  0  0  0  0  2  0  0  0  0  0  0
  192.3040  177.8730  142.8230 O   0  0  0  0  0  0  0  0  0  0  0  0
  191.5740  177.6780  145.0760 C   0  0  0  0  0  2  0  0  0  0  0  0
  190.2300  177.9110  145.7370 C   0  0  0  0  0  2  0  0  0  0  0  0
  191.1300  176.1660  147.2110 N   0  0  0  0  0  1  0  0  0  0  0  0
  190.1390  177.2370  147.0950 C   0  0  2  0  0  3  0  0  0  0  0  0
  188.7290  176.7060  147.3640 C   0  0  0  0  0  2  0  0  0  0  0  0
  187.7260  177.8280  147.4330 C   0  0  0  0  0  0  0  0  0  0  0  0
  185.5290  178.8040  146.6940 C   0  0  0  0  0  1  0  0  0  0  0  0
  186.5210  177.7420  146.6530 N   0  0  0  0  0  2  0  0  0  0  0  0
  187.8850  178.7570  148.2920 O   0  0  0  0  0  0  0  0  0  0  0  0
  178.9320  180.5080  139.7610 O   0  0  0  0  0  0  0  0  0  0  0  0
  179.3140  181.3510  137.5680 C   0  0  0  0  0  1  0  0  0  0  0  0
  179.3260  181.6710  139.0380 C   0  0  0  0  0  2  0  0  0  0  0  0
  182.0350  176.7360  139.5540 O   0  0  0  0  0  0  0  0  0  0  0  0
  182.3680  175.1450  137.7380 C   0  0  1  0  0  3  0  0  0  0  0  0
  183.1420  177.9510  136.1910 O   0  0  0  0  0  0  0  0  0  0  0  0
  184.6560  177.1260  137.7640 O   0  0  0  0  0  1  0  0  0  0  0  0
  181.0470  177.1530  137.4120 C   0  0  0  0  0  2  0  0  0  0  0  0
  181.3400  175.1320  136.5880 C   0  0  1  0  0  3  0  0  0  0  0  0
  184.4310  173.4720  138.0030 C   0  0  1  0  0  3  0  0  0  0  0  0
  183.3800  177.6450  137.5870 C   0  0  0  0  0  0  0  0  0  0  0  0
  181.3180  176.5520  136.0510 C   0  0  2  0  0  3  0  0  0  0  0  0
  183.7780  174.6420  137.2310 C   0  0  1  0  0  3  0  0  0  0  0  0
  182.6560  176.8890  135.5550 O   0  0  0  0  0  0  0  0  0  0  0  0
  183.6030  173.1830  136.7830 C   0  0  2  0  0  3  0  0  0  0  0  0
  181.5100  174.1630  135.5920 O   0  0  0  0  0  0  0  0  0  0  0  0
  182.3000  172.4870  137.1610 C   0  0  0  0  0  2  0  0  0  0  0  0
  182.2770  176.6580  138.1410 C   0  0  1  0  0  0  0  0  0  0  0  0
  181.1690  172.9370  136.2130 C   0  0  0  0  0  2  0  0  0  0  0  0
  183.3100  178.8710  138.2590 O   0  0  0  0  0  1  0  0  0  0  0  0
  185.8750  173.1350  137.4830 C   0  0  0  0  0  2  0  0  0  0  0  0
  186.3080  174.0580  136.4620 O   0  0  0  0  0  0  0  0  0  0  0  0
  187.1020  173.3790  135.5270 C   0  0  1  0  0  3  0  0  0  0  0  0
  188.1950  175.4230  136.0340 C   0  0  2  0  0  3  0  0  0  0  0  0
  188.4130  176.5500  135.2050 O   0  0  0  0  0  1  0  0  0  0  0  0
  189.3820  174.4740  136.1910 C   0  0  1  0  0  3  0  0  0  0  0  0
  188.3130  174.2450  135.1090 C   0  0  1  0  0  3  0  0  0  0  0  0
  190.6840  175.1430  135.7590 C   0  0  1  0  0  3  0  0  0  0  0  0
  190.6870  176.4710  136.2590 O   0  0  0  0  0  1  0  0  0  0  0  0
  191.9220  174.4140  136.1480 N   0  0  0  0  0  0  0  0  0  0  0  0
  193.0970  175.7690  137.7360 C   0  0  0  0  0  2  0  0  0  0  0  0
  193.6380  176.0810  136.3590 C   0  0  2  0  0  3  0  0  0  0  0  0
  193.0920  174.9950  135.4700 C   0  0  0  0  0  2  0  0  0  0  0  0
  192.2300  174.5510  137.5760 C   0  0  0  0  0  2  0  0  0  0  0  0
  195.0360  176.0280  136.3530 O   0  0  0  0  0  1  0  0  0  0  0  0
  187.4740  172.1720  136.1620 O   0  0  0  0  0  0  0  0  0  0  0  0
  187.5550  171.1490  135.2260 C   0  0  0  0  0  1  0  0  0  0  0  0
  1  2  2  0  0  0  0
  1  5  1  0  0  0  0
  2  6  1  0  0  0  0
  3  4  1  0  0  0  0
  4  7  1  0  0  0  0
  5  3  2  0  0  0  0
  6  4  2  0  0  0  0
  7  8  1  0  0  0  0
  9  8  1  0  0  0  0
 10  9  1  0  0  0  0
 11 10  1  0  0  0  0
 11 13  1  0  0  0  0
 12 11  2  0  0  0  0
 14 19  1  0  0  0  0
 15 16  1  0  0  0  0
 15 17  2  0  0  0  0
 16 14  2  0  0  0  0
 17 20  1  0  0  0  0
 18 17  1  0  0  0  0
 19 22  1  0  0  0  0
 20 19  2  0  0  0  0
 20 13  1  0  0  0  0
 21 24  1  0  0  0  0
 22 21  1  0  0  0  0
 23 21  2  0  0  0  0
 24 25  1  0  0  0  0
 25 27  1  0  0  0  0
 27 26  1  6  0  0  0
 27 28  1  0  0  0  0
 28 29  1  0  0  0  0
 29 32  2  0  0  0  0
 31 30  1  0  0  0  0
 31 29  1  0  0  0  0
 33  5  1  0  0  0  0
 34 35  1  0  0  0  0
 35 33  1  0  0  0  0
 36  2  1  0  0  0  0
 37 50  1  0  0  0  0
 38 43  1  0  0  0  0
 40 50  1  0  0  0  0
 41 37  1  0  0  0  0
 43 39  1  0  0  0  0
 43 50  1  0  0  0  0
 43 52  1  0  0  0  0
 44 41  1  0  0  0  0
 44 40  1  0  0  0  0
 45 37  1  0  0  0  0
 45 42  1  0  0  0  0
 46 44  1  0  0  0  0
 46 38  1  0  0  0  0
 47 49  1  0  0  0  0
 47 45  1  0  0  0  0
 47 42  1  0  0  0  0
 48 51  1  0  0  0  0
 48 41  1  0  0  0  0
 50 36  1  0  0  0  0
 51 49  1  0  0  0  0
 53 42  1  0  0  0  0
 54 53  1  0  0  0  0
 55 68  1  0  0  0  0
 55 54  1  0  0  0  0
 56 58  1  0  0  0  0
 57 56  1  0  0  0  0
 59 55  1  0  0  0  0
 59 56  1  0  0  0  0
 59 58  1  0  0  0  0
 60 62  1  0  0  0  0
 60 58  1  0  0  0  0
 60 61  1  0  0  0  0
 62 66  1  0  0  0  0
 64 63  1  0  0  0  0
 65 62  1  0  0  0  0
 65 64  1  0  0  0  0
 66 63  1  0  0  0  0
 67 64  1  0  0  0  0
 69 68  1  0  0  0  0
M  END
>  <MODEL>
1

>  <REMARK>
 VINA RESULT:      -6.9      0.000      0.000
  Name = 
  24 active torsions:
  status: ('A' for Active; 'I' for Inactive)
    1  A    between atoms: C_1  and  N_6
    2  A    between atoms: C_1  and  C_62
    3  A    between atoms: C_2  and  C_8
    4  A    between atoms: C_4  and  C_52
    5  A    between atoms: C_4  and  C_58
    6  A    between atoms: C_8  and  C_54
    7  A    between atoms: C_13  and  O_18
    8  A    between atoms: O_14  and  C_40
    9  A    between atoms: O_14  and  C_61
   10  A    between atoms: C_17  and  C_29
   11  A    between atoms: O_18  and  C_56
   12  A    between atoms: O_21  and  C_38
   13  A    between atoms: O_21  and  C_44
   14  A    between atoms: C_23  and  C_43
   15  A    between atoms: C_27  and  C_29
   16  A    between atoms: C_27  and  C_46
   17  A    between atoms: C_28  and  C_40
   18  A    between atoms: N_30  and  C_67
   19  A    between atoms: O_39  and  C_61
   20  A    between atoms: C_43  and  C_64
   21  A    between atoms: C_46  and  C_52
   22  A    between atoms: C_54  and  C_64
   23  A    between atoms: C_58  and  C_68
   24  A    between atoms: C_61  and  C_66
                            x       y       z     vdW  Elec       q    Type
                         _______ _______ _______ _____ _____    ______ ____

>  <TORSDO>
F 24

$$$$
=
 OpenBabel11062417063D

 69 76  0  0  1  0  0  0  0  0999 V2000
  191.4670  175.7200  138.1980 C   0  0  0  0  0  3  0  0  0  0  0  0
  190.1750  175.5460  138.6950 C   0  0  0  0  0  0  0  0  0  0  0  0
  191.8510  177.4940  139.8100 C   0  0  0  0  0  3  0  0  0  0  0  0
  190.5450  177.3160  140.3020 C   0  0  0  0  0  0  0  0  0  0  0  0
  192.3380  176.6800  138.7780 C   0  0  0  0  0  0  0  0  0  0  0  0
  189.7140  176.3430  139.7290 C   0  0  0  0  0  3  0  0  0  0  0  0
  189.9940  178.2280  141.3350 C   0  0  0  0  0  2  0  0  0  0  0  0
  189.6990  177.4600  142.6270 C   0  0  0  0  0  2  0  0  0  0  0  0
  190.5500  176.2020  142.7260 C   0  0  0  0  0  2  0  0  0  0  0  0
  191.5380  176.2980  143.9150 C   0  0  0  0  0  2  0  0  0  0  0  0
  190.8870  176.6540  145.2450 C   0  0  0  0  0  0  0  0  0  0  0  0
  191.1030  176.0050  146.2560 O   0  0  0  0  0  0  0  0  0  0  0  0
  190.1430  177.9650  145.3840 C   0  0  0  0  0  2  0  0  0  0  0  0
  187.2780  178.1000  147.9130 C   0  0  0  0  0  3  0  0  0  0  0  0
  189.3220  177.7600  149.1260 C   0  0  0  0  0  3  0  0  0  0  0  0
  187.9410  177.8790  149.1150 C   0  0  0  0  0  3  0  0  0  0  0  0
  190.0490  177.8380  147.9230 C   0  0  0  0  0  0  0  0  0  0  0  0
  191.4020  177.8820  147.9650 F   0  0  0  0  0  0  0  0  0  0  0  0
  187.9840  178.1730  146.6990 C   0  0  0  0  0  0  0  0  0  0  0  0
  189.3800  177.9710  146.6940 C   0  0  0  0  0  0  0  0  0  0  0  0
  186.3190  177.8660  144.7520 C   0  0  0  0  0  0  0  0  0  0  0  0
  187.3310  178.5750  145.4900 N   0  0  0  0  0  2  0  0  0  0  0  0
  186.0380  176.6520  144.9850 O   0  0  0  0  0  0  0  0  0  0  0  0
  185.5610  178.6100  143.7260 C   0  0  0  0  0  2  0  0  0  0  0  0
  185.9030  178.0620  142.3540 C   0  0  0  0  0  2  0  0  0  0  0  0
  185.1920  179.3420  140.3830 N   0  0  0  0  0  1  0  0  0  0  0  0
  184.7940  178.3150  141.3470 C   0  0  2  0  0  3  0  0  0  0  0  0
  183.4840  178.6950  142.0400 C   0  0  0  0  0  2  0  0  0  0  0  0
  182.3120  177.9750  141.4260 C   0  0  0  0  0  0  0  0  0  0  0  0
  179.8620  177.9380  140.8590 C   0  0  0  0  0  1  0  0  0  0  0  0
  181.0170  178.6010  141.4410 N   0  0  0  0  0  2  0  0  0  0  0  0
  182.5120  176.9010  140.7680 O   0  0  0  0  0  0  0  0  0  0  0  0
  193.6480  176.8330  138.3410 O   0  0  0  0  0  0  0  0  0  0  0  0
  194.6260  174.6850  138.0350 C   0  0  0  0  0  1  0  0  0  0  0  0
  194.2300  175.9720  137.3660 C   0  0  0  0  0  2  0  0  0  0  0  0
  189.3100  174.5850  138.1550 O   0  0  0  0  0  0  0  0  0  0  0  0
  188.0190  176.1300  136.7820 C   0  0  1  0  0  3  0  0  0  0  0  0
  187.3940  173.3050  135.2050 O   0  0  0  0  0  0  0  0  0  0  0  0
  186.3840  173.6330  137.2830 O   0  0  0  0  0  1  0  0  0  0  0  0
  189.5520  174.5460  135.7710 C   0  0  0  0  0  2  0  0  0  0  0  0
  188.5490  176.4650  135.3730 C   0  0  1  0  0  3  0  0  0  0  0  0
  185.8630  177.2060  137.9320 C   0  0  1  0  0  3  0  0  0  0  0  0
  187.5980  173.4660  136.6300 C   0  0  0  0  0  0  0  0  0  0  0  0
  188.6950  175.1280  134.6690 C   0  0  2  0  0  3  0  0  0  0  0  0
  186.4470  176.2830  136.8370 C   0  0  1  0  0  3  0  0  0  0  0  0
  187.3780  174.4870  134.5960 O   0  0  0  0  0  0  0  0  0  0  0  0
  186.1260  177.7600  136.5600 C   0  0  2  0  0  3  0  0  0  0  0  0
  187.8300  177.4090  134.6290 O   0  0  0  0  0  0  0  0  0  0  0  0
  187.2890  178.7450  136.5830 C   0  0  0  0  0  2  0  0  0  0  0  0
  188.5780  174.6720  136.9230 C   0  0  1  0  0  0  0  0  0  0  0  0
  188.0870  178.6470  135.2670 C   0  0  0  0  0  2  0  0  0  0  0  0
  188.1690  172.2660  137.0680 O   0  0  0  0  0  1  0  0  0  0  0  0
  184.2920  177.1910  137.9640 C   0  0  0  0  0  2  0  0  0  0  0  0
  183.7250  177.7640  136.7680 O   0  0  0  0  0  0  0  0  0  0  0  0
  182.3510  177.4890  136.7260 C   0  0  1  0  0  3  0  0  0  0  0  0
  180.1240  178.2830  136.5270 C   0  0  2  0  0  3  0  0  0  0  0  0
  179.5010  178.9360  135.4360 O   0  0  0  0  0  1  0  0  0  0  0  0
  180.6000  179.1900  137.6610 C   0  0  1  0  0  3  0  0  0  0  0  0
  181.5400  178.7880  136.5130 C   0  0  1  0  0  3  0  0  0  0  0  0
  179.9440  180.5650  137.5800 C   0  0  1  0  0  3  0  0  0  0  0  0
  179.6370  180.9880  138.9000 O   0  0  0  0  0  1  0  0  0  0  0  0
  180.7330  181.5950  136.8510 N   0  0  0  0  0  0  0  0  0  0  0  0
  180.1200  183.7390  137.7260 C   0  0  0  0  0  2  0  0  0  0  0  0
  179.2540  183.4580  136.5190 C   0  0  2  0  0  3  0  0  0  0  0  0
  179.8930  182.2690  135.8490 C   0  0  0  0  0  2  0  0  0  0  0  0
  181.1880  182.6810  137.7270 C   0  0  0  0  0  2  0  0  0  0  0  0
  179.2620  184.5470  135.6400 O   0  0  0  0  0  1  0  0  0  0  0  0
  182.1900  176.5540  135.6770 O   0  0  0  0  0  0  0  0  0  0  0  0
  181.9460  175.2910  136.2000 C   0  0  0  0  0  1  0  0  0  0  0  0
  1  2  2  0  0  0  0
  1  5  1  0  0  0  0
  2  6  1  0  0  0  0
  3  4  1  0  0  0  0
  4  7  1  0  0  0  0
  5  3  2  0  0  0  0
  6  4  2  0  0  0  0
  7  8  1  0  0  0  0
  8  9  1  0  0  0  0
  9 10  1  0  0  0  0
 10 11  1  0  0  0  0
 11 13  1  0  0  0  0
 11 12  2  0  0  0  0
 13 20  1  0  0  0  0
 14 16  1  0  0  0  0
 16 15  2  0  0  0  0
 17 18  1  0  0  0  0
 17 15  1  0  0  0  0
 19 14  2  0  0  0  0
 20 19  1  0  0  0  0
 20 17  2  0  0  0  0
 21 23  2  0  0  0  0
 21 22  1  0  0  0  0
 22 19  1  0  0  0  0
 24 21  1  0  0  0  0
 25 24  1  0  0  0  0
 27 26  1  6  0  0  0
 27 28  1  0  0  0  0
 27 25  1  0  0  0  0
 29 31  1  0  0  0  0
 29 28  1  0  0  0  0
 30 31  1  0  0  0  0
 32 29  2  0  0  0  0
 33  5  1  0  0  0  0
 35 34  1  0  0  0  0
 35 33  1  0  0  0  0
 36  2  1  0  0  0  0
 37 45  1  0  0  0  0
 37 50  1  0  0  0  0
 38 43  1  0  0  0  0
 40 50  1  0  0  0  0
 41 37  1  0  0  0  0
 42 53  1  0  0  0  0
 43 50  1  0  0  0  0
 43 52  1  0  0  0  0
 43 39  1  0  0  0  0
 44 41  1  0  0  0  0
 44 40  1  0  0  0  0
 45 42  1  0  0  0  0
 46 44  1  0  0  0  0
 46 38  1  0  0  0  0
 47 49  1  0  0  0  0
 47 45  1  0  0  0  0
 47 42  1  0  0  0  0
 48 51  1  0  0  0  0
 48 41  1  0  0  0  0
 50 36  1  0  0  0  0
 51 49  1  0  0  0  0
 54 53  1  0  0  0  0
 55 54  1  0  0  0  0
 56 58  1  0  0  0  0
 57 56  1  0  0  0  0
 59 56  1  0  0  0  0
 59 55  1  0  0  0  0
 59 58  1  0  0  0  0
 60 58  1  0  0  0  0
 60 61  1  0  0  0  0
 62 60  1  0  0  0  0
 62 66  1  0  0  0  0
 63 66  1  0  0  0  0
 64 63  1  0  0  0  0
 65 64  1  0  0  0  0
 65 62  1  0  0  0  0
 67 64  1  0  0  0  0
 68 69  1  0  0  0  0
 68 55  1  0  0  0  0
M  END
>  <MODEL>
2

>  <REMARK>
 VINA RESULT:      -6.2      2.887      9.244
  Name = 
  24 active torsions:
  status: ('A' for Active; 'I' for Inactive)
    1  A    between atoms: C_1  and  N_6
    2  A    between atoms: C_1  and  C_62
    3  A    between atoms: C_2  and  C_8
    4  A    between atoms: C_4  and  C_52
    5  A    between atoms: C_4  and  C_58
    6  A    between atoms: C_8  and  C_54
    7  A    between atoms: C_13  and  O_18
    8  A    between atoms: O_14  and  C_40
    9  A    between atoms: O_14  and  C_61
   10  A    between atoms: C_17  and  C_29
   11  A    between atoms: O_18  and  C_56
   12  A    between atoms: O_21  and  C_38
   13  A    between atoms: O_21  and  C_44
   14  A    between atoms: C_23  and  C_43
   15  A    between atoms: C_27  and  C_29
   16  A    between atoms: C_27  and  C_46
   17  A    between atoms: C_28  and  C_40
   18  A    between atoms: N_30  and  C_67
   19  A    between atoms: O_39  and  C_61
   20  A    between atoms: C_43  and  C_64
   21  A    between atoms: C_46  and  C_52
   22  A    between atoms: C_54  and  C_64
   23  A    between atoms: C_58  and  C_68
   24  A    between atoms: C_61  and  C_66
                            x       y       z     vdW  Elec       q    Type
                         _______ _______ _______ _____ _____    ______ ____

>  <TORSDO>
F 24

$$$$
=
 OpenBabel11062417063D

 69 76  0  0  1  0  0  0  0  0999 V2000
  186.3820  178.1650  142.4850 C   0  0  0  0  0  3  0  0  0  0  0  0
  186.6170  177.8470  141.1470 C   0  0  0  0  0  0  0  0  0  0  0  0
  184.2680  179.1880  141.8720 C   0  0  0  0  0  3  0  0  0  0  0  0
  184.5150  178.8680  140.5240 C   0  0  0  0  0  0  0  0  0  0  0  0
  185.1790  178.8140  142.8700 C   0  0  0  0  0  0  0  0  0  0  0  0
  185.6990  178.2040  140.1750 C   0  0  0  0  0  3  0  0  0  0  0  0
  183.5980  179.3350  139.4550 C   0  0  0  0  0  2  0  0  0  0  0  0
  183.1690  178.1640  138.5670 C   0  0  0  0  0  2  0  0  0  0  0  0
  182.2970  178.6380  137.4130 C   0  0  0  0  0  2  0  0  0  0  0  0
  182.5660  177.8000  136.1390 C   0  0  0  0  0  2  0  0  0  0  0  0
  181.8580  176.4510  136.1120 C   0  0  0  0  0  0  0  0  0  0  0  0
  181.3440  176.0190  135.0920 O   0  0  0  0  0  0  0  0  0  0  0  0
  181.9860  175.5190  137.2980 C   0  0  0  0  0  2  0  0  0  0  0  0
  178.9310  173.2310  137.0770 C   0  0  0  0  0  3  0  0  0  0  0  0
  180.8440  171.9860  136.3330 C   0  0  0  0  0  3  0  0  0  0  0  0
  179.4770  172.0660  136.5500 C   0  0  0  0  0  3  0  0  0  0  0  0
  181.6720  173.0870  136.6210 C   0  0  0  0  0  0  0  0  0  0  0  0
  183.0180  172.9410  136.5580 F   0  0  0  0  0  0  0  0  0  0  0  0
  179.7380  174.3440  137.3650 C   0  0  0  0  0  0  0  0  0  0  0  0
  181.1170  174.2970  137.0690 C   0  0  0  0  0  0  0  0  0  0  0  0
  179.4490  175.8580  139.4340 C   0  0  0  0  0  0  0  0  0  0  0  0
  179.2120  175.4750  138.0680 N   0  0  0  0  0  2  0  0  0  0  0  0
  180.0050  175.0810  140.2680 O   0  0  0  0  0  0  0  0  0  0  0  0
  179.0690  177.2250  139.8470 C   0  0  0  0  0  2  0  0  0  0  0  0
  180.1740  177.8160  140.6990 C   0  0  0  0  0  2  0  0  0  0  0  0
  180.0980  179.8580  142.0600 N   0  0  0  0  0  1  0  0  0  0  0  0
  180.1480  179.3350  140.6940 C   0  0  2  0  0  3  0  0  0  0  0  0
  178.9820  179.8710  139.8610 C   0  0  0  0  0  2  0  0  0  0  0  0
  179.4730  180.6430  138.6640 C   0  0  0  0  0  0  0  0  0  0  0  0
  181.1330  182.2480  137.6680 C   0  0  0  0  0  1  0  0  0  0  0  0
  180.6280  181.4890  138.8000 N   0  0  0  0  0  2  0  0  0  0  0  0
  178.9580  180.4170  137.5190 O   0  0  0  0  0  0  0  0  0  0  0  0
  184.8930  179.0900  144.2010 O   0  0  0  0  0  0  0  0  0  0  0  0
  186.2500  177.8150  145.6850 C   0  0  0  0  0  1  0  0  0  0  0  0
  185.9130  179.1960  145.1910 C   0  0  0  0  0  2  0  0  0  0  0  0
  187.7860  177.1820  140.7510 O   0  0  0  0  0  0  0  0  0  0  0  0
  187.7230  177.0840  138.3170 C   0  0  1  0  0  3  0  0  0  0  0  0
  190.9250  177.7110  138.7820 O   0  0  0  0  0  0  0  0  0  0  0  0
  190.1490  175.5750  139.3150 O   0  0  0  0  0  1  0  0  0  0  0  0
  188.7910  178.9350  139.4640 C   0  0  0  0  0  2  0  0  0  0  0  0
  187.8730  178.4050  137.5340 C   0  0  1  0  0  3  0  0  0  0  0  0
  187.2520  174.6840  137.2470 C   0  0  1  0  0  3  0  0  0  0  0  0
  190.0690  176.9220  139.6450 C   0  0  0  0  0  0  0  0  0  0  0  0
  189.1860  179.0060  138.0060 C   0  0  2  0  0  3  0  0  0  0  0  0
  188.2320  175.8640  137.4520 C   0  0  1  0  0  3  0  0  0  0  0  0
  190.2730  178.0760  137.6820 O   0  0  0  0  0  0  0  0  0  0  0  0
  187.3250  175.7750  136.2160 C   0  0  2  0  0  3  0  0  0  0  0  0
  187.7630  178.3360  136.1400 O   0  0  0  0  0  0  0  0  0  0  0  0
  186.0520  176.6150  136.2200 C   0  0  0  0  0  2  0  0  0  0  0  0
  188.5780  177.4410  139.5820 C   0  0  1  0  0  0  0  0  0  0  0  0
  186.3910  178.0840  135.8950 C   0  0  0  0  0  2  0  0  0  0  0  0
  190.5820  177.0870  140.9370 O   0  0  0  0  0  1  0  0  0  0  0  0
  187.9040  173.4830  136.4730 C   0  0  0  0  0  2  0  0  0  0  0  0
  188.3160  173.8610  135.1420 O   0  0  0  0  0  0  0  0  0  0  0  0
  189.2890  172.9620  134.6830 C   0  0  1  0  0  3  0  0  0  0  0  0
  190.9540  173.7580  136.1730 C   0  0  2  0  0  3  0  0  0  0  0  0
  191.4720  175.0680  136.3180 O   0  0  0  0  0  1  0  0  0  0  0  0
  191.8100  172.7920  135.3550 C   0  0  1  0  0  3  0  0  0  0  0  0
  190.6890  173.6170  134.7000 C   0  0  1  0  0  3  0  0  0  0  0  0
  193.2380  173.3090  135.2080 C   0  0  1  0  0  3  0  0  0  0  0  0
  193.5780  174.0140  136.3920 O   0  0  0  0  0  1  0  0  0  0  0  0
  194.2510  172.2670  134.8870 N   0  0  0  0  0  0  0  0  0  0  0  0
  193.6090  170.2520  136.0110 C   0  0  0  0  0  2  0  0  0  0  0  0
  194.5690  171.0030  136.9040 C   0  0  2  0  0  3  0  0  0  0  0  0
  195.1630  172.0730  136.0260 C   0  0  0  0  0  2  0  0  0  0  0  0
  193.6530  170.9440  134.6770 C   0  0  0  0  0  2  0  0  0  0  0  0
  195.5870  170.1560  137.3580 O   0  0  0  0  0  1  0  0  0  0  0  0
  189.1900  171.8380  135.5360 O   0  0  0  0  0  0  0  0  0  0  0  0
  189.1490  170.6730  134.7830 C   0  0  0  0  0  1  0  0  0  0  0  0
  1  5  1  0  0  0  0
  2  1  2  0  0  0  0
  3  5  2  0  0  0  0
  4  3  1  0  0  0  0
  5 33  1  0  0  0  0
  6  4  2  0  0  0  0
  6  2  1  0  0  0  0
  7  4  1  0  0  0  0
  8  7  1  0  0  0  0
  9  8  1  0  0  0  0
 10  9  1  0  0  0  0
 11 10  1  0  0  0  0
 11 13  1  0  0  0  0
 12 11  2  0  0  0  0
 14 19  1  0  0  0  0
 15 16  1  0  0  0  0
 15 17  2  0  0  0  0
 16 14  2  0  0  0  0
 17 20  1  0  0  0  0
 18 17  1  0  0  0  0
 19 22  1  0  0  0  0
 20 13  1  0  0  0  0
 20 19  2  0  0  0  0
 21 24  1  0  0  0  0
 21 23  2  0  0  0  0
 22 21  1  0  0  0  0
 24 25  1  0  0  0  0
 27 25  1  0  0  0  0
 27 26  1  1  0  0  0
 28 27  1  0  0  0  0
 29 31  1  0  0  0  0
 29 28  1  0  0  0  0
 30 31  1  0  0  0  0
 32 29  2  0  0  0  0
 33 35  1  0  0  0  0
 35 34  1  0  0  0  0
 36  2  1  0  0  0  0
 37 50  1  0  0  0  0
 38 43  1  0  0  0  0
 39 43  1  0  0  0  0
 40 50  1  0  0  0  0
 41 44  1  0  0  0  0
 41 37  1  0  0  0  0
 42 45  1  0  0  0  0
 43 52  1  0  0  0  0
 44 40  1  0  0  0  0
 45 37  1  0  0  0  0
 46 44  1  0  0  0  0
 46 38  1  0  0  0  0
 47 49  1  0  0  0  0
 47 42  1  0  0  0  0
 47 45  1  0  0  0  0
 48 41  1  0  0  0  0
 50 43  1  0  0  0  0
 50 36  1  0  0  0  0
 51 48  1  0  0  0  0
 51 49  1  0  0  0  0
 53 42  1  0  0  0  0
 54 53  1  0  0  0  0
 55 59  1  0  0  0  0
 55 54  1  0  0  0  0
 55 68  1  0  0  0  0
 56 57  1  0  0  0  0
 58 56  1  0  0  0  0
 59 58  1  0  0  0  0
 59 56  1  0  0  0  0
 60 58  1  0  0  0  0
 60 61  1  0  0  0  0
 62 60  1  0  0  0  0
 62 65  1  0  0  0  0
 63 64  1  0  0  0  0
 64 67  1  0  0  0  0
 65 64  1  0  0  0  0
 66 62  1  0  0  0  0
 66 63  1  0  0  0  0
 69 68  1  0  0  0  0
M  END
>  <MODEL>
3

>  <REMARK>
 VINA RESULT:      -5.7      3.295      7.946
  Name = 
  24 active torsions:
  status: ('A' for Active; 'I' for Inactive)
    1  A    between atoms: C_1  and  N_6
    2  A    between atoms: C_1  and  C_62
    3  A    between atoms: C_2  and  C_8
    4  A    between atoms: C_4  and  C_52
    5  A    between atoms: C_4  and  C_58
    6  A    between atoms: C_8  and  C_54
    7  A    between atoms: C_13  and  O_18
    8  A    between atoms: O_14  and  C_40
    9  A    between atoms: O_14  and  C_61
   10  A    between atoms: C_17  and  C_29
   11  A    between atoms: O_18  and  C_56
   12  A    between atoms: O_21  and  C_38
   13  A    between atoms: O_21  and  C_44
   14  A    between atoms: C_23  and  C_43
   15  A    between atoms: C_27  and  C_29
   16  A    between atoms: C_27  and  C_46
   17  A    between atoms: C_28  and  C_40
   18  A    between atoms: N_30  and  C_67
   19  A    between atoms: O_39  and  C_61
   20  A    between atoms: C_43  and  C_64
   21  A    between atoms: C_46  and  C_52
   22  A    between atoms: C_54  and  C_64
   23  A    between atoms: C_58  and  C_68
   24  A    between atoms: C_61  and  C_66
                            x       y       z     vdW  Elec       q    Type
                         _______ _______ _______ _____ _____    ______ ____

>  <TORSDO>
F 24

$$$$
=
 OpenBabel11062417063D

 69 76  0  0  1  0  0  0  0  0999 V2000
  180.3470  178.4880  140.5500 C   0  0  0  0  0  3  0  0  0  0  0  0
  181.4530  177.6610  140.7460 C   0  0  0  0  0  0  0  0  0  0  0  0
  180.8450  179.6500  142.6210 C   0  0  0  0  0  3  0  0  0  0  0  0
  181.9570  178.8090  142.8140 C   0  0  0  0  0  0  0  0  0  0  0  0
  180.0480  179.5230  141.4760 C   0  0  0  0  0  0  0  0  0  0  0  0
  182.2440  177.8120  141.8720 C   0  0  0  0  0  3  0  0  0  0  0  0
  182.7530  178.8820  144.0640 C   0  0  0  0  0  2  0  0  0  0  0  0
  184.1560  178.3090  143.8400 C   0  0  0  0  0  2  0  0  0  0  0  0
  184.8580  179.0090  142.6850 C   0  0  0  0  0  2  0  0  0  0  0  0
  185.9210  178.0810  142.0440 C   0  0  0  0  0  2  0  0  0  0  0  0
  186.6960  178.7130  140.8950 C   0  0  0  0  0  0  0  0  0  0  0  0
  186.1330  179.1080  139.8860 O   0  0  0  0  0  0  0  0  0  0  0  0
  188.1530  179.0760  141.0900 C   0  0  0  0  0  2  0  0  0  0  0  0
  190.6010  176.3100  140.1030 C   0  0  0  0  0  3  0  0  0  0  0  0
  189.7690  177.3170  138.0890 C   0  0  0  0  0  3  0  0  0  0  0  0
  190.5410  176.3500  138.7140 C   0  0  0  0  0  3  0  0  0  0  0  0
  189.0300  178.2380  138.8540 C   0  0  0  0  0  0  0  0  0  0  0  0
  188.4120  179.2720  138.2350 F   0  0  0  0  0  0  0  0  0  0  0  0
  189.8650  177.2160  140.8870 C   0  0  0  0  0  0  0  0  0  0  0  0
  189.0140  178.1480  140.2560 C   0  0  0  0  0  0  0  0  0  0  0  0
  190.4780  176.2470  143.1980 C   0  0  0  0  0  0  0  0  0  0  0  0
  190.0600  177.2920  142.3030 N   0  0  0  0  0  2  0  0  0  0  0  0
  190.5120  175.0290  142.8470 O   0  0  0  0  0  0  0  0  0  0  0  0
  190.9260  176.6310  144.5530 C   0  0  0  0  0  2  0  0  0  0  0  0
  189.7260  176.6960  145.4770 C   0  0  0  0  0  2  0  0  0  0  0  0
  188.7130  178.7740  144.6510 N   0  0  0  0  0  1  0  0  0  0  0  0
  188.5220  177.3310  144.8030 C   0  0  2  0  0  3  0  0  0  0  0  0
  187.2300  177.0290  145.5650 C   0  0  0  0  0  2  0  0  0  0  0  0
  187.2080  177.7250  146.9020 C   0  0  0  0  0  0  0  0  0  0  0  0
  188.3780  178.3000  149.0520 C   0  0  0  0  0  1  0  0  0  0  0  0
  188.3610  177.6420  147.7560 N   0  0  0  0  0  2  0  0  0  0  0  0
  186.2360  178.5000  147.1870 O   0  0  0  0  0  0  0  0  0  0  0  0
  178.9870  180.3960  141.2740 O   0  0  0  0  0  0  0  0  0  0  0  0
  179.4190  181.7940  139.3960 C   0  0  0  0  0  1  0  0  0  0  0  0
  179.1830  181.7520  140.8810 C   0  0  0  0  0  2  0  0  0  0  0  0
  181.7800  176.6520  139.8290 O   0  0  0  0  0  0  0  0  0  0  0  0
  181.2510  175.5840  137.7030 C   0  0  1  0  0  3  0  0  0  0  0  0
  183.3820  177.8790  136.6760 O   0  0  0  0  0  0  0  0  0  0  0  0
  184.2350  176.0610  137.8660 O   0  0  0  0  0  1  0  0  0  0  0  0
  181.1690  177.9970  137.9430 C   0  0  0  0  0  2  0  0  0  0  0  0
  180.3740  176.3620  136.7000 C   0  0  1  0  0  3  0  0  0  0  0  0
  182.1400  173.0880  137.3860 C   0  0  1  0  0  3  0  0  0  0  0  0
  183.4160  177.1810  137.9450 C   0  0  0  0  0  0  0  0  0  0  0  0
  181.0970  177.6760  136.4660 C   0  0  2  0  0  3  0  0  0  0  0  0
  182.1960  174.5700  136.9470 C   0  0  1  0  0  3  0  0  0  0  0  0
  182.4190  177.3920  135.8980 O   0  0  0  0  0  0  0  0  0  0  0  0
  181.2910  173.5510  136.2360 C   0  0  2  0  0  3  0  0  0  0  0  0
  180.0220  175.7030  135.5160 O   0  0  0  0  0  0  0  0  0  0  0  0
  179.8140  173.5470  136.6120 C   0  0  0  0  0  2  0  0  0  0  0  0
  181.9570  176.7930  138.4110 C   0  0  1  0  0  0  0  0  0  0  0  0
  179.0890  174.7150  135.9120 C   0  0  0  0  0  2  0  0  0  0  0  0
  183.9890  178.0780  138.8540 O   0  0  0  0  0  1  0  0  0  0  0  0
  183.2020  172.1950  136.6470 C   0  0  0  0  0  2  0  0  0  0  0  0
  184.0240  172.9720  135.7510 O   0  0  0  0  0  0  0  0  0  0  0  0
  184.8390  172.1090  135.0030 C   0  0  1  0  0  3  0  0  0  0  0  0
  186.1290  174.0430  135.4750 C   0  0  2  0  0  3  0  0  0  0  0  0
  186.5350  175.0820  134.6040 O   0  0  0  0  0  1  0  0  0  0  0  0
  187.1810  172.9760  135.7740 C   0  0  1  0  0  3  0  0  0  0  0  0
  186.1700  172.8020  134.6290 C   0  0  1  0  0  3  0  0  0  0  0  0
  188.5800  173.4630  135.4050 C   0  0  1  0  0  3  0  0  0  0  0  0
  188.7150  174.8040  135.8520 O   0  0  0  0  0  1  0  0  0  0  0  0
  189.6920  172.6100  135.9050 N   0  0  0  0  0  0  0  0  0  0  0  0
  191.6060  174.0170  136.2190 C   0  0  0  0  0  2  0  0  0  0  0  0
  191.6840  173.4180  134.8340 C   0  0  2  0  0  3  0  0  0  0  0  0
  190.6460  172.3260  134.8210 C   0  0  0  0  0  2  0  0  0  0  0  0
  190.5010  173.2830  136.9280 C   0  0  0  0  0  2  0  0  0  0  0  0
  192.9480  172.8610  134.6070 O   0  0  0  0  0  1  0  0  0  0  0  0
  185.0160  170.9660  135.8160 O   0  0  0  0  0  0  0  0  0  0  0  0
  184.1450  169.9610  135.4180 C   0  0  0  0  0  1  0  0  0  0  0  0
  1  2  2  0  0  0  0
  1  5  1  0  0  0  0
  2  6  1  0  0  0  0
  3  4  1  0  0  0  0
  4  7  1  0  0  0  0
  5  3  2  0  0  0  0
  6  4  2  0  0  0  0
  8  7  1  0  0  0  0
  9  8  1  0  0  0  0
 10  9  1  0  0  0  0
 11 13  1  0  0  0  0
 11 10  1  0  0  0  0
 12 11  2  0  0  0  0
 14 19  1  0  0  0  0
 15 16  1  0  0  0  0
 15 17  2  0  0  0  0
 16 14  2  0  0  0  0
 17 20  1  0  0  0  0
 18 17  1  0  0  0  0
 19 22  1  0  0  0  0
 20 19  2  0  0  0  0
 20 13  1  0  0  0  0
 21 24  1  0  0  0  0
 22 21  1  0  0  0  0
 23 21  2  0  0  0  0
 24 25  1  0  0  0  0
 27 26  1  1  0  0  0
 27 25  1  0  0  0  0
 27 28  1  0  0  0  0
 28 29  1  0  0  0  0
 29 32  2  0  0  0  0
 29 31  1  0  0  0  0
 31 30  1  0  0  0  0
 33  5  1  0  0  0  0
 34 35  1  0  0  0  0
 35 33  1  0  0  0  0
 36  2  1  0  0  0  0
 37 50  1  0  0  0  0
 38 43  1  0  0  0  0
 39 43  1  0  0  0  0
 40 50  1  0  0  0  0
 41 37  1  0  0  0  0
 43 50  1  0  0  0  0
 43 52  1  0  0  0  0
 44 41  1  0  0  0  0
 44 40  1  0  0  0  0
 45 42  1  0  0  0  0
 45 37  1  0  0  0  0
 46 44  1  0  0  0  0
 46 38  1  0  0  0  0
 47 49  1  0  0  0  0
 47 45  1  0  0  0  0
 47 42  1  0  0  0  0
 48 51  1  0  0  0  0
 48 41  1  0  0  0  0
 50 36  1  0  0  0  0
 51 49  1  0  0  0  0
 53 42  1  0  0  0  0
 54 53  1  0  0  0  0
 55 54  1  0  0  0  0
 55 68  1  0  0  0  0
 56 58  1  0  0  0  0
 57 56  1  0  0  0  0
 59 55  1  0  0  0  0
 59 56  1  0  0  0  0
 59 58  1  0  0  0  0
 60 58  1  0  0  0  0
 60 61  1  0  0  0  0
 60 62  1  0  0  0  0
 62 66  1  0  0  0  0
 63 66  1  0  0  0  0
 64 63  1  0  0  0  0
 65 64  1  0  0  0  0
 65 62  1  0  0  0  0
 67 64  1  0  0  0  0
 69 68  1  0  0  0  0
M  END
>  <MODEL>
4

>  <REMARK>
 VINA RESULT:      -5.6      1.683      2.156
  Name = 
  24 active torsions:
  status: ('A' for Active; 'I' for Inactive)
    1  A    between atoms: C_1  and  N_6
    2  A    between atoms: C_1  and  C_62
    3  A    between atoms: C_2  and  C_8
    4  A    between atoms: C_4  and  C_52
    5  A    between atoms: C_4  and  C_58
    6  A    between atoms: C_8  and  C_54
    7  A    between atoms: C_13  and  O_18
    8  A    between atoms: O_14  and  C_40
    9  A    between atoms: O_14  and  C_61
   10  A    between atoms: C_17  and  C_29
   11  A    between atoms: O_18  and  C_56
   12  A    between atoms: O_21  and  C_38
   13  A    between atoms: O_21  and  C_44
   14  A    between atoms: C_23  and  C_43
   15  A    between atoms: C_27  and  C_29
   16  A    between atoms: C_27  and  C_46
   17  A    between atoms: C_28  and  C_40
   18  A    between atoms: N_30  and  C_67
   19  A    between atoms: O_39  and  C_61
   20  A    between atoms: C_43  and  C_64
   21  A    between atoms: C_46  and  C_52
   22  A    between atoms: C_54  and  C_64
   23  A    between atoms: C_58  and  C_68
   24  A    between atoms: C_61  and  C_66
                            x       y       z     vdW  Elec       q    Type
                         _______ _______ _______ _____ _____    ______ ____

>  <TORSDO>
F 24

$$$$
=
 OpenBabel11062417063D

 69 76  0  0  1  0  0  0  0  0999 V2000
  186.6920  177.9480  138.6090 C   0  0  0  0  0  3  0  0  0  0  0  0
  185.8450  177.6790  137.5330 C   0  0  0  0  0  0  0  0  0  0  0  0
  188.5620  177.0170  137.3740 C   0  0  0  0  0  3  0  0  0  0  0  0
  187.7010  176.7430  136.2950 C   0  0  0  0  0  0  0  0  0  0  0  0
  188.0780  177.6490  138.5270 C   0  0  0  0  0  0  0  0  0  0  0  0
  186.3420  177.0720  136.3910 C   0  0  0  0  0  3  0  0  0  0  0  0
  188.1880  175.9980  135.1070 C   0  0  0  0  0  2  0  0  0  0  0  0
  187.8340  174.5120  135.2250 C   0  0  0  0  0  2  0  0  0  0  0  0
  188.9930  173.6330  134.7780 C   0  0  0  0  0  2  0  0  0  0  0  0
  190.3350  174.4010  134.8780 C   0  0  0  0  0  2  0  0  0  0  0  0
  190.8290  174.6200  136.3030 C   0  0  0  0  0  0  0  0  0  0  0  0
  190.6770  173.7730  137.1690 O   0  0  0  0  0  0  0  0  0  0  0  0
  191.7280  175.7990  136.6060 C   0  0  0  0  0  2  0  0  0  0  0  0
  194.8670  174.7620  138.5290 C   0  0  0  0  0  3  0  0  0  0  0  0
  195.2490  174.3300  136.1980 C   0  0  0  0  0  3  0  0  0  0  0  0
  195.6780  174.2650  137.5140 C   0  0  0  0  0  3  0  0  0  0  0  0
  193.9870  174.8730  135.8900 C   0  0  0  0  0  0  0  0  0  0  0  0
  193.6490  175.0770  134.5950 F   0  0  0  0  0  0  0  0  0  0  0  0
  193.6010  175.3030  138.2440 C   0  0  0  0  0  0  0  0  0  0  0  0
  193.1250  175.2950  136.9160 C   0  0  0  0  0  0  0  0  0  0  0  0
  193.3210  176.8610  140.2810 C   0  0  0  0  0  0  0  0  0  0  0  0
  192.8420  175.9730  139.2560 N   0  0  0  0  0  2  0  0  0  0  0  0
  194.5550  176.9830  140.5480 O   0  0  0  0  0  0  0  0  0  0  0  0
  192.3310  177.6870  141.0020 C   0  0  0  0  0  2  0  0  0  0  0  0
  192.0580  177.0700  142.3600 C   0  0  0  0  0  2  0  0  0  0  0  0
  191.6620  178.9170  143.9280 N   0  0  0  0  0  1  0  0  0  0  0  0
  191.0240  177.8580  143.1460 C   0  0  2  0  0  3  0  0  0  0  0  0
  190.1890  176.9440  144.0450 C   0  0  0  0  0  2  0  0  0  0  0  0
  190.6930  176.9640  145.4650 C   0  0  0  0  0  0  0  0  0  0  0  0
  192.2660  176.0610  147.2060 C   0  0  0  0  0  1  0  0  0  0  0  0
  191.7530  176.0700  145.8460 N   0  0  0  0  0  2  0  0  0  0  0  0
  190.2840  177.8730  146.2610 O   0  0  0  0  0  0  0  0  0  0  0  0
  188.9520  177.9610  139.5600 O   0  0  0  0  0  0  0  0  0  0  0  0
  188.1600  179.0110  141.5430 C   0  0  0  0  0  1  0  0  0  0  0  0
  188.6300  177.7220  140.9270 C   0  0  0  0  0  2  0  0  0  0  0  0
  184.4800  177.9920  137.5840 O   0  0  0  0  0  0  0  0  0  0  0  0
  182.1320  178.1320  136.9450 C   0  0  1  0  0  3  0  0  0  0  0  0
  182.5570  174.8650  136.8470 O   0  0  0  0  0  0  0  0  0  0  0  0
  182.4920  175.8880  138.9440 O   0  0  0  0  0  1  0  0  0  0  0  0
  183.7010  176.8100  135.6510 C   0  0  0  0  0  2  0  0  0  0  0  0
  181.7610  177.8380  135.4760 C   0  0  1  0  0  3  0  0  0  0  0  0
  180.4400  178.9290  138.8490 C   0  0  1  0  0  3  0  0  0  0  0  0
  183.2050  175.7900  137.7560 C   0  0  0  0  0  0  0  0  0  0  0  0
  182.3050  176.4490  135.1940 C   0  0  2  0  0  3  0  0  0  0  0  0
  180.9190  177.8040  137.9020 C   0  0  1  0  0  3  0  0  0  0  0  0
  181.6560  175.4960  136.1000 O   0  0  0  0  0  0  0  0  0  0  0  0
  179.7700  178.7480  137.5170 C   0  0  2  0  0  3  0  0  0  0  0  0
  180.4180  177.9940  135.1150 O   0  0  0  0  0  0  0  0  0  0  0  0
  180.0990  179.9040  136.5790 C   0  0  0  0  0  2  0  0  0  0  0  0
  183.3910  177.2050  137.0780 C   0  0  1  0  0  0  0  0  0  0  0  0
  180.1970  179.3930  135.1270 C   0  0  0  0  0  2  0  0  0  0  0  0
  184.4540  175.2260  138.0410 O   0  0  0  0  0  1  0  0  0  0  0  0
  179.3090  178.4540  139.8310 C   0  0  0  0  0  2  0  0  0  0  0  0
  179.8320  177.6290  140.8940 O   0  0  0  0  0  0  0  0  0  0  0  0
  180.5150  178.4350  141.8150 C   0  0  1  0  0  3  0  0  0  0  0  0
  182.6730  179.1310  141.1140 C   0  0  2  0  0  3  0  0  0  0  0  0
  183.6000  178.4640  140.2790 O   0  0  0  0  0  1  0  0  0  0  0  0
  182.9330  179.0230  142.6160 C   0  0  1  0  0  3  0  0  0  0  0  0
  182.0060  178.0320  141.8940 C   0  0  1  0  0  3  0  0  0  0  0  0
  184.3630  178.5680  142.8970 C   0  0  1  0  0  3  0  0  0  0  0  0
  185.1160  178.7130  141.7020 O   0  0  0  0  0  1  0  0  0  0  0  0
  185.0250  179.2520  144.0410 N   0  0  0  0  0  0  0  0  0  0  0  0
  185.9350  177.5610  145.4740 C   0  0  0  0  0  2  0  0  0  0  0  0
  184.5550  177.9150  145.9790 C   0  0  2  0  0  3  0  0  0  0  0  0
  184.1800  179.1740  145.2430 C   0  0  0  0  0  2  0  0  0  0  0  0
  186.2770  178.5980  144.4390 C   0  0  0  0  0  2  0  0  0  0  0  0
  184.5840  178.1710  147.3550 O   0  0  0  0  0  1  0  0  0  0  0  0
  180.3210  179.7610  141.3650 O   0  0  0  0  0  0  0  0  0  0  0  0
  179.2570  180.3420  142.0430 C   0  0  0  0  0  1  0  0  0  0  0  0
  2 36  1  0  0  0  0
  2  1  2  0  0  0  0
  3  5  2  0  0  0  0
  4  6  2  0  0  0  0
  4  3  1  0  0  0  0
  5  1  1  0  0  0  0
  5 33  1  0  0  0  0
  6  2  1  0  0  0  0
  7  8  1  0  0  0  0
  7  4  1  0  0  0  0
  9 10  1  0  0  0  0
  9  8  1  0  0  0  0
 10 11  1  0  0  0  0
 11 13  1  0  0  0  0
 11 12  2  0  0  0  0
 13 20  1  0  0  0  0
 15 16  1  0  0  0  0
 16 14  2  0  0  0  0
 17 15  2  0  0  0  0
 17 20  1  0  0  0  0
 18 17  1  0  0  0  0
 19 14  1  0  0  0  0
 19 22  1  0  0  0  0
 20 19  2  0  0  0  0
 21 23  2  0  0  0  0
 21 24  1  0  0  0  0
 22 21  1  0  0  0  0
 24 25  1  0  0  0  0
 25 27  1  0  0  0  0
 27 26  1  1  0  0  0
 27 28  1  0  0  0  0
 28 29  1  0  0  0  0
 29 31  1  0  0  0  0
 29 32  2  0  0  0  0
 31 30  1  0  0  0  0
 33 35  1  0  0  0  0
 35 34  1  0  0  0  0
 37 50  1  0  0  0  0
 37 45  1  0  0  0  0
 38 43  1  0  0  0  0
 40 50  1  0  0  0  0
 41 37  1  0  0  0  0
 42 53  1  0  0  0  0
 43 52  1  0  0  0  0
 43 39  1  0  0  0  0
 44 41  1  0  0  0  0
 44 40  1  0  0  0  0
 44 46  1  0  0  0  0
 45 42  1  0  0  0  0
 46 38  1  0  0  0  0
 47 45  1  0  0  0  0
 47 42  1  0  0  0  0
 48 51  1  0  0  0  0
 48 41  1  0  0  0  0
 49 47  1  0  0  0  0
 50 36  1  0  0  0  0
 50 43  1  0  0  0  0
 51 49  1  0  0  0  0
 53 54  1  0  0  0  0
 54 55  1  0  0  0  0
 55 59  1  0  0  0  0
 56 59  1  0  0  0  0
 56 58  1  0  0  0  0
 57 56  1  0  0  0  0
 58 60  1  0  0  0  0
 59 58  1  0  0  0  0
 60 62  1  0  0  0  0
 61 60  1  0  0  0  0
 62 66  1  0  0  0  0
 62 65  1  0  0  0  0
 63 64  1  0  0  0  0
 64 67  1  0  0  0  0
 65 64  1  0  0  0  0
 66 63  1  0  0  0  0
 68 55  1  0  0  0  0
 68 69  1  0  0  0  0
M  END
>  <MODEL>
5

>  <REMARK>
 VINA RESULT:      -5.5      2.370      7.943
  Name = 
  24 active torsions:
  status: ('A' for Active; 'I' for Inactive)
    1  A    between atoms: C_1  and  N_6
    2  A    between atoms: C_1  and  C_62
    3  A    between atoms: C_2  and  C_8
    4  A    between atoms: C_4  and  C_52
    5  A    between atoms: C_4  and  C_58
    6  A    between atoms: C_8  and  C_54
    7  A    between atoms: C_13  and  O_18
    8  A    between atoms: O_14  and  C_40
    9  A    between atoms: O_14  and  C_61
   10  A    between atoms: C_17  and  C_29
   11  A    between atoms: O_18  and  C_56
   12  A    between atoms: O_21  and  C_38
   13  A    between atoms: O_21  and  C_44
   14  A    between atoms: C_23  and  C_43
   15  A    between atoms: C_27  and  C_29
   16  A    between atoms: C_27  and  C_46
   17  A    between atoms: C_28  and  C_40
   18  A    between atoms: N_30  and  C_67
   19  A    between atoms: O_39  and  C_61
   20  A    between atoms: C_43  and  C_64
   21  A    between atoms: C_46  and  C_52
   22  A    between atoms: C_54  and  C_64
   23  A    between atoms: C_58  and  C_68
   24  A    between atoms: C_61  and  C_66
                            x       y       z     vdW  Elec       q    Type
                         _______ _______ _______ _____ _____    ______ ____

>  <TORSDO>
F 24

$$$$
=
 OpenBabel11062417063D

 69 76  0  0  1  0  0  0  0  0999 V2000
  189.6600  176.6890  143.4970 C   0  0  0  0  0  3  0  0  0  0  0  0
  188.7450  176.8750  142.4600 C   0  0  0  0  0  0  0  0  0  0  0  0
  188.1150  177.7320  145.0500 C   0  0  0  0  0  3  0  0  0  0  0  0
  187.1990  177.9210  143.9980 C   0  0  0  0  0  0  0  0  0  0  0  0
  189.3380  177.0880  144.8220 C   0  0  0  0  0  0  0  0  0  0  0  0
  187.5320  177.4940  142.7050 C   0  0  0  0  0  3  0  0  0  0  0  0
  185.9410  178.6770  144.2160 C   0  0  0  0  0  2  0  0  0  0  0  0
  184.7710  177.9860  143.5090 C   0  0  0  0  0  2  0  0  0  0  0  0
  184.1660  178.8840  142.4400 C   0  0  0  0  0  2  0  0  0  0  0  0
  183.6130  178.0430  141.2620 C   0  0  0  0  0  2  0  0  0  0  0  0
  183.5270  178.7940  139.9400 C   0  0  0  0  0  0  0  0  0  0  0  0
  184.2740  179.7260  139.6850 O   0  0  0  0  0  0  0  0  0  0  0  0
  182.6670  178.2410  138.8240 C   0  0  0  0  0  2  0  0  0  0  0  0
  179.1540  179.4010  137.8590 C   0  0  0  0  0  3  0  0  0  0  0  0
  180.1660  181.1270  139.1840 C   0  0  0  0  0  3  0  0  0  0  0  0
  179.0670  180.6320  138.5000 C   0  0  0  0  0  3  0  0  0  0  0  0
  181.3560  180.3790  139.2510 C   0  0  0  0  0  0  0  0  0  0  0  0
  182.4680  180.9420  139.7820 F   0  0  0  0  0  0  0  0  0  0  0  0
  180.3300  178.6330  137.9190 C   0  0  0  0  0  0  0  0  0  0  0  0
  181.4220  179.0960  138.6820 C   0  0  0  0  0  0  0  0  0  0  0  0
  180.0850  176.1110  137.4360 C   0  0  0  0  0  0  0  0  0  0  0  0
  180.4830  177.4560  137.1190 N   0  0  0  0  0  2  0  0  0  0  0  0
  179.7340  175.7670  138.6040 O   0  0  0  0  0  0  0  0  0  0  0  0
  180.0440  175.1230  136.3380 C   0  0  0  0  0  2  0  0  0  0  0  0
  181.2150  174.1700  136.4770 C   0  0  0  0  0  2  0  0  0  0  0  0
  179.4880  172.4260  136.5140 N   0  0  0  0  0  1  0  0  0  0  0  0
  180.8470  172.7520  136.0770 C   0  0  2  0  0  3  0  0  0  0  0  0
  181.8530  171.7370  136.6230 C   0  0  0  0  0  2  0  0  0  0  0  0
  183.1920  171.8760  135.9470 C   0  0  0  0  0  0  0  0  0  0  0  0
  185.6950  171.6730  136.0610 C   0  0  0  0  0  1  0  0  0  0  0  0
  184.3860  171.5510  136.6790 N   0  0  0  0  0  2  0  0  0  0  0  0
  183.2390  172.1290  134.6970 O   0  0  0  0  0  0  0  0  0  0  0  0
  190.2060  176.8620  145.8820 O   0  0  0  0  0  0  0  0  0  0  0  0
  192.2640  176.6130  147.0510 C   0  0  0  0  0  1  0  0  0  0  0  0
  191.6160  176.7550  145.7010 C   0  0  0  0  0  2  0  0  0  0  0  0
  189.0340  176.4630  141.1520 O   0  0  0  0  0  0  0  0  0  0  0  0
  188.8040  176.2010  138.7390 C   0  0  1  0  0  3  0  0  0  0  0  0
  189.0210  179.4830  138.9400 O   0  0  0  0  0  0  0  0  0  0  0  0
  190.9610  178.2430  139.3220 O   0  0  0  0  0  1  0  0  0  0  0  0
  187.4210  177.7750  139.9600 C   0  0  0  0  0  2  0  0  0  0  0  0
  187.4690  176.6170  138.0880 C   0  0  1  0  0  3  0  0  0  0  0  0
  190.8690  175.0730  137.4770 C   0  0  1  0  0  3  0  0  0  0  0  0
  189.6860  178.5240  139.7980 C   0  0  0  0  0  0  0  0  0  0  0  0
  187.2620  178.0680  138.4850 C   0  0  2  0  0  3  0  0  0  0  0  0
  189.9920  176.3270  137.7050 C   0  0  1  0  0  3  0  0  0  0  0  0
  188.3750  178.8640  137.9570 O   0  0  0  0  0  0  0  0  0  0  0  0
  189.7050  175.3390  136.5640 C   0  0  2  0  0  3  0  0  0  0  0  0
  187.3330  176.3910  136.7130 O   0  0  0  0  0  0  0  0  0  0  0  0
  188.5940  174.3180  136.7850 C   0  0  0  0  0  2  0  0  0  0  0  0
  188.8240  177.2070  139.9420 C   0  0  1  0  0  0  0  0  0  0  0  0
  187.2180  174.9860  136.5840 C   0  0  0  0  0  2  0  0  0  0  0  0
  189.8130  179.1540  141.0410 O   0  0  0  0  0  1  0  0  0  0  0  0
  192.0830  175.3490  136.5180 C   0  0  0  0  0  2  0  0  0  0  0  0
  192.0690  174.4750  135.3700 O   0  0  0  0  0  0  0  0  0  0  0  0
  193.3190  173.8510  135.2460 C   0  0  1  0  0  3  0  0  0  0  0  0
  194.6180  173.5580  137.2100 C   0  0  2  0  0  3  0  0  0  0  0  0
  194.6160  174.3170  138.4050 O   0  0  0  0  0  1  0  0  0  0  0  0
  195.7430  173.8710  136.2240 C   0  0  1  0  0  3  0  0  0  0  0  0
  194.3750  174.5650  136.1210 C   0  0  1  0  0  3  0  0  0  0  0  0
  196.8710  174.6430  136.9030 C   0  0  1  0  0  3  0  0  0  0  0  0
  196.6880  174.5520  138.3080 O   0  0  0  0  0  1  0  0  0  0  0  0
  198.2430  174.2250  136.5080 N   0  0  0  0  0  0  0  0  0  0  0  0
  198.0360  172.4270  134.9380 C   0  0  0  0  0  2  0  0  0  0  0  0
  198.1830  171.8320  136.3190 C   0  0  2  0  0  3  0  0  0  0  0  0
  198.6160  172.9780  137.1940 C   0  0  0  0  0  2  0  0  0  0  0  0
  198.3420  173.8930  135.0820 C   0  0  0  0  0  2  0  0  0  0  0  0
  199.1720  170.8410  136.3270 O   0  0  0  0  0  1  0  0  0  0  0  0
  193.1020  172.5060  135.6230 O   0  0  0  0  0  0  0  0  0  0  0  0
  191.9090  172.0470  135.0800 C   0  0  0  0  0  1  0  0  0  0  0  0
  1  5  1  0  0  0  0
  2  6  1  0  0  0  0
  2  1  2  0  0  0  0
  4  7  1  0  0  0  0
  4  3  1  0  0  0  0
  5  3  2  0  0  0  0
  5 33  1  0  0  0  0
  6  4  2  0  0  0  0
  8  7  1  0  0  0  0
  9  8  1  0  0  0  0
 10  9  1  0  0  0  0
 11 10  1  0  0  0  0
 12 11  2  0  0  0  0
 13 11  1  0  0  0  0
 14 19  2  0  0  0  0
 14 16  1  0  0  0  0
 15 17  1  0  0  0  0
 16 15  2  0  0  0  0
 17 18  1  0  0  0  0
 19 20  1  0  0  0  0
 20 13  1  0  0  0  0
 20 17  2  0  0  0  0
 21 23  2  0  0  0  0
 22 21  1  0  0  0  0
 22 19  1  0  0  0  0
 24 25  1  0  0  0  0
 24 21  1  0  0  0  0
 27 25  1  0  0  0  0
 27 26  1  1  0  0  0
 27 28  1  0  0  0  0
 29 28  1  0  0  0  0
 29 31  1  0  0  0  0
 30 31  1  0  0  0  0
 32 29  2  0  0  0  0
 35 33  1  0  0  0  0
 35 34  1  0  0  0  0
 36  2  1  0  0  0  0
 37 50  1  0  0  0  0
 38 43  1  0  0  0  0
 39 43  1  0  0  0  0
 41 44  1  0  0  0  0
 41 37  1  0  0  0  0
 42 45  1  0  0  0  0
 43 50  1  0  0  0  0
 43 52  1  0  0  0  0
 44 40  1  0  0  0  0
 45 37  1  0  0  0  0
 46 44  1  0  0  0  0
 46 38  1  0  0  0  0
 47 49  1  0  0  0  0
 47 42  1  0  0  0  0
 47 45  1  0  0  0  0
 48 41  1  0  0  0  0
 50 40  1  0  0  0  0
 50 36  1  0  0  0  0
 51 48  1  0  0  0  0
 51 49  1  0  0  0  0
 53 42  1  0  0  0  0
 54 53  1  0  0  0  0
 55 54  1  0  0  0  0
 55 68  1  0  0  0  0
 55 59  1  0  0  0  0
 56 57  1  0  0  0  0
 58 60  1  0  0  0  0
 58 56  1  0  0  0  0
 59 58  1  0  0  0  0
 59 56  1  0  0  0  0
 60 61  1  0  0  0  0
 62 60  1  0  0  0  0
 62 65  1  0  0  0  0
 63 66  1  0  0  0  0
 63 64  1  0  0  0  0
 64 67  1  0  0  0  0
 64 65  1  0  0  0  0
 66 62  1  0  0  0  0
 69 68  1  0  0  0  0
M  END
>  <MODEL>
6

>  <REMARK>
 VINA RESULT:      -4.5      3.539      8.950
  Name = 
  24 active torsions:
  status: ('A' for Active; 'I' for Inactive)
    1  A    between atoms: C_1  and  N_6
    2  A    between atoms: C_1  and  C_62
    3  A    between atoms: C_2  and  C_8
    4  A    between atoms: C_4  and  C_52
    5  A    between atoms: C_4  and  C_58
    6  A    between atoms: C_8  and  C_54
    7  A    between atoms: C_13  and  O_18
    8  A    between atoms: O_14  and  C_40
    9  A    between atoms: O_14  and  C_61
   10  A    between atoms: C_17  and  C_29
   11  A    between atoms: O_18  and  C_56
   12  A    between atoms: O_21  and  C_38
   13  A    between atoms: O_21  and  C_44
   14  A    between atoms: C_23  and  C_43
   15  A    between atoms: C_27  and  C_29
   16  A    between atoms: C_27  and  C_46
   17  A    between atoms: C_28  and  C_40
   18  A    between atoms: N_30  and  C_67
   19  A    between atoms: O_39  and  C_61
   20  A    between atoms: C_43  and  C_64
   21  A    between atoms: C_46  and  C_52
   22  A    between atoms: C_54  and  C_64
   23  A    between atoms: C_58  and  C_68
   24  A    between atoms: C_61  and  C_66
                            x       y       z     vdW  Elec       q    Type
                         _______ _______ _______ _____ _____    ______ ____

>  <TORSDO>
F 24

$$$$
=
 OpenBabel11062417063D

 69 76  0  0  1  0  0  0  0  0999 V2000
  187.9190  177.2430  144.5200 C   0  0  0  0  0  3  0  0  0  0  0  0
  187.1930  177.2400  143.3290 C   0  0  0  0  0  0  0  0  0  0  0  0
  186.1240  178.4520  145.6160 C   0  0  0  0  0  3  0  0  0  0  0  0
  185.3980  178.4490  144.4100 C   0  0  0  0  0  0  0  0  0  0  0  0
  187.3730  177.8240  145.6950 C   0  0  0  0  0  0  0  0  0  0  0  0
  185.9500  177.8460  143.2710 C   0  0  0  0  0  3  0  0  0  0  0  0
  184.1150  179.1850  144.2960 C   0  0  0  0  0  2  0  0  0  0  0  0
  183.3360  178.7170  143.0630 C   0  0  0  0  0  2  0  0  0  0  0  0
  181.8580  179.0630  143.1810 C   0  0  0  0  0  2  0  0  0  0  0  0
  180.9950  178.0800  142.3510 C   0  0  0  0  0  2  0  0  0  0  0  0
  180.2350  178.7300  141.2010 C   0  0  0  0  0  0  0  0  0  0  0  0
  179.1340  179.2310  141.3650 O   0  0  0  0  0  0  0  0  0  0  0  0
  180.9420  178.9720  139.8840 C   0  0  0  0  0  2  0  0  0  0  0  0
  181.5190  176.4530  137.0650 C   0  0  0  0  0  3  0  0  0  0  0  0
  180.8460  175.2350  139.0210 C   0  0  0  0  0  3  0  0  0  0  0  0
  181.2720  175.2420  137.7020 C   0  0  0  0  0  3  0  0  0  0  0  0
  180.6880  176.4450  139.7220 C   0  0  0  0  0  0  0  0  0  0  0  0
  180.1200  176.4330  140.9510 F   0  0  0  0  0  0  0  0  0  0  0  0
  181.3740  177.6730  137.7480 C   0  0  0  0  0  0  0  0  0  0  0  0
  181.0210  177.6680  139.1140 C   0  0  0  0  0  0  0  0  0  0  0  0
  180.3840  179.6730  136.4530 C   0  0  0  0  0  0  0  0  0  0  0  0
  181.4550  178.9210  137.0510 N   0  0  0  0  0  2  0  0  0  0  0  0
  179.2270  179.1830  136.2800 O   0  0  0  0  0  0  0  0  0  0  0  0
  180.6480  181.0780  136.0780 C   0  0  0  0  0  2  0  0  0  0  0  0
  179.5700  181.9640  136.6700 C   0  0  0  0  0  2  0  0  0  0  0  0
  179.1900  183.5630  134.8460 N   0  0  0  0  0  1  0  0  0  0  0  0
  179.7010  183.4060  136.2080 C   0  0  2  0  0  3  0  0  0  0  0  0
  181.1460  183.8970  136.3080 C   0  0  0  0  0  2  0  0  0  0  0  0
  181.3030  184.9150  137.4070 C   0  0  0  0  0  0  0  0  0  0  0  0
  180.2840  186.7070  138.8470 C   0  0  0  0  0  1  0  0  0  0  0  0
  180.1720  185.7150  137.7910 N   0  0  0  0  0  2  0  0  0  0  0  0
  182.3850  184.9450  138.0820 O   0  0  0  0  0  0  0  0  0  0  0  0
  188.0510  177.7890  146.9070 O   0  0  0  0  0  0  0  0  0  0  0  0
  188.6520  178.4100  149.1250 C   0  0  0  0  0  1  0  0  0  0  0  0
  187.6060  178.5160  148.0490 C   0  0  0  0  0  2  0  0  0  0  0  0
  187.7030  176.6470  142.1660 O   0  0  0  0  0  0  0  0  0  0  0  0
  188.0870  177.1590  139.8140 C   0  0  1  0  0  3  0  0  0  0  0  0
  191.1100  177.6860  141.0150 O   0  0  0  0  0  0  0  0  0  0  0  0
  190.3760  175.4760  140.8580 O   0  0  0  0  0  1  0  0  0  0  0  0
  188.8210  178.6770  141.5580 C   0  0  0  0  0  2  0  0  0  0  0  0
  188.2990  178.6350  139.4190 C   0  0  1  0  0  3  0  0  0  0  0  0
  187.9580  175.0960  138.1240 C   0  0  1  0  0  3  0  0  0  0  0  0
  190.1600  176.6970  141.4830 C   0  0  0  0  0  0  0  0  0  0  0  0
  189.4680  179.1140  140.2620 C   0  0  2  0  0  3  0  0  0  0  0  0
  188.8140  176.1980  138.7920 C   0  0  1  0  0  3  0  0  0  0  0  0
  190.6480  178.3060  139.9340 O   0  0  0  0  0  0  0  0  0  0  0  0
  188.1520  176.4100  137.4220 C   0  0  2  0  0  3  0  0  0  0  0  0
  188.4470  178.9140  138.0550 O   0  0  0  0  0  0  0  0  0  0  0  0
  186.8530  177.2080  137.3890 C   0  0  0  0  0  2  0  0  0  0  0  0
  188.6770  177.1990  141.2670 C   0  0  1  0  0  0  0  0  0  0  0  0
  187.1590  178.7160  137.5010 C   0  0  0  0  0  2  0  0  0  0  0  0
  190.4200  176.5400  142.8490 O   0  0  0  0  0  1  0  0  0  0  0  0
  188.8070  174.1330  137.2200 C   0  0  0  0  0  2  0  0  0  0  0  0
  189.2410  174.7800  136.0050 O   0  0  0  0  0  0  0  0  0  0  0  0
  190.6420  174.7640  135.9440 C   0  0  1  0  0  3  0  0  0  0  0  0
  190.8640  172.6000  134.9980 C   0  0  2  0  0  3  0  0  0  0  0  0
  190.3240  171.3690  135.4440 O   0  0  0  0  0  1  0  0  0  0  0  0
  192.3280  172.8530  135.3580 C   0  0  1  0  0  3  0  0  0  0  0  0
  191.1850  173.3510  136.2600 C   0  0  1  0  0  3  0  0  0  0  0  0
  193.0270  171.5600  135.7650 C   0  0  1  0  0  3  0  0  0  0  0  0
  193.1890  170.7590  134.6030 O   0  0  0  0  0  1  0  0  0  0  0  0
  194.3200  171.7440  136.4800 N   0  0  0  0  0  0  0  0  0  0  0  0
  195.9030  172.6240  134.9120 C   0  0  0  0  0  2  0  0  0  0  0  0
  196.0380  171.1190  134.9230 C   0  0  2  0  0  3  0  0  0  0  0  0
  195.2570  170.6650  136.1290 C   0  0  0  0  0  2  0  0  0  0  0  0
  195.0170  172.9700  136.0770 C   0  0  0  0  0  2  0  0  0  0  0  0
  197.3790  170.7440  135.0690 O   0  0  0  0  0  1  0  0  0  0  0  0
  190.9630  175.2050  134.6400 O   0  0  0  0  0  0  0  0  0  0  0  0
  191.7670  176.3360  134.7060 C   0  0  0  0  0  1  0  0  0  0  0  0
  1  5  1  0  0  0  0
  2  1  2  0  0  0  0
  3  5  2  0  0  0  0
  4  3  1  0  0  0  0
  5 33  1  0  0  0  0
  6  2  1  0  0  0  0
  6  4  2  0  0  0  0
  7  4  1  0  0  0  0
  8  9  1  0  0  0  0
  8  7  1  0  0  0  0
 10  9  1  0  0  0  0
 11 12  2  0  0  0  0
 11 10  1  0  0  0  0
 13 11  1  0  0  0  0
 14 16  2  0  0  0  0
 14 19  1  0  0  0  0
 15 17  2  0  0  0  0
 16 15  1  0  0  0  0
 17 18  1  0  0  0  0
 19 20  2  0  0  0  0
 20 17  1  0  0  0  0
 20 13  1  0  0  0  0
 21 22  1  0  0  0  0
 22 19  1  0  0  0  0
 23 21  2  0  0  0  0
 24 21  1  0  0  0  0
 24 25  1  0  0  0  0
 27 26  1  6  0  0  0
 27 28  1  0  0  0  0
 27 25  1  0  0  0  0
 28 29  1  0  0  0  0
 29 31  1  0  0  0  0
 29 32  2  0  0  0  0
 31 30  1  0  0  0  0
 33 35  1  0  0  0  0
 35 34  1  0  0  0  0
 36  2  1  0  0  0  0
 37 50  1  0  0  0  0
 38 43  1  0  0  0  0
 39 43  1  0  0  0  0
 41 37  1  0  0  0  0
 41 44  1  0  0  0  0
 42 45  1  0  0  0  0
 43 52  1  0  0  0  0
 44 40  1  0  0  0  0
 45 37  1  0  0  0  0
 46 44  1  0  0  0  0
 46 38  1  0  0  0  0
 47 42  1  0  0  0  0
 47 45  1  0  0  0  0
 48 41  1  0  0  0  0
 49 47  1  0  0  0  0
 49 51  1  0  0  0  0
 50 43  1  0  0  0  0
 50 40  1  0  0  0  0
 50 36  1  0  0  0  0
 51 48  1  0  0  0  0
 53 42  1  0  0  0  0
 54 53  1  0  0  0  0
 55 54  1  0  0  0  0
 55 59  1  0  0  0  0
 56 58  1  0  0  0  0
 56 57  1  0  0  0  0
 56 59  1  0  0  0  0
 58 60  1  0  0  0  0
 58 59  1  0  0  0  0
 60 62  1  0  0  0  0
 61 60  1  0  0  0  0
 63 64  1  0  0  0  0
 63 66  1  0  0  0  0
 64 67  1  0  0  0  0
 64 65  1  0  0  0  0
 65 62  1  0  0  0  0
 66 62  1  0  0  0  0
 68 69  1  0  0  0  0
 68 55  1  0  0  0  0
M  END
>  <MODEL>
7

>  <REMARK>
 VINA RESULT:      -4.4      3.861      8.798
  Name = 
  24 active torsions:
  status: ('A' for Active; 'I' for Inactive)
    1  A    between atoms: C_1  and  N_6
    2  A    between atoms: C_1  and  C_62
    3  A    between atoms: C_2  and  C_8
    4  A    between atoms: C_4  and  C_52
    5  A    between atoms: C_4  and  C_58
    6  A    between atoms: C_8  and  C_54
    7  A    between atoms: C_13  and  O_18
    8  A    between atoms: O_14  and  C_40
    9  A    between atoms: O_14  and  C_61
   10  A    between atoms: C_17  and  C_29
   11  A    between atoms: O_18  and  C_56
   12  A    between atoms: O_21  and  C_38
   13  A    between atoms: O_21  and  C_44
   14  A    between atoms: C_23  and  C_43
   15  A    between atoms: C_27  and  C_29
   16  A    between atoms: C_27  and  C_46
   17  A    between atoms: C_28  and  C_40
   18  A    between atoms: N_30  and  C_67
   19  A    between atoms: O_39  and  C_61
   20  A    between atoms: C_43  and  C_64
   21  A    between atoms: C_46  and  C_52
   22  A    between atoms: C_54  and  C_64
   23  A    between atoms: C_58  and  C_68
   24  A    between atoms: C_61  and  C_66
                            x       y       z     vdW  Elec       q    Type
                         _______ _______ _______ _____ _____    ______ ____

>  <TORSDO>
F 24

$$$$
=
 OpenBabel11062417063D

 69 76  0  0  1  0  0  0  0  0999 V2000
  191.4300  176.2410  138.8100 C   0  0  0  0  0  3  0  0  0  0  0  0
  190.1010  176.0120  139.1660 C   0  0  0  0  0  0  0  0  0  0  0  0
  191.6650  177.7850  140.6680 C   0  0  0  0  0  3  0  0  0  0  0  0
  190.3220  177.5530  141.0180 C   0  0  0  0  0  0  0  0  0  0  0  0
  192.2440  177.1110  139.5840 C   0  0  0  0  0  0  0  0  0  0  0  0
  189.5480  176.6700  140.2520 C   0  0  0  0  0  3  0  0  0  0  0  0
  189.6800  178.3260  142.1100 C   0  0  0  0  0  2  0  0  0  0  0  0
  188.7960  177.4130  142.9650 C   0  0  0  0  0  2  0  0  0  0  0  0
  189.4570  176.0600  143.1900 C   0  0  0  0  0  2  0  0  0  0  0  0
  190.7600  176.2150  144.0150 C   0  0  0  0  0  2  0  0  0  0  0  0
  190.5550  176.7980  145.4080 C   0  0  0  0  0  0  0  0  0  0  0  0
  191.1740  176.3780  146.3730 O   0  0  0  0  0  0  0  0  0  0  0  0
  189.7500  178.0690  145.5720 C   0  0  0  0  0  2  0  0  0  0  0  0
  186.8300  177.7480  148.0200 C   0  0  0  0  0  3  0  0  0  0  0  0
  188.8540  177.9250  149.3000 C   0  0  0  0  0  3  0  0  0  0  0  0
  187.4800  177.7480  149.2500 C   0  0  0  0  0  3  0  0  0  0  0  0
  189.5920  178.0810  148.1120 C   0  0  0  0  0  0  0  0  0  0  0  0
  190.9030  178.4140  148.1820 F   0  0  0  0  0  0  0  0  0  0  0  0
  187.5490  177.8950  146.8210 C   0  0  0  0  0  0  0  0  0  0  0  0
  188.9560  177.9930  146.8620 C   0  0  0  0  0  0  0  0  0  0  0  0
  185.6550  178.8000  145.3210 C   0  0  0  0  0  0  0  0  0  0  0  0
  186.8710  178.0730  145.5730 N   0  0  0  0  0  2  0  0  0  0  0  0
  184.8980  179.1980  146.2570 O   0  0  0  0  0  0  0  0  0  0  0  0
  185.3190  179.1240  143.9190 C   0  0  0  0  0  2  0  0  0  0  0  0
  184.4450  178.0260  143.3460 C   0  0  0  0  0  2  0  0  0  0  0  0
  184.4850  179.3420  141.2740 N   0  0  0  0  0  1  0  0  0  0  0  0
  183.6570  178.4980  142.1360 C   0  0  2  0  0  3  0  0  0  0  0  0
  182.3790  179.2300  142.5520 C   0  0  0  0  0  2  0  0  0  0  0  0
  181.1540  178.5460  142.0030 C   0  0  0  0  0  0  0  0  0  0  0  0
  179.9970  177.4140  140.0790 C   0  0  0  0  0  1  0  0  0  0  0  0
  181.1600  178.0790  140.6430 N   0  0  0  0  0  2  0  0  0  0  0  0
  180.1940  178.2540  142.7910 O   0  0  0  0  0  0  0  0  0  0  0  0
  193.5860  177.3090  139.2860 O   0  0  0  0  0  0  0  0  0  0  0  0
  195.3790  176.2170  140.4070 C   0  0  0  0  0  1  0  0  0  0  0  0
  194.5100  176.2300  139.1790 C   0  0  0  0  0  2  0  0  0  0  0  0
  189.2900  175.1370  138.4310 O   0  0  0  0  0  0  0  0  0  0  0  0
  187.8390  176.6370  137.1730 C   0  0  1  0  0  3  0  0  0  0  0  0
  188.2160  174.2200  134.9640 O   0  0  0  0  0  0  0  0  0  0  0  0
  186.8740  173.7900  136.8250 O   0  0  0  0  0  1  0  0  0  0  0  0
  189.8640  175.7400  136.1850 C   0  0  0  0  0  2  0  0  0  0  0  0
  188.4530  177.4190  135.9930 C   0  0  1  0  0  3  0  0  0  0  0  0
  185.3360  176.8810  138.0680 C   0  0  1  0  0  3  0  0  0  0  0  0
  188.1680  174.0690  136.4040 C   0  0  0  0  0  0  0  0  0  0  0  0
  189.0470  176.3650  135.0760 C   0  0  2  0  0  3  0  0  0  0  0  0
  186.2920  176.4120  136.9460 C   0  0  1  0  0  3  0  0  0  0  0  0
  187.9710  175.4800  134.6170 O   0  0  0  0  0  0  0  0  0  0  0  0
  185.6320  177.7990  136.9160 C   0  0  2  0  0  3  0  0  0  0  0  0
  187.6210  178.3290  135.3290 O   0  0  0  0  0  0  0  0  0  0  0  0
  186.4770  178.9850  137.3670 C   0  0  0  0  0  2  0  0  0  0  0  0
  188.7410  175.3550  137.1230 C   0  0  1  0  0  0  0  0  0  0  0  0
  187.4480  179.3970  136.2410 C   0  0  0  0  0  2  0  0  0  0  0  0
  188.9710  172.9590  136.6940 O   0  0  0  0  0  1  0  0  0  0  0  0
  183.8380  176.5020  137.7860 C   0  0  0  0  0  2  0  0  0  0  0  0
  183.6970  175.1170  137.4060 O   0  0  0  0  0  0  0  0  0  0  0  0
  182.3710  174.7100  137.6150 C   0  0  1  0  0  3  0  0  0  0  0  0
  180.1440  175.3790  137.1450 C   0  0  2  0  0  3  0  0  0  0  0  0
  179.1970  174.7870  136.2750 O   0  0  0  0  0  1  0  0  0  0  0  0
  180.8800  176.6000  136.5950 C   0  0  1  0  0  3  0  0  0  0  0  0
  181.4650  175.1850  136.4550 C   0  0  1  0  0  3  0  0  0  0  0  0
  180.1560  177.1810  135.3840 C   0  0  1  0  0  3  0  0  0  0  0  0
  179.6750  176.1030  134.5950 O   0  0  0  0  0  1  0  0  0  0  0  0
  179.0670  178.1430  135.7070 N   0  0  0  0  0  0  0  0  0  0  0  0
  179.8410  180.3390  135.1400 C   0  0  0  0  0  2  0  0  0  0  0  0
  180.1440  180.0950  136.6010 C   0  0  2  0  0  3  0  0  0  0  0  0
  179.3670  178.8550  136.9590 C   0  0  0  0  0  2  0  0  0  0  0  0
  178.9450  179.2110  134.7080 C   0  0  0  0  0  2  0  0  0  0  0  0
  179.6990  181.1660  137.3840 O   0  0  0  0  0  1  0  0  0  0  0  0
  182.4280  173.3030  137.7360 O   0  0  0  0  0  0  0  0  0  0  0  0
  183.7380  172.8660  137.5880 C   0  0  0  0  0  1  0  0  0  0  0  0
  1  2  2  0  0  0  0
  1  5  1  0  0  0  0
  2  6  1  0  0  0  0
  3  4  1  0  0  0  0
  4  7  1  0  0  0  0
  5  3  2  0  0  0  0
  6  4  2  0  0  0  0
  7  8  1  0  0  0  0
  8  9  1  0  0  0  0
  9 10  1  0  0  0  0
 10 11  1  0  0  0  0
 11 13  1  0  0  0  0
 11 12  2  0  0  0  0
 13 20  1  0  0  0  0
 14 16  1  0  0  0  0
 16 15  2  0  0  0  0
 17 18  1  0  0  0  0
 17 15  1  0  0  0  0
 19 20  1  0  0  0  0
 19 14  2  0  0  0  0
 20 17  2  0  0  0  0
 21 22  1  0  0  0  0
 21 23  2  0  0  0  0
 22 19  1  0  0  0  0
 24 21  1  0  0  0  0
 25 24  1  0  0  0  0
 27 26  1  1  0  0  0
 27 28  1  0  0  0  0
 27 25  1  0  0  0  0
 29 28  1  0  0  0  0
 29 32  2  0  0  0  0
 30 31  1  0  0  0  0
 31 29  1  0  0  0  0
 33  5  1  0  0  0  0
 35 33  1  0  0  0  0
 35 34  1  0  0  0  0
 36  2  1  0  0  0  0
 38 43  1  0  0  0  0
 40 50  1  0  0  0  0
 41 37  1  0  0  0  0
 43 52  1  0  0  0  0
 43 39  1  0  0  0  0
 43 50  1  0  0  0  0
 44 41  1  0  0  0  0
 44 40  1  0  0  0  0
 45 37  1  0  0  0  0
 45 42  1  0  0  0  0
 46 38  1  0  0  0  0
 46 44  1  0  0  0  0
 47 45  1  0  0  0  0
 47 49  1  0  0  0  0
 47 42  1  0  0  0  0
 48 41  1  0  0  0  0
 48 51  1  0  0  0  0
 50 37  1  0  0  0  0
 50 36  1  0  0  0  0
 51 49  1  0  0  0  0
 53 42  1  0  0  0  0
 54 55  1  0  0  0  0
 54 53  1  0  0  0  0
 55 68  1  0  0  0  0
 57 56  1  0  0  0  0
 58 56  1  0  0  0  0
 59 58  1  0  0  0  0
 59 56  1  0  0  0  0
 59 55  1  0  0  0  0
 60 62  1  0  0  0  0
 60 58  1  0  0  0  0
 61 60  1  0  0  0  0
 62 65  1  0  0  0  0
 63 64  1  0  0  0  0
 64 65  1  0  0  0  0
 64 67  1  0  0  0  0
 66 63  1  0  0  0  0
 66 62  1  0  0  0  0
 69 68  1  0  0  0  0
M  END
>  <MODEL>
8

>  <REMARK>
 VINA RESULT:      -4.4      3.017      8.999
  Name = 
  24 active torsions:
  status: ('A' for Active; 'I' for Inactive)
    1  A    between atoms: C_1  and  N_6
    2  A    between atoms: C_1  and  C_62
    3  A    between atoms: C_2  and  C_8
    4  A    between atoms: C_4  and  C_52
    5  A    between atoms: C_4  and  C_58
    6  A    between atoms: C_8  and  C_54
    7  A    between atoms: C_13  and  O_18
    8  A    between atoms: O_14  and  C_40
    9  A    between atoms: O_14  and  C_61
   10  A    between atoms: C_17  and  C_29
   11  A    between atoms: O_18  and  C_56
   12  A    between atoms: O_21  and  C_38
   13  A    between atoms: O_21  and  C_44
   14  A    between atoms: C_23  and  C_43
   15  A    between atoms: C_27  and  C_29
   16  A    between atoms: C_27  and  C_46
   17  A    between atoms: C_28  and  C_40
   18  A    between atoms: N_30  and  C_67
   19  A    between atoms: O_39  and  C_61
   20  A    between atoms: C_43  and  C_64
   21  A    between atoms: C_46  and  C_52
   22  A    between atoms: C_54  and  C_64
   23  A    between atoms: C_58  and  C_68
   24  A    between atoms: C_61  and  C_66
                            x       y       z     vdW  Elec       q    Type
                         _______ _______ _______ _____ _____    ______ ____

>  <TORSDO>
F 24

$$$$
=
 OpenBabel11062417063D

 69 76  0  0  1  0  0  0  0  0999 V2000
  191.1160  176.0140  144.2530 C   0  0  0  0  0  3  0  0  0  0  0  0
  190.1190  176.3850  143.3510 C   0  0  0  0  0  0  0  0  0  0  0  0
  189.7890  176.8930  146.0850 C   0  0  0  0  0  3  0  0  0  0  0  0
  188.7900  177.2690  145.1680 C   0  0  0  0  0  0  0  0  0  0  0  0
  190.9450  176.2350  145.6460 C   0  0  0  0  0  0  0  0  0  0  0  0
  188.9720  177.0160  143.8010 C   0  0  0  0  0  3  0  0  0  0  0  0
  187.6040  178.0420  145.6150 C   0  0  0  0  0  2  0  0  0  0  0  0
  186.3300  177.4900  144.9670 C   0  0  0  0  0  2  0  0  0  0  0  0
  185.6650  178.5360  144.0840 C   0  0  0  0  0  2  0  0  0  0  0  0
  184.8790  177.8630  142.9310 C   0  0  0  0  0  2  0  0  0  0  0  0
  184.6610  178.7550  141.7150 C   0  0  0  0  0  0  0  0  0  0  0  0
  185.3010  179.7820  141.5530 O   0  0  0  0  0  0  0  0  0  0  0  0
  183.8090  178.2550  140.5680 C   0  0  0  0  0  2  0  0  0  0  0  0
  180.1410  177.1890  140.7290 C   0  0  0  0  0  3  0  0  0  0  0  0
  180.6400  178.4290  142.7230 C   0  0  0  0  0  3  0  0  0  0  0  0
  179.7470  177.6850  141.9670 C   0  0  0  0  0  3  0  0  0  0  0  0
  181.9460  178.6610  142.2520 C   0  0  0  0  0  0  0  0  0  0  0  0
  182.7510  179.5200  142.9210 F   0  0  0  0  0  0  0  0  0  0  0  0
  181.4420  177.4030  140.2420 C   0  0  0  0  0  0  0  0  0  0  0  0
  182.3790  178.0880  141.0440 C   0  0  0  0  0  0  0  0  0  0  0  0
  181.4940  177.7620  137.6880 C   0  0  0  0  0  0  0  0  0  0  0  0
  181.7950  177.0490  138.9010 N   0  0  0  0  0  2  0  0  0  0  0  0
  180.6570  178.7140  137.6530 O   0  0  0  0  0  0  0  0  0  0  0  0
  182.2310  177.3890  136.4630 C   0  0  0  0  0  2  0  0  0  0  0  0
  183.7200  177.5240  136.7140 C   0  0  0  0  0  2  0  0  0  0  0  0
  185.7860  176.2660  136.2970 N   0  0  0  0  0  1  0  0  0  0  0  0
  184.4100  176.1730  136.7870 C   0  0  2  0  0  3  0  0  0  0  0  0
  183.6300  175.1040  136.0190 C   0  0  0  0  0  2  0  0  0  0  0  0
  182.8490  174.2190  136.9550 C   0  0  0  0  0  0  0  0  0  0  0  0
  180.6340  173.5370  137.9320 C   0  0  0  0  0  1  0  0  0  0  0  0
  181.4220  174.3730  137.0410 N   0  0  0  0  0  2  0  0  0  0  0  0
  183.4390  173.2490  137.5370 O   0  0  0  0  0  0  0  0  0  0  0  0
  191.8960  175.8220  146.5700 O   0  0  0  0  0  0  0  0  0  0  0  0
  192.8510  175.9700  148.7450 C   0  0  0  0  0  1  0  0  0  0  0  0
  191.6010  175.6880  147.9580 C   0  0  0  0  0  2  0  0  0  0  0  0
  190.2560  176.1500  141.9760 O   0  0  0  0  0  0  0  0  0  0  0  0
  190.1120  176.3080  139.5480 C   0  0  1  0  0  3  0  0  0  0  0  0
  190.0540  179.5080  140.3330 O   0  0  0  0  0  0  0  0  0  0  0  0
  192.0780  178.3700  140.5680 O   0  0  0  0  0  1  0  0  0  0  0  0
  188.5730  177.5280  140.9710 C   0  0  0  0  0  2  0  0  0  0  0  0
  188.7640  176.7310  138.9270 C   0  0  1  0  0  3  0  0  0  0  0  0
  192.2930  175.5850  138.1900 C   0  0  1  0  0  3  0  0  0  0  0  0
  190.7730  178.4640  141.0340 C   0  0  0  0  0  0  0  0  0  0  0  0
  188.4290  178.0670  139.5650 C   0  0  2  0  0  3  0  0  0  0  0  0
  191.3110  176.7070  138.6000 C   0  0  1  0  0  3  0  0  0  0  0  0
  189.4860  179.0280  139.2310 O   0  0  0  0  0  0  0  0  0  0  0  0
  191.1360  175.9200  137.2920 C   0  0  2  0  0  3  0  0  0  0  0  0
  188.6820  176.7460  137.5300 O   0  0  0  0  0  0  0  0  0  0  0  0
  190.1070  174.7950  137.2850 C   0  0  0  0  0  2  0  0  0  0  0  0
  190.0180  177.0810  140.9090 C   0  0  1  0  0  0  0  0  0  0  0  0
  188.6870  175.3820  137.1500 C   0  0  0  0  0  2  0  0  0  0  0  0
  190.8150  178.8690  142.3730 O   0  0  0  0  0  1  0  0  0  0  0  0
  193.5060  176.1190  137.3450 C   0  0  0  0  0  2  0  0  0  0  0  0
  193.7080  175.3410  136.1460 O   0  0  0  0  0  0  0  0  0  0  0  0
  194.7790  174.4570  136.3400 C   0  0  1  0  0  3  0  0  0  0  0  0
  193.6540  172.7140  135.1910 C   0  0  2  0  0  3  0  0  0  0  0  0
  192.4160  172.0960  135.4940 O   0  0  0  0  0  1  0  0  0  0  0  0
  194.9030  171.9470  135.6220 C   0  0  1  0  0  3  0  0  0  0  0  0
  194.2660  173.0110  136.5310 C   0  0  1  0  0  3  0  0  0  0  0  0
  194.5780  170.4860  135.9200 C   0  0  1  0  0  3  0  0  0  0  0  0
  194.3830  169.8140  134.6850 O   0  0  0  0  0  1  0  0  0  0  0  0
  195.5780  169.7810  136.7670 N   0  0  0  0  0  0  0  0  0  0  0  0
  196.5500  171.3960  138.2460 C   0  0  0  0  0  2  0  0  0  0  0  0
  197.4250  171.2950  137.0180 C   0  0  2  0  0  3  0  0  0  0  0  0
  196.9420  170.0660  136.2940 C   0  0  0  0  0  2  0  0  0  0  0  0
  195.5740  170.2550  138.1560 C   0  0  0  0  0  2  0  0  0  0  0  0
  198.7660  171.1250  137.3800 O   0  0  0  0  0  1  0  0  0  0  0  0
  195.6000  174.6100  135.1990 O   0  0  0  0  0  0  0  0  0  0  0  0
  196.4870  175.6610  135.3900 C   0  0  0  0  0  1  0  0  0  0  0  0
  1  5  1  0  0  0  0
  2  6  1  0  0  0  0
  2  1  2  0  0  0  0
  4  7  1  0  0  0  0
  4  3  1  0  0  0  0
  5  3  2  0  0  0  0
  5 33  1  0  0  0  0
  6  4  2  0  0  0  0
  8  7  1  0  0  0  0
  9  8  1  0  0  0  0
 10  9  1  0  0  0  0
 11 10  1  0  0  0  0
 12 11  2  0  0  0  0
 13 20  1  0  0  0  0
 13 11  1  0  0  0  0
 14 16  1  0  0  0  0
 16 15  2  0  0  0  0
 17 15  1  0  0  0  0
 17 18  1  0  0  0  0
 19 14  2  0  0  0  0
 19 20  1  0  0  0  0
 20 17  2  0  0  0  0
 21 22  1  0  0  0  0
 22 19  1  0  0  0  0
 23 21  2  0  0  0  0
 24 25  1  0  0  0  0
 24 21  1  0  0  0  0
 25 27  1  0  0  0  0
 27 26  1  6  0  0  0
 28 27  1  0  0  0  0
 28 29  1  0  0  0  0
 29 31  1  0  0  0  0
 29 32  2  0  0  0  0
 31 30  1  0  0  0  0
 33 35  1  0  0  0  0
 35 34  1  0  0  0  0
 36  2  1  0  0  0  0
 37 50  1  0  0  0  0
 38 43  1  0  0  0  0
 39 43  1  0  0  0  0
 41 37  1  0  0  0  0
 41 44  1  0  0  0  0
 42 45  1  0  0  0  0
 43 52  1  0  0  0  0
 44 40  1  0  0  0  0
 45 37  1  0  0  0  0
 46 44  1  0  0  0  0
 46 38  1  0  0  0  0
 47 42  1  0  0  0  0
 47 45  1  0  0  0  0
 48 41  1  0  0  0  0
 49 47  1  0  0  0  0
 50 40  1  0  0  0  0
 50 43  1  0  0  0  0
 50 36  1  0  0  0  0
 51 49  1  0  0  0  0
 51 48  1  0  0  0  0
 53 42  1  0  0  0  0
 54 55  1  0  0  0  0
 54 53  1  0  0  0  0
 55 59  1  0  0  0  0
 56 57  1  0  0  0  0
 56 58  1  0  0  0  0
 56 59  1  0  0  0  0
 58 60  1  0  0  0  0
 58 59  1  0  0  0  0
 60 62  1  0  0  0  0
 61 60  1  0  0  0  0
 62 66  1  0  0  0  0
 64 67  1  0  0  0  0
 64 63  1  0  0  0  0
 65 62  1  0  0  0  0
 65 64  1  0  0  0  0
 66 63  1  0  0  0  0
 68 69  1  0  0  0  0
 68 55  1  0  0  0  0
M  END
>  <MODEL>
9

>  <REMARK>
 VINA RESULT:      -4.0      3.355      9.050
  Name = 
  24 active torsions:
  status: ('A' for Active; 'I' for Inactive)
    1  A    between atoms: C_1  and  N_6
    2  A    between atoms: C_1  and  C_62
    3  A    between atoms: C_2  and  C_8
    4  A    between atoms: C_4  and  C_52
    5  A    between atoms: C_4  and  C_58
    6  A    between atoms: C_8  and  C_54
    7  A    between atoms: C_13  and  O_18
    8  A    between atoms: O_14  and  C_40
    9  A    between atoms: O_14  and  C_61
   10  A    between atoms: C_17  and  C_29
   11  A    between atoms: O_18  and  C_56
   12  A    between atoms: O_21  and  C_38
   13  A    between atoms: O_21  and  C_44
   14  A    between atoms: C_23  and  C_43
   15  A    between atoms: C_27  and  C_29
   16  A    between atoms: C_27  and  C_46
   17  A    between atoms: C_28  and  C_40
   18  A    between atoms: N_30  and  C_67
   19  A    between atoms: O_39  and  C_61
   20  A    between atoms: C_43  and  C_64
   21  A    between atoms: C_46  and  C_52
   22  A    between atoms: C_54  and  C_64
   23  A    between atoms: C_58  and  C_68
   24  A    between atoms: C_61  and  C_66
                            x       y       z     vdW  Elec       q    Type
                         _______ _______ _______ _____ _____    ______ ____

>  <TORSDO>
F 24

$$$$
