=
 OpenBabel11062412363D

 51 55  0  0  1  0  0  0  0  0999 V2000
  184.9140  178.9890  138.8290 C   0  0  0  0  0  3  0  0  0  0  0  0
  183.5970  177.2410  137.0910 C   0  0  0  0  0  3  0  0  0  0  0  0
  184.9030  176.9660  137.5030 C   0  0  0  0  0  3  0  0  0  0  0  0
  182.9340  178.3850  137.5610 C   0  0  0  0  0  0  0  0  0  0  0  0
  183.6080  179.2650  138.4160 C   0  0  0  0  0  3  0  0  0  0  0  0
  185.5680  177.8400  138.3780 C   0  0  0  0  0  0  0  0  0  0  0  0
  180.4630  178.0100  137.8640 C   0  0  0  0  0  2  0  0  0  0  0  0
  180.7150  179.4740  138.1230 C   0  0  2  0  0  0  0  0  0  0  0  0
  181.5550  178.7340  137.0800 C   0  0  1  0  0  3  0  0  0  0  0  0
  181.2090  179.6980  139.5490 C   0  0  0  0  0  2  0  0  0  0  0  0
  180.1050  179.5590  140.4850 N   0  0  0  0  0  2  0  0  0  0  0  0
  180.8150  180.2760  142.9280 O   0  0  0  0  0  0  0  0  0  0  0  0
  180.7620  179.0830  142.0140 S   0  0  0  0  0  0  0  0  0  0  0  0
  179.9080  178.0130  142.6370 O   0  0  0  0  0  0  0  0  0  0  0  0
  182.4170  178.4630  141.7730 C   0  0  0  0  0  2  0  0  0  0  0  0
  185.6020  178.6230  143.8830 C   0  0  0  0  0  2  0  0  0  0  0  0
  184.9820  178.9340  145.2180 C   0  0  0  0  0  3  0  0  0  0  0  0
  183.2800  178.7520  142.9550 C   0  0  0  0  0  0  0  0  0  0  0  0
  183.6520  178.9220  145.3640 C   0  0  0  0  0  3  0  0  0  0  0  0
  184.7210  179.1380  142.7410 C   0  0  0  0  0  2  0  0  0  0  0  0
  182.7780  178.6940  144.1970 C   0  0  0  0  0  3  0  0  0  0  0  0
  179.5760  180.3340  137.5930 C   0  0  0  0  0  2  0  0  0  0  0  0
  179.9830  181.7950  137.4810 C   0  0  2  0  0  3  0  0  0  0  0  0
  179.2040  182.5980  138.5050 C   0  0  0  0  0  1  0  0  0  0  0  0
  180.6030  181.6640  135.0710 C   0  0  0  0  0  1  0  0  0  0  0  0
  179.6840  182.3180  136.0850 C   0  0  0  0  0  2  0  0  0  0  0  0
  186.8770  177.5900  138.8090 O   0  0  0  0  0  0  0  0  0  0  0  0
  187.8260  176.8730  138.0260 C   0  0  0  0  0  2  0  0  0  0  0  0
  189.1950  177.5360  138.1120 C   0  0  1  0  0  3  0  0  0  0  0  0
  188.8180  179.7060  137.2460 O   0  0  0  0  0  0  0  0  0  0  0  0
  189.0620  179.0260  138.2290 C   0  0  0  0  0  3  0  0  0  0  0  0
  189.9930  176.9350  139.2720 C   0  0  1  0  0  3  0  0  0  0  0  0
  193.2890  175.9210  138.1680 C   0  0  0  0  0  0  0  0  0  0  0  0
  191.9750  175.8850  138.0280 C   0  0  0  0  0  0  0  0  0  0  0  0
  193.7020  176.7690  139.1250 N   0  0  0  0  0  2  0  0  0  0  0  0
  192.7260  173.9960  137.4690 C   0  0  0  0  0  3  0  0  0  0  0  0
  193.8080  174.7410  137.8210 N   0  0  0  0  0  0  0  0  0  0  0  0
  192.5440  177.3420  139.5650 C   0  0  0  0  0  3  0  0  0  0  0  0
  195.1560  174.2580  138.0570 C   0  0  0  0  0  1  0  0  0  0  0  0
  191.4370  176.7800  138.9120 C   0  0  0  0  0  0  0  0  0  0  0  0
  191.5490  174.6780  137.6150 N   0  0  0  0  0  0  0  0  0  0  0  0
  189.8540  177.6920  140.4430 O   0  0  0  0  0  0  0  0  0  0  0  0
  189.3960  176.7940  141.4140 C   0  0  0  0  0  2  0  0  0  0  0  0
  190.3160  176.8030  142.6280 C   0  0  0  0  0  2  0  0  0  0  0  0
  189.5670  176.4220  143.8990 C   0  0  2  0  0  3  0  0  0  0  0  0
  188.2080  176.2790  143.6070 O   0  0  0  0  0  1  0  0  0  0  0  0
  190.3710  178.6850  144.3840 N   0  0  0  0  0  1  0  0  0  0  0  0
  189.7540  177.5020  144.9640 C   0  0  2  0  0  3  0  0  0  0  0  0
  190.5970  177.0030  146.0960 C   0  0  0  0  0  0  0  0  0  0  0  0
  190.1880  177.0830  147.2850 O   0  0  0  0  0  1  0  0  0  0  0  0
  191.8520  176.4690  145.8340 O   0  0  0  0  0  0  0  0  0  0  0  0
  2  3  2  0  0  0  0
  2  4  1  0  0  0  0
  3  6  1  0  0  0  0
  4  5  2  0  0  0  0
  5  1  1  0  0  0  0
  6 27  1  0  0  0  0
  6  1  2  0  0  0  0
  7  8  1  0  0  0  0
  8 22  1  6  0  0  0
  8 10  1  0  0  0  0
  9  4  1  1  0  0  0
  9  7  1  0  0  0  0
  9  8  1  0  0  0  0
 10 11  1  0  0  0  0
 11 13  1  0  0  0  0
 13 14  2  0  0  0  0
 13 12  2  0  0  0  0
 15 13  1  0  0  0  0
 15 18  1  0  0  0  0
 16 17  1  0  0  0  0
 17 19  2  0  0  0  0
 18 21  2  0  0  0  0
 20 18  1  0  0  0  0
 20 16  1  0  0  0  0
 21 19  1  0  0  0  0
 23 22  1  0  0  0  0
 23 24  1  1  0  0  0
 25 26  1  0  0  0  0
 26 23  1  0  0  0  0
 28 27  1  0  0  0  0
 29 28  1  1  0  0  0
 29 31  1  0  0  0  0
 29 32  1  0  0  0  0
 30 31  2  0  0  0  0
 32 42  1  1  0  0  0
 33 35  1  0  0  0  0
 34 33  2  0  0  0  0
 34 40  1  0  0  0  0
 35 38  1  0  0  0  0
 36 41  2  0  0  0  0
 36 37  1  0  0  0  0
 37 39  1  0  0  0  0
 37 33  1  0  0  0  0
 40 32  1  0  0  0  0
 40 38  2  0  0  0  0
 41 34  1  0  0  0  0
 42 43  1  0  0  0  0
 43 44  1  0  0  0  0
 44 45  1  0  0  0  0
 45 46  1  6  0  0  0
 45 48  1  0  0  0  0
 48 47  1  6  0  0  0
 48 49  1  0  0  0  0
 49 50  1  0  0  0  0
 51 49  2  0  0  0  0
M  END
>  <MODEL>
1

>  <REMARK>
 VINA RESULT:      -7.1      0.000      0.000
  Name = 
  21 active torsions:
  status: ('A' for Active; 'I' for Inactive)
    1  A    between atoms: C_2  and  C_15
    2  A    between atoms: C_2  and  CA_19
    3  A    between atoms: C_4  and  C_37
    4  A    between atoms: C_4  and  C_48
    5  A    between atoms: C_9  and  C_20
    6  A    between atoms: C_9  and  O_41
    7  A    between atoms: C_14  and  CA_19
    8  A    between atoms: C_15  and  C_38
    9  A    between atoms: C_20  and  C_26
   10  A    between atoms: C_20  and  C_47
   11  A    between atoms: O_21  and  C_38
   12  A    between atoms: O_21  and  C_47
   13  A    between atoms: C_30  and  C_33
   14  A    between atoms: C_32  and  C_50
   15  A    between atoms: C_33  and  S_44
   16  A    between atoms: C_39  and  C_47
   17  A    between atoms: C_40  and  O_41
   18  A    between atoms: C_43  and  C_48
   19  A    between atoms: C_43  and  C_51
   20  A    between atoms: S_44  and  N_49
   21  A    between atoms: N_49  and  C_51
                            x       y       z     vdW  Elec       q    Type
                         _______ _______ _______ _____ _____    ______ ____

>  <TORSDO>
F 21

$$$$
=
 OpenBabel11062412363D

 51 55  0  0  1  0  0  0  0  0999 V2000
  186.0700  178.4320  137.7200 C   0  0  0  0  0  3  0  0  0  0  0  0
  184.2000  176.3630  137.5390 C   0  0  0  0  0  3  0  0  0  0  0  0
  185.4880  176.1890  137.0280 C   0  0  0  0  0  3  0  0  0  0  0  0
  183.8440  177.5690  138.1610 C   0  0  0  0  0  0  0  0  0  0  0  0
  184.7810  178.6070  138.2300 C   0  0  0  0  0  3  0  0  0  0  0  0
  186.4320  177.2250  137.1180 C   0  0  0  0  0  0  0  0  0  0  0  0
  181.9620  176.6850  139.5800 C   0  0  0  0  0  2  0  0  0  0  0  0
  182.3650  178.0110  140.1720 C   0  0  2  0  0  0  0  0  0  0  0  0
  182.4450  177.8010  138.6580 C   0  0  1  0  0  3  0  0  0  0  0  0
  183.5830  177.8570  141.0770 C   0  0  0  0  0  2  0  0  0  0  0  0
  183.4610  178.7340  142.2290 N   0  0  0  0  0  2  0  0  0  0  0  0
  185.9140  179.5960  141.7530 O   0  0  0  0  0  0  0  0  0  0  0  0
  185.0510  179.0260  142.8450 S   0  0  0  0  0  0  0  0  0  0  0  0
  184.9950  179.9950  143.9950 O   0  0  0  0  0  0  0  0  0  0  0  0
  185.7590  177.4840  143.3960 C   0  0  0  0  0  2  0  0  0  0  0  0
  188.8920  177.1280  145.5600 C   0  0  0  0  0  2  0  0  0  0  0  0
  188.3600  177.7160  146.8390 C   0  0  0  0  0  3  0  0  0  0  0  0
  186.6650  177.6910  144.5640 C   0  0  0  0  0  0  0  0  0  0  0  0
  187.0640  178.0280  146.9510 C   0  0  0  0  0  3  0  0  0  0  0  0
  188.1560  177.7080  144.3480 C   0  0  0  0  0  2  0  0  0  0  0  0
  186.1620  177.8840  145.7910 C   0  0  0  0  0  3  0  0  0  0  0  0
  181.1550  178.7780  140.6880 C   0  0  0  0  0  2  0  0  0  0  0  0
  180.0910  177.8420  141.2380 C   0  0  2  0  0  3  0  0  0  0  0  0
  179.0240  177.6400  140.1790 C   0  0  0  0  0  1  0  0  0  0  0  0
  180.4580  178.4130  143.6360 C   0  0  0  0  0  1  0  0  0  0  0  0
  179.4650  178.4350  142.4900 C   0  0  0  0  0  2  0  0  0  0  0  0
  187.7300  177.0800  136.6160 O   0  0  0  0  0  0  0  0  0  0  0  0
  188.2520  175.8330  136.1660 C   0  0  0  0  0  2  0  0  0  0  0  0
  188.9380  175.1000  137.3120 C   0  0  1  0  0  3  0  0  0  0  0  0
  188.2940  173.0320  136.3580 O   0  0  0  0  0  0  0  0  0  0  0  0
  189.1440  173.6520  136.9750 C   0  0  0  0  0  3  0  0  0  0  0  0
  190.2510  175.8020  137.6670 C   0  0  1  0  0  3  0  0  0  0  0  0
  190.6480  177.5970  140.7860 C   0  0  0  0  0  0  0  0  0  0  0  0
  191.1180  177.2440  139.6030 C   0  0  0  0  0  0  0  0  0  0  0  0
  189.3880  177.1850  141.0060 N   0  0  0  0  0  2  0  0  0  0  0  0
  192.7550  177.3770  140.9240 C   0  0  0  0  0  3  0  0  0  0  0  0
  191.6550  177.6960  141.6570 N   0  0  0  0  0  0  0  0  0  0  0  0
  189.0410  176.5800  139.8320 C   0  0  0  0  0  3  0  0  0  0  0  0
  191.5750  177.8060  143.1010 C   0  0  0  0  0  1  0  0  0  0  0  0
  190.1240  176.5750  138.9420 C   0  0  0  0  0  0  0  0  0  0  0  0
  192.4500  177.0570  139.6300 N   0  0  0  0  0  0  0  0  0  0  0  0
  191.3180  174.8970  137.7430 O   0  0  0  0  0  0  0  0  0  0  0  0
  192.2110  175.2910  136.7400 C   0  0  0  0  0  2  0  0  0  0  0  0
  193.4100  174.3500  136.6900 C   0  0  0  0  0  2  0  0  0  0  0  0
  194.6670  175.0180  137.2310 C   0  0  2  0  0  3  0  0  0  0  0  0
  195.2250  175.8250  136.2360 O   0  0  0  0  0  1  0  0  0  0  0  0
  195.5880  173.7200  139.0950 N   0  0  0  0  0  1  0  0  0  0  0  0
  195.6810  173.9590  137.6630 C   0  0  2  0  0  3  0  0  0  0  0  0
  197.0760  174.3750  137.3150 C   0  0  0  0  0  0  0  0  0  0  0  0
  197.6590  173.8910  136.3080 O   0  0  0  0  0  0  0  0  0  0  0  0
  197.7430  175.2850  138.1250 O   0  0  0  0  0  1  0  0  0  0  0  0
  1  5  1  0  0  0  0
  2  4  1  0  0  0  0
  3  6  1  0  0  0  0
  3  2  2  0  0  0  0
  4  5  2  0  0  0  0
  6  1  2  0  0  0  0
  7  8  1  0  0  0  0
  8 22  1  1  0  0  0
  8 10  1  0  0  0  0
  9  4  1  1  0  0  0
  9  7  1  0  0  0  0
  9  8  1  0  0  0  0
 10 11  1  0  0  0  0
 11 13  1  0  0  0  0
 12 13  2  0  0  0  0
 13 15  1  0  0  0  0
 13 14  2  0  0  0  0
 15 18  1  0  0  0  0
 16 17  1  0  0  0  0
 17 19  2  0  0  0  0
 18 21  2  0  0  0  0
 20 18  1  0  0  0  0
 20 16  1  0  0  0  0
 21 19  1  0  0  0  0
 22 23  1  0  0  0  0
 23 24  1  6  0  0  0
 23 26  1  0  0  0  0
 26 25  1  0  0  0  0
 27  6  1  0  0  0  0
 28 27  1  0  0  0  0
 29 28  1  6  0  0  0
 29 32  1  0  0  0  0
 30 31  2  0  0  0  0
 31 29  1  0  0  0  0
 32 42  1  1  0  0  0
 32 40  1  0  0  0  0
 33 35  1  0  0  0  0
 33 37  1  0  0  0  0
 34 41  1  0  0  0  0
 34 33  2  0  0  0  0
 36 37  1  0  0  0  0
 37 39  1  0  0  0  0
 38 35  1  0  0  0  0
 40 34  1  0  0  0  0
 40 38  2  0  0  0  0
 41 36  2  0  0  0  0
 43 42  1  0  0  0  0
 44 43  1  0  0  0  0
 44 45  1  0  0  0  0
 45 46  1  6  0  0  0
 45 48  1  0  0  0  0
 48 47  1  1  0  0  0
 49 48  1  0  0  0  0
 49 51  1  0  0  0  0
 50 49  2  0  0  0  0
M  END
>  <MODEL>
2

>  <REMARK>
 VINA RESULT:      -6.9      3.095      5.583
  Name = 
  21 active torsions:
  status: ('A' for Active; 'I' for Inactive)
    1  A    between atoms: C_2  and  C_15
    2  A    between atoms: C_2  and  CA_19
    3  A    between atoms: C_4  and  C_37
    4  A    between atoms: C_4  and  C_48
    5  A    between atoms: C_9  and  C_20
    6  A    between atoms: C_9  and  O_41
    7  A    between atoms: C_14  and  CA_19
    8  A    between atoms: C_15  and  C_38
    9  A    between atoms: C_20  and  C_26
   10  A    between atoms: C_20  and  C_47
   11  A    between atoms: O_21  and  C_38
   12  A    between atoms: O_21  and  C_47
   13  A    between atoms: C_30  and  C_33
   14  A    between atoms: C_32  and  C_50
   15  A    between atoms: C_33  and  S_44
   16  A    between atoms: C_39  and  C_47
   17  A    between atoms: C_40  and  O_41
   18  A    between atoms: C_43  and  C_48
   19  A    between atoms: C_43  and  C_51
   20  A    between atoms: S_44  and  N_49
   21  A    between atoms: N_49  and  C_51
                            x       y       z     vdW  Elec       q    Type
                         _______ _______ _______ _____ _____    ______ ____

>  <TORSDO>
F 21

$$$$
=
 OpenBabel11062412363D

 51 55  0  0  1  0  0  0  0  0999 V2000
  184.8880  178.2650  142.8680 C   0  0  0  0  0  3  0  0  0  0  0  0
  184.4910  178.8010  145.5820 C   0  0  0  0  0  3  0  0  0  0  0  0
  183.4480  178.9890  144.6710 C   0  0  0  0  0  3  0  0  0  0  0  0
  185.7350  178.3250  145.1420 C   0  0  0  0  0  0  0  0  0  0  0  0
  185.9310  178.0780  143.7790 C   0  0  0  0  0  3  0  0  0  0  0  0
  183.6420  178.7190  143.3070 C   0  0  0  0  0  0  0  0  0  0  0  0
  187.3940  176.7410  146.1790 C   0  0  0  0  0  2  0  0  0  0  0  0
  188.1930  177.7630  145.4100 C   0  0  2  0  0  0  0  0  0  0  0  0
  186.8890  178.1790  146.0940 C   0  0  1  0  0  3  0  0  0  0  0  0
  188.2510  177.4050  143.9280 C   0  0  0  0  0  2  0  0  0  0  0  0
  189.3680  178.0860  143.2950 N   0  0  0  0  0  2  0  0  0  0  0  0
  191.3260  177.4950  141.6220 O   0  0  0  0  0  0  0  0  0  0  0  0
  189.9250  177.0950  141.9900 S   0  0  0  0  0  0  0  0  0  0  0  0
  189.9070  175.6460  142.3920 O   0  0  0  0  0  0  0  0  0  0  0  0
  188.8630  177.3370  140.5770 C   0  0  0  0  0  2  0  0  0  0  0  0
  189.4910  177.3140  136.8060 C   0  0  0  0  0  2  0  0  0  0  0  0
  190.7610  176.5090  136.7860 C   0  0  0  0  0  3  0  0  0  0  0  0
  189.6080  177.1370  139.3000 C   0  0  0  0  0  0  0  0  0  0  0  0
  191.2170  175.9380  137.9060 C   0  0  0  0  0  3  0  0  0  0  0  0
  189.3390  178.0560  138.1370 C   0  0  0  0  0  2  0  0  0  0  0  0
  190.5270  176.1680  139.1910 C   0  0  0  0  0  3  0  0  0  0  0  0
  189.4830  178.1180  146.1340 C   0  0  0  0  0  2  0  0  0  0  0  0
  189.6730  177.2770  147.3870 C   0  0  2  0  0  3  0  0  0  0  0  0
  189.4970  178.1660  148.6020 C   0  0  0  0  0  1  0  0  0  0  0  0
  191.6120  176.5720  145.9890 C   0  0  0  0  0  1  0  0  0  0  0  0
  191.0610  176.6590  147.4000 C   0  0  0  0  0  2  0  0  0  0  0  0
  182.6160  178.8980  142.3720 O   0  0  0  0  0  0  0  0  0  0  0  0
  182.7710  178.6010  140.9870 C   0  0  0  0  0  2  0  0  0  0  0  0
  181.4390  178.1720  140.3840 C   0  0  1  0  0  3  0  0  0  0  0  0
  179.8890  177.6250  142.0860 O   0  0  0  0  0  0  0  0  0  0  0  0
  180.3050  178.4770  141.3180 C   0  0  0  0  0  3  0  0  0  0  0  0
  181.2510  178.8310  139.0150 C   0  0  1  0  0  3  0  0  0  0  0  0
  181.3520  176.0410  136.7090 C   0  0  0  0  0  0  0  0  0  0  0  0
  181.5620  176.5340  137.9170 C   0  0  2  0  0  3  0  0  0  0  0  0
  180.7560  176.9090  135.8730 N   0  0  0  0  0  0  0  0  0  0  0  0
  183.0630  175.1000  137.5450 C   0  0  0  0  0  3  0  0  0  0  0  0
  182.2820  175.1240  136.4320 N   0  0  0  0  0  0  0  0  0  0  0  0
  180.5310  178.0030  136.6580 C   0  0  0  0  0  3  0  0  0  0  0  0
  182.5830  174.5230  135.1460 C   0  0  0  0  0  1  0  0  0  0  0  0
  181.0580  177.8050  137.9420 C   0  0  0  0  0  0  0  0  0  0  0  0
  182.6550  175.9990  138.4920 N   0  0  0  0  0  0  0  0  0  0  0  0
  180.1890  179.7450  139.0210 O   0  0  0  0  0  0  0  0  0  0  0  0
  180.7840  181.0050  139.1490 C   0  0  0  0  0  2  0  0  0  0  0  0
  181.1300  181.5750  137.7780 C   0  0  0  0  0  2  0  0  0  0  0  0
  180.4560  182.9220  137.5470 C   0  0  2  0  0  3  0  0  0  0  0  0
  179.2630  182.7250  136.8470 O   0  0  0  0  0  1  0  0  0  0  0  0
  182.2970  184.5370  137.6320 N   0  0  0  0  0  1  0  0  0  0  0  0
  181.3770  183.8400  136.7450 C   0  0  2  0  0  3  0  0  0  0  0  0
  180.5880  184.8400  135.9580 C   0  0  0  0  0  0  0  0  0  0  0  0
  180.6220  184.8360  134.6980 O   0  0  0  0  0  0  0  0  0  0  0  0
  179.8320  185.7960  136.6230 O   0  0  0  0  0  1  0  0  0  0  0  0
  1  6  2  0  0  0  0
  1  5  1  0  0  0  0
  3  2  2  0  0  0  0
  4  2  1  0  0  0  0
  5  4  2  0  0  0  0
  6  3  1  0  0  0  0
  8 10  1  6  0  0  0
  8  9  1  0  0  0  0
  8 22  1  0  0  0  0
  8  7  1  0  0  0  0
  9  4  1  6  0  0  0
  9  7  1  0  0  0  0
 11 10  1  0  0  0  0
 12 13  2  0  0  0  0
 13 14  2  0  0  0  0
 13 11  1  0  0  0  0
 15 13  1  0  0  0  0
 16 20  1  0  0  0  0
 17 16  1  0  0  0  0
 17 19  2  0  0  0  0
 18 15  1  0  0  0  0
 19 21  1  0  0  0  0
 20 18  1  0  0  0  0
 21 18  2  0  0  0  0
 22 23  1  0  0  0  0
 23 26  1  0  0  0  0
 23 24  1  1  0  0  0
 25 26  1  0  0  0  0
 27  6  1  0  0  0  0
 28 27  1  0  0  0  0
 29 28  1  1  0  0  0
 29 31  1  0  0  0  0
 31 30  2  0  0  0  0
 32 42  1  1  0  0  0
 32 29  1  0  0  0  0
 34 33  1  6  0  0  0
 34 40  1  0  0  0  0
 34 41  1  0  0  0  0
 35 38  1  0  0  0  0
 35 33  2  0  0  0  0
 36 41  2  0  0  0  0
 37 33  1  0  0  0  0
 37 36  1  0  0  0  0
 38 40  2  0  0  0  0
 39 37  1  0  0  0  0
 40 32  1  0  0  0  0
 42 43  1  0  0  0  0
 44 43  1  0  0  0  0
 45 46  1  6  0  0  0
 45 44  1  0  0  0  0
 48 45  1  0  0  0  0
 48 47  1  1  0  0  0
 49 51  1  0  0  0  0
 49 48  1  0  0  0  0
 50 49  2  0  0  0  0
M  END
>  <MODEL>
3

>  <REMARK>
 VINA RESULT:      -6.8      3.309     11.084
  Name = 
  21 active torsions:
  status: ('A' for Active; 'I' for Inactive)
    1  A    between atoms: C_2  and  C_15
    2  A    between atoms: C_2  and  CA_19
    3  A    between atoms: C_4  and  C_37
    4  A    between atoms: C_4  and  C_48
    5  A    between atoms: C_9  and  C_20
    6  A    between atoms: C_9  and  O_41
    7  A    between atoms: C_14  and  CA_19
    8  A    between atoms: C_15  and  C_38
    9  A    between atoms: C_20  and  C_26
   10  A    between atoms: C_20  and  C_47
   11  A    between atoms: O_21  and  C_38
   12  A    between atoms: O_21  and  C_47
   13  A    between atoms: C_30  and  C_33
   14  A    between atoms: C_32  and  C_50
   15  A    between atoms: C_33  and  S_44
   16  A    between atoms: C_39  and  C_47
   17  A    between atoms: C_40  and  O_41
   18  A    between atoms: C_43  and  C_48
   19  A    between atoms: C_43  and  C_51
   20  A    between atoms: S_44  and  N_49
   21  A    between atoms: N_49  and  C_51
                            x       y       z     vdW  Elec       q    Type
                         _______ _______ _______ _____ _____    ______ ____

>  <TORSDO>
F 21

$$$$
=
 OpenBabel11062412363D

 51 55  0  0  1  0  0  0  0  0999 V2000
  185.7350  178.2120  137.7530 C   0  0  0  0  0  3  0  0  0  0  0  0
  183.3590  176.8720  137.1450 C   0  0  0  0  0  3  0  0  0  0  0  0
  184.5250  176.5900  136.4280 C   0  0  0  0  0  3  0  0  0  0  0  0
  183.3800  177.8140  138.1840 C   0  0  0  0  0  0  0  0  0  0  0  0
  184.5690  178.4940  138.4690 C   0  0  0  0  0  3  0  0  0  0  0  0
  185.7210  177.2590  136.7310 C   0  0  0  0  0  0  0  0  0  0  0  0
  181.6600  177.0730  139.8670 C   0  0  0  0  0  2  0  0  0  0  0  0
  182.3220  178.3020  140.4360 C   0  0  2  0  0  0  0  0  0  0  0  0
  182.1240  178.1790  138.9230 C   0  0  1  0  0  3  0  0  0  0  0  0
  183.6430  177.9470  141.1100 C   0  0  0  0  0  2  0  0  0  0  0  0
  183.6330  178.3970  142.4930 N   0  0  0  0  0  2  0  0  0  0  0  0
  185.7780  179.6720  141.6240 O   0  0  0  0  0  0  0  0  0  0  0  0
  185.2000  179.0340  142.8560 S   0  0  0  0  0  0  0  0  0  0  0  0
  185.1040  180.0600  143.9520 O   0  0  0  0  0  0  0  0  0  0  0  0
  186.2680  177.7020  143.3740 C   0  0  0  0  0  2  0  0  0  0  0  0
  185.8010  178.7500  147.0220 C   0  0  0  0  0  2  0  0  0  0  0  0
  187.1000  178.2360  147.5800 C   0  0  0  0  0  3  0  0  0  0  0  0
  186.5330  177.7610  144.8410 C   0  0  0  0  0  0  0  0  0  0  0  0
  188.0420  177.7520  146.7630 C   0  0  0  0  0  3  0  0  0  0  0  0
  185.3790  177.9380  145.7940 C   0  0  0  0  0  2  0  0  0  0  0  0
  187.7800  177.6330  145.3150 C   0  0  0  0  0  3  0  0  0  0  0  0
  181.3220  179.1740  141.1830 C   0  0  0  0  0  2  0  0  0  0  0  0
  180.3270  178.3360  141.9710 C   0  0  2  0  0  3  0  0  0  0  0  0
  178.9310  178.6250  141.4550 C   0  0  0  0  0  1  0  0  0  0  0  0
  179.0530  179.1290  143.9600 C   0  0  0  0  0  1  0  0  0  0  0  0
  180.4080  178.6780  143.4500 C   0  0  0  0  0  2  0  0  0  0  0  0
  186.9050  176.9980  136.0310 O   0  0  0  0  0  0  0  0  0  0  0  0
  187.4030  175.6810  135.8150 C   0  0  0  0  0  2  0  0  0  0  0  0
  187.8340  175.0530  137.1350 C   0  0  1  0  0  3  0  0  0  0  0  0
  188.2670  172.9840  136.0700 O   0  0  0  0  0  0  0  0  0  0  0  0
  187.8120  173.5550  137.0480 C   0  0  0  0  0  3  0  0  0  0  0  0
  189.2090  175.5880  137.5410 C   0  0  1  0  0  3  0  0  0  0  0  0
  192.0790  174.7160  135.5130 C   0  0  0  0  0  0  0  0  0  0  0  0
  191.3200  174.5000  136.5740 C   0  0  2  0  0  3  0  0  0  0  0  0
  191.5960  175.6660  134.6950 N   0  0  0  0  0  0  0  0  0  0  0  0
  193.3090  174.0500  137.1110 C   0  0  0  0  0  3  0  0  0  0  0  0
  193.3510  174.4400  135.8090 N   0  0  0  0  0  0  0  0  0  0  0  0
  190.4120  176.0170  135.2770 C   0  0  0  0  0  3  0  0  0  0  0  0
  194.5350  174.7710  135.0390 C   0  0  0  0  0  1  0  0  0  0  0  0
  190.2290  175.3200  136.4800 C   0  0  0  0  0  0  0  0  0  0  0  0
  192.0460  174.1030  137.6350 N   0  0  0  0  0  0  0  0  0  0  0  0
  189.1630  176.9540  137.8490 O   0  0  0  0  0  0  0  0  0  0  0  0
  188.9520  177.0180  139.2310 C   0  0  0  0  0  2  0  0  0  0  0  0
  190.2570  177.3180  139.9590 C   0  0  0  0  0  2  0  0  0  0  0  0
  190.0560  177.3680  141.4680 C   0  0  2  0  0  3  0  0  0  0  0  0
  189.1450  178.3820  141.7770 O   0  0  0  0  0  1  0  0  0  0  0  0
  192.4960  177.1890  141.3420 N   0  0  0  0  0  1  0  0  0  0  0  0
  191.3860  177.6410  142.1670 C   0  0  2  0  0  3  0  0  0  0  0  0
  191.4450  176.9600  143.4990 C   0  0  0  0  0  0  0  0  0  0  0  0
  191.6990  175.7290  143.5810 O   0  0  0  0  0  0  0  0  0  0  0  0
  191.1920  177.6890  144.6550 O   0  0  0  0  0  1  0  0  0  0  0  0
  1  5  1  0  0  0  0
  2  4  1  0  0  0  0
  3  6  1  0  0  0  0
  3  2  2  0  0  0  0
  4  5  2  0  0  0  0
  6  1  2  0  0  0  0
  7  8  1  0  0  0  0
  8 10  1  1  0  0  0
  8 22  1  0  0  0  0
  9  4  1  6  0  0  0
  9  7  1  0  0  0  0
  9  8  1  0  0  0  0
 10 11  1  0  0  0  0
 11 13  1  0  0  0  0
 12 13  2  0  0  0  0
 13 15  1  0  0  0  0
 13 14  2  0  0  0  0
 15 18  1  0  0  0  0
 16 17  1  0  0  0  0
 18 21  2  0  0  0  0
 18 20  1  0  0  0  0
 19 17  2  0  0  0  0
 20 16  1  0  0  0  0
 21 19  1  0  0  0  0
 22 23  1  0  0  0  0
 23 24  1  6  0  0  0
 23 26  1  0  0  0  0
 26 25  1  0  0  0  0
 27  6  1  0  0  0  0
 28 27  1  0  0  0  0
 29 28  1  6  0  0  0
 29 32  1  0  0  0  0
 30 31  2  0  0  0  0
 31 29  1  0  0  0  0
 32 42  1  6  0  0  0
 33 37  1  0  0  0  0
 34 33  1  6  0  0  0
 34 41  1  0  0  0  0
 35 38  1  0  0  0  0
 35 33  2  0  0  0  0
 36 41  2  0  0  0  0
 37 36  1  0  0  0  0
 38 40  2  0  0  0  0
 39 37  1  0  0  0  0
 40 34  1  0  0  0  0
 40 32  1  0  0  0  0
 42 43  1  0  0  0  0
 43 44  1  0  0  0  0
 44 45  1  0  0  0  0
 45 46  1  6  0  0  0
 45 48  1  0  0  0  0
 48 47  1  6  0  0  0
 48 49  1  0  0  0  0
 49 50  2  0  0  0  0
 49 51  1  0  0  0  0
M  END
>  <MODEL>
4

>  <REMARK>
 VINA RESULT:      -6.7      2.679      3.891
  Name = 
  21 active torsions:
  status: ('A' for Active; 'I' for Inactive)
    1  A    between atoms: C_2  and  C_15
    2  A    between atoms: C_2  and  CA_19
    3  A    between atoms: C_4  and  C_37
    4  A    between atoms: C_4  and  C_48
    5  A    between atoms: C_9  and  C_20
    6  A    between atoms: C_9  and  O_41
    7  A    between atoms: C_14  and  CA_19
    8  A    between atoms: C_15  and  C_38
    9  A    between atoms: C_20  and  C_26
   10  A    between atoms: C_20  and  C_47
   11  A    between atoms: O_21  and  C_38
   12  A    between atoms: O_21  and  C_47
   13  A    between atoms: C_30  and  C_33
   14  A    between atoms: C_32  and  C_50
   15  A    between atoms: C_33  and  S_44
   16  A    between atoms: C_39  and  C_47
   17  A    between atoms: C_40  and  O_41
   18  A    between atoms: C_43  and  C_48
   19  A    between atoms: C_43  and  C_51
   20  A    between atoms: S_44  and  N_49
   21  A    between atoms: N_49  and  C_51
                            x       y       z     vdW  Elec       q    Type
                         _______ _______ _______ _____ _____    ______ ____

>  <TORSDO>
F 21

$$$$
=
 OpenBabel11062412363D

 51 55  0  0  1  0  0  0  0  0999 V2000
  188.4520  177.7280  139.6770 C   0  0  0  0  0  3  0  0  0  0  0  0
  189.4900  177.6970  137.0820 C   0  0  0  0  0  3  0  0  0  0  0  0
  190.3370  177.5100  138.1780 C   0  0  0  0  0  3  0  0  0  0  0  0
  188.1140  177.8830  137.2790 C   0  0  0  0  0  0  0  0  0  0  0  0
  187.6050  177.9160  138.5820 C   0  0  0  0  0  3  0  0  0  0  0  0
  189.8200  177.5230  139.4830 C   0  0  0  0  0  0  0  0  0  0  0  0
  187.7730  177.6630  134.7940 C   0  0  0  0  0  2  0  0  0  0  0  0
  186.6680  176.8790  135.4540 C   0  0  2  0  0  0  0  0  0  0  0  0
  187.1960  178.1510  136.1200 C   0  0  1  0  0  3  0  0  0  0  0  0
  187.1530  175.4910  135.8620 C   0  0  0  0  0  2  0  0  0  0  0  0
  187.8000  174.8390  134.7350 N   0  0  0  0  0  2  0  0  0  0  0  0
  189.3320  174.2230  136.7980 O   0  0  0  0  0  0  0  0  0  0  0  0
  189.2880  174.1580  135.2960 S   0  0  0  0  0  0  0  0  0  0  0  0
  189.4050  172.7250  134.8540 O   0  0  0  0  0  0  0  0  0  0  0  0
  190.6500  175.1020  134.6360 C   0  0  0  0  0  2  0  0  0  0  0  0
  193.3290  172.8170  136.1280 C   0  0  0  0  0  2  0  0  0  0  0  0
  194.1770  173.8610  136.8020 C   0  0  0  0  0  3  0  0  0  0  0  0
  191.9380  174.7220  135.2870 C   0  0  0  0  0  0  0  0  0  0  0  0
  193.7690  175.1340  136.8510 C   0  0  0  0  0  3  0  0  0  0  0  0
  192.5890  173.4120  134.9260 C   0  0  0  0  0  2  0  0  0  0  0  0
  192.5260  175.5440  136.1670 C   0  0  0  0  0  3  0  0  0  0  0  0
  185.3610  177.0070  134.6840 C   0  0  0  0  0  2  0  0  0  0  0  0
  184.1870  176.4550  135.4770 C   0  0  2  0  0  3  0  0  0  0  0  0
  182.9740  177.3290  135.2230 C   0  0  0  0  0  1  0  0  0  0  0  0
  183.8680  175.2520  137.6360 C   0  0  0  0  0  1  0  0  0  0  0  0
  184.5120  176.4490  136.9620 C   0  0  0  0  0  2  0  0  0  0  0  0
  190.6440  177.3380  140.6000 O   0  0  0  0  0  0  0  0  0  0  0  0
  190.3450  176.4090  141.6380 C   0  0  0  0  0  2  0  0  0  0  0  0
  190.3390  177.1090  142.9910 C   0  0  1  0  0  3  0  0  0  0  0  0
  191.9040  178.7990  143.5350 O   0  0  0  0  0  0  0  0  0  0  0  0
  190.9200  178.4880  142.8830 C   0  0  0  0  0  3  0  0  0  0  0  0
  188.9200  177.1240  143.5630 C   0  0  1  0  0  3  0  0  0  0  0  0
  188.3780  177.1480  147.1430 C   0  0  0  0  0  0  0  0  0  0  0  0
  187.8950  177.1810  145.9140 C   0  0  0  0  0  0  0  0  0  0  0  0
  189.7060  176.9500  147.1910 N   0  0  0  0  0  2  0  0  0  0  0  0
  186.6550  178.3900  147.1170 C   0  0  0  0  0  3  0  0  0  0  0  0
  187.6190  177.9010  147.9430 N   0  0  0  0  0  0  0  0  0  0  0  0
  190.0520  176.7910  145.8800 C   0  0  0  0  0  3  0  0  0  0  0  0
  187.9180  178.3480  149.2900 C   0  0  0  0  0  1  0  0  0  0  0  0
  188.9340  176.9640  145.0510 C   0  0  0  0  0  0  0  0  0  0  0  0
  186.8150  177.9790  145.8220 N   0  0  0  0  0  0  0  0  0  0  0  0
  188.2270  178.2870  143.1990 O   0  0  0  0  0  0  0  0  0  0  0  0
  187.0470  177.8410  142.5920 C   0  0  0  0  0  2  0  0  0  0  0  0
  185.9970  178.9460  142.5860 C   0  0  0  0  0  2  0  0  0  0  0  0
  184.9780  178.7430  141.4720 C   0  0  2  0  0  3  0  0  0  0  0  0
  185.1990  179.6910  140.4690 O   0  0  0  0  0  1  0  0  0  0  0  0
  183.4790  178.3610  143.3720 N   0  0  0  0  0  1  0  0  0  0  0  0
  183.5600  178.8950  142.0210 C   0  0  2  0  0  3  0  0  0  0  0  0
  182.5660  178.1950  141.1460 C   0  0  0  0  0  0  0  0  0  0  0  0
  182.9190  177.2300  140.4170 O   0  0  0  0  0  0  0  0  0  0  0  0
  181.2480  178.6320  141.1210 O   0  0  0  0  0  1  0  0  0  0  0  0
  2  4  2  0  0  0  0
  2  3  1  0  0  0  0
  3  6  2  0  0  0  0
  4  5  1  0  0  0  0
  5  1  2  0  0  0  0
  6  1  1  0  0  0  0
  6 27  1  0  0  0  0
  7  8  1  0  0  0  0
  7  9  1  0  0  0  0
  8 22  1  6  0  0  0
  8 10  1  0  0  0  0
  8  9  1  0  0  0  0
  9  4  1  1  0  0  0
 11 13  1  0  0  0  0
 11 10  1  0  0  0  0
 13 12  2  0  0  0  0
 14 13  2  0  0  0  0
 15 18  1  0  0  0  0
 15 13  1  0  0  0  0
 16 17  1  0  0  0  0
 17 19  2  0  0  0  0
 18 21  2  0  0  0  0
 20 18  1  0  0  0  0
 20 16  1  0  0  0  0
 21 19  1  0  0  0  0
 22 23  1  0  0  0  0
 23 24  1  1  0  0  0
 23 26  1  0  0  0  0
 26 25  1  0  0  0  0
 27 28  1  0  0  0  0
 29 28  1  6  0  0  0
 29 32  1  0  0  0  0
 31 29  1  0  0  0  0
 31 30  2  0  0  0  0
 32 42  1  1  0  0  0
 32 40  1  0  0  0  0
 33 35  1  0  0  0  0
 33 37  1  0  0  0  0
 34 33  2  0  0  0  0
 36 37  1  0  0  0  0
 37 39  1  0  0  0  0
 38 35  1  0  0  0  0
 40 38  2  0  0  0  0
 40 34  1  0  0  0  0
 41 34  1  0  0  0  0
 41 36  2  0  0  0  0
 43 42  1  0  0  0  0
 44 43  1  0  0  0  0
 45 46  1  6  0  0  0
 45 48  1  0  0  0  0
 45 44  1  0  0  0  0
 48 47  1  1  0  0  0
 49 48  1  0  0  0  0
 50 49  2  0  0  0  0
 51 49  1  0  0  0  0
M  END
>  <MODEL>
5

>  <REMARK>
 VINA RESULT:      -6.5      3.612      8.838
  Name = 
  21 active torsions:
  status: ('A' for Active; 'I' for Inactive)
    1  A    between atoms: C_2  and  C_15
    2  A    between atoms: C_2  and  CA_19
    3  A    between atoms: C_4  and  C_37
    4  A    between atoms: C_4  and  C_48
    5  A    between atoms: C_9  and  C_20
    6  A    between atoms: C_9  and  O_41
    7  A    between atoms: C_14  and  CA_19
    8  A    between atoms: C_15  and  C_38
    9  A    between atoms: C_20  and  C_26
   10  A    between atoms: C_20  and  C_47
   11  A    between atoms: O_21  and  C_38
   12  A    between atoms: O_21  and  C_47
   13  A    between atoms: C_30  and  C_33
   14  A    between atoms: C_32  and  C_50
   15  A    between atoms: C_33  and  S_44
   16  A    between atoms: C_39  and  C_47
   17  A    between atoms: C_40  and  O_41
   18  A    between atoms: C_43  and  C_48
   19  A    between atoms: C_43  and  C_51
   20  A    between atoms: S_44  and  N_49
   21  A    between atoms: N_49  and  C_51
                            x       y       z     vdW  Elec       q    Type
                         _______ _______ _______ _____ _____    ______ ____

>  <TORSDO>
F 21

$$$$
=
 OpenBabel11062412363D

 51 55  0  0  1  0  0  0  0  0999 V2000
  186.3820  177.8500  137.9420 C   0  0  0  0  0  3  0  0  0  0  0  0
  185.5380  177.2850  135.3380 C   0  0  0  0  0  3  0  0  0  0  0  0
  186.6180  178.1450  135.5530 C   0  0  0  0  0  3  0  0  0  0  0  0
  184.8850  176.6870  136.4260 C   0  0  0  0  0  0  0  0  0  0  0  0
  185.3020  176.9910  137.7270 C   0  0  0  0  0  3  0  0  0  0  0  0
  187.0470  178.4310  136.8590 C   0  0  0  0  0  0  0  0  0  0  0  0
  182.8770  175.6160  137.5040 C   0  0  0  0  0  2  0  0  0  0  0  0
  182.3540  176.5410  136.4340 C   0  0  2  0  0  0  0  0  0  0  0  0
  183.6810  175.8110  136.2210 C   0  0  1  0  0  3  0  0  0  0  0  0
  182.2940  177.9790  136.9400 C   0  0  0  0  0  2  0  0  0  0  0  0
  181.4090  178.0660  138.0900 N   0  0  0  0  0  2  0  0  0  0  0  0
  183.3540  179.7310  138.7410 O   0  0  0  0  0  0  0  0  0  0  0  0
  182.2480  178.9120  139.3450 S   0  0  0  0  0  0  0  0  0  0  0  0
  181.3020  179.8170  140.0860 O   0  0  0  0  0  0  0  0  0  0  0  0
  182.9550  177.7290  140.4780 C   0  0  0  0  0  2  0  0  0  0  0  0
  185.2610  178.6730  143.3780 C   0  0  0  0  0  2  0  0  0  0  0  0
  184.2410  179.2870  144.2970 C   0  0  0  0  0  3  0  0  0  0  0  0
  183.3830  178.3850  141.7470 C   0  0  0  0  0  0  0  0  0  0  0  0
  182.9380  179.2230  143.9990 C   0  0  0  0  0  3  0  0  0  0  0  0
  184.8220  178.7990  141.9160 C   0  0  0  0  0  2  0  0  0  0  0  0
  182.4960  178.6280  142.7220 C   0  0  0  0  0  3  0  0  0  0  0  0
  181.1340  175.9520  135.7400 C   0  0  0  0  0  2  0  0  0  0  0  0
  180.6320  174.7050  136.4500 C   0  0  2  0  0  3  0  0  0  0  0  0
  180.6620  173.5430  135.4770 C   0  0  0  0  0  1  0  0  0  0  0  0
  179.2220  175.3070  138.4150 C   0  0  0  0  0  1  0  0  0  0  0  0
  179.2120  174.9200  136.9490 C   0  0  0  0  0  2  0  0  0  0  0  0
  188.1250  179.2880  137.1050 O   0  0  0  0  0  0  0  0  0  0  0  0
  189.4130  178.8210  137.4950 C   0  0  0  0  0  2  0  0  0  0  0  0
  189.4800  177.3020  137.3950 C   0  0  1  0  0  3  0  0  0  0  0  0
  189.4700  176.2180  135.2910 O   0  0  0  0  0  0  0  0  0  0  0  0
  190.1050  176.8760  136.0990 C   0  0  0  0  0  3  0  0  0  0  0  0
  190.2210  176.7330  138.6080 C   0  0  1  0  0  3  0  0  0  0  0  0
  193.3650  175.2120  137.6530 C   0  0  0  0  0  0  0  0  0  0  0  0
  192.0500  175.2840  137.5430 C   0  0  0  0  0  0  0  0  0  0  0  0
  193.8900  176.1700  138.4350 N   0  0  0  0  0  2  0  0  0  0  0  0
  192.5970  173.2600  137.3210 C   0  0  0  0  0  3  0  0  0  0  0  0
  193.7570  173.9430  137.5160 N   0  0  0  0  0  0  0  0  0  0  0  0
  192.8070  176.9260  138.7830 C   0  0  0  0  0  3  0  0  0  0  0  0
  195.0590  173.3770  137.8140 C   0  0  0  0  0  1  0  0  0  0  0  0
  191.6310  176.3710  138.2590 C   0  0  0  0  0  0  0  0  0  0  0  0
  191.4970  174.0720  137.3610 N   0  0  0  0  0  0  0  0  0  0  0  0
  190.1920  177.6170  139.6940 O   0  0  0  0  0  0  0  0  0  0  0  0
  189.5120  176.9350  140.7100 C   0  0  0  0  0  2  0  0  0  0  0  0
  190.4440  176.6510  141.8820 C   0  0  0  0  0  2  0  0  0  0  0  0
  189.7060  176.7230  143.2130 C   0  0  2  0  0  3  0  0  0  0  0  0
  188.3600  177.0160  142.9770 O   0  0  0  0  0  1  0  0  0  0  0  0
  191.5170  178.3530  143.4750 N   0  0  0  0  0  1  0  0  0  0  0  0
  190.3200  177.8070  144.0970 C   0  0  2  0  0  3  0  0  0  0  0  0
  190.6630  177.2680  145.4510 C   0  0  0  0  0  0  0  0  0  0  0  0
  191.8620  177.2110  145.8350 O   0  0  0  0  0  0  0  0  0  0  0  0
  189.6510  176.8020  146.2810 O   0  0  0  0  0  1  0  0  0  0  0  0
  2  3  2  0  0  0  0
  2  4  1  0  0  0  0
  3  6  1  0  0  0  0
  4  5  2  0  0  0  0
  5  1  1  0  0  0  0
  6 27  1  0  0  0  0
  6  1  2  0  0  0  0
  8 22  1  6  0  0  0
  8 10  1  0  0  0  0
  8  7  1  0  0  0  0
  9  4  1  1  0  0  0
  9  8  1  0  0  0  0
  9  7  1  0  0  0  0
 10 11  1  0  0  0  0
 11 13  1  0  0  0  0
 12 13  2  0  0  0  0
 13 14  2  0  0  0  0
 13 15  1  0  0  0  0
 15 18  1  0  0  0  0
 16 17  1  0  0  0  0
 18 20  1  0  0  0  0
 18 21  2  0  0  0  0
 19 17  2  0  0  0  0
 20 16  1  0  0  0  0
 21 19  1  0  0  0  0
 22 23  1  0  0  0  0
 23 24  1  6  0  0  0
 23 26  1  0  0  0  0
 26 25  1  0  0  0  0
 27 28  1  0  0  0  0
 29 31  1  6  0  0  0
 29 28  1  0  0  0  0
 29 32  1  0  0  0  0
 30 31  2  0  0  0  0
 32 42  1  1  0  0  0
 33 35  1  0  0  0  0
 34 33  2  0  0  0  0
 34 40  1  0  0  0  0
 35 38  1  0  0  0  0
 36 41  2  0  0  0  0
 36 37  1  0  0  0  0
 37 33  1  0  0  0  0
 37 39  1  0  0  0  0
 40 32  1  0  0  0  0
 40 38  2  0  0  0  0
 41 34  1  0  0  0  0
 42 43  1  0  0  0  0
 43 44  1  0  0  0  0
 44 45  1  0  0  0  0
 45 46  1  6  0  0  0
 45 48  1  0  0  0  0
 48 47  1  6  0  0  0
 48 49  1  0  0  0  0
 49 50  2  0  0  0  0
 49 51  1  0  0  0  0
M  END
>  <MODEL>
6

>  <REMARK>
 VINA RESULT:      -6.5      2.078      3.139
  Name = 
  21 active torsions:
  status: ('A' for Active; 'I' for Inactive)
    1  A    between atoms: C_2  and  C_15
    2  A    between atoms: C_2  and  CA_19
    3  A    between atoms: C_4  and  C_37
    4  A    between atoms: C_4  and  C_48
    5  A    between atoms: C_9  and  C_20
    6  A    between atoms: C_9  and  O_41
    7  A    between atoms: C_14  and  CA_19
    8  A    between atoms: C_15  and  C_38
    9  A    between atoms: C_20  and  C_26
   10  A    between atoms: C_20  and  C_47
   11  A    between atoms: O_21  and  C_38
   12  A    between atoms: O_21  and  C_47
   13  A    between atoms: C_30  and  C_33
   14  A    between atoms: C_32  and  C_50
   15  A    between atoms: C_33  and  S_44
   16  A    between atoms: C_39  and  C_47
   17  A    between atoms: C_40  and  O_41
   18  A    between atoms: C_43  and  C_48
   19  A    between atoms: C_43  and  C_51
   20  A    between atoms: S_44  and  N_49
   21  A    between atoms: N_49  and  C_51
                            x       y       z     vdW  Elec       q    Type
                         _______ _______ _______ _____ _____    ______ ____

>  <TORSDO>
F 21

$$$$
=
 OpenBabel11062412363D

 51 55  0  0  1  0  0  0  0  0999 V2000
  185.0960  178.8220  142.0510 C   0  0  0  0  0  3  0  0  0  0  0  0
  184.1430  178.4440  144.6510 C   0  0  0  0  0  3  0  0  0  0  0  0
  183.2460  178.6300  143.5960 C   0  0  0  0  0  3  0  0  0  0  0  0
  185.5240  178.4270  144.4070 C   0  0  0  0  0  0  0  0  0  0  0  0
  185.9930  178.6370  143.1050 C   0  0  0  0  0  3  0  0  0  0  0  0
  183.7200  178.8190  142.2880 C   0  0  0  0  0  0  0  0  0  0  0  0
  187.0080  176.8620  145.7050 C   0  0  0  0  0  2  0  0  0  0  0  0
  187.9110  177.8920  145.0750 C   0  0  2  0  0  0  0  0  0  0  0  0
  186.5080  178.2940  145.5350 C   0  0  1  0  0  3  0  0  0  0  0  0
  188.2150  177.5340  143.6230 C   0  0  0  0  0  2  0  0  0  0  0  0
  189.5830  177.9020  143.2970 N   0  0  0  0  0  2  0  0  0  0  0  0
  191.2090  177.9330  141.2140 O   0  0  0  0  0  0  0  0  0  0  0  0
  189.9200  177.3290  141.6990 S   0  0  0  0  0  0  0  0  0  0  0  0
  190.0390  175.8290  141.6970 O   0  0  0  0  0  0  0  0  0  0  0  0
  188.6000  177.8270  140.6070 C   0  0  0  0  0  2  0  0  0  0  0  0
  188.6770  178.5790  136.8590 C   0  0  0  0  0  2  0  0  0  0  0  0
  189.4020  177.3480  136.3890 C   0  0  0  0  0  3  0  0  0  0  0  0
  189.0000  177.6890  139.1770 C   0  0  0  0  0  0  0  0  0  0  0  0
  189.6670  176.3520  137.2430 C   0  0  0  0  0  3  0  0  0  0  0  0
  189.0580  178.9160  138.3050 C   0  0  0  0  0  2  0  0  0  0  0  0
  189.3300  176.4910  138.6730 C   0  0  0  0  0  3  0  0  0  0  0  0
  189.0610  178.2610  146.0010 C   0  0  0  0  0  2  0  0  0  0  0  0
  189.4150  177.1190  146.9390 C   0  0  2  0  0  3  0  0  0  0  0  0
  189.5290  177.6640  148.3500 C   0  0  0  0  0  1  0  0  0  0  0  0
  191.6700  176.3950  147.7170 C   0  0  0  0  0  1  0  0  0  0  0  0
  190.7350  176.4880  146.5250 C   0  0  0  0  0  2  0  0  0  0  0  0
  182.8450  179.0080  141.2110 O   0  0  0  0  0  0  0  0  0  0  0  0
  182.5760  177.9960  140.2450 C   0  0  0  0  0  2  0  0  0  0  0  0
  182.2620  178.6230  138.8930 C   0  0  1  0  0  3  0  0  0  0  0  0
  184.0750  177.3680  138.0330 O   0  0  0  0  0  0  0  0  0  0  0  0
  183.0240  177.9390  137.7960 C   0  0  0  0  0  3  0  0  0  0  0  0
  180.7510  178.6010  138.6460 C   0  0  1  0  0  3  0  0  0  0  0  0
  179.7190  182.0240  138.0750 C   0  0  0  0  0  0  0  0  0  0  0  0
  180.0570  180.8380  137.6010 C   0  0  0  0  0  0  0  0  0  0  0  0
  179.6300  182.0590  139.4160 N   0  0  0  0  0  2  0  0  0  0  0  0
  180.7680  182.2900  136.2480 C   0  0  0  0  0  3  0  0  0  0  0  0
  180.1500  182.9780  137.2450 N   0  0  0  0  0  0  0  0  0  0  0  0
  179.8760  180.7680  139.7850 C   0  0  0  0  0  3  0  0  0  0  0  0
  180.2230  184.4050  137.4920 C   0  0  0  0  0  1  0  0  0  0  0  0
  180.1800  179.9850  138.6630 C   0  0  0  0  0  0  0  0  0  0  0  0
  180.7540  180.9380  136.4550 N   0  0  0  0  0  0  0  0  0  0  0  0
  180.4310  177.9490  137.4480 O   0  0  0  0  0  0  0  0  0  0  0  0
  179.4900  176.9740  137.7960 C   0  0  0  0  0  2  0  0  0  0  0  0
  179.7110  175.7030  136.9840 C   0  0  0  0  0  2  0  0  0  0  0  0
  180.1150  174.5340  137.8740 C   0  0  2  0  0  3  0  0  0  0  0  0
  181.1840  174.9220  138.6860 O   0  0  0  0  0  1  0  0  0  0  0  0
  180.3690  172.0990  137.7650 N   0  0  0  0  0  1  0  0  0  0  0  0
  180.5270  173.3380  137.0180 C   0  0  2  0  0  3  0  0  0  0  0  0
  181.9460  173.4670  136.5580 C   0  0  0  0  0  0  0  0  0  0  0  0
  182.8710  172.8510  137.1510 O   0  0  0  0  0  1  0  0  0  0  0  0
  182.2470  174.2940  135.4830 O   0  0  0  0  0  0  0  0  0  0  0  0
  1  6  2  0  0  0  0
  1  5  1  0  0  0  0
  3  2  2  0  0  0  0
  4  2  1  0  0  0  0
  5  4  2  0  0  0  0
  6  3  1  0  0  0  0
  8 10  1  6  0  0  0
  8  9  1  0  0  0  0
  8  7  1  0  0  0  0
  8 22  1  0  0  0  0
  9  4  1  6  0  0  0
  9  7  1  0  0  0  0
 11 10  1  0  0  0  0
 12 13  2  0  0  0  0
 13 11  1  0  0  0  0
 14 13  2  0  0  0  0
 15 13  1  0  0  0  0
 16 20  1  0  0  0  0
 17 16  1  0  0  0  0
 17 19  2  0  0  0  0
 18 15  1  0  0  0  0
 19 21  1  0  0  0  0
 20 18  1  0  0  0  0
 21 18  2  0  0  0  0
 22 23  1  0  0  0  0
 23 24  1  1  0  0  0
 26 23  1  0  0  0  0
 26 25  1  0  0  0  0
 27  6  1  0  0  0  0
 28 27  1  0  0  0  0
 29 31  1  6  0  0  0
 29 28  1  0  0  0  0
 31 30  2  0  0  0  0
 32 42  1  6  0  0  0
 32 40  1  0  0  0  0
 32 29  1  0  0  0  0
 33 35  1  0  0  0  0
 34 33  2  0  0  0  0
 34 40  1  0  0  0  0
 35 38  1  0  0  0  0
 36 41  2  0  0  0  0
 36 37  1  0  0  0  0
 37 39  1  0  0  0  0
 37 33  1  0  0  0  0
 40 38  2  0  0  0  0
 41 34  1  0  0  0  0
 42 43  1  0  0  0  0
 44 43  1  0  0  0  0
 44 45  1  0  0  0  0
 45 46  1  6  0  0  0
 48 47  1  1  0  0  0
 48 45  1  0  0  0  0
 49 48  1  0  0  0  0
 49 50  1  0  0  0  0
 51 49  2  0  0  0  0
M  END
>  <MODEL>
7

>  <REMARK>
 VINA RESULT:      -6.3      3.128     11.068
  Name = 
  21 active torsions:
  status: ('A' for Active; 'I' for Inactive)
    1  A    between atoms: C_2  and  C_15
    2  A    between atoms: C_2  and  CA_19
    3  A    between atoms: C_4  and  C_37
    4  A    between atoms: C_4  and  C_48
    5  A    between atoms: C_9  and  C_20
    6  A    between atoms: C_9  and  O_41
    7  A    between atoms: C_14  and  CA_19
    8  A    between atoms: C_15  and  C_38
    9  A    between atoms: C_20  and  C_26
   10  A    between atoms: C_20  and  C_47
   11  A    between atoms: O_21  and  C_38
   12  A    between atoms: O_21  and  C_47
   13  A    between atoms: C_30  and  C_33
   14  A    between atoms: C_32  and  C_50
   15  A    between atoms: C_33  and  S_44
   16  A    between atoms: C_39  and  C_47
   17  A    between atoms: C_40  and  O_41
   18  A    between atoms: C_43  and  C_48
   19  A    between atoms: C_43  and  C_51
   20  A    between atoms: S_44  and  N_49
   21  A    between atoms: N_49  and  C_51
                            x       y       z     vdW  Elec       q    Type
                         _______ _______ _______ _____ _____    ______ ____

>  <TORSDO>
F 21

$$$$
=
 OpenBabel11062412363D

 51 55  0  0  1  0  0  0  0  0999 V2000
  186.1920  178.9070  141.1380 C   0  0  0  0  0  3  0  0  0  0  0  0
  184.4540  178.3080  143.2430 C   0  0  0  0  0  3  0  0  0  0  0  0
  183.9600  178.4360  141.9420 C   0  0  0  0  0  3  0  0  0  0  0  0
  185.8250  178.4620  143.4960 C   0  0  0  0  0  0  0  0  0  0  0  0
  186.6850  178.7810  142.4390 C   0  0  0  0  0  3  0  0  0  0  0  0
  184.8290  178.7350  140.8810 C   0  0  0  0  0  0  0  0  0  0  0  0
  186.6300  176.9600  145.3490 C   0  0  0  0  0  2  0  0  0  0  0  0
  187.7930  177.8420  144.9700 C   0  0  2  0  0  0  0  0  0  0  0  0
  186.3670  178.3940  144.8950 C   0  0  1  0  0  3  0  0  0  0  0  0
  188.5140  177.2950  143.7420 C   0  0  0  0  0  2  0  0  0  0  0  0
  189.8620  177.8340  143.6760 N   0  0  0  0  0  2  0  0  0  0  0  0
  191.8870  176.1400  143.7920 O   0  0  0  0  0  0  0  0  0  0  0  0
  190.8540  176.6840  142.8450 S   0  0  0  0  0  0  0  0  0  0  0  0
  190.0120  175.5540  142.3190 O   0  0  0  0  0  0  0  0  0  0  0  0
  191.6810  177.4960  141.4880 C   0  0  0  0  0  2  0  0  0  0  0  0
  188.6900  177.1250  139.1350 C   0  0  0  0  0  2  0  0  0  0  0  0
  189.4090  176.5900  137.9270 C   0  0  0  0  0  3  0  0  0  0  0  0
  190.9470  177.2890  140.2060 C   0  0  0  0  0  0  0  0  0  0  0  0
  190.7040  176.2650  138.0010 C   0  0  0  0  0  3  0  0  0  0  0  0
  189.6280  177.9840  139.9900 C   0  0  0  0  0  2  0  0  0  0  0  0
  191.4630  176.5130  139.2430 C   0  0  0  0  0  3  0  0  0  0  0  0
  188.6110  178.2370  146.1910 C   0  0  0  0  0  2  0  0  0  0  0  0
  188.4330  177.2450  147.3300 C   0  0  2  0  0  3  0  0  0  0  0  0
  188.3240  178.0130  148.6330 C   0  0  0  0  0  1  0  0  0  0  0  0
  190.9110  177.0540  147.1540 C   0  0  0  0  0  1  0  0  0  0  0  0
  189.6190  176.2960  147.3910 C   0  0  0  0  0  2  0  0  0  0  0  0
  184.3640  178.8680  139.5680 O   0  0  0  0  0  0  0  0  0  0  0  0
  182.9790  178.9350  139.2400 C   0  0  0  0  0  2  0  0  0  0  0  0
  182.7150  178.2460  137.9070 C   0  0  1  0  0  3  0  0  0  0  0  0
  183.7580  176.4560  136.7620 O   0  0  0  0  0  0  0  0  0  0  0  0
  183.9010  177.4310  137.4810 C   0  0  0  0  0  3  0  0  0  0  0  0
  181.4410  177.4040  138.0000 C   0  0  1  0  0  3  0  0  0  0  0  0
  179.4440  179.0070  140.5600 C   0  0  0  0  0  0  0  0  0  0  0  0
  179.8140  178.9050  139.2950 C   0  0  0  0  0  0  0  0  0  0  0  0
  179.9670  178.0530  141.3490 N   0  0  0  0  0  2  0  0  0  0  0  0
  179.4460  180.9430  139.6880 C   0  0  0  0  0  3  0  0  0  0  0  0
  179.1970  180.2860  140.8520 N   0  0  0  0  0  0  0  0  0  0  0  0
  180.6680  177.2690  140.4780 C   0  0  0  0  0  3  0  0  0  0  0  0
  179.0160  180.8800  142.1640 C   0  0  0  0  0  1  0  0  0  0  0  0
  180.6140  177.8010  139.1820 C   0  0  0  0  0  0  0  0  0  0  0  0
  179.8650  180.1060  138.6910 N   0  0  0  0  0  0  0  0  0  0  0  0
  180.6850  177.4770  136.8220 O   0  0  0  0  0  0  0  0  0  0  0  0
  179.8300  176.3700  136.8600 C   0  0  0  0  0  2  0  0  0  0  0  0
  180.6310  175.0750  136.9150 C   0  0  0  0  0  2  0  0  0  0  0  0
  179.7220  173.8600  137.0530 C   0  0  2  0  0  3  0  0  0  0  0  0
  179.5010  173.6040  138.4090 O   0  0  0  0  0  1  0  0  0  0  0  0
  180.5130  171.5610  137.3630 N   0  0  0  0  0  1  0  0  0  0  0  0
  180.3700  172.6410  136.3980 C   0  0  2  0  0  3  0  0  0  0  0  0
  181.7120  172.9840  135.8290 C   0  0  0  0  0  0  0  0  0  0  0  0
  181.8270  173.3390  134.6260 O   0  0  0  0  0  0  0  0  0  0  0  0
  182.8430  172.8860  136.6290 O   0  0  0  0  0  1  0  0  0  0  0  0
  1  5  1  0  0  0  0
  2  4  1  0  0  0  0
  3  2  2  0  0  0  0
  5  4  2  0  0  0  0
  6  1  2  0  0  0  0
  6  3  1  0  0  0  0
  8 10  1  6  0  0  0
  8  7  1  0  0  0  0
  8 22  1  0  0  0  0
  9  4  1  6  0  0  0
  9  8  1  0  0  0  0
  9  7  1  0  0  0  0
 11 10  1  0  0  0  0
 13 11  1  0  0  0  0
 13 12  2  0  0  0  0
 14 13  2  0  0  0  0
 15 13  1  0  0  0  0
 16 20  1  0  0  0  0
 17 19  2  0  0  0  0
 17 16  1  0  0  0  0
 18 15  1  0  0  0  0
 19 21  1  0  0  0  0
 20 18  1  0  0  0  0
 21 18  2  0  0  0  0
 22 23  1  0  0  0  0
 23 26  1  0  0  0  0
 23 24  1  1  0  0  0
 25 26  1  0  0  0  0
 27  6  1  0  0  0  0
 28 27  1  0  0  0  0
 29 31  1  1  0  0  0
 29 32  1  0  0  0  0
 29 28  1  0  0  0  0
 30 31  2  0  0  0  0
 32 42  1  6  0  0  0
 32 40  1  0  0  0  0
 33 37  1  0  0  0  0
 33 35  1  0  0  0  0
 34 33  2  0  0  0  0
 36 37  1  0  0  0  0
 37 39  1  0  0  0  0
 38 35  1  0  0  0  0
 40 34  1  0  0  0  0
 40 38  2  0  0  0  0
 41 34  1  0  0  0  0
 41 36  2  0  0  0  0
 42 43  1  0  0  0  0
 43 44  1  0  0  0  0
 44 45  1  0  0  0  0
 45 46  1  1  0  0  0
 48 45  1  0  0  0  0
 48 47  1  1  0  0  0
 49 48  1  0  0  0  0
 49 51  1  0  0  0  0
 50 49  2  0  0  0  0
M  END
>  <MODEL>
8

>  <REMARK>
 VINA RESULT:      -6.3      3.400     11.022
  Name = 
  21 active torsions:
  status: ('A' for Active; 'I' for Inactive)
    1  A    between atoms: C_2  and  C_15
    2  A    between atoms: C_2  and  CA_19
    3  A    between atoms: C_4  and  C_37
    4  A    between atoms: C_4  and  C_48
    5  A    between atoms: C_9  and  C_20
    6  A    between atoms: C_9  and  O_41
    7  A    between atoms: C_14  and  CA_19
    8  A    between atoms: C_15  and  C_38
    9  A    between atoms: C_20  and  C_26
   10  A    between atoms: C_20  and  C_47
   11  A    between atoms: O_21  and  C_38
   12  A    between atoms: O_21  and  C_47
   13  A    between atoms: C_30  and  C_33
   14  A    between atoms: C_32  and  C_50
   15  A    between atoms: C_33  and  S_44
   16  A    between atoms: C_39  and  C_47
   17  A    between atoms: C_40  and  O_41
   18  A    between atoms: C_43  and  C_48
   19  A    between atoms: C_43  and  C_51
   20  A    between atoms: S_44  and  N_49
   21  A    between atoms: N_49  and  C_51
                            x       y       z     vdW  Elec       q    Type
                         _______ _______ _______ _____ _____    ______ ____

>  <TORSDO>
F 21

$$$$
=
 OpenBabel11062412363D

 51 55  0  0  1  0  0  0  0  0999 V2000
  185.2030  178.3490  138.1570 C   0  0  0  0  0  3  0  0  0  0  0  0
  186.4420  176.2310  136.8180 C   0  0  0  0  0  3  0  0  0  0  0  0
  185.1080  176.1210  137.2190 C   0  0  0  0  0  3  0  0  0  0  0  0
  187.1590  177.4100  137.0690 C   0  0  0  0  0  0  0  0  0  0  0  0
  186.5370  178.4580  137.7570 C   0  0  0  0  0  3  0  0  0  0  0  0
  184.4800  177.1830  137.8910 C   0  0  0  0  0  0  0  0  0  0  0  0
  189.3200  178.6360  137.4770 C   0  0  0  0  0  2  0  0  0  0  0  0
  189.5570  177.1980  137.8640 C   0  0  2  0  0  0  0  0  0  0  0  0
  188.6130  177.5250  136.7050 C   0  0  1  0  0  3  0  0  0  0  0  0
  189.0440  176.9220  139.2730 C   0  0  0  0  0  2  0  0  0  0  0  0
  189.8700  177.6150  140.2480 N   0  0  0  0  0  2  0  0  0  0  0  0
  189.5500  178.9950  142.4790 O   0  0  0  0  0  0  0  0  0  0  0  0
  188.8950  177.9320  141.6420 S   0  0  0  0  0  0  0  0  0  0  0  0
  187.5260  178.3960  141.2260 O   0  0  0  0  0  0  0  0  0  0  0  0
  188.7520  176.4390  142.6090 C   0  0  0  0  0  2  0  0  0  0  0  0
  187.1280  177.9830  145.7070 C   0  0  0  0  0  2  0  0  0  0  0  0
  188.2130  177.6930  146.7080 C   0  0  0  0  0  3  0  0  0  0  0  0
  188.5460  176.7480  144.0540 C   0  0  0  0  0  0  0  0  0  0  0  0
  189.3840  177.1840  146.3080 C   0  0  0  0  0  3  0  0  0  0  0  0
  187.1470  176.9550  144.5720 C   0  0  0  0  0  2  0  0  0  0  0  0
  189.5900  176.8190  144.8920 C   0  0  0  0  0  3  0  0  0  0  0  0
  190.9620  176.7480  137.4880 C   0  0  0  0  0  2  0  0  0  0  0  0
  191.1800  175.2750  137.7960 C   0  0  2  0  0  3  0  0  0  0  0  0
  192.6530  174.9550  137.6350 C   0  0  0  0  0  1  0  0  0  0  0  0
  190.7070  174.7410  135.4080 C   0  0  0  0  0  1  0  0  0  0  0  0
  190.3610  174.4130  136.8480 C   0  0  0  0  0  2  0  0  0  0  0  0
  183.1460  177.1020  138.3040 O   0  0  0  0  0  0  0  0  0  0  0  0
  182.0760  177.7170  137.5930 C   0  0  0  0  0  2  0  0  0  0  0  0
  181.3100  178.6680  138.5030 C   0  0  1  0  0  3  0  0  0  0  0  0
  181.4060  181.0320  138.5930 O   0  0  0  0  0  0  0  0  0  0  0  0
  181.2340  180.0410  137.9010 C   0  0  0  0  0  3  0  0  0  0  0  0
  179.9240  178.0950  138.8070 C   0  0  1  0  0  3  0  0  0  0  0  0
  179.3020  175.2770  136.6210 C   0  0  0  0  0  0  0  0  0  0  0  0
  179.5540  175.7540  137.8270 C   0  0  2  0  0  3  0  0  0  0  0  0
  179.1040  176.2330  135.6970 N   0  0  0  0  0  0  0  0  0  0  0  0
  180.5220  173.8880  137.6660 C   0  0  0  0  0  3  0  0  0  0  0  0
  179.8970  174.0900  136.4760 N   0  0  0  0  0  0  0  0  0  0  0  0
  179.1840  177.3910  136.4160 C   0  0  0  0  0  3  0  0  0  0  0  0
  180.0960  173.3400  135.2500 C   0  0  0  0  0  1  0  0  0  0  0  0
  179.4980  177.1190  137.7550 C   0  0  0  0  0  0  0  0  0  0  0  0
  180.3520  174.9320  138.5330 N   0  0  0  0  0  0  0  0  0  0  0  0
  179.8750  177.5050  140.0770 O   0  0  0  0  0  0  0  0  0  0  0  0
  180.1210  178.5450  140.9800 C   0  0  0  0  0  2  0  0  0  0  0  0
  180.6710  177.9980  142.2920 C   0  0  0  0  0  2  0  0  0  0  0  0
  181.2410  179.1080  143.1660 C   0  0  2  0  0  3  0  0  0  0  0  0
  180.5310  180.2880  142.9310 O   0  0  0  0  0  1  0  0  0  0  0  0
  183.2120  178.2600  141.9840 N   0  0  0  0  0  1  0  0  0  0  0  0
  182.7190  179.3230  142.8460 C   0  0  2  0  0  3  0  0  0  0  0  0
  183.5390  179.3730  144.0980 C   0  0  0  0  0  0  0  0  0  0  0  0
  183.0500  179.0130  145.2010 O   0  0  0  0  0  1  0  0  0  0  0  0
  184.8450  179.8440  144.0440 O   0  0  0  0  0  0  0  0  0  0  0  0
  2  4  2  0  0  0  0
  2  3  1  0  0  0  0
  3  6  2  0  0  0  0
  4  5  1  0  0  0  0
  5  1  2  0  0  0  0
  6  1  1  0  0  0  0
  6 27  1  0  0  0  0
  7  8  1  0  0  0  0
  8 22  1  6  0  0  0
  8 10  1  0  0  0  0
  9  4  1  1  0  0  0
  9  7  1  0  0  0  0
  9  8  1  0  0  0  0
 10 11  1  0  0  0  0
 11 13  1  0  0  0  0
 13 12  2  0  0  0  0
 13 15  1  0  0  0  0
 14 13  2  0  0  0  0
 15 18  1  0  0  0  0
 16 17  1  0  0  0  0
 18 20  1  0  0  0  0
 18 21  2  0  0  0  0
 19 17  2  0  0  0  0
 20 16  1  0  0  0  0
 21 19  1  0  0  0  0
 22 23  1  0  0  0  0
 23 24  1  6  0  0  0
 25 26  1  0  0  0  0
 26 23  1  0  0  0  0
 28 27  1  0  0  0  0
 29 28  1  6  0  0  0
 29 32  1  0  0  0  0
 31 29  1  0  0  0  0
 31 30  2  0  0  0  0
 32 42  1  1  0  0  0
 34 33  1  6  0  0  0
 34 41  1  0  0  0  0
 35 38  1  0  0  0  0
 35 33  2  0  0  0  0
 36 41  2  0  0  0  0
 37 33  1  0  0  0  0
 37 36  1  0  0  0  0
 38 40  2  0  0  0  0
 39 37  1  0  0  0  0
 40 34  1  0  0  0  0
 40 32  1  0  0  0  0
 42 43  1  0  0  0  0
 43 44  1  0  0  0  0
 44 45  1  0  0  0  0
 45 46  1  6  0  0  0
 48 47  1  6  0  0  0
 48 45  1  0  0  0  0
 48 49  1  0  0  0  0
 49 50  1  0  0  0  0
 51 49  2  0  0  0  0
M  END
>  <MODEL>
9

>  <REMARK>
 VINA RESULT:      -6.3      2.892      9.280
  Name = 
  21 active torsions:
  status: ('A' for Active; 'I' for Inactive)
    1  A    between atoms: C_2  and  C_15
    2  A    between atoms: C_2  and  CA_19
    3  A    between atoms: C_4  and  C_37
    4  A    between atoms: C_4  and  C_48
    5  A    between atoms: C_9  and  C_20
    6  A    between atoms: C_9  and  O_41
    7  A    between atoms: C_14  and  CA_19
    8  A    between atoms: C_15  and  C_38
    9  A    between atoms: C_20  and  C_26
   10  A    between atoms: C_20  and  C_47
   11  A    between atoms: O_21  and  C_38
   12  A    between atoms: O_21  and  C_47
   13  A    between atoms: C_30  and  C_33
   14  A    between atoms: C_32  and  C_50
   15  A    between atoms: C_33  and  S_44
   16  A    between atoms: C_39  and  C_47
   17  A    between atoms: C_40  and  O_41
   18  A    between atoms: C_43  and  C_48
   19  A    between atoms: C_43  and  C_51
   20  A    between atoms: S_44  and  N_49
   21  A    between atoms: N_49  and  C_51
                            x       y       z     vdW  Elec       q    Type
                         _______ _______ _______ _____ _____    ______ ____

>  <TORSDO>
F 21

$$$$
