=
 OpenBabel11062413323D

 28 31  0  0  1  0  0  0  0  0999 V2000
  185.4110  175.9690  136.6050 C   0  0  0  0  0  2  0  0  0  0  0  0
  182.0590  177.8090  138.1400 N   0  0  0  0  0  2  0  0  0  0  0  0
  184.6270  176.7320  137.6510 C   0  0  2  0  0  3  0  0  0  0  0  0
  183.7310  177.0740  136.5160 C   0  0  1  0  0  3  0  0  0  0  0  0
  184.6520  179.9360  139.4620 O   0  0  0  0  0  1  0  0  0  0  0  0
  181.4450  175.5980  136.7760 S   0  0  0  0  0  0  0  0  0  0  0  0
  184.3150  176.0730  135.6360 N   0  0  0  0  0  2  0  0  0  0  0  0
  184.1170  178.7000  139.0840 C   0  0  2  0  0  0  0  0  0  0  0  0
  185.1010  177.9870  138.2190 N   0  0  0  0  0  0  0  0  0  0  0  0
  182.8400  178.9710  138.3660 N   0  0  0  0  0  2  0  0  0  0  0  0
  182.3650  176.9200  137.0570 C   0  0  0  0  0  0  0  0  0  0  0  0
  188.4730  178.6120  136.7990 C   0  0  0  0  0  3  0  0  0  0  0  0
  187.1970  178.8000  137.1350 C   0  0  0  0  0  3  0  0  0  0  0  0
  187.1280  178.0280  139.5010 C   0  0  0  0  0  3  0  0  0  0  0  0
  188.5510  178.2520  139.8220 C   0  0  0  0  0  3  0  0  0  0  0  0
  189.3870  177.7020  137.5490 C   0  0  0  0  0  2  0  0  0  0  0  0
  189.5620  178.1500  138.9600 C   0  0  0  0  0  3  0  0  0  0  0  0
  186.5180  178.2210  138.3170 C   0  0  0  0  0  0  0  0  0  0  0  0
  183.8680  177.8760  140.3580 C   0  0  0  0  0  2  0  0  0  0  0  0
  184.1800  178.8490  143.7900 C   0  0  0  0  0  3  0  0  0  0  0  0
  183.1410  178.6540  141.4060 C   0  0  0  0  0  3  0  0  0  0  0  0
  183.6550  178.7590  142.5980 C   0  0  0  0  0  0  0  0  0  0  0  0
  185.4930  178.2750  144.1190 C   0  0  0  0  0  0  0  0  0  0  0  0
  187.9850  177.1910  144.8150 C   0  0  0  0  0  3  0  0  0  0  0  0
  186.3710  177.8140  143.1230 C   0  0  0  0  0  3  0  0  0  0  0  0
  187.6120  177.2740  143.4710 C   0  0  0  0  0  3  0  0  0  0  0  0
  185.8750  178.1900  145.4630 C   0  0  0  0  0  3  0  0  0  0  0  0
  187.1160  177.6480  145.8110 C   0  0  0  0  0  3  0  0  0  0  0  0
  2 10  1  0  0  0  0
  3  1  1  6  0  0  0
  3  9  1  0  0  0  0
  4  7  1  6  0  0  0
  4 11  1  0  0  0  0
  4  3  1  0  0  0  0
  6 11  2  0  0  0  0
  7  1  1  0  0  0  0
  8  5  1  1  0  0  0
  8 19  1  0  0  0  0
  9 18  1  0  0  0  0
  9  8  1  0  0  0  0
 10  8  1  0  0  0  0
 11  2  1  0  0  0  0
 12 13  2  0  0  0  0
 12 16  1  0  0  0  0
 13 18  1  0  0  0  0
 14 15  1  0  0  0  0
 16 17  1  0  0  0  0
 17 15  2  0  0  0  0
 18 14  2  0  0  0  0
 19 21  1  0  0  0  0
 20 23  1  0  0  0  0
 21 22  2  0  0  0  0
 22 20  2  0  0  0  0
 23 27  1  0  0  0  0
 24 28  1  0  0  0  0
 25 26  1  0  0  0  0
 25 23  2  0  0  0  0
 26 24  2  0  0  0  0
 27 28  2  0  0  0  0
M  END
>  <MODEL>
1

>  <REMARK>
 VINA RESULT:      -8.0      0.000      0.000
  Name = 
  4 active torsions:
  status: ('A' for Active; 'I' for Inactive)
    1  A    between atoms: C_3  and  C_15
    2  A    between atoms: C_3  and  C_22
    3  A    between atoms: C_4  and  C_12
    4  A    between atoms: N_16  and  C_28
                            x       y       z     vdW  Elec       q    Type
                         _______ _______ _______ _____ _____    ______ ____

>  <TORSDO>
F 4

$$$$
=
 OpenBabel11062413323D

 28 31  0  0  1  0  0  0  0  0999 V2000
  186.7250  176.7650  137.6310 C   0  0  0  0  0  2  0  0  0  0  0  0
  183.5560  178.9820  139.0520 N   0  0  0  0  0  2  0  0  0  0  0  0
  185.8820  177.4120  138.7080 C   0  0  2  0  0  3  0  0  0  0  0  0
  185.3890  178.2700  137.6000 C   0  0  1  0  0  3  0  0  0  0  0  0
  186.1220  179.8990  141.4110 O   0  0  0  0  0  1  0  0  0  0  0  0
  182.8550  177.4590  136.9740 S   0  0  0  0  0  0  0  0  0  0  0  0
  185.9530  177.4140  136.5670 N   0  0  0  0  0  2  0  0  0  0  0  0
  185.4520  178.9990  140.5760 C   0  0  2  0  0  0  0  0  0  0  0  0
  186.4500  178.2970  139.7170 N   0  0  0  0  0  0  0  0  0  0  0  0
  184.4800  179.7860  139.7670 N   0  0  0  0  0  2  0  0  0  0  0  0
  183.9310  178.3580  137.8150 C   0  0  0  0  0  0  0  0  0  0  0  0
  190.0950  177.9530  139.1030 C   0  0  0  0  0  3  0  0  0  0  0  0
  188.8800  178.4960  139.1810 C   0  0  0  0  0  3  0  0  0  0  0  0
  188.0590  177.6980  141.3920 C   0  0  0  0  0  3  0  0  0  0  0  0
  189.3760  177.4830  142.0250 C   0  0  0  0  0  3  0  0  0  0  0  0
  190.5230  176.7910  139.9330 C   0  0  0  0  0  2  0  0  0  0  0  0
  190.4880  177.1190  141.3880 C   0  0  0  0  0  3  0  0  0  0  0  0
  187.8150  178.1020  140.1320 C   0  0  0  0  0  0  0  0  0  0  0  0
  184.7280  177.9710  141.4600 C   0  0  0  0  0  2  0  0  0  0  0  0
  184.2090  178.8320  144.8960 C   0  0  0  0  0  3  0  0  0  0  0  0
  183.7070  178.6030  142.3480 C   0  0  0  0  0  3  0  0  0  0  0  0
  183.9520  178.7240  143.6210 C   0  0  0  0  0  0  0  0  0  0  0  0
  185.4950  178.4210  145.4790 C   0  0  0  0  0  0  0  0  0  0  0  0
  187.9260  177.6600  146.6540 C   0  0  0  0  0  3  0  0  0  0  0  0
  186.4980  177.8120  144.7060 C   0  0  0  0  0  3  0  0  0  0  0  0
  187.7090  177.4330  145.2920 C   0  0  0  0  0  3  0  0  0  0  0  0
  185.7210  178.6460  146.8420 C   0  0  0  0  0  3  0  0  0  0  0  0
  186.9320  178.2660  147.4280 C   0  0  0  0  0  3  0  0  0  0  0  0
  2 10  1  0  0  0  0
  3  1  1  6  0  0  0
  3  9  1  0  0  0  0
  4  7  1  6  0  0  0
  4 11  1  0  0  0  0
  4  3  1  0  0  0  0
  6 11  2  0  0  0  0
  7  1  1  0  0  0  0
  8  5  1  1  0  0  0
  8 19  1  0  0  0  0
  9 18  1  0  0  0  0
  9  8  1  0  0  0  0
 10  8  1  0  0  0  0
 11  2  1  0  0  0  0
 12 13  2  0  0  0  0
 12 16  1  0  0  0  0
 13 18  1  0  0  0  0
 14 15  1  0  0  0  0
 16 17  1  0  0  0  0
 17 15  2  0  0  0  0
 18 14  2  0  0  0  0
 19 21  1  0  0  0  0
 20 23  1  0  0  0  0
 21 22  2  0  0  0  0
 22 20  2  0  0  0  0
 23 27  1  0  0  0  0
 24 28  1  0  0  0  0
 25 26  1  0  0  0  0
 25 23  2  0  0  0  0
 26 24  2  0  0  0  0
 27 28  2  0  0  0  0
M  END
>  <MODEL>
2

>  <REMARK>
 VINA RESULT:      -8.0      1.580      2.076
  Name = 
  4 active torsions:
  status: ('A' for Active; 'I' for Inactive)
    1  A    between atoms: C_3  and  C_15
    2  A    between atoms: C_3  and  C_22
    3  A    between atoms: C_4  and  C_12
    4  A    between atoms: N_16  and  C_28
                            x       y       z     vdW  Elec       q    Type
                         _______ _______ _______ _____ _____    ______ ____

>  <TORSDO>
F 4

$$$$
=
 OpenBabel11062413323D

 28 31  0  0  1  0  0  0  0  0999 V2000
  188.0760  176.7560  147.2120 C   0  0  0  0  0  2  0  0  0  0  0  0
  191.4710  177.3290  144.9500 N   0  0  0  0  0  2  0  0  0  0  0  0
  188.8600  176.8510  145.9210 C   0  0  2  0  0  3  0  0  0  0  0  0
  189.8330  177.6160  146.7410 C   0  0  1  0  0  3  0  0  0  0  0  0
  188.9780  178.7770  142.7870 O   0  0  0  0  0  1  0  0  0  0  0  0
  191.9910  176.0030  147.2080 S   0  0  0  0  0  0  0  0  0  0  0  0
  189.2220  177.2170  148.0000 N   0  0  0  0  0  2  0  0  0  0  0  0
  189.4400  177.8330  143.7100 C   0  0  2  0  0  0  0  0  0  0  0  0
  188.4510  177.7140  144.8210 N   0  0  0  0  0  0  0  0  0  0  0  0
  190.7670  178.3030  144.1970 N   0  0  0  0  0  2  0  0  0  0  0  0
  191.1560  177.1020  146.3300 C   0  0  0  0  0  0  0  0  0  0  0  0
  185.3740  178.0570  142.7730 C   0  0  0  0  0  3  0  0  0  0  0  0
  186.4170  177.5020  143.3900 C   0  0  0  0  0  3  0  0  0  0  0  0
  186.3650  178.5710  145.6380 C   0  0  0  0  0  3  0  0  0  0  0  0
  184.9260  178.8990  145.6660 C   0  0  0  0  0  3  0  0  0  0  0  0
  184.7430  179.3310  143.2260 C   0  0  0  0  0  2  0  0  0  0  0  0
  184.1830  179.2010  144.6020 C   0  0  0  0  0  3  0  0  0  0  0  0
  187.0520  177.9960  144.6340 C   0  0  0  0  0  0  0  0  0  0  0  0
  189.5640  176.4800  142.9910 C   0  0  0  0  0  2  0  0  0  0  0  0
  190.1930  176.9710  139.5010 C   0  0  0  0  0  3  0  0  0  0  0  0
  190.6890  176.4590  142.0090 C   0  0  0  0  0  3  0  0  0  0  0  0
  190.4500  176.7170  140.7550 C   0  0  0  0  0  0  0  0  0  0  0  0
  188.8510  177.3470  139.0310 C   0  0  0  0  0  0  0  0  0  0  0  0
  186.3060  178.0320  138.0730 C   0  0  0  0  0  3  0  0  0  0  0  0
  187.9660  178.0860  139.8330 C   0  0  0  0  0  3  0  0  0  0  0  0
  186.6970  178.4270  139.3560 C   0  0  0  0  0  3  0  0  0  0  0  0
  188.4520  176.9570  137.7470 C   0  0  0  0  0  3  0  0  0  0  0  0
  187.1820  177.2970  137.2700 C   0  0  0  0  0  3  0  0  0  0  0  0
  1  7  1  0  0  0  0
  2 11  1  0  0  0  0
  3  4  1  0  0  0  0
  3  1  1  1  0  0  0
  4 11  1  1  0  0  0
  4  7  1  0  0  0  0
  8  5  1  6  0  0  0
  8 10  1  0  0  0  0
  8  9  1  0  0  0  0
  9  3  1  0  0  0  0
 10  2  1  0  0  0  0
 11  6  2  0  0  0  0
 12 16  1  0  0  0  0
 12 13  2  0  0  0  0
 13 18  1  0  0  0  0
 14 15  1  0  0  0  0
 16 17  1  0  0  0  0
 17 15  2  0  0  0  0
 18  9  1  0  0  0  0
 18 14  2  0  0  0  0
 19  8  1  0  0  0  0
 20 22  2  0  0  0  0
 21 19  1  0  0  0  0
 22 21  2  0  0  0  0
 23 20  1  0  0  0  0
 23 25  1  0  0  0  0
 24 26  1  0  0  0  0
 26 25  2  0  0  0  0
 27 23  2  0  0  0  0
 28 27  1  0  0  0  0
 28 24  2  0  0  0  0
M  END
>  <MODEL>
3

>  <REMARK>
 VINA RESULT:      -7.9      4.811      8.633
  Name = 
  4 active torsions:
  status: ('A' for Active; 'I' for Inactive)
    1  A    between atoms: C_3  and  C_15
    2  A    between atoms: C_3  and  C_22
    3  A    between atoms: C_4  and  C_12
    4  A    between atoms: N_16  and  C_28
                            x       y       z     vdW  Elec       q    Type
                         _______ _______ _______ _____ _____    ______ ____

>  <TORSDO>
F 4

$$$$
=
 OpenBabel11062413323D

 28 31  0  0  1  0  0  0  0  0999 V2000
  189.0310  178.7250  138.2220 C   0  0  0  0  0  2  0  0  0  0  0  0
  191.0930  176.3960  140.9240 N   0  0  0  0  0  2  0  0  0  0  0  0
  189.4040  178.2410  139.6070 C   0  0  2  0  0  3  0  0  0  0  0  0
  189.8950  177.0350  138.8920 C   0  0  1  0  0  3  0  0  0  0  0  0
  187.9070  176.6790  142.5850 O   0  0  0  0  0  1  0  0  0  0  0  0
  192.6270  177.1280  138.8650 S   0  0  0  0  0  0  0  0  0  0  0  0
  189.8280  177.6720  137.5850 N   0  0  0  0  0  2  0  0  0  0  0  0
  188.9630  177.1680  141.8080 C   0  0  2  0  0  0  0  0  0  0  0  0
  188.4080  177.7940  140.5720 N   0  0  0  0  0  0  0  0  0  0  0  0
  189.8520  176.0150  141.4940 N   0  0  0  0  0  2  0  0  0  0  0  0
  191.1890  176.7210  139.5300 C   0  0  0  0  0  0  0  0  0  0  0  0
  185.4010  179.3390  142.1030 C   0  0  0  0  0  3  0  0  0  0  0  0
  186.6560  179.1800  141.6830 C   0  0  0  0  0  3  0  0  0  0  0  0
  186.3600  178.2290  139.4010 C   0  0  0  0  0  3  0  0  0  0  0  0
  185.0130  178.7700  139.1360 C   0  0  0  0  0  3  0  0  0  0  0  0
  184.2420  178.6250  141.4930 C   0  0  0  0  0  2  0  0  0  0  0  0
  184.0740  178.9890  140.0560 C   0  0  0  0  0  3  0  0  0  0  0  0
  187.0860  178.3600  140.5270 C   0  0  0  0  0  0  0  0  0  0  0  0
  189.7090  178.2330  142.6270 C   0  0  0  0  0  2  0  0  0  0  0  0
  189.2890  177.4710  146.1010 C   0  0  0  0  0  3  0  0  0  0  0  0
  190.4590  177.6430  143.7760 C   0  0  0  0  0  3  0  0  0  0  0  0
  189.8810  177.5510  144.9390 C   0  0  0  0  0  0  0  0  0  0  0  0
  187.8900  177.8730  146.3020 C   0  0  0  0  0  0  0  0  0  0  0  0
  185.2070  178.6270  146.6180 C   0  0  0  0  0  3  0  0  0  0  0  0
  187.4050  178.2630  147.5620 C   0  0  0  0  0  3  0  0  0  0  0  0
  186.0680  178.6390  147.7190 C   0  0  0  0  0  3  0  0  0  0  0  0
  187.0210  177.8650  145.2050 C   0  0  0  0  0  3  0  0  0  0  0  0
  185.6830  178.2400  145.3620 C   0  0  0  0  0  3  0  0  0  0  0  0
  2 10  1  0  0  0  0
  3  1  1  6  0  0  0
  3  9  1  0  0  0  0
  4  7  1  6  0  0  0
  4 11  1  0  0  0  0
  4  3  1  0  0  0  0
  6 11  2  0  0  0  0
  7  1  1  0  0  0  0
  8  5  1  1  0  0  0
  8 19  1  0  0  0  0
  9  8  1  0  0  0  0
 10  8  1  0  0  0  0
 11  2  1  0  0  0  0
 13 12  2  0  0  0  0
 14 18  2  0  0  0  0
 15 14  1  0  0  0  0
 15 17  2  0  0  0  0
 16 12  1  0  0  0  0
 17 16  1  0  0  0  0
 18  9  1  0  0  0  0
 18 13  1  0  0  0  0
 19 21  1  0  0  0  0
 20 23  1  0  0  0  0
 21 22  2  0  0  0  0
 22 20  2  0  0  0  0
 23 25  1  0  0  0  0
 24 26  1  0  0  0  0
 25 26  2  0  0  0  0
 27 28  1  0  0  0  0
 27 23  2  0  0  0  0
 28 24  2  0  0  0  0
M  END
>  <MODEL>
4

>  <REMARK>
 VINA RESULT:      -7.5      3.676      5.949
  Name = 
  4 active torsions:
  status: ('A' for Active; 'I' for Inactive)
    1  A    between atoms: C_3  and  C_15
    2  A    between atoms: C_3  and  C_22
    3  A    between atoms: C_4  and  C_12
    4  A    between atoms: N_16  and  C_28
                            x       y       z     vdW  Elec       q    Type
                         _______ _______ _______ _____ _____    ______ ____

>  <TORSDO>
F 4

$$$$
=
 OpenBabel11062413323D

 28 31  0  0  1  0  0  0  0  0999 V2000
  191.1350  175.6270  138.7050 C   0  0  0  0  0  2  0  0  0  0  0  0
  188.4100  178.2530  137.0760 N   0  0  0  0  0  2  0  0  0  0  0  0
  189.8850  176.4800  138.7110 C   0  0  2  0  0  3  0  0  0  0  0  0
  190.5560  177.2090  137.6040 C   0  0  1  0  0  3  0  0  0  0  0  0
  188.3580  179.2950  140.5260 O   0  0  0  0  0  1  0  0  0  0  0  0
  189.3200  176.5130  135.2670 S   0  0  0  0  0  0  0  0  0  0  0  0
  191.5640  176.1770  137.4160 N   0  0  0  0  0  2  0  0  0  0  0  0
  188.4370  178.3400  139.5070 C   0  0  2  0  0  0  0  0  0  0  0  0
  189.6080  177.4510  139.7610 N   0  0  0  0  0  0  0  0  0  0  0  0
  188.5690  179.0770  138.2190 N   0  0  0  0  0  2  0  0  0  0  0  0
  189.4920  177.4370  136.6060 C   0  0  0  0  0  0  0  0  0  0  0  0
  189.2770  176.4180  143.3100 C   0  0  0  0  0  3  0  0  0  0  0  0
  189.3100  176.3480  141.9800 C   0  0  0  0  0  3  0  0  0  0  0  0
  191.3390  177.6730  141.4070 C   0  0  0  0  0  3  0  0  0  0  0  0
  192.0550  177.4990  142.6860 C   0  0  0  0  0  3  0  0  0  0  0  0
  190.0070  177.4590  144.0900 C   0  0  0  0  0  2  0  0  0  0  0  0
  191.4800  177.3630  143.8800 C   0  0  0  0  0  3  0  0  0  0  0  0
  190.1150  177.2130  141.0870 C   0  0  0  0  0  0  0  0  0  0  0  0
  187.1470  177.5030  139.5330 C   0  0  0  0  0  2  0  0  0  0  0  0
  184.4180  179.0810  141.2300 C   0  0  0  0  0  3  0  0  0  0  0  0
  185.9320  178.3220  139.2460 C   0  0  0  0  0  3  0  0  0  0  0  0
  185.1720  178.7080  140.2310 C   0  0  0  0  0  0  0  0  0  0  0  0
  184.7580  178.7860  142.6290 C   0  0  0  0  0  0  0  0  0  0  0  0
  185.3450  178.2520  145.3190 C   0  0  0  0  0  3  0  0  0  0  0  0
  185.9690  178.1670  142.9830 C   0  0  0  0  0  3  0  0  0  0  0  0
  186.2610  177.9010  144.3230 C   0  0  0  0  0  3  0  0  0  0  0  0
  183.8470  179.1340  143.6330 C   0  0  0  0  0  3  0  0  0  0  0  0
  184.1390  178.8670  144.9740 C   0  0  0  0  0  3  0  0  0  0  0  0
  2 10  1  0  0  0  0
  3  1  1  1  0  0  0
  3  9  1  0  0  0  0
  4 11  1  6  0  0  0
  4  3  1  0  0  0  0
  6 11  2  0  0  0  0
  7  4  1  0  0  0  0
  7  1  1  0  0  0  0
  8 19  1  0  0  0  0
  8  9  1  0  0  0  0
  8  5  1  1  0  0  0
  9 18  1  0  0  0  0
 10  8  1  0  0  0  0
 11  2  1  0  0  0  0
 12 16  1  0  0  0  0
 13 12  2  0  0  0  0
 14 15  1  0  0  0  0
 15 17  2  0  0  0  0
 17 16  1  0  0  0  0
 18 14  2  0  0  0  0
 18 13  1  0  0  0  0
 20 23  1  0  0  0  0
 21 19  1  0  0  0  0
 21 22  2  0  0  0  0
 22 20  2  0  0  0  0
 23 25  2  0  0  0  0
 23 27  1  0  0  0  0
 25 26  1  0  0  0  0
 26 24  2  0  0  0  0
 27 28  2  0  0  0  0
 28 24  1  0  0  0  0
M  END
>  <MODEL>
5

>  <REMARK>
 VINA RESULT:      -7.5      3.139      5.029
  Name = 
  4 active torsions:
  status: ('A' for Active; 'I' for Inactive)
    1  A    between atoms: C_3  and  C_15
    2  A    between atoms: C_3  and  C_22
    3  A    between atoms: C_4  and  C_12
    4  A    between atoms: N_16  and  C_28
                            x       y       z     vdW  Elec       q    Type
                         _______ _______ _______ _____ _____    ______ ____

>  <TORSDO>
F 4

$$$$
=
 OpenBabel11062413323D

 28 31  0  0  1  0  0  0  0  0999 V2000
  191.2300  178.0000  144.7080 C   0  0  0  0  0  2  0  0  0  0  0  0
  188.1860  177.4540  147.4300 N   0  0  0  0  0  2  0  0  0  0  0  0
  189.7950  178.0560  145.1850 C   0  0  2  0  0  3  0  0  0  0  0  0
  190.2380  177.0360  146.1700 C   0  0  1  0  0  3  0  0  0  0  0  0
  186.4550  176.7570  144.3450 O   0  0  0  0  0  1  0  0  0  0  0  0
  190.4430  178.2550  148.6080 S   0  0  0  0  0  0  0  0  0  0  0  0
  191.6510  177.2620  145.9030 N   0  0  0  0  0  2  0  0  0  0  0  0
  187.3840  177.4460  145.1330 C   0  0  2  0  0  0  0  0  0  0  0  0
  188.6970  177.4730  144.4260 N   0  0  0  0  0  0  0  0  0  0  0  0
  187.4720  176.7340  146.4380 N   0  0  0  0  0  2  0  0  0  0  0  0
  189.6200  177.4530  147.4450 C   0  0  0  0  0  0  0  0  0  0  0  0
  190.2790  176.3810  141.2500 C   0  0  0  0  0  3  0  0  0  0  0  0
  189.6330  176.3280  142.4150 C   0  0  0  0  0  3  0  0  0  0  0  0
  188.0340  178.2290  142.2480 C   0  0  0  0  0  3  0  0  0  0  0  0
  187.9520  178.2890  140.7750 C   0  0  0  0  0  3  0  0  0  0  0  0
  190.3070  177.5990  140.3890 C   0  0  0  0  0  2  0  0  0  0  0  0
  188.9380  177.9760  139.9350 C   0  0  0  0  0  3  0  0  0  0  0  0
  188.7960  177.4060  142.9910 C   0  0  0  0  0  0  0  0  0  0  0  0
  186.8780  178.8850  145.3240 C   0  0  0  0  0  2  0  0  0  0  0  0
  183.3080  178.9840  145.0640 C   0  0  0  0  0  3  0  0  0  0  0  0
  185.6610  178.9500  146.1880 C   0  0  0  0  0  3  0  0  0  0  0  0
  184.4830  178.9640  145.6350 C   0  0  0  0  0  0  0  0  0  0  0  0
  183.1360  178.8720  143.6080 C   0  0  0  0  0  0  0  0  0  0  0  0
  182.8770  178.6460  140.8250 C   0  0  0  0  0  3  0  0  0  0  0  0
  181.8770  179.0050  142.9990 C   0  0  0  0  0  3  0  0  0  0  0  0
  181.7490  178.8920  141.6120 C   0  0  0  0  0  3  0  0  0  0  0  0
  184.2610  178.6270  142.8130 C   0  0  0  0  0  3  0  0  0  0  0  0
  184.1330  178.5130  141.4250 C   0  0  0  0  0  3  0  0  0  0  0  0
  1  7  1  0  0  0  0
  2 11  1  0  0  0  0
  3  1  1  6  0  0  0
  3  4  1  0  0  0  0
  4  7  1  1  0  0  0
  4 11  1  0  0  0  0
  8  5  1  6  0  0  0
  8 19  1  0  0  0  0
  8 10  1  0  0  0  0
  9  8  1  0  0  0  0
  9  3  1  0  0  0  0
 10  2  1  0  0  0  0
 11  6  2  0  0  0  0
 12 13  2  0  0  0  0
 13 18  1  0  0  0  0
 14 18  2  0  0  0  0
 15 14  1  0  0  0  0
 16 12  1  0  0  0  0
 17 16  1  0  0  0  0
 17 15  2  0  0  0  0
 18  9  1  0  0  0  0
 19 21  1  0  0  0  0
 20 22  2  0  0  0  0
 22 21  2  0  0  0  0
 23 20  1  0  0  0  0
 24 28  2  0  0  0  0
 24 26  1  0  0  0  0
 25 23  1  0  0  0  0
 26 25  2  0  0  0  0
 27 23  2  0  0  0  0
 28 27  1  0  0  0  0
M  END
>  <MODEL>
6

>  <REMARK>
 VINA RESULT:      -7.5      5.053      7.489
  Name = 
  4 active torsions:
  status: ('A' for Active; 'I' for Inactive)
    1  A    between atoms: C_3  and  C_15
    2  A    between atoms: C_3  and  C_22
    3  A    between atoms: C_4  and  C_12
    4  A    between atoms: N_16  and  C_28
                            x       y       z     vdW  Elec       q    Type
                         _______ _______ _______ _____ _____    ______ ____

>  <TORSDO>
F 4

$$$$
=
 OpenBabel11062413323D

 28 31  0  0  1  0  0  0  0  0999 V2000
  186.7890  174.8900  136.3580 C   0  0  0  0  0  2  0  0  0  0  0  0
  185.8790  178.4940  138.1340 N   0  0  0  0  0  2  0  0  0  0  0  0
  187.0590  176.0820  137.2510 C   0  0  2  0  0  3  0  0  0  0  0  0
  186.0090  176.7440  136.4330 C   0  0  1  0  0  3  0  0  0  0  0  0
  189.4320  178.8660  137.6560 O   0  0  0  0  0  1  0  0  0  0  0  0
  183.7410  176.9060  137.9510 S   0  0  0  0  0  0  0  0  0  0  0  0
  185.5600  175.4950  135.8380 N   0  0  0  0  0  2  0  0  0  0  0  0
  188.2780  178.1330  137.9540 C   0  0  2  0  0  0  0  0  0  0  0  0
  188.2670  176.8870  137.1330 N   0  0  0  0  0  0  0  0  0  0  0  0
  187.1100  179.0070  137.6510 N   0  0  0  0  0  2  0  0  0  0  0  0
  185.1770  177.4730  137.4120 C   0  0  0  0  0  0  0  0  0  0  0  0
  191.4110  174.9690  137.5930 C   0  0  0  0  0  3  0  0  0  0  0  0
  190.1110  175.2550  137.5430 C   0  0  0  0  0  3  0  0  0  0  0  0
  189.9070  176.5370  135.4180 C   0  0  0  0  0  3  0  0  0  0  0  0
  191.0910  175.9760  134.7370 C   0  0  0  0  0  3  0  0  0  0  0  0
  192.4390  175.7090  136.8050 C   0  0  0  0  0  2  0  0  0  0  0  0
  192.2060  175.5680  135.3390 C   0  0  0  0  0  3  0  0  0  0  0  0
  189.4790  176.2680  136.6650 C   0  0  0  0  0  0  0  0  0  0  0  0
  188.3160  177.7610  139.4450 C   0  0  0  0  0  2  0  0  0  0  0  0
  190.1340  177.4650  142.5150 C   0  0  0  0  0  3  0  0  0  0  0  0
  189.7090  177.5560  139.9440 C   0  0  0  0  0  3  0  0  0  0  0  0
  189.9290  177.5060  141.2260 C   0  0  0  0  0  0  0  0  0  0  0  0
  189.0370  177.5400  143.4910 C   0  0  0  0  0  0  0  0  0  0  0  0
  186.8990  177.6700  145.3020 C   0  0  0  0  0  3  0  0  0  0  0  0
  189.2730  177.8040  144.8510 C   0  0  0  0  0  3  0  0  0  0  0  0
  188.2070  177.8690  145.7530 C   0  0  0  0  0  3  0  0  0  0  0  0
  187.7240  177.3440  143.0480 C   0  0  0  0  0  3  0  0  0  0  0  0
  186.6580  177.4080  143.9500 C   0  0  0  0  0  3  0  0  0  0  0  0
  3  1  1  6  0  0  0
  4  7  1  1  0  0  0
  4  3  1  0  0  0  0
  4 11  1  0  0  0  0
  7  1  1  0  0  0  0
  8  5  1  6  0  0  0
  8 19  1  0  0  0  0
  9  3  1  0  0  0  0
  9  8  1  0  0  0  0
 10  8  1  0  0  0  0
 10  2  1  0  0  0  0
 11  6  2  0  0  0  0
 11  2  1  0  0  0  0
 13 12  2  0  0  0  0
 14 18  2  0  0  0  0
 15 17  2  0  0  0  0
 15 14  1  0  0  0  0
 16 12  1  0  0  0  0
 17 16  1  0  0  0  0
 18  9  1  0  0  0  0
 18 13  1  0  0  0  0
 19 21  1  0  0  0  0
 20 23  1  0  0  0  0
 21 22  2  0  0  0  0
 22 20  2  0  0  0  0
 23 25  1  0  0  0  0
 24 26  1  0  0  0  0
 25 26  2  0  0  0  0
 27 23  2  0  0  0  0
 27 28  1  0  0  0  0
 28 24  2  0  0  0  0
M  END
>  <MODEL>
7

>  <REMARK>
 VINA RESULT:      -7.5      2.379      4.161
  Name = 
  4 active torsions:
  status: ('A' for Active; 'I' for Inactive)
    1  A    between atoms: C_3  and  C_15
    2  A    between atoms: C_3  and  C_22
    3  A    between atoms: C_4  and  C_12
    4  A    between atoms: N_16  and  C_28
                            x       y       z     vdW  Elec       q    Type
                         _______ _______ _______ _____ _____    ______ ____

>  <TORSDO>
F 4

$$$$
=
 OpenBabel11062413323D

 28 31  0  0  1  0  0  0  0  0999 V2000
  186.3100  179.2530  140.7740 C   0  0  0  0  0  2  0  0  0  0  0  0
  189.8280  177.1260  140.5050 N   0  0  0  0  0  2  0  0  0  0  0  0
  187.5770  178.6290  141.3190 C   0  0  2  0  0  3  0  0  0  0  0  0
  187.5100  177.7860  140.0980 C   0  0  1  0  0  3  0  0  0  0  0  0
  188.7000  176.1350  143.7820 O   0  0  0  0  0  1  0  0  0  0  0  0
  189.4300  178.6690  138.3630 S   0  0  0  0  0  0  0  0  0  0  0  0
  186.5060  178.6270  139.4630 N   0  0  0  0  0  2  0  0  0  0  0  0
  188.8740  177.0540  142.7420 C   0  0  2  0  0  0  0  0  0  0  0  0
  187.5730  177.7290  142.4640 N   0  0  0  0  0  0  0  0  0  0  0  0
  189.3690  176.2960  141.5590 N   0  0  0  0  0  2  0  0  0  0  0  0
  188.9000  177.7390  139.5990 C   0  0  0  0  0  0  0  0  0  0  0  0
  184.1360  178.5010  143.6360 C   0  0  0  0  0  3  0  0  0  0  0  0
  185.1470  177.8750  143.0330 C   0  0  0  0  0  3  0  0  0  0  0  0
  186.9310  177.9040  144.7690 C   0  0  0  0  0  3  0  0  0  0  0  0
  186.0540  178.0090  145.9510 C   0  0  0  0  0  3  0  0  0  0  0  0
  184.3180  179.3840  144.8240 C   0  0  0  0  0  2  0  0  0  0  0  0
  184.8740  178.6280  145.9840 C   0  0  0  0  0  3  0  0  0  0  0  0
  186.5600  177.8850  143.4750 C   0  0  0  0  0  0  0  0  0  0  0  0
  189.9040  178.1020  143.1950 C   0  0  0  0  0  2  0  0  0  0  0  0
  191.2600  176.9940  146.3180 C   0  0  0  0  0  3  0  0  0  0  0  0
  191.1390  177.4790  143.7580 C   0  0  0  0  0  3  0  0  0  0  0  0
  191.2060  177.2300  145.0350 C   0  0  0  0  0  0  0  0  0  0  0  0
  190.1250  177.2510  147.2160 C   0  0  0  0  0  0  0  0  0  0  0  0
  187.9310  177.6800  148.9100 C   0  0  0  0  0  3  0  0  0  0  0  0
  190.0490  178.4150  148.0000 C   0  0  0  0  0  3  0  0  0  0  0  0
  188.9560  178.6280  148.8430 C   0  0  0  0  0  3  0  0  0  0  0  0
  189.0940  176.3070  147.2880 C   0  0  0  0  0  3  0  0  0  0  0  0
  188.0000  176.5200  148.1330 C   0  0  0  0  0  3  0  0  0  0  0  0
  2 10  1  0  0  0  0
  3  1  1  1  0  0  0
  3  9  1  0  0  0  0
  4  7  1  6  0  0  0
  4  3  1  0  0  0  0
  6 11  2  0  0  0  0
  7  1  1  0  0  0  0
  8 19  1  0  0  0  0
  8  5  1  1  0  0  0
  9  8  1  0  0  0  0
  9 18  1  0  0  0  0
 10  8  1  0  0  0  0
 11  4  1  0  0  0  0
 11  2  1  0  0  0  0
 12 16  1  0  0  0  0
 13 18  1  0  0  0  0
 13 12  2  0  0  0  0
 14 15  1  0  0  0  0
 15 17  2  0  0  0  0
 16 17  1  0  0  0  0
 18 14  2  0  0  0  0
 19 21  1  0  0  0  0
 20 23  1  0  0  0  0
 21 22  2  0  0  0  0
 22 20  2  0  0  0  0
 23 27  2  0  0  0  0
 23 25  1  0  0  0  0
 25 26  2  0  0  0  0
 26 24  1  0  0  0  0
 27 28  1  0  0  0  0
 28 24  2  0  0  0  0
M  END
>  <MODEL>
8

>  <REMARK>
 VINA RESULT:      -7.3      3.531      6.585
  Name = 
  4 active torsions:
  status: ('A' for Active; 'I' for Inactive)
    1  A    between atoms: C_3  and  C_15
    2  A    between atoms: C_3  and  C_22
    3  A    between atoms: C_4  and  C_12
    4  A    between atoms: N_16  and  C_28
                            x       y       z     vdW  Elec       q    Type
                         _______ _______ _______ _____ _____    ______ ____

>  <TORSDO>
F 4

$$$$
=
 OpenBabel11062413323D

 28 31  0  0  1  0  0  0  0  0999 V2000
  186.4130  177.4420  146.2480 C   0  0  0  0  0  2  0  0  0  0  0  0
  190.2330  177.6430  144.7190 N   0  0  0  0  0  2  0  0  0  0  0  0
  187.4510  177.3830  145.1490 C   0  0  2  0  0  3  0  0  0  0  0  0
  188.2830  178.1680  146.0970 C   0  0  1  0  0  3  0  0  0  0  0  0
  188.3430  179.0200  141.9750 O   0  0  0  0  0  1  0  0  0  0  0  0
  190.1840  176.4950  147.1280 S   0  0  0  0  0  0  0  0  0  0  0  0
  187.4000  177.9110  147.2240 N   0  0  0  0  0  2  0  0  0  0  0  0
  188.5400  178.1380  143.0440 C   0  0  2  0  0  0  0  0  0  0  0  0
  187.3370  178.1670  143.9260 N   0  0  0  0  0  0  0  0  0  0  0  0
  189.7660  178.5810  143.7630 N   0  0  0  0  0  2  0  0  0  0  0  0
  189.6240  177.5530  146.0140 C   0  0  0  0  0  0  0  0  0  0  0  0
  183.9900  179.7530  144.1730 C   0  0  0  0  0  3  0  0  0  0  0  0
  185.3130  179.6190  144.0830 C   0  0  0  0  0  3  0  0  0  0  0  0
  185.5760  177.8780  142.3230 C   0  0  0  0  0  3  0  0  0  0  0  0
  184.2930  178.1050  141.6290 C   0  0  0  0  0  3  0  0  0  0  0  0
  183.0320  178.7220  143.6780 C   0  0  0  0  0  2  0  0  0  0  0  0
  183.1660  178.5170  142.2070 C   0  0  0  0  0  3  0  0  0  0  0  0
  186.0290  178.5000  143.4270 C   0  0  0  0  0  0  0  0  0  0  0  0
  188.7180  176.7230  142.4710 C   0  0  0  0  0  2  0  0  0  0  0  0
  190.3420  176.9750  139.2890 C   0  0  0  0  0  3  0  0  0  0  0  0
  190.0600  176.5280  141.8430 C   0  0  0  0  0  3  0  0  0  0  0  0
  190.2100  176.7530  140.5690 C   0  0  0  0  0  0  0  0  0  0  0  0
  189.2390  177.4790  138.4580 C   0  0  0  0  0  0  0  0  0  0  0  0
  187.1800  178.4500  136.8190 C   0  0  0  0  0  3  0  0  0  0  0  0
  187.9250  177.5730  138.9480 C   0  0  0  0  0  3  0  0  0  0  0  0
  186.9000  178.0560  138.1300 C   0  0  0  0  0  3  0  0  0  0  0  0
  189.5110  177.8770  137.1440 C   0  0  0  0  0  3  0  0  0  0  0  0
  188.4850  178.3600  136.3260 C   0  0  0  0  0  3  0  0  0  0  0  0
  1  7  1  0  0  0  0
  2 11  1  0  0  0  0
  3  4  1  0  0  0  0
  3  1  1  1  0  0  0
  4 11  1  1  0  0  0
  4  7  1  0  0  0  0
  8  5  1  6  0  0  0
  8 10  1  0  0  0  0
  8  9  1  0  0  0  0
  9  3  1  0  0  0  0
 10  2  1  0  0  0  0
 11  6  2  0  0  0  0
 13 12  2  0  0  0  0
 14 18  2  0  0  0  0
 15 17  2  0  0  0  0
 15 14  1  0  0  0  0
 16 12  1  0  0  0  0
 17 16  1  0  0  0  0
 18  9  1  0  0  0  0
 18 13  1  0  0  0  0
 19  8  1  0  0  0  0
 20 22  2  0  0  0  0
 21 19  1  0  0  0  0
 22 21  2  0  0  0  0
 23 25  1  0  0  0  0
 23 20  1  0  0  0  0
 24 26  1  0  0  0  0
 26 25  2  0  0  0  0
 27 23  2  0  0  0  0
 28 24  2  0  0  0  0
 28 27  1  0  0  0  0
M  END
>  <MODEL>
9

>  <REMARK>
 VINA RESULT:      -7.1      4.276      8.172
  Name = 
  4 active torsions:
  status: ('A' for Active; 'I' for Inactive)
    1  A    between atoms: C_3  and  C_15
    2  A    between atoms: C_3  and  C_22
    3  A    between atoms: C_4  and  C_12
    4  A    between atoms: N_16  and  C_28
                            x       y       z     vdW  Elec       q    Type
                         _______ _______ _______ _____ _____    ______ ____

>  <TORSDO>
F 4

$$$$
