=
 OpenBabel11062414093D

 32 38  0  0  1  0  0  0  0  0999 V2000
  189.5780  176.3800  144.4470 C   0  0  1  0  0  3  0  0  0  0  0  0
  188.6540  177.2550  143.6000 C   0  0  1  0  0  3  0  0  0  0  0  0
  190.8440  177.4680  146.1170 C   0  0  1  0  0  3  0  0  0  0  0  0
  191.0220  176.3460  143.9800 C   0  0  0  0  0  2  0  0  0  0  0  0
  187.7700  177.9470  144.6060 C   0  0  2  0  0  3  0  0  0  0  0  0
  191.8960  176.3950  146.3160 C   0  0  0  0  0  2  0  0  0  0  0  0
  188.5520  177.9220  145.9020 C   0  0  0  0  0  2  0  0  0  0  0  0
  191.8120  177.1410  144.9950 C   0  0  2  0  0  3  0  0  0  0  0  0
  189.5480  176.8560  145.8290 N   0  0  1  0  0  0  0  0  0  0  0  0
  186.4780  177.1600  144.7730 C   0  0  0  0  0  2  0  0  0  0  0  0
  184.4450  178.5580  145.2170 C   0  0  0  0  0  3  0  0  0  0  0  0
  185.3170  177.9680  144.2910 C   0  0  0  0  0  0  0  0  0  0  0  0
  183.9680  178.8510  142.4740 C   0  0  0  0  0  3  0  0  0  0  0  0
  185.0730  178.1120  142.9190 C   0  0  0  0  0  3  0  0  0  0  0  0
  183.1020  179.4440  143.4020 C   0  0  0  0  0  3  0  0  0  0  0  0
  183.3390  179.2950  144.7730 C   0  0  0  0  0  3  0  0  0  0  0  0
  189.3670  178.2130  142.8670 O   0  0  0  0  0  0  0  0  0  0  0  0
  188.6740  178.3110  141.6580 C   0  0  0  0  0  2  0  0  0  0  0  0
  190.2240  177.3450  138.6020 C   0  0  0  0  0  0  0  0  0  0  0  0
  190.6130  176.2680  139.3160 N   0  0  0  0  0  0  0  0  0  0  0  0
  190.1850  176.5350  140.5790 C   0  0  0  0  0  3  0  0  0  0  0  0
  188.7720  178.5250  137.1810 C   0  0  1  0  0  3  0  0  0  0  0  0
  188.6340  178.9390  138.5840 N   0  0  0  0  0  2  0  0  0  0  0  0
  189.5790  178.2360  139.3180 N   0  0  0  0  0  0  0  0  0  0  0  0
  189.8220  177.3770  137.1730 C   0  0  0  0  0  2  0  0  0  0  0  0
  189.4970  177.7390  140.5560 C   0  0  0  0  0  0  0  0  0  0  0  0
  187.4630  178.0480  136.6220 C   0  0  0  0  0  0  0  0  0  0  0  0
  185.0940  177.1170  135.5090 C   0  0  0  0  0  3  0  0  0  0  0  0
  186.1620  177.4110  134.7180 N   0  0  0  0  0  0  0  0  0  0  0  0
  185.1810  177.2740  136.8930 C   0  0  0  0  0  3  0  0  0  0  0  0
  187.3340  177.8660  135.2410 C   0  0  0  0  0  3  0  0  0  0  0  0
  186.3750  177.7360  137.4500 C   0  0  0  0  0  3  0  0  0  0  0  0
  1  4  1  6  0  0  0
  1  9  1  0  0  0  0
  2 17  1  1  0  0  0
  2  1  1  0  0  0  0
  2  5  1  0  0  0  0
  3  6  1  1  0  0  0
  5 10  1  1  0  0  0
  5  7  1  0  0  0  0
  8  4  1  6  0  0  0
  8  3  1  0  0  0  0
  8  6  1  0  0  0  0
  9  7  1  6  0  0  0
  9  3  1  0  0  0  0
 12 10  1  0  0  0  0
 12 11  2  0  0  0  0
 13 14  2  0  0  0  0
 13 15  1  0  0  0  0
 14 12  1  0  0  0  0
 15 16  2  0  0  0  0
 16 11  1  0  0  0  0
 18 17  1  0  0  0  0
 19 20  2  0  0  0  0
 19 24  1  0  0  0  0
 20 21  1  0  0  0  0
 22 27  1  1  0  0  0
 22 23  1  0  0  0  0
 23 24  1  0  0  0  0
 24 26  1  0  0  0  0
 25 22  1  0  0  0  0
 25 19  1  0  0  0  0
 26 21  2  0  0  0  0
 26 18  1  0  0  0  0
 27 32  1  0  0  0  0
 28 30  1  0  0  0  0
 29 31  1  0  0  0  0
 29 28  2  0  0  0  0
 30 32  2  0  0  0  0
 31 27  2  0  0  0  0
M  END
>  <MODEL>
1

>  <REMARK>
 VINA RESULT:      -9.0      0.000      0.000
  Name = 
  6 active torsions:
  status: ('A' for Active; 'I' for Inactive)
    1  A    between atoms: C_2  and  C_11
    2  A    between atoms: C_9  and  C_16
    3  A    between atoms: C_10  and  O_30
    4  A    between atoms: C_16  and  C_21
    5  A    between atoms: C_18  and  C_23
    6  A    between atoms: C_18  and  O_30
                            x       y       z     vdW  Elec       q    Type
                         _______ _______ _______ _____ _____    ______ ____

>  <TORSDO>
F 6

$$$$
=
 OpenBabel11062414093D

 32 38  0  0  1  0  0  0  0  0999 V2000
  186.8060  177.3140  146.5640 C   0  0  1  0  0  3  0  0  0  0  0  0
  186.3650  177.7130  145.1560 C   0  0  1  0  0  3  0  0  0  0  0  0
  187.9550  178.9470  147.8250 C   0  0  1  0  0  3  0  0  0  0  0  0
  188.2450  176.8410  146.6680 C   0  0  0  0  0  2  0  0  0  0  0  0
  185.5260  178.9480  145.3620 C   0  0  2  0  0  3  0  0  0  0  0  0
  188.5930  178.0180  148.8390 C   0  0  0  0  0  2  0  0  0  0  0  0
  185.9830  179.5180  146.6880 C   0  0  0  0  0  2  0  0  0  0  0  0
  189.0000  177.9420  147.3780 C   0  0  2  0  0  3  0  0  0  0  0  0
  186.6270  178.4570  147.4590 N   0  0  1  0  0  0  0  0  0  0  0  0
  184.0580  178.5560  145.4520 C   0  0  0  0  0  2  0  0  0  0  0  0
  182.0290  178.8550  144.0110 C   0  0  0  0  0  3  0  0  0  0  0  0
  183.4140  178.6620  144.1080 C   0  0  0  0  0  0  0  0  0  0  0  0
  183.5660  178.6110  141.6830 C   0  0  0  0  0  3  0  0  0  0  0  0
  184.1810  178.5350  142.9410 C   0  0  0  0  0  3  0  0  0  0  0  0
  182.1820  178.8100  141.5900 C   0  0  0  0  0  3  0  0  0  0  0  0
  181.4140  178.9280  142.7530 C   0  0  0  0  0  3  0  0  0  0  0  0
  187.4570  178.0220  144.3330 O   0  0  0  0  0  0  0  0  0  0  0  0
  187.3400  177.1390  143.2560 C   0  0  0  0  0  2  0  0  0  0  0  0
  190.1320  177.2300  141.0500 C   0  0  0  0  0  0  0  0  0  0  0  0
  190.5390  176.1610  141.7640 N   0  0  0  0  0  0  0  0  0  0  0  0
  189.6120  176.0500  142.7520 C   0  0  0  0  0  3  0  0  0  0  0  0
  189.0280  178.2820  139.2620 C   0  0  1  0  0  3  0  0  0  0  0  0
  188.2570  178.3530  140.5110 N   0  0  0  0  0  2  0  0  0  0  0  0
  189.0270  177.7700  141.5080 N   0  0  0  0  0  0  0  0  0  0  0  0
  190.3040  177.4540  139.5920 C   0  0  0  0  0  2  0  0  0  0  0  0
  188.6470  177.0260  142.5500 C   0  0  0  0  0  0  0  0  0  0  0  0
  188.2370  177.6220  138.1710 C   0  0  0  0  0  0  0  0  0  0  0  0
  186.8250  176.3080  136.1700 C   0  0  0  0  0  3  0  0  0  0  0  0
  188.1050  175.9490  136.4640 N   0  0  0  0  0  0  0  0  0  0  0  0
  186.2050  177.3380  136.8790 C   0  0  0  0  0  3  0  0  0  0  0  0
  188.8150  176.5770  137.4430 C   0  0  0  0  0  3  0  0  0  0  0  0
  186.9140  177.9920  137.8870 C   0  0  0  0  0  3  0  0  0  0  0  0
  1  4  1  6  0  0  0
  1  9  1  0  0  0  0
  2 17  1  6  0  0  0
  2  5  1  0  0  0  0
  2  1  1  0  0  0  0
  3  6  1  1  0  0  0
  5 10  1  1  0  0  0
  5  7  1  0  0  0  0
  8  4  1  6  0  0  0
  8  3  1  0  0  0  0
  8  6  1  0  0  0  0
  9  7  1  6  0  0  0
  9  3  1  0  0  0  0
 11 12  1  0  0  0  0
 12 10  1  0  0  0  0
 13 14  1  0  0  0  0
 14 12  2  0  0  0  0
 15 13  2  0  0  0  0
 15 16  1  0  0  0  0
 16 11  2  0  0  0  0
 18 17  1  0  0  0  0
 19 24  1  0  0  0  0
 19 20  2  0  0  0  0
 20 21  1  0  0  0  0
 22 27  1  6  0  0  0
 22 25  1  0  0  0  0
 22 23  1  0  0  0  0
 23 24  1  0  0  0  0
 24 26  1  0  0  0  0
 25 19  1  0  0  0  0
 26 21  2  0  0  0  0
 26 18  1  0  0  0  0
 28 29  2  0  0  0  0
 28 30  1  0  0  0  0
 29 31  1  0  0  0  0
 30 32  2  0  0  0  0
 31 27  2  0  0  0  0
 32 27  1  0  0  0  0
M  END
>  <MODEL>
2

>  <REMARK>
 VINA RESULT:      -8.9      1.829      2.672
  Name = 
  6 active torsions:
  status: ('A' for Active; 'I' for Inactive)
    1  A    between atoms: C_2  and  C_11
    2  A    between atoms: C_9  and  C_16
    3  A    between atoms: C_10  and  O_30
    4  A    between atoms: C_16  and  C_21
    5  A    between atoms: C_18  and  C_23
    6  A    between atoms: C_18  and  O_30
                            x       y       z     vdW  Elec       q    Type
                         _______ _______ _______ _____ _____    ______ ____

>  <TORSDO>
F 6

$$$$
=
 OpenBabel11062414093D

 32 38  0  0  1  0  0  0  0  0999 V2000
  189.4250  176.3660  143.9110 C   0  0  1  0  0  3  0  0  0  0  0  0
  188.4300  177.2210  143.1270 C   0  0  1  0  0  3  0  0  0  0  0  0
  190.8250  177.4930  145.4440 C   0  0  1  0  0  3  0  0  0  0  0  0
  190.8250  176.3240  143.3250 C   0  0  0  0  0  2  0  0  0  0  0  0
  187.6320  177.9350  144.1890 C   0  0  2  0  0  3  0  0  0  0  0  0
  191.8930  176.4250  145.5760 C   0  0  0  0  0  2  0  0  0  0  0  0
  188.5210  177.9390  145.4140 C   0  0  0  0  0  2  0  0  0  0  0  0
  191.6950  177.1410  144.2520 C   0  0  2  0  0  3  0  0  0  0  0  0
  189.5110  176.8730  145.2800 N   0  0  1  0  0  0  0  0  0  0  0  0
  186.3610  177.1500  144.4810 C   0  0  0  0  0  2  0  0  0  0  0  0
  184.3890  178.5690  145.1000 C   0  0  0  0  0  3  0  0  0  0  0  0
  185.1600  177.9550  144.1030 C   0  0  0  0  0  0  0  0  0  0  0  0
  183.6370  178.8090  142.4140 C   0  0  0  0  0  3  0  0  0  0  0  0
  184.7790  178.0730  142.7590 C   0  0  0  0  0  3  0  0  0  0  0  0
  182.8730  179.4270  143.4120 C   0  0  0  0  0  3  0  0  0  0  0  0
  183.2460  179.3030  144.7550 C   0  0  0  0  0  3  0  0  0  0  0  0
  189.0760  178.1640  142.3150 O   0  0  0  0  0  0  0  0  0  0  0  0
  188.0750  178.6230  141.4550 C   0  0  0  0  0  2  0  0  0  0  0  0
  187.9280  177.5220  138.0730 C   0  0  0  0  0  0  0  0  0  0  0  0
  188.9600  176.7350  138.4430 N   0  0  0  0  0  0  0  0  0  0  0  0
  189.2270  177.1190  139.7200 C   0  0  0  0  0  3  0  0  0  0  0  0
  185.6540  178.0030  137.7320 C   0  0  1  0  0  3  0  0  0  0  0  0
  186.1770  178.6270  138.9560 N   0  0  0  0  0  2  0  0  0  0  0  0
  187.5330  178.3400  139.0210 N   0  0  0  0  0  0  0  0  0  0  0  0
  186.8300  177.1800  137.1330 C   0  0  0  0  0  2  0  0  0  0  0  0
  188.2980  178.0820  140.0850 C   0  0  0  0  0  0  0  0  0  0  0  0
  184.4840  177.1130  138.0320 C   0  0  0  0  0  0  0  0  0  0  0  0
  182.3790  175.3780  138.5660 C   0  0  0  0  0  3  0  0  0  0  0  0
  183.3300  175.0520  137.6470 N   0  0  0  0  0  0  0  0  0  0  0  0
  182.4580  176.5880  139.2570 C   0  0  0  0  0  3  0  0  0  0  0  0
  184.3710  175.8850  137.3720 C   0  0  0  0  0  3  0  0  0  0  0  0
  183.5190  177.4550  138.9910 C   0  0  0  0  0  3  0  0  0  0  0  0
  1  4  1  6  0  0  0
  1  9  1  0  0  0  0
  2 17  1  6  0  0  0
  2  1  1  0  0  0  0
  2  5  1  0  0  0  0
  3  6  1  1  0  0  0
  5 10  1  1  0  0  0
  5  7  1  0  0  0  0
  8  4  1  6  0  0  0
  8  3  1  0  0  0  0
  8  6  1  0  0  0  0
  9  7  1  6  0  0  0
  9  3  1  0  0  0  0
 12 10  1  0  0  0  0
 12 11  2  0  0  0  0
 13 14  2  0  0  0  0
 13 15  1  0  0  0  0
 14 12  1  0  0  0  0
 15 16  2  0  0  0  0
 16 11  1  0  0  0  0
 18 17  1  0  0  0  0
 19 20  2  0  0  0  0
 19 24  1  0  0  0  0
 20 21  1  0  0  0  0
 21 26  2  0  0  0  0
 22 27  1  1  0  0  0
 22 23  1  0  0  0  0
 23 24  1  0  0  0  0
 24 26  1  0  0  0  0
 25 22  1  0  0  0  0
 25 19  1  0  0  0  0
 26 18  1  0  0  0  0
 27 32  1  0  0  0  0
 28 30  1  0  0  0  0
 29 28  2  0  0  0  0
 31 29  1  0  0  0  0
 31 27  2  0  0  0  0
 32 30  2  0  0  0  0
M  END
>  <MODEL>
3

>  <REMARK>
 VINA RESULT:      -8.8      1.626      2.111
  Name = 
  6 active torsions:
  status: ('A' for Active; 'I' for Inactive)
    1  A    between atoms: C_2  and  C_11
    2  A    between atoms: C_9  and  C_16
    3  A    between atoms: C_10  and  O_30
    4  A    between atoms: C_16  and  C_21
    5  A    between atoms: C_18  and  C_23
    6  A    between atoms: C_18  and  O_30
                            x       y       z     vdW  Elec       q    Type
                         _______ _______ _______ _____ _____    ______ ____

>  <TORSDO>
F 6

$$$$
=
 OpenBabel11062414093D

 32 38  0  0  1  0  0  0  0  0999 V2000
  184.2660  179.3810  140.2040 C   0  0  1  0  0  3  0  0  0  0  0  0
  185.4840  179.1310  141.0920 C   0  0  1  0  0  3  0  0  0  0  0  0
  183.1940  177.4790  139.3020 C   0  0  1  0  0  3  0  0  0  0  0  0
  184.5590  179.3900  138.7140 C   0  0  0  0  0  2  0  0  0  0  0  0
  184.9760  178.2140  142.1750 C   0  0  2  0  0  3  0  0  0  0  0  0
  182.4490  178.1710  138.1780 C   0  0  0  0  0  2  0  0  0  0  0  0
  183.7600  177.5370  141.5790 C   0  0  0  0  0  2  0  0  0  0  0  0
  183.9670  178.1130  138.1600 C   0  0  2  0  0  3  0  0  0  0  0  0
  183.2620  178.3510  140.4730 N   0  0  1  0  0  0  0  0  0  0  0  0
  184.5610  179.0380  143.3850 C   0  0  0  0  0  2  0  0  0  0  0  0
  184.9230  179.0040  145.8650 C   0  0  0  0  0  3  0  0  0  0  0  0
  185.3490  178.6240  144.5850 C   0  0  0  0  0  0  0  0  0  0  0  0
  187.2800  177.5210  145.5660 C   0  0  0  0  0  3  0  0  0  0  0  0
  186.5320  177.8860  144.4370 C   0  0  0  0  0  3  0  0  0  0  0  0
  186.8480  177.8980  146.8440 C   0  0  0  0  0  3  0  0  0  0  0  0
  185.6730  178.6420  146.9930 C   0  0  0  0  0  3  0  0  0  0  0  0
  186.5210  178.4990  140.3930 O   0  0  0  0  0  0  0  0  0  0  0  0
  187.6390  178.6540  141.2160 C   0  0  0  0  0  2  0  0  0  0  0  0
  190.2210  177.4050  139.1080 C   0  0  0  0  0  0  0  0  0  0  0  0
  190.3710  176.4900  140.0880 N   0  0  0  0  0  0  0  0  0  0  0  0
  189.5080  176.8980  141.0560 C   0  0  0  0  0  3  0  0  0  0  0  0
  189.3320  178.2110  137.0880 C   0  0  1  0  0  3  0  0  0  0  0  0
  188.6820  178.8130  138.2600 N   0  0  0  0  0  2  0  0  0  0  0  0
  189.3270  178.3250  139.3880 N   0  0  0  0  0  0  0  0  0  0  0  0
  190.3600  177.1850  137.6450 C   0  0  0  0  0  2  0  0  0  0  0  0
  188.8250  178.0110  140.5860 C   0  0  0  0  0  0  0  0  0  0  0  0
  188.3320  177.5290  136.2010 C   0  0  0  0  0  0  0  0  0  0  0  0
  186.5150  176.1710  134.5960 C   0  0  0  0  0  3  0  0  0  0  0  0
  187.7180  175.6140  134.9040 N   0  0  0  0  0  0  0  0  0  0  0  0
  186.1770  177.4310  135.0920 C   0  0  0  0  0  3  0  0  0  0  0  0
  188.6230  176.2590  135.6910 C   0  0  0  0  0  3  0  0  0  0  0  0
  187.0900  178.1080  135.9030 C   0  0  0  0  0  3  0  0  0  0  0  0
  1  4  1  6  0  0  0
  1  9  1  0  0  0  0
  1  2  1  0  0  0  0
  2 17  1  6  0  0  0
  2  5  1  0  0  0  0
  3  6  1  6  0  0  0
  3  9  1  0  0  0  0
  5 10  1  1  0  0  0
  7  5  1  0  0  0  0
  8  6  1  6  0  0  0
  8  4  1  0  0  0  0
  8  3  1  0  0  0  0
  9  7  1  1  0  0  0
 10 12  1  0  0  0  0
 11 16  1  0  0  0  0
 12 11  2  0  0  0  0
 13 15  1  0  0  0  0
 14 12  1  0  0  0  0
 14 13  2  0  0  0  0
 15 16  2  0  0  0  0
 17 18  1  0  0  0  0
 19 24  1  0  0  0  0
 19 20  2  0  0  0  0
 20 21  1  0  0  0  0
 22 27  1  6  0  0  0
 22 25  1  0  0  0  0
 22 23  1  0  0  0  0
 23 24  1  0  0  0  0
 24 26  1  0  0  0  0
 25 19  1  0  0  0  0
 26 21  2  0  0  0  0
 26 18  1  0  0  0  0
 28 29  2  0  0  0  0
 28 30  1  0  0  0  0
 29 31  1  0  0  0  0
 30 32  2  0  0  0  0
 31 27  2  0  0  0  0
 32 27  1  0  0  0  0
M  END
>  <MODEL>
4

>  <REMARK>
 VINA RESULT:      -8.8      2.253      4.907
  Name = 
  6 active torsions:
  status: ('A' for Active; 'I' for Inactive)
    1  A    between atoms: C_2  and  C_11
    2  A    between atoms: C_9  and  C_16
    3  A    between atoms: C_10  and  O_30
    4  A    between atoms: C_16  and  C_21
    5  A    between atoms: C_18  and  C_23
    6  A    between atoms: C_18  and  O_30
                            x       y       z     vdW  Elec       q    Type
                         _______ _______ _______ _____ _____    ______ ____

>  <TORSDO>
F 6

$$$$
=
 OpenBabel11062414093D

 32 38  0  0  1  0  0  0  0  0999 V2000
  185.7430  179.2390  144.2000 C   0  0  1  0  0  3  0  0  0  0  0  0
  186.9150  178.2590  144.1680 C   0  0  1  0  0  3  0  0  0  0  0  0
  183.6100  178.3390  144.6640 C   0  0  1  0  0  3  0  0  0  0  0  0
  184.9520  179.3230  142.9060 C   0  0  0  0  0  2  0  0  0  0  0  0
  186.8770  177.5870  145.5180 C   0  0  2  0  0  3  0  0  0  0  0  0
  182.7770  179.4810  144.1170 C   0  0  0  0  0  2  0  0  0  0  0  0
  185.4490  177.7430  145.9950 C   0  0  0  0  0  2  0  0  0  0  0  0
  183.6290  178.6440  143.1780 C   0  0  2  0  0  3  0  0  0  0  0  0
  184.8320  178.8560  145.2770 N   0  0  1  0  0  0  0  0  0  0  0  0
  187.8170  178.3100  146.4710 C   0  0  0  0  0  2  0  0  0  0  0  0
  190.0710  178.1140  145.3910 C   0  0  0  0  0  3  0  0  0  0  0  0
  189.1840  177.7110  146.3990 C   0  0  0  0  0  0  0  0  0  0  0  0
  190.8500  176.1470  147.2250 C   0  0  0  0  0  3  0  0  0  0  0  0
  189.5740  176.7230  147.3130 C   0  0  0  0  0  3  0  0  0  0  0  0
  191.7360  176.5560  146.2200 C   0  0  0  0  0  3  0  0  0  0  0  0
  191.3450  177.5360  145.3010 C   0  0  0  0  0  3  0  0  0  0  0  0
  186.7650  177.2950  143.1620 O   0  0  0  0  0  0  0  0  0  0  0  0
  187.8180  176.4030  143.3780 C   0  0  0  0  0  2  0  0  0  0  0  0
  189.9730  177.4190  140.7320 C   0  0  0  0  0  0  0  0  0  0  0  0
  190.7630  176.4310  141.1990 N   0  0  0  0  0  0  0  0  0  0  0  0
  190.1210  175.9930  142.3150 C   0  0  0  0  0  3  0  0  0  0  0  0
  188.2950  178.3070  139.3460 C   0  0  1  0  0  3  0  0  0  0  0  0
  187.8140  178.0600  140.7130 N   0  0  0  0  0  2  0  0  0  0  0  0
  188.8950  177.6080  141.4580 N   0  0  0  0  0  0  0  0  0  0  0  0
  189.7710  177.8130  139.3140 C   0  0  0  0  0  2  0  0  0  0  0  0
  188.9330  176.6980  142.4350 C   0  0  0  0  0  0  0  0  0  0  0  0
  187.4680  177.5670  138.3360 C   0  0  0  0  0  0  0  0  0  0  0  0
  185.8920  176.2900  136.4370 C   0  0  0  0  0  3  0  0  0  0  0  0
  185.4440  177.4090  137.0710 N   0  0  0  0  0  0  0  0  0  0  0  0
  187.1560  175.7770  136.7300 C   0  0  0  0  0  3  0  0  0  0  0  0
  186.2000  178.0530  138.0020 C   0  0  0  0  0  3  0  0  0  0  0  0
  187.9480  176.4240  137.6810 C   0  0  0  0  0  3  0  0  0  0  0  0
  1  4  1  6  0  0  0
  1  9  1  0  0  0  0
  2 17  1  6  0  0  0
  2  1  1  0  0  0  0
  2  5  1  0  0  0  0
  3  6  1  1  0  0  0
  3  9  1  0  0  0  0
  5  7  1  0  0  0  0
  5 10  1  1  0  0  0
  8  4  1  1  0  0  0
  8  6  1  0  0  0  0
  8  3  1  0  0  0  0
  9  7  1  1  0  0  0
 11 12  1  0  0  0  0
 12 10  1  0  0  0  0
 12 14  2  0  0  0  0
 13 14  1  0  0  0  0
 15 13  2  0  0  0  0
 16 11  2  0  0  0  0
 16 15  1  0  0  0  0
 17 18  1  0  0  0  0
 19 20  2  0  0  0  0
 19 24  1  0  0  0  0
 20 21  1  0  0  0  0
 21 26  2  0  0  0  0
 22 27  1  6  0  0  0
 22 23  1  0  0  0  0
 23 24  1  0  0  0  0
 24 26  1  0  0  0  0
 25 22  1  0  0  0  0
 25 19  1  0  0  0  0
 26 18  1  0  0  0  0
 28 30  2  0  0  0  0
 28 29  1  0  0  0  0
 29 31  2  0  0  0  0
 30 32  1  0  0  0  0
 31 27  1  0  0  0  0
 32 27  2  0  0  0  0
M  END
>  <MODEL>
5

>  <REMARK>
 VINA RESULT:      -8.4      1.746      4.858
  Name = 
  6 active torsions:
  status: ('A' for Active; 'I' for Inactive)
    1  A    between atoms: C_2  and  C_11
    2  A    between atoms: C_9  and  C_16
    3  A    between atoms: C_10  and  O_30
    4  A    between atoms: C_16  and  C_21
    5  A    between atoms: C_18  and  C_23
    6  A    between atoms: C_18  and  O_30
                            x       y       z     vdW  Elec       q    Type
                         _______ _______ _______ _____ _____    ______ ____

>  <TORSDO>
F 6

$$$$
=
 OpenBabel11062414093D

 32 38  0  0  1  0  0  0  0  0999 V2000
  191.2600  176.9770  137.9590 C   0  0  1  0  0  3  0  0  0  0  0  0
  190.3760  177.3200  139.1580 C   0  0  1  0  0  3  0  0  0  0  0  0
  191.2220  174.7380  137.2100 C   0  0  1  0  0  3  0  0  0  0  0  0
  192.6100  176.3830  138.3170 C   0  0  0  0  0  2  0  0  0  0  0  0
  188.9920  176.8990  138.7340 C   0  0  2  0  0  3  0  0  0  0  0  0
  192.5200  174.7560  136.4280 C   0  0  0  0  0  2  0  0  0  0  0  0
  189.2090  175.8590  137.6550 C   0  0  0  0  0  2  0  0  0  0  0  0
  192.5410  174.9210  137.9380 C   0  0  2  0  0  3  0  0  0  0  0  0
  190.5490  176.0310  137.1000 N   0  0  1  0  0  0  0  0  0  0  0  0
  188.2530  178.0950  138.1520 C   0  0  0  0  0  2  0  0  0  0  0  0
  185.7490  178.2050  138.1450 C   0  0  0  0  0  3  0  0  0  0  0  0
  186.9520  178.2920  138.8590 C   0  0  0  0  0  0  0  0  0  0  0  0
  185.7040  178.8050  140.8800 C   0  0  0  0  0  3  0  0  0  0  0  0
  186.9270  178.5970  140.2270 C   0  0  0  0  0  3  0  0  0  0  0  0
  184.5030  178.7110  140.1640 C   0  0  0  0  0  3  0  0  0  0  0  0
  184.5260  178.4150  138.7970 C   0  0  0  0  0  3  0  0  0  0  0  0
  190.7500  176.6070  140.3050 O   0  0  0  0  0  0  0  0  0  0  0  0
  189.6860  176.7930  141.1910 C   0  0  0  0  0  2  0  0  0  0  0  0
  190.3020  177.8420  144.5360 C   0  0  0  0  0  0  0  0  0  0  0  0
  191.0520  178.7920  143.9400 N   0  0  0  0  0  0  0  0  0  0  0  0
  191.0160  178.4620  142.6210 C   0  0  0  0  0  3  0  0  0  0  0  0
  188.3160  176.9870  145.4560 C   0  0  1  0  0  3  0  0  0  0  0  0
  188.5740  176.4640  144.1070 N   0  0  0  0  0  2  0  0  0  0  0  0
  189.7960  176.9740  143.6920 N   0  0  0  0  0  0  0  0  0  0  0  0
  189.4650  177.9930  145.7540 C   0  0  0  0  0  2  0  0  0  0  0  0
  190.1870  177.3600  142.4740 C   0  0  0  0  0  0  0  0  0  0  0  0
  186.9820  177.6710  145.5290 C   0  0  0  0  0  0  0  0  0  0  0  0
  184.5510  178.9990  145.7420 C   0  0  0  0  0  3  0  0  0  0  0  0
  185.3500  178.8370  146.8330 N   0  0  0  0  0  0  0  0  0  0  0  0
  184.9510  178.5040  144.5000 C   0  0  0  0  0  3  0  0  0  0  0  0
  186.5460  178.1930  146.7510 C   0  0  0  0  0  3  0  0  0  0  0  0
  186.1750  177.8420  144.3950 C   0  0  0  0  0  3  0  0  0  0  0  0
  1  4  1  1  0  0  0
  1  2  1  0  0  0  0
  2 17  1  1  0  0  0
  3  6  1  6  0  0  0
  3  8  1  0  0  0  0
  5 10  1  6  0  0  0
  5  2  1  0  0  0  0
  7  5  1  0  0  0  0
  8  6  1  6  0  0  0
  8  4  1  0  0  0  0
  9  3  1  0  0  0  0
  9  7  1  1  0  0  0
  9  1  1  0  0  0  0
 10 12  1  0  0  0  0
 11 16  2  0  0  0  0
 11 12  1  0  0  0  0
 12 14  2  0  0  0  0
 14 13  1  0  0  0  0
 15 13  2  0  0  0  0
 16 15  1  0  0  0  0
 17 18  1  0  0  0  0
 18 26  1  0  0  0  0
 19 25  1  0  0  0  0
 20 19  2  0  0  0  0
 21 20  1  0  0  0  0
 22 27  1  6  0  0  0
 22 25  1  0  0  0  0
 23 22  1  0  0  0  0
 24 23  1  0  0  0  0
 24 19  1  0  0  0  0
 26 21  2  0  0  0  0
 26 24  1  0  0  0  0
 27 31  1  0  0  0  0
 28 29  1  0  0  0  0
 30 28  2  0  0  0  0
 31 29  2  0  0  0  0
 32 30  1  0  0  0  0
 32 27  2  0  0  0  0
M  END
>  <MODEL>
6

>  <REMARK>
 VINA RESULT:      -8.4      2.199      7.082
  Name = 
  6 active torsions:
  status: ('A' for Active; 'I' for Inactive)
    1  A    between atoms: C_2  and  C_11
    2  A    between atoms: C_9  and  C_16
    3  A    between atoms: C_10  and  O_30
    4  A    between atoms: C_16  and  C_21
    5  A    between atoms: C_18  and  C_23
    6  A    between atoms: C_18  and  O_30
                            x       y       z     vdW  Elec       q    Type
                         _______ _______ _______ _____ _____    ______ ____

>  <TORSDO>
F 6

$$$$
=
 OpenBabel11062414093D

 32 38  0  0  1  0  0  0  0  0999 V2000
  189.0560  176.7520  141.1600 C   0  0  1  0  0  3  0  0  0  0  0  0
  188.1190  177.5560  142.0600 C   0  0  1  0  0  3  0  0  0  0  0  0
  191.1830  177.6830  140.7290 C   0  0  1  0  0  3  0  0  0  0  0  0
  189.0510  177.1740  139.7020 C   0  0  0  0  0  2  0  0  0  0  0  0
  188.9050  177.7590  143.3310 C   0  0  2  0  0  3  0  0  0  0  0  0
  191.5190  176.8750  139.4900 C   0  0  0  0  0  2  0  0  0  0  0  0
  190.3560  177.6160  142.9240 C   0  0  0  0  0  2  0  0  0  0  0  0
  190.3710  177.8700  139.4600 C   0  0  2  0  0  3  0  0  0  0  0  0
  190.4220  176.8660  141.6720 N   0  0  1  0  0  0  0  0  0  0  0  0
  188.5440  176.6710  144.3310 C   0  0  0  0  0  2  0  0  0  0  0  0
  189.3960  177.3440  146.5910 C   0  0  0  0  0  3  0  0  0  0  0  0
  188.3290  177.2670  145.6850 C   0  0  0  0  0  0  0  0  0  0  0  0
  186.8580  178.2530  147.3480 C   0  0  0  0  0  3  0  0  0  0  0  0
  187.0590  177.7180  146.0680 C   0  0  0  0  0  3  0  0  0  0  0  0
  187.9280  178.3340  148.2490 C   0  0  0  0  0  3  0  0  0  0  0  0
  189.1960  177.8770  147.8720 C   0  0  0  0  0  3  0  0  0  0  0  0
  187.8000  178.8020  141.5040 O   0  0  0  0  0  0  0  0  0  0  0  0
  186.5180  178.6280  140.9770 C   0  0  0  0  0  2  0  0  0  0  0  0
  183.6250  178.8170  143.0420 C   0  0  0  0  0  0  0  0  0  0  0  0
  184.4090  179.6040  143.8080 N   0  0  0  0  0  0  0  0  0  0  0  0
  185.6250  179.5490  143.2030 C   0  0  0  0  0  3  0  0  0  0  0  0
  182.0540  178.4150  141.3410 C   0  0  1  0  0  3  0  0  0  0  0  0
  183.4250  178.0980  140.9180 N   0  0  0  0  0  2  0  0  0  0  0  0
  184.2540  178.3030  142.0120 N   0  0  0  0  0  0  0  0  0  0  0  0
  182.1700  178.9740  142.7890 C   0  0  0  0  0  2  0  0  0  0  0  0
  185.5020  178.7780  142.0560 C   0  0  0  0  0  0  0  0  0  0  0  0
  181.4230  179.4280  140.4320 C   0  0  0  0  0  0  0  0  0  0  0  0
  180.2230  181.3590  138.8340 C   0  0  0  0  0  3  0  0  0  0  0  0
  179.7190  181.0670  140.0650 N   0  0  0  0  0  0  0  0  0  0  0  0
  181.3560  180.6930  138.3640 C   0  0  0  0  0  3  0  0  0  0  0  0
  180.2920  180.1270  140.8660 C   0  0  0  0  0  3  0  0  0  0  0  0
  181.9600  179.7280  139.1720 C   0  0  0  0  0  3  0  0  0  0  0  0
  1  4  1  6  0  0  0
  1  9  1  0  0  0  0
  1  2  1  0  0  0  0
  2 17  1  6  0  0  0
  2  5  1  0  0  0  0
  3  6  1  6  0  0  0
  3  9  1  0  0  0  0
  5 10  1  1  0  0  0
  7  5  1  0  0  0  0
  8  6  1  6  0  0  0
  8  4  1  0  0  0  0
  8  3  1  0  0  0  0
  9  7  1  1  0  0  0
 10 12  1  0  0  0  0
 11 16  1  0  0  0  0
 12 14  1  0  0  0  0
 12 11  2  0  0  0  0
 13 15  1  0  0  0  0
 14 13  2  0  0  0  0
 16 15  2  0  0  0  0
 18 17  1  0  0  0  0
 18 26  1  0  0  0  0
 19 20  2  0  0  0  0
 21 20  1  0  0  0  0
 22 27  1  6  0  0  0
 22 25  1  0  0  0  0
 23 22  1  0  0  0  0
 23 24  1  0  0  0  0
 24 26  1  0  0  0  0
 24 19  1  0  0  0  0
 25 19  1  0  0  0  0
 26 21  2  0  0  0  0
 27 31  1  0  0  0  0
 28 29  1  0  0  0  0
 29 31  2  0  0  0  0
 30 28  2  0  0  0  0
 30 32  1  0  0  0  0
 32 27  2  0  0  0  0
M  END
>  <MODEL>
7

>  <REMARK>
 VINA RESULT:      -8.4      3.299      5.915
  Name = 
  6 active torsions:
  status: ('A' for Active; 'I' for Inactive)
    1  A    between atoms: C_2  and  C_11
    2  A    between atoms: C_9  and  C_16
    3  A    between atoms: C_10  and  O_30
    4  A    between atoms: C_16  and  C_21
    5  A    between atoms: C_18  and  C_23
    6  A    between atoms: C_18  and  O_30
                            x       y       z     vdW  Elec       q    Type
                         _______ _______ _______ _____ _____    ______ ____

>  <TORSDO>
F 6

$$$$
=
 OpenBabel11062414093D

 32 38  0  0  1  0  0  0  0  0999 V2000
  186.8150  177.0340  144.3930 C   0  0  1  0  0  3  0  0  0  0  0  0
  186.7200  177.6700  143.0070 C   0  0  1  0  0  3  0  0  0  0  0  0
  186.9990  178.5050  146.2320 C   0  0  1  0  0  3  0  0  0  0  0  0
  188.2290  176.8810  144.9250 C   0  0  0  0  0  2  0  0  0  0  0  0
  185.5320  178.5940  143.1010 C   0  0  2  0  0  3  0  0  0  0  0  0
  187.5480  177.5140  147.2400 C   0  0  0  0  0  2  0  0  0  0  0  0
  185.3820  178.8950  144.5770 C   0  0  0  0  0  2  0  0  0  0  0  0
  188.3770  177.9040  146.0290 C   0  0  2  0  0  3  0  0  0  0  0  0
  186.0480  177.8430  145.3410 N   0  0  1  0  0  0  0  0  0  0  0  0
  184.2890  177.8770  142.5950 C   0  0  0  0  0  2  0  0  0  0  0  0
  182.4050  178.6470  141.1320 C   0  0  0  0  0  3  0  0  0  0  0  0
  183.7850  178.5350  141.3520 C   0  0  0  0  0  0  0  0  0  0  0  0
  184.2020  179.6060  139.2110 C   0  0  0  0  0  3  0  0  0  0  0  0
  184.6830  179.0110  140.3860 C   0  0  0  0  0  3  0  0  0  0  0  0
  182.8230  179.7220  138.9970 C   0  0  0  0  0  3  0  0  0  0  0  0
  181.9240  179.2400  139.9560 C   0  0  0  0  0  3  0  0  0  0  0  0
  187.8660  178.4120  142.6910 O   0  0  0  0  0  0  0  0  0  0  0  0
  187.7760  178.6180  141.3120 C   0  0  0  0  0  2  0  0  0  0  0  0
  190.2500  177.3550  139.0860 C   0  0  0  0  0  0  0  0  0  0  0  0
  190.4420  176.4410  140.0590 N   0  0  0  0  0  0  0  0  0  0  0  0
  189.6270  176.8540  141.0660 C   0  0  0  0  0  3  0  0  0  0  0  0
  189.2690  178.1620  137.1090 C   0  0  1  0  0  3  0  0  0  0  0  0
  188.6780  178.7680  138.3100 N   0  0  0  0  0  2  0  0  0  0  0  0
  189.3740  178.2780  139.4070 N   0  0  0  0  0  0  0  0  0  0  0  0
  190.3180  177.1320  137.6190 C   0  0  0  0  0  2  0  0  0  0  0  0
  188.9280  177.9680  140.6280 C   0  0  0  0  0  0  0  0  0  0  0  0
  188.2250  177.4820  136.2720 C   0  0  0  0  0  0  0  0  0  0  0  0
  186.3020  176.1370  134.7840 C   0  0  0  0  0  3  0  0  0  0  0  0
  187.3200  175.4550  135.3770 N   0  0  0  0  0  0  0  0  0  0  0  0
  186.2080  177.5220  134.9250 C   0  0  0  0  0  3  0  0  0  0  0  0
  188.2720  176.0930  136.1130 C   0  0  0  0  0  3  0  0  0  0  0  0
  187.1730  178.1940  135.6780 C   0  0  0  0  0  3  0  0  0  0  0  0
  1  4  1  1  0  0  0
  1  9  1  0  0  0  0
  2 17  1  1  0  0  0
  2  5  1  0  0  0  0
  2  1  1  0  0  0  0
  3  6  1  1  0  0  0
  5 10  1  1  0  0  0
  5  7  1  0  0  0  0
  8  4  1  6  0  0  0
  8  3  1  0  0  0  0
  8  6  1  0  0  0  0
  9  7  1  6  0  0  0
  9  3  1  0  0  0  0
 11 12  1  0  0  0  0
 12 10  1  0  0  0  0
 13 14  1  0  0  0  0
 14 12  2  0  0  0  0
 15 13  2  0  0  0  0
 15 16  1  0  0  0  0
 16 11  2  0  0  0  0
 18 17  1  0  0  0  0
 19 24  1  0  0  0  0
 19 20  2  0  0  0  0
 20 21  1  0  0  0  0
 22 27  1  1  0  0  0
 22 25  1  0  0  0  0
 22 23  1  0  0  0  0
 23 24  1  0  0  0  0
 24 26  1  0  0  0  0
 25 19  1  0  0  0  0
 26 21  2  0  0  0  0
 26 18  1  0  0  0  0
 28 30  2  0  0  0  0
 28 29  1  0  0  0  0
 29 31  2  0  0  0  0
 30 32  1  0  0  0  0
 31 27  1  0  0  0  0
 32 27  2  0  0  0  0
M  END
>  <MODEL>
8

>  <REMARK>
 VINA RESULT:      -8.2      1.761      2.743
  Name = 
  6 active torsions:
  status: ('A' for Active; 'I' for Inactive)
    1  A    between atoms: C_2  and  C_11
    2  A    between atoms: C_9  and  C_16
    3  A    between atoms: C_10  and  O_30
    4  A    between atoms: C_16  and  C_21
    5  A    between atoms: C_18  and  C_23
    6  A    between atoms: C_18  and  O_30
                            x       y       z     vdW  Elec       q    Type
                         _______ _______ _______ _____ _____    ______ ____

>  <TORSDO>
F 6

$$$$
=
 OpenBabel11062414093D

 32 38  0  0  1  0  0  0  0  0999 V2000
  189.2690  176.6510  141.4240 C   0  0  1  0  0  3  0  0  0  0  0  0
  188.2760  177.3630  142.3410 C   0  0  1  0  0  3  0  0  0  0  0  0
  191.1700  177.8790  140.7510 C   0  0  1  0  0  3  0  0  0  0  0  0
  189.0890  176.9430  139.9450 C   0  0  0  0  0  2  0  0  0  0  0  0
  189.1040  177.7980  143.5240 C   0  0  2  0  0  3  0  0  0  0  0  0
  191.5500  177.0370  139.5490 C   0  0  0  0  0  2  0  0  0  0  0  0
  190.5250  177.8610  143.0070 C   0  0  0  0  0  2  0  0  0  0  0  0
  190.2510  177.8240  139.5450 C   0  0  2  0  0  3  0  0  0  0  0  0
  190.6280  177.0300  141.8100 N   0  0  1  0  0  0  0  0  0  0  0  0
  189.0050  176.7520  144.6250 C   0  0  0  0  0  2  0  0  0  0  0  0
  189.4120  177.5550  146.9650 C   0  0  0  0  0  3  0  0  0  0  0  0
  188.5260  177.3830  145.8920 C   0  0  0  0  0  0  0  0  0  0  0  0
  186.7380  178.3420  147.2290 C   0  0  0  0  0  3  0  0  0  0  0  0
  187.1870  177.7730  146.0280 C   0  0  0  0  0  3  0  0  0  0  0  0
  187.6270  178.5180  148.2970 C   0  0  0  0  0  3  0  0  0  0  0  0
  188.9630  178.1210  148.1660 C   0  0  0  0  0  3  0  0  0  0  0  0
  187.7100  178.4890  141.7270 O   0  0  0  0  0  0  0  0  0  0  0  0
  186.3330  178.2670  141.7990 C   0  0  0  0  0  2  0  0  0  0  0  0
  184.1650  179.3740  139.2000 C   0  0  0  0  0  0  0  0  0  0  0  0
  185.1680  178.9640  138.3960 N   0  0  0  0  0  0  0  0  0  0  0  0
  186.1550  178.6010  139.2570 C   0  0  0  0  0  3  0  0  0  0  0  0
  182.1570  179.0900  140.3870 C   0  0  1  0  0  3  0  0  0  0  0  0
  183.3340  179.0250  141.2640 N   0  0  0  0  0  2  0  0  0  0  0  0
  184.4510  179.2750  140.4780 N   0  0  0  0  0  0  0  0  0  0  0  0
  182.7070  179.2690  138.9420 C   0  0  0  0  0  2  0  0  0  0  0  0
  185.6770  178.7490  140.5510 C   0  0  0  0  0  0  0  0  0  0  0  0
  181.3330  177.8400  140.4880 C   0  0  0  0  0  0  0  0  0  0  0  0
  179.7200  175.5860  140.6870 C   0  0  0  0  0  3  0  0  0  0  0  0
  179.3920  176.7330  141.3450 N   0  0  0  0  0  0  0  0  0  0  0  0
  180.8690  175.5340  139.8970 C   0  0  0  0  0  3  0  0  0  0  0  0
  180.1660  177.8500  141.2600 C   0  0  0  0  0  3  0  0  0  0  0  0
  181.6740  176.6700  139.7950 C   0  0  0  0  0  3  0  0  0  0  0  0
  1  4  1  6  0  0  0
  1  9  1  0  0  0  0
  1  2  1  0  0  0  0
  2 17  1  6  0  0  0
  2  5  1  0  0  0  0
  3  6  1  6  0  0  0
  3  9  1  0  0  0  0
  5 10  1  1  0  0  0
  7  5  1  0  0  0  0
  8  6  1  6  0  0  0
  8  4  1  0  0  0  0
  8  3  1  0  0  0  0
  9  7  1  1  0  0  0
 10 12  1  0  0  0  0
 11 16  1  0  0  0  0
 12 14  1  0  0  0  0
 12 11  2  0  0  0  0
 13 15  1  0  0  0  0
 14 13  2  0  0  0  0
 16 15  2  0  0  0  0
 17 18  1  0  0  0  0
 19 24  1  0  0  0  0
 20 19  2  0  0  0  0
 20 21  1  0  0  0  0
 21 26  2  0  0  0  0
 22 27  1  6  0  0  0
 22 23  1  0  0  0  0
 24 26  1  0  0  0  0
 24 23  1  0  0  0  0
 25 19  1  0  0  0  0
 25 22  1  0  0  0  0
 26 18  1  0  0  0  0
 27 31  1  0  0  0  0
 28 29  1  0  0  0  0
 30 28  2  0  0  0  0
 31 29  2  0  0  0  0
 32 30  1  0  0  0  0
 32 27  2  0  0  0  0
M  END
>  <MODEL>
9

>  <REMARK>
 VINA RESULT:      -8.1      3.338      5.604
  Name = 
  6 active torsions:
  status: ('A' for Active; 'I' for Inactive)
    1  A    between atoms: C_2  and  C_11
    2  A    between atoms: C_9  and  C_16
    3  A    between atoms: C_10  and  O_30
    4  A    between atoms: C_16  and  C_21
    5  A    between atoms: C_18  and  C_23
    6  A    between atoms: C_18  and  O_30
                            x       y       z     vdW  Elec       q    Type
                         _______ _______ _______ _____ _____    ______ ____

>  <TORSDO>
F 6

$$$$
