=
 OpenBabel11062413543D

 25 30  0  0  1  0  0  0  0  0999 V2000
  195.3530  175.2540  137.1590 O   0  0  0  0  0  0  0  0  0  0  0  0
  194.1880  175.7310  137.2230 C   0  0  0  0  0  0  0  0  0  0  0  0
  188.2670  177.2440  136.1510 C   0  0  1  0  0  0  0  0  0  0  0  0
  192.1780  174.8770  136.1170 C   0  0  2  0  0  0  0  0  0  0  0  0
  193.7030  173.9380  134.5950 C   0  0  0  0  0  2  0  0  0  0  0  0
  187.2410  176.9920  137.2890 C   0  0  2  0  0  3  0  0  0  0  0  0
  191.2320  174.9580  137.3010 C   0  0  1  0  0  3  0  0  0  0  0  0
  191.2820  176.2350  138.1140 C   0  0  0  0  0  0  0  0  0  0  0  0
  188.7610  179.3920  137.1550 O   0  0  0  0  0  1  0  0  0  0  0  0
  194.0720  175.3470  134.8130 N   0  0  0  0  0  2  0  0  0  0  0  0
  190.0810  177.1130  138.0450 C   0  0  2  0  0  3  0  0  0  0  0  0
  189.0660  178.5490  136.0820 C   0  0  1  0  0  3  0  0  0  0  0  0
  193.6920  176.1740  138.4910 N   0  0  0  0  0  2  0  0  0  0  0  0
  188.9100  176.4870  138.7940 C   0  0  0  0  0  2  0  0  0  0  0  0
  192.3860  176.7240  138.6860 C   0  0  0  0  0  3  0  0  0  0  0  0
  189.7330  177.2490  136.5510 C   0  0  2  0  0  0  0  0  0  0  0  0
  188.0050  176.6900  134.8950 O   0  0  0  0  0  1  0  0  0  0  0  0
  193.3320  175.8280  135.9790 C   0  0  2  0  0  3  0  0  0  0  0  0
  190.7400  175.3110  135.8660 C   0  0  1  0  0  3  0  0  0  0  0  0
  187.7470  177.2560  138.5860 O   0  0  0  0  0  0  0  0  0  0  0  0
  190.6430  176.7050  135.6170 O   0  0  0  0  0  0  0  0  0  0  0  0
  192.9100  172.6470  136.4290 O   0  0  0  0  0  1  0  0  0  0  0  0
  192.5080  173.5730  135.4660 C   0  0  1  0  0  3  0  0  0  0  0  0
  186.5930  175.6100  137.2170 C   0  0  0  0  0  2  0  0  0  0  0  0
  185.2040  175.7320  137.2170 O   0  0  0  0  0  1  0  0  0  0  0  0
  1  2  2  0  0  0  0
  2 13  1  0  0  0  0
  3 17  1  6  0  0  0
  3 16  1  0  0  0  0
  3  6  1  0  0  0  0
  4  7  1  0  0  0  0
  5 10  1  0  0  0  0
  5 23  1  0  0  0  0
  6 20  1  0  0  0  0
  7  8  1  0  0  0  0
  8 15  2  0  0  0  0
 10 18  1  0  0  0  0
 11  8  1  0  0  0  0
 11 14  1  0  0  0  0
 12  3  1  0  0  0  0
 12 16  1  0  0  0  0
 12  9  1  0  0  0  0
 13 15  1  0  0  0  0
 16 11  1  0  0  0  0
 18  4  1  0  0  0  0
 18  2  1  0  0  0  0
 19  4  1  0  0  0  0
 19  7  1  0  0  0  0
 20 14  1  0  0  0  0
 21 19  1  0  0  0  0
 21 16  1  0  0  0  0
 23  4  1  0  0  0  0
 23 22  1  0  0  0  0
 24 25  1  0  0  0  0
 24  6  1  0  0  0  0
M  END
>  <MODEL>
1

>  <REMARK>
 VINA RESULT:      -5.0      0.000      0.000
  Name = 
  1 active torsions:
  status: ('A' for Active; 'I' for Inactive)
    1  A    between atoms: C_6  and  C_18
                            x       y       z     vdW  Elec       q    Type
                         _______ _______ _______ _____ _____    ______ ____

>  <TORSDO>
F 1

$$$$
=
 OpenBabel11062413543D

 25 30  0  0  1  0  0  0  0  0999 V2000
  185.9620  177.9150  136.8650 O   0  0  0  0  0  0  0  0  0  0  0  0
  186.4620  177.8040  138.0160 C   0  0  0  0  0  0  0  0  0  0  0  0
  190.1960  176.6830  142.8430 C   0  0  1  0  0  0  0  0  0  0  0  0
  188.8380  177.6520  138.5870 C   0  0  2  0  0  0  0  0  0  0  0  0
  189.0680  176.8400  136.3930 C   0  0  0  0  0  2  0  0  0  0  0  0
  190.4620  177.8470  143.8350 C   0  0  2  0  0  3  0  0  0  0  0  0
  188.8470  178.6460  139.7340 C   0  0  1  0  0  3  0  0  0  0  0  0
  187.7190  178.5230  140.7370 C   0  0  0  0  0  0  0  0  0  0  0  0
  188.2010  176.1430  144.1060 O   0  0  0  0  0  1  0  0  0  0  0  0
  187.9490  176.1320  137.0350 N   0  0  0  0  0  2  0  0  0  0  0  0
  188.0930  178.0720  142.1060 C   0  0  2  0  0  3  0  0  0  0  0  0
  188.9830  175.7630  143.0110 C   0  0  1  0  0  3  0  0  0  0  0  0
  185.9280  178.6010  139.0810 N   0  0  0  0  0  2  0  0  0  0  0  0
  188.8540  179.1660  142.8460 C   0  0  0  0  0  2  0  0  0  0  0  0
  186.4210  178.5670  140.4230 C   0  0  0  0  0  3  0  0  0  0  0  0
  189.0000  176.8410  141.9200 C   0  0  2  0  0  0  0  0  0  0  0  0
  191.2980  176.0440  142.2680 O   0  0  0  0  0  1  0  0  0  0  0  0
  187.6100  176.8500  138.2640 C   0  0  2  0  0  3  0  0  0  0  0  0
  189.7050  177.3470  139.8010 C   0  0  1  0  0  3  0  0  0  0  0  0
  189.3310  178.6660  144.0750 O   0  0  0  0  0  0  0  0  0  0  0  0
  189.1410  176.3260  140.6110 O   0  0  0  0  0  0  0  0  0  0  0  0
  189.3910  179.1540  136.8430 O   0  0  0  0  0  1  0  0  0  0  0  0
  189.6430  177.8780  137.3480 C   0  0  1  0  0  3  0  0  0  0  0  0
  191.6850  178.6850  143.4620 C   0  0  0  0  0  2  0  0  0  0  0  0
  191.8400  179.7350  144.3670 O   0  0  0  0  0  1  0  0  0  0  0  0
  1  2  2  0  0  0  0
  2 18  1  0  0  0  0
  2 13  1  0  0  0  0
  3 17  1  6  0  0  0
  3 12  1  0  0  0  0
  3  6  1  0  0  0  0
  4  7  1  0  0  0  0
  4 19  1  0  0  0  0
  5 10  1  0  0  0  0
  5 23  1  0  0  0  0
  6 20  1  0  0  0  0
  7 19  1  0  0  0  0
  7  8  1  0  0  0  0
  8 11  1  0  0  0  0
 10 18  1  0  0  0  0
 11 14  1  0  0  0  0
 12  9  1  0  0  0  0
 13 15  1  0  0  0  0
 14 20  1  0  0  0  0
 15  8  2  0  0  0  0
 16 11  1  0  0  0  0
 16  3  1  0  0  0  0
 16 12  1  0  0  0  0
 18  4  1  0  0  0  0
 19 21  1  0  0  0  0
 21 16  1  0  0  0  0
 22 23  1  0  0  0  0
 23  4  1  0  0  0  0
 24  6  1  0  0  0  0
 24 25  1  0  0  0  0
M  END
>  <MODEL>
2

>  <REMARK>
 VINA RESULT:      -4.8      4.206      6.841
  Name = 
  1 active torsions:
  status: ('A' for Active; 'I' for Inactive)
    1  A    between atoms: C_6  and  C_18
                            x       y       z     vdW  Elec       q    Type
                         _______ _______ _______ _____ _____    ______ ____

>  <TORSDO>
F 1

$$$$
=
 OpenBabel11062413543D

 25 30  0  0  1  0  0  0  0  0999 V2000
  189.8350  173.5450  135.4880 O   0  0  0  0  0  0  0  0  0  0  0  0
  191.0910  173.4950  135.5680 C   0  0  0  0  0  0  0  0  0  0  0  0
  197.1040  174.8360  136.3030 C   0  0  1  0  0  0  0  0  0  0  0  0
  192.5600  175.0590  136.7460 C   0  0  2  0  0  0  0  0  0  0  0  0
  190.7920  176.5780  136.4410 C   0  0  0  0  0  2  0  0  0  0  0  0
  197.9190  173.9700  137.3020 C   0  0  2  0  0  3  0  0  0  0  0  0
  193.4420  174.0400  137.4430 C   0  0  1  0  0  3  0  0  0  0  0  0
  193.9320  172.8850  136.5950 C   0  0  0  0  0  0  0  0  0  0  0  0
  197.5580  173.1810  134.5940 O   0  0  0  0  0  1  0  0  0  0  0  0
  191.0510  175.9030  135.1590 N   0  0  0  0  0  2  0  0  0  0  0  0
  195.3910  172.8450  136.3040 C   0  0  2  0  0  3  0  0  0  0  0  0
  196.9320  174.4060  134.8430 C   0  0  1  0  0  3  0  0  0  0  0  0
  191.7190  172.2290  135.8020 N   0  0  0  0  0  2  0  0  0  0  0  0
  196.1830  172.4790  137.5550 C   0  0  0  0  0  2  0  0  0  0  0  0
  193.1330  172.0530  135.9200 C   0  0  0  0  0  3  0  0  0  0  0  0
  195.7750  174.2630  135.8410 C   0  0  2  0  0  0  0  0  0  0  0  0
  197.1160  176.2230  136.4740 O   0  0  0  0  0  1  0  0  0  0  0  0
  191.9170  174.7550  135.4240 C   0  0  2  0  0  3  0  0  0  0  0  0
  194.0480  175.3570  136.8710 C   0  0  1  0  0  3  0  0  0  0  0  0
  197.5630  172.5990  137.2960 O   0  0  0  0  0  0  0  0  0  0  0  0
  194.7270  175.1890  135.6360 O   0  0  0  0  0  0  0  0  0  0  0  0
  190.9520  175.3330  138.4630 O   0  0  0  0  0  1  0  0  0  0  0  0
  191.7140  176.0210  137.5170 C   0  0  1  0  0  3  0  0  0  0  0  0
  197.9230  174.5360  138.7220 C   0  0  0  0  0  2  0  0  0  0  0  0
  199.0710  175.2990  138.9300 O   0  0  0  0  0  1  0  0  0  0  0  0
  1  2  2  0  0  0  0
  2 13  1  0  0  0  0
  3 17  1  1  0  0  0
  3  6  1  0  0  0  0
  4 19  1  0  0  0  0
  4  7  1  0  0  0  0
  4 23  1  0  0  0  0
  5 23  1  0  0  0  0
  6 24  1  0  0  0  0
  8  7  1  0  0  0  0
  9 12  1  0  0  0  0
 10 18  1  0  0  0  0
 10  5  1  0  0  0  0
 11  8  1  0  0  0  0
 11 14  1  0  0  0  0
 12 16  1  0  0  0  0
 12  3  1  0  0  0  0
 13 15  1  0  0  0  0
 15  8  2  0  0  0  0
 16  3  1  0  0  0  0
 16 11  1  0  0  0  0
 18  2  1  0  0  0  0
 18  4  1  0  0  0  0
 19  7  1  0  0  0  0
 20  6  1  0  0  0  0
 20 14  1  0  0  0  0
 21 16  1  0  0  0  0
 21 19  1  0  0  0  0
 23 22  1  0  0  0  0
 24 25  1  0  0  0  0
M  END
>  <MODEL>
3

>  <REMARK>
 VINA RESULT:      -4.8      2.871      7.306
  Name = 
  1 active torsions:
  status: ('A' for Active; 'I' for Inactive)
    1  A    between atoms: C_6  and  C_18
                            x       y       z     vdW  Elec       q    Type
                         _______ _______ _______ _____ _____    ______ ____

>  <TORSDO>
F 1

$$$$
=
 OpenBabel11062413543D

 25 30  0  0  1  0  0  0  0  0999 V2000
  189.5150  177.1630  136.2260 O   0  0  0  0  0  0  0  0  0  0  0  0
  189.3760  177.2330  137.4760 C   0  0  0  0  0  0  0  0  0  0  0  0
  189.7770  176.3620  143.6060 C   0  0  1  0  0  0  0  0  0  0  0  0
  190.9340  176.4260  139.1840 C   0  0  2  0  0  0  0  0  0  0  0  0
  191.6620  174.9680  137.4900 C   0  0  0  0  0  2  0  0  0  0  0  0
  190.1020  177.5970  144.4900 C   0  0  2  0  0  3  0  0  0  0  0  0
  190.9140  177.6470  140.0850 C   0  0  1  0  0  3  0  0  0  0  0  0
  189.5530  178.2390  140.3840 C   0  0  0  0  0  0  0  0  0  0  0  0
  187.4360  176.9710  143.7240 O   0  0  0  0  0  1  0  0  0  0  0  0
  190.1910  174.9310  137.5340 N   0  0  0  0  0  2  0  0  0  0  0  0
  189.0680  178.1170  141.7870 C   0  0  2  0  0  3  0  0  0  0  0  0
  188.3340  176.0280  143.2150 C   0  0  1  0  0  3  0  0  0  0  0  0
  188.8750  178.4470  138.0480 N   0  0  0  0  0  2  0  0  0  0  0  0
  189.8550  179.0390  142.7120 C   0  0  0  0  0  2  0  0  0  0  0  0
  188.6850  178.6450  139.4520 C   0  0  0  0  0  3  0  0  0  0  0  0
  189.2960  176.6500  142.1940 C   0  0  2  0  0  0  0  0  0  0  0  0
  190.5920  175.2330  143.7280 O   0  0  0  0  0  1  0  0  0  0  0  0
  189.7390  176.0540  138.3540 C   0  0  2  0  0  3  0  0  0  0  0  0
  190.9670  176.2120  140.6910 C   0  0  1  0  0  3  0  0  0  0  0  0
  189.4870  178.7950  144.0500 O   0  0  0  0  0  0  0  0  0  0  0  0
  189.7200  175.7510  141.1880 O   0  0  0  0  0  0  0  0  0  0  0  0
  192.7830  177.0380  137.8380 O   0  0  0  0  0  1  0  0  0  0  0  0
  192.1870  175.9700  138.5110 C   0  0  1  0  0  3  0  0  0  0  0  0
  191.6010  177.7930  144.7180 C   0  0  0  0  0  2  0  0  0  0  0  0
  191.9800  177.2190  145.9310 O   0  0  0  0  0  1  0  0  0  0  0  0
  1  2  2  0  0  0  0
  2 13  1  0  0  0  0
  2 18  1  0  0  0  0
  3 17  1  1  0  0  0
  3  6  1  0  0  0  0
  4  7  1  0  0  0  0
  4 19  1  0  0  0  0
  5 10  1  0  0  0  0
  5 23  1  0  0  0  0
  6 24  1  0  0  0  0
  7  8  1  0  0  0  0
  7 19  1  0  0  0  0
  8 11  1  0  0  0  0
 10 18  1  0  0  0  0
 11 16  1  0  0  0  0
 11 14  1  0  0  0  0
 12  3  1  0  0  0  0
 12  9  1  0  0  0  0
 13 15  1  0  0  0  0
 14 20  1  0  0  0  0
 15  8  2  0  0  0  0
 16 12  1  0  0  0  0
 16  3  1  0  0  0  0
 18  4  1  0  0  0  0
 19 21  1  0  0  0  0
 20  6  1  0  0  0  0
 21 16  1  0  0  0  0
 22 23  1  0  0  0  0
 23  4  1  0  0  0  0
 24 25  1  0  0  0  0
M  END
>  <MODEL>
4

>  <REMARK>
 VINA RESULT:      -4.6      4.147      6.101
  Name = 
  1 active torsions:
  status: ('A' for Active; 'I' for Inactive)
    1  A    between atoms: C_6  and  C_18
                            x       y       z     vdW  Elec       q    Type
                         _______ _______ _______ _____ _____    ______ ____

>  <TORSDO>
F 1

$$$$
=
 OpenBabel11062413543D

 25 30  0  0  1  0  0  0  0  0999 V2000
  186.3880  176.6980  136.2770 O   0  0  0  0  0  0  0  0  0  0  0  0
  185.4590  177.2520  136.9230 C   0  0  0  0  0  0  0  0  0  0  0  0
  179.9820  178.8410  139.3680 C   0  0  1  0  0  0  0  0  0  0  0  0
  183.2890  176.2860  137.5150 C   0  0  2  0  0  0  0  0  0  0  0  0
  183.6670  174.8990  135.6550 C   0  0  0  0  0  2  0  0  0  0  0  0
  179.8870  178.9480  140.9140 C   0  0  2  0  0  3  0  0  0  0  0  0
  183.2510  176.7200  138.9690 C   0  0  1  0  0  3  0  0  0  0  0  0
  183.6520  178.1530  139.2510 C   0  0  0  0  0  0  0  0  0  0  0  0
  180.7620  181.1330  139.3180 O   0  0  0  0  0  1  0  0  0  0  0  0
  183.9480  176.2900  135.2620 N   0  0  0  0  0  2  0  0  0  0  0  0
  182.5740  179.0640  139.7240 C   0  0  2  0  0  3  0  0  0  0  0  0
  180.4390  180.0320  138.5200 C   0  0  1  0  0  3  0  0  0  0  0  0
  185.7900  178.0290  138.0800 N   0  0  0  0  0  2  0  0  0  0  0  0
  182.1660  178.7220  141.1530 C   0  0  0  0  0  2  0  0  0  0  0  0
  184.8210  178.6940  138.8950 C   0  0  0  0  0  3  0  0  0  0  0  0
  181.3810  178.8470  138.7750 C   0  0  2  0  0  0  0  0  0  0  0  0
  179.0710  178.0100  138.7090 O   0  0  0  0  0  1  0  0  0  0  0  0
  184.0200  177.0940  136.4810 C   0  0  2  0  0  3  0  0  0  0  0  0
  181.9580  176.7370  138.1000 C   0  0  1  0  0  3  0  0  0  0  0  0
  181.0440  179.4910  141.5240 O   0  0  0  0  0  0  0  0  0  0  0  0
  181.5890  178.0290  137.6410 O   0  0  0  0  0  0  0  0  0  0  0  0
  184.2820  174.1590  137.8310 O   0  0  0  0  0  1  0  0  0  0  0  0
  183.2880  174.8420  137.1290 C   0  0  1  0  0  3  0  0  0  0  0  0
  179.4710  177.6370  141.5810 C   0  0  0  0  0  2  0  0  0  0  0  0
  179.3130  177.8270  142.9530 O   0  0  0  0  0  1  0  0  0  0  0  0
  1  2  2  0  0  0  0
  2 13  1  0  0  0  0
  3 17  1  6  0  0  0
  3  6  1  0  0  0  0
  4 19  1  0  0  0  0
  4  7  1  0  0  0  0
  5 23  1  0  0  0  0
  6 20  1  0  0  0  0
  6 24  1  0  0  0  0
  7  8  1  0  0  0  0
  8 11  1  0  0  0  0
 10  5  1  0  0  0  0
 10 18  1  0  0  0  0
 11 14  1  0  0  0  0
 12 16  1  0  0  0  0
 12  9  1  0  0  0  0
 12  3  1  0  0  0  0
 13 15  1  0  0  0  0
 14 20  1  0  0  0  0
 15  8  2  0  0  0  0
 16  3  1  0  0  0  0
 16 11  1  0  0  0  0
 18  2  1  0  0  0  0
 18  4  1  0  0  0  0
 19  7  1  0  0  0  0
 21 19  1  0  0  0  0
 21 16  1  0  0  0  0
 23  4  1  0  0  0  0
 23 22  1  0  0  0  0
 24 25  1  0  0  0  0
M  END
>  <MODEL>
5

>  <REMARK>
 VINA RESULT:      -4.6      6.114      8.817
  Name = 
  1 active torsions:
  status: ('A' for Active; 'I' for Inactive)
    1  A    between atoms: C_6  and  C_18
                            x       y       z     vdW  Elec       q    Type
                         _______ _______ _______ _____ _____    ______ ____

>  <TORSDO>
F 1

$$$$
=
 OpenBabel11062413543D

 25 30  0  0  1  0  0  0  0  0999 V2000
  185.1340  179.7500  140.5560 O   0  0  0  0  0  0  0  0  0  0  0  0
  184.9410  178.7740  139.7820 C   0  0  0  0  0  0  0  0  0  0  0  0
  182.5970  173.8590  136.8070 C   0  0  1  0  0  0  0  0  0  0  0  0
  182.7950  177.7470  139.2040 C   0  0  2  0  0  0  0  0  0  0  0  0
  182.0870  178.6340  141.2620 C   0  0  0  0  0  2  0  0  0  0  0  0
  182.5050  173.9300  135.2590 C   0  0  2  0  0  3  0  0  0  0  0  0
  183.0020  177.6510  137.7030 C   0  0  1  0  0  3  0  0  0  0  0  0
  184.3480  177.1310  137.2430 C   0  0  0  0  0  0  0  0  0  0  0  0
  184.8730  173.0660  136.5760 O   0  0  0  0  0  1  0  0  0  0  0  0
  183.3760  177.9530  141.4690 N   0  0  0  0  0  2  0  0  0  0  0  0
  184.3540  175.7970  136.5800 C   0  0  2  0  0  3  0  0  0  0  0  0
  183.8730  173.3760  137.5020 C   0  0  1  0  0  3  0  0  0  0  0  0
  185.6660  178.7180  138.5480 N   0  0  0  0  0  2  0  0  0  0  0  0
  183.7260  175.8810  135.1930 C   0  0  0  0  0  2  0  0  0  0  0  0
  185.5220  177.6660  137.5890 C   0  0  0  0  0  3  0  0  0  0  0  0
  183.5150  174.8680  137.4770 C   0  0  2  0  0  0  0  0  0  0  0  0
  181.4320  173.5640  137.5220 O   0  0  0  0  0  1  0  0  0  0  0  0
  183.9570  177.6860  140.1530 C   0  0  2  0  0  3  0  0  0  0  0  0
  182.2770  176.5110  138.4810 C   0  0  1  0  0  3  0  0  0  0  0  0
  183.6020  174.5870  134.6490 O   0  0  0  0  0  0  0  0  0  0  0  0
  183.0900  175.3750  138.7270 O   0  0  0  0  0  0  0  0  0  0  0  0
  181.7290  179.8610  139.2550 O   0  0  0  0  0  1  0  0  0  0  0  0
  181.6960  178.5730  139.7910 C   0  0  1  0  0  3  0  0  0  0  0  0
  181.1740  174.4940  134.7620 C   0  0  0  0  0  2  0  0  0  0  0  0
  180.2500  173.4630  134.5940 O   0  0  0  0  0  1  0  0  0  0  0  0
  2 18  1  0  0  0  0
  2  1  2  0  0  0  0
  3 16  1  0  0  0  0
  3 12  1  0  0  0  0
  3 17  1  1  0  0  0
  4 23  1  0  0  0  0
  4 18  1  0  0  0  0
  5 10  1  0  0  0  0
  6  3  1  0  0  0  0
  7 19  1  0  0  0  0
  7  4  1  0  0  0  0
  8 15  2  0  0  0  0
  8  7  1  0  0  0  0
  9 12  1  0  0  0  0
 11  8  1  0  0  0  0
 11 16  1  0  0  0  0
 13  2  1  0  0  0  0
 14 11  1  0  0  0  0
 15 13  1  0  0  0  0
 16 12  1  0  0  0  0
 16 21  1  0  0  0  0
 18 10  1  0  0  0  0
 19 21  1  0  0  0  0
 19  4  1  0  0  0  0
 20 14  1  0  0  0  0
 20  6  1  0  0  0  0
 22 23  1  0  0  0  0
 23  5  1  0  0  0  0
 24  6  1  0  0  0  0
 25 24  1  0  0  0  0
M  END
>  <MODEL>
6

>  <REMARK>
 VINA RESULT:      -4.6      6.561      9.042
  Name = 
  1 active torsions:
  status: ('A' for Active; 'I' for Inactive)
    1  A    between atoms: C_6  and  C_18
                            x       y       z     vdW  Elec       q    Type
                         _______ _______ _______ _____ _____    ______ ____

>  <TORSDO>
F 1

$$$$
=
 OpenBabel11062413543D

 25 30  0  0  1  0  0  0  0  0999 V2000
  185.5890  170.7640  134.9710 O   0  0  0  0  0  0  0  0  0  0  0  0
  186.3480  171.7570  135.1340 C   0  0  0  0  0  0  0  0  0  0  0  0
  188.6720  177.4090  136.2070 C   0  0  1  0  0  0  0  0  0  0  0  0
  185.8400  173.8230  136.3450 C   0  0  2  0  0  0  0  0  0  0  0  0
  183.6050  173.2720  135.8680 C   0  0  0  0  0  2  0  0  0  0  0  0
  189.7780  177.5400  137.2890 C   0  0  2  0  0  3  0  0  0  0  0  0
  187.1310  173.9300  137.1360 C   0  0  1  0  0  3  0  0  0  0  0  0
  188.4120  173.6850  136.3660 C   0  0  0  0  0  0  0  0  0  0  0  0
  190.3980  176.8730  134.5950 O   0  0  0  0  0  1  0  0  0  0  0  0
  184.3920  173.1320  134.6320 N   0  0  0  0  0  2  0  0  0  0  0  0
  189.3050  174.8610  136.1720 C   0  0  2  0  0  3  0  0  0  0  0  0
  189.0220  177.0650  134.7560 C   0  0  1  0  0  3  0  0  0  0  0  0
  187.7250  171.5270  135.4560 N   0  0  0  0  0  2  0  0  0  0  0  0
  189.9740  175.2540  137.4850 C   0  0  0  0  0  2  0  0  0  0  0  0
  188.6760  172.5740  135.6730 C   0  0  0  0  0  3  0  0  0  0  0  0
  188.4040  176.0090  135.6810 C   0  0  2  0  0  0  0  0  0  0  0  0
  187.5380  178.2170  136.3250 O   0  0  0  0  0  1  0  0  0  0  0  0
  185.8080  173.1640  134.9960 C   0  0  2  0  0  3  0  0  0  0  0  0
  186.4470  175.2040  136.5550 C   0  0  1  0  0  3  0  0  0  0  0  0
  190.6900  176.4560  137.3120 O   0  0  0  0  0  0  0  0  0  0  0  0
  187.0590  175.6980  135.3740 O   0  0  0  0  0  0  0  0  0  0  0  0
  184.5720  172.6180  137.9410 O   0  0  0  0  0  1  0  0  0  0  0  0
  184.5170  173.6670  137.0220 C   0  0  1  0  0  3  0  0  0  0  0  0
  189.2220  177.8270  138.6830 C   0  0  0  0  0  2  0  0  0  0  0  0
  189.0450  179.2000  138.8550 O   0  0  0  0  0  1  0  0  0  0  0  0
  1  2  2  0  0  0  0
  2 13  1  0  0  0  0
  3 17  1  1  0  0  0
  3  6  1  0  0  0  0
  4 19  1  0  0  0  0
  4 23  1  0  0  0  0
  4  7  1  0  0  0  0
  5 23  1  0  0  0  0
  6 20  1  0  0  0  0
  6 24  1  0  0  0  0
  8  7  1  0  0  0  0
  9 12  1  0  0  0  0
 10 18  1  0  0  0  0
 10  5  1  0  0  0  0
 11  8  1  0  0  0  0
 11 14  1  0  0  0  0
 12 16  1  0  0  0  0
 12  3  1  0  0  0  0
 13 15  1  0  0  0  0
 15  8  2  0  0  0  0
 16 11  1  0  0  0  0
 16  3  1  0  0  0  0
 18  2  1  0  0  0  0
 18  4  1  0  0  0  0
 19  7  1  0  0  0  0
 20 14  1  0  0  0  0
 21 16  1  0  0  0  0
 21 19  1  0  0  0  0
 23 22  1  0  0  0  0
 24 25  1  0  0  0  0
M  END
>  <MODEL>
7

>  <REMARK>
 VINA RESULT:      -4.5      3.469      6.088
  Name = 
  1 active torsions:
  status: ('A' for Active; 'I' for Inactive)
    1  A    between atoms: C_6  and  C_18
                            x       y       z     vdW  Elec       q    Type
                         _______ _______ _______ _____ _____    ______ ____

>  <TORSDO>
F 1

$$$$
=
 OpenBabel11062413543D

 25 30  0  0  1  0  0  0  0  0999 V2000
  182.5130  174.9030  135.0910 O   0  0  0  0  0  0  0  0  0  0  0  0
  183.7250  175.2150  135.2320 C   0  0  0  0  0  0  0  0  0  0  0  0
  189.0540  178.0490  136.6730 C   0  0  1  0  0  0  0  0  0  0  0  0
  184.6720  176.7610  136.8770 C   0  0  2  0  0  0  0  0  0  0  0  0
  182.5160  177.6990  136.8830 C   0  0  0  0  0  2  0  0  0  0  0  0
  190.1190  177.2290  137.4500 C   0  0  2  0  0  3  0  0  0  0  0  0
  185.8410  175.9050  137.3280 C   0  0  1  0  0  3  0  0  0  0  0  0
  186.6410  175.2310  136.2320 C   0  0  0  0  0  0  0  0  0  0  0  0
  189.9510  177.1450  134.6130 O   0  0  0  0  0  1  0  0  0  0  0  0
  182.9390  177.5140  135.4850 N   0  0  0  0  0  2  0  0  0  0  0  0
  188.0340  175.7150  136.0320 C   0  0  2  0  0  3  0  0  0  0  0  0
  188.9860  178.0060  135.1440 C   0  0  1  0  0  3  0  0  0  0  0  0
  184.7170  174.1830  135.1550 N   0  0  0  0  0  2  0  0  0  0  0  0
  188.9300  175.2750  137.1840 C   0  0  0  0  0  2  0  0  0  0  0  0
  186.1200  174.4170  135.3090 C   0  0  0  0  0  3  0  0  0  0  0  0
  187.9530  177.2530  135.9920 C   0  0  2  0  0  0  0  0  0  0  0  0
  188.6440  179.2720  137.2110 O   0  0  0  0  0  1  0  0  0  0  0  0
  184.1220  176.6530  135.4840 C   0  0  2  0  0  3  0  0  0  0  0  0
  186.0000  177.4470  137.1700 C   0  0  1  0  0  3  0  0  0  0  0  0
  190.2000  175.8710  137.0530 O   0  0  0  0  0  0  0  0  0  0  0  0
  186.6670  177.8390  135.9800 O   0  0  0  0  0  0  0  0  0  0  0  0
  183.1000  176.0540  138.5010 O   0  0  0  0  0  1  0  0  0  0  0  0
  183.5920  177.1720  137.8250 C   0  0  1  0  0  3  0  0  0  0  0  0
  189.9840  177.3560  138.9670 C   0  0  0  0  0  2  0  0  0  0  0  0
  191.2280  177.1870  139.5750 O   0  0  0  0  0  1  0  0  0  0  0  0
  1  2  2  0  0  0  0
  2 18  1  0  0  0  0
  3 17  1  1  0  0  0
  3  6  1  0  0  0  0
  4 19  1  0  0  0  0
  4  7  1  0  0  0  0
  4 23  1  0  0  0  0
  5 23  1  0  0  0  0
  6 24  1  0  0  0  0
  8  7  1  0  0  0  0
  9 12  1  0  0  0  0
 10  5  1  0  0  0  0
 11  8  1  0  0  0  0
 11 14  1  0  0  0  0
 12 16  1  0  0  0  0
 12  3  1  0  0  0  0
 13  2  1  0  0  0  0
 13 15  1  0  0  0  0
 15  8  2  0  0  0  0
 16 11  1  0  0  0  0
 16  3  1  0  0  0  0
 18 10  1  0  0  0  0
 18  4  1  0  0  0  0
 19  7  1  0  0  0  0
 20 14  1  0  0  0  0
 20  6  1  0  0  0  0
 21 16  1  0  0  0  0
 21 19  1  0  0  0  0
 23 22  1  0  0  0  0
 24 25  1  0  0  0  0
M  END
>  <MODEL>
8

>  <REMARK>
 VINA RESULT:      -4.5      3.840      7.191
  Name = 
  1 active torsions:
  status: ('A' for Active; 'I' for Inactive)
    1  A    between atoms: C_6  and  C_18
                            x       y       z     vdW  Elec       q    Type
                         _______ _______ _______ _____ _____    ______ ____

>  <TORSDO>
F 1

$$$$
=
 OpenBabel11062413543D

 25 30  0  0  1  0  0  0  0  0999 V2000
  189.0700  179.1840  137.0180 O   0  0  0  0  0  0  0  0  0  0  0  0
  188.0410  178.4730  136.8610 C   0  0  0  0  0  0  0  0  0  0  0  0
  184.0520  173.9440  135.4240 C   0  0  1  0  0  0  0  0  0  0  0  0
  187.9560  176.0490  136.5290 C   0  0  2  0  0  0  0  0  0  0  0  0
  190.1470  176.3220  135.7230 C   0  0  0  0  0  2  0  0  0  0  0  0
  183.1390  173.4000  136.5560 C   0  0  2  0  0  3  0  0  0  0  0  0
  186.8400  175.7380  137.5090 C   0  0  1  0  0  3  0  0  0  0  0  0
  185.6310  176.6490  137.4600 C   0  0  0  0  0  0  0  0  0  0  0  0
  182.4130  175.6810  135.0200 O   0  0  0  0  0  1  0  0  0  0  0  0
  189.2910  177.3400  135.0930 N   0  0  0  0  0  2  0  0  0  0  0  0
  184.3620  176.0430  136.9700 C   0  0  2  0  0  3  0  0  0  0  0  0
  183.6390  175.1630  134.5940 C   0  0  1  0  0  3  0  0  0  0  0  0
  186.8960  178.7240  137.6840 N   0  0  0  0  0  2  0  0  0  0  0  0
  183.7940  175.0710  137.9990 C   0  0  0  0  0  2  0  0  0  0  0  0
  185.6790  177.9760  137.6020 C   0  0  0  0  0  3  0  0  0  0  0  0
  184.7180  175.2850  135.6780 C   0  0  2  0  0  0  0  0  0  0  0  0
  184.8320  173.0280  134.7110 O   0  0  0  0  0  1  0  0  0  0  0  0
  188.0230  177.3720  135.8220 C   0  0  2  0  0  3  0  0  0  0  0  0
  186.9380  174.9820  136.1500 C   0  0  1  0  0  3  0  0  0  0  0  0
  182.6830  174.3970  137.4540 O   0  0  0  0  0  0  0  0  0  0  0  0
  186.0260  175.4460  135.1660 O   0  0  0  0  0  0  0  0  0  0  0  0
  189.7840  175.7470  138.0030 O   0  0  0  0  0  1  0  0  0  0  0  0
  189.3320  175.4930  136.7070 C   0  0  1  0  0  3  0  0  0  0  0  0
  183.7540  172.2180  137.3060 C   0  0  0  0  0  2  0  0  0  0  0  0
  183.2040  171.0220  136.8460 O   0  0  0  0  0  1  0  0  0  0  0  0
  2  1  2  0  0  0  0
  2 13  1  0  0  0  0
  3 17  1  6  0  0  0
  3 16  1  0  0  0  0
  3  6  1  0  0  0  0
  4 23  1  0  0  0  0
  4  7  1  0  0  0  0
  5 23  1  0  0  0  0
  6 24  1  0  0  0  0
  6 20  1  0  0  0  0
  8  7  1  0  0  0  0
  8 15  2  0  0  0  0
 10  5  1  0  0  0  0
 10 18  1  0  0  0  0
 11  8  1  0  0  0  0
 11 14  1  0  0  0  0
 12  9  1  0  0  0  0
 12  3  1  0  0  0  0
 12 16  1  0  0  0  0
 15 13  1  0  0  0  0
 16 11  1  0  0  0  0
 18  4  1  0  0  0  0
 18  2  1  0  0  0  0
 19  4  1  0  0  0  0
 19  7  1  0  0  0  0
 20 14  1  0  0  0  0
 21 16  1  0  0  0  0
 21 19  1  0  0  0  0
 23 22  1  0  0  0  0
 25 24  1  0  0  0  0
M  END
>  <MODEL>
9

>  <REMARK>
 VINA RESULT:      -4.5      3.181      5.602
  Name = 
  1 active torsions:
  status: ('A' for Active; 'I' for Inactive)
    1  A    between atoms: C_6  and  C_18
                            x       y       z     vdW  Elec       q    Type
                         _______ _______ _______ _____ _____    ______ ____

>  <TORSDO>
F 1

$$$$
