=
 OpenBabel11062412503D

 54 60  0  0  1  0  0  0  0  0999 V2000
  188.1170  177.7130  141.4700 C   0  0  2  0  0  3  0  0  0  0  0  0
  186.8010  178.1900  140.9050 C   0  0  2  0  0  3  0  0  0  0  0  0
  189.1230  178.6820  141.2930 O   0  0  0  0  0  0  0  0  0  0  0  0
  188.1240  178.6370  140.2990 C   0  0  1  0  0  0  0  0  0  0  0  0
  188.5590  177.8470  139.0390 C   0  0  2  0  0  0  0  0  0  0  0  0
  190.9770  177.0130  139.9020 C   0  0  1  0  0  3  0  0  0  0  0  0
  191.8000  176.5560  137.7200 N   0  0  0  0  0  0  0  0  0  0  0  0
  189.9990  177.3920  138.8290 C   0  0  0  0  0  0  0  0  0  0  0  0
  190.4680  175.9600  140.6610 O   0  0  0  0  0  1  0  0  0  0  0  0
  192.2020  176.5170  139.1230 C   0  0  1  0  0  3  0  0  0  0  0  0
  189.6900  177.2140  136.3860 C   0  0  0  0  0  2  0  0  0  0  0  0
  190.5040  177.1340  137.6380 C   0  0  0  0  0  0  0  0  0  0  0  0
  192.1740  176.0350  135.4770 O   0  0  0  0  0  0  0  0  0  0  0  0
  187.8300  178.3650  137.7910 C   0  0  2  0  0  3  0  0  0  0  0  0
  192.4210  175.7810  136.6870 C   0  0  0  0  0  0  0  0  0  0  0  0
  187.5110  176.9830  138.3380 C   0  0  0  0  0  2  0  0  0  0  0  0
  188.6690  178.3460  136.4920 C   0  0  0  0  0  2  0  0  0  0  0  0
  194.1820  177.1850  140.2500 O   0  0  0  0  0  0  0  0  0  0  0  0
  193.3800  177.4180  139.3570 C   0  0  0  0  0  3  0  0  0  0  0  0
  193.2920  174.6030  137.0490 C   0  0  2  0  0  3  0  0  0  0  0  0
  194.7840  174.7400  136.6770 C   0  0  0  0  0  0  0  0  0  0  0  0
  195.0140  174.1280  135.4410 O   0  0  0  0  0  1  0  0  0  0  0  0
  195.1400  176.0870  136.5760 O   0  0  0  0  0  1  0  0  0  0  0  0
  195.6750  174.0760  137.7250 C   0  0  0  0  0  2  0  0  0  0  0  0
  195.8160  174.9030  138.8750 O   0  0  0  0  0  0  0  0  0  0  0  0
  197.1700  175.0200  140.7170 O   0  0  0  0  0  1  0  0  0  0  0  0
  197.0550  175.1160  139.4690 C   0  0  0  0  0  0  0  0  0  0  0  0
  198.1730  175.4160  138.6950 O   0  0  0  0  0  0  0  0  0  0  0  0
  192.6610  173.2950  136.5660 C   0  0  0  0  0  2  0  0  0  0  0  0
  191.2840  173.2940  136.7820 O   0  0  0  0  0  1  0  0  0  0  0  0
  186.2260  179.2660  141.8050 C   0  0  0  0  0  2  0  0  0  0  0  0
  184.7200  179.1170  141.8950 C   0  0  0  0  0  2  0  0  0  0  0  0
  184.3100  178.5680  143.2530 C   0  0  1  0  0  3  0  0  0  0  0  0
  185.1980  179.0000  144.2450 O   0  0  0  0  0  0  0  0  0  0  0  0
  185.3230  177.9110  145.1140 C   0  0  0  0  0  2  0  0  0  0  0  0
  187.6420  177.7600  146.1960 N   0  0  0  0  0  0  0  0  0  0  0  0
  187.1210  176.6990  144.1610 O   0  0  0  0  0  0  0  0  0  0  0  0
  186.7350  177.4130  145.1240 C   0  0  0  0  0  0  0  0  0  0  0  0
  191.3090  177.1850  145.0880 C   0  0  0  0  0  2  0  0  0  0  0  0
  191.0170  176.3090  147.2550 C   0  0  0  0  0  2  0  0  0  0  0  0
  191.8370  177.2080  146.4480 N   0  0  0  0  0  2  0  0  0  0  0  0
  189.0390  177.3810  146.1880 C   0  0  0  0  0  0  0  0  0  0  0  0
  189.5750  176.7340  147.2350 C   0  0  0  0  0  3  0  0  0  0  0  0
  189.9340  177.8520  145.0590 C   0  0  0  0  0  2  0  0  0  0  0  0
  186.7940  179.2430  148.1010 N   0  0  0  0  0  0  0  0  0  0  0  0
  187.1770  178.5710  147.2410 C   0  0  0  0  0  0  0  0  0  0  0  0
  182.9020  179.0250  143.6060 C   0  0  0  0  0  2  0  0  0  0  0  0
  180.8210  179.4890  142.2640 C   0  0  0  0  0  0  0  0  0  0  0  0
  181.9820  178.6930  142.5300 N   0  0  0  0  0  2  0  0  0  0  0  0
  180.4970  180.4240  143.0400 O   0  0  0  0  0  0  0  0  0  0  0  0
  180.6320  179.4700  139.8160 C   0  0  2  0  0  3  0  0  0  0  0  0
  179.5880  179.7350  138.7510 C   0  0  0  0  0  1  0  0  0  0  0  0
  180.5320  178.0340  140.2740 C   0  0  0  0  0  2  0  0  0  0  0  0
  179.9270  179.1390  141.1160 C   0  0  1  0  0  3  0  0  0  0  0  0
  1  3  1  1  0  0  0
  2  1  1  0  0  0  0
  2 31  1  1  0  0  0
  4  2  1  0  0  0  0
  4  3  1  1  0  0  0
  4  1  1  0  0  0  0
  5 16  1  1  0  0  0
  5  4  1  0  0  0  0
  6  9  1  1  0  0  0
  7 10  1  0  0  0  0
  8  5  1  0  0  0  0
  8  6  1  0  0  0  0
 10 19  1  6  0  0  0
 10  6  1  0  0  0  0
 11 17  1  0  0  0  0
 11 12  1  0  0  0  0
 12  7  1  0  0  0  0
 12  8  2  0  0  0  0
 13 15  2  0  0  0  0
 14 17  1  6  0  0  0
 14 16  1  0  0  0  0
 14  5  1  0  0  0  0
 15 20  1  0  0  0  0
 15  7  1  0  0  0  0
 19 18  2  0  0  0  0
 20 29  1  6  0  0  0
 21 20  1  0  0  0  0
 21 24  1  0  0  0  0
 22 21  1  0  0  0  0
 23 21  1  0  0  0  0
 24 25  1  0  0  0  0
 25 27  1  0  0  0  0
 27 26  1  0  0  0  0
 28 27  2  0  0  0  0
 29 30  1  0  0  0  0
 31 32  1  0  0  0  0
 33 32  1  6  0  0  0
 33 47  1  0  0  0  0
 33 34  1  0  0  0  0
 34 35  1  0  0  0  0
 35 38  1  0  0  0  0
 36 46  1  0  0  0  0
 37 38  2  0  0  0  0
 38 36  1  0  0  0  0
 39 41  1  0  0  0  0
 41 40  1  0  0  0  0
 42 36  1  0  0  0  0
 42 43  2  0  0  0  0
 43 40  1  0  0  0  0
 44 39  1  0  0  0  0
 44 42  1  0  0  0  0
 46 45  3  0  0  0  0
 48 49  1  0  0  0  0
 48 50  2  0  0  0  0
 49 47  1  0  0  0  0
 51 52  1  6  0  0  0
 51 53  1  0  0  0  0
 51 54  1  0  0  0  0
 53 54  1  0  0  0  0
 54 48  1  1  0  0  0
M  END
>  <MODEL>
1

>  <REMARK>
 VINA RESULT:      -7.4      0.000      0.000
  Name = 
  19 active torsions:
  status: ('A' for Active; 'I' for Inactive)
    1  A    between atoms: C_1  and  C_30
    2  A    between atoms: C_5  and  C_21
    3  A    between atoms: C_5  and  C_29
    4  A    between atoms: C_13  and  C_50
    5  A    between atoms: C_14  and  C_21
    6  A    between atoms: N_16  and  C_20
    7  A    between atoms: N_16  and  C_45
    8  A    between atoms: C_19  and  C_25
    9  A    between atoms: C_21  and  C_41
   10  A    between atoms: C_24  and  C_25
   11  A    between atoms: C_24  and  C_51
   12  A    between atoms: C_29  and  O_53
   13  A    between atoms: C_31  and  C_49
   14  A    between atoms: C_35  and  O_53
   15  A    between atoms: N_36  and  C_42
   16  A    between atoms: C_42  and  C_51
   17  A    between atoms: C_43  and  O_47
   18  A    between atoms: C_43  and  C_54
   19  A    between atoms: O_47  and  C_51
                            x       y       z     vdW  Elec       q    Type
                         _______ _______ _______ _____ _____    ______ ____

>  <TORSDO>
F 19

$$$$
=
 OpenBabel11062412503D

 54 60  0  0  1  0  0  0  0  0999 V2000
  183.5730  179.9090  144.0010 C   0  0  2  0  0  3  0  0  0  0  0  0
  184.2110  178.7100  143.3440 C   0  0  2  0  0  3  0  0  0  0  0  0
  182.7710  179.5210  145.0920 O   0  0  0  0  0  0  0  0  0  0  0  0
  182.8540  178.6040  144.0240 C   0  0  1  0  0  0  0  0  0  0  0  0
  181.6400  178.6830  143.0640 C   0  0  2  0  0  0  0  0  0  0  0  0
  182.9470  178.3080  140.7320 C   0  0  1  0  0  3  0  0  0  0  0  0
  181.2040  179.2190  139.3980 N   0  0  0  0  0  0  0  0  0  0  0  0
  181.8120  178.8390  141.5570 C   0  0  0  0  0  0  0  0  0  0  0  0
  183.0320  176.9230  140.8720 O   0  0  0  0  0  1  0  0  0  0  0  0
  182.5390  178.6380  139.2910 C   0  0  1  0  0  3  0  0  0  0  0  0
  179.5380  179.7640  141.2940 C   0  0  0  0  0  2  0  0  0  0  0  0
  180.8770  179.3460  140.7760 C   0  0  0  0  0  0  0  0  0  0  0  0
  179.2220  179.9700  138.4220 O   0  0  0  0  0  0  0  0  0  0  0  0
  180.4950  179.4870  143.6950 C   0  0  2  0  0  3  0  0  0  0  0  0
  180.2580  179.2570  138.3230 C   0  0  0  0  0  0  0  0  0  0  0  0
  180.3450  177.9890  143.4860 C   0  0  0  0  0  2  0  0  0  0  0  0
  179.6750  180.3420  142.7020 C   0  0  0  0  0  2  0  0  0  0  0  0
  184.4430  180.0560  139.3180 O   0  0  0  0  0  0  0  0  0  0  0  0
  183.4930  179.6240  138.6810 C   0  0  0  0  0  3  0  0  0  0  0  0
  180.4530  178.3730  137.1160 C   0  0  2  0  0  3  0  0  0  0  0  0
  180.2770  176.8590  137.3640 C   0  0  0  0  0  0  0  0  0  0  0  0
  179.8340  176.6510  138.6740 O   0  0  0  0  0  1  0  0  0  0  0  0
  179.3290  176.3280  136.4870 O   0  0  0  0  0  1  0  0  0  0  0  0
  181.5960  176.1140  137.1700 C   0  0  0  0  0  2  0  0  0  0  0  0
  181.6380  174.9330  137.9630 O   0  0  0  0  0  0  0  0  0  0  0  0
  182.2140  173.0870  136.7390 O   0  0  0  0  0  0  0  0  0  0  0  0
  181.3460  173.6850  137.4240 C   0  0  0  0  0  0  0  0  0  0  0  0
  180.1120  173.0830  137.6510 O   0  0  0  0  0  1  0  0  0  0  0  0
  181.7540  178.7250  136.3920 C   0  0  0  0  0  2  0  0  0  0  0  0
  181.5130  179.0480  135.0580 O   0  0  0  0  0  1  0  0  0  0  0  0
  185.3090  178.1680  144.2380 C   0  0  0  0  0  2  0  0  0  0  0  0
  186.3460  177.4410  143.4040 C   0  0  0  0  0  2  0  0  0  0  0  0
  187.4860  176.9380  144.2750 C   0  0  1  0  0  3  0  0  0  0  0  0
  188.5190  176.4260  143.4830 O   0  0  0  0  0  0  0  0  0  0  0  0
  188.4340  177.1340  142.2800 C   0  0  0  0  0  2  0  0  0  0  0  0
  189.4890  177.0710  139.9440 N   0  0  0  0  0  0  0  0  0  0  0  0
  190.4440  175.9780  141.7970 O   0  0  0  0  0  0  0  0  0  0  0  0
  189.5170  176.6990  141.3410 C   0  0  0  0  0  0  0  0  0  0  0  0
  191.1620  175.1600  137.0190 C   0  0  0  0  0  2  0  0  0  0  0  0
  192.7890  176.4650  138.1130 C   0  0  0  0  0  2  0  0  0  0  0  0
  192.1970  176.1670  136.8120 N   0  0  0  0  0  2  0  0  0  0  0  0
  190.4620  176.5860  138.9890 C   0  0  0  0  0  0  0  0  0  0  0  0
  191.7480  176.9620  139.0760 C   0  0  0  0  0  3  0  0  0  0  0  0
  189.9970  175.7740  137.7970 C   0  0  0  0  0  2  0  0  0  0  0  0
  187.5530  178.5090  139.0880 N   0  0  0  0  0  0  0  0  0  0  0  0
  188.4290  177.8610  139.4750 C   0  0  0  0  0  0  0  0  0  0  0  0
  188.0290  178.0670  145.1400 C   0  0  0  0  0  2  0  0  0  0  0  0
  189.9150  177.2140  146.5760 C   0  0  0  0  0  0  0  0  0  0  0  0
  189.4480  177.8680  145.3910 N   0  0  0  0  0  2  0  0  0  0  0  0
  189.1130  176.9090  147.4950 O   0  0  0  0  0  0  0  0  0  0  0  0
  191.5930  175.6370  147.4270 C   0  0  2  0  0  3  0  0  0  0  0  0
  192.9030  175.6650  148.1870 C   0  0  0  0  0  1  0  0  0  0  0  0
  191.8630  175.8080  145.9510 C   0  0  0  0  0  2  0  0  0  0  0  0
  191.3810  176.9870  146.7730 C   0  0  1  0  0  3  0  0  0  0  0  0
  1  4  1  0  0  0  0
  1  3  1  1  0  0  0
  2  1  1  0  0  0  0
  2  4  1  0  0  0  0
  2 31  1  1  0  0  0
  4  3  1  1  0  0  0
  5 16  1  1  0  0  0
  5 14  1  0  0  0  0
  5  4  1  0  0  0  0
  6  9  1  6  0  0  0
  6  8  1  0  0  0  0
  7 12  1  0  0  0  0
  8  5  1  0  0  0  0
 10 19  1  1  0  0  0
 10  7  1  0  0  0  0
 10  6  1  0  0  0  0
 11 17  1  0  0  0  0
 12 11  1  0  0  0  0
 12  8  2  0  0  0  0
 14 17  1  6  0  0  0
 15 13  2  0  0  0  0
 15  7  1  0  0  0  0
 16 14  1  0  0  0  0
 19 18  2  0  0  0  0
 20 29  1  1  0  0  0
 20 21  1  0  0  0  0
 20 15  1  0  0  0  0
 21 22  1  0  0  0  0
 23 21  1  0  0  0  0
 24 21  1  0  0  0  0
 24 25  1  0  0  0  0
 26 27  2  0  0  0  0
 27 28  1  0  0  0  0
 27 25  1  0  0  0  0
 30 29  1  0  0  0  0
 32 31  1  0  0  0  0
 33 32  1  6  0  0  0
 33 47  1  0  0  0  0
 34 33  1  0  0  0  0
 35 34  1  0  0  0  0
 36 38  1  0  0  0  0
 38 37  2  0  0  0  0
 38 35  1  0  0  0  0
 39 44  1  0  0  0  0
 40 43  1  0  0  0  0
 41 39  1  0  0  0  0
 41 40  1  0  0  0  0
 42 43  2  0  0  0  0
 42 36  1  0  0  0  0
 44 42  1  0  0  0  0
 45 46  3  0  0  0  0
 46 36  1  0  0  0  0
 47 49  1  0  0  0  0
 48 50  2  0  0  0  0
 49 48  1  0  0  0  0
 51 52  1  1  0  0  0
 53 54  1  0  0  0  0
 53 51  1  0  0  0  0
 54 48  1  6  0  0  0
 54 51  1  0  0  0  0
M  END
>  <MODEL>
2

>  <REMARK>
 VINA RESULT:      -6.8      3.502     10.514
  Name = 
  19 active torsions:
  status: ('A' for Active; 'I' for Inactive)
    1  A    between atoms: C_1  and  C_30
    2  A    between atoms: C_5  and  C_21
    3  A    between atoms: C_5  and  C_29
    4  A    between atoms: C_13  and  C_50
    5  A    between atoms: C_14  and  C_21
    6  A    between atoms: N_16  and  C_20
    7  A    between atoms: N_16  and  C_45
    8  A    between atoms: C_19  and  C_25
    9  A    between atoms: C_21  and  C_41
   10  A    between atoms: C_24  and  C_25
   11  A    between atoms: C_24  and  C_51
   12  A    between atoms: C_29  and  O_53
   13  A    between atoms: C_31  and  C_49
   14  A    between atoms: C_35  and  O_53
   15  A    between atoms: N_36  and  C_42
   16  A    between atoms: C_42  and  C_51
   17  A    between atoms: C_43  and  O_47
   18  A    between atoms: C_43  and  C_54
   19  A    between atoms: O_47  and  C_51
                            x       y       z     vdW  Elec       q    Type
                         _______ _______ _______ _____ _____    ______ ____

>  <TORSDO>
F 19

$$$$
=
 OpenBabel11062412503D

 54 60  0  0  1  0  0  0  0  0999 V2000
  189.0110  174.6300  137.2060 C   0  0  2  0  0  3  0  0  0  0  0  0
  188.9430  175.9450  137.9460 C   0  0  2  0  0  3  0  0  0  0  0  0
  189.1430  174.8370  135.8200 O   0  0  0  0  0  0  0  0  0  0  0  0
  188.4100  175.8130  136.5260 C   0  0  1  0  0  0  0  0  0  0  0  0
  186.8770  175.6090  136.4250 C   0  0  2  0  0  0  0  0  0  0  0  0
  186.0870  177.9240  137.5680 C   0  0  1  0  0  3  0  0  0  0  0  0
  183.8960  177.1460  138.0580 N   0  0  0  0  0  0  0  0  0  0  0  0
  185.8940  176.4830  137.1970 C   0  0  0  0  0  0  0  0  0  0  0  0
  186.2860  178.6900  136.4190 O   0  0  0  0  0  1  0  0  0  0  0  0
  184.7490  178.3210  138.2040 C   0  0  1  0  0  3  0  0  0  0  0  0
  184.1180  174.7730  137.0650 C   0  0  0  0  0  2  0  0  0  0  0  0
  184.6710  176.0930  137.5000 C   0  0  0  0  0  0  0  0  0  0  0  0
  181.8060  176.1150  138.1800 O   0  0  0  0  0  0  0  0  0  0  0  0
  186.5290  174.1160  136.3470 C   0  0  2  0  0  3  0  0  0  0  0  0
  182.4640  177.1870  138.0840 C   0  0  0  0  0  0  0  0  0  0  0  0
  186.3170  175.0100  135.1350 C   0  0  0  0  0  2  0  0  0  0  0  0
  185.2200  173.7140  137.0650 C   0  0  0  0  0  2  0  0  0  0  0  0
  184.6000  179.7530  140.0920 O   0  0  0  0  0  0  0  0  0  0  0  0
  184.9310  178.6600  139.6550 C   0  0  0  0  0  3  0  0  0  0  0  0
  181.7450  178.5000  137.9020 C   0  0  2  0  0  3  0  0  0  0  0  0
  180.8370  178.9300  139.0750 C   0  0  0  0  0  0  0  0  0  0  0  0
  180.8710  180.3220  139.2030 O   0  0  0  0  0  1  0  0  0  0  0  0
  179.5170  178.5400  138.8380 O   0  0  0  0  0  1  0  0  0  0  0  0
  181.3040  178.3060  140.3880 C   0  0  0  0  0  2  0  0  0  0  0  0
  181.5400  179.3050  141.3740 O   0  0  0  0  0  0  0  0  0  0  0  0
  180.5720  178.4610  143.2680 O   0  0  0  0  0  1  0  0  0  0  0  0
  180.7180  179.4350  142.4880 C   0  0  0  0  0  0  0  0  0  0  0  0
  180.0720  180.6390  142.7590 O   0  0  0  0  0  0  0  0  0  0  0  0
  181.0470  178.5500  136.5410 C   0  0  0  0  0  2  0  0  0  0  0  0
  181.1430  179.8190  135.9750 O   0  0  0  0  0  1  0  0  0  0  0  0
  190.3130  176.5930  137.9520 C   0  0  0  0  0  2  0  0  0  0  0  0
  190.3260  177.7710  138.9050 C   0  0  0  0  0  2  0  0  0  0  0  0
  191.0760  177.4280  140.1830 C   0  0  1  0  0  3  0  0  0  0  0  0
  190.5710  176.2510  140.7460 O   0  0  0  0  0  0  0  0  0  0  0  0
  190.8910  176.3380  142.1050 C   0  0  0  0  0  2  0  0  0  0  0  0
  189.4830  177.6360  143.8100 N   0  0  0  0  0  0  0  0  0  0  0  0
  188.7550  175.6200  142.8360 O   0  0  0  0  0  0  0  0  0  0  0  0
  189.6470  176.5050  142.9240 C   0  0  0  0  0  0  0  0  0  0  0  0
  185.8910  178.2170  145.1380 C   0  0  0  0  0  2  0  0  0  0  0  0
  187.3350  177.8640  146.9650 C   0  0  0  0  0  2  0  0  0  0  0  0
  186.0920  177.4190  146.3430 N   0  0  0  0  0  2  0  0  0  0  0  0
  188.3420  177.7770  144.6890 C   0  0  0  0  0  0  0  0  0  0  0  0
  188.4950  177.7050  146.0210 C   0  0  0  0  0  3  0  0  0  0  0  0
  186.9490  177.8500  144.0970 C   0  0  0  0  0  2  0  0  0  0  0  0
  191.3510  179.3790  143.9500 N   0  0  0  0  0  0  0  0  0  0  0  0
  190.5080  178.5890  143.8890 C   0  0  0  0  0  0  0  0  0  0  0  0
  192.5600  177.2490  139.8930 C   0  0  0  0  0  2  0  0  0  0  0  0
  193.8830  175.7500  138.3610 C   0  0  0  0  0  0  0  0  0  0  0  0
  192.7440  176.5800  138.6150 N   0  0  0  0  0  2  0  0  0  0  0  0
  194.8220  175.6830  139.1960 O   0  0  0  0  0  0  0  0  0  0  0  0
  194.1940  173.5580  137.3000 C   0  0  2  0  0  3  0  0  0  0  0  0
  194.9350  172.9550  136.1250 C   0  0  0  0  0  1  0  0  0  0  0  0
  192.8550  174.0830  136.8370 C   0  0  0  0  0  2  0  0  0  0  0  0
  194.0110  175.0420  137.0490 C   0  0  1  0  0  3  0  0  0  0  0  0
  1  3  1  6  0  0  0
  1  2  1  0  0  0  0
  2 31  1  6  0  0  0
  4  3  1  6  0  0  0
  4  1  1  0  0  0  0
  4  2  1  0  0  0  0
  5 16  1  6  0  0  0
  5  4  1  0  0  0  0
  5  8  1  0  0  0  0
  6  9  1  6  0  0  0
  6 10  1  0  0  0  0
  7 15  1  0  0  0  0
  7 10  1  0  0  0  0
  8 12  2  0  0  0  0
  8  6  1  0  0  0  0
 10 19  1  1  0  0  0
 11 17  1  0  0  0  0
 11 12  1  0  0  0  0
 12  7  1  0  0  0  0
 14 16  1  6  0  0  0
 14  5  1  0  0  0  0
 14 17  1  0  0  0  0
 15 13  2  0  0  0  0
 19 18  2  0  0  0  0
 20 29  1  6  0  0  0
 20 15  1  0  0  0  0
 20 21  1  0  0  0  0
 21 22  1  0  0  0  0
 21 24  1  0  0  0  0
 23 21  1  0  0  0  0
 24 25  1  0  0  0  0
 25 27  1  0  0  0  0
 27 28  2  0  0  0  0
 27 26  1  0  0  0  0
 30 29  1  0  0  0  0
 31 32  1  0  0  0  0
 33 32  1  6  0  0  0
 33 34  1  0  0  0  0
 34 35  1  0  0  0  0
 35 38  1  0  0  0  0
 36 46  1  0  0  0  0
 36 42  1  0  0  0  0
 37 38  2  0  0  0  0
 38 36  1  0  0  0  0
 39 41  1  0  0  0  0
 41 40  1  0  0  0  0
 42 43  2  0  0  0  0
 43 40  1  0  0  0  0
 44 42  1  0  0  0  0
 44 39  1  0  0  0  0
 46 45  3  0  0  0  0
 47 33  1  0  0  0  0
 48 49  1  0  0  0  0
 48 50  2  0  0  0  0
 49 47  1  0  0  0  0
 51 52  1  6  0  0  0
 53 54  1  0  0  0  0
 53 51  1  0  0  0  0
 54 51  1  0  0  0  0
 54 48  1  1  0  0  0
M  END
>  <MODEL>
3

>  <REMARK>
 VINA RESULT:      -6.4      2.820     10.100
  Name = 
  19 active torsions:
  status: ('A' for Active; 'I' for Inactive)
    1  A    between atoms: C_1  and  C_30
    2  A    between atoms: C_5  and  C_21
    3  A    between atoms: C_5  and  C_29
    4  A    between atoms: C_13  and  C_50
    5  A    between atoms: C_14  and  C_21
    6  A    between atoms: N_16  and  C_20
    7  A    between atoms: N_16  and  C_45
    8  A    between atoms: C_19  and  C_25
    9  A    between atoms: C_21  and  C_41
   10  A    between atoms: C_24  and  C_25
   11  A    between atoms: C_24  and  C_51
   12  A    between atoms: C_29  and  O_53
   13  A    between atoms: C_31  and  C_49
   14  A    between atoms: C_35  and  O_53
   15  A    between atoms: N_36  and  C_42
   16  A    between atoms: C_42  and  C_51
   17  A    between atoms: C_43  and  O_47
   18  A    between atoms: C_43  and  C_54
   19  A    between atoms: O_47  and  C_51
                            x       y       z     vdW  Elec       q    Type
                         _______ _______ _______ _____ _____    ______ ____

>  <TORSDO>
F 19

$$$$
=
 OpenBabel11062412503D

 54 60  0  0  1  0  0  0  0  0999 V2000
  188.1380  177.8360  139.4660 C   0  0  2  0  0  3  0  0  0  0  0  0
  186.7930  177.8300  138.7810 C   0  0  2  0  0  3  0  0  0  0  0  0
  188.9200  178.9260  139.0360 O   0  0  0  0  0  0  0  0  0  0  0  0
  188.0270  178.3890  138.0860 C   0  0  1  0  0  0  0  0  0  0  0  0
  188.7120  177.4110  137.0970 C   0  0  2  0  0  0  0  0  0  0  0  0
  190.8510  176.7480  138.6050 C   0  0  1  0  0  3  0  0  0  0  0  0
  192.1300  175.9550  136.7660 N   0  0  0  0  0  0  0  0  0  0  0  0
  190.1490  176.9410  137.2930 C   0  0  0  0  0  0  0  0  0  0  0  0
  190.1560  175.8250  139.3860 O   0  0  0  0  0  1  0  0  0  0  0  0
  192.2050  176.1450  138.2110 C   0  0  1  0  0  3  0  0  0  0  0  0
  190.3920  176.3710  134.9030 C   0  0  0  0  0  2  0  0  0  0  0  0
  190.9020  176.5010  136.3030 C   0  0  0  0  0  0  0  0  0  0  0  0
  192.9840  175.0840  134.7760 O   0  0  0  0  0  0  0  0  0  0  0  0
  188.2970  177.7160  135.6510 C   0  0  2  0  0  3  0  0  0  0  0  0
  192.9450  175.0300  136.0360 C   0  0  0  0  0  0  0  0  0  0  0  0
  187.8250  176.4360  136.3230 C   0  0  0  0  0  2  0  0  0  0  0  0
  189.4040  177.4970  134.5950 C   0  0  0  0  0  2  0  0  0  0  0  0
  193.4950  177.4570  139.7110 O   0  0  0  0  0  0  0  0  0  0  0  0
  193.3250  177.0820  138.5600 C   0  0  0  0  0  3  0  0  0  0  0  0
  193.6800  173.9340  136.7660 C   0  0  2  0  0  3  0  0  0  0  0  0
  195.2140  174.0910  136.8330 C   0  0  0  0  0  0  0  0  0  0  0  0
  195.8030  173.3520  135.8030 O   0  0  0  0  0  1  0  0  0  0  0  0
  195.5740  175.4310  136.6780 O   0  0  0  0  0  1  0  0  0  0  0  0
  195.7600  173.5890  138.1690 C   0  0  0  0  0  2  0  0  0  0  0  0
  195.9400  174.6640  139.0840 O   0  0  0  0  0  0  0  0  0  0  0  0
  198.2250  174.7840  139.0090 O   0  0  0  0  0  0  0  0  0  0  0  0
  197.1710  174.9100  139.6830 C   0  0  0  0  0  0  0  0  0  0  0  0
  197.2480  175.3110  141.0140 O   0  0  0  0  0  1  0  0  0  0  0  0
  193.2290  172.5570  136.2700 C   0  0  0  0  0  2  0  0  0  0  0  0
  191.8560  172.5340  136.0370 O   0  0  0  0  0  1  0  0  0  0  0  0
  185.9360  178.9480  139.3420 C   0  0  0  0  0  2  0  0  0  0  0  0
  184.5150  178.4580  139.5460 C   0  0  0  0  0  2  0  0  0  0  0  0
  184.2650  178.1120  141.0050 C   0  0  1  0  0  3  0  0  0  0  0  0
  185.2040  178.7450  141.8270 O   0  0  0  0  0  0  0  0  0  0  0  0
  185.9260  177.7030  142.4160 C   0  0  0  0  0  2  0  0  0  0  0  0
  187.4720  177.5060  144.4530 N   0  0  0  0  0  0  0  0  0  0  0  0
  185.5180  178.8190  144.4650 O   0  0  0  0  0  0  0  0  0  0  0  0
  186.2880  178.0520  143.8270 C   0  0  0  0  0  0  0  0  0  0  0  0
  187.2380  178.5340  148.1800 C   0  0  0  0  0  2  0  0  0  0  0  0
  189.4140  177.7510  147.7360 C   0  0  0  0  0  2  0  0  0  0  0  0
  188.2600  177.5890  148.6160 N   0  0  0  0  0  2  0  0  0  0  0  0
  187.7970  177.7410  145.8430 C   0  0  0  0  0  0  0  0  0  0  0  0
  189.0360  177.5030  146.3030 C   0  0  0  0  0  3  0  0  0  0  0  0
  186.6950  178.1090  146.8160 C   0  0  0  0  0  2  0  0  0  0  0  0
  188.9660  175.9320  143.0960 N   0  0  0  0  0  0  0  0  0  0  0  0
  188.2920  176.6430  143.7120 C   0  0  0  0  0  0  0  0  0  0  0  0
  182.8650  178.5440  141.4190 C   0  0  0  0  0  2  0  0  0  0  0  0
  180.4940  178.3370  140.5930 C   0  0  0  0  0  0  0  0  0  0  0  0
  181.9030  178.1770  140.3920 N   0  0  0  0  0  2  0  0  0  0  0  0
  180.0450  178.6790  141.7170 O   0  0  0  0  0  0  0  0  0  0  0  0
  180.2430  177.0980  138.4880 C   0  0  2  0  0  3  0  0  0  0  0  0
  179.5760  177.2660  137.1390 C   0  0  0  0  0  1  0  0  0  0  0  0
  179.2590  176.5020  139.4670 C   0  0  0  0  0  2  0  0  0  0  0  0
  179.5420  177.9910  139.4920 C   0  0  1  0  0  3  0  0  0  0  0  0
  1  3  1  1  0  0  0
  2 31  1  1  0  0  0
  2  1  1  0  0  0  0
  4  2  1  0  0  0  0
  4  3  1  6  0  0  0
  4  1  1  0  0  0  0
  5 16  1  1  0  0  0
  5  8  1  0  0  0  0
  5  4  1  0  0  0  0
  6  9  1  1  0  0  0
  7 10  1  0  0  0  0
  8  6  1  0  0  0  0
 10 19  1  6  0  0  0
 10  6  1  0  0  0  0
 11 12  1  0  0  0  0
 12  7  1  0  0  0  0
 12  8  2  0  0  0  0
 13 15  2  0  0  0  0
 14 17  1  6  0  0  0
 14 16  1  0  0  0  0
 14  5  1  0  0  0  0
 15  7  1  0  0  0  0
 15 20  1  0  0  0  0
 17 11  1  0  0  0  0
 19 18  2  0  0  0  0
 20 29  1  6  0  0  0
 20 21  1  0  0  0  0
 21 24  1  0  0  0  0
 22 21  1  0  0  0  0
 23 21  1  0  0  0  0
 24 25  1  0  0  0  0
 25 27  1  0  0  0  0
 26 27  2  0  0  0  0
 27 28  1  0  0  0  0
 30 29  1  0  0  0  0
 31 32  1  0  0  0  0
 33 32  1  6  0  0  0
 33 47  1  0  0  0  0
 33 34  1  0  0  0  0
 34 35  1  0  0  0  0
 35 38  1  0  0  0  0
 36 42  1  0  0  0  0
 38 36  1  0  0  0  0
 38 37  2  0  0  0  0
 39 41  1  0  0  0  0
 40 41  1  0  0  0  0
 42 43  2  0  0  0  0
 42 44  1  0  0  0  0
 43 40  1  0  0  0  0
 44 39  1  0  0  0  0
 45 46  3  0  0  0  0
 46 36  1  0  0  0  0
 48 50  2  0  0  0  0
 49 48  1  0  0  0  0
 49 47  1  0  0  0  0
 51 52  1  6  0  0  0
 51 53  1  0  0  0  0
 51 54  1  0  0  0  0
 53 54  1  0  0  0  0
 54 48  1  1  0  0  0
M  END
>  <MODEL>
4

>  <REMARK>
 VINA RESULT:      -6.4      1.544      2.304
  Name = 
  19 active torsions:
  status: ('A' for Active; 'I' for Inactive)
    1  A    between atoms: C_1  and  C_30
    2  A    between atoms: C_5  and  C_21
    3  A    between atoms: C_5  and  C_29
    4  A    between atoms: C_13  and  C_50
    5  A    between atoms: C_14  and  C_21
    6  A    between atoms: N_16  and  C_20
    7  A    between atoms: N_16  and  C_45
    8  A    between atoms: C_19  and  C_25
    9  A    between atoms: C_21  and  C_41
   10  A    between atoms: C_24  and  C_25
   11  A    between atoms: C_24  and  C_51
   12  A    between atoms: C_29  and  O_53
   13  A    between atoms: C_31  and  C_49
   14  A    between atoms: C_35  and  O_53
   15  A    between atoms: N_36  and  C_42
   16  A    between atoms: C_42  and  C_51
   17  A    between atoms: C_43  and  O_47
   18  A    between atoms: C_43  and  C_54
   19  A    between atoms: O_47  and  C_51
                            x       y       z     vdW  Elec       q    Type
                         _______ _______ _______ _____ _____    ______ ____

>  <TORSDO>
F 19

$$$$
=
 OpenBabel11062412503D

 54 60  0  0  1  0  0  0  0  0999 V2000
  188.6410  177.5120  140.8650 C   0  0  2  0  0  3  0  0  0  0  0  0
  187.2650  177.9620  140.4380 C   0  0  2  0  0  3  0  0  0  0  0  0
  189.6020  178.5070  140.6010 O   0  0  0  0  0  0  0  0  0  0  0  0
  188.5110  178.4460  139.7100 C   0  0  1  0  0  0  0  0  0  0  0  0
  188.8380  177.6780  138.4040 C   0  0  2  0  0  0  0  0  0  0  0  0
  191.2400  176.6740  139.1180 C   0  0  1  0  0  3  0  0  0  0  0  0
  191.9310  176.2500  136.8850 N   0  0  0  0  0  0  0  0  0  0  0  0
  190.2370  177.1480  138.1080 C   0  0  0  0  0  0  0  0  0  0  0  0
  190.7060  175.6260  139.8670 O   0  0  0  0  0  1  0  0  0  0  0  0
  192.3950  176.1370  138.2640 C   0  0  1  0  0  3  0  0  0  0  0  0
  189.8030  177.0760  135.6790 C   0  0  0  0  0  2  0  0  0  0  0  0
  190.6690  176.9040  136.8860 C   0  0  0  0  0  0  0  0  0  0  0  0
  192.1670  175.7890  134.6090 O   0  0  0  0  0  0  0  0  0  0  0  0
  188.0840  178.2830  137.2120 C   0  0  2  0  0  3  0  0  0  0  0  0
  192.4540  175.4780  135.7970 C   0  0  0  0  0  0  0  0  0  0  0  0
  187.7090  176.9020  137.7270 C   0  0  0  0  0  2  0  0  0  0  0  0
  188.8570  178.2620  135.8730 C   0  0  0  0  0  2  0  0  0  0  0  0
  193.9320  177.3820  139.5770 O   0  0  0  0  0  0  0  0  0  0  0  0
  193.6350  176.9580  138.4690 C   0  0  0  0  0  3  0  0  0  0  0  0
  193.2690  174.2390  136.0760 C   0  0  2  0  0  3  0  0  0  0  0  0
  194.7940  174.3890  135.8850 C   0  0  0  0  0  0  0  0  0  0  0  0
  195.2180  173.5500  134.8500 O   0  0  0  0  0  1  0  0  0  0  0  0
  195.1170  175.7050  135.5480 O   0  0  0  0  0  1  0  0  0  0  0  0
  195.5470  174.0120  137.1600 C   0  0  0  0  0  2  0  0  0  0  0  0
  196.4500  172.9370  136.9230 O   0  0  0  0  0  0  0  0  0  0  0  0
  197.2360  170.8650  137.4940 O   0  0  0  0  0  0  0  0  0  0  0  0
  196.3170  171.7180  137.5790 C   0  0  0  0  0  0  0  0  0  0  0  0
  195.1870  171.4410  138.3440 O   0  0  0  0  0  1  0  0  0  0  0  0
  192.6800  173.0290  135.3480 C   0  0  0  0  0  2  0  0  0  0  0  0
  191.4580  172.6570  135.9040 O   0  0  0  0  0  1  0  0  0  0  0  0
  186.7570  179.0160  141.4010 C   0  0  0  0  0  2  0  0  0  0  0  0
  185.2680  179.2240  141.2040 C   0  0  0  0  0  2  0  0  0  0  0  0
  184.4800  178.6380  142.3640 C   0  0  1  0  0  3  0  0  0  0  0  0
  184.6900  179.3860  143.5280 O   0  0  0  0  0  0  0  0  0  0  0  0
  184.3990  178.5080  144.5760 C   0  0  0  0  0  2  0  0  0  0  0  0
  186.6600  177.8350  145.5800 N   0  0  0  0  0  0  0  0  0  0  0  0
  185.2180  179.3750  146.6230 O   0  0  0  0  0  0  0  0  0  0  0  0
  185.4410  178.6100  145.6470 C   0  0  0  0  0  0  0  0  0  0  0  0
  189.9430  177.3510  147.5800 C   0  0  0  0  0  2  0  0  0  0  0  0
  188.2940  178.2270  149.0150 C   0  0  0  0  0  2  0  0  0  0  0  0
  189.6530  178.4270  148.5220 N   0  0  0  0  0  2  0  0  0  0  0  0
  187.6410  177.8330  146.6440 C   0  0  0  0  0  0  0  0  0  0  0  0
  187.3050  178.2320  147.8810 C   0  0  0  0  0  3  0  0  0  0  0  0
  189.0900  177.5270  146.3220 C   0  0  0  0  0  2  0  0  0  0  0  0
  187.0230  176.2810  143.5790 N   0  0  0  0  0  0  0  0  0  0  0  0
  186.8620  176.9830  144.4840 C   0  0  0  0  0  0  0  0  0  0  0  0
  182.9920  178.6240  142.0400 C   0  0  0  0  0  2  0  0  0  0  0  0
  182.3780  178.3180  139.6160 C   0  0  0  0  0  0  0  0  0  0  0  0
  182.7380  177.7710  140.8890 N   0  0  0  0  0  2  0  0  0  0  0  0
  182.1460  179.5480  139.4930 O   0  0  0  0  0  0  0  0  0  0  0  0
  182.9960  177.9070  137.2760 C   0  0  2  0  0  3  0  0  0  0  0  0
  182.3460  177.4400  135.9900 C   0  0  0  0  0  1  0  0  0  0  0  0
  183.4640  176.7100  138.0690 C   0  0  0  0  0  2  0  0  0  0  0  0
  182.1720  177.4080  138.4460 C   0  0  1  0  0  3  0  0  0  0  0  0
  1  3  1  1  0  0  0
  2  1  1  0  0  0  0
  2 31  1  1  0  0  0
  4  2  1  0  0  0  0
  4  3  1  1  0  0  0
  4  1  1  0  0  0  0
  5 16  1  1  0  0  0
  5  4  1  0  0  0  0
  6  9  1  6  0  0  0
  7 12  1  0  0  0  0
  7 10  1  0  0  0  0
  8  5  1  0  0  0  0
  8  6  1  0  0  0  0
 10 19  1  6  0  0  0
 10  6  1  0  0  0  0
 11 17  1  0  0  0  0
 11 12  1  0  0  0  0
 12  8  2  0  0  0  0
 13 15  2  0  0  0  0
 14 17  1  6  0  0  0
 14 16  1  0  0  0  0
 14  5  1  0  0  0  0
 15 20  1  0  0  0  0
 15  7  1  0  0  0  0
 19 18  2  0  0  0  0
 20 29  1  6  0  0  0
 21 20  1  0  0  0  0
 21 24  1  0  0  0  0
 22 21  1  0  0  0  0
 23 21  1  0  0  0  0
 25 24  1  0  0  0  0
 25 27  1  0  0  0  0
 26 27  2  0  0  0  0
 27 28  1  0  0  0  0
 29 30  1  0  0  0  0
 32 31  1  0  0  0  0
 33 32  1  6  0  0  0
 33 34  1  0  0  0  0
 34 35  1  0  0  0  0
 35 38  1  0  0  0  0
 36 38  1  0  0  0  0
 36 42  1  0  0  0  0
 38 37  2  0  0  0  0
 39 41  1  0  0  0  0
 41 40  1  0  0  0  0
 42 43  2  0  0  0  0
 43 40  1  0  0  0  0
 44 42  1  0  0  0  0
 44 39  1  0  0  0  0
 45 46  3  0  0  0  0
 46 36  1  0  0  0  0
 47 33  1  0  0  0  0
 48 49  1  0  0  0  0
 49 47  1  0  0  0  0
 50 48  2  0  0  0  0
 51 52  1  6  0  0  0
 51 53  1  0  0  0  0
 51 54  1  0  0  0  0
 53 54  1  0  0  0  0
 54 48  1  1  0  0  0
M  END
>  <MODEL>
5

>  <REMARK>
 VINA RESULT:      -6.3      1.849      2.380
  Name = 
  19 active torsions:
  status: ('A' for Active; 'I' for Inactive)
    1  A    between atoms: C_1  and  C_30
    2  A    between atoms: C_5  and  C_21
    3  A    between atoms: C_5  and  C_29
    4  A    between atoms: C_13  and  C_50
    5  A    between atoms: C_14  and  C_21
    6  A    between atoms: N_16  and  C_20
    7  A    between atoms: N_16  and  C_45
    8  A    between atoms: C_19  and  C_25
    9  A    between atoms: C_21  and  C_41
   10  A    between atoms: C_24  and  C_25
   11  A    between atoms: C_24  and  C_51
   12  A    between atoms: C_29  and  O_53
   13  A    between atoms: C_31  and  C_49
   14  A    between atoms: C_35  and  O_53
   15  A    between atoms: N_36  and  C_42
   16  A    between atoms: C_42  and  C_51
   17  A    between atoms: C_43  and  O_47
   18  A    between atoms: C_43  and  C_54
   19  A    between atoms: O_47  and  C_51
                            x       y       z     vdW  Elec       q    Type
                         _______ _______ _______ _____ _____    ______ ____

>  <TORSDO>
F 19

$$$$
=
 OpenBabel11062412503D

 54 60  0  0  1  0  0  0  0  0999 V2000
  186.8600  178.6320  136.6410 C   0  0  2  0  0  3  0  0  0  0  0  0
  187.2380  177.2550  136.1510 C   0  0  2  0  0  3  0  0  0  0  0  0
  186.9950  178.7250  138.0400 O   0  0  0  0  0  0  0  0  0  0  0  0
  186.6360  177.4590  137.5340 C   0  0  1  0  0  0  0  0  0  0  0  0
  185.1140  177.1810  137.6250 C   0  0  2  0  0  0  0  0  0  0  0  0
  184.5330  178.7970  139.7090 C   0  0  1  0  0  3  0  0  0  0  0  0
  182.4830  177.7070  140.2170 N   0  0  0  0  0  0  0  0  0  0  0  0
  184.2870  177.6010  138.8360 C   0  0  0  0  0  0  0  0  0  0  0  0
  184.5030  179.9620  138.9430 O   0  0  0  0  0  1  0  0  0  0  0  0
  183.3370  178.8010  140.6690 C   0  0  1  0  0  3  0  0  0  0  0  0
  182.5350  175.9340  138.3410 C   0  0  0  0  0  2  0  0  0  0  0  0
  183.1480  177.0230  139.1630 C   0  0  0  0  0  0  0  0  0  0  0  0
  180.4650  176.5380  140.2750 O   0  0  0  0  0  0  0  0  0  0  0  0
  184.7720  175.8120  137.0220 C   0  0  2  0  0  3  0  0  0  0  0  0
  181.0820  177.6140  140.5020 C   0  0  0  0  0  0  0  0  0  0  0  0
  184.3240  177.0840  136.3200 C   0  0  0  0  0  2  0  0  0  0  0  0
  183.6270  175.0540  137.7330 C   0  0  0  0  0  2  0  0  0  0  0  0
  184.5750  179.3280  142.6250 O   0  0  0  0  0  0  0  0  0  0  0  0
  183.7890  178.5660  142.0810 C   0  0  0  0  0  3  0  0  0  0  0  0
  180.3280  178.8300  140.9810 C   0  0  2  0  0  3  0  0  0  0  0  0
  180.0440  179.9030  139.9080 C   0  0  0  0  0  0  0  0  0  0  0  0
  178.9310  180.6580  140.2890 O   0  0  0  0  0  1  0  0  0  0  0  0
  181.1370  180.7630  139.7770 O   0  0  0  0  0  1  0  0  0  0  0  0
  179.7600  179.2610  138.5510 C   0  0  0  0  0  2  0  0  0  0  0  0
  180.8110  179.5280  137.6290 O   0  0  0  0  0  0  0  0  0  0  0  0
  179.7400  181.0680  136.3180 O   0  0  0  0  0  1  0  0  0  0  0  0
  180.5630  180.1210  136.3960 C   0  0  0  0  0  0  0  0  0  0  0  0
  181.2290  179.6910  135.2520 O   0  0  0  0  0  0  0  0  0  0  0  0
  180.9640  179.3940  142.2540 C   0  0  0  0  0  2  0  0  0  0  0  0
  180.1500  180.3650  142.8320 O   0  0  0  0  0  1  0  0  0  0  0  0
  188.7420  177.0850  136.2350 C   0  0  0  0  0  2  0  0  0  0  0  0
  189.0790  175.8350  137.0250 C   0  0  0  0  0  2  0  0  0  0  0  0
  190.3120  176.0540  137.8870 C   0  0  1  0  0  3  0  0  0  0  0  0
  191.4470  176.2200  137.0860 O   0  0  0  0  0  0  0  0  0  0  0  0
  192.1570  175.0220  137.2170 C   0  0  0  0  0  2  0  0  0  0  0  0
  194.5740  174.2790  137.6370 N   0  0  0  0  0  0  0  0  0  0  0  0
  193.7830  176.4140  138.2310 O   0  0  0  0  0  0  0  0  0  0  0  0
  193.5430  175.2900  137.7170 C   0  0  0  0  0  0  0  0  0  0  0  0
  198.4170  174.5710  138.0300 C   0  0  0  0  0  2  0  0  0  0  0  0
  197.4080  174.8400  140.1410 C   0  0  0  0  0  2  0  0  0  0  0  0
  198.3390  175.4470  139.1950 N   0  0  0  0  0  2  0  0  0  0  0  0
  195.8940  174.4670  138.2000 C   0  0  0  0  0  0  0  0  0  0  0  0
  196.0510  174.6590  139.5200 C   0  0  0  0  0  3  0  0  0  0  0  0
  197.0880  174.6010  137.2750 C   0  0  0  0  0  2  0  0  0  0  0  0
  194.0070  172.0070  136.6050 N   0  0  0  0  0  0  0  0  0  0  0  0
  194.2610  173.0340  137.0710 C   0  0  0  0  0  0  0  0  0  0  0  0
  190.1330  177.2860  138.7640 C   0  0  0  0  0  2  0  0  0  0  0  0
  189.8970  177.3920  141.2700 C   0  0  0  0  0  0  0  0  0  0  0  0
  190.6410  177.0270  140.1020 N   0  0  0  0  0  2  0  0  0  0  0  0
  188.8400  178.0650  141.1680 O   0  0  0  0  0  0  0  0  0  0  0  0
  189.2780  176.8310  143.5780 C   0  0  2  0  0  3  0  0  0  0  0  0
  189.7400  177.1340  144.9890 C   0  0  0  0  0  1  0  0  0  0  0  0
  190.0550  175.6540  143.0360 C   0  0  0  0  0  2  0  0  0  0  0  0
  190.4350  177.0640  142.6270 C   0  0  1  0  0  3  0  0  0  0  0  0
  1  4  1  0  0  0  0
  1  3  1  1  0  0  0
  2 31  1  1  0  0  0
  2  1  1  0  0  0  0
  2  4  1  0  0  0  0
  4  5  1  0  0  0  0
  4  3  1  1  0  0  0
  5 16  1  6  0  0  0
  5  8  1  0  0  0  0
  6  9  1  6  0  0  0
  6 10  1  0  0  0  0
  7 15  1  0  0  0  0
  7 10  1  0  0  0  0
  8 12  2  0  0  0  0
  8  6  1  0  0  0  0
 10 19  1  1  0  0  0
 11 12  1  0  0  0  0
 12  7  1  0  0  0  0
 13 15  2  0  0  0  0
 14 16  1  6  0  0  0
 14  5  1  0  0  0  0
 14 17  1  0  0  0  0
 15 20  1  0  0  0  0
 17 11  1  0  0  0  0
 19 18  2  0  0  0  0
 20 29  1  1  0  0  0
 21 22  1  0  0  0  0
 21 20  1  0  0  0  0
 23 21  1  0  0  0  0
 24 21  1  0  0  0  0
 25 24  1  0  0  0  0
 26 27  1  0  0  0  0
 27 25  1  0  0  0  0
 28 27  2  0  0  0  0
 29 30  1  0  0  0  0
 31 32  1  0  0  0  0
 33 32  1  6  0  0  0
 33 47  1  0  0  0  0
 34 35  1  0  0  0  0
 34 33  1  0  0  0  0
 35 38  1  0  0  0  0
 36 38  1  0  0  0  0
 36 42  1  0  0  0  0
 38 37  2  0  0  0  0
 39 41  1  0  0  0  0
 41 40  1  0  0  0  0
 42 43  2  0  0  0  0
 43 40  1  0  0  0  0
 44 39  1  0  0  0  0
 44 42  1  0  0  0  0
 45 46  3  0  0  0  0
 46 36  1  0  0  0  0
 47 49  1  0  0  0  0
 49 48  1  0  0  0  0
 50 48  2  0  0  0  0
 51 52  1  1  0  0  0
 53 51  1  0  0  0  0
 54 48  1  6  0  0  0
 54 53  1  0  0  0  0
 54 51  1  0  0  0  0
M  END
>  <MODEL>
6

>  <REMARK>
 VINA RESULT:      -6.2      2.999     11.051
  Name = 
  19 active torsions:
  status: ('A' for Active; 'I' for Inactive)
    1  A    between atoms: C_1  and  C_30
    2  A    between atoms: C_5  and  C_21
    3  A    between atoms: C_5  and  C_29
    4  A    between atoms: C_13  and  C_50
    5  A    between atoms: C_14  and  C_21
    6  A    between atoms: N_16  and  C_20
    7  A    between atoms: N_16  and  C_45
    8  A    between atoms: C_19  and  C_25
    9  A    between atoms: C_21  and  C_41
   10  A    between atoms: C_24  and  C_25
   11  A    between atoms: C_24  and  C_51
   12  A    between atoms: C_29  and  O_53
   13  A    between atoms: C_31  and  C_49
   14  A    between atoms: C_35  and  O_53
   15  A    between atoms: N_36  and  C_42
   16  A    between atoms: C_42  and  C_51
   17  A    between atoms: C_43  and  O_47
   18  A    between atoms: C_43  and  C_54
   19  A    between atoms: O_47  and  C_51
                            x       y       z     vdW  Elec       q    Type
                         _______ _______ _______ _____ _____    ______ ____

>  <TORSDO>
F 19

$$$$
=
 OpenBabel11062412503D

 54 60  0  0  1  0  0  0  0  0999 V2000
  188.4140  177.7040  142.1250 C   0  0  2  0  0  3  0  0  0  0  0  0
  186.9780  177.9700  141.7450 C   0  0  2  0  0  3  0  0  0  0  0  0
  189.2240  178.8240  141.8570 O   0  0  0  0  0  0  0  0  0  0  0  0
  188.1250  178.6330  140.9950 C   0  0  1  0  0  0  0  0  0  0  0  0
  188.5140  177.9400  139.6640 C   0  0  2  0  0  0  0  0  0  0  0  0
  190.9590  177.0440  140.3770 C   0  0  1  0  0  3  0  0  0  0  0  0
  191.7050  176.7530  138.1400 N   0  0  0  0  0  0  0  0  0  0  0  0
  189.9450  177.5020  139.3710 C   0  0  0  0  0  0  0  0  0  0  0  0
  190.4740  175.9360  141.0730 O   0  0  0  0  0  1  0  0  0  0  0  0
  192.1540  176.6090  139.5210 C   0  0  1  0  0  3  0  0  0  0  0  0
  189.5510  177.5080  136.9330 C   0  0  0  0  0  2  0  0  0  0  0  0
  190.4080  177.3350  138.1470 C   0  0  0  0  0  0  0  0  0  0  0  0
  191.9990  176.4010  135.8520 O   0  0  0  0  0  0  0  0  0  0  0  0
  187.7440  178.5500  138.4850 C   0  0  2  0  0  3  0  0  0  0  0  0
  192.2870  176.0580  137.0310 C   0  0  0  0  0  0  0  0  0  0  0  0
  187.4400  177.1300  138.9370 C   0  0  0  0  0  2  0  0  0  0  0  0
  188.5370  178.6290  137.1600 C   0  0  0  0  0  2  0  0  0  0  0  0
  194.4020  177.0170  140.1670 O   0  0  0  0  0  0  0  0  0  0  0  0
  193.3420  177.4890  139.7810 C   0  0  0  0  0  3  0  0  0  0  0  0
  193.1670  174.8560  137.2720 C   0  0  2  0  0  3  0  0  0  0  0  0
  194.5540  174.9000  136.5930 C   0  0  0  0  0  0  0  0  0  0  0  0
  194.4640  174.3400  135.3160 O   0  0  0  0  0  1  0  0  0  0  0  0
  194.9940  176.2190  136.4670 O   0  0  0  0  0  1  0  0  0  0  0  0
  195.5850  174.1140  137.4010 C   0  0  0  0  0  2  0  0  0  0  0  0
  196.7460  174.9000  137.6500 O   0  0  0  0  0  0  0  0  0  0  0  0
  198.5580  175.2440  136.2950 O   0  0  0  0  0  0  0  0  0  0  0  0
  197.9940  174.5280  137.1600 C   0  0  0  0  0  0  0  0  0  0  0  0
  198.6310  173.3840  137.6310 O   0  0  0  0  0  1  0  0  0  0  0  0
  192.3990  173.5600  137.0060 C   0  0  0  0  0  2  0  0  0  0  0  0
  191.0370  173.7260  137.2510 O   0  0  0  0  0  1  0  0  0  0  0  0
  186.3600  178.9280  142.7450 C   0  0  0  0  0  2  0  0  0  0  0  0
  185.1880  179.6540  142.1120 C   0  0  0  0  0  2  0  0  0  0  0  0
  183.8680  179.0750  142.5960 C   0  0  1  0  0  3  0  0  0  0  0  0
  183.6630  177.8010  142.0550 O   0  0  0  0  0  0  0  0  0  0  0  0
  182.7120  177.9880  141.0470 C   0  0  0  0  0  2  0  0  0  0  0  0
  183.7680  177.6780  138.7310 N   0  0  0  0  0  0  0  0  0  0  0  0
  182.6450  175.9420  139.8550 O   0  0  0  0  0  0  0  0  0  0  0  0
  183.0400  177.1380  139.8580 C   0  0  0  0  0  0  0  0  0  0  0  0
  183.9070  174.8000  136.1410 C   0  0  0  0  0  2  0  0  0  0  0  0
  184.9810  176.6930  135.2420 C   0  0  0  0  0  2  0  0  0  0  0  0
  183.9460  175.6950  134.9890 N   0  0  0  0  0  2  0  0  0  0  0  0
  184.0140  176.9160  137.5250 C   0  0  0  0  0  0  0  0  0  0  0  0
  184.6920  177.4600  136.5020 C   0  0  0  0  0  3  0  0  0  0  0  0
  183.3700  175.5540  137.3580 C   0  0  0  0  0  2  0  0  0  0  0  0
  184.5160  180.1240  138.8030 N   0  0  0  0  0  0  0  0  0  0  0  0
  184.1760  179.0190  138.7680 C   0  0  0  0  0  0  0  0  0  0  0  0
  183.8550  178.9830  144.1150 C   0  0  0  0  0  2  0  0  0  0  0  0
  185.5890  178.3710  145.8370 C   0  0  0  0  0  0  0  0  0  0  0  0
  184.9490  178.1430  144.5760 N   0  0  0  0  0  2  0  0  0  0  0  0
  185.3060  179.3870  146.5220 O   0  0  0  0  0  0  0  0  0  0  0  0
  188.0120  178.1680  146.1790 C   0  0  2  0  0  3  0  0  0  0  0  0
  189.1040  177.1330  146.0100 C   0  0  0  0  0  1  0  0  0  0  0  0
  187.3630  178.0000  147.5330 C   0  0  0  0  0  2  0  0  0  0  0  0
  186.6790  177.4540  146.2950 C   0  0  1  0  0  3  0  0  0  0  0  0
  1  3  1  1  0  0  0
  2  1  1  0  0  0  0
  2 31  1  1  0  0  0
  4  2  1  0  0  0  0
  4  3  1  1  0  0  0
  4  1  1  0  0  0  0
  5 16  1  1  0  0  0
  5  4  1  0  0  0  0
  6  9  1  6  0  0  0
  7 12  1  0  0  0  0
  7 10  1  0  0  0  0
  8  5  1  0  0  0  0
  8  6  1  0  0  0  0
 10 19  1  6  0  0  0
 10  6  1  0  0  0  0
 11 17  1  0  0  0  0
 11 12  1  0  0  0  0
 12  8  2  0  0  0  0
 13 15  2  0  0  0  0
 14 17  1  6  0  0  0
 14 16  1  0  0  0  0
 14  5  1  0  0  0  0
 15 20  1  0  0  0  0
 15  7  1  0  0  0  0
 19 18  2  0  0  0  0
 20 29  1  6  0  0  0
 21 20  1  0  0  0  0
 21 24  1  0  0  0  0
 22 21  1  0  0  0  0
 23 21  1  0  0  0  0
 24 25  1  0  0  0  0
 26 27  2  0  0  0  0
 27 28  1  0  0  0  0
 27 25  1  0  0  0  0
 29 30  1  0  0  0  0
 32 31  1  0  0  0  0
 33 32  1  6  0  0  0
 33 47  1  0  0  0  0
 34 33  1  0  0  0  0
 35 34  1  0  0  0  0
 36 46  1  0  0  0  0
 36 38  1  0  0  0  0
 37 38  2  0  0  0  0
 38 35  1  0  0  0  0
 39 44  1  0  0  0  0
 40 43  1  0  0  0  0
 41 40  1  0  0  0  0
 41 39  1  0  0  0  0
 42 36  1  0  0  0  0
 43 42  2  0  0  0  0
 44 42  1  0  0  0  0
 46 45  3  0  0  0  0
 47 49  1  0  0  0  0
 48 50  2  0  0  0  0
 49 48  1  0  0  0  0
 51 52  1  1  0  0  0
 51 54  1  0  0  0  0
 51 53  1  0  0  0  0
 54 48  1  6  0  0  0
 54 53  1  0  0  0  0
M  END
>  <MODEL>
7

>  <REMARK>
 VINA RESULT:      -6.0      2.401      5.737
  Name = 
  19 active torsions:
  status: ('A' for Active; 'I' for Inactive)
    1  A    between atoms: C_1  and  C_30
    2  A    between atoms: C_5  and  C_21
    3  A    between atoms: C_5  and  C_29
    4  A    between atoms: C_13  and  C_50
    5  A    between atoms: C_14  and  C_21
    6  A    between atoms: N_16  and  C_20
    7  A    between atoms: N_16  and  C_45
    8  A    between atoms: C_19  and  C_25
    9  A    between atoms: C_21  and  C_41
   10  A    between atoms: C_24  and  C_25
   11  A    between atoms: C_24  and  C_51
   12  A    between atoms: C_29  and  O_53
   13  A    between atoms: C_31  and  C_49
   14  A    between atoms: C_35  and  O_53
   15  A    between atoms: N_36  and  C_42
   16  A    between atoms: C_42  and  C_51
   17  A    between atoms: C_43  and  O_47
   18  A    between atoms: C_43  and  C_54
   19  A    between atoms: O_47  and  C_51
                            x       y       z     vdW  Elec       q    Type
                         _______ _______ _______ _____ _____    ______ ____

>  <TORSDO>
F 19

$$$$
=
 OpenBabel11062412503D

 54 60  0  0  1  0  0  0  0  0999 V2000
  187.5240  178.8960  137.5280 C   0  0  2  0  0  3  0  0  0  0  0  0
  188.0400  177.6750  136.8050 C   0  0  2  0  0  3  0  0  0  0  0  0
  187.3460  178.6330  138.9000 O   0  0  0  0  0  0  0  0  0  0  0  0
  187.1430  177.5440  138.0280 C   0  0  1  0  0  0  0  0  0  0  0  0
  185.6470  177.2940  137.7100 C   0  0  2  0  0  0  0  0  0  0  0  0
  184.5650  178.9990  139.5020 C   0  0  1  0  0  3  0  0  0  0  0  0
  182.4260  177.9630  139.4690 N   0  0  0  0  0  0  0  0  0  0  0  0
  184.5340  177.7740  138.6360 C   0  0  0  0  0  0  0  0  0  0  0  0
  184.7740  180.1330  138.7180 O   0  0  0  0  0  1  0  0  0  0  0  0
  183.1540  179.0600  140.0990 C   0  0  1  0  0  3  0  0  0  0  0  0
  182.9390  176.1170  137.7400 C   0  0  0  0  0  2  0  0  0  0  0  0
  183.3340  177.2270  138.6600 C   0  0  0  0  0  0  0  0  0  0  0  0
  180.4380  176.8290  139.0150 O   0  0  0  0  0  0  0  0  0  0  0  0
  185.4460  175.9080  137.0830 C   0  0  2  0  0  3  0  0  0  0  0  0
  180.9990  177.9040  139.3650 C   0  0  0  0  0  0  0  0  0  0  0  0
  185.2390  177.1580  136.2430 C   0  0  0  0  0  2  0  0  0  0  0  0
  184.1320  175.1960  137.4810 C   0  0  0  0  0  2  0  0  0  0  0  0
  183.4270  177.7770  142.0780 O   0  0  0  0  0  0  0  0  0  0  0  0
  183.1990  178.8740  141.5880 C   0  0  0  0  0  3  0  0  0  0  0  0
  180.1750  179.1490  139.5800 C   0  0  2  0  0  3  0  0  0  0  0  0
  180.1970  180.1700  138.4220 C   0  0  0  0  0  0  0  0  0  0  0  0
  181.1580  179.7870  137.4820 O   0  0  0  0  0  1  0  0  0  0  0  0
  178.9530  180.2170  137.7880 O   0  0  0  0  0  1  0  0  0  0  0  0
  180.5400  181.5690  138.9300 C   0  0  0  0  0  2  0  0  0  0  0  0
  180.2120  182.5600  137.9620 O   0  0  0  0  0  0  0  0  0  0  0  0
  182.2630  183.5760  137.9880 O   0  0  0  0  0  1  0  0  0  0  0  0
  181.1910  183.3510  137.3710 C   0  0  0  0  0  0  0  0  0  0  0  0
  181.0050  183.8800  136.0960 O   0  0  0  0  0  0  0  0  0  0  0  0
  180.4780  179.7690  140.9460 C   0  0  0  0  0  2  0  0  0  0  0  0
  179.6060  179.2870  141.9190 O   0  0  0  0  0  1  0  0  0  0  0  0
  189.4930  177.4480  137.1720 C   0  0  0  0  0  2  0  0  0  0  0  0
  189.6070  176.2920  138.1460 C   0  0  0  0  0  2  0  0  0  0  0  0
  191.0470  176.1040  138.5980 C   0  0  1  0  0  3  0  0  0  0  0  0
  191.9240  176.2570  137.5200 O   0  0  0  0  0  0  0  0  0  0  0  0
  193.1950  176.0230  138.0540 C   0  0  0  0  0  2  0  0  0  0  0  0
  194.9630  174.1660  138.0490 N   0  0  0  0  0  0  0  0  0  0  0  0
  193.2250  174.2670  136.4650 O   0  0  0  0  0  0  0  0  0  0  0  0
  193.7800  174.7700  137.4780 C   0  0  0  0  0  0  0  0  0  0  0  0
  197.0550  171.9020  135.7030 C   0  0  0  0  0  2  0  0  0  0  0  0
  196.0610  170.5680  137.3700 C   0  0  0  0  0  2  0  0  0  0  0  0
  197.3310  170.9070  136.7340 N   0  0  0  0  0  2  0  0  0  0  0  0
  195.6120  173.0150  137.4590 C   0  0  0  0  0  0  0  0  0  0  0  0
  195.4170  171.7880  137.9680 C   0  0  0  0  0  3  0  0  0  0  0  0
  196.6360  173.2180  136.3600 C   0  0  0  0  0  2  0  0  0  0  0  0
  196.0480  175.2590  140.0920 N   0  0  0  0  0  0  0  0  0  0  0  0
  195.5580  174.7680  139.1680 C   0  0  0  0  0  0  0  0  0  0  0  0
  191.3980  177.1170  139.6790 C   0  0  0  0  0  2  0  0  0  0  0  0
  190.5120  177.4960  142.0070 C   0  0  0  0  0  0  0  0  0  0  0  0
  190.2910  177.2600  140.6110 N   0  0  0  0  0  2  0  0  0  0  0  0
  191.6750  177.4570  142.4840 O   0  0  0  0  0  0  0  0  0  0  0  0
  188.0930  177.1570  142.2520 C   0  0  2  0  0  3  0  0  0  0  0  0
  186.8920  177.8800  142.8230 C   0  0  0  0  0  1  0  0  0  0  0  0
  188.7610  176.3490  143.3400 C   0  0  0  0  0  2  0  0  0  0  0  0
  189.3450  177.6850  142.9230 C   0  0  1  0  0  3  0  0  0  0  0  0
  1  4  1  0  0  0  0
  1  3  1  1  0  0  0
  2 31  1  1  0  0  0
  2  1  1  0  0  0  0
  2  4  1  0  0  0  0
  4  3  1  1  0  0  0
  5 16  1  6  0  0  0
  5  4  1  0  0  0  0
  5  8  1  0  0  0  0
  6  9  1  6  0  0  0
  6 10  1  0  0  0  0
  7 10  1  0  0  0  0
  8 12  2  0  0  0  0
  8  6  1  0  0  0  0
 10 19  1  1  0  0  0
 11 12  1  0  0  0  0
 12  7  1  0  0  0  0
 13 15  2  0  0  0  0
 14 16  1  6  0  0  0
 14 17  1  0  0  0  0
 14  5  1  0  0  0  0
 15  7  1  0  0  0  0
 15 20  1  0  0  0  0
 17 11  1  0  0  0  0
 19 18  2  0  0  0  0
 20 29  1  1  0  0  0
 21 24  1  0  0  0  0
 21 20  1  0  0  0  0
 22 21  1  0  0  0  0
 23 21  1  0  0  0  0
 25 24  1  0  0  0  0
 27 25  1  0  0  0  0
 27 26  1  0  0  0  0
 28 27  2  0  0  0  0
 29 30  1  0  0  0  0
 31 32  1  0  0  0  0
 33 32  1  6  0  0  0
 33 47  1  0  0  0  0
 34 35  1  0  0  0  0
 34 33  1  0  0  0  0
 36 46  1  0  0  0  0
 37 38  2  0  0  0  0
 38 36  1  0  0  0  0
 38 35  1  0  0  0  0
 39 44  1  0  0  0  0
 39 41  1  0  0  0  0
 40 43  1  0  0  0  0
 41 40  1  0  0  0  0
 42 43  2  0  0  0  0
 42 36  1  0  0  0  0
 44 42  1  0  0  0  0
 46 45  3  0  0  0  0
 47 49  1  0  0  0  0
 48 50  2  0  0  0  0
 49 48  1  0  0  0  0
 51 52  1  1  0  0  0
 51 54  1  0  0  0  0
 51 53  1  0  0  0  0
 54 48  1  6  0  0  0
 54 53  1  0  0  0  0
M  END
>  <MODEL>
8

>  <REMARK>
 VINA RESULT:      -5.6      3.293     11.091
  Name = 
  19 active torsions:
  status: ('A' for Active; 'I' for Inactive)
    1  A    between atoms: C_1  and  C_30
    2  A    between atoms: C_5  and  C_21
    3  A    between atoms: C_5  and  C_29
    4  A    between atoms: C_13  and  C_50
    5  A    between atoms: C_14  and  C_21
    6  A    between atoms: N_16  and  C_20
    7  A    between atoms: N_16  and  C_45
    8  A    between atoms: C_19  and  C_25
    9  A    between atoms: C_21  and  C_41
   10  A    between atoms: C_24  and  C_25
   11  A    between atoms: C_24  and  C_51
   12  A    between atoms: C_29  and  O_53
   13  A    between atoms: C_31  and  C_49
   14  A    between atoms: C_35  and  O_53
   15  A    between atoms: N_36  and  C_42
   16  A    between atoms: C_42  and  C_51
   17  A    between atoms: C_43  and  O_47
   18  A    between atoms: C_43  and  C_54
   19  A    between atoms: O_47  and  C_51
                            x       y       z     vdW  Elec       q    Type
                         _______ _______ _______ _____ _____    ______ ____

>  <TORSDO>
F 19

$$$$
=
 OpenBabel11062412503D

 54 60  0  0  1  0  0  0  0  0999 V2000
  188.5290  177.6880  141.4860 C   0  0  2  0  0  3  0  0  0  0  0  0
  187.0910  177.9480  141.1050 C   0  0  2  0  0  3  0  0  0  0  0  0
  189.3450  178.7880  141.1580 O   0  0  0  0  0  0  0  0  0  0  0  0
  188.2370  178.5640  140.3150 C   0  0  1  0  0  0  0  0  0  0  0  0
  188.6090  177.8050  139.0160 C   0  0  2  0  0  0  0  0  0  0  0  0
  191.0370  176.8930  139.7640 C   0  0  1  0  0  3  0  0  0  0  0  0
  191.7710  176.4880  137.5410 N   0  0  0  0  0  0  0  0  0  0  0  0
  190.0300  177.3260  138.7400 C   0  0  0  0  0  0  0  0  0  0  0  0
  190.5320  175.8270  140.5090 O   0  0  0  0  0  1  0  0  0  0  0  0
  192.2220  176.3960  138.9260 C   0  0  1  0  0  3  0  0  0  0  0  0
  189.6300  177.2320  136.3050 C   0  0  0  0  0  2  0  0  0  0  0  0
  190.4870  177.0960  137.5230 C   0  0  0  0  0  0  0  0  0  0  0  0
  192.0530  176.0300  135.2700 O   0  0  0  0  0  0  0  0  0  0  0  0
  187.8480  178.3780  137.8120 C   0  0  2  0  0  3  0  0  0  0  0  0
  192.3370  175.7330  136.4620 C   0  0  0  0  0  0  0  0  0  0  0  0
  187.5170  176.9860  138.3270 C   0  0  0  0  0  2  0  0  0  0  0  0
  188.6390  178.3820  136.4830 C   0  0  0  0  0  2  0  0  0  0  0  0
  194.0140  177.2660  140.2180 O   0  0  0  0  0  0  0  0  0  0  0  0
  193.4270  177.2630  139.1440 C   0  0  0  0  0  3  0  0  0  0  0  0
  193.1940  174.5260  136.7550 C   0  0  2  0  0  3  0  0  0  0  0  0
  194.7140  174.7300  136.5790 C   0  0  0  0  0  0  0  0  0  0  0  0
  195.1590  173.9890  135.4800 O   0  0  0  0  0  1  0  0  0  0  0  0
  195.0020  176.0780  136.3490 O   0  0  0  0  0  1  0  0  0  0  0  0
  195.4770  174.2720  137.8200 C   0  0  0  0  0  2  0  0  0  0  0  0
  196.5180  175.1860  138.1480 O   0  0  0  0  0  0  0  0  0  0  0  0
  198.6820  175.0960  138.8890 O   0  0  0  0  0  1  0  0  0  0  0  0
  197.8580  174.8560  137.9710 C   0  0  0  0  0  0  0  0  0  0  0  0
  198.2910  174.2460  136.7970 O   0  0  0  0  0  0  0  0  0  0  0  0
  192.6560  173.2910  136.0280 C   0  0  0  0  0  2  0  0  0  0  0  0
  191.3530  173.0020  136.4280 O   0  0  0  0  0  1  0  0  0  0  0  0
  186.4900  178.9580  142.0630 C   0  0  0  0  0  2  0  0  0  0  0  0
  185.1570  179.4460  141.5330 C   0  0  0  0  0  2  0  0  0  0  0  0
  184.0770  179.3420  142.5990 C   0  0  1  0  0  3  0  0  0  0  0  0
  183.5940  178.0320  142.6800 O   0  0  0  0  0  0  0  0  0  0  0  0
  182.2460  178.1670  143.0290 C   0  0  0  0  0  2  0  0  0  0  0  0
  181.4810  178.6850  140.6370 N   0  0  0  0  0  0  0  0  0  0  0  0
  181.0090  180.1040  142.4550 O   0  0  0  0  0  0  0  0  0  0  0  0
  181.5370  179.0390  142.0380 C   0  0  0  0  0  0  0  0  0  0  0  0
  180.9980  181.4380  137.9550 C   0  0  0  0  0  2  0  0  0  0  0  0
  178.9330  180.3740  138.3410 C   0  0  0  0  0  2  0  0  0  0  0  0
  179.8840  180.7580  137.3020 N   0  0  0  0  0  2  0  0  0  0  0  0
  180.8930  179.5520  139.6380 C   0  0  0  0  0  0  0  0  0  0  0  0
  179.5810  179.4780  139.3590 C   0  0  0  0  0  3  0  0  0  0  0  0
  181.7900  180.4370  138.7960 C   0  0  0  0  0  2  0  0  0  0  0  0
  182.6030  176.5180  139.8680 N   0  0  0  0  0  0  0  0  0  0  0  0
  182.0960  177.4990  140.2130 C   0  0  0  0  0  0  0  0  0  0  0  0
  184.6310  179.7570  143.9550 C   0  0  0  0  0  2  0  0  0  0  0  0
  185.7130  178.2890  145.6920 C   0  0  0  0  0  0  0  0  0  0  0  0
  185.6800  178.8400  144.3710 N   0  0  0  0  0  2  0  0  0  0  0  0
  184.9060  178.6880  146.5700 O   0  0  0  0  0  0  0  0  0  0  0  0
  188.1360  177.8920  145.7010 C   0  0  2  0  0  3  0  0  0  0  0  0
  189.1060  176.7530  145.4640 C   0  0  0  0  0  1  0  0  0  0  0  0
  187.6850  177.8790  147.1430 C   0  0  0  0  0  2  0  0  0  0  0  0
  186.7840  177.3120  146.0640 C   0  0  1  0  0  3  0  0  0  0  0  0
  1  3  1  1  0  0  0
  2  1  1  0  0  0  0
  2 31  1  1  0  0  0
  4  2  1  0  0  0  0
  4  3  1  1  0  0  0
  4  1  1  0  0  0  0
  5 16  1  1  0  0  0
  5  4  1  0  0  0  0
  6  9  1  6  0  0  0
  7 10  1  0  0  0  0
  8  5  1  0  0  0  0
  8  6  1  0  0  0  0
 10 19  1  6  0  0  0
 10  6  1  0  0  0  0
 11 17  1  0  0  0  0
 11 12  1  0  0  0  0
 12  7  1  0  0  0  0
 12  8  2  0  0  0  0
 13 15  2  0  0  0  0
 14 17  1  6  0  0  0
 14 16  1  0  0  0  0
 14  5  1  0  0  0  0
 15 20  1  0  0  0  0
 15  7  1  0  0  0  0
 19 18  2  0  0  0  0
 20 29  1  6  0  0  0
 21 20  1  0  0  0  0
 21 24  1  0  0  0  0
 22 21  1  0  0  0  0
 23 21  1  0  0  0  0
 24 25  1  0  0  0  0
 27 25  1  0  0  0  0
 27 26  1  0  0  0  0
 28 27  2  0  0  0  0
 29 30  1  0  0  0  0
 32 31  1  0  0  0  0
 33 32  1  6  0  0  0
 33 34  1  0  0  0  0
 33 47  1  0  0  0  0
 34 35  1  0  0  0  0
 36 38  1  0  0  0  0
 38 37  2  0  0  0  0
 38 35  1  0  0  0  0
 39 44  1  0  0  0  0
 40 43  1  0  0  0  0
 41 39  1  0  0  0  0
 41 40  1  0  0  0  0
 42 36  1  0  0  0  0
 43 42  2  0  0  0  0
 44 42  1  0  0  0  0
 45 46  3  0  0  0  0
 46 36  1  0  0  0  0
 47 49  1  0  0  0  0
 48 50  2  0  0  0  0
 49 48  1  0  0  0  0
 51 52  1  1  0  0  0
 51 54  1  0  0  0  0
 51 53  1  0  0  0  0
 54 48  1  6  0  0  0
 54 53  1  0  0  0  0
M  END
>  <MODEL>
9

>  <REMARK>
 VINA RESULT:      -5.6      1.590      5.969
  Name = 
  19 active torsions:
  status: ('A' for Active; 'I' for Inactive)
    1  A    between atoms: C_1  and  C_30
    2  A    between atoms: C_5  and  C_21
    3  A    between atoms: C_5  and  C_29
    4  A    between atoms: C_13  and  C_50
    5  A    between atoms: C_14  and  C_21
    6  A    between atoms: N_16  and  C_20
    7  A    between atoms: N_16  and  C_45
    8  A    between atoms: C_19  and  C_25
    9  A    between atoms: C_21  and  C_41
   10  A    between atoms: C_24  and  C_25
   11  A    between atoms: C_24  and  C_51
   12  A    between atoms: C_29  and  O_53
   13  A    between atoms: C_31  and  C_49
   14  A    between atoms: C_35  and  O_53
   15  A    between atoms: N_36  and  C_42
   16  A    between atoms: C_42  and  C_51
   17  A    between atoms: C_43  and  O_47
   18  A    between atoms: C_43  and  C_54
   19  A    between atoms: O_47  and  C_51
                            x       y       z     vdW  Elec       q    Type
                         _______ _______ _______ _____ _____    ______ ____

>  <TORSDO>
F 19

$$$$
