=
 OpenBabel11062416433D

 57 61  0  0  1  0  0  0  0  0999 V2000
  185.9260  178.8750  136.8940 F   0  0  0  0  0  0  0  0  0  0  0  0
  180.3800  180.3660  142.9560 C   0  0  0  0  0  2  0  0  0  0  0  0
  184.3550  179.3010  143.1020 C   0  0  1  0  0  3  0  0  0  0  0  0
  185.2960  178.6140  142.1220 C   0  0  0  0  0  2  0  0  0  0  0  0
  180.2940  179.3840  140.5650 C   0  0  0  0  0  0  0  0  0  0  0  0
  182.2890  174.2950  137.5800 O   0  0  0  0  0  1  0  0  0  0  0  0
  187.0740  178.7620  139.8330 O   0  0  0  0  0  0  0  0  0  0  0  0
  184.6860  175.5350  136.7980 C   0  0  0  0  0  2  0  0  0  0  0  0
  180.9870  177.9970  142.5590 O   0  0  0  0  0  0  0  0  0  0  0  0
  181.5040  176.5280  136.9080 C   0  0  2  0  0  0  0  0  0  0  0  0
  187.6010  177.4880  137.4860 F   0  0  0  0  0  0  0  0  0  0  0  0
  182.3460  175.6430  137.9650 C   0  0  2  0  0  0  0  0  0  0  0  0
  179.0950  179.5550  142.8240 C   0  0  2  0  0  3  0  0  0  0  0  0
  182.3690  179.4650  137.8580 C   0  0  0  0  0  1  0  0  0  0  0  0
  181.0470  178.5770  139.7060 O   0  0  0  0  0  0  0  0  0  0  0  0
  185.9140  178.3900  139.7370 C   0  0  0  0  0  0  0  0  0  0  0  0
  186.2280  177.5970  137.3420 C   0  0  0  0  0  0  0  0  0  0  0  0
  179.5930  180.3250  140.1010 O   0  0  0  0  0  0  0  0  0  0  0  0
  184.5210  178.0240  134.5940 C   0  0  0  0  0  2  0  0  0  0  0  0
  183.1770  178.4080  143.4620 C   0  0  0  0  0  2  0  0  0  0  0  0
  181.0760  178.8140  138.3080 C   0  0  2  0  0  3  0  0  0  0  0  0
  183.8810  175.9730  138.0560 C   0  0  2  0  0  3  0  0  0  0  0  0
  185.7730  176.5270  136.3310 C   0  0  2  0  0  3  0  0  0  0  0  0
  178.9310  178.7670  143.9680 O   0  0  0  0  0  1  0  0  0  0  0  0
  185.6180  176.9790  134.8610 C   0  0  0  0  0  2  0  0  0  0  0  0
  180.3460  179.1470  142.0560 C   0  0  1  0  0  0  0  0  0  0  0  0
  184.9010  178.9420  140.6880 C   0  0  0  0  0  2  0  0  0  0  0  0
  182.4080  177.1800  135.9470 C   0  0  0  0  0  0  0  0  0  0  0  0
  185.5410  177.3590  138.6950 C   0  0  2  0  0  3  0  0  0  0  0  0
  182.3430  178.1180  142.2320 C   0  0  0  0  0  2  0  0  0  0  0  0
  184.1500  177.2880  138.4900 O   0  0  0  0  0  0  0  0  0  0  0  0
  183.2870  177.6240  135.2580 C   0  0  0  0  0  0  0  0  0  0  0  0
  180.5630  177.6140  137.4980 C   0  0  0  0  0  2  0  0  0  0  0  0
  182.4210  176.0430  140.3480 O   0  0  0  0  0  1  0  0  0  0  0  0
  180.4530  175.1950  139.5640 O   0  0  0  0  0  0  0  0  0  0  0  0
  181.7380  175.6820  139.3520 C   0  0  0  0  0  0  0  0  0  0  0  0
  180.9070  175.2430  134.9570 O   0  0  0  0  0  0  0  0  0  0  0  0
  180.5660  175.6300  136.1110 C   0  0  0  0  0  0  0  0  0  0  0  0
  179.3280  175.2370  136.6390 O   0  0  0  0  0  0  0  0  0  0  0  0
  178.9930  173.8690  136.8380 C   0  0  0  0  0  2  0  0  0  0  0  0
  179.5350  173.1000  135.8080 O   0  0  0  0  0  0  0  0  0  0  0  0
  179.6570  171.8150  136.3440 C   0  0  0  0  0  2  0  0  0  0  0  0
  180.0070  171.9040  137.6930 O   0  0  0  0  0  1  0  0  0  0  0  0
  185.1040  179.6530  144.3750 C   0  0  0  0  0  2  0  0  0  0  0  0
  186.0210  178.6450  144.6910 O   0  0  0  0  0  0  0  0  0  0  0  0
  186.4250  178.9170  145.9990 C   0  0  1  0  0  3  0  0  0  0  0  0
  185.3100  179.1500  146.7990 O   0  0  0  0  0  1  0  0  0  0  0  0
  188.3830  177.2580  145.8760 N   0  0  0  0  0  2  0  0  0  0  0  0
  187.2250  177.7730  146.5460 C   0  0  0  0  0  0  0  0  0  0  0  0
  186.8730  177.2560  147.6410 O   0  0  0  0  0  0  0  0  0  0  0  0
  190.5300  176.1020  143.5560 C   0  0  0  0  0  2  0  0  0  0  0  0
  188.5600  176.9440  142.2410 C   0  0  0  0  0  1  0  0  0  0  0  0
  191.5230  177.2270  143.2120 C   0  0  0  0  0  2  0  0  0  0  0  0
  191.0250  178.6240  143.5960 C   0  0  0  0  0  2  0  0  0  0  0  0
  189.0740  176.5780  143.6230 C   0  0  2  0  0  3  0  0  0  0  0  0
  188.8800  177.7530  144.6010 C   0  0  2  0  0  3  0  0  0  0  0  0
  190.1540  178.5690  144.8450 C   0  0  0  0  0  2  0  0  0  0  0  0
  1 17  1  0  0  0  0
  3 20  1  0  0  0  0
  3 44  1  1  0  0  0
  4  3  1  0  0  0  0
  5 26  1  0  0  0  0
 10 38  1  6  0  0  0
 10 33  1  0  0  0  0
 10 12  1  0  0  0  0
 12  6  1  6  0  0  0
 12 22  1  0  0  0  0
 12 36  1  0  0  0  0
 13  2  1  0  0  0  0
 13 24  1  1  0  0  0
 15  5  1  0  0  0  0
 16  7  2  0  0  0  0
 16 27  1  0  0  0  0
 17 11  1  0  0  0  0
 17 29  1  0  0  0  0
 18  5  2  0  0  0  0
 19 25  1  0  0  0  0
 19 32  1  0  0  0  0
 21 14  1  6  0  0  0
 21 15  1  0  0  0  0
 22  8  1  6  0  0  0
 22 31  1  0  0  0  0
 23 25  1  6  0  0  0
 23  8  1  0  0  0  0
 23 17  1  0  0  0  0
 26  9  1  0  0  0  0
 26 13  1  0  0  0  0
 26  2  1  1  0  0  0
 27  4  1  0  0  0  0
 28 10  1  0  0  0  0
 29 31  1  6  0  0  0
 29 16  1  0  0  0  0
 30  9  1  0  0  0  0
 30 20  1  0  0  0  0
 32 28  3  0  0  0  0
 33 21  1  0  0  0  0
 36 35  2  0  0  0  0
 36 34  1  0  0  0  0
 37 38  2  0  0  0  0
 38 39  1  0  0  0  0
 39 40  1  0  0  0  0
 41 42  1  0  0  0  0
 41 40  1  0  0  0  0
 42 43  1  0  0  0  0
 44 45  1  0  0  0  0
 45 46  1  0  0  0  0
 46 49  1  0  0  0  0
 46 47  1  1  0  0  0
 48 49  1  0  0  0  0
 49 50  2  0  0  0  0
 51 55  1  0  0  0  0
 53 51  1  0  0  0  0
 53 54  1  0  0  0  0
 54 57  1  0  0  0  0
 55 52  1  6  0  0  0
 55 56  1  0  0  0  0
 56 57  1  0  0  0  0
 56 48  1  1  0  0  0
M  END
>  <MODEL>
1

>  <REMARK>
 VINA RESULT:      -6.7      0.000      0.000
  Name = 
  11 active torsions:
  status: ('A' for Active; 'I' for Inactive)
    1  A    between atoms: O_4  and  C_24
    2  A    between atoms: O_4  and  C_40
    3  A    between atoms: C_5  and  O_46
    4  A    between atoms: C_6  and  C_27
    5  A    between atoms: N_9  and  C_53
    6  A    between atoms: C_11  and  O_18
    7  A    between atoms: C_11  and  C_49
    8  A    between atoms: O_18  and  C_27
    9  A    between atoms: C_21  and  C_40
   10  A    between atoms: C_24  and  O_46
   11  A    between atoms: C_25  and  C_41
                            x       y       z     vdW  Elec       q    Type
                         _______ _______ _______ _____ _____    ______ ____

>  <TORSDO>
F 11

$$$$
=
 OpenBabel11062416433D

 57 61  0  0  1  0  0  0  0  0999 V2000
  181.4700  177.2440  143.0520 F   0  0  0  0  0  0  0  0  0  0  0  0
  187.8490  175.9570  137.8200 C   0  0  0  0  0  2  0  0  0  0  0  0
  187.6430  177.9210  141.4330 C   0  0  1  0  0  3  0  0  0  0  0  0
  186.5060  178.5600  142.2190 C   0  0  0  0  0  2  0  0  0  0  0  0
  185.2980  176.3080  137.5820 C   0  0  0  0  0  0  0  0  0  0  0  0
  181.1590  180.8830  138.4330 O   0  0  0  0  0  1  0  0  0  0  0  0
  184.2710  178.3020  144.0530 O   0  0  0  0  0  0  0  0  0  0  0  0
  180.6280  180.0880  141.0750 C   0  0  0  0  0  2  0  0  0  0  0  0
  186.8950  178.2420  137.8730 O   0  0  0  0  0  0  0  0  0  0  0  0
  181.0450  178.4360  138.2080 C   0  0  2  0  0  0  0  0  0  0  0  0
  181.6790  179.0820  144.3410 F   0  0  0  0  0  0  0  0  0  0  0  0
  181.8460  179.7140  138.7890 C   0  0  2  0  0  0  0  0  0  0  0  0
  187.5630  176.3930  136.3870 C   0  0  2  0  0  3  0  0  0  0  0  0
  182.6320  176.0840  139.7010 C   0  0  0  0  0  1  0  0  0  0  0  0
  184.2550  177.0450  138.1530 O   0  0  0  0  0  0  0  0  0  0  0  0
  184.1200  178.3610  142.8410 C   0  0  0  0  0  0  0  0  0  0  0  0
  181.5990  178.6260  143.0360 C   0  0  0  0  0  0  0  0  0  0  0  0
  185.0830  175.1480  137.1330 O   0  0  0  0  0  0  0  0  0  0  0  0
  179.0700  177.1860  141.5600 C   0  0  0  0  0  2  0  0  0  0  0  0
  187.8140  178.5740  140.0690 C   0  0  0  0  0  2  0  0  0  0  0  0
  182.9500  176.5030  138.2790 C   0  0  2  0  0  3  0  0  0  0  0  0
  181.9730  179.7790  140.3550 C   0  0  2  0  0  3  0  0  0  0  0  0
  180.3780  179.2960  142.3760 C   0  0  2  0  0  3  0  0  0  0  0  0
  188.4950  177.3640  136.0090 O   0  0  0  0  0  1  0  0  0  0  0  0
  179.0580  178.4910  142.3750 C   0  0  0  0  0  2  0  0  0  0  0  0
  186.6900  176.8900  137.5320 C   0  0  1  0  0  0  0  0  0  0  0  0
  185.1990  177.8250  141.9550 C   0  0  0  0  0  2  0  0  0  0  0  0
  180.2410  177.8070  139.2670 C   0  0  0  0  0  0  0  0  0  0  0  0
  182.8750  179.0060  142.2710 C   0  0  2  0  0  3  0  0  0  0  0  0
  186.5710  178.3680  139.2290 C   0  0  0  0  0  2  0  0  0  0  0  0
  182.6950  178.7020  140.9090 O   0  0  0  0  0  0  0  0  0  0  0  0
  179.6530  177.4320  140.2460 C   0  0  0  0  0  0  0  0  0  0  0  0
  181.8960  177.3280  137.5270 C   0  0  0  0  0  2  0  0  0  0  0  0
  183.4330  179.4830  136.9810 O   0  0  0  0  0  0  0  0  0  0  0  0
  184.2930  180.2880  138.9340 O   0  0  0  0  0  1  0  0  0  0  0  0
  183.2190  179.8580  138.1640 C   0  0  0  0  0  0  0  0  0  0  0  0
  178.9310  179.2880  137.4250 O   0  0  0  0  0  0  0  0  0  0  0  0
  180.0860  178.8800  137.1120 C   0  0  0  0  0  0  0  0  0  0  0  0
  180.4640  178.8330  135.7630 O   0  0  0  0  0  0  0  0  0  0  0  0
  180.3440  179.9620  134.9070 C   0  0  0  0  0  2  0  0  0  0  0  0
  180.6100  181.1270  135.6270 O   0  0  0  0  0  0  0  0  0  0  0  0
  180.4800  182.1630  134.6980 C   0  0  0  0  0  2  0  0  0  0  0  0
  180.8890  183.3640  135.2800 O   0  0  0  0  0  1  0  0  0  0  0  0
  188.9440  178.0580  142.2040 C   0  0  0  0  0  2  0  0  0  0  0  0
  189.3690  176.8060  142.6620 O   0  0  0  0  0  0  0  0  0  0  0  0
  190.6410  177.0250  143.1930 C   0  0  1  0  0  3  0  0  0  0  0  0
  191.5850  177.0310  142.1700 O   0  0  0  0  0  1  0  0  0  0  0  0
  189.9770  178.5180  145.1750 N   0  0  0  0  0  2  0  0  0  0  0  0
  190.6770  178.3250  143.9400 C   0  0  0  0  0  0  0  0  0  0  0  0
  191.3580  179.2760  143.4690 O   0  0  0  0  0  0  0  0  0  0  0  0
  187.3240  178.5950  147.2460 C   0  0  0  0  0  2  0  0  0  0  0  0
  186.7250  176.8870  145.5020 C   0  0  0  0  0  1  0  0  0  0  0  0
  187.5950  177.6320  148.4160 C   0  0  0  0  0  2  0  0  0  0  0  0
  188.6780  176.5910  148.1150 C   0  0  0  0  0  2  0  0  0  0  0  0
  187.6840  178.0030  145.8780 C   0  0  2  0  0  3  0  0  0  0  0  0
  189.1420  177.5100  145.8110 C   0  0  2  0  0  3  0  0  0  0  0  0
  189.7380  177.1600  147.1790 C   0  0  0  0  0  2  0  0  0  0  0  0
  3 44  1  1  0  0  0
  3  4  1  0  0  0  0
  5 15  1  0  0  0  0
  9 30  1  0  0  0  0
 10 38  1  6  0  0  0
 10 12  1  0  0  0  0
 10 28  1  0  0  0  0
 12  6  1  6  0  0  0
 12 22  1  0  0  0  0
 13 24  1  1  0  0  0
 13 26  1  0  0  0  0
 13  2  1  0  0  0  0
 15 21  1  0  0  0  0
 16  7  2  0  0  0  0
 17  1  1  0  0  0  0
 17 11  1  0  0  0  0
 18  5  2  0  0  0  0
 19 25  1  0  0  0  0
 20  3  1  0  0  0  0
 21 14  1  1  0  0  0
 22 31  1  0  0  0  0
 22  8  1  1  0  0  0
 23  8  1  6  0  0  0
 23 17  1  0  0  0  0
 25 23  1  0  0  0  0
 26  5  1  0  0  0  0
 26  2  1  1  0  0  0
 26  9  1  0  0  0  0
 27  4  1  0  0  0  0
 27 16  1  0  0  0  0
 28 32  3  0  0  0  0
 29 31  1  6  0  0  0
 29 16  1  0  0  0  0
 29 17  1  0  0  0  0
 30 20  1  0  0  0  0
 32 19  1  0  0  0  0
 33 10  1  0  0  0  0
 33 21  1  0  0  0  0
 34 36  2  0  0  0  0
 36 12  1  0  0  0  0
 36 35  1  0  0  0  0
 38 37  2  0  0  0  0
 39 38  1  0  0  0  0
 40 41  1  0  0  0  0
 40 39  1  0  0  0  0
 42 43  1  0  0  0  0
 42 41  1  0  0  0  0
 44 45  1  0  0  0  0
 45 46  1  0  0  0  0
 46 47  1  6  0  0  0
 46 49  1  0  0  0  0
 49 48  1  0  0  0  0
 50 49  2  0  0  0  0
 51 53  1  0  0  0  0
 54 53  1  0  0  0  0
 55 52  1  1  0  0  0
 55 51  1  0  0  0  0
 56 48  1  1  0  0  0
 56 55  1  0  0  0  0
 56 57  1  0  0  0  0
 57 54  1  0  0  0  0
M  END
>  <MODEL>
2

>  <REMARK>
 VINA RESULT:      -5.6      2.905      6.342
  Name = 
  11 active torsions:
  status: ('A' for Active; 'I' for Inactive)
    1  A    between atoms: O_4  and  C_24
    2  A    between atoms: O_4  and  C_40
    3  A    between atoms: C_5  and  O_46
    4  A    between atoms: C_6  and  C_27
    5  A    between atoms: N_9  and  C_53
    6  A    between atoms: C_11  and  O_18
    7  A    between atoms: C_11  and  C_49
    8  A    between atoms: O_18  and  C_27
    9  A    between atoms: C_21  and  C_40
   10  A    between atoms: C_24  and  O_46
   11  A    between atoms: C_25  and  C_41
                            x       y       z     vdW  Elec       q    Type
                         _______ _______ _______ _____ _____    ______ ____

>  <TORSDO>
F 11

$$$$
=
 OpenBabel11062416433D

 57 61  0  0  1  0  0  0  0  0999 V2000
  181.6680  177.5090  142.8050 F   0  0  0  0  0  0  0  0  0  0  0  0
  187.7240  175.1810  137.5480 C   0  0  0  0  0  2  0  0  0  0  0  0
  187.7150  177.8520  140.6810 C   0  0  1  0  0  3  0  0  0  0  0  0
  186.6190  178.6370  141.3900 C   0  0  0  0  0  2  0  0  0  0  0  0
  185.1570  175.4680  137.4090 C   0  0  0  0  0  0  0  0  0  0  0  0
  181.0060  180.1080  137.5630 O   0  0  0  0  0  1  0  0  0  0  0  0
  184.5100  178.7590  143.3800 O   0  0  0  0  0  0  0  0  0  0  0  0
  180.6560  179.8780  140.3410 C   0  0  0  0  0  2  0  0  0  0  0  0
  186.7370  177.4250  137.1890 O   0  0  0  0  0  0  0  0  0  0  0  0
  180.9190  177.6680  137.8580 C   0  0  2  0  0  0  0  0  0  0  0  0
  181.9290  179.5750  143.6690 F   0  0  0  0  0  0  0  0  0  0  0  0
  181.7340  179.0400  138.1080 C   0  0  2  0  0  0  0  0  0  0  0  0
  187.3410  175.3090  136.0770 C   0  0  2  0  0  3  0  0  0  0  0  0
  182.6350  175.6810  139.6980 C   0  0  0  0  0  1  0  0  0  0  0  0
  184.1410  176.3040  137.8830 O   0  0  0  0  0  0  0  0  0  0  0  0
  184.2810  178.5650  142.1940 C   0  0  0  0  0  0  0  0  0  0  0  0
  181.7740  178.8570  142.4940 C   0  0  0  0  0  0  0  0  0  0  0  0
  184.9330  174.2390  137.2260 O   0  0  0  0  0  0  0  0  0  0  0  0
  179.1800  177.1360  141.5170 C   0  0  0  0  0  2  0  0  0  0  0  0
  187.7880  178.2080  139.2040 C   0  0  0  0  0  2  0  0  0  0  0  0
  182.8550  175.7970  138.2020 C   0  0  2  0  0  3  0  0  0  0  0  0
  181.9580  179.4300  139.6150 C   0  0  2  0  0  3  0  0  0  0  0  0
  180.5030  179.3730  141.7920 C   0  0  2  0  0  3  0  0  0  0  0  0
  188.2310  176.1830  135.4460 O   0  0  0  0  0  1  0  0  0  0  0  0
  179.1990  178.5810  142.0440 C   0  0  0  0  0  2  0  0  0  0  0  0
  186.5340  176.0310  137.1490 C   0  0  1  0  0  0  0  0  0  0  0  0
  185.3100  177.8600  141.3700 C   0  0  0  0  0  2  0  0  0  0  0  0
  180.1930  177.2700  139.0750 C   0  0  0  0  0  0  0  0  0  0  0  0
  182.9930  179.0740  141.5860 C   0  0  2  0  0  3  0  0  0  0  0  0
  186.4990  177.8280  138.5070 C   0  0  0  0  0  2  0  0  0  0  0  0
  182.7320  178.4930  140.3310 O   0  0  0  0  0  0  0  0  0  0  0  0
  179.6750  177.1050  140.1460 C   0  0  0  0  0  0  0  0  0  0  0  0
  181.7430  176.4450  137.3670 C   0  0  0  0  0  2  0  0  0  0  0  0
  183.1820  178.5190  136.2450 O   0  0  0  0  0  0  0  0  0  0  0  0
  184.1980  179.5490  138.0090 O   0  0  0  0  0  1  0  0  0  0  0  0
  183.0620  179.0550  137.3790 C   0  0  0  0  0  0  0  0  0  0  0  0
  178.9310  178.6800  136.9460 O   0  0  0  0  0  0  0  0  0  0  0  0
  179.8840  177.8720  136.7590 C   0  0  0  0  0  0  0  0  0  0  0  0
  179.9730  177.1690  135.5490 O   0  0  0  0  0  0  0  0  0  0  0  0
  178.9490  176.2800  135.1170 C   0  0  0  0  0  2  0  0  0  0  0  0
  178.9310  175.1520  135.9370 O   0  0  0  0  0  0  0  0  0  0  0  0
  179.2360  174.0850  135.0890 C   0  0  0  0  0  2  0  0  0  0  0  0
  180.5910  174.1280  134.7550 O   0  0  0  0  0  1  0  0  0  0  0  0
  189.0600  178.1500  141.3210 C   0  0  0  0  0  2  0  0  0  0  0  0
  189.1550  177.5150  142.5630 O   0  0  0  0  0  0  0  0  0  0  0  0
  190.4980  177.6250  142.9260 C   0  0  1  0  0  3  0  0  0  0  0  0
  191.2720  177.8860  141.7980 O   0  0  0  0  0  1  0  0  0  0  0  0
  190.0590  178.6650  145.2330 N   0  0  0  0  0  2  0  0  0  0  0  0
  190.6770  178.7140  143.9410 C   0  0  0  0  0  0  0  0  0  0  0  0
  191.4080  179.6990  143.6510 O   0  0  0  0  0  0  0  0  0  0  0  0
  187.3580  178.4970  147.2350 C   0  0  0  0  0  2  0  0  0  0  0  0
  186.7540  177.1090  145.2280 C   0  0  0  0  0  1  0  0  0  0  0  0
  187.5720  177.3510  148.2400 C   0  0  0  0  0  2  0  0  0  0  0  0
  188.6310  176.3370  147.7990 C   0  0  0  0  0  2  0  0  0  0  0  0
  187.7350  178.1200  145.7970 C   0  0  2  0  0  3  0  0  0  0  0  0
  189.1790  177.5960  145.6820 C   0  0  2  0  0  3  0  0  0  0  0  0
  189.7300  177.0120  146.9870 C   0  0  0  0  0  2  0  0  0  0  0  0
  3 44  1  1  0  0  0
  3  4  1  0  0  0  0
  5 15  1  0  0  0  0
  9 30  1  0  0  0  0
 10 38  1  6  0  0  0
 10 12  1  0  0  0  0
 10 28  1  0  0  0  0
 12  6  1  6  0  0  0
 12 22  1  0  0  0  0
 13 24  1  6  0  0  0
 13 26  1  0  0  0  0
 13  2  1  0  0  0  0
 15 21  1  0  0  0  0
 16  7  2  0  0  0  0
 17  1  1  0  0  0  0
 17 11  1  0  0  0  0
 18  5  2  0  0  0  0
 19 25  1  0  0  0  0
 20  3  1  0  0  0  0
 21 14  1  1  0  0  0
 22 31  1  0  0  0  0
 22  8  1  1  0  0  0
 23  8  1  6  0  0  0
 23 25  1  0  0  0  0
 23 17  1  0  0  0  0
 26  9  1  0  0  0  0
 26  5  1  0  0  0  0
 26  2  1  1  0  0  0
 27  4  1  0  0  0  0
 27 16  1  0  0  0  0
 28 32  3  0  0  0  0
 29 31  1  6  0  0  0
 29 16  1  0  0  0  0
 29 17  1  0  0  0  0
 30 20  1  0  0  0  0
 32 19  1  0  0  0  0
 33 10  1  0  0  0  0
 33 21  1  0  0  0  0
 34 36  2  0  0  0  0
 36 35  1  0  0  0  0
 36 12  1  0  0  0  0
 38 37  2  0  0  0  0
 39 38  1  0  0  0  0
 40 39  1  0  0  0  0
 40 41  1  0  0  0  0
 42 41  1  0  0  0  0
 43 42  1  0  0  0  0
 44 45  1  0  0  0  0
 45 46  1  0  0  0  0
 46 47  1  6  0  0  0
 46 49  1  0  0  0  0
 49 48  1  0  0  0  0
 50 49  2  0  0  0  0
 51 53  1  0  0  0  0
 54 53  1  0  0  0  0
 55 52  1  1  0  0  0
 55 51  1  0  0  0  0
 56 48  1  1  0  0  0
 56 55  1  0  0  0  0
 56 57  1  0  0  0  0
 57 54  1  0  0  0  0
M  END
>  <MODEL>
3

>  <REMARK>
 VINA RESULT:      -5.2      2.530      5.796
  Name = 
  11 active torsions:
  status: ('A' for Active; 'I' for Inactive)
    1  A    between atoms: O_4  and  C_24
    2  A    between atoms: O_4  and  C_40
    3  A    between atoms: C_5  and  O_46
    4  A    between atoms: C_6  and  C_27
    5  A    between atoms: N_9  and  C_53
    6  A    between atoms: C_11  and  O_18
    7  A    between atoms: C_11  and  C_49
    8  A    between atoms: O_18  and  C_27
    9  A    between atoms: C_21  and  C_40
   10  A    between atoms: C_24  and  O_46
   11  A    between atoms: C_25  and  C_41
                            x       y       z     vdW  Elec       q    Type
                         _______ _______ _______ _____ _____    ______ ____

>  <TORSDO>
F 11

$$$$
