=
 OpenBabel11062418123D

 70 78  0  0  1  0  0  0  0  0999 V2000
  184.6360  178.3700  140.9180 C   0  0  1  0  0  3  0  0  0  0  0  0
  179.3410  179.3310  140.7670 C   0  0  1  0  0  3  0  0  0  0  0  0
  181.4140  180.2530  142.7230 O   0  0  0  0  0  0  0  0  0  0  0  0
  178.9510  179.1680  138.4720 F   0  0  0  0  0  0  0  0  0  0  0  0
  179.8520  178.5890  142.0140 C   0  0  0  0  0  2  0  0  0  0  0  0
  180.3000  179.5060  143.1500 C   0  0  0  0  0  2  0  0  0  0  0  0
  179.1270  177.2450  139.6000 O   0  0  0  0  0  1  0  0  0  0  0  0
  183.6770  179.1360  139.0800 C   0  0  2  0  0  3  0  0  0  0  0  0
  179.8350  180.6210  140.6570 F   0  0  0  0  0  0  0  0  0  0  0  0
  183.0120  178.4540  142.6660 C   0  0  2  0  0  3  0  0  0  0  0  0
  184.1960  179.5520  140.2980 O   0  0  0  0  0  0  0  0  0  0  0  0
  182.6780  178.5530  144.1490 C   0  0  0  0  0  2  0  0  0  0  0  0
  184.4450  178.4790  142.3670 N   0  0  0  0  0  0  0  0  0  0  0  0
  181.5120  176.8630  140.6090 F   0  0  0  0  0  0  0  0  0  0  0  0
  183.9910  177.2290  140.3910 O   0  0  0  0  0  0  0  0  0  0  0  0
  181.7800  177.3780  139.3490 C   0  0  1  0  0  0  0  0  0  0  0  0
  179.6400  178.5390  139.4860 C   0  0  2  0  0  0  0  0  0  0  0  0
  181.0360  178.5940  139.1620 O   0  0  0  0  0  0  0  0  0  0  0  0
  182.6520  179.8030  143.2660 C   0  0  2  0  0  3  0  0  0  0  0  0
  183.3120  177.6740  139.2500 C   0  0  1  0  0  3  0  0  0  0  0  0
  180.6500  179.0710  135.9950 C   0  0  0  0  0  2  0  0  0  0  0  0
  182.2100  177.1810  136.0610 C   0  0  2  0  0  3  0  0  0  0  0  0
  183.0400  173.7060  138.1590 O   0  0  0  0  0  1  0  0  0  0  0  0
  180.0390  178.0060  136.8940 C   0  0  0  0  0  2  0  0  0  0  0  0
  180.6360  173.4030  137.8180 C   0  0  0  0  0  2  0  0  0  0  0  0
  182.1650  173.9290  135.8820 C   0  0  2  0  0  3  0  0  0  0  0  0
  181.8650  178.4570  135.3260 C   0  0  0  0  0  2  0  0  0  0  0  0
  182.0480  173.2970  137.2620 C   0  0  1  0  0  0  0  0  0  0  0  0
  180.9220  174.4610  140.4320 O   0  0  0  0  0  1  0  0  0  0  0  0
  181.3770  176.3150  138.2820 C   0  0  2  0  0  3  0  0  0  0  0  0
  178.9380  175.2370  138.9070 O   0  0  0  0  0  0  0  0  0  0  0  0
  182.5680  176.1950  135.1310 O   0  0  0  0  0  0  0  0  0  0  0  0
  182.7010  172.6260  135.3210 C   0  0  0  0  0  2  0  0  0  0  0  0
  183.1100  175.1280  135.8620 C   0  0  2  0  0  3  0  0  0  0  0  0
  180.9710  176.8080  136.8760 C   0  0  2  0  0  3  0  0  0  0  0  0
  180.4050  174.8770  138.8720 P   0  0  1  0  0  0  0  0  0  0  0  0
  182.4260  171.9590  136.6650 C   0  0  0  0  0  2  0  0  0  0  0  0
  184.5950  174.8290  135.5630 C   0  0  0  0  0  2  0  0  0  0  0  0
  185.3560  174.5480  136.7890 N   0  0  0  0  0  2  0  0  0  0  0  0
  186.7810  174.5260  136.7970 C   0  0  0  0  0  0  0  0  0  0  0  0
  187.4030  175.3720  137.4930 O   0  0  0  0  0  0  0  0  0  0  0  0
  187.5300  173.4900  136.0680 C   0  0  0  0  0  0  0  0  0  0  0  0
  189.6020  172.7060  134.9230 C   0  0  2  0  0  3  0  0  0  0  0  0
  186.7990  172.2540  135.6060 C   0  0  0  0  0  2  0  0  0  0  0  0
  188.8190  173.6910  135.7510 C   0  0  0  0  0  3  0  0  0  0  0  0
  187.7380  171.1040  135.3880 C   0  0  0  0  0  0  0  0  0  0  0  0
  187.2820  169.9290  135.3840 O   0  0  0  0  0  0  0  0  0  0  0  0
  189.1190  171.3330  135.0930 N   0  0  0  0  0  0  0  0  0  0  0  0
  189.8870  170.2920  134.6910 O   0  0  0  0  0  1  0  0  0  0  0  0
  191.0690  172.7940  135.2920 C   0  0  0  0  0  1  0  0  0  0  0  0
  184.6890  179.3280  137.9420 C   0  0  2  0  0  3  0  0  0  0  0  0
  184.7770  178.0960  137.0570 C   0  0  0  0  0  1  0  0  0  0  0  0
  185.9430  179.6040  138.4680 O   0  0  0  0  0  0  0  0  0  0  0  0
  186.7790  178.5940  137.9670 C   0  0  0  0  0  1  0  0  0  0  0  0
  185.1480  177.3820  143.0320 C   0  0  0  0  0  2  0  0  0  0  0  0
  186.4010  177.9200  143.7210 C   0  0  0  0  0  2  0  0  0  0  0  0
  187.6190  177.0930  143.3230 C   0  0  0  0  0  2  0  0  0  0  0  0
  188.7420  177.9560  142.9730 N   0  0  0  0  0  0  0  0  0  0  0  0
  189.7880  178.2120  143.9210 C   0  0  0  0  0  0  0  0  0  0  0  0
  190.8570  178.7720  143.5350 O   0  0  0  0  0  0  0  0  0  0  0  0
  188.9260  178.3190  141.5740 C   0  0  0  0  0  2  0  0  0  0  0  0
  190.3750  176.5420  140.9460 O   0  0  0  0  0  0  0  0  0  0  0  0
  189.0870  177.0650  140.7230 C   0  0  2  0  0  3  0  0  0  0  0  0
  190.1880  177.2750  139.7590 C   0  0  2  0  0  3  0  0  0  0  0  0
  190.0360  176.3250  138.5870 C   0  0  0  0  0  3  0  0  0  0  0  0
  191.3780  175.6680  138.2830 C   0  0  0  0  0  2  0  0  0  0  0  0
  190.8950  176.8220  137.4400 C   0  0  0  0  0  2  0  0  0  0  0  0
  189.6270  177.8420  145.2660 O   0  0  0  0  0  0  0  0  0  0  0  0
  190.6220  177.1190  145.9800 C   0  0  0  0  0  2  0  0  0  0  0  0
  190.2100  176.9360  147.4280 C   0  0  0  0  0  1  0  0  0  0  0  0
  1 11  1  6  0  0  0
  1 13  1  0  0  0  0
  2  9  1  6  0  0  0
  2  5  1  0  0  0  0
  3  6  1  0  0  0  0
  3 19  1  0  0  0  0
  5  6  1  0  0  0  0
  8 51  1  6  0  0  0
  8 20  1  0  0  0  0
  8 11  1  0  0  0  0
 10 19  1  0  0  0  0
 10 12  1  1  0  0  0
 13 10  1  0  0  0  0
 13 55  1  0  0  0  0
 15  1  1  0  0  0  0
 16 14  1  1  0  0  0
 17  4  1  6  0  0  0
 17  7  1  0  0  0  0
 17  2  1  0  0  0  0
 18 16  1  0  0  0  0
 18 17  1  0  0  0  0
 19 12  1  1  0  0  0
 20 16  1  0  0  0  0
 20 15  1  1  0  0  0
 21 24  1  0  0  0  0
 22 27  1  6  0  0  0
 22 35  1  0  0  0  0
 25 36  1  0  0  0  0
 26 33  1  6  0  0  0
 26 28  1  0  0  0  0
 27 21  1  0  0  0  0
 28 25  1  0  0  0  0
 28 23  1  1  0  0  0
 30 36  1  0  0  0  0
 30 16  1  1  0  0  0
 32 34  1  0  0  0  0
 32 22  1  0  0  0  0
 33 37  1  0  0  0  0
 34 38  1  6  0  0  0
 34 26  1  0  0  0  0
 35 24  1  1  0  0  0
 35 30  1  0  0  0  0
 36 31  2  1  0  0  0
 36 29  1  0  0  0  0
 37 28  1  0  0  0  0
 38 39  1  0  0  0  0
 39 40  1  0  0  0  0
 40 41  2  0  0  0  0
 42 40  1  0  0  0  0
 43 48  1  0  0  0  0
 43 50  1  1  0  0  0
 43 45  1  0  0  0  0
 44 42  1  0  0  0  0
 45 42  2  0  0  0  0
 46 44  1  0  0  0  0
 47 46  2  0  0  0  0
 48 46  1  0  0  0  0
 49 48  1  0  0  0  0
 51 52  1  1  0  0  0
 51 53  1  0  0  0  0
 54 53  1  0  0  0  0
 55 56  1  0  0  0  0
 57 56  1  0  0  0  0
 58 57  1  0  0  0  0
 58 59  1  0  0  0  0
 59 68  1  0  0  0  0
 60 59  2  0  0  0  0
 61 58  1  0  0  0  0
 63 62  1  0  0  0  0
 63 61  1  1  0  0  0
 64 65  1  6  0  0  0
 64 63  1  0  0  0  0
 64 62  1  0  0  0  0
 66 65  1  0  0  0  0
 67 66  1  0  0  0  0
 67 65  1  0  0  0  0
 68 69  1  0  0  0  0
 69 70  1  0  0  0  0
M  END
>  <MODEL>
1

>  <REMARK>
 VINA RESULT:      -5.1      0.000      0.000
  Name = 
  15 active torsions:
  status: ('A' for Active; 'I' for Inactive)
    1  A    between atoms: C_3  and  C_58
    2  A    between atoms: C_3  and  N_59
    3  A    between atoms: C_7  and  N_20
    4  A    between atoms: C_7  and  C_28
    5  A    between atoms: C_8  and  C_65
    6  A    between atoms: C_13  and  C_16
    7  A    between atoms: C_13  and  C_29
    8  A    between atoms: O_14  and  C_26
    9  A    between atoms: O_14  and  C_38
   10  A    between atoms: C_16  and  N_20
   11  A    between atoms: C_19  and  C_23
   12  A    between atoms: C_23  and  O_53
   13  A    between atoms: C_29  and  N_30
   14  A    between atoms: C_31  and  C_36
   15  A    between atoms: C_49  and  C_50
                            x       y       z     vdW  Elec       q    Type
                         _______ _______ _______ _____ _____    ______ ____

>  <TORSDO>
F 15

$$$$
=
 OpenBabel11062418123D

 70 78  0  0  1  0  0  0  0  0999 V2000
  185.1310  178.6820  140.8480 C   0  0  1  0  0  3  0  0  0  0  0  0
  180.1220  179.1590  142.7640 C   0  0  1  0  0  3  0  0  0  0  0  0
  182.7430  179.8980  144.0110 O   0  0  0  0  0  0  0  0  0  0  0  0
  178.9310  179.3820  140.7690 F   0  0  0  0  0  0  0  0  0  0  0  0
  181.0650  178.2530  143.5740 C   0  0  0  0  0  2  0  0  0  0  0  0
  181.8760  178.9850  144.6410 C   0  0  0  0  0  2  0  0  0  0  0  0
  179.5430  177.3090  141.3490 O   0  0  0  0  0  1  0  0  0  0  0  0
  183.5550  179.6770  139.6610 C   0  0  2  0  0  3  0  0  0  0  0  0
  180.5150  180.4880  142.7520 F   0  0  0  0  0  0  0  0  0  0  0  0
  184.2490  178.2950  143.0330 C   0  0  2  0  0  3  0  0  0  0  0  0
  184.4720  179.9110  140.6760 O   0  0  0  0  0  0  0  0  0  0  0  0
  184.4730  178.0910  144.5260 C   0  0  0  0  0  2  0  0  0  0  0  0
  185.4750  178.5070  142.2620 N   0  0  0  0  0  0  0  0  0  0  0  0
  182.1390  176.9730  141.3560 F   0  0  0  0  0  0  0  0  0  0  0  0
  184.3630  177.6010  140.3610 O   0  0  0  0  0  0  0  0  0  0  0  0
  181.9220  177.7320  140.2150 C   0  0  1  0  0  0  0  0  0  0  0  0
  179.9530  178.6440  141.3270 C   0  0  2  0  0  0  0  0  0  0  0  0
  181.1350  178.8870  140.5530 O   0  0  0  0  0  0  0  0  0  0  0  0
  184.1030  179.4730  143.9820 C   0  0  2  0  0  3  0  0  0  0  0  0
  183.3070  178.1810  139.6470 C   0  0  1  0  0  3  0  0  0  0  0  0
  180.0190  179.9280  137.5780 C   0  0  0  0  0  2  0  0  0  0  0  0
  181.4260  178.0230  136.9430 C   0  0  2  0  0  3  0  0  0  0  0  0
  182.5930  174.2580  138.2210 O   0  0  0  0  0  1  0  0  0  0  0  0
  179.6160  178.7510  138.4540 C   0  0  0  0  0  2  0  0  0  0  0  0
  180.1740  174.0520  138.5240 C   0  0  0  0  0  2  0  0  0  0  0  0
  181.1440  174.8360  136.3320 C   0  0  2  0  0  3  0  0  0  0  0  0
  180.9670  179.4010  136.5190 C   0  0  0  0  0  2  0  0  0  0  0  0
  181.3720  174.0060  137.5870 C   0  0  1  0  0  0  0  0  0  0  0  0
  181.2240  174.7000  141.0760 O   0  0  0  0  0  1  0  0  0  0  0  0
  181.1810  176.8480  139.1650 C   0  0  2  0  0  3  0  0  0  0  0  0
  178.9470  175.7310  140.2880 O   0  0  0  0  0  0  0  0  0  0  0  0
  181.4580  177.1820  135.8220 O   0  0  0  0  0  0  0  0  0  0  0  0
  181.4300  173.6230  135.4680 C   0  0  0  0  0  2  0  0  0  0  0  0
  182.1160  176.0090  136.2170 C   0  0  2  0  0  3  0  0  0  0  0  0
  180.4360  177.5540  138.0110 C   0  0  2  0  0  3  0  0  0  0  0  0
  180.3260  175.3540  139.7960 P   0  0  1  0  0  0  0  0  0  0  0  0
  181.4940  172.7670  136.7290 C   0  0  0  0  0  2  0  0  0  0  0  0
  183.4430  175.7320  135.4780 C   0  0  0  0  0  2  0  0  0  0  0  0
  184.5970  176.2990  136.1900 N   0  0  0  0  0  2  0  0  0  0  0  0
  185.9130  176.2480  135.6450 C   0  0  0  0  0  0  0  0  0  0  0  0
  186.5010  177.3250  135.3630 O   0  0  0  0  0  0  0  0  0  0  0  0
  186.6170  174.9670  135.4760 C   0  0  0  0  0  0  0  0  0  0  0  0
  188.6780  173.5770  135.6730 C   0  0  2  0  0  3  0  0  0  0  0  0
  185.9290  173.8510  134.7290 C   0  0  0  0  0  2  0  0  0  0  0  0
  187.8820  174.8340  135.9080 C   0  0  0  0  0  3  0  0  0  0  0  0
  186.4920  172.5090  135.0960 C   0  0  0  0  0  0  0  0  0  0  0  0
  185.8050  171.4740  134.8800 O   0  0  0  0  0  0  0  0  0  0  0  0
  187.8260  172.3870  135.5950 N   0  0  0  0  0  0  0  0  0  0  0  0
  188.3760  171.1540  135.7110 O   0  0  0  0  0  1  0  0  0  0  0  0
  189.7010  173.4160  136.7810 C   0  0  0  0  0  1  0  0  0  0  0  0
  184.0820  180.1660  138.3040 C   0  0  2  0  0  3  0  0  0  0  0  0
  185.4640  179.6080  138.0070 C   0  0  0  0  0  1  0  0  0  0  0  0
  184.1350  181.5520  138.2900 O   0  0  0  0  0  0  0  0  0  0  0  0
  182.8200  181.9700  138.5510 C   0  0  0  0  0  1  0  0  0  0  0  0
  186.3940  177.3770  142.4000 C   0  0  0  0  0  2  0  0  0  0  0  0
  187.6340  177.6170  141.5400 C   0  0  0  0  0  2  0  0  0  0  0  0
  188.5420  178.6500  142.1980 C   0  0  0  0  0  2  0  0  0  0  0  0
  189.6890  178.0060  142.8290 N   0  0  0  0  0  0  0  0  0  0  0  0
  190.5390  177.1290  142.0750 C   0  0  0  0  0  0  0  0  0  0  0  0
  191.6470  176.7600  142.5660 O   0  0  0  0  0  0  0  0  0  0  0  0
  190.1160  178.4800  144.1390 C   0  0  0  0  0  2  0  0  0  0  0  0
  188.5490  176.9090  144.9920 O   0  0  0  0  0  0  0  0  0  0  0  0
  189.8470  177.4140  145.1950 C   0  0  2  0  0  3  0  0  0  0  0  0
  188.7070  177.8440  146.0330 C   0  0  2  0  0  3  0  0  0  0  0  0
  188.7480  177.1250  147.3680 C   0  0  0  0  0  3  0  0  0  0  0  0
  187.7370  177.7570  148.3200 C   0  0  0  0  0  2  0  0  0  0  0  0
  189.2010  178.1030  148.4360 C   0  0  0  0  0  2  0  0  0  0  0  0
  190.1460  176.6880  140.8010 O   0  0  0  0  0  0  0  0  0  0  0  0
  190.6650  177.2560  139.6060 C   0  0  0  0  0  2  0  0  0  0  0  0
  189.9570  176.6840  138.3930 C   0  0  0  0  0  1  0  0  0  0  0  0
  1 15  1  1  0  0  0
  1 13  1  0  0  0  0
  2  9  1  6  0  0  0
  2  5  1  0  0  0  0
  3  6  1  0  0  0  0
  5  6  1  0  0  0  0
  8 51  1  6  0  0  0
  8 11  1  0  0  0  0
 10 19  1  0  0  0  0
 10 12  1  1  0  0  0
 11  1  1  0  0  0  0
 13 55  1  0  0  0  0
 13 10  1  0  0  0  0
 16 18  1  0  0  0  0
 16 14  1  1  0  0  0
 17  4  1  6  0  0  0
 17  7  1  0  0  0  0
 17  2  1  0  0  0  0
 18 17  1  0  0  0  0
 19  3  1  0  0  0  0
 19 12  1  1  0  0  0
 20  8  1  0  0  0  0
 20 16  1  0  0  0  0
 20 15  1  1  0  0  0
 21 24  1  0  0  0  0
 22 27  1  6  0  0  0
 22 35  1  0  0  0  0
 25 36  1  0  0  0  0
 26 33  1  6  0  0  0
 26 28  1  0  0  0  0
 27 21  1  0  0  0  0
 28 23  1  1  0  0  0
 28 25  1  0  0  0  0
 30 36  1  0  0  0  0
 30 16  1  1  0  0  0
 32 34  1  0  0  0  0
 32 22  1  0  0  0  0
 33 37  1  0  0  0  0
 34 38  1  6  0  0  0
 34 26  1  0  0  0  0
 35 24  1  1  0  0  0
 35 30  1  0  0  0  0
 36 31  2  1  0  0  0
 36 29  1  0  0  0  0
 37 28  1  0  0  0  0
 38 39  1  0  0  0  0
 40 39  1  0  0  0  0
 41 40  2  0  0  0  0
 42 40  1  0  0  0  0
 42 45  2  0  0  0  0
 43 45  1  0  0  0  0
 43 50  1  1  0  0  0
 44 46  1  0  0  0  0
 44 42  1  0  0  0  0
 46 48  1  0  0  0  0
 47 46  2  0  0  0  0
 48 43  1  0  0  0  0
 48 49  1  0  0  0  0
 51 52  1  1  0  0  0
 53 51  1  0  0  0  0
 53 54  1  0  0  0  0
 56 57  1  0  0  0  0
 56 55  1  0  0  0  0
 57 58  1  0  0  0  0
 58 61  1  0  0  0  0
 59 60  2  0  0  0  0
 59 58  1  0  0  0  0
 62 63  1  0  0  0  0
 62 64  1  0  0  0  0
 63 61  1  6  0  0  0
 63 64  1  0  0  0  0
 64 65  1  1  0  0  0
 65 66  1  0  0  0  0
 65 67  1  0  0  0  0
 66 67  1  0  0  0  0
 68 59  1  0  0  0  0
 69 68  1  0  0  0  0
 70 69  1  0  0  0  0
M  END
>  <MODEL>
2

>  <REMARK>
 VINA RESULT:      -4.3      1.452      3.285
  Name = 
  15 active torsions:
  status: ('A' for Active; 'I' for Inactive)
    1  A    between atoms: C_3  and  C_58
    2  A    between atoms: C_3  and  N_59
    3  A    between atoms: C_7  and  N_20
    4  A    between atoms: C_7  and  C_28
    5  A    between atoms: C_8  and  C_65
    6  A    between atoms: C_13  and  C_16
    7  A    between atoms: C_13  and  C_29
    8  A    between atoms: O_14  and  C_26
    9  A    between atoms: O_14  and  C_38
   10  A    between atoms: C_16  and  N_20
   11  A    between atoms: C_19  and  C_23
   12  A    between atoms: C_23  and  O_53
   13  A    between atoms: C_29  and  N_30
   14  A    between atoms: C_31  and  C_36
   15  A    between atoms: C_49  and  C_50
                            x       y       z     vdW  Elec       q    Type
                         _______ _______ _______ _____ _____    ______ ____

>  <TORSDO>
F 15

$$$$
=
 OpenBabel11062418123D

 70 78  0  0  1  0  0  0  0  0999 V2000
  184.3370  178.4190  140.6000 C   0  0  1  0  0  3  0  0  0  0  0  0
  179.2080  179.0530  139.0890 C   0  0  1  0  0  3  0  0  0  0  0  0
  180.7330  180.3340  141.3280 O   0  0  0  0  0  0  0  0  0  0  0  0
  179.3810  178.5760  136.8120 F   0  0  0  0  0  0  0  0  0  0  0  0
  179.4250  178.5070  140.5110 C   0  0  0  0  0  2  0  0  0  0  0  0
  179.5680  179.5860  141.5830 C   0  0  0  0  0  2  0  0  0  0  0  0
  179.3290  176.8260  138.2040 O   0  0  0  0  0  1  0  0  0  0  0  0
  183.8250  178.8880  138.5020 C   0  0  2  0  0  3  0  0  0  0  0  0
  179.6830  180.3450  138.9200 F   0  0  0  0  0  0  0  0  0  0  0  0
  182.3410  178.6340  141.8930 C   0  0  2  0  0  3  0  0  0  0  0  0
  184.0290  179.4840  139.7380 O   0  0  0  0  0  0  0  0  0  0  0  0
  181.6610  178.9040  143.2290 C   0  0  0  0  0  2  0  0  0  0  0  0
  183.8030  178.7010  141.9360 N   0  0  0  0  0  0  0  0  0  0  0  0
  181.4140  176.7110  139.7830 F   0  0  0  0  0  0  0  0  0  0  0  0
  183.8640  177.1850  140.1000 O   0  0  0  0  0  0  0  0  0  0  0  0
  181.9620  177.0750  138.5620 C   0  0  1  0  0  0  0  0  0  0  0  0
  179.8230  178.1220  138.0350 C   0  0  2  0  0  0  0  0  0  0  0  0
  181.2540  178.2130  138.0410 O   0  0  0  0  0  0  0  0  0  0  0  0
  181.8170  180.0270  142.2010 C   0  0  2  0  0  3  0  0  0  0  0  0
  183.4650  177.4410  138.7820 C   0  0  1  0  0  3  0  0  0  0  0  0
  181.7740  178.2540  134.8240 C   0  0  0  0  0  2  0  0  0  0  0  0
  183.2490  176.4410  135.5660 C   0  0  2  0  0  3  0  0  0  0  0  0
  183.4700  173.3150  138.2770 O   0  0  0  0  0  1  0  0  0  0  0  0
  180.9390  177.3030  135.6710 C   0  0  0  0  0  2  0  0  0  0  0  0
  181.2410  172.8930  137.3590 C   0  0  0  0  0  2  0  0  0  0  0  0
  183.2330  173.1950  135.8420 C   0  0  2  0  0  3  0  0  0  0  0  0
  183.1190  177.5920  134.5940 C   0  0  0  0  0  2  0  0  0  0  0  0
  182.7500  172.7560  137.2170 C   0  0  1  0  0  0  0  0  0  0  0  0
  180.8290  174.3090  139.7800 O   0  0  0  0  0  1  0  0  0  0  0  0
  181.8500  175.8630  137.5870 C   0  0  2  0  0  3  0  0  0  0  0  0
  179.3260  174.8050  137.6920 O   0  0  0  0  0  0  0  0  0  0  0  0
  183.8350  175.3480  134.9120 O   0  0  0  0  0  0  0  0  0  0  0  0
  183.8910  171.8450  135.6320 C   0  0  0  0  0  2  0  0  0  0  0  0
  184.1570  174.4100  135.9030 C   0  0  2  0  0  3  0  0  0  0  0  0
  181.8350  176.1450  136.0690 C   0  0  2  0  0  3  0  0  0  0  0  0
  180.7480  174.4890  138.0970 P   0  0  1  0  0  0  0  0  0  0  0  0
  183.2640  171.3610  136.9360 C   0  0  0  0  0  2  0  0  0  0  0  0
  185.6660  174.1190  136.0520 C   0  0  0  0  0  2  0  0  0  0  0  0
  186.4540  175.3550  136.1720 N   0  0  0  0  0  2  0  0  0  0  0  0
  187.6690  175.5400  135.4510 C   0  0  0  0  0  0  0  0  0  0  0  0
  187.7390  176.4600  134.5940 O   0  0  0  0  0  0  0  0  0  0  0  0
  188.8590  174.7260  135.7440 C   0  0  0  0  0  0  0  0  0  0  0  0
  190.0720  172.5470  135.6820 C   0  0  2  0  0  3  0  0  0  0  0  0
  189.9530  175.3170  136.5990 C   0  0  0  0  0  2  0  0  0  0  0  0
  188.9200  173.4510  135.3250 C   0  0  0  0  0  3  0  0  0  0  0  0
  191.2680  174.6340  136.3650 C   0  0  0  0  0  0  0  0  0  0  0  0
  192.3350  175.2270  136.6830 O   0  0  0  0  0  0  0  0  0  0  0  0
  191.3190  173.2900  135.8780 N   0  0  0  0  0  0  0  0  0  0  0  0
  192.5040  172.6320  135.8840 O   0  0  0  0  0  1  0  0  0  0  0  0
  190.2480  171.5070  134.5940 C   0  0  0  0  0  1  0  0  0  0  0  0
  185.0750  178.9880  137.6160 C   0  0  2  0  0  3  0  0  0  0  0  0
  185.1630  177.8280  136.6390 C   0  0  0  0  0  1  0  0  0  0  0  0
  186.2140  179.0080  138.4070 O   0  0  0  0  0  0  0  0  0  0  0  0
  187.2680  178.6880  137.5370 C   0  0  0  0  0  1  0  0  0  0  0  0
  184.3540  177.7400  142.8910 C   0  0  0  0  0  2  0  0  0  0  0  0
  185.6310  178.3060  143.5090 C   0  0  0  0  0  2  0  0  0  0  0  0
  186.3110  177.2520  144.3760 C   0  0  0  0  0  2  0  0  0  0  0  0
  187.7430  177.1970  144.1010 N   0  0  0  0  0  0  0  0  0  0  0  0
  188.6940  177.5580  145.1120 C   0  0  0  0  0  0  0  0  0  0  0  0
  189.9210  177.2930  144.9370 O   0  0  0  0  0  0  0  0  0  0  0  0
  188.1900  176.5120  142.8950 C   0  0  0  0  0  2  0  0  0  0  0  0
  188.4710  177.1080  140.6110 O   0  0  0  0  0  0  0  0  0  0  0  0
  188.7990  177.5120  141.9190 C   0  0  2  0  0  3  0  0  0  0  0  0
  189.7730  176.8100  141.0560 C   0  0  2  0  0  3  0  0  0  0  0  0
  190.7570  177.8070  140.4720 C   0  0  0  0  0  3  0  0  0  0  0  0
  191.6520  177.1060  139.4560 C   0  0  0  0  0  2  0  0  0  0  0  0
  192.1640  177.3820  140.8480 C   0  0  0  0  0  2  0  0  0  0  0  0
  188.2670  178.1960  146.2870 O   0  0  0  0  0  0  0  0  0  0  0  0
  188.8920  177.9730  147.5450 C   0  0  0  0  0  2  0  0  0  0  0  0
  188.0950  176.9780  148.3660 C   0  0  0  0  0  1  0  0  0  0  0  0
  1 11  1  6  0  0  0
  1 13  1  0  0  0  0
  2  9  1  1  0  0  0
  2  5  1  0  0  0  0
  3  6  1  0  0  0  0
  3 19  1  0  0  0  0
  5  6  1  0  0  0  0
  8 51  1  6  0  0  0
  8 20  1  0  0  0  0
  8 11  1  0  0  0  0
 10 13  1  0  0  0  0
 10 19  1  0  0  0  0
 10 12  1  1  0  0  0
 13 55  1  0  0  0  0
 15  1  1  0  0  0  0
 16 20  1  0  0  0  0
 16 14  1  1  0  0  0
 17  4  1  6  0  0  0
 17 18  1  0  0  0  0
 17  7  1  0  0  0  0
 17  2  1  0  0  0  0
 18 16  1  0  0  0  0
 19 12  1  1  0  0  0
 20 15  1  1  0  0  0
 21 24  1  0  0  0  0
 22 27  1  6  0  0  0
 22 35  1  0  0  0  0
 25 36  1  0  0  0  0
 26 33  1  1  0  0  0
 26 34  1  0  0  0  0
 26 28  1  0  0  0  0
 27 21  1  0  0  0  0
 28 25  1  0  0  0  0
 28 23  1  1  0  0  0
 30 36  1  0  0  0  0
 30 16  1  1  0  0  0
 32 22  1  0  0  0  0
 32 34  1  0  0  0  0
 33 37  1  0  0  0  0
 34 38  1  6  0  0  0
 35 24  1  1  0  0  0
 35 30  1  0  0  0  0
 36 31  2  6  0  0  0
 36 29  1  0  0  0  0
 37 28  1  0  0  0  0
 38 39  1  0  0  0  0
 40 42  1  0  0  0  0
 40 39  1  0  0  0  0
 41 40  2  0  0  0  0
 42 44  1  0  0  0  0
 43 50  1  6  0  0  0
 43 48  1  0  0  0  0
 45 43  1  0  0  0  0
 45 42  2  0  0  0  0
 46 44  1  0  0  0  0
 46 47  2  0  0  0  0
 48 49  1  0  0  0  0
 48 46  1  0  0  0  0
 51 52  1  6  0  0  0
 51 53  1  0  0  0  0
 54 53  1  0  0  0  0
 55 56  1  0  0  0  0
 56 57  1  0  0  0  0
 58 57  1  0  0  0  0
 58 59  1  0  0  0  0
 59 68  1  0  0  0  0
 60 59  2  0  0  0  0
 61 58  1  0  0  0  0
 62 64  1  0  0  0  0
 62 63  1  0  0  0  0
 63 61  1  1  0  0  0
 64 65  1  6  0  0  0
 64 63  1  0  0  0  0
 65 67  1  0  0  0  0
 66 65  1  0  0  0  0
 66 67  1  0  0  0  0
 68 69  1  0  0  0  0
 69 70  1  0  0  0  0
M  END
>  <MODEL>
3

>  <REMARK>
 VINA RESULT:      -4.2      1.582      1.988
  Name = 
  15 active torsions:
  status: ('A' for Active; 'I' for Inactive)
    1  A    between atoms: C_3  and  C_58
    2  A    between atoms: C_3  and  N_59
    3  A    between atoms: C_7  and  N_20
    4  A    between atoms: C_7  and  C_28
    5  A    between atoms: C_8  and  C_65
    6  A    between atoms: C_13  and  C_16
    7  A    between atoms: C_13  and  C_29
    8  A    between atoms: O_14  and  C_26
    9  A    between atoms: O_14  and  C_38
   10  A    between atoms: C_16  and  N_20
   11  A    between atoms: C_19  and  C_23
   12  A    between atoms: C_23  and  O_53
   13  A    between atoms: C_29  and  N_30
   14  A    between atoms: C_31  and  C_36
   15  A    between atoms: C_49  and  C_50
                            x       y       z     vdW  Elec       q    Type
                         _______ _______ _______ _____ _____    ______ ____

>  <TORSDO>
F 15

$$$$
=
 OpenBabel11062418123D

 70 78  0  0  1  0  0  0  0  0999 V2000
  185.4520  178.4240  140.6500 C   0  0  1  0  0  3  0  0  0  0  0  0
  181.2070  178.6190  137.3440 C   0  0  1  0  0  3  0  0  0  0  0  0
  181.6290  179.8990  140.0200 O   0  0  0  0  0  0  0  0  0  0  0  0
  182.2650  178.3170  135.2870 F   0  0  0  0  0  0  0  0  0  0  0  0
  180.9480  178.0050  138.7310 C   0  0  0  0  0  2  0  0  0  0  0  0
  180.5530  179.0180  139.8030 C   0  0  0  0  0  2  0  0  0  0  0  0
  181.9170  176.4820  136.5170 O   0  0  0  0  0  1  0  0  0  0  0  0
  185.6970  178.9770  138.5250 C   0  0  2  0  0  3  0  0  0  0  0  0
  181.5490  179.9620  137.3960 F   0  0  0  0  0  0  0  0  0  0  0  0
  183.1100  178.3430  141.1060 C   0  0  2  0  0  3  0  0  0  0  0  0
  185.3570  179.5070  139.7610 O   0  0  0  0  0  0  0  0  0  0  0  0
  181.9570  178.4490  142.0970 C   0  0  0  0  0  2  0  0  0  0  0  0
  184.4330  178.5590  141.6950 N   0  0  0  0  0  0  0  0  0  0  0  0
  183.2680  176.4800  138.7580 F   0  0  0  0  0  0  0  0  0  0  0  0
  185.3510  177.1840  139.9810 O   0  0  0  0  0  0  0  0  0  0  0  0
  184.1800  176.9800  137.8400 C   0  0  1  0  0  0  0  0  0  0  0  0
  182.2750  177.8300  136.5760 C   0  0  2  0  0  0  0  0  0  0  0  0
  183.5810  178.0700  137.1190 O   0  0  0  0  0  0  0  0  0  0  0  0
  182.3430  179.6490  141.2280 C   0  0  2  0  0  3  0  0  0  0  0  0
  185.4390  177.4850  138.6160 C   0  0  1  0  0  3  0  0  0  0  0  0
  185.8780  178.3840  134.5940 C   0  0  0  0  0  2  0  0  0  0  0  0
  186.8020  176.4970  135.8580 C   0  0  2  0  0  3  0  0  0  0  0  0
  185.6680  173.2110  138.1130 O   0  0  0  0  0  1  0  0  0  0  0  0
  184.7420  177.4030  134.8470 C   0  0  0  0  0  2  0  0  0  0  0  0
  184.2040  172.8940  136.1780 C   0  0  0  0  0  2  0  0  0  0  0  0
  186.6840  173.2420  135.8840 C   0  0  2  0  0  3  0  0  0  0  0  0
  187.1640  177.7070  135.0260 C   0  0  0  0  0  2  0  0  0  0  0  0
  185.5820  172.7320  136.8020 C   0  0  1  0  0  0  0  0  0  0  0  0
  182.6180  174.1720  138.1510 O   0  0  0  0  0  1  0  0  0  0  0  0
  184.5840  175.8310  136.8660 C   0  0  2  0  0  3  0  0  0  0  0  0
  182.3590  174.8250  135.6270 O   0  0  0  0  0  0  0  0  0  0  0  0
  187.6480  175.4320  135.5190 O   0  0  0  0  0  0  0  0  0  0  0  0
  187.3730  171.8930  135.9480 C   0  0  0  0  0  2  0  0  0  0  0  0
  187.4400  174.4300  136.4760 C   0  0  2  0  0  3  0  0  0  0  0  0
  185.3300  176.2030  135.5660 C   0  0  2  0  0  3  0  0  0  0  0  0
  183.3900  174.4540  136.6680 P   0  0  1  0  0  0  0  0  0  0  0  0
  186.1830  171.3460  136.7300 C   0  0  0  0  0  2  0  0  0  0  0  0
  188.6740  174.0980  137.3420 C   0  0  0  0  0  2  0  0  0  0  0  0
  189.5280  175.2750  137.5560 N   0  0  0  0  0  2  0  0  0  0  0  0
  190.6900  175.5110  136.7660 C   0  0  0  0  0  0  0  0  0  0  0  0
  190.7360  176.5350  136.0350 O   0  0  0  0  0  0  0  0  0  0  0  0
  191.8590  174.6200  136.8470 C   0  0  0  0  0  0  0  0  0  0  0  0
  193.0250  172.5030  136.2320 C   0  0  2  0  0  3  0  0  0  0  0  0
  192.9540  174.9440  137.8320 C   0  0  0  0  0  2  0  0  0  0  0  0
  191.8980  173.4950  136.1130 C   0  0  0  0  0  3  0  0  0  0  0  0
  194.2580  174.3140  137.4380 C   0  0  0  0  0  0  0  0  0  0  0  0
  195.3320  174.7800  137.9050 O   0  0  0  0  0  0  0  0  0  0  0  0
  194.2860  173.1400  136.6220 N   0  0  0  0  0  0  0  0  0  0  0  0
  195.4560  172.4750  136.4650 O   0  0  0  0  0  1  0  0  0  0  0  0
  193.1930  171.7740  134.9140 C   0  0  0  0  0  1  0  0  0  0  0  0
  187.1630  179.2670  138.1730 C   0  0  2  0  0  3  0  0  0  0  0  0
  187.3060  179.7910  136.7540 C   0  0  0  0  0  1  0  0  0  0  0  0
  187.9190  178.1120  138.3130 O   0  0  0  0  0  0  0  0  0  0  0  0
  189.2470  178.5560  138.4160 C   0  0  0  0  0  1  0  0  0  0  0  0
  184.7050  177.5980  142.7640 C   0  0  0  0  0  2  0  0  0  0  0  0
  185.8180  178.1350  143.6630 C   0  0  0  0  0  2  0  0  0  0  0  0
  186.9930  177.1630  143.6850 C   0  0  0  0  0  2  0  0  0  0  0  0
  188.1350  177.7460  144.3810 N   0  0  0  0  0  0  0  0  0  0  0  0
  189.2560  178.2560  143.6440 C   0  0  0  0  0  0  0  0  0  0  0  0
  190.1280  178.9550  144.2400 O   0  0  0  0  0  0  0  0  0  0  0  0
  187.9990  178.0540  145.7990 C   0  0  0  0  0  2  0  0  0  0  0  0
  188.8060  177.4160  147.9420 O   0  0  0  0  0  0  0  0  0  0  0  0
  188.5910  176.9290  146.6390 C   0  0  2  0  0  3  0  0  0  0  0  0
  189.9350  177.3310  147.1050 C   0  0  2  0  0  3  0  0  0  0  0  0
  190.7480  176.1010  147.4610 C   0  0  0  0  0  3  0  0  0  0  0  0
  192.1270  176.5250  147.9550 C   0  0  0  0  0  2  0  0  0  0  0  0
  191.9520  176.0280  146.5410 C   0  0  0  0  0  2  0  0  0  0  0  0
  189.3810  177.9840  142.2720 O   0  0  0  0  0  0  0  0  0  0  0  0
  190.4430  177.1980  141.7460 C   0  0  0  0  0  2  0  0  0  0  0  0
  190.5090  175.8540  142.4460 C   0  0  0  0  0  1  0  0  0  0  0  0
  1 11  1  6  0  0  0
  1 13  1  0  0  0  0
  2  9  1  1  0  0  0
  2  5  1  0  0  0  0
  3 19  1  0  0  0  0
  5  6  1  0  0  0  0
  6  3  1  0  0  0  0
  7 17  1  0  0  0  0
  8 51  1  1  0  0  0
  8 20  1  0  0  0  0
  8 11  1  0  0  0  0
 10 19  1  0  0  0  0
 10 13  1  0  0  0  0
 10 12  1  1  0  0  0
 13 55  1  0  0  0  0
 15  1  1  0  0  0  0
 16 20  1  0  0  0  0
 16 14  1  1  0  0  0
 17  4  1  6  0  0  0
 17 18  1  0  0  0  0
 17  2  1  0  0  0  0
 18 16  1  0  0  0  0
 19 12  1  1  0  0  0
 20 15  1  1  0  0  0
 21 24  1  0  0  0  0
 21 27  1  0  0  0  0
 22 27  1  6  0  0  0
 25 36  1  0  0  0  0
 25 28  1  0  0  0  0
 26 33  1  1  0  0  0
 26 34  1  0  0  0  0
 26 28  1  0  0  0  0
 28 23  1  1  0  0  0
 30 16  1  6  0  0  0
 32 22  1  0  0  0  0
 32 34  1  0  0  0  0
 33 37  1  0  0  0  0
 34 38  1  6  0  0  0
 35 24  1  1  0  0  0
 35 22  1  0  0  0  0
 35 30  1  0  0  0  0
 36 31  2  6  0  0  0
 36 30  1  0  0  0  0
 36 29  1  0  0  0  0
 37 28  1  0  0  0  0
 38 39  1  0  0  0  0
 40 42  1  0  0  0  0
 40 39  1  0  0  0  0
 41 40  2  0  0  0  0
 42 44  1  0  0  0  0
 43 50  1  6  0  0  0
 43 48  1  0  0  0  0
 45 43  1  0  0  0  0
 45 42  2  0  0  0  0
 46 44  1  0  0  0  0
 46 47  2  0  0  0  0
 48 46  1  0  0  0  0
 49 48  1  0  0  0  0
 51 52  1  6  0  0  0
 51 53  1  0  0  0  0
 53 54  1  0  0  0  0
 55 56  1  0  0  0  0
 56 57  1  0  0  0  0
 57 58  1  0  0  0  0
 58 61  1  0  0  0  0
 59 60  2  0  0  0  0
 59 58  1  0  0  0  0
 63 61  1  6  0  0  0
 63 64  1  0  0  0  0
 63 62  1  0  0  0  0
 64 65  1  1  0  0  0
 64 62  1  0  0  0  0
 65 66  1  0  0  0  0
 67 65  1  0  0  0  0
 67 66  1  0  0  0  0
 68 59  1  0  0  0  0
 69 68  1  0  0  0  0
 69 70  1  0  0  0  0
M  END
>  <MODEL>
4

>  <REMARK>
 VINA RESULT:      -3.9      2.335      4.457
  Name = 
  15 active torsions:
  status: ('A' for Active; 'I' for Inactive)
    1  A    between atoms: C_3  and  C_58
    2  A    between atoms: C_3  and  N_59
    3  A    between atoms: C_7  and  N_20
    4  A    between atoms: C_7  and  C_28
    5  A    between atoms: C_8  and  C_65
    6  A    between atoms: C_13  and  C_16
    7  A    between atoms: C_13  and  C_29
    8  A    between atoms: O_14  and  C_26
    9  A    between atoms: O_14  and  C_38
   10  A    between atoms: C_16  and  N_20
   11  A    between atoms: C_19  and  C_23
   12  A    between atoms: C_23  and  O_53
   13  A    between atoms: C_29  and  N_30
   14  A    between atoms: C_31  and  C_36
   15  A    between atoms: C_49  and  C_50
                            x       y       z     vdW  Elec       q    Type
                         _______ _______ _______ _____ _____    ______ ____

>  <TORSDO>
F 15

$$$$
=
 OpenBabel11062418123D

 70 78  0  0  1  0  0  0  0  0999 V2000
  184.1660  178.4080  140.4440 C   0  0  1  0  0  3  0  0  0  0  0  0
  178.9740  179.0290  139.1600 C   0  0  1  0  0  3  0  0  0  0  0  0
  180.6160  180.3840  141.2680 O   0  0  0  0  0  0  0  0  0  0  0  0
  179.0320  178.4600  136.8980 F   0  0  0  0  0  0  0  0  0  0  0  0
  179.2560  178.5380  140.5910 C   0  0  0  0  0  2  0  0  0  0  0  0
  179.4590  179.6570  141.6100 C   0  0  0  0  0  2  0  0  0  0  0  0
  179.0350  176.7670  138.3610 O   0  0  0  0  0  1  0  0  0  0  0  0
  183.5550  178.7970  138.3570 C   0  0  2  0  0  3  0  0  0  0  0  0
  179.4490  180.3080  138.9160 F   0  0  0  0  0  0  0  0  0  0  0  0
  182.2370  178.6930  141.8230 C   0  0  2  0  0  3  0  0  0  0  0  0
  183.8240  179.4410  139.5560 O   0  0  0  0  0  0  0  0  0  0  0  0
  181.6250  179.0220  143.1790 C   0  0  0  0  0  2  0  0  0  0  0  0
  183.7000  178.7480  141.7920 N   0  0  0  0  0  0  0  0  0  0  0  0
  181.1930  176.6960  139.8390 F   0  0  0  0  0  0  0  0  0  0  0  0
  183.6600  177.1590  140.0180 O   0  0  0  0  0  0  0  0  0  0  0  0
  181.6840  177.0060  138.5790 C   0  0  1  0  0  0  0  0  0  0  0  0
  179.5290  178.0500  138.1160 C   0  0  2  0  0  0  0  0  0  0  0  0
  180.9600  178.1290  138.0480 O   0  0  0  0  0  0  0  0  0  0  0  0
  181.7380  180.1020  142.0990 C   0  0  2  0  0  3  0  0  0  0  0  0
  183.1990  177.3670  138.7110 C   0  0  1  0  0  3  0  0  0  0  0  0
  181.5500  178.0200  134.7910 C   0  0  0  0  0  2  0  0  0  0  0  0
  182.9390  176.1760  135.6180 C   0  0  2  0  0  3  0  0  0  0  0  0
  183.0170  173.1710  138.4690 O   0  0  0  0  0  1  0  0  0  0  0  0
  180.6720  177.1480  135.6790 C   0  0  0  0  0  2  0  0  0  0  0  0
  180.7700  172.8110  137.5680 C   0  0  0  0  0  2  0  0  0  0  0  0
  182.7730  172.9510  136.0420 C   0  0  2  0  0  3  0  0  0  0  0  0
  182.8620  177.2860  134.5940 C   0  0  0  0  0  2  0  0  0  0  0  0
  182.2710  172.5980  137.4340 C   0  0  1  0  0  0  0  0  0  0  0  0
  180.4250  174.3530  139.9210 O   0  0  0  0  0  1  0  0  0  0  0  0
  181.5160  175.7570  137.6610 C   0  0  2  0  0  3  0  0  0  0  0  0
  178.9460  174.8220  137.8100 O   0  0  0  0  0  0  0  0  0  0  0  0
  183.4740  175.0290  135.0160 O   0  0  0  0  0  0  0  0  0  0  0  0
  183.3680  171.5640  135.8950 C   0  0  0  0  0  2  0  0  0  0  0  0
  183.7520  174.1230  136.0490 C   0  0  2  0  0  3  0  0  0  0  0  0
  181.5140  175.9690  136.1310 C   0  0  2  0  0  3  0  0  0  0  0  0
  180.3510  174.4610  138.2310 P   0  0  1  0  0  0  0  0  0  0  0  0
  182.7200  171.1690  137.2190 C   0  0  0  0  0  2  0  0  0  0  0  0
  185.2460  173.7700  136.2140 C   0  0  0  0  0  2  0  0  0  0  0  0
  185.8360  173.2780  134.9600 N   0  0  0  0  0  2  0  0  0  0  0  0
  187.1580  172.7510  134.9120 C   0  0  0  0  0  0  0  0  0  0  0  0
  187.3260  171.5430  134.5970 O   0  0  0  0  0  0  0  0  0  0  0  0
  188.3290  173.6100  135.1510 C   0  0  0  0  0  0  0  0  0  0  0  0
  189.4260  175.8500  135.1120 C   0  0  2  0  0  3  0  0  0  0  0  0
  189.6470  172.9640  135.4990 C   0  0  0  0  0  2  0  0  0  0  0  0
  188.2340  174.9380  134.9750 C   0  0  0  0  0  3  0  0  0  0  0  0
  190.5560  173.9150  136.2220 C   0  0  0  0  0  0  0  0  0  0  0  0
  191.5040  173.4540  136.9140 O   0  0  0  0  0  0  0  0  0  0  0  0
  190.4160  175.3290  136.0580 N   0  0  0  0  0  0  0  0  0  0  0  0
  191.3790  176.1470  136.5470 O   0  0  0  0  0  1  0  0  0  0  0  0
  188.9580  177.2240  135.5490 C   0  0  0  0  0  1  0  0  0  0  0  0
  184.7610  178.8510  137.4070 C   0  0  2  0  0  3  0  0  0  0  0  0
  185.2930  177.4610  137.1000 C   0  0  0  0  0  1  0  0  0  0  0  0
  185.7720  179.6150  137.9710 O   0  0  0  0  0  0  0  0  0  0  0  0
  186.9080  179.3490  137.1910 C   0  0  0  0  0  1  0  0  0  0  0  0
  184.2890  177.8200  142.7570 C   0  0  0  0  0  2  0  0  0  0  0  0
  185.7100  177.4630  142.3220 C   0  0  0  0  0  2  0  0  0  0  0  0
  186.7150  178.4050  142.9770 C   0  0  0  0  0  2  0  0  0  0  0  0
  188.0130  177.7560  143.1280 N   0  0  0  0  0  0  0  0  0  0  0  0
  189.0810  178.0380  142.2120 C   0  0  0  0  0  0  0  0  0  0  0  0
  190.2540  177.6470  142.4830 O   0  0  0  0  0  0  0  0  0  0  0  0
  188.2910  177.0450  144.3690 C   0  0  0  0  0  2  0  0  0  0  0  0
  188.2020  177.1920  146.7400 O   0  0  0  0  0  0  0  0  0  0  0  0
  187.8830  177.8980  145.5650 C   0  0  2  0  0  3  0  0  0  0  0  0
  186.8520  177.1770  146.3410 C   0  0  2  0  0  3  0  0  0  0  0  0
  186.0560  178.1590  147.1800 C   0  0  0  0  0  3  0  0  0  0  0  0
  184.6690  178.3420  146.5740 C   0  0  0  0  0  2  0  0  0  0  0  0
  185.7390  179.3780  146.3350 C   0  0  0  0  0  2  0  0  0  0  0  0
  188.8240  178.7440  141.0260 O   0  0  0  0  0  0  0  0  0  0  0  0
  188.5090  178.0900  139.8040 C   0  0  0  0  0  2  0  0  0  0  0  0
  189.5470  177.0320  139.4820 C   0  0  0  0  0  1  0  0  0  0  0  0
  1 11  1  6  0  0  0
  1 13  1  0  0  0  0
  2  9  1  6  0  0  0
  2  5  1  0  0  0  0
  3  6  1  0  0  0  0
  3 19  1  0  0  0  0
  5  6  1  0  0  0  0
  8 51  1  6  0  0  0
  8 20  1  0  0  0  0
  8 11  1  0  0  0  0
 10 19  1  0  0  0  0
 10 12  1  1  0  0  0
 13 10  1  0  0  0  0
 13 55  1  0  0  0  0
 15  1  1  0  0  0  0
 16 20  1  0  0  0  0
 16 14  1  1  0  0  0
 17  4  1  6  0  0  0
 17  7  1  0  0  0  0
 17  2  1  0  0  0  0
 18 17  1  0  0  0  0
 18 16  1  0  0  0  0
 19 12  1  1  0  0  0
 20 15  1  1  0  0  0
 21 24  1  0  0  0  0
 22 27  1  6  0  0  0
 22 35  1  0  0  0  0
 25 36  1  0  0  0  0
 26 33  1  1  0  0  0
 26 34  1  0  0  0  0
 26 28  1  0  0  0  0
 27 21  1  0  0  0  0
 28 25  1  0  0  0  0
 28 23  1  1  0  0  0
 30 36  1  0  0  0  0
 30 16  1  1  0  0  0
 32 22  1  0  0  0  0
 32 34  1  0  0  0  0
 33 37  1  0  0  0  0
 34 38  1  6  0  0  0
 35 24  1  1  0  0  0
 35 30  1  0  0  0  0
 36 31  2  6  0  0  0
 36 29  1  0  0  0  0
 37 28  1  0  0  0  0
 39 38  1  0  0  0  0
 40 39  1  0  0  0  0
 40 42  1  0  0  0  0
 41 40  2  0  0  0  0
 42 44  1  0  0  0  0
 43 50  1  1  0  0  0
 43 48  1  0  0  0  0
 44 46  1  0  0  0  0
 45 43  1  0  0  0  0
 45 42  2  0  0  0  0
 46 47  2  0  0  0  0
 48 46  1  0  0  0  0
 48 49  1  0  0  0  0
 51 52  1  1  0  0  0
 51 53  1  0  0  0  0
 54 53  1  0  0  0  0
 56 55  1  0  0  0  0
 56 57  1  0  0  0  0
 57 58  1  0  0  0  0
 58 61  1  0  0  0  0
 59 60  2  0  0  0  0
 59 58  1  0  0  0  0
 63 61  1  6  0  0  0
 63 64  1  0  0  0  0
 63 62  1  0  0  0  0
 64 62  1  0  0  0  0
 64 65  1  1  0  0  0
 66 65  1  0  0  0  0
 67 66  1  0  0  0  0
 67 65  1  0  0  0  0
 68 59  1  0  0  0  0
 69 68  1  0  0  0  0
 70 69  1  0  0  0  0
M  END
>  <MODEL>
5

>  <REMARK>
 VINA RESULT:      -3.4      1.680      3.478
  Name = 
  15 active torsions:
  status: ('A' for Active; 'I' for Inactive)
    1  A    between atoms: C_3  and  C_58
    2  A    between atoms: C_3  and  N_59
    3  A    between atoms: C_7  and  N_20
    4  A    between atoms: C_7  and  C_28
    5  A    between atoms: C_8  and  C_65
    6  A    between atoms: C_13  and  C_16
    7  A    between atoms: C_13  and  C_29
    8  A    between atoms: O_14  and  C_26
    9  A    between atoms: O_14  and  C_38
   10  A    between atoms: C_16  and  N_20
   11  A    between atoms: C_19  and  C_23
   12  A    between atoms: C_23  and  O_53
   13  A    between atoms: C_29  and  N_30
   14  A    between atoms: C_31  and  C_36
   15  A    between atoms: C_49  and  C_50
                            x       y       z     vdW  Elec       q    Type
                         _______ _______ _______ _____ _____    ______ ____

>  <TORSDO>
F 15

$$$$
=
 OpenBabel11062418123D

 70 78  0  0  1  0  0  0  0  0999 V2000
  184.7200  178.2750  140.5720 C   0  0  1  0  0  3  0  0  0  0  0  0
  179.4910  179.5010  140.1830 C   0  0  1  0  0  3  0  0  0  0  0  0
  181.5040  180.2690  142.2650 O   0  0  0  0  0  0  0  0  0  0  0  0
  179.2140  179.4170  137.8670 F   0  0  0  0  0  0  0  0  0  0  0  0
  179.9010  178.7030  141.4330 C   0  0  0  0  0  2  0  0  0  0  0  0
  180.3340  179.5670  142.6150 C   0  0  0  0  0  2  0  0  0  0  0  0
  179.2380  177.4590  138.9480 O   0  0  0  0  0  1  0  0  0  0  0  0
  183.8950  179.1350  138.7110 C   0  0  2  0  0  3  0  0  0  0  0  0
  180.0520  180.7680  140.1340 F   0  0  0  0  0  0  0  0  0  0  0  0
  183.0130  178.3940  142.2380 C   0  0  2  0  0  3  0  0  0  0  0  0
  184.3700  179.4920  139.9640 O   0  0  0  0  0  0  0  0  0  0  0  0
  182.6080  178.4710  143.7050 C   0  0  0  0  0  2  0  0  0  0  0  0
  184.4590  178.3560  142.0120 N   0  0  0  0  0  0  0  0  0  0  0  0
  181.5460  176.9330  140.0640 F   0  0  0  0  0  0  0  0  0  0  0  0
  184.0480  177.1810  139.9820 O   0  0  0  0  0  0  0  0  0  0  0  0
  181.9040  177.4670  138.8350 C   0  0  1  0  0  0  0  0  0  0  0  0
  179.8170  178.7280  138.8970 C   0  0  2  0  0  0  0  0  0  0  0  0
  181.2300  178.7230  138.6450 O   0  0  0  0  0  0  0  0  0  0  0  0
  182.6890  179.7440  142.8570 C   0  0  2  0  0  3  0  0  0  0  0  0
  183.4510  177.6890  138.8210 C   0  0  1  0  0  3  0  0  0  0  0  0
  181.1460  179.2910  135.4440 C   0  0  0  0  0  2  0  0  0  0  0  0
  182.5580  177.2910  135.5830 C   0  0  2  0  0  3  0  0  0  0  0  0
  182.9820  173.7320  137.6610 O   0  0  0  0  0  1  0  0  0  0  0  0
  180.3960  178.2580  136.2740 C   0  0  0  0  0  2  0  0  0  0  0  0
  180.5940  173.6100  137.1410 C   0  0  0  0  0  2  0  0  0  0  0  0
  182.2940  174.0540  135.3320 C   0  0  2  0  0  3  0  0  0  0  0  0
  182.3600  178.6000  134.8520 C   0  0  0  0  0  2  0  0  0  0  0  0
  182.0330  173.4110  136.6860 C   0  0  1  0  0  0  0  0  0  0  0  0
  180.7630  174.6030  139.7910 O   0  0  0  0  0  1  0  0  0  0  0  0
  181.5050  176.4530  137.7190 C   0  0  2  0  0  3  0  0  0  0  0  0
  178.9560  175.5450  138.1440 O   0  0  0  0  0  0  0  0  0  0  0  0
  182.9130  176.2960  134.6600 O   0  0  0  0  0  0  0  0  0  0  0  0
  182.7760  172.7250  134.7840 C   0  0  0  0  0  2  0  0  0  0  0  0
  183.3220  175.1820  135.4060 C   0  0  2  0  0  3  0  0  0  0  0  0
  181.2390  176.9970  136.2980 C   0  0  2  0  0  3  0  0  0  0  0  0
  180.3920  175.0800  138.2070 P   0  0  1  0  0  0  0  0  0  0  0  0
  182.3570  172.0580  136.0900 C   0  0  0  0  0  2  0  0  0  0  0  0
  184.8000  174.7800  135.2080 C   0  0  0  0  0  2  0  0  0  0  0  0
  185.4840  174.5550  136.4900 N   0  0  0  0  0  2  0  0  0  0  0  0
  186.7680  175.1080  136.7600 C   0  0  0  0  0  0  0  0  0  0  0  0
  186.8910  175.9470  137.6910 O   0  0  0  0  0  0  0  0  0  0  0  0
  187.9600  174.6620  136.0200 C   0  0  0  0  0  0  0  0  0  0  0  0
  190.1610  175.1430  134.9510 C   0  0  2  0  0  3  0  0  0  0  0  0
  187.9830  173.2640  135.4540 C   0  0  0  0  0  2  0  0  0  0  0  0
  188.9650  175.5210  135.7860 C   0  0  0  0  0  3  0  0  0  0  0  0
  189.3860  172.7810  135.2290 C   0  0  0  0  0  0  0  0  0  0  0  0
  189.6030  171.5430  135.1380 O   0  0  0  0  0  0  0  0  0  0  0  0
  190.4550  173.7090  135.0220 N   0  0  0  0  0  0  0  0  0  0  0  0
  191.6590  173.2450  134.6090 O   0  0  0  0  0  1  0  0  0  0  0  0
  191.3640  175.9460  135.4050 C   0  0  0  0  0  1  0  0  0  0  0  0
  184.9720  179.3050  137.6310 C   0  0  2  0  0  3  0  0  0  0  0  0
  184.9090  178.1930  136.5970 C   0  0  0  0  0  1  0  0  0  0  0  0
  186.2300  179.3150  138.2170 O   0  0  0  0  0  0  0  0  0  0  0  0
  187.1290  179.1460  137.1520 C   0  0  0  0  0  1  0  0  0  0  0  0
  185.0730  177.2080  142.6810 C   0  0  0  0  0  2  0  0  0  0  0  0
  186.1170  177.6980  143.6830 C   0  0  0  0  0  2  0  0  0  0  0  0
  187.2850  178.3520  142.9520 C   0  0  0  0  0  2  0  0  0  0  0  0
  188.5100  177.5830  143.1380 N   0  0  0  0  0  0  0  0  0  0  0  0
  189.6340  177.7790  142.2670 C   0  0  0  0  0  0  0  0  0  0  0  0
  190.7550  177.2770  142.5730 O   0  0  0  0  0  0  0  0  0  0  0  0
  188.6740  176.8290  144.3740 C   0  0  0  0  0  2  0  0  0  0  0  0
  190.1090  177.1100  146.2480 O   0  0  0  0  0  0  0  0  0  0  0  0
  189.1070  177.7580  145.5010 C   0  0  2  0  0  3  0  0  0  0  0  0
  188.8130  177.1110  146.7980 C   0  0  2  0  0  3  0  0  0  0  0  0
  188.7180  178.1610  147.8890 C   0  0  0  0  0  3  0  0  0  0  0  0
  187.9200  177.6070  149.0640 C   0  0  0  0  0  2  0  0  0  0  0  0
  187.2610  178.5400  148.0780 C   0  0  0  0  0  2  0  0  0  0  0  0
  189.4890  178.5260  141.0870 O   0  0  0  0  0  0  0  0  0  0  0  0
  189.2760  177.9140  139.8210 C   0  0  0  0  0  2  0  0  0  0  0  0
  190.3460  176.8750  139.5450 C   0  0  0  0  0  1  0  0  0  0  0  0
  1 11  1  6  0  0  0
  1 13  1  0  0  0  0
  2  9  1  6  0  0  0
  2  5  1  0  0  0  0
  3  6  1  0  0  0  0
  3 19  1  0  0  0  0
  5  6  1  0  0  0  0
  8 51  1  6  0  0  0
  8 20  1  0  0  0  0
  8 11  1  0  0  0  0
 10 19  1  0  0  0  0
 10 12  1  1  0  0  0
 13 10  1  0  0  0  0
 13 55  1  0  0  0  0
 15  1  1  0  0  0  0
 16 14  1  1  0  0  0
 17  4  1  6  0  0  0
 17  7  1  0  0  0  0
 17  2  1  0  0  0  0
 18 16  1  0  0  0  0
 18 17  1  0  0  0  0
 19 12  1  1  0  0  0
 20 16  1  0  0  0  0
 20 15  1  1  0  0  0
 21 24  1  0  0  0  0
 22 27  1  6  0  0  0
 22 35  1  0  0  0  0
 25 36  1  0  0  0  0
 26 33  1  6  0  0  0
 26 34  1  0  0  0  0
 26 28  1  0  0  0  0
 27 21  1  0  0  0  0
 28 25  1  0  0  0  0
 28 23  1  1  0  0  0
 30 36  1  0  0  0  0
 30 16  1  1  0  0  0
 32 34  1  0  0  0  0
 32 22  1  0  0  0  0
 33 37  1  0  0  0  0
 34 38  1  6  0  0  0
 35 24  1  1  0  0  0
 35 30  1  0  0  0  0
 36 31  2  6  0  0  0
 36 29  1  0  0  0  0
 37 28  1  0  0  0  0
 38 39  1  0  0  0  0
 39 40  1  0  0  0  0
 40 41  2  0  0  0  0
 42 40  1  0  0  0  0
 43 48  1  0  0  0  0
 43 50  1  1  0  0  0
 43 45  1  0  0  0  0
 44 42  1  0  0  0  0
 45 42  2  0  0  0  0
 46 44  1  0  0  0  0
 47 46  2  0  0  0  0
 48 46  1  0  0  0  0
 49 48  1  0  0  0  0
 51 52  1  6  0  0  0
 51 53  1  0  0  0  0
 54 53  1  0  0  0  0
 55 56  1  0  0  0  0
 57 58  1  0  0  0  0
 57 56  1  0  0  0  0
 58 61  1  0  0  0  0
 59 60  2  0  0  0  0
 59 58  1  0  0  0  0
 62 64  1  0  0  0  0
 63 61  1  6  0  0  0
 63 62  1  0  0  0  0
 63 64  1  0  0  0  0
 64 65  1  1  0  0  0
 65 67  1  0  0  0  0
 65 66  1  0  0  0  0
 67 66  1  0  0  0  0
 68 59  1  0  0  0  0
 69 68  1  0  0  0  0
 70 69  1  0  0  0  0
M  END
>  <MODEL>
6

>  <REMARK>
 VINA RESULT:      -3.3      1.184      3.088
  Name = 
  15 active torsions:
  status: ('A' for Active; 'I' for Inactive)
    1  A    between atoms: C_3  and  C_58
    2  A    between atoms: C_3  and  N_59
    3  A    between atoms: C_7  and  N_20
    4  A    between atoms: C_7  and  C_28
    5  A    between atoms: C_8  and  C_65
    6  A    between atoms: C_13  and  C_16
    7  A    between atoms: C_13  and  C_29
    8  A    between atoms: O_14  and  C_26
    9  A    between atoms: O_14  and  C_38
   10  A    between atoms: C_16  and  N_20
   11  A    between atoms: C_19  and  C_23
   12  A    between atoms: C_23  and  O_53
   13  A    between atoms: C_29  and  N_30
   14  A    between atoms: C_31  and  C_36
   15  A    between atoms: C_49  and  C_50
                            x       y       z     vdW  Elec       q    Type
                         _______ _______ _______ _____ _____    ______ ____

>  <TORSDO>
F 15

$$$$
=
 OpenBabel11062418123D

 70 78  0  0  1  0  0  0  0  0999 V2000
  187.9880  177.7700  138.6150 C   0  0  1  0  0  3  0  0  0  0  0  0
  183.1850  178.6870  140.8670 C   0  0  1  0  0  3  0  0  0  0  0  0
  185.9420  179.1190  141.9580 O   0  0  0  0  0  0  0  0  0  0  0  0
  181.9000  179.0920  138.9620 F   0  0  0  0  0  0  0  0  0  0  0  0
  184.0800  177.6660  141.5900 C   0  0  0  0  0  2  0  0  0  0  0  0
  185.0260  178.2780  142.6200 C   0  0  0  0  0  2  0  0  0  0  0  0
  182.3320  176.9510  139.4470 O   0  0  0  0  0  1  0  0  0  0  0  0
  186.4520  178.9560  137.5590 C   0  0  2  0  0  3  0  0  0  0  0  0
  183.7110  179.9700  140.8630 F   0  0  0  0  0  0  0  0  0  0  0  0
  187.2100  177.4040  140.8420 C   0  0  2  0  0  3  0  0  0  0  0  0
  187.4490  179.0630  138.5170 O   0  0  0  0  0  0  0  0  0  0  0  0
  187.5060  177.1310  142.3120 C   0  0  0  0  0  2  0  0  0  0  0  0
  188.4010  177.5160  139.9980 N   0  0  0  0  0  0  0  0  0  0  0  0
  184.8750  176.3560  139.2750 F   0  0  0  0  0  0  0  0  0  0  0  0
  187.0840  176.7880  138.1520 O   0  0  0  0  0  0  0  0  0  0  0  0
  184.6650  177.1680  138.1700 C   0  0  1  0  0  0  0  0  0  0  0  0
  182.8740  178.2390  139.4320 C   0  0  2  0  0  0  0  0  0  0  0  0
  184.0240  178.3850  138.5880 O   0  0  0  0  0  0  0  0  0  0  0  0
  187.2460  178.5600  141.8280 C   0  0  2  0  0  3  0  0  0  0  0  0
  186.0510  177.4940  137.5240 C   0  0  1  0  0  3  0  0  0  0  0  0
  185.9230  173.4870  137.6610 C   0  0  0  0  0  2  0  0  0  0  0  0
  183.5620  174.0380  138.0240 C   0  0  2  0  0  3  0  0  0  0  0  0
  180.7260  176.9460  137.2080 O   0  0  0  0  0  1  0  0  0  0  0  0
  185.5660  174.6180  136.7070 C   0  0  0  0  0  2  0  0  0  0  0  0
  181.6730  176.6700  134.9680 C   0  0  0  0  0  2  0  0  0  0  0  0
  180.8770  174.6780  136.2950 C   0  0  2  0  0  3  0  0  0  0  0  0
  184.6330  173.0040  138.2940 C   0  0  0  0  0  2  0  0  0  0  0  0
  180.7190  176.1710  136.0440 C   0  0  1  0  0  0  0  0  0  0  0  0
  182.9570  178.9390  136.0800 O   0  0  0  0  0  1  0  0  0  0  0  0
  183.7740  176.3970  137.1490 C   0  0  2  0  0  3  0  0  0  0  0  0
  184.3110  177.2500  134.6030 O   0  0  0  0  0  0  0  0  0  0  0  0
  182.3620  173.3870  137.7070 O   0  0  0  0  0  0  0  0  0  0  0  0
  179.4020  174.4650  136.0130 C   0  0  0  0  0  2  0  0  0  0  0  0
  181.3590  174.3670  137.7110 C   0  0  2  0  0  3  0  0  0  0  0  0
  184.0880  174.9090  136.8820 C   0  0  2  0  0  3  0  0  0  0  0  0
  183.2330  177.3200  135.6600 P   0  0  1  0  0  0  0  0  0  0  0  0
  179.2910  175.9310  135.6050 C   0  0  0  0  0  2  0  0  0  0  0  0
  180.2640  174.1660  138.7810 C   0  0  0  0  0  2  0  0  0  0  0  0
  180.7840  174.3630  140.1420 N   0  0  0  0  0  2  0  0  0  0  0  0
  179.9960  174.9660  141.1650 C   0  0  0  0  0  0  0  0  0  0  0  0
  179.6870  174.2890  142.1810 O   0  0  0  0  0  0  0  0  0  0  0  0
  179.6010  176.3820  141.0860 C   0  0  0  0  0  0  0  0  0  0  0  0
  179.2520  178.6040  142.1620 C   0  0  2  0  0  3  0  0  0  0  0  0
  178.9650  176.8900  139.8150 C   0  0  0  0  0  2  0  0  0  0  0  0
  179.7310  177.1760  142.1610 C   0  0  0  0  0  3  0  0  0  0  0  0
  179.1200  178.3760  139.6750 C   0  0  0  0  0  0  0  0  0  0  0  0
  179.0060  178.9010  138.5340 O   0  0  0  0  0  0  0  0  0  0  0  0
  179.2990  179.2050  140.8260 N   0  0  0  0  0  0  0  0  0  0  0  0
  179.2190  180.5500  140.6870 O   0  0  0  0  0  1  0  0  0  0  0  0
  180.0910  179.4140  143.1300 C   0  0  0  0  0  1  0  0  0  0  0  0
  186.9390  179.4320  136.1830 C   0  0  2  0  0  3  0  0  0  0  0  0
  187.0640  178.2780  135.2030 C   0  0  0  0  0  1  0  0  0  0  0  0
  188.1700  180.0600  136.3110 O   0  0  0  0  0  0  0  0  0  0  0  0
  189.1140  179.0930  135.9290 C   0  0  0  0  0  1  0  0  0  0  0  0
  189.2060  176.2950  140.0470 C   0  0  0  0  0  2  0  0  0  0  0  0
  190.5660  176.5520  139.3980 C   0  0  0  0  0  2  0  0  0  0  0  0
  190.9590  175.3750  138.5120 C   0  0  0  0  0  2  0  0  0  0  0  0
  191.4070  175.8370  137.2030 N   0  0  0  0  0  0  0  0  0  0  0  0
  190.4940  175.8970  136.0990 C   0  0  0  0  0  0  0  0  0  0  0  0
  190.8320  176.5050  135.0410 O   0  0  0  0  0  0  0  0  0  0  0  0
  192.7050  176.4940  137.1070 C   0  0  0  0  0  2  0  0  0  0  0  0
  193.4860  174.3410  136.4740 O   0  0  0  0  0  0  0  0  0  0  0  0
  193.6220  175.7100  136.1770 C   0  0  2  0  0  3  0  0  0  0  0  0
  194.6260  174.9880  136.9870 C   0  0  2  0  0  3  0  0  0  0  0  0
  195.8350  174.6550  136.1330 C   0  0  0  0  0  3  0  0  0  0  0  0
  196.6070  173.5020  136.7670 C   0  0  0  0  0  2  0  0  0  0  0  0
  197.0920  174.9200  136.9400 C   0  0  0  0  0  2  0  0  0  0  0  0
  189.2320  175.2870  136.1930 O   0  0  0  0  0  0  0  0  0  0  0  0
  188.8310  174.2300  135.3310 C   0  0  0  0  0  2  0  0  0  0  0  0
  189.2000  172.8860  135.9290 C   0  0  0  0  0  1  0  0  0  0  0  0
  1 15  1  1  0  0  0
  1 13  1  0  0  0  0
  2  9  1  6  0  0  0
  2  5  1  0  0  0  0
  3  6  1  0  0  0  0
  5  6  1  0  0  0  0
  8 51  1  6  0  0  0
  8 11  1  0  0  0  0
 10 19  1  0  0  0  0
 10 12  1  1  0  0  0
 11  1  1  0  0  0  0
 13 55  1  0  0  0  0
 13 10  1  0  0  0  0
 16 18  1  0  0  0  0
 16 14  1  1  0  0  0
 17  4  1  6  0  0  0
 17  7  1  0  0  0  0
 17  2  1  0  0  0  0
 18 17  1  0  0  0  0
 19  3  1  0  0  0  0
 19 12  1  1  0  0  0
 20  8  1  0  0  0  0
 20 15  1  1  0  0  0
 20 16  1  0  0  0  0
 21 27  1  0  0  0  0
 22 27  1  6  0  0  0
 24 21  1  0  0  0  0
 25 36  1  0  0  0  0
 25 28  1  0  0  0  0
 26 33  1  1  0  0  0
 26 34  1  0  0  0  0
 28 26  1  0  0  0  0
 28 23  1  1  0  0  0
 30 16  1  6  0  0  0
 32 34  1  0  0  0  0
 32 22  1  0  0  0  0
 34 38  1  1  0  0  0
 35 24  1  1  0  0  0
 35 30  1  0  0  0  0
 35 22  1  0  0  0  0
 36 31  2  6  0  0  0
 36 29  1  0  0  0  0
 36 30  1  0  0  0  0
 37 33  1  0  0  0  0
 37 28  1  0  0  0  0
 38 39  1  0  0  0  0
 39 40  1  0  0  0  0
 40 41  2  0  0  0  0
 42 40  1  0  0  0  0
 42 45  2  0  0  0  0
 43 50  1  1  0  0  0
 44 42  1  0  0  0  0
 45 43  1  0  0  0  0
 46 44  1  0  0  0  0
 46 48  1  0  0  0  0
 47 46  2  0  0  0  0
 48 43  1  0  0  0  0
 49 48  1  0  0  0  0
 51 52  1  6  0  0  0
 51 53  1  0  0  0  0
 54 53  1  0  0  0  0
 56 55  1  0  0  0  0
 57 56  1  0  0  0  0
 58 57  1  0  0  0  0
 59 68  1  0  0  0  0
 59 58  1  0  0  0  0
 60 59  2  0  0  0  0
 61 58  1  0  0  0  0
 62 64  1  0  0  0  0
 63 62  1  0  0  0  0
 63 64  1  0  0  0  0
 63 61  1  1  0  0  0
 64 65  1  6  0  0  0
 65 66  1  0  0  0  0
 65 67  1  0  0  0  0
 66 67  1  0  0  0  0
 69 70  1  0  0  0  0
 69 68  1  0  0  0  0
M  END
>  <MODEL>
7

>  <REMARK>
 VINA RESULT:      -2.7      2.714      6.982
  Name = 
  15 active torsions:
  status: ('A' for Active; 'I' for Inactive)
    1  A    between atoms: C_3  and  C_58
    2  A    between atoms: C_3  and  N_59
    3  A    between atoms: C_7  and  N_20
    4  A    between atoms: C_7  and  C_28
    5  A    between atoms: C_8  and  C_65
    6  A    between atoms: C_13  and  C_16
    7  A    between atoms: C_13  and  C_29
    8  A    between atoms: O_14  and  C_26
    9  A    between atoms: O_14  and  C_38
   10  A    between atoms: C_16  and  N_20
   11  A    between atoms: C_19  and  C_23
   12  A    between atoms: C_23  and  O_53
   13  A    between atoms: C_29  and  N_30
   14  A    between atoms: C_31  and  C_36
   15  A    between atoms: C_49  and  C_50
                            x       y       z     vdW  Elec       q    Type
                         _______ _______ _______ _____ _____    ______ ____

>  <TORSDO>
F 15

$$$$
=
 OpenBabel11062418123D

 70 78  0  0  1  0  0  0  0  0999 V2000
  187.8440  177.8290  140.6150 C   0  0  1  0  0  3  0  0  0  0  0  0
  183.1200  178.4800  138.1160 C   0  0  1  0  0  3  0  0  0  0  0  0
  184.0570  179.5070  140.7700 O   0  0  0  0  0  0  0  0  0  0  0  0
  183.7990  178.3130  135.8890 F   0  0  0  0  0  0  0  0  0  0  0  0
  183.0660  177.7600  139.4740 C   0  0  0  0  0  2  0  0  0  0  0  0
  182.9120  178.6930  140.6730 C   0  0  0  0  0  2  0  0  0  0  0  0
  183.5630  176.3950  137.0150 O   0  0  0  0  0  1  0  0  0  0  0  0
  187.7580  178.5520  138.5290 C   0  0  2  0  0  3  0  0  0  0  0  0
  183.5400  179.7980  138.2110 F   0  0  0  0  0  0  0  0  0  0  0  0
  185.6110  177.8040  141.4600 C   0  0  2  0  0  3  0  0  0  0  0  0
  187.6600  178.9870  139.8420 O   0  0  0  0  0  0  0  0  0  0  0  0
  184.6490  177.8720  142.6400 C   0  0  0  0  0  2  0  0  0  0  0  0
  187.0250  177.9150  141.8270 N   0  0  0  0  0  0  0  0  0  0  0  0
  185.2700  176.1450  138.9820 F   0  0  0  0  0  0  0  0  0  0  0  0
  187.5640  176.6560  139.8790 O   0  0  0  0  0  0  0  0  0  0  0  0
  186.0400  176.6840  137.9620 C   0  0  1  0  0  0  0  0  0  0  0  0
  184.0000  177.7170  137.1150 C   0  0  2  0  0  0  0  0  0  0  0  0
  185.3900  177.8560  137.4430 O   0  0  0  0  0  0  0  0  0  0  0  0
  184.9490  179.1250  141.8130 C   0  0  2  0  0  3  0  0  0  0  0  0
  187.4380  177.0700  138.5460 C   0  0  1  0  0  3  0  0  0  0  0  0
  187.2520  178.2900  134.5940 C   0  0  0  0  0  2  0  0  0  0  0  0
  188.2640  176.2630  135.5320 C   0  0  2  0  0  3  0  0  0  0  0  0
  187.3360  172.8460  137.6820 O   0  0  0  0  0  1  0  0  0  0  0  0
  186.1200  177.3410  134.9590 C   0  0  0  0  0  2  0  0  0  0  0  0
  185.5550  172.7610  136.0060 C   0  0  0  0  0  2  0  0  0  0  0  0
  187.9680  173.0260  135.3220 C   0  0  2  0  0  3  0  0  0  0  0  0
  188.5520  177.5240  134.7470 C   0  0  0  0  0  2  0  0  0  0  0  0
  187.0070  172.4870  136.3720 C   0  0  1  0  0  0  0  0  0  0  0  0
  184.3950  173.9290  138.3140 O   0  0  0  0  0  1  0  0  0  0  0  0
  186.2110  175.6080  136.8470 C   0  0  2  0  0  3  0  0  0  0  0  0
  183.7580  174.8090  135.9300 O   0  0  0  0  0  0  0  0  0  0  0  0
  188.9810  175.1970  134.9700 O   0  0  0  0  0  0  0  0  0  0  0  0
  188.5810  171.6480  135.1620 C   0  0  0  0  0  2  0  0  0  0  0  0
  188.8780  174.1250  135.8680 C   0  0  2  0  0  3  0  0  0  0  0  0
  186.7500  176.0590  135.4720 C   0  0  2  0  0  3  0  0  0  0  0  0
  184.9240  174.3060  136.7480 P   0  0  1  0  0  0  0  0  0  0  0  0
  187.5080  171.0870  136.0900 C   0  0  0  0  0  2  0  0  0  0  0  0
  190.2180  173.6670  136.4830 C   0  0  0  0  0  2  0  0  0  0  0  0
  191.1890  174.7680  136.5690 N   0  0  0  0  0  2  0  0  0  0  0  0
  192.5110  174.6420  136.0550 C   0  0  0  0  0  0  0  0  0  0  0  0
  192.8740  175.3860  135.1060 O   0  0  0  0  0  0  0  0  0  0  0  0
  193.4780  173.7120  136.6620 C   0  0  0  0  0  0  0  0  0  0  0  0
  194.5800  171.4770  136.7560 C   0  0  2  0  0  3  0  0  0  0  0  0
  194.1610  174.1100  137.9470 C   0  0  0  0  0  2  0  0  0  0  0  0
  193.6750  172.5000  136.1180 C   0  0  0  0  0  3  0  0  0  0  0  0
  195.4510  173.3680  138.1400 C   0  0  0  0  0  0  0  0  0  0  0  0
  196.3190  173.8380  138.9250 O   0  0  0  0  0  0  0  0  0  0  0  0
  195.6650  172.0970  137.5210 N   0  0  0  0  0  0  0  0  0  0  0  0
  196.7410  171.3590  137.8860 O   0  0  0  0  0  1  0  0  0  0  0  0
  195.1490  170.5720  135.6810 C   0  0  0  0  0  1  0  0  0  0  0  0
  189.1580  178.8110  137.9540 C   0  0  2  0  0  3  0  0  0  0  0  0
  189.1020  179.7040  136.7260 C   0  0  0  0  0  1  0  0  0  0  0  0
  189.7600  177.6070  137.6170 O   0  0  0  0  0  0  0  0  0  0  0  0
  190.8080  177.4540  138.5380 C   0  0  0  0  0  1  0  0  0  0  0  0
  187.4200  176.8550  142.7550 C   0  0  0  0  0  2  0  0  0  0  0  0
  188.0590  177.4750  143.9980 C   0  0  0  0  0  2  0  0  0  0  0  0
  187.0100  177.6740  145.0870 C   0  0  0  0  0  2  0  0  0  0  0  0
  187.6040  178.2780  146.2750 N   0  0  0  0  0  0  0  0  0  0  0  0
  186.7830  178.6500  147.3920 C   0  0  0  0  0  0  0  0  0  0  0  0
  187.3300  178.9590  148.4910 O   0  0  0  0  0  0  0  0  0  0  0  0
  189.0530  178.2390  146.4210 C   0  0  0  0  0  2  0  0  0  0  0  0
  189.9890  177.4020  148.4390 O   0  0  0  0  0  0  0  0  0  0  0  0
  189.4680  176.9940  147.1970 C   0  0  2  0  0  3  0  0  0  0  0  0
  190.9240  177.0470  147.4480 C   0  0  2  0  0  3  0  0  0  0  0  0
  191.4520  175.6500  147.7160 C   0  0  0  0  0  3  0  0  0  0  0  0
  192.9620  175.7050  147.9200 C   0  0  0  0  0  2  0  0  0  0  0  0
  192.3960  175.2610  146.5940 C   0  0  0  0  0  2  0  0  0  0  0  0
  185.3850  178.6660  147.2650 O   0  0  0  0  0  0  0  0  0  0  0  0
  184.7110  178.0270  146.1880 C   0  0  0  0  0  2  0  0  0  0  0  0
  183.7850  179.0010  145.4870 C   0  0  0  0  0  1  0  0  0  0  0  0
  1 11  1  6  0  0  0
  1 13  1  0  0  0  0
  2  9  1  1  0  0  0
  2  5  1  0  0  0  0
  3 19  1  0  0  0  0
  5  6  1  0  0  0  0
  6  3  1  0  0  0  0
  7 17  1  0  0  0  0
  8 51  1  1  0  0  0
  8 20  1  0  0  0  0
  8 11  1  0  0  0  0
 10 19  1  0  0  0  0
 10 13  1  0  0  0  0
 10 12  1  1  0  0  0
 13 55  1  0  0  0  0
 15  1  1  0  0  0  0
 16 20  1  0  0  0  0
 16 14  1  1  0  0  0
 17  4  1  6  0  0  0
 17 18  1  0  0  0  0
 17  2  1  0  0  0  0
 18 16  1  0  0  0  0
 19 12  1  1  0  0  0
 20 15  1  1  0  0  0
 21 27  1  0  0  0  0
 21 24  1  0  0  0  0
 22 27  1  6  0  0  0
 25 28  1  0  0  0  0
 25 36  1  0  0  0  0
 26 33  1  1  0  0  0
 26 34  1  0  0  0  0
 26 28  1  0  0  0  0
 28 23  1  1  0  0  0
 30 16  1  6  0  0  0
 32 22  1  0  0  0  0
 32 34  1  0  0  0  0
 33 37  1  0  0  0  0
 34 38  1  6  0  0  0
 35 24  1  1  0  0  0
 35 22  1  0  0  0  0
 35 30  1  0  0  0  0
 36 31  2  6  0  0  0
 36 30  1  0  0  0  0
 36 29  1  0  0  0  0
 37 28  1  0  0  0  0
 38 39  1  0  0  0  0
 40 39  1  0  0  0  0
 40 42  1  0  0  0  0
 41 40  2  0  0  0  0
 42 44  1  0  0  0  0
 43 50  1  6  0  0  0
 43 48  1  0  0  0  0
 44 46  1  0  0  0  0
 45 42  2  0  0  0  0
 45 43  1  0  0  0  0
 46 47  2  0  0  0  0
 48 49  1  0  0  0  0
 48 46  1  0  0  0  0
 51 52  1  6  0  0  0
 53 51  1  0  0  0  0
 53 54  1  0  0  0  0
 55 56  1  0  0  0  0
 56 57  1  0  0  0  0
 57 58  1  0  0  0  0
 58 61  1  0  0  0  0
 58 59  1  0  0  0  0
 59 60  2  0  0  0  0
 63 61  1  6  0  0  0
 63 64  1  0  0  0  0
 63 62  1  0  0  0  0
 64 65  1  1  0  0  0
 64 62  1  0  0  0  0
 65 66  1  0  0  0  0
 67 65  1  0  0  0  0
 67 66  1  0  0  0  0
 68 59  1  0  0  0  0
 69 68  1  0  0  0  0
 70 69  1  0  0  0  0
M  END
>  <MODEL>
8

>  <REMARK>
 VINA RESULT:      -2.7      3.053      5.616
  Name = 
  15 active torsions:
  status: ('A' for Active; 'I' for Inactive)
    1  A    between atoms: C_3  and  C_58
    2  A    between atoms: C_3  and  N_59
    3  A    between atoms: C_7  and  N_20
    4  A    between atoms: C_7  and  C_28
    5  A    between atoms: C_8  and  C_65
    6  A    between atoms: C_13  and  C_16
    7  A    between atoms: C_13  and  C_29
    8  A    between atoms: O_14  and  C_26
    9  A    between atoms: O_14  and  C_38
   10  A    between atoms: C_16  and  N_20
   11  A    between atoms: C_19  and  C_23
   12  A    between atoms: C_23  and  O_53
   13  A    between atoms: C_29  and  N_30
   14  A    between atoms: C_31  and  C_36
   15  A    between atoms: C_49  and  C_50
                            x       y       z     vdW  Elec       q    Type
                         _______ _______ _______ _____ _____    ______ ____

>  <TORSDO>
F 15

$$$$
=
 OpenBabel11062418123D

 70 78  0  0  1  0  0  0  0  0999 V2000
  185.0240  178.7930  140.4070 C   0  0  1  0  0  3  0  0  0  0  0  0
  180.7180  179.1710  143.6170 C   0  0  1  0  0  3  0  0  0  0  0  0
  183.5730  179.9300  144.1190 O   0  0  0  0  0  0  0  0  0  0  0  0
  179.0290  179.4040  142.0250 F   0  0  0  0  0  0  0  0  0  0  0  0
  181.8560  178.2670  144.1250 C   0  0  0  0  0  2  0  0  0  0  0  0
  182.9180  178.9970  144.9450 C   0  0  0  0  0  2  0  0  0  0  0  0
  179.7970  177.3330  142.3800 O   0  0  0  0  0  1  0  0  0  0  0  0
  183.1760  179.7820  139.7090 C   0  0  2  0  0  3  0  0  0  0  0  0
  181.0810  180.5050  143.5220 F   0  0  0  0  0  0  0  0  0  0  0  0
  184.7720  178.3630  142.7420 C   0  0  2  0  0  3  0  0  0  0  0  0
  184.3310  180.0140  140.4410 O   0  0  0  0  0  0  0  0  0  0  0  0
  185.3950  178.1410  144.1150 C   0  0  0  0  0  2  0  0  0  0  0  0
  185.7410  178.6030  141.6710 N   0  0  0  0  0  0  0  0  0  0  0  0
  182.3000  177.0340  141.6780 F   0  0  0  0  0  0  0  0  0  0  0  0
  184.1640  177.7070  140.1280 O   0  0  0  0  0  0  0  0  0  0  0  0
  181.7730  177.8050  140.6520 C   0  0  1  0  0  0  0  0  0  0  0  0
  180.1710  178.6740  142.2720 C   0  0  2  0  0  0  0  0  0  0  0  0
  181.0970  178.9440  141.2100 O   0  0  0  0  0  0  0  0  0  0  0  0
  184.8780  179.5260  143.7150 C   0  0  2  0  0  3  0  0  0  0  0  0
  182.9480  178.2820  139.7370 C   0  0  1  0  0  3  0  0  0  0  0  0
  179.0160  179.9910  138.9150 C   0  0  0  0  0  2  0  0  0  0  0  0
  180.2450  178.2290  137.7330 C   0  0  2  0  0  3  0  0  0  0  0  0
  181.9570  174.4990  138.3010 O   0  0  0  0  0  1  0  0  0  0  0  0
  178.9760  178.7430  139.7850 C   0  0  0  0  0  2  0  0  0  0  0  0
  179.7750  174.1000  139.3340 C   0  0  0  0  0  2  0  0  0  0  0  0
  179.9530  175.0660  137.0110 C   0  0  2  0  0  3  0  0  0  0  0  0
  179.6040  179.5900  137.5760 C   0  0  0  0  0  2  0  0  0  0  0  0
  180.6130  174.1910  138.0670 C   0  0  1  0  0  0  0  0  0  0  0  0
  181.5480  174.6900  141.4660 O   0  0  0  0  0  0  0  0  0  0  0  0
  180.7850  176.9260  139.8270 C   0  0  2  0  0  3  0  0  0  0  0  0
  179.0880  175.5900  141.5120 O   0  0  0  0  0  1  0  0  0  0  0  0
  179.9630  177.4520  136.6000 O   0  0  0  0  0  0  0  0  0  0  0  0
  180.0120  173.9240  136.0150 C   0  0  0  0  0  2  0  0  0  0  0  0
  180.7740  176.3110  136.6820 C   0  0  2  0  0  3  0  0  0  0  0  0
  179.6740  177.6340  139.0200 C   0  0  2  0  0  3  0  0  0  0  0  0
  180.2550  175.3420  140.5850 P   0  0  1  0  0  0  0  0  0  0  0  0
  180.5200  173.0100  137.1260 C   0  0  0  0  0  2  0  0  0  0  0  0
  181.8090  176.1720  135.5440 C   0  0  0  0  0  2  0  0  0  0  0  0
  183.1570  176.5650  135.9770 N   0  0  0  0  0  2  0  0  0  0  0  0
  184.3160  176.2190  135.2240 C   0  0  0  0  0  0  0  0  0  0  0  0
  185.0170  177.1360  134.7210 O   0  0  0  0  0  0  0  0  0  0  0  0
  184.7440  174.8170  135.0880 C   0  0  0  0  0  0  0  0  0  0  0  0
  186.5200  173.1170  134.6680 C   0  0  2  0  0  3  0  0  0  0  0  0
  183.6930  173.7350  135.0570 C   0  0  0  0  0  2  0  0  0  0  0  0
  186.0430  174.5260  134.9090 C   0  0  0  0  0  3  0  0  0  0  0  0
  184.2570  172.4030  135.4570 C   0  0  0  0  0  0  0  0  0  0  0  0
  183.4740  171.4990  135.8570 O   0  0  0  0  0  0  0  0  0  0  0  0
  185.6500  172.1210  135.3000 N   0  0  0  0  0  0  0  0  0  0  0  0
  186.0870  170.8500  135.4650 O   0  0  0  0  0  1  0  0  0  0  0  0
  187.9390  172.9730  135.1820 C   0  0  0  0  0  1  0  0  0  0  0  0
  183.3090  180.2960  138.2690 C   0  0  2  0  0  3  0  0  0  0  0  0
  182.3390  181.4310  137.9870 C   0  0  0  0  0  1  0  0  0  0  0  0
  183.0760  179.2620  137.3740 O   0  0  0  0  0  0  0  0  0  0  0  0
  182.4260  179.8620  136.2840 C   0  0  0  0  0  1  0  0  0  0  0  0
  186.6750  177.4840  141.5350 C   0  0  0  0  0  2  0  0  0  0  0  0
  188.1100  178.0050  141.5970 C   0  0  0  0  0  2  0  0  0  0  0  0
  188.9980  177.0190  142.3470 C   0  0  0  0  0  2  0  0  0  0  0  0
  190.3580  177.5320  142.4680 N   0  0  0  0  0  0  0  0  0  0  0  0
  190.8470  178.0140  143.7270 C   0  0  0  0  0  0  0  0  0  0  0  0
  192.0850  178.2430  143.8700 O   0  0  0  0  0  0  0  0  0  0  0  0
  191.2900  177.2890  141.3730 C   0  0  0  0  0  2  0  0  0  0  0  0
  191.5020  176.3940  139.1820 O   0  0  0  0  0  0  0  0  0  0  0  0
  190.5670  176.6250  140.2080 C   0  0  2  0  0  3  0  0  0  0  0  0
  190.6530  177.5060  139.0230 C   0  0  2  0  0  3  0  0  0  0  0  0
  189.5420  177.1690  138.0470 C   0  0  0  0  0  3  0  0  0  0  0  0
  189.4540  178.2530  136.9780 C   0  0  0  0  0  2  0  0  0  0  0  0
  188.4770  178.2470  138.1280 C   0  0  0  0  0  2  0  0  0  0  0  0
  189.9590  178.2270  144.7940 O   0  0  0  0  0  0  0  0  0  0  0  0
  190.0440  177.4980  146.0120 C   0  0  0  0  0  2  0  0  0  0  0  0
  188.6600  177.2280  146.5690 C   0  0  0  0  0  1  0  0  0  0  0  0
  1 15  1  1  0  0  0
  1 11  1  0  0  0  0
  1 13  1  0  0  0  0
  2  9  1  6  0  0  0
  2  5  1  0  0  0  0
  3  6  1  0  0  0  0
  5  6  1  0  0  0  0
  8 51  1  6  0  0  0
  8 20  1  0  0  0  0
  8 11  1  0  0  0  0
 10 19  1  0  0  0  0
 10 12  1  1  0  0  0
 13 10  1  0  0  0  0
 16 18  1  0  0  0  0
 16 14  1  1  0  0  0
 17  4  1  6  0  0  0
 17  7  1  0  0  0  0
 17  2  1  0  0  0  0
 18 17  1  0  0  0  0
 19 12  1  1  0  0  0
 19  3  1  0  0  0  0
 20 15  1  1  0  0  0
 20 16  1  0  0  0  0
 21 24  1  0  0  0  0
 22 27  1  6  0  0  0
 22 35  1  0  0  0  0
 25 36  1  0  0  0  0
 26 33  1  6  0  0  0
 26 28  1  0  0  0  0
 27 21  1  0  0  0  0
 28 23  1  1  0  0  0
 28 25  1  0  0  0  0
 30 36  1  0  0  0  0
 30 16  1  1  0  0  0
 32 34  1  0  0  0  0
 32 22  1  0  0  0  0
 33 37  1  0  0  0  0
 34 38  1  6  0  0  0
 34 26  1  0  0  0  0
 35 24  1  1  0  0  0
 35 30  1  0  0  0  0
 36 29  2  1  0  0  0
 36 31  1  0  0  0  0
 37 28  1  0  0  0  0
 38 39  1  0  0  0  0
 40 39  1  0  0  0  0
 41 40  2  0  0  0  0
 42 40  1  0  0  0  0
 43 45  1  0  0  0  0
 43 50  1  1  0  0  0
 43 48  1  0  0  0  0
 44 42  1  0  0  0  0
 44 46  1  0  0  0  0
 45 42  2  0  0  0  0
 46 47  2  0  0  0  0
 48 46  1  0  0  0  0
 48 49  1  0  0  0  0
 51 52  1  6  0  0  0
 53 51  1  0  0  0  0
 54 53  1  0  0  0  0
 55 56  1  0  0  0  0
 55 13  1  0  0  0  0
 56 57  1  0  0  0  0
 57 58  1  0  0  0  0
 58 59  1  0  0  0  0
 59 60  2  0  0  0  0
 59 68  1  0  0  0  0
 61 58  1  0  0  0  0
 62 63  1  0  0  0  0
 63 61  1  1  0  0  0
 64 65  1  6  0  0  0
 64 62  1  0  0  0  0
 64 63  1  0  0  0  0
 65 67  1  0  0  0  0
 66 65  1  0  0  0  0
 66 67  1  0  0  0  0
 68 69  1  0  0  0  0
 69 70  1  0  0  0  0
M  END
>  <MODEL>
9

>  <REMARK>
 VINA RESULT:      -2.5      1.815      2.640
  Name = 
  15 active torsions:
  status: ('A' for Active; 'I' for Inactive)
    1  A    between atoms: C_3  and  C_58
    2  A    between atoms: C_3  and  N_59
    3  A    between atoms: C_7  and  N_20
    4  A    between atoms: C_7  and  C_28
    5  A    between atoms: C_8  and  C_65
    6  A    between atoms: C_13  and  C_16
    7  A    between atoms: C_13  and  C_29
    8  A    between atoms: O_14  and  C_26
    9  A    between atoms: O_14  and  C_38
   10  A    between atoms: C_16  and  N_20
   11  A    between atoms: C_19  and  C_23
   12  A    between atoms: C_23  and  O_53
   13  A    between atoms: C_29  and  N_30
   14  A    between atoms: C_31  and  C_36
   15  A    between atoms: C_49  and  C_50
                            x       y       z     vdW  Elec       q    Type
                         _______ _______ _______ _____ _____    ______ ____

>  <TORSDO>
F 15

$$$$
