=
 OpenBabel11062411023D

 49 53  0  0  1  0  0  0  0  0999 V2000
  188.4030  177.6240  139.0700 C   0  0  1  0  0  3  0  0  0  0  0  0
  189.3910  178.6240  139.1020 O   0  0  0  0  0  0  0  0  0  0  0  0
  188.9120  178.1660  140.3450 C   0  0  2  0  0  3  0  0  0  0  0  0
  187.1120  178.2210  138.7760 N   0  0  0  0  0  2  0  0  0  0  0  0
  186.4370  177.9450  137.5490 C   0  0  0  0  0  0  0  0  0  0  0  0
  186.7940  178.6310  136.4690 C   0  0  0  0  0  2  0  0  0  0  0  0
  185.4430  176.9480  137.5160 O   0  0  0  0  0  0  0  0  0  0  0  0
  183.2250  175.8920  138.2760 C   0  0  0  0  0  2  0  0  0  0  0  0
  181.5800  176.5650  138.7020 S   0  0  0  0  0  0  0  0  0  0  0  0
  182.2260  178.2110  138.5880 N   0  0  0  0  0  0  0  0  0  0  0  0
  184.1210  177.0560  137.9710 C   0  0  0  0  0  0  0  0  0  0  0  0
  183.5740  178.2470  138.1420 C   0  0  0  0  0  3  0  0  0  0  0  0
  180.4660  181.5040  138.2850 C   0  0  0  0  0  0  0  0  0  0  0  0
  180.9430  179.5380  140.2240 C   0  0  0  0  0  3  0  0  0  0  0  0
  181.4730  179.3820  138.9320 C   0  0  0  0  0  0  0  0  0  0  0  0
  179.9380  181.6410  139.5750 C   0  0  0  0  0  3  0  0  0  0  0  0
  180.1760  180.6670  140.5520 C   0  0  0  0  0  0  0  0  0  0  0  0
  181.2300  180.3740  137.9680 C   0  0  0  0  0  3  0  0  0  0  0  0
  180.0010  183.0870  134.8310 C   0  0  0  0  0  2  0  0  0  0  0  0
  180.9580  184.6410  136.1590 C   0  0  0  0  0  2  0  0  0  0  0  0
  181.1070  183.9510  134.9400 O   0  0  0  0  0  0  0  0  0  0  0  0
  180.1760  182.5550  137.2600 C   0  0  0  0  0  3  0  0  0  0  0  0
  180.1160  181.9580  135.8540 C   0  0  0  0  0  2  0  0  0  0  0  0
  181.1960  183.6880  137.3290 C   0  0  0  0  0  2  0  0  0  0  0  0
  179.6340  180.8430  141.8320 O   0  0  0  0  0  0  0  0  0  0  0  0
  179.9000  179.9590  142.9130 C   0  0  0  0  0  1  0  0  0  0  0  0
  189.9000  177.1850  140.9410 C   0  0  0  0  0  2  0  0  0  0  0  0
  188.8010  177.7280  142.9440 O   0  0  0  0  0  0  0  0  0  0  0  0
  189.7150  177.1090  142.4250 C   0  0  0  0  0  0  0  0  0  0  0  0
  190.6310  176.2670  143.2710 C   0  0  0  0  0  2  0  0  0  0  0  0
  191.7130  178.5110  143.7420 C   0  0  0  0  0  1  0  0  0  0  0  0
  191.5580  177.0690  144.1950 C   0  0  1  0  0  3  0  0  0  0  0  0
  191.2410  176.9690  145.6950 C   0  0  2  0  0  3  0  0  0  0  0  0
  192.4740  176.0970  147.5140 O   0  0  0  0  0  0  0  0  0  0  0  0
  192.0760  175.9240  146.3700 C   0  0  0  0  0  3  0  0  0  0  0  0
  189.8820  176.7230  145.9160 O   0  0  0  0  0  0  0  0  0  0  0  0
  189.3490  177.9580  146.3090 C   0  0  0  0  0  2  0  0  0  0  0  0
  188.3270  177.7760  148.5290 C   0  0  0  0  0  2  0  0  0  0  0  0
  188.1710  177.7420  147.2100 C   0  0  0  0  0  0  0  0  0  0  0  0
  186.8700  177.2850  146.6320 C   0  0  0  0  0  2  0  0  0  0  0  0
  185.9800  178.4490  146.3270 C   0  0  0  0  0  0  0  0  0  0  0  0
  185.9230  180.3860  147.9790 O   0  0  0  0  0  0  0  0  0  0  0  0
  185.9480  179.4460  147.1760 C   0  0  0  0  0  0  0  0  0  0  0  0
  185.1460  178.2120  142.6340 C   0  0  0  0  0  3  0  0  0  0  0  0
  183.1950  179.0270  143.8140 C   0  0  0  0  0  3  0  0  0  0  0  0
  185.8440  178.1380  143.8440 C   0  0  0  0  0  3  0  0  0  0  0  0
  183.8890  178.9510  145.0230 C   0  0  0  0  0  3  0  0  0  0  0  0
  185.2240  178.5080  145.0520 C   0  0  0  0  0  0  0  0  0  0  0  0
  183.8240  178.6610  142.6190 C   0  0  0  0  0  3  0  0  0  0  0  0
  1  4  1  6  0  0  0
  1  2  1  0  0  0  0
  1  3  1  0  0  0  0
  2  3  1  0  0  0  0
  3 27  1  1  0  0  0
  5  4  1  0  0  0  0
  6  5  2  0  0  0  0
  7  5  1  0  0  0  0
  7 11  1  0  0  0  0
  8  9  1  0  0  0  0
 10  9  1  0  0  0  0
 10 15  1  0  0  0  0
 11 12  2  0  0  0  0
 11  8  1  0  0  0  0
 12 10  1  0  0  0  0
 13 16  1  0  0  0  0
 14 17  1  0  0  0  0
 15 14  2  0  0  0  0
 16 17  2  0  0  0  0
 17 25  1  0  0  0  0
 18 13  2  0  0  0  0
 18 15  1  0  0  0  0
 19 21  1  0  0  0  0
 19 23  1  0  0  0  0
 20 24  1  0  0  0  0
 21 20  1  0  0  0  0
 22 24  1  0  0  0  0
 22 13  1  0  0  0  0
 23 22  1  0  0  0  0
 25 26  1  0  0  0  0
 27 29  1  0  0  0  0
 29 28  2  0  0  0  0
 29 30  1  0  0  0  0
 30 32  1  0  0  0  0
 32 31  1  6  0  0  0
 32 33  1  0  0  0  0
 33 36  1  0  0  0  0
 33 35  1  6  0  0  0
 35 34  2  0  0  0  0
 36 37  1  0  0  0  0
 37 39  1  0  0  0  0
 39 38  2  0  0  0  0
 40 39  1  0  0  0  0
 41 40  1  0  0  0  0
 41 43  2  0  0  0  0
 43 42  2  0  0  0  0
 44 46  1  0  0  0  0
 45 47  2  0  0  0  0
 46 48  2  0  0  0  0
 47 48  1  0  0  0  0
 48 41  1  0  0  0  0
 49 44  2  0  0  0  0
 49 45  1  0  0  0  0
M  END
>  <MODEL>
1

>  <REMARK>
 VINA RESULT:      -8.9      0.000      0.000
  Name = 
  19 active torsions:
  status: ('A' for Active; 'I' for Inactive)
    1  A    between atoms: O_1  and  C_6
    2  A    between atoms: O_1  and  C_10
    3  A    between atoms: C_2  and  N_25
    4  A    between atoms: C_2  and  O_36
    5  A    between atoms: C_4  and  C_44
    6  A    between atoms: C_6  and  C_20
    7  A    between atoms: C_6  and  C_47
    8  A    between atoms: C_7  and  C_28
    9  A    between atoms: C_7  and  C_48
   10  A    between atoms: C_10  and  C_39
   11  A    between atoms: C_14  and  N_25
   12  A    between atoms: O_15  and  C_30
   13  A    between atoms: N_16  and  C_18
   14  A    between atoms: C_19  and  O_36
   15  A    between atoms: C_20  and  C_26
   16  A    between atoms: C_26  and  C_29
   17  A    between atoms: C_29  and  C_40
   18  A    between atoms: C_32  and  C_40
   19  A    between atoms: C_39  and  C_48
                            x       y       z     vdW  Elec       q    Type
                         _______ _______ _______ _____ _____    ______ ____

>  <TORSDO>
F 19

$$$$
=
 OpenBabel11062411023D

 49 53  0  0  1  0  0  0  0  0999 V2000
  186.8290  178.9160  141.1360 C   0  0  1  0  0  3  0  0  0  0  0  0
  188.2020  178.9490  141.4420 O   0  0  0  0  0  0  0  0  0  0  0  0
  187.7940  178.0270  140.4580 C   0  0  2  0  0  3  0  0  0  0  0  0
  186.1190  178.1640  142.1570 N   0  0  0  0  0  2  0  0  0  0  0  0
  184.8040  178.5380  142.5640 C   0  0  0  0  0  0  0  0  0  0  0  0
  184.4990  178.4570  143.8540 C   0  0  0  0  0  2  0  0  0  0  0  0
  183.8890  179.0030  141.5990 O   0  0  0  0  0  0  0  0  0  0  0  0
  181.4060  178.5060  141.1520 C   0  0  0  0  0  2  0  0  0  0  0  0
  180.5190  177.2020  140.2280 S   0  0  0  0  0  0  0  0  0  0  0  0
  182.0640  176.5910  139.6120 N   0  0  0  0  0  0  0  0  0  0  0  0
  182.8750  178.2650  140.9710 C   0  0  0  0  0  0  0  0  0  0  0  0
  183.1850  177.2640  140.1660 C   0  0  0  0  0  3  0  0  0  0  0  0
  183.5370  174.1520  137.1800 C   0  0  0  0  0  0  0  0  0  0  0  0
  181.0290  174.8280  138.2320 C   0  0  0  0  0  3  0  0  0  0  0  0
  182.1690  175.5420  138.6390 C   0  0  0  0  0  0  0  0  0  0  0  0
  182.3930  173.4440  136.7910 C   0  0  0  0  0  3  0  0  0  0  0  0
  181.1360  173.7790  137.3050 C   0  0  0  0  0  0  0  0  0  0  0  0
  183.4200  175.1970  138.1050 C   0  0  0  0  0  3  0  0  0  0  0  0
  187.0550  172.6470  137.0730 C   0  0  0  0  0  2  0  0  0  0  0  0
  187.0930  174.5320  135.8330 C   0  0  0  0  0  2  0  0  0  0  0  0
  187.7140  173.8800  136.9170 O   0  0  0  0  0  0  0  0  0  0  0  0
  184.8690  173.7560  136.6240 C   0  0  0  0  0  3  0  0  0  0  0  0
  185.6400  172.8720  137.6040 C   0  0  0  0  0  2  0  0  0  0  0  0
  185.6890  174.9820  136.2310 C   0  0  0  0  0  2  0  0  0  0  0  0
  180.0150  173.0490  136.8870 O   0  0  0  0  0  0  0  0  0  0  0  0
  179.8740  171.6520  137.1110 C   0  0  0  0  0  1  0  0  0  0  0  0
  188.0970  178.5830  139.0830 C   0  0  0  0  0  2  0  0  0  0  0  0
  189.5070  178.0230  137.2890 O   0  0  0  0  0  0  0  0  0  0  0  0
  189.0270  177.6650  138.3520 C   0  0  0  0  0  0  0  0  0  0  0  0
  189.3870  176.3200  138.9250 C   0  0  0  0  0  2  0  0  0  0  0  0
  191.6160  175.5710  137.9780 C   0  0  0  0  0  1  0  0  0  0  0  0
  190.8850  176.1230  139.1910 C   0  0  1  0  0  3  0  0  0  0  0  0
  191.6120  177.3340  139.7970 C   0  0  2  0  0  3  0  0  0  0  0  0
  193.9060  177.9000  139.7070 O   0  0  0  0  0  0  0  0  0  0  0  0
  193.0700  177.0580  140.0050 C   0  0  0  0  0  3  0  0  0  0  0  0
  191.0180  177.7410  140.9960 O   0  0  0  0  0  0  0  0  0  0  0  0
  191.3910  176.7680  141.9340 C   0  0  0  0  0  2  0  0  0  0  0  0
  189.3910  175.9840  143.1130 C   0  0  0  0  0  2  0  0  0  0  0  0
  190.4450  176.7920  143.0970 C   0  0  0  0  0  0  0  0  0  0  0  0
  190.5720  177.8620  144.1330 C   0  0  0  0  0  2  0  0  0  0  0  0
  190.4100  177.2970  145.5100 C   0  0  0  0  0  0  0  0  0  0  0  0
  192.2900  175.8590  146.4490 O   0  0  0  0  0  0  0  0  0  0  0  0
  191.3750  176.5560  145.9950 C   0  0  0  0  0  0  0  0  0  0  0  0
  188.2440  178.1190  148.5140 C   0  0  0  0  0  3  0  0  0  0  0  0
  186.8450  178.0940  146.5380 C   0  0  0  0  0  3  0  0  0  0  0  0
  189.3580  177.8140  147.7250 C   0  0  0  0  0  3  0  0  0  0  0  0
  187.9560  177.7930  145.7490 C   0  0  0  0  0  3  0  0  0  0  0  0
  189.2280  177.6450  146.3340 C   0  0  0  0  0  0  0  0  0  0  0  0
  186.9880  178.2540  147.9200 C   0  0  0  0  0  3  0  0  0  0  0  0
  1  2  1  0  0  0  0
  1  4  1  1  0  0  0
  3 27  1  6  0  0  0
  3  1  1  0  0  0  0
  3  2  1  0  0  0  0
  4  5  1  0  0  0  0
  5  6  2  0  0  0  0
  7  5  1  0  0  0  0
  9  8  1  0  0  0  0
 10 12  1  0  0  0  0
 10  9  1  0  0  0  0
 11  8  1  0  0  0  0
 11  7  1  0  0  0  0
 12 11  2  0  0  0  0
 13 18  1  0  0  0  0
 14 15  1  0  0  0  0
 15 10  1  0  0  0  0
 16 13  2  0  0  0  0
 16 17  1  0  0  0  0
 17 14  2  0  0  0  0
 18 15  2  0  0  0  0
 19 23  1  0  0  0  0
 20 24  1  0  0  0  0
 20 21  1  0  0  0  0
 21 19  1  0  0  0  0
 22 13  1  0  0  0  0
 22 23  1  0  0  0  0
 24 22  1  0  0  0  0
 25 26  1  0  0  0  0
 25 17  1  0  0  0  0
 28 29  2  0  0  0  0
 29 30  1  0  0  0  0
 29 27  1  0  0  0  0
 30 32  1  0  0  0  0
 32 31  1  6  0  0  0
 32 33  1  0  0  0  0
 33 35  1  1  0  0  0
 33 36  1  0  0  0  0
 34 35  2  0  0  0  0
 36 37  1  0  0  0  0
 37 39  1  0  0  0  0
 39 38  2  0  0  0  0
 39 40  1  0  0  0  0
 40 41  1  0  0  0  0
 41 43  2  0  0  0  0
 41 48  1  0  0  0  0
 43 42  2  0  0  0  0
 45 49  2  0  0  0  0
 46 44  2  0  0  0  0
 47 48  2  0  0  0  0
 47 45  1  0  0  0  0
 48 46  1  0  0  0  0
 49 44  1  0  0  0  0
M  END
>  <MODEL>
2

>  <REMARK>
 VINA RESULT:      -8.0      3.371      6.589
  Name = 
  19 active torsions:
  status: ('A' for Active; 'I' for Inactive)
    1  A    between atoms: O_1  and  C_6
    2  A    between atoms: O_1  and  C_10
    3  A    between atoms: C_2  and  N_25
    4  A    between atoms: C_2  and  O_36
    5  A    between atoms: C_4  and  C_44
    6  A    between atoms: C_6  and  C_20
    7  A    between atoms: C_6  and  C_47
    8  A    between atoms: C_7  and  C_28
    9  A    between atoms: C_7  and  C_48
   10  A    between atoms: C_10  and  C_39
   11  A    between atoms: C_14  and  N_25
   12  A    between atoms: O_15  and  C_30
   13  A    between atoms: N_16  and  C_18
   14  A    between atoms: C_19  and  O_36
   15  A    between atoms: C_20  and  C_26
   16  A    between atoms: C_26  and  C_29
   17  A    between atoms: C_29  and  C_40
   18  A    between atoms: C_32  and  C_40
   19  A    between atoms: C_39  and  C_48
                            x       y       z     vdW  Elec       q    Type
                         _______ _______ _______ _____ _____    ______ ____

>  <TORSDO>
F 19

$$$$
=
 OpenBabel11062411023D

 49 53  0  0  1  0  0  0  0  0999 V2000
  190.5760  176.6770  146.3730 C   0  0  1  0  0  3  0  0  0  0  0  0
  190.9730  177.0410  147.6720 O   0  0  0  0  0  0  0  0  0  0  0  0
  189.8250  177.6750  147.1600 C   0  0  2  0  0  3  0  0  0  0  0  0
  191.4070  177.3610  145.3970 N   0  0  0  0  0  2  0  0  0  0  0  0
  191.5550  176.8530  144.0720 C   0  0  0  0  0  0  0  0  0  0  0  0
  191.6480  175.5370  143.9120 C   0  0  0  0  0  2  0  0  0  0  0  0
  191.5710  177.7490  142.9860 O   0  0  0  0  0  0  0  0  0  0  0  0
  189.3130  178.1660  141.8270 C   0  0  0  0  0  2  0  0  0  0  0  0
  188.6560  177.8010  140.1610 S   0  0  0  0  0  0  0  0  0  0  0  0
  190.2650  177.2670  139.6460 N   0  0  0  0  0  0  0  0  0  0  0  0
  190.7450  177.7200  141.8530 C   0  0  0  0  0  0  0  0  0  0  0  0
  191.2100  177.2570  140.7050 C   0  0  0  0  0  3  0  0  0  0  0  0
  192.1460  175.9670  136.6780 C   0  0  0  0  0  0  0  0  0  0  0  0
  189.6340  177.0600  137.2700 C   0  0  0  0  0  3  0  0  0  0  0  0
  190.5830  176.9040  138.2950 C   0  0  0  0  0  0  0  0  0  0  0  0
  191.1870  176.1220  135.6700 C   0  0  0  0  0  3  0  0  0  0  0  0
  189.9320  176.6720  135.9540 C   0  0  0  0  0  0  0  0  0  0  0  0
  191.8390  176.3570  137.9880 C   0  0  0  0  0  3  0  0  0  0  0  0
  195.5820  174.3730  137.2280 C   0  0  0  0  0  2  0  0  0  0  0  0
  195.7560  175.7430  135.4430 C   0  0  0  0  0  2  0  0  0  0  0  0
  196.3090  175.4600  136.7070 O   0  0  0  0  0  0  0  0  0  0  0  0
  193.4710  175.3590  136.3430 C   0  0  0  0  0  3  0  0  0  0  0  0
  194.1660  174.8170  137.5920 C   0  0  0  0  0  2  0  0  0  0  0  0
  194.3660  176.3540  135.6090 C   0  0  0  0  0  2  0  0  0  0  0  0
  189.0020  176.8140  134.9160 O   0  0  0  0  0  0  0  0  0  0  0  0
  187.6220  176.5110  135.0680 C   0  0  0  0  0  1  0  0  0  0  0  0
  188.5850  177.0210  147.7330 C   0  0  0  0  0  2  0  0  0  0  0  0
  187.2290  178.9010  148.1190 O   0  0  0  0  0  0  0  0  0  0  0  0
  187.3860  177.8790  147.4700 C   0  0  0  0  0  0  0  0  0  0  0  0
  186.3890  177.5020  146.4070 C   0  0  0  0  0  2  0  0  0  0  0  0
  187.4780  176.8120  144.2240 C   0  0  0  0  0  1  0  0  0  0  0  0
  186.7840  177.9290  144.9870 C   0  0  1  0  0  3  0  0  0  0  0  0
  185.6650  178.5800  144.1590 C   0  0  2  0  0  3  0  0  0  0  0  0
  183.7210  179.3660  145.2500 O   0  0  0  0  0  0  0  0  0  0  0  0
  184.3240  178.4010  144.8020 C   0  0  0  0  0  3  0  0  0  0  0  0
  185.6450  178.0900  142.8500 O   0  0  0  0  0  0  0  0  0  0  0  0
  185.3010  179.1930  142.0550 C   0  0  0  0  0  2  0  0  0  0  0  0
  183.4380  177.8730  141.1650 C   0  0  0  0  0  2  0  0  0  0  0  0
  184.4050  178.7550  140.9360 C   0  0  0  0  0  0  0  0  0  0  0  0
  184.7270  179.1490  139.5310 C   0  0  0  0  0  2  0  0  0  0  0  0
  183.5100  179.0870  138.6620 C   0  0  0  0  0  0  0  0  0  0  0  0
  181.8700  181.0330  138.7470 O   0  0  0  0  0  0  0  0  0  0  0  0
  182.6640  180.0860  138.7050 C   0  0  0  0  0  0  0  0  0  0  0  0
  184.1960  176.0040  136.5610 C   0  0  0  0  0  3  0  0  0  0  0  0
  181.9350  176.7510  136.1180 C   0  0  0  0  0  3  0  0  0  0  0  0
  184.3610  177.0530  137.4710 C   0  0  0  0  0  3  0  0  0  0  0  0
  182.0980  177.7970  137.0280 C   0  0  0  0  0  3  0  0  0  0  0  0
  183.3160  177.9630  137.7140 C   0  0  0  0  0  0  0  0  0  0  0  0
  182.9850  175.8570  135.8820 C   0  0  0  0  0  3  0  0  0  0  0  0
  1  4  1  6  0  0  0
  1  3  1  0  0  0  0
  1  2  1  0  0  0  0
  3  2  1  0  0  0  0
  3 27  1  1  0  0  0
  5  4  1  0  0  0  0
  6  5  2  0  0  0  0
  7  5  1  0  0  0  0
  8 11  1  0  0  0  0
  9  8  1  0  0  0  0
 10  9  1  0  0  0  0
 10 12  1  0  0  0  0
 11  7  1  0  0  0  0
 12 11  2  0  0  0  0
 13 18  1  0  0  0  0
 14 15  1  0  0  0  0
 15 10  1  0  0  0  0
 16 17  1  0  0  0  0
 16 13  2  0  0  0  0
 17 14  2  0  0  0  0
 18 15  2  0  0  0  0
 19 23  1  0  0  0  0
 20 24  1  0  0  0  0
 20 21  1  0  0  0  0
 21 19  1  0  0  0  0
 22 13  1  0  0  0  0
 22 23  1  0  0  0  0
 24 22  1  0  0  0  0
 25 26  1  0  0  0  0
 25 17  1  0  0  0  0
 29 27  1  0  0  0  0
 29 28  2  0  0  0  0
 30 29  1  0  0  0  0
 32 31  1  6  0  0  0
 32 30  1  0  0  0  0
 33 35  1  1  0  0  0
 33 32  1  0  0  0  0
 35 34  2  0  0  0  0
 36 33  1  0  0  0  0
 37 36  1  0  0  0  0
 39 38  2  0  0  0  0
 39 37  1  0  0  0  0
 40 39  1  0  0  0  0
 41 43  2  0  0  0  0
 41 40  1  0  0  0  0
 43 42  2  0  0  0  0
 44 46  1  0  0  0  0
 45 47  2  0  0  0  0
 46 48  2  0  0  0  0
 47 48  1  0  0  0  0
 48 41  1  0  0  0  0
 49 45  1  0  0  0  0
 49 44  2  0  0  0  0
M  END
>  <MODEL>
3

>  <REMARK>
 VINA RESULT:      -7.8      3.636      9.798
  Name = 
  19 active torsions:
  status: ('A' for Active; 'I' for Inactive)
    1  A    between atoms: O_1  and  C_6
    2  A    between atoms: O_1  and  C_10
    3  A    between atoms: C_2  and  N_25
    4  A    between atoms: C_2  and  O_36
    5  A    between atoms: C_4  and  C_44
    6  A    between atoms: C_6  and  C_20
    7  A    between atoms: C_6  and  C_47
    8  A    between atoms: C_7  and  C_28
    9  A    between atoms: C_7  and  C_48
   10  A    between atoms: C_10  and  C_39
   11  A    between atoms: C_14  and  N_25
   12  A    between atoms: O_15  and  C_30
   13  A    between atoms: N_16  and  C_18
   14  A    between atoms: C_19  and  O_36
   15  A    between atoms: C_20  and  C_26
   16  A    between atoms: C_26  and  C_29
   17  A    between atoms: C_29  and  C_40
   18  A    between atoms: C_32  and  C_40
   19  A    between atoms: C_39  and  C_48
                            x       y       z     vdW  Elec       q    Type
                         _______ _______ _______ _____ _____    ______ ____

>  <TORSDO>
F 19

$$$$
=
 OpenBabel11062411023D

 49 53  0  0  1  0  0  0  0  0999 V2000
  189.1320  177.0280  145.8310 C   0  0  1  0  0  3  0  0  0  0  0  0
  188.8080  177.1810  147.1910 O   0  0  0  0  0  0  0  0  0  0  0  0
  188.0810  177.9660  146.2750 C   0  0  2  0  0  3  0  0  0  0  0  0
  190.3430  177.7720  145.5290 N   0  0  0  0  0  2  0  0  0  0  0  0
  190.7340  178.0220  144.1800 C   0  0  0  0  0  0  0  0  0  0  0  0
  191.4460  179.1150  143.9260 C   0  0  0  0  0  2  0  0  0  0  0  0
  190.3810  177.1000  143.1760 O   0  0  0  0  0  0  0  0  0  0  0  0
  188.8520  178.3030  141.4940 C   0  0  0  0  0  2  0  0  0  0  0  0
  188.6650  178.2370  139.6770 S   0  0  0  0  0  0  0  0  0  0  0  0
  190.0960  177.1960  139.5700 N   0  0  0  0  0  0  0  0  0  0  0  0
  189.9840  177.3910  141.8620 C   0  0  0  0  0  0  0  0  0  0  0  0
  190.6100  176.8310  140.8420 C   0  0  0  0  0  3  0  0  0  0  0  0
  192.6200  176.0020  137.0720 C   0  0  0  0  0  0  0  0  0  0  0  0
  189.9060  176.6990  137.1610 C   0  0  0  0  0  3  0  0  0  0  0  0
  190.6850  176.7870  138.3280 C   0  0  0  0  0  0  0  0  0  0  0  0
  191.8280  175.9130  135.9200 C   0  0  0  0  0  3  0  0  0  0  0  0
  190.4740  176.2650  135.9530 C   0  0  0  0  0  0  0  0  0  0  0  0
  192.0430  176.4370  138.2720 C   0  0  0  0  0  3  0  0  0  0  0  0
  195.8410  174.4930  135.6600 C   0  0  0  0  0  2  0  0  0  0  0  0
  195.8280  174.0910  137.8800 C   0  0  0  0  0  2  0  0  0  0  0  0
  195.9310  173.4680  136.6210 O   0  0  0  0  0  0  0  0  0  0  0  0
  194.0590  175.6010  137.0050 C   0  0  0  0  0  3  0  0  0  0  0  0
  194.4200  175.0540  135.6240 C   0  0  0  0  0  2  0  0  0  0  0  0
  194.4020  174.5930  138.0990 C   0  0  0  0  0  2  0  0  0  0  0  0
  189.7180  176.1650  134.7780 O   0  0  0  0  0  0  0  0  0  0  0  0
  188.4780  176.8370  134.5960 C   0  0  0  0  0  1  0  0  0  0  0  0
  186.7240  177.3400  146.0330 C   0  0  0  0  0  2  0  0  0  0  0  0
  185.0630  178.7960  146.8300 O   0  0  0  0  0  0  0  0  0  0  0  0
  185.6900  178.4080  145.8580 C   0  0  0  0  0  0  0  0  0  0  0  0
  185.4350  179.0160  144.5060 C   0  0  0  0  0  2  0  0  0  0  0  0
  182.9740  179.4380  144.0670 C   0  0  0  0  0  1  0  0  0  0  0  0
  184.1580  178.5180  143.8160 C   0  0  1  0  0  3  0  0  0  0  0  0
  184.3070  178.1670  142.3270 C   0  0  2  0  0  3  0  0  0  0  0  0
  185.6200  179.7580  141.1740 O   0  0  0  0  0  0  0  0  0  0  0  0
  185.5930  178.6850  141.7610 C   0  0  0  0  0  3  0  0  0  0  0  0
  183.2220  178.6360  141.5790 O   0  0  0  0  0  0  0  0  0  0  0  0
  183.0940  177.7300  140.5180 C   0  0  0  0  0  2  0  0  0  0  0  0
  182.8940  179.0280  138.4490 C   0  0  0  0  0  2  0  0  0  0  0  0
  182.2880  178.3470  139.4150 C   0  0  0  0  0  0  0  0  0  0  0  0
  180.7960  178.3720  139.5130 C   0  0  0  0  0  2  0  0  0  0  0  0
  180.3310  179.5260  140.3450 C   0  0  0  0  0  0  0  0  0  0  0  0
  180.1450  181.8110  139.2370 O   0  0  0  0  0  0  0  0  0  0  0  0
  180.2360  180.7020  139.7780 C   0  0  0  0  0  0  0  0  0  0  0  0
  178.9350  180.1960  143.8080 C   0  0  0  0  0  3  0  0  0  0  0  0
  179.7180  177.9060  143.7220 C   0  0  0  0  0  3  0  0  0  0  0  0
  179.3180  180.3740  142.4750 C   0  0  0  0  0  3  0  0  0  0  0  0
  180.0980  178.0820  142.3910 C   0  0  0  0  0  3  0  0  0  0  0  0
  179.9060  179.3200  141.7510 C   0  0  0  0  0  0  0  0  0  0  0  0
  179.1400  178.9640  144.4320 C   0  0  0  0  0  3  0  0  0  0  0  0
  1  4  1  1  0  0  0
  1  3  1  0  0  0  0
  1  2  1  0  0  0  0
  3 27  1  6  0  0  0
  3  2  1  0  0  0  0
  5  4  1  0  0  0  0
  6  5  2  0  0  0  0
  7  5  1  0  0  0  0
  8 11  1  0  0  0  0
  9  8  1  0  0  0  0
 10  9  1  0  0  0  0
 10 12  1  0  0  0  0
 11  7  1  0  0  0  0
 12 11  2  0  0  0  0
 13 18  1  0  0  0  0
 14 15  1  0  0  0  0
 15 10  1  0  0  0  0
 16 17  1  0  0  0  0
 16 13  2  0  0  0  0
 17 14  2  0  0  0  0
 18 15  2  0  0  0  0
 19 21  1  0  0  0  0
 20 24  1  0  0  0  0
 21 20  1  0  0  0  0
 22 13  1  0  0  0  0
 22 24  1  0  0  0  0
 23 19  1  0  0  0  0
 23 22  1  0  0  0  0
 25 17  1  0  0  0  0
 26 25  1  0  0  0  0
 29 27  1  0  0  0  0
 29 28  2  0  0  0  0
 30 29  1  0  0  0  0
 32 31  1  6  0  0  0
 32 30  1  0  0  0  0
 33 35  1  6  0  0  0
 33 32  1  0  0  0  0
 34 35  2  0  0  0  0
 36 33  1  0  0  0  0
 37 36  1  0  0  0  0
 38 39  2  0  0  0  0
 39 40  1  0  0  0  0
 39 37  1  0  0  0  0
 40 41  1  0  0  0  0
 41 48  1  0  0  0  0
 42 43  2  0  0  0  0
 43 41  2  0  0  0  0
 44 49  1  0  0  0  0
 45 49  2  0  0  0  0
 46 44  2  0  0  0  0
 47 45  1  0  0  0  0
 48 47  2  0  0  0  0
 48 46  1  0  0  0  0
M  END
>  <MODEL>
4

>  <REMARK>
 VINA RESULT:      -7.7      3.675     10.104
  Name = 
  19 active torsions:
  status: ('A' for Active; 'I' for Inactive)
    1  A    between atoms: O_1  and  C_6
    2  A    between atoms: O_1  and  C_10
    3  A    between atoms: C_2  and  N_25
    4  A    between atoms: C_2  and  O_36
    5  A    between atoms: C_4  and  C_44
    6  A    between atoms: C_6  and  C_20
    7  A    between atoms: C_6  and  C_47
    8  A    between atoms: C_7  and  C_28
    9  A    between atoms: C_7  and  C_48
   10  A    between atoms: C_10  and  C_39
   11  A    between atoms: C_14  and  N_25
   12  A    between atoms: O_15  and  C_30
   13  A    between atoms: N_16  and  C_18
   14  A    between atoms: C_19  and  O_36
   15  A    between atoms: C_20  and  C_26
   16  A    between atoms: C_26  and  C_29
   17  A    between atoms: C_29  and  C_40
   18  A    between atoms: C_32  and  C_40
   19  A    between atoms: C_39  and  C_48
                            x       y       z     vdW  Elec       q    Type
                         _______ _______ _______ _____ _____    ______ ____

>  <TORSDO>
F 19

$$$$
=
 OpenBabel11062411023D

 49 53  0  0  1  0  0  0  0  0999 V2000
  188.5470  176.8940  145.3530 C   0  0  1  0  0  3  0  0  0  0  0  0
  188.4300  178.2930  145.2700 O   0  0  0  0  0  0  0  0  0  0  0  0
  187.3280  177.5380  144.8240 C   0  0  2  0  0  3  0  0  0  0  0  0
  189.3490  176.4030  144.2450 N   0  0  0  0  0  2  0  0  0  0  0  0
  190.6990  176.8300  144.0700 C   0  0  0  0  0  0  0  0  0  0  0  0
  191.5980  176.4560  144.9750 C   0  0  0  0  0  2  0  0  0  0  0  0
  191.0380  177.6030  142.9430 O   0  0  0  0  0  0  0  0  0  0  0  0
  189.0050  178.1700  141.4740 C   0  0  0  0  0  2  0  0  0  0  0  0
  188.5680  177.8400  139.7300 S   0  0  0  0  0  0  0  0  0  0  0  0
  190.1920  177.1880  139.4490 N   0  0  0  0  0  0  0  0  0  0  0  0
  190.3830  177.6230  141.7030 C   0  0  0  0  0  0  0  0  0  0  0  0
  190.9730  177.1200  140.6330 C   0  0  0  0  0  3  0  0  0  0  0  0
  192.3970  175.7670  136.7750 C   0  0  0  0  0  0  0  0  0  0  0  0
  189.8790  176.9750  137.0110 C   0  0  0  0  0  3  0  0  0  0  0  0
  190.6730  176.7930  138.1570 C   0  0  0  0  0  0  0  0  0  0  0  0
  191.5910  175.9490  135.6440 C   0  0  0  0  0  3  0  0  0  0  0  0
  190.3350  176.5570  135.7510 C   0  0  0  0  0  0  0  0  0  0  0  0
  191.9330  176.1880  138.0270 C   0  0  0  0  0  3  0  0  0  0  0  0
  195.8120  174.3560  137.7730 C   0  0  0  0  0  2  0  0  0  0  0  0
  196.0330  175.2560  135.7150 C   0  0  0  0  0  2  0  0  0  0  0  0
  196.5560  175.2860  137.0230 O   0  0  0  0  0  0  0  0  0  0  0  0
  193.7260  175.0970  136.6270 C   0  0  0  0  0  3  0  0  0  0  0  0
  194.3900  174.8720  137.9860 C   0  0  0  0  0  2  0  0  0  0  0  0
  194.6420  175.8870  135.6960 C   0  0  0  0  0  2  0  0  0  0  0  0
  189.5600  176.7240  134.5960 O   0  0  0  0  0  0  0  0  0  0  0  0
  188.2520  177.2790  134.6150 C   0  0  0  0  0  1  0  0  0  0  0  0
  186.2560  177.5230  145.8930 C   0  0  0  0  0  2  0  0  0  0  0  0
  184.5820  179.0380  146.5390 O   0  0  0  0  0  0  0  0  0  0  0  0
  185.2390  178.5860  145.6160 C   0  0  0  0  0  0  0  0  0  0  0  0
  185.0380  179.1110  144.2200 C   0  0  0  0  0  2  0  0  0  0  0  0
  182.5660  179.0300  143.6620 C   0  0  0  0  0  1  0  0  0  0  0  0
  183.9310  178.4020  143.4280 C   0  0  1  0  0  3  0  0  0  0  0  0
  184.2190  178.1950  141.9320 C   0  0  2  0  0  3  0  0  0  0  0  0
  185.3100  179.7210  140.4940 O   0  0  0  0  0  0  0  0  0  0  0  0
  185.3970  179.0010  141.4790 C   0  0  0  0  0  3  0  0  0  0  0  0
  183.0980  178.4900  141.1500 O   0  0  0  0  0  0  0  0  0  0  0  0
  182.9490  177.3850  140.3000 C   0  0  0  0  0  2  0  0  0  0  0  0
  182.3330  178.9970  138.5610 C   0  0  0  0  0  2  0  0  0  0  0  0
  182.9080  177.8410  138.8730 C   0  0  0  0  0  0  0  0  0  0  0  0
  183.3280  176.9080  137.7840 C   0  0  0  0  0  2  0  0  0  0  0  0
  182.4120  175.7250  137.7070 C   0  0  0  0  0  0  0  0  0  0  0  0
  179.9030  176.1350  137.8560 O   0  0  0  0  0  0  0  0  0  0  0  0
  181.1210  175.9340  137.7850 C   0  0  0  0  0  0  0  0  0  0  0  0
  184.8130  172.7930  137.5370 C   0  0  0  0  0  3  0  0  0  0  0  0
  182.6800  172.0970  136.6240 C   0  0  0  0  0  3  0  0  0  0  0  0
  184.2870  174.0650  137.7880 C   0  0  0  0  0  3  0  0  0  0  0  0
  182.1530  173.3650  136.8770 C   0  0  0  0  0  3  0  0  0  0  0  0
  182.9520  174.3670  137.4600 C   0  0  0  0  0  0  0  0  0  0  0  0
  184.0100  171.8120  136.9510 C   0  0  0  0  0  3  0  0  0  0  0  0
  1  4  1  6  0  0  0
  2  1  1  0  0  0  0
  3  2  1  0  0  0  0
  3  1  1  0  0  0  0
  3 27  1  1  0  0  0
  5  4  1  0  0  0  0
  5  6  2  0  0  0  0
  7  5  1  0  0  0  0
  8 11  1  0  0  0  0
  9  8  1  0  0  0  0
 10  9  1  0  0  0  0
 10 12  1  0  0  0  0
 11  7  1  0  0  0  0
 12 11  2  0  0  0  0
 13 18  1  0  0  0  0
 14 15  1  0  0  0  0
 15 10  1  0  0  0  0
 16 17  1  0  0  0  0
 16 13  2  0  0  0  0
 17 14  2  0  0  0  0
 18 15  2  0  0  0  0
 19 23  1  0  0  0  0
 20 21  1  0  0  0  0
 21 19  1  0  0  0  0
 22 13  1  0  0  0  0
 22 23  1  0  0  0  0
 24 20  1  0  0  0  0
 24 22  1  0  0  0  0
 25 26  1  0  0  0  0
 25 17  1  0  0  0  0
 29 27  1  0  0  0  0
 29 28  2  0  0  0  0
 30 29  1  0  0  0  0
 32 31  1  6  0  0  0
 32 30  1  0  0  0  0
 33 35  1  6  0  0  0
 33 32  1  0  0  0  0
 34 35  2  0  0  0  0
 36 33  1  0  0  0  0
 37 36  1  0  0  0  0
 38 39  2  0  0  0  0
 39 37  1  0  0  0  0
 40 39  1  0  0  0  0
 41 40  1  0  0  0  0
 41 43  2  0  0  0  0
 43 42  2  0  0  0  0
 44 46  1  0  0  0  0
 45 47  2  0  0  0  0
 45 49  1  0  0  0  0
 47 48  1  0  0  0  0
 48 41  1  0  0  0  0
 48 46  2  0  0  0  0
 49 44  2  0  0  0  0
M  END
>  <MODEL>
5

>  <REMARK>
 VINA RESULT:      -7.6      3.825     10.458
  Name = 
  19 active torsions:
  status: ('A' for Active; 'I' for Inactive)
    1  A    between atoms: O_1  and  C_6
    2  A    between atoms: O_1  and  C_10
    3  A    between atoms: C_2  and  N_25
    4  A    between atoms: C_2  and  O_36
    5  A    between atoms: C_4  and  C_44
    6  A    between atoms: C_6  and  C_20
    7  A    between atoms: C_6  and  C_47
    8  A    between atoms: C_7  and  C_28
    9  A    between atoms: C_7  and  C_48
   10  A    between atoms: C_10  and  C_39
   11  A    between atoms: C_14  and  N_25
   12  A    between atoms: O_15  and  C_30
   13  A    between atoms: N_16  and  C_18
   14  A    between atoms: C_19  and  O_36
   15  A    between atoms: C_20  and  C_26
   16  A    between atoms: C_26  and  C_29
   17  A    between atoms: C_29  and  C_40
   18  A    between atoms: C_32  and  C_40
   19  A    between atoms: C_39  and  C_48
                            x       y       z     vdW  Elec       q    Type
                         _______ _______ _______ _____ _____    ______ ____

>  <TORSDO>
F 19

$$$$
=
 OpenBabel11062411023D

 49 53  0  0  1  0  0  0  0  0999 V2000
  188.9470  176.8100  138.7440 C   0  0  1  0  0  3  0  0  0  0  0  0
  190.1800  177.2980  138.2750 O   0  0  0  0  0  0  0  0  0  0  0  0
  189.8340  177.6220  139.6010 C   0  0  2  0  0  3  0  0  0  0  0  0
  187.8680  177.6450  138.2430 N   0  0  0  0  0  2  0  0  0  0  0  0
  187.2630  177.3830  136.9780 C   0  0  0  0  0  0  0  0  0  0  0  0
  187.1750  178.3810  136.1060 C   0  0  0  0  0  2  0  0  0  0  0  0
  186.8070  176.0830  136.6860 O   0  0  0  0  0  0  0  0  0  0  0  0
  185.1500  174.1170  136.7360 C   0  0  0  0  0  2  0  0  0  0  0  0
  183.3780  173.9610  137.1570 S   0  0  0  0  0  0  0  0  0  0  0  0
  183.3650  175.6440  137.7130 N   0  0  0  0  0  0  0  0  0  0  0  0
  185.5460  175.5430  136.9770 C   0  0  0  0  0  0  0  0  0  0  0  0
  184.5970  176.3120  137.4840 C   0  0  0  0  0  3  0  0  0  0  0  0
  180.8550  178.2260  138.7450 C   0  0  0  0  0  0  0  0  0  0  0  0
  181.3570  175.4970  139.1390 C   0  0  0  0  0  3  0  0  0  0  0  0
  182.2350  176.2580  138.3480 C   0  0  0  0  0  0  0  0  0  0  0  0
  179.9860  177.4530  139.5240 C   0  0  0  0  0  3  0  0  0  0  0  0
  180.2310  176.0910  139.7310 C   0  0  0  0  0  0  0  0  0  0  0  0
  181.9760  177.6250  138.1590 C   0  0  0  0  0  3  0  0  0  0  0  0
  179.7290  181.4050  136.9350 C   0  0  0  0  0  2  0  0  0  0  0  0
  181.4820  181.9620  138.2420 C   0  0  0  0  0  2  0  0  0  0  0  0
  181.0050  181.9980  136.9170 O   0  0  0  0  0  0  0  0  0  0  0  0
  180.5530  179.6760  138.5300 C   0  0  0  0  0  3  0  0  0  0  0  0
  179.8520  179.9040  137.1900 C   0  0  0  0  0  2  0  0  0  0  0  0
  181.8160  180.5250  138.6370 C   0  0  0  0  0  2  0  0  0  0  0  0
  179.3400  175.3520  140.5200 O   0  0  0  0  0  0  0  0  0  0  0  0
  179.5530  173.9880  140.8580 C   0  0  0  0  0  1  0  0  0  0  0  0
  190.5700  176.7070  140.5570 C   0  0  0  0  0  2  0  0  0  0  0  0
  189.9370  178.3220  142.1410 O   0  0  0  0  0  0  0  0  0  0  0  0
  190.5120  177.2640  141.9460 C   0  0  0  0  0  0  0  0  0  0  0  0
  191.1360  176.5230  143.0970 C   0  0  0  0  0  2  0  0  0  0  0  0
  191.9400  178.8090  143.8420 C   0  0  0  0  0  1  0  0  0  0  0  0
  191.5360  177.4110  144.2830 C   0  0  1  0  0  3  0  0  0  0  0  0
  190.5360  177.4430  145.4500 C   0  0  2  0  0  3  0  0  0  0  0  0
  190.5100  176.8360  147.7340 O   0  0  0  0  0  0  0  0  0  0  0  0
  191.0580  176.7100  146.6470 C   0  0  0  0  0  3  0  0  0  0  0  0
  189.2910  176.9320  145.0710 O   0  0  0  0  0  0  0  0  0  0  0  0
  188.4490  178.0510  144.9920 C   0  0  0  0  0  2  0  0  0  0  0  0
  186.3380  177.5630  146.1360 C   0  0  0  0  0  2  0  0  0  0  0  0
  187.0160  177.6110  144.9950 C   0  0  0  0  0  0  0  0  0  0  0  0
  186.4160  177.0340  143.7530 C   0  0  0  0  0  2  0  0  0  0  0  0
  185.7950  178.1040  142.9090 C   0  0  0  0  0  0  0  0  0  0  0  0
  187.2350  179.2190  141.1290 O   0  0  0  0  0  0  0  0  0  0  0  0
  186.5340  178.6790  141.9940 C   0  0  0  0  0  0  0  0  0  0  0  0
  182.4500  178.9900  144.4630 C   0  0  0  0  0  3  0  0  0  0  0  0
  182.1520  178.7620  142.0710 C   0  0  0  0  0  3  0  0  0  0  0  0
  183.8100  178.6990  144.3190 C   0  0  0  0  0  3  0  0  0  0  0  0
  183.5100  178.4740  141.9250 C   0  0  0  0  0  3  0  0  0  0  0  0
  184.3570  178.4360  143.0490 C   0  0  0  0  0  0  0  0  0  0  0  0
  181.6220  179.0170  143.3400 C   0  0  0  0  0  3  0  0  0  0  0  0
  1  4  1  6  0  0  0
  1  3  1  0  0  0  0
  2  1  1  0  0  0  0
  2  3  1  0  0  0  0
  3 27  1  1  0  0  0
  5  4  1  0  0  0  0
  6  5  2  0  0  0  0
  7 11  1  0  0  0  0
  7  5  1  0  0  0  0
  8 11  1  0  0  0  0
  8  9  1  0  0  0  0
  9 10  1  0  0  0  0
 10 15  1  0  0  0  0
 11 12  2  0  0  0  0
 12 10  1  0  0  0  0
 13 16  1  0  0  0  0
 14 17  1  0  0  0  0
 15 14  2  0  0  0  0
 16 17  2  0  0  0  0
 17 25  1  0  0  0  0
 18 15  1  0  0  0  0
 18 13  2  0  0  0  0
 19 23  1  0  0  0  0
 20 24  1  0  0  0  0
 21 19  1  0  0  0  0
 21 20  1  0  0  0  0
 22 24  1  0  0  0  0
 22 13  1  0  0  0  0
 23 22  1  0  0  0  0
 25 26  1  0  0  0  0
 27 29  1  0  0  0  0
 29 28  2  0  0  0  0
 29 30  1  0  0  0  0
 30 32  1  0  0  0  0
 32 31  1  6  0  0  0
 32 33  1  0  0  0  0
 33 35  1  1  0  0  0
 35 34  2  0  0  0  0
 36 33  1  0  0  0  0
 37 39  1  0  0  0  0
 37 36  1  0  0  0  0
 39 38  2  0  0  0  0
 40 39  1  0  0  0  0
 41 48  1  0  0  0  0
 41 40  1  0  0  0  0
 42 43  2  0  0  0  0
 43 41  2  0  0  0  0
 45 49  1  0  0  0  0
 46 44  1  0  0  0  0
 47 45  2  0  0  0  0
 47 48  1  0  0  0  0
 48 46  2  0  0  0  0
 49 44  2  0  0  0  0
M  END
>  <MODEL>
6

>  <REMARK>
 VINA RESULT:      -7.6      1.982      2.984
  Name = 
  19 active torsions:
  status: ('A' for Active; 'I' for Inactive)
    1  A    between atoms: O_1  and  C_6
    2  A    between atoms: O_1  and  C_10
    3  A    between atoms: C_2  and  N_25
    4  A    between atoms: C_2  and  O_36
    5  A    between atoms: C_4  and  C_44
    6  A    between atoms: C_6  and  C_20
    7  A    between atoms: C_6  and  C_47
    8  A    between atoms: C_7  and  C_28
    9  A    between atoms: C_7  and  C_48
   10  A    between atoms: C_10  and  C_39
   11  A    between atoms: C_14  and  N_25
   12  A    between atoms: O_15  and  C_30
   13  A    between atoms: N_16  and  C_18
   14  A    between atoms: C_19  and  O_36
   15  A    between atoms: C_20  and  C_26
   16  A    between atoms: C_26  and  C_29
   17  A    between atoms: C_29  and  C_40
   18  A    between atoms: C_32  and  C_40
   19  A    between atoms: C_39  and  C_48
                            x       y       z     vdW  Elec       q    Type
                         _______ _______ _______ _____ _____    ______ ____

>  <TORSDO>
F 19

$$$$
=
 OpenBabel11062411023D

 49 53  0  0  1  0  0  0  0  0999 V2000
  185.1260  179.1220  142.3600 C   0  0  1  0  0  3  0  0  0  0  0  0
  186.2290  178.5840  141.6730 O   0  0  0  0  0  0  0  0  0  0  0  0
  184.9550  178.3100  141.1390 C   0  0  2  0  0  3  0  0  0  0  0  0
  184.8300  178.3060  143.5250 N   0  0  0  0  0  2  0  0  0  0  0  0
  184.0560  178.8240  144.6070 C   0  0  0  0  0  0  0  0  0  0  0  0
  182.9990  179.5750  144.3190 C   0  0  0  0  0  2  0  0  0  0  0  0
  184.4170  178.5020  145.9300 O   0  0  0  0  0  0  0  0  0  0  0  0
  186.1000  178.5610  147.8730 C   0  0  0  0  0  2  0  0  0  0  0  0
  187.9140  178.3670  147.9870 S   0  0  0  0  0  0  0  0  0  0  0  0
  187.9700  177.9100  146.2750 N   0  0  0  0  0  0  0  0  0  0  0  0
  185.7140  178.3490  146.4390 C   0  0  0  0  0  0  0  0  0  0  0  0
  186.7070  178.0130  145.6340 C   0  0  0  0  0  3  0  0  0  0  0  0
  190.5450  177.3520  143.6120 C   0  0  0  0  0  0  0  0  0  0  0  0
  190.1500  176.7580  146.3230 C   0  0  0  0  0  3  0  0  0  0  0  0
  189.1620  177.4630  145.6150 C   0  0  0  0  0  0  0  0  0  0  0  0
  191.5230  176.6570  144.3330 C   0  0  0  0  0  3  0  0  0  0  0  0
  191.3330  176.3500  145.6860 C   0  0  0  0  0  0  0  0  0  0  0  0
  189.3680  177.7540  144.2570 C   0  0  0  0  0  3  0  0  0  0  0  0
  190.1560  177.2180  139.8070 C   0  0  0  0  0  2  0  0  0  0  0  0
  192.3500  177.5030  140.2480 C   0  0  0  0  0  2  0  0  0  0  0  0
  191.4330  176.6760  139.5700 O   0  0  0  0  0  0  0  0  0  0  0  0
  190.7890  177.6790  142.1730 C   0  0  0  0  0  3  0  0  0  0  0  0
  189.7590  177.0040  141.2670 C   0  0  0  0  0  2  0  0  0  0  0  0
  192.2100  177.3080  141.7570 C   0  0  0  0  0  2  0  0  0  0  0  0
  192.3340  175.6490  146.3710 O   0  0  0  0  0  0  0  0  0  0  0  0
  192.4310  175.6280  147.7890 C   0  0  0  0  0  1  0  0  0  0  0  0
  184.6860  179.2290  139.9670 C   0  0  0  0  0  2  0  0  0  0  0  0
  182.5350  179.1930  139.0240 O   0  0  0  0  0  0  0  0  0  0  0  0
  183.6220  178.6440  139.0900 C   0  0  0  0  0  0  0  0  0  0  0  0
  183.8900  177.4040  138.2810 C   0  0  0  0  0  2  0  0  0  0  0  0
  182.9650  177.5820  135.9270 C   0  0  0  0  0  1  0  0  0  0  0  0
  182.7580  177.0130  137.3220 C   0  0  1  0  0  3  0  0  0  0  0  0
  182.4100  175.5170  137.2860 C   0  0  2  0  0  3  0  0  0  0  0  0
  180.8000  176.0150  138.9420 O   0  0  0  0  0  0  0  0  0  0  0  0
  181.2030  175.2080  138.1160 C   0  0  0  0  0  3  0  0  0  0  0  0
  183.4930  174.7300  137.6910 O   0  0  0  0  0  0  0  0  0  0  0  0
  184.0670  174.2620  136.5000 C   0  0  0  0  0  2  0  0  0  0  0  0
  185.3280  172.7590  137.9690 C   0  0  0  0  0  2  0  0  0  0  0  0
  185.2580  173.4070  136.8110 C   0  0  0  0  0  0  0  0  0  0  0  0
  186.4520  173.4450  135.9120 C   0  0  0  0  0  2  0  0  0  0  0  0
  187.4980  174.3740  136.4480 C   0  0  0  0  0  0  0  0  0  0  0  0
  189.7110  173.3770  137.2190 O   0  0  0  0  0  0  0  0  0  0  0  0
  188.6360  173.8630  136.8460 C   0  0  0  0  0  0  0  0  0  0  0  0
  186.6510  177.8730  135.2520 C   0  0  0  0  0  3  0  0  0  0  0  0
  187.3440  177.9960  137.5700 C   0  0  0  0  0  3  0  0  0  0  0  0
  186.8380  176.4870  135.2740 C   0  0  0  0  0  3  0  0  0  0  0  0
  187.5270  176.6130  137.5930 C   0  0  0  0  0  3  0  0  0  0  0  0
  187.2800  175.8400  136.4430 C   0  0  0  0  0  0  0  0  0  0  0  0
  186.9090  178.6270  136.3990 C   0  0  0  0  0  3  0  0  0  0  0  0
  1  4  1  1  0  0  0
  2  1  1  0  0  0  0
  3 27  1  6  0  0  0
  3  2  1  0  0  0  0
  3  1  1  0  0  0  0
  4  5  1  0  0  0  0
  5  7  1  0  0  0  0
  6  5  2  0  0  0  0
  7 11  1  0  0  0  0
  8  9  1  0  0  0  0
 10  9  1  0  0  0  0
 11  8  1  0  0  0  0
 12 10  1  0  0  0  0
 12 11  2  0  0  0  0
 13 18  2  0  0  0  0
 13 16  1  0  0  0  0
 15 10  1  0  0  0  0
 15 14  2  0  0  0  0
 16 17  2  0  0  0  0
 17 14  1  0  0  0  0
 17 25  1  0  0  0  0
 18 15  1  0  0  0  0
 19 23  1  0  0  0  0
 20 24  1  0  0  0  0
 21 19  1  0  0  0  0
 21 20  1  0  0  0  0
 22 13  1  0  0  0  0
 23 22  1  0  0  0  0
 24 22  1  0  0  0  0
 25 26  1  0  0  0  0
 28 29  2  0  0  0  0
 29 27  1  0  0  0  0
 30 29  1  0  0  0  0
 32 31  1  6  0  0  0
 32 30  1  0  0  0  0
 33 32  1  0  0  0  0
 33 36  1  0  0  0  0
 33 35  1  1  0  0  0
 35 34  2  0  0  0  0
 37 39  1  0  0  0  0
 37 36  1  0  0  0  0
 39 38  2  0  0  0  0
 40 41  1  0  0  0  0
 40 39  1  0  0  0  0
 41 43  2  0  0  0  0
 43 42  2  0  0  0  0
 44 46  2  0  0  0  0
 44 49  1  0  0  0  0
 45 47  1  0  0  0  0
 46 48  1  0  0  0  0
 48 41  1  0  0  0  0
 48 47  2  0  0  0  0
 49 45  2  0  0  0  0
M  END
>  <MODEL>
7

>  <REMARK>
 VINA RESULT:      -7.4      3.538     10.664
  Name = 
  19 active torsions:
  status: ('A' for Active; 'I' for Inactive)
    1  A    between atoms: O_1  and  C_6
    2  A    between atoms: O_1  and  C_10
    3  A    between atoms: C_2  and  N_25
    4  A    between atoms: C_2  and  O_36
    5  A    between atoms: C_4  and  C_44
    6  A    between atoms: C_6  and  C_20
    7  A    between atoms: C_6  and  C_47
    8  A    between atoms: C_7  and  C_28
    9  A    between atoms: C_7  and  C_48
   10  A    between atoms: C_10  and  C_39
   11  A    between atoms: C_14  and  N_25
   12  A    between atoms: O_15  and  C_30
   13  A    between atoms: N_16  and  C_18
   14  A    between atoms: C_19  and  O_36
   15  A    between atoms: C_20  and  C_26
   16  A    between atoms: C_26  and  C_29
   17  A    between atoms: C_29  and  C_40
   18  A    between atoms: C_32  and  C_40
   19  A    between atoms: C_39  and  C_48
                            x       y       z     vdW  Elec       q    Type
                         _______ _______ _______ _____ _____    ______ ____

>  <TORSDO>
F 19

$$$$
=
 OpenBabel11062411023D

 49 53  0  0  1  0  0  0  0  0999 V2000
  186.0690  177.7670  145.1510 C   0  0  1  0  0  3  0  0  0  0  0  0
  184.6950  177.9560  145.3830 O   0  0  0  0  0  0  0  0  0  0  0  0
  185.2680  178.6990  144.3330 C   0  0  2  0  0  3  0  0  0  0  0  0
  186.8380  178.5220  146.1250 N   0  0  0  0  0  2  0  0  0  0  0  0
  188.0380  177.9910  146.6850 C   0  0  0  0  0  0  0  0  0  0  0  0
  187.9350  177.1450  147.7040 C   0  0  0  0  0  2  0  0  0  0  0  0
  189.2800  178.3550  146.1280 O   0  0  0  0  0  0  0  0  0  0  0  0
  191.1310  176.8380  145.1880 C   0  0  0  0  0  2  0  0  0  0  0  0
  191.6850  176.4100  143.4990 S   0  0  0  0  0  0  0  0  0  0  0  0
  190.2960  177.2810  142.8250 N   0  0  0  0  0  0  0  0  0  0  0  0
  189.9390  177.7390  145.0550 C   0  0  0  0  0  0  0  0  0  0  0  0
  189.5300  177.9500  143.8160 C   0  0  0  0  0  3  0  0  0  0  0  0
  190.5000  176.6530  139.1380 C   0  0  0  0  0  0  0  0  0  0  0  0
  188.7750  177.8780  140.9770 C   0  0  0  0  0  3  0  0  0  0  0  0
  189.9700  177.2900  141.4290 C   0  0  0  0  0  0  0  0  0  0  0  0
  189.3020  177.2360  138.7050 C   0  0  0  0  0  3  0  0  0  0  0  0
  188.4380  177.8560  139.6150 C   0  0  0  0  0  0  0  0  0  0  0  0
  190.8270  176.6810  140.4990 C   0  0  0  0  0  3  0  0  0  0  0  0
  193.6900  175.8330  137.1900 C   0  0  0  0  0  2  0  0  0  0  0  0
  191.9670  175.7040  135.7400 C   0  0  0  0  0  2  0  0  0  0  0  0
  193.2140  176.3200  135.9590 O   0  0  0  0  0  0  0  0  0  0  0  0
  191.3910  175.9830  138.1410 C   0  0  0  0  0  3  0  0  0  0  0  0
  192.8510  176.3950  138.3360 C   0  0  0  0  0  2  0  0  0  0  0  0
  190.9310  176.2640  136.7130 C   0  0  0  0  0  2  0  0  0  0  0  0
  187.2520  178.4310  139.1410 O   0  0  0  0  0  0  0  0  0  0  0  0
  186.8480  178.3610  137.7790 C   0  0  0  0  0  1  0  0  0  0  0  0
  184.9430  178.0430  143.0090 C   0  0  0  0  0  2  0  0  0  0  0  0
  183.9460  178.9890  141.1040 O   0  0  0  0  0  0  0  0  0  0  0  0
  183.8640  178.8080  142.3080 C   0  0  0  0  0  0  0  0  0  0  0  0
  182.6780  179.3370  143.0690 C   0  0  0  0  0  2  0  0  0  0  0  0
  180.4440  178.5420  143.9680 C   0  0  0  0  0  1  0  0  0  0  0  0
  181.3530  178.6300  142.7530 C   0  0  1  0  0  3  0  0  0  0  0  0
  180.6070  179.1510  141.5140 C   0  0  2  0  0  3  0  0  0  0  0  0
  179.6680  181.2970  141.1950 O   0  0  0  0  0  0  0  0  0  0  0  0
  179.6730  180.2700  141.8600 C   0  0  0  0  0  3  0  0  0  0  0  0
  179.9160  178.1240  140.8630 O   0  0  0  0  0  0  0  0  0  0  0  0
  180.8960  177.1750  140.5410 C   0  0  0  0  0  2  0  0  0  0  0  0
  180.8680  175.3120  138.9500 C   0  0  0  0  0  2  0  0  0  0  0  0
  180.6190  176.5950  139.1870 C   0  0  0  0  0  0  0  0  0  0  0  0
  180.2580  177.4990  138.0530 C   0  0  0  0  0  2  0  0  0  0  0  0
  181.3970  178.4070  137.7060 C   0  0  0  0  0  0  0  0  0  0  0  0
  183.6520  177.3530  137.1680 O   0  0  0  0  0  0  0  0  0  0  0  0
  182.5580  177.8670  137.4300 C   0  0  0  0  0  0  0  0  0  0  0  0
  180.1700  181.7700  136.4530 C   0  0  0  0  0  3  0  0  0  0  0  0
  181.6510  182.1410  138.3330 C   0  0  0  0  0  3  0  0  0  0  0  0
  180.3540  180.3900  136.5840 C   0  0  0  0  0  3  0  0  0  0  0  0
  181.8330  180.7640  138.4670 C   0  0  0  0  0  3  0  0  0  0  0  0
  181.1890  179.8700  137.5910 C   0  0  0  0  0  0  0  0  0  0  0  0
  180.8220  182.6440  137.3250 C   0  0  0  0  0  3  0  0  0  0  0  0
  1  2  1  0  0  0  0
  1  4  1  1  0  0  0
  3 27  1  6  0  0  0
  3  1  1  0  0  0  0
  3  2  1  0  0  0  0
  4  5  1  0  0  0  0
  5  6  2  0  0  0  0
  7  5  1  0  0  0  0
  9  8  1  0  0  0  0
 10  9  1  0  0  0  0
 10 12  1  0  0  0  0
 11  8  1  0  0  0  0
 11  7  1  0  0  0  0
 12 11  2  0  0  0  0
 13 18  1  0  0  0  0
 14 15  1  0  0  0  0
 15 10  1  0  0  0  0
 16 13  2  0  0  0  0
 16 17  1  0  0  0  0
 17 14  2  0  0  0  0
 18 15  2  0  0  0  0
 19 23  1  0  0  0  0
 20 21  1  0  0  0  0
 20 24  1  0  0  0  0
 21 19  1  0  0  0  0
 22 23  1  0  0  0  0
 22 13  1  0  0  0  0
 24 22  1  0  0  0  0
 25 17  1  0  0  0  0
 26 25  1  0  0  0  0
 28 29  2  0  0  0  0
 29 27  1  0  0  0  0
 29 30  1  0  0  0  0
 32 30  1  0  0  0  0
 32 31  1  1  0  0  0
 33 35  1  1  0  0  0
 33 32  1  0  0  0  0
 34 35  2  0  0  0  0
 36 33  1  0  0  0  0
 37 36  1  0  0  0  0
 38 39  2  0  0  0  0
 39 37  1  0  0  0  0
 40 39  1  0  0  0  0
 41 40  1  0  0  0  0
 42 43  2  0  0  0  0
 43 41  2  0  0  0  0
 44 46  2  0  0  0  0
 44 49  1  0  0  0  0
 45 47  1  0  0  0  0
 46 48  1  0  0  0  0
 48 41  1  0  0  0  0
 48 47  2  0  0  0  0
 49 45  2  0  0  0  0
M  END
>  <MODEL>
8

>  <REMARK>
 VINA RESULT:      -7.3      3.041     10.266
  Name = 
  19 active torsions:
  status: ('A' for Active; 'I' for Inactive)
    1  A    between atoms: O_1  and  C_6
    2  A    between atoms: O_1  and  C_10
    3  A    between atoms: C_2  and  N_25
    4  A    between atoms: C_2  and  O_36
    5  A    between atoms: C_4  and  C_44
    6  A    between atoms: C_6  and  C_20
    7  A    between atoms: C_6  and  C_47
    8  A    between atoms: C_7  and  C_28
    9  A    between atoms: C_7  and  C_48
   10  A    between atoms: C_10  and  C_39
   11  A    between atoms: C_14  and  N_25
   12  A    between atoms: O_15  and  C_30
   13  A    between atoms: N_16  and  C_18
   14  A    between atoms: C_19  and  O_36
   15  A    between atoms: C_20  and  C_26
   16  A    between atoms: C_26  and  C_29
   17  A    between atoms: C_29  and  C_40
   18  A    between atoms: C_32  and  C_40
   19  A    between atoms: C_39  and  C_48
                            x       y       z     vdW  Elec       q    Type
                         _______ _______ _______ _____ _____    ______ ____

>  <TORSDO>
F 19

$$$$
=
 OpenBabel11062411023D

 49 53  0  0  1  0  0  0  0  0999 V2000
  179.6730  178.5650  142.6480 C   0  0  1  0  0  3  0  0  0  0  0  0
  179.1620  178.5110  143.9570 O   0  0  0  0  0  0  0  0  0  0  0  0
  180.5180  178.1670  143.7910 C   0  0  2  0  0  3  0  0  0  0  0  0
  179.2680  177.3780  141.9150 N   0  0  0  0  0  2  0  0  0  0  0  0
  179.7250  177.1460  140.5830 C   0  0  0  0  0  0  0  0  0  0  0  0
  179.6720  178.1510  139.7170 C   0  0  0  0  0  2  0  0  0  0  0  0
  180.2360  175.8790  140.2400 O   0  0  0  0  0  0  0  0  0  0  0  0
  179.9180  175.3040  137.7530 C   0  0  0  0  0  2  0  0  0  0  0  0
  181.0210  174.6520  136.4500 S   0  0  0  0  0  0  0  0  0  0  0  0
  182.4040  174.8020  137.5490 N   0  0  0  0  0  0  0  0  0  0  0  0
  180.7430  175.4810  138.9940 C   0  0  0  0  0  0  0  0  0  0  0  0
  182.0290  175.2120  138.8560 C   0  0  0  0  0  3  0  0  0  0  0  0
  186.0530  175.3410  136.8950 C   0  0  0  0  0  0  0  0  0  0  0  0
  184.1550  173.2890  136.6940 C   0  0  0  0  0  3  0  0  0  0  0  0
  183.7600  174.5580  137.1520 C   0  0  0  0  0  0  0  0  0  0  0  0
  186.4310  174.0690  136.4480 C   0  0  0  0  0  3  0  0  0  0  0  0
  185.4890  173.0400  136.3380 C   0  0  0  0  0  0  0  0  0  0  0  0
  184.7190  175.5800  137.2470 C   0  0  0  0  0  3  0  0  0  0  0  0
  188.2570  178.3050  135.8910 C   0  0  0  0  0  2  0  0  0  0  0  0
  189.5130  176.9390  137.1750 C   0  0  0  0  0  2  0  0  0  0  0  0
  189.4630  177.5800  135.9210 O   0  0  0  0  0  0  0  0  0  0  0  0
  187.0890  176.4130  137.0180 C   0  0  0  0  0  3  0  0  0  0  0  0
  187.0710  177.3450  135.8070 C   0  0  0  0  0  2  0  0  0  0  0  0
  188.4780  175.8160  137.2270 C   0  0  0  0  0  2  0  0  0  0  0  0
  185.9070  171.7830  135.8830 O   0  0  0  0  0  0  0  0  0  0  0  0
  187.2750  171.4410  135.7030 C   0  0  0  0  0  1  0  0  0  0  0  0
  181.3920  179.3370  144.1920 C   0  0  0  0  0  2  0  0  0  0  0  0
  183.4640  178.3230  144.6340 O   0  0  0  0  0  0  0  0  0  0  0  0
  182.8250  179.0370  143.8790 C   0  0  0  0  0  0  0  0  0  0  0  0
  183.4730  179.5900  142.6380 C   0  0  0  0  0  2  0  0  0  0  0  0
  183.3800  177.5620  141.1200 C   0  0  0  0  0  1  0  0  0  0  0  0
  184.2770  178.5640  141.8290 C   0  0  1  0  0  3  0  0  0  0  0  0
  185.3370  179.1530  140.8850 C   0  0  2  0  0  3  0  0  0  0  0  0
  185.4480  179.0020  138.5290 O   0  0  0  0  0  0  0  0  0  0  0  0
  185.4090  178.3990  139.5930 C   0  0  0  0  0  3  0  0  0  0  0  0
  186.5960  179.1980  141.4930 O   0  0  0  0  0  0  0  0  0  0  0  0
  186.6190  178.0950  142.3590 C   0  0  0  0  0  2  0  0  0  0  0  0
  188.6850  177.4950  141.1870 C   0  0  0  0  0  2  0  0  0  0  0  0
  187.9590  177.4270  142.2970 C   0  0  0  0  0  0  0  0  0  0  0  0
  188.3850  176.5160  143.4040 C   0  0  0  0  0  2  0  0  0  0  0  0
  189.2150  177.2480  144.4120 C   0  0  0  0  0  0  0  0  0  0  0  0
  191.5290  178.0490  143.7120 O   0  0  0  0  0  0  0  0  0  0  0  0
  190.4060  177.6600  144.0550 C   0  0  0  0  0  0  0  0  0  0  0  0
  188.9800  177.8260  148.1540 C   0  0  0  0  0  3  0  0  0  0  0  0
  186.7910  178.1800  147.1800 C   0  0  0  0  0  3  0  0  0  0  0  0
  189.4950  177.5430  146.8850 C   0  0  0  0  0  3  0  0  0  0  0  0
  187.3050  177.9000  145.9120 C   0  0  0  0  0  3  0  0  0  0  0  0
  188.6640  177.5740  145.7500 C   0  0  0  0  0  0  0  0  0  0  0  0
  187.6270  178.1390  148.3010 C   0  0  0  0  0  3  0  0  0  0  0  0
  1  4  1  6  0  0  0
  1  3  1  0  0  0  0
  1  2  1  0  0  0  0
  3  2  1  0  0  0  0
  3 27  1  1  0  0  0
  5  4  1  0  0  0  0
  6  5  2  0  0  0  0
  7  5  1  0  0  0  0
  8 11  1  0  0  0  0
  9 10  1  0  0  0  0
  9  8  1  0  0  0  0
 10 12  1  0  0  0  0
 11  7  1  0  0  0  0
 12 11  2  0  0  0  0
 13 22  1  0  0  0  0
 13 18  1  0  0  0  0
 14 15  1  0  0  0  0
 15 18  2  0  0  0  0
 15 10  1  0  0  0  0
 16 13  2  0  0  0  0
 17 16  1  0  0  0  0
 17 14  2  0  0  0  0
 19 21  1  0  0  0  0
 20 24  1  0  0  0  0
 21 20  1  0  0  0  0
 22 24  1  0  0  0  0
 23 19  1  0  0  0  0
 23 22  1  0  0  0  0
 25 17  1  0  0  0  0
 26 25  1  0  0  0  0
 29 27  1  0  0  0  0
 29 28  2  0  0  0  0
 30 29  1  0  0  0  0
 32 31  1  6  0  0  0
 32 30  1  0  0  0  0
 33 35  1  6  0  0  0
 33 36  1  0  0  0  0
 33 32  1  0  0  0  0
 34 35  2  0  0  0  0
 36 37  1  0  0  0  0
 38 39  2  0  0  0  0
 39 37  1  0  0  0  0
 39 40  1  0  0  0  0
 40 41  1  0  0  0  0
 41 48  1  0  0  0  0
 42 43  2  0  0  0  0
 43 41  2  0  0  0  0
 44 49  1  0  0  0  0
 45 49  2  0  0  0  0
 46 44  2  0  0  0  0
 47 45  1  0  0  0  0
 48 47  2  0  0  0  0
 48 46  1  0  0  0  0
M  END
>  <MODEL>
9

>  <REMARK>
 VINA RESULT:      -7.3      3.255      7.870
  Name = 
  19 active torsions:
  status: ('A' for Active; 'I' for Inactive)
    1  A    between atoms: O_1  and  C_6
    2  A    between atoms: O_1  and  C_10
    3  A    between atoms: C_2  and  N_25
    4  A    between atoms: C_2  and  O_36
    5  A    between atoms: C_4  and  C_44
    6  A    between atoms: C_6  and  C_20
    7  A    between atoms: C_6  and  C_47
    8  A    between atoms: C_7  and  C_28
    9  A    between atoms: C_7  and  C_48
   10  A    between atoms: C_10  and  C_39
   11  A    between atoms: C_14  and  N_25
   12  A    between atoms: O_15  and  C_30
   13  A    between atoms: N_16  and  C_18
   14  A    between atoms: C_19  and  O_36
   15  A    between atoms: C_20  and  C_26
   16  A    between atoms: C_26  and  C_29
   17  A    between atoms: C_29  and  C_40
   18  A    between atoms: C_32  and  C_40
   19  A    between atoms: C_39  and  C_48
                            x       y       z     vdW  Elec       q    Type
                         _______ _______ _______ _____ _____    ______ ____

>  <TORSDO>
F 19

$$$$
