=
 OpenBabel11062416463D

 28 30  0  0  1  0  0  0  0  0999 V2000
  187.0550  179.0190  141.2430 S   0  0  0  0  0  0  0  0  0  0  0  0
  188.3970  177.8010  141.4050 C   0  0  2  0  0  3  0  0  0  0  0  0
  188.5140  177.4180  142.8750 C   0  0  1  0  0  3  0  0  0  0  0  0
  189.6450  178.3830  140.9460 N   0  0  0  0  0  1  0  0  0  0  0  0
  186.3460  178.3990  142.7620 C   0  0  0  0  0  0  0  0  0  0  0  0
  187.1820  177.6670  143.4970 C   0  0  0  0  0  0  0  0  0  0  0  0
  182.4950  178.3220  142.3560 C   0  0  1  0  0  3  0  0  0  0  0  0
  181.8270  178.8910  141.1970 N   0  0  0  0  0  1  0  0  0  0  0  0
  180.8170  178.8990  143.9610 O   0  0  0  0  0  1  0  0  0  0  0  0
  183.9830  178.2260  142.0970 C   0  0  0  0  0  0  0  0  0  0  0  0
  182.1430  179.1400  143.5990 C   0  0  1  0  0  3  0  0  0  0  0  0
  183.0550  178.7520  144.7460 C   0  0  0  0  0  2  0  0  0  0  0  0
  184.8990  178.5340  143.0420 C   0  0  0  0  0  0  0  0  0  0  0  0
  184.3970  177.7600  140.8520 O   0  0  0  0  0  1  0  0  0  0  0  0
  184.4860  179.1130  144.3740 C   0  0  0  0  0  2  0  0  0  0  0  0
  188.9320  175.9830  143.0170 C   0  0  0  0  0  0  0  0  0  0  0  0
  188.1010  175.1050  143.1940 O   0  0  0  0  0  0  0  0  0  0  0  0
  191.1500  176.6770  143.4420 O   0  0  0  0  0  1  0  0  0  0  0  0
  190.3790  175.6320  142.9320 C   0  0  0  0  0  2  0  0  0  0  0  0
  186.8640  177.1280  144.7540 O   0  0  0  0  0  0  0  0  0  0  0  0
  189.4060  177.5890  147.4020 C   0  0  0  0  0  0  0  0  0  0  0  0
  187.3420  178.6500  148.1170 C   0  0  0  0  0  3  0  0  0  0  0  0
  188.6760  178.3130  148.3570 C   0  0  0  0  0  3  0  0  0  0  0  0
  187.4480  177.5290  145.9640 C   0  0  0  0  0  0  0  0  0  0  0  0
  186.7310  178.2640  146.9220 C   0  0  0  0  0  3  0  0  0  0  0  0
  188.7860  177.2060  146.2080 C   0  0  0  0  0  3  0  0  0  0  0  0
  190.7430  177.2390  147.6110 O   0  0  0  0  0  0  0  0  0  0  0  0
  191.4280  176.3010  146.7920 C   0  0  0  0  0  1  0  0  0  0  0  0
  1  2  1  0  0  0  0
  1  5  1  0  0  0  0
  2  4  1  1  0  0  0
  2  3  1  0  0  0  0
  3 16  1  6  0  0  0
  3  6  1  0  0  0  0
  5 13  1  0  0  0  0
  5  6  2  0  0  0  0
  6 20  1  0  0  0  0
  7  8  1  6  0  0  0
  7 11  1  0  0  0  0
 10  7  1  0  0  0  0
 10 13  2  0  0  0  0
 11  9  1  1  0  0  0
 11 12  1  0  0  0  0
 13 15  1  0  0  0  0
 14 10  1  0  0  0  0
 15 12  1  0  0  0  0
 16 17  2  0  0  0  0
 19 16  1  0  0  0  0
 19 18  1  0  0  0  0
 20 24  1  0  0  0  0
 21 27  1  0  0  0  0
 21 23  1  0  0  0  0
 22 23  2  0  0  0  0
 24 26  1  0  0  0  0
 24 25  2  0  0  0  0
 25 22  1  0  0  0  0
 26 21  2  0  0  0  0
 28 27  1  0  0  0  0
M  END
>  <MODEL>
1

>  <REMARK>
 VINA RESULT:      -7.6      0.000      0.000
  Name = 
  6 active torsions:
  status: ('A' for Active; 'I' for Inactive)
    1  A    between atoms: C_1  and  O_3
    2  A    between atoms: C_5  and  O_17
    3  A    between atoms: C_9  and  C_13
    4  A    between atoms: C_9  and  C_18
    5  A    between atoms: O_17  and  C_24
    6  A    between atoms: C_21  and  C_25
                            x       y       z     vdW  Elec       q    Type
                         _______ _______ _______ _____ _____    ______ ____

>  <TORSDO>
F 6

$$$$
=
 OpenBabel11062416463D

 28 30  0  0  1  0  0  0  0  0999 V2000
  190.2270  175.8180  139.2460 S   0  0  0  0  0  0  0  0  0  0  0  0
  189.5980  176.7800  137.8360 C   0  0  2  0  0  3  0  0  0  0  0  0
  188.4090  177.6030  138.3170 C   0  0  1  0  0  3  0  0  0  0  0  0
  189.1790  175.8810  136.7760 N   0  0  0  0  0  1  0  0  0  0  0  0
  189.4940  177.0130  140.3540 C   0  0  0  0  0  0  0  0  0  0  0  0
  188.5790  177.7980  139.7850 C   0  0  0  0  0  0  0  0  0  0  0  0
  189.9240  176.8650  144.2000 C   0  0  1  0  0  3  0  0  0  0  0  0
  188.8300  177.1460  145.1130 N   0  0  0  0  0  1  0  0  0  0  0  0
  191.6620  177.8150  145.5410 O   0  0  0  0  0  1  0  0  0  0  0  0
  189.3930  176.7010  142.7930 C   0  0  0  0  0  0  0  0  0  0  0  0
  190.9880  177.9560  144.3280 C   0  0  1  0  0  3  0  0  0  0  0  0
  191.9790  177.8460  143.1860 C   0  0  0  0  0  2  0  0  0  0  0  0
  190.0280  177.2190  141.7190 C   0  0  0  0  0  0  0  0  0  0  0  0
  188.2320  175.9510  142.6200 O   0  0  0  0  0  1  0  0  0  0  0  0
  191.2450  178.1000  141.8770 C   0  0  0  0  0  2  0  0  0  0  0  0
  188.3420  178.9140  137.5880 C   0  0  0  0  0  0  0  0  0  0  0  0
  189.1220  179.8170  137.8550 O   0  0  0  0  0  0  0  0  0  0  0  0
  186.4570  178.0070  136.4900 O   0  0  0  0  0  1  0  0  0  0  0  0
  187.3160  179.1060  136.5240 C   0  0  0  0  0  2  0  0  0  0  0  0
  187.8320  178.7660  140.4730 O   0  0  0  0  0  0  0  0  0  0  0  0
  184.8360  178.3650  142.6070 C   0  0  0  0  0  0  0  0  0  0  0  0
  184.1270  178.4670  140.2860 C   0  0  0  0  0  3  0  0  0  0  0  0
  183.8160  178.3430  141.6430 C   0  0  0  0  0  3  0  0  0  0  0  0
  186.4870  178.6220  140.8410 C   0  0  0  0  0  0  0  0  0  0  0  0
  185.4570  178.6110  139.8870 C   0  0  0  0  0  3  0  0  0  0  0  0
  186.1660  178.5090  142.1970 C   0  0  0  0  0  3  0  0  0  0  0  0
  184.5580  178.2470  143.9710 O   0  0  0  0  0  0  0  0  0  0  0  0
  183.5160  178.9740  144.6080 C   0  0  0  0  0  1  0  0  0  0  0  0
  1  5  1  0  0  0  0
  2  4  1  6  0  0  0
  2  3  1  0  0  0  0
  2  1  1  0  0  0  0
  3 16  1  6  0  0  0
  3  6  1  0  0  0  0
  5 13  1  0  0  0  0
  6  5  2  0  0  0  0
  6 20  1  0  0  0  0
  7 11  1  0  0  0  0
  7  8  1  1  0  0  0
 10  7  1  0  0  0  0
 11  9  1  1  0  0  0
 12 11  1  0  0  0  0
 13 15  1  0  0  0  0
 13 10  2  0  0  0  0
 14 10  1  0  0  0  0
 15 12  1  0  0  0  0
 16 17  2  0  0  0  0
 18 19  1  0  0  0  0
 19 16  1  0  0  0  0
 20 24  1  0  0  0  0
 21 27  1  0  0  0  0
 22 23  1  0  0  0  0
 23 21  2  0  0  0  0
 24 26  2  0  0  0  0
 25 22  2  0  0  0  0
 25 24  1  0  0  0  0
 26 21  1  0  0  0  0
 27 28  1  0  0  0  0
M  END
>  <MODEL>
2

>  <REMARK>
 VINA RESULT:      -6.8      3.116      6.889
  Name = 
  6 active torsions:
  status: ('A' for Active; 'I' for Inactive)
    1  A    between atoms: C_1  and  O_3
    2  A    between atoms: C_5  and  O_17
    3  A    between atoms: C_9  and  C_13
    4  A    between atoms: C_9  and  C_18
    5  A    between atoms: O_17  and  C_24
    6  A    between atoms: C_21  and  C_25
                            x       y       z     vdW  Elec       q    Type
                         _______ _______ _______ _____ _____    ______ ____

>  <TORSDO>
F 6

$$$$
=
 OpenBabel11062416463D

 28 30  0  0  1  0  0  0  0  0999 V2000
  184.4780  176.8730  136.4500 S   0  0  0  0  0  0  0  0  0  0  0  0
  186.2850  176.9420  136.6490 C   0  0  2  0  0  3  0  0  0  0  0  0
  186.6210  178.1540  137.5090 C   0  0  1  0  0  3  0  0  0  0  0  0
  186.9180  177.0690  135.3490 N   0  0  0  0  0  1  0  0  0  0  0  0
  184.3030  177.8250  137.9520 C   0  0  0  0  0  0  0  0  0  0  0  0
  185.4180  178.4460  138.3390 C   0  0  0  0  0  0  0  0  0  0  0  0
  180.9380  178.7210  139.6440 C   0  0  1  0  0  3  0  0  0  0  0  0
  180.7330  179.9770  140.3470 N   0  0  0  0  0  1  0  0  0  0  0  0
  179.5910  177.3700  141.0880 O   0  0  0  0  0  1  0  0  0  0  0  0
  182.2180  178.7820  138.8400 C   0  0  0  0  0  0  0  0  0  0  0  0
  180.8990  177.5670  140.6460 C   0  0  1  0  0  3  0  0  0  0  0  0
  181.4040  176.2970  139.9880 C   0  0  0  0  0  2  0  0  0  0  0  0
  183.0750  177.7400  138.7730 C   0  0  0  0  0  0  0  0  0  0  0  0
  182.4780  179.9440  138.1190 O   0  0  0  0  0  1  0  0  0  0  0  0
  182.8620  176.4950  139.6020 C   0  0  0  0  0  2  0  0  0  0  0  0
  187.8270  177.8820  138.3600 C   0  0  0  0  0  0  0  0  0  0  0  0
  187.9470  176.8200  138.9520 O   0  0  0  0  0  0  0  0  0  0  0  0
  188.8180  179.7920  137.3850 O   0  0  0  0  0  1  0  0  0  0  0  0
  188.8910  178.9210  138.4720 C   0  0  0  0  0  2  0  0  0  0  0  0
  185.5010  179.2960  139.4530 O   0  0  0  0  0  0  0  0  0  0  0  0
  186.7480  178.0230  142.6950 C   0  0  0  0  0  0  0  0  0  0  0  0
  184.3600  178.4180  142.8850 C   0  0  0  0  0  3  0  0  0  0  0  0
  185.5670  178.0030  143.4520 C   0  0  0  0  0  3  0  0  0  0  0  0
  185.5000  178.8650  140.7860 C   0  0  0  0  0  0  0  0  0  0  0  0
  184.3270  178.8520  141.5580 C   0  0  0  0  0  3  0  0  0  0  0  0
  186.7060  178.4580  141.3660 C   0  0  0  0  0  3  0  0  0  0  0  0
  187.9720  177.6170  143.2340 O   0  0  0  0  0  0  0  0  0  0  0  0
  188.4150  176.2670  143.2040 C   0  0  0  0  0  1  0  0  0  0  0  0
  1  2  1  0  0  0  0
  1  5  1  0  0  0  0
  2  4  1  6  0  0  0
  2  3  1  0  0  0  0
  3  6  1  0  0  0  0
  3 16  1  1  0  0  0
  5  6  2  0  0  0  0
  5 13  1  0  0  0  0
  6 20  1  0  0  0  0
  7  8  1  1  0  0  0
  7 11  1  0  0  0  0
 10  7  1  0  0  0  0
 11  9  1  6  0  0  0
 12 11  1  0  0  0  0
 13 10  2  0  0  0  0
 13 15  1  0  0  0  0
 14 10  1  0  0  0  0
 15 12  1  0  0  0  0
 16 19  1  0  0  0  0
 16 17  2  0  0  0  0
 18 19  1  0  0  0  0
 20 24  1  0  0  0  0
 21 27  1  0  0  0  0
 21 23  1  0  0  0  0
 22 23  2  0  0  0  0
 24 26  1  0  0  0  0
 24 25  2  0  0  0  0
 25 22  1  0  0  0  0
 26 21  2  0  0  0  0
 28 27  1  0  0  0  0
M  END
>  <MODEL>
3

>  <REMARK>
 VINA RESULT:      -6.7      3.479      5.207
  Name = 
  6 active torsions:
  status: ('A' for Active; 'I' for Inactive)
    1  A    between atoms: C_1  and  O_3
    2  A    between atoms: C_5  and  O_17
    3  A    between atoms: C_9  and  C_13
    4  A    between atoms: C_9  and  C_18
    5  A    between atoms: O_17  and  C_24
    6  A    between atoms: C_21  and  C_25
                            x       y       z     vdW  Elec       q    Type
                         _______ _______ _______ _____ _____    ______ ____

>  <TORSDO>
F 6

$$$$
=
 OpenBabel11062416463D

 28 30  0  0  1  0  0  0  0  0999 V2000
  188.1070  175.7240  143.8720 S   0  0  0  0  0  0  0  0  0  0  0  0
  189.8300  176.0910  143.4200 C   0  0  2  0  0  3  0  0  0  0  0  0
  189.8200  176.9010  142.1290 C   0  0  1  0  0  3  0  0  0  0  0  0
  190.5590  174.8520  143.2180 N   0  0  0  0  0  1  0  0  0  0  0  0
  187.5830  177.1390  142.9140 C   0  0  0  0  0  0  0  0  0  0  0  0
  188.5000  177.5910  142.0590 C   0  0  0  0  0  0  0  0  0  0  0  0
  184.8290  179.1150  144.7870 C   0  0  1  0  0  3  0  0  0  0  0  0
  184.3670  178.7350  146.1120 N   0  0  0  0  0  1  0  0  0  0  0  0
  182.7150  179.8710  143.9590 O   0  0  0  0  0  1  0  0  0  0  0  0
  186.0970  178.3630  144.4470 C   0  0  0  0  0  0  0  0  0  0  0  0
  183.7020  178.9020  143.7760 C   0  0  1  0  0  3  0  0  0  0  0  0
  184.2490  179.0040  142.3650 C   0  0  0  0  0  2  0  0  0  0  0  0
  186.3170  177.8430  143.2190 C   0  0  0  0  0  0  0  0  0  0  0  0
  187.0720  178.2530  145.4340 O   0  0  0  0  0  1  0  0  0  0  0  0
  185.2510  177.8790  142.1500 C   0  0  0  0  0  2  0  0  0  0  0  0
  190.9580  177.8780  142.1080 C   0  0  0  0  0  0  0  0  0  0  0  0
  191.7860  177.8540  141.2080 O   0  0  0  0  0  0  0  0  0  0  0  0
  192.0540  178.5050  144.1040 O   0  0  0  0  0  1  0  0  0  0  0  0
  191.0700  178.8930  143.1950 C   0  0  0  0  0  2  0  0  0  0  0  0
  188.2900  178.6520  141.1640 O   0  0  0  0  0  0  0  0  0  0  0  0
  186.6720  178.1070  137.8820 C   0  0  0  0  0  0  0  0  0  0  0  0
  189.0440  178.4820  137.5240 C   0  0  0  0  0  3  0  0  0  0  0  0
  187.7700  178.2200  137.0150 C   0  0  0  0  0  3  0  0  0  0  0  0
  188.1400  178.5070  139.7780 C   0  0  0  0  0  0  0  0  0  0  0  0
  189.2290  178.6300  138.9000 C   0  0  0  0  0  3  0  0  0  0  0  0
  186.8660  178.2570  139.2600 C   0  0  0  0  0  3  0  0  0  0  0  0
  185.3840  177.8500  137.4050 O   0  0  0  0  0  0  0  0  0  0  0  0
  184.2550  177.7420  138.2610 C   0  0  0  0  0  1  0  0  0  0  0  0
  2  4  1  6  0  0  0
  2  1  1  0  0  0  0
  3 16  1  1  0  0  0
  3  2  1  0  0  0  0
  5 13  1  0  0  0  0
  5  1  1  0  0  0  0
  6  3  1  0  0  0  0
  6  5  2  0  0  0  0
  7  8  1  1  0  0  0
 10  7  1  0  0  0  0
 10 14  1  0  0  0  0
 11  9  1  6  0  0  0
 11  7  1  0  0  0  0
 12 11  1  0  0  0  0
 13 10  2  0  0  0  0
 15 12  1  0  0  0  0
 15 13  1  0  0  0  0
 16 19  1  0  0  0  0
 17 16  2  0  0  0  0
 19 18  1  0  0  0  0
 20  6  1  0  0  0  0
 21 26  1  0  0  0  0
 22 25  2  0  0  0  0
 23 22  1  0  0  0  0
 23 21  2  0  0  0  0
 24 20  1  0  0  0  0
 25 24  1  0  0  0  0
 26 24  2  0  0  0  0
 27 21  1  0  0  0  0
 27 28  1  0  0  0  0
M  END
>  <MODEL>
4

>  <REMARK>
 VINA RESULT:      -6.5      2.853      5.956
  Name = 
  6 active torsions:
  status: ('A' for Active; 'I' for Inactive)
    1  A    between atoms: C_1  and  O_3
    2  A    between atoms: C_5  and  O_17
    3  A    between atoms: C_9  and  C_13
    4  A    between atoms: C_9  and  C_18
    5  A    between atoms: O_17  and  C_24
    6  A    between atoms: C_21  and  C_25
                            x       y       z     vdW  Elec       q    Type
                         _______ _______ _______ _____ _____    ______ ____

>  <TORSDO>
F 6

$$$$
=
 OpenBabel11062416463D

 28 30  0  0  1  0  0  0  0  0999 V2000
  187.3240  178.5180  140.8020 S   0  0  0  0  0  0  0  0  0  0  0  0
  185.8200  179.3310  141.4230 C   0  0  2  0  0  3  0  0  0  0  0  0
  185.2310  178.4620  142.5270 C   0  0  1  0  0  3  0  0  0  0  0  0
  184.8590  179.4750  140.3440 N   0  0  0  0  0  1  0  0  0  0  0  0
  187.4670  177.6540  142.3610 C   0  0  0  0  0  0  0  0  0  0  0  0
  186.3530  177.6590  143.0930 C   0  0  0  0  0  0  0  0  0  0  0  0
  191.0480  177.5820  143.8320 C   0  0  1  0  0  3  0  0  0  0  0  0
  192.1010  178.4600  143.3510 N   0  0  0  0  0  1  0  0  0  0  0  0
  192.4390  175.6860  144.2710 O   0  0  0  0  0  1  0  0  0  0  0  0
  189.7090  178.0410  143.2970 C   0  0  0  0  0  0  0  0  0  0  0  0
  191.3870  176.1350  143.4730 C   0  0  1  0  0  3  0  0  0  0  0  0
  190.1750  175.2520  143.6960 C   0  0  0  0  0  2  0  0  0  0  0  0
  188.7770  177.1710  142.8500 C   0  0  0  0  0  0  0  0  0  0  0  0
  189.4350  179.4060  143.3140 O   0  0  0  0  0  1  0  0  0  0  0  0
  189.0700  175.6930  142.7470 C   0  0  0  0  0  2  0  0  0  0  0  0
  184.5740  179.3100  143.5760 C   0  0  0  0  0  0  0  0  0  0  0  0
  185.0870  180.3560  143.9460 O   0  0  0  0  0  0  0  0  0  0  0  0
  182.2230  179.2770  143.3410 O   0  0  0  0  0  1  0  0  0  0  0  0
  183.2750  178.8710  144.1620 C   0  0  0  0  0  2  0  0  0  0  0  0
  186.2130  176.9950  144.3220 O   0  0  0  0  0  0  0  0  0  0  0  0
  188.3760  177.8500  147.1980 C   0  0  0  0  0  0  0  0  0  0  0  0
  186.1540  178.7380  147.6090 C   0  0  0  0  0  3  0  0  0  0  0  0
  187.4760  178.5490  148.0180 C   0  0  0  0  0  3  0  0  0  0  0  0
  186.6120  177.5180  145.5600 C   0  0  0  0  0  0  0  0  0  0  0  0
  185.7240  178.2290  146.3820 C   0  0  0  0  0  3  0  0  0  0  0  0
  187.9370  177.3430  145.9710 C   0  0  0  0  0  3  0  0  0  0  0  0
  189.7060  177.6470  147.5770 O   0  0  0  0  0  0  0  0  0  0  0  0
  190.4470  176.4970  147.1910 C   0  0  0  0  0  1  0  0  0  0  0  0
  1  2  1  0  0  0  0
  1  5  1  0  0  0  0
  2  4  1  6  0  0  0
  2  3  1  0  0  0  0
  3  6  1  0  0  0  0
  3 16  1  1  0  0  0
  5 13  1  0  0  0  0
  5  6  2  0  0  0  0
  6 20  1  0  0  0  0
  7  8  1  6  0  0  0
 10 14  1  0  0  0  0
 10  7  1  0  0  0  0
 11 12  1  0  0  0  0
 11  7  1  0  0  0  0
 11  9  1  1  0  0  0
 13 10  2  0  0  0  0
 15 13  1  0  0  0  0
 15 12  1  0  0  0  0
 16 17  2  0  0  0  0
 16 19  1  0  0  0  0
 18 19  1  0  0  0  0
 20 24  1  0  0  0  0
 21 27  1  0  0  0  0
 21 23  1  0  0  0  0
 22 23  2  0  0  0  0
 24 26  1  0  0  0  0
 24 25  2  0  0  0  0
 25 22  1  0  0  0  0
 26 21  2  0  0  0  0
 28 27  1  0  0  0  0
M  END
>  <MODEL>
5

>  <REMARK>
 VINA RESULT:      -6.4      1.657      5.627
  Name = 
  6 active torsions:
  status: ('A' for Active; 'I' for Inactive)
    1  A    between atoms: C_1  and  O_3
    2  A    between atoms: C_5  and  O_17
    3  A    between atoms: C_9  and  C_13
    4  A    between atoms: C_9  and  C_18
    5  A    between atoms: O_17  and  C_24
    6  A    between atoms: C_21  and  C_25
                            x       y       z     vdW  Elec       q    Type
                         _______ _______ _______ _____ _____    ______ ____

>  <TORSDO>
F 6

$$$$
=
 OpenBabel11062416463D

 28 30  0  0  1  0  0  0  0  0999 V2000
  188.8140  174.1740  135.6590 S   0  0  0  0  0  0  0  0  0  0  0  0
  187.3070  175.1650  135.9000 C   0  0  2  0  0  3  0  0  0  0  0  0
  187.5340  176.0920  137.0890 C   0  0  1  0  0  3  0  0  0  0  0  0
  186.1810  174.2890  136.1670 N   0  0  0  0  0  1  0  0  0  0  0  0
  189.7500  175.4430  136.5000 C   0  0  0  0  0  0  0  0  0  0  0  0
  189.0060  176.2930  137.2080 C   0  0  0  0  0  0  0  0  0  0  0  0
  193.6010  175.3020  136.8770 C   0  0  1  0  0  3  0  0  0  0  0  0
  194.2730  175.6690  138.1120 N   0  0  0  0  0  1  0  0  0  0  0  0
  195.2750  176.1390  135.3860 O   0  0  0  0  0  1  0  0  0  0  0  0
  192.1150  175.1620  137.1200 C   0  0  0  0  0  0  0  0  0  0  0  0
  193.9510  176.3150  135.7870 C   0  0  1  0  0  3  0  0  0  0  0  0
  193.0350  176.1240  134.5940 C   0  0  0  0  0  2  0  0  0  0  0  0
  191.1960  175.6240  136.2430 C   0  0  0  0  0  0  0  0  0  0  0  0
  191.7040  174.4950  138.2710 O   0  0  0  0  0  1  0  0  0  0  0  0
  191.6050  176.4170  135.0250 C   0  0  0  0  0  2  0  0  0  0  0  0
  186.8120  177.3920  136.8920 C   0  0  0  0  0  0  0  0  0  0  0  0
  187.2320  178.2280  136.1050 O   0  0  0  0  0  0  0  0  0  0  0  0
  185.6390  178.9120  138.2690 O   0  0  0  0  0  1  0  0  0  0  0  0
  185.5630  177.6580  137.6640 C   0  0  0  0  0  2  0  0  0  0  0  0
  189.5280  177.3310  137.9960 O   0  0  0  0  0  0  0  0  0  0  0  0
  189.8410  176.6860  141.6260 C   0  0  0  0  0  0  0  0  0  0  0  0
  188.3180  178.5480  141.2980 C   0  0  0  0  0  3  0  0  0  0  0  0
  188.9900  177.6700  142.1520 C   0  0  0  0  0  3  0  0  0  0  0  0
  189.3310  177.4580  139.3780 C   0  0  0  0  0  0  0  0  0  0  0  0
  188.4910  178.4470  139.9170 C   0  0  0  0  0  3  0  0  0  0  0  0
  190.0090  176.5910  140.2400 C   0  0  0  0  0  3  0  0  0  0  0  0
  190.5300  175.7940  142.4520 O   0  0  0  0  0  0  0  0  0  0  0  0
  191.3080  176.2210  143.5630 C   0  0  0  0  0  1  0  0  0  0  0  0
  1  2  1  0  0  0  0
  1  5  1  0  0  0  0
  2  4  1  1  0  0  0
  2  3  1  0  0  0  0
  3 16  1  6  0  0  0
  3  6  1  0  0  0  0
  5  6  2  0  0  0  0
  6 20  1  0  0  0  0
  7 10  1  0  0  0  0
  7  8  1  1  0  0  0
 10 14  1  0  0  0  0
 11  9  1  6  0  0  0
 11  7  1  0  0  0  0
 12 15  1  0  0  0  0
 12 11  1  0  0  0  0
 13  5  1  0  0  0  0
 13 10  2  0  0  0  0
 15 13  1  0  0  0  0
 16 19  1  0  0  0  0
 17 16  2  0  0  0  0
 19 18  1  0  0  0  0
 20 24  1  0  0  0  0
 21 23  1  0  0  0  0
 21 27  1  0  0  0  0
 22 23  2  0  0  0  0
 24 25  2  0  0  0  0
 24 26  1  0  0  0  0
 25 22  1  0  0  0  0
 26 21  2  0  0  0  0
 27 28  1  0  0  0  0
M  END
>  <MODEL>
6

>  <REMARK>
 VINA RESULT:      -6.4      5.423      9.094
  Name = 
  6 active torsions:
  status: ('A' for Active; 'I' for Inactive)
    1  A    between atoms: C_1  and  O_3
    2  A    between atoms: C_5  and  O_17
    3  A    between atoms: C_9  and  C_13
    4  A    between atoms: C_9  and  C_18
    5  A    between atoms: O_17  and  C_24
    6  A    between atoms: C_21  and  C_25
                            x       y       z     vdW  Elec       q    Type
                         _______ _______ _______ _____ _____    ______ ____

>  <TORSDO>
F 6

$$$$
=
 OpenBabel11062416463D

 28 30  0  0  1  0  0  0  0  0999 V2000
  184.5320  176.6130  136.9300 S   0  0  0  0  0  0  0  0  0  0  0  0
  183.3240  177.8570  137.4800 C   0  0  2  0  0  3  0  0  0  0  0  0
  183.8100  178.4380  138.8030 C   0  0  1  0  0  3  0  0  0  0  0  0
  182.0260  177.2340  137.6630 N   0  0  0  0  0  1  0  0  0  0  0  0
  185.7780  177.4240  137.9220 C   0  0  0  0  0  0  0  0  0  0  0  0
  185.2890  178.2590  138.8390 C   0  0  0  0  0  0  0  0  0  0  0  0
  189.1810  177.8340  136.1200 C   0  0  1  0  0  3  0  0  0  0  0  0
  189.3330  177.6190  134.6910 N   0  0  0  0  0  1  0  0  0  0  0  0
  191.3190  176.9740  136.7630 O   0  0  0  0  0  1  0  0  0  0  0  0
  187.7130  177.9030  136.4790 C   0  0  0  0  0  0  0  0  0  0  0  0
  189.9470  176.7520  136.8820 C   0  0  1  0  0  3  0  0  0  0  0  0
  189.5590  176.7810  138.3470 C   0  0  0  0  0  2  0  0  0  0  0  0
  187.2150  177.3100  137.5870 C   0  0  0  0  0  0  0  0  0  0  0  0
  186.8750  178.6420  135.6490 O   0  0  0  0  0  1  0  0  0  0  0  0
  188.0810  176.4400  138.4670 C   0  0  0  0  0  2  0  0  0  0  0  0
  183.4230  179.8830  138.9210 C   0  0  0  0  0  0  0  0  0  0  0  0
  184.2580  180.7660  138.7860 O   0  0  0  0  0  0  0  0  0  0  0  0
  181.4970  179.4160  140.2060 O   0  0  0  0  0  1  0  0  0  0  0  0
  182.0020  180.2380  139.1990 C   0  0  0  0  0  2  0  0  0  0  0  0
  186.0760  178.9590  139.7680 O   0  0  0  0  0  0  0  0  0  0  0  0
  187.7420  177.7980  142.8600 C   0  0  0  0  0  0  0  0  0  0  0  0
  185.4070  178.2380  143.3570 C   0  0  0  0  0  3  0  0  0  0  0  0
  186.6760  177.8270  143.7710 C   0  0  0  0  0  3  0  0  0  0  0  0
  186.2530  178.5810  141.1060 C   0  0  0  0  0  0  0  0  0  0  0  0
  185.1960  178.6180  142.0300 C   0  0  0  0  0  3  0  0  0  0  0  0
  187.5230  178.1800  141.5320 C   0  0  0  0  0  3  0  0  0  0  0  0
  189.0240  177.3950  143.2430 O   0  0  0  0  0  0  0  0  0  0  0  0
  189.4890  176.0610  143.0880 C   0  0  0  0  0  1  0  0  0  0  0  0
  1  2  1  0  0  0  0
  1  5  1  0  0  0  0
  2  4  1  1  0  0  0
  2  3  1  0  0  0  0
  3  6  1  0  0  0  0
  3 16  1  6  0  0  0
  5  6  2  0  0  0  0
  6 20  1  0  0  0  0
  7  8  1  6  0  0  0
  7 10  1  0  0  0  0
  7 11  1  0  0  0  0
 10 13  2  0  0  0  0
 11  9  1  1  0  0  0
 11 12  1  0  0  0  0
 12 15  1  0  0  0  0
 13  5  1  0  0  0  0
 13 15  1  0  0  0  0
 14 10  1  0  0  0  0
 16 19  1  0  0  0  0
 17 16  2  0  0  0  0
 19 18  1  0  0  0  0
 20 24  1  0  0  0  0
 21 27  1  0  0  0  0
 21 23  1  0  0  0  0
 22 23  2  0  0  0  0
 24 26  1  0  0  0  0
 24 25  2  0  0  0  0
 25 22  1  0  0  0  0
 26 21  2  0  0  0  0
 28 27  1  0  0  0  0
M  END
>  <MODEL>
7

>  <REMARK>
 VINA RESULT:      -6.2      3.844      7.362
  Name = 
  6 active torsions:
  status: ('A' for Active; 'I' for Inactive)
    1  A    between atoms: C_1  and  O_3
    2  A    between atoms: C_5  and  O_17
    3  A    between atoms: C_9  and  C_13
    4  A    between atoms: C_9  and  C_18
    5  A    between atoms: O_17  and  C_24
    6  A    between atoms: C_21  and  C_25
                            x       y       z     vdW  Elec       q    Type
                         _______ _______ _______ _____ _____    ______ ____

>  <TORSDO>
F 6

$$$$
=
 OpenBabel11062416463D

 28 30  0  0  1  0  0  0  0  0999 V2000
  191.2150  175.6100  134.7370 S   0  0  0  0  0  0  0  0  0  0  0  0
  192.8610  175.6580  135.5110 C   0  0  2  0  0  3  0  0  0  0  0  0
  192.6870  176.0620  136.9700 C   0  0  1  0  0  3  0  0  0  0  0  0
  193.6970  176.6270  134.8260 N   0  0  0  0  0  1  0  0  0  0  0  0
  190.4910  175.3720  136.3540 C   0  0  0  0  0  0  0  0  0  0  0  0
  191.3030  175.6770  137.3660 C   0  0  0  0  0  0  0  0  0  0  0  0
  186.6780  174.6970  136.3700 C   0  0  1  0  0  3  0  0  0  0  0  0
  185.7310  175.6170  136.9780 N   0  0  0  0  0  1  0  0  0  0  0  0
  185.5260  172.6820  136.9490 O   0  0  0  0  0  1  0  0  0  0  0  0
  188.0330  175.3590  136.2470 C   0  0  0  0  0  0  0  0  0  0  0  0
  186.7050  173.3930  137.1690 C   0  0  1  0  0  3  0  0  0  0  0  0
  187.8890  172.5490  136.7370 C   0  0  0  0  0  2  0  0  0  0  0  0
  189.1830  174.7000  136.5150 C   0  0  0  0  0  0  0  0  0  0  0  0
  188.0750  176.6770  135.7990 O   0  0  0  0  0  1  0  0  0  0  0  0
  189.1700  173.2980  137.0740 C   0  0  0  0  0  2  0  0  0  0  0  0
  193.7170  175.3930  137.8320 C   0  0  0  0  0  0  0  0  0  0  0  0
  194.2650  176.0020  138.7380 O   0  0  0  0  0  0  0  0  0  0  0  0
  195.4190  173.8580  137.2610 O   0  0  0  0  0  1  0  0  0  0  0  0
  194.0650  173.9650  137.5780 C   0  0  0  0  0  2  0  0  0  0  0  0
  190.9310  175.6250  138.7190 O   0  0  0  0  0  0  0  0  0  0  0  0
  189.3130  177.5080  141.4620 C   0  0  0  0  0  0  0  0  0  0  0  0
  188.8250  178.6260  139.3630 C   0  0  0  0  0  3  0  0  0  0  0  0
  188.6970  178.5490  140.7510 C   0  0  0  0  0  3  0  0  0  0  0  0
  190.1780  176.6080  139.3770 C   0  0  0  0  0  0  0  0  0  0  0  0
  189.5670  177.6610  138.6770 C   0  0  0  0  0  3  0  0  0  0  0  0
  190.0540  176.5450  140.7680 C   0  0  0  0  0  3  0  0  0  0  0  0
  189.2070  177.4050  142.8520 O   0  0  0  0  0  0  0  0  0  0  0  0
  188.3190  176.4960  143.4890 C   0  0  0  0  0  1  0  0  0  0  0  0
  1  2  1  0  0  0  0
  1  5  1  0  0  0  0
  2  4  1  6  0  0  0
  2  3  1  0  0  0  0
  3  6  1  0  0  0  0
  3 16  1  1  0  0  0
  5 13  1  0  0  0  0
  5  6  2  0  0  0  0
  6 20  1  0  0  0  0
  7  8  1  1  0  0  0
  7 11  1  0  0  0  0
 10  7  1  0  0  0  0
 10 13  2  0  0  0  0
 11  9  1  6  0  0  0
 12 15  1  0  0  0  0
 12 11  1  0  0  0  0
 13 15  1  0  0  0  0
 14 10  1  0  0  0  0
 16 17  2  0  0  0  0
 18 19  1  0  0  0  0
 19 16  1  0  0  0  0
 20 24  1  0  0  0  0
 21 27  1  0  0  0  0
 22 23  1  0  0  0  0
 23 21  2  0  0  0  0
 24 26  2  0  0  0  0
 25 22  2  0  0  0  0
 25 24  1  0  0  0  0
 26 21  1  0  0  0  0
 27 28  1  0  0  0  0
M  END
>  <MODEL>
8

>  <REMARK>
 VINA RESULT:      -6.1      5.626      7.891
  Name = 
  6 active torsions:
  status: ('A' for Active; 'I' for Inactive)
    1  A    between atoms: C_1  and  O_3
    2  A    between atoms: C_5  and  O_17
    3  A    between atoms: C_9  and  C_13
    4  A    between atoms: C_9  and  C_18
    5  A    between atoms: O_17  and  C_24
    6  A    between atoms: C_21  and  C_25
                            x       y       z     vdW  Elec       q    Type
                         _______ _______ _______ _____ _____    ______ ____

>  <TORSDO>
F 6

$$$$
=
 OpenBabel11062416463D

 28 30  0  0  1  0  0  0  0  0999 V2000
  180.4440  176.0660  139.4670 S   0  0  0  0  0  0  0  0  0  0  0  0
  179.6890  177.2660  140.6070 C   0  0  2  0  0  3  0  0  0  0  0  0
  180.8070  178.0790  141.2490 C   0  0  1  0  0  3  0  0  0  0  0  0
  178.9390  176.5640  141.6330 N   0  0  0  0  0  1  0  0  0  0  0  0
  181.8790  177.1250  139.3480 C   0  0  0  0  0  0  0  0  0  0  0  0
  181.9650  178.0400  140.3120 C   0  0  0  0  0  0  0  0  0  0  0  0
  183.2760  177.7260  135.7870 C   0  0  1  0  0  3  0  0  0  0  0  0
  182.4710  177.5240  134.5940 N   0  0  0  0  0  1  0  0  0  0  0  0
  185.3510  176.9810  134.8560 O   0  0  0  0  0  1  0  0  0  0  0  0
  182.3920  177.7130  137.0140 C   0  0  0  0  0  0  0  0  0  0  0  0
  184.3950  176.6850  135.8280 C   0  0  1  0  0  3  0  0  0  0  0  0
  185.0510  176.6880  137.1950 C   0  0  0  0  0  2  0  0  0  0  0  0
  182.7580  177.0910  138.1570 C   0  0  0  0  0  0  0  0  0  0  0  0
  181.1870  178.4080  136.9550 O   0  0  0  0  0  1  0  0  0  0  0  0
  184.0200  176.2660  138.2310 C   0  0  0  0  0  2  0  0  0  0  0  0
  180.3540  179.4850  141.5130 C   0  0  0  0  0  0  0  0  0  0  0  0
  180.6020  180.0320  142.5780 O   0  0  0  0  0  0  0  0  0  0  0  0
  179.6690  181.5930  140.6970 O   0  0  0  0  0  1  0  0  0  0  0  0
  179.6020  180.2210  140.4570 C   0  0  0  0  0  2  0  0  0  0  0  0
  183.0350  178.9390  140.4540 O   0  0  0  0  0  0  0  0  0  0  0  0
  186.5740  178.5670  141.4660 C   0  0  0  0  0  0  0  0  0  0  0  0
  185.1710  178.2610  143.4250 C   0  0  0  0  0  3  0  0  0  0  0  0
  186.4380  178.3070  142.8390 C   0  0  0  0  0  3  0  0  0  0  0  0
  184.1560  178.7210  141.2660 C   0  0  0  0  0  0  0  0  0  0  0  0
  184.0340  178.4720  142.6430 C   0  0  0  0  0  3  0  0  0  0  0  0
  185.4290  178.7770  140.6900 C   0  0  0  0  0  3  0  0  0  0  0  0
  187.8270  178.6230  140.8500 O   0  0  0  0  0  0  0  0  0  0  0  0
  188.0330  178.2520  139.4940 C   0  0  0  0  0  1  0  0  0  0  0  0
  1  2  1  0  0  0  0
  2  3  1  0  0  0  0
  2  4  1  1  0  0  0
  3 16  1  6  0  0  0
  5  1  1  0  0  0  0
  5  6  2  0  0  0  0
  6 20  1  0  0  0  0
  6  3  1  0  0  0  0
  7  8  1  6  0  0  0
  7 11  1  0  0  0  0
  7 10  1  0  0  0  0
 10 13  2  0  0  0  0
 11  9  1  6  0  0  0
 11 12  1  0  0  0  0
 12 15  1  0  0  0  0
 13 15  1  0  0  0  0
 13  5  1  0  0  0  0
 14 10  1  0  0  0  0
 16 17  2  0  0  0  0
 19 18  1  0  0  0  0
 19 16  1  0  0  0  0
 20 24  1  0  0  0  0
 21 23  1  0  0  0  0
 23 22  2  0  0  0  0
 24 25  2  0  0  0  0
 25 22  1  0  0  0  0
 26 24  1  0  0  0  0
 26 21  2  0  0  0  0
 27 21  1  0  0  0  0
 28 27  1  0  0  0  0
M  END
>  <MODEL>
9

>  <REMARK>
 VINA RESULT:      -6.1      4.327      7.784
  Name = 
  6 active torsions:
  status: ('A' for Active; 'I' for Inactive)
    1  A    between atoms: C_1  and  O_3
    2  A    between atoms: C_5  and  O_17
    3  A    between atoms: C_9  and  C_13
    4  A    between atoms: C_9  and  C_18
    5  A    between atoms: O_17  and  C_24
    6  A    between atoms: C_21  and  C_25
                            x       y       z     vdW  Elec       q    Type
                         _______ _______ _______ _____ _____    ______ ____

>  <TORSDO>
F 6

$$$$
