=
 OpenBabel11062412403D

 32 34  0  0  1  0  0  0  0  0999 V2000
  192.0730  179.4480  144.4520 O   0  0  0  0  0  0  0  0  0  0  0  0
  191.0550  176.4020  143.1910 C   0  0  0  0  0  0  0  0  0  0  0  0
  191.2630  177.1880  144.2350 C   0  0  0  0  0  0  0  0  0  0  0  0
  191.8550  178.4400  142.3300 N   0  0  0  0  0  2  0  0  0  0  0  0
  191.7600  178.4540  143.7460 C   0  0  0  0  0  0  0  0  0  0  0  0
  190.5640  174.9970  143.2770 C   0  0  0  0  0  1  0  0  0  0  0  0
  191.4110  177.1120  141.9060 C   0  0  2  0  0  3  0  0  0  0  0  0
  188.9360  177.6990  141.5360 C   0  0  0  0  0  3  0  0  0  0  0  0
  189.2930  176.6540  138.7450 C   0  0  1  0  0  3  0  0  0  0  0  0
  190.2280  177.2130  140.9900 C   0  0  0  0  0  0  0  0  0  0  0  0
  189.7800  176.0620  137.5910 F   0  0  0  0  0  0  0  0  0  0  0  0
  187.9330  178.6480  139.4910 N   0  0  0  0  0  2  0  0  0  0  0  0
  190.3910  176.7650  139.7450 C   0  0  0  0  0  3  0  0  0  0  0  0
  188.6950  177.9990  138.4750 C   0  0  0  0  0  0  0  0  0  0  0  0
  187.9430  178.3230  140.8880 C   0  0  0  0  0  3  0  0  0  0  0  0
  188.7230  178.6530  136.9730 S   0  0  0  0  0  0  0  0  0  0  0  0
  191.0230  176.8180  145.5980 N   0  0  0  0  0  2  0  0  0  0  0  0
  190.5090  177.2240  147.8060 C   0  0  0  0  0  1  0  0  0  0  0  0
  190.1520  177.5420  146.4300 N   0  0  0  0  0  0  0  0  0  0  0  0
  186.3720  179.0410  147.0620 C   0  0  0  0  0  0  0  0  0  0  0  0
  188.1640  177.9730  145.0120 C   0  0  0  0  0  2  0  0  0  0  0  0
  187.8640  176.9780  147.3820 C   0  0  0  0  0  2  0  0  0  0  0  0
  187.3070  178.2530  147.8120 N   0  0  0  0  0  2  0  0  0  0  0  0
  188.7690  177.1330  146.1390 C   0  0  2  0  0  3  0  0  0  0  0  0
  185.9840  180.1340  147.5460 O   0  0  0  0  0  0  0  0  0  0  0  0
  186.6790  177.6820  144.8710 C   0  0  0  0  0  2  0  0  0  0  0  0
  185.8140  178.6250  145.7180 C   0  0  1  0  0  3  0  0  0  0  0  0
  184.4060  178.0640  145.8750 C   0  0  0  0  0  2  0  0  0  0  0  0
  183.3930  178.9180  145.1250 C   0  0  0  0  0  2  0  0  0  0  0  0
  184.0260  179.5250  143.8830 C   0  0  0  0  0  2  0  0  0  0  0  0
  184.5350  177.9040  142.1990 O   0  0  0  0  0  1  0  0  0  0  0  0
  183.5500  178.7930  142.6360 C   0  0  0  0  0  2  0  0  0  0  0  0
  2  6  1  0  0  0  0
  2  3  2  0  0  0  0
  3 17  1  0  0  0  0
  4  5  1  0  0  0  0
  5  3  1  0  0  0  0
  5  1  2  0  0  0  0
  7 10  1  6  0  0  0
  7  4  1  0  0  0  0
  7  2  1  0  0  0  0
  9 11  1  6  0  0  0
  9 13  1  0  0  0  0
 10  8  1  0  0  0  0
 12 15  1  0  0  0  0
 13 10  2  0  0  0  0
 14  9  1  0  0  0  0
 14 12  1  0  0  0  0
 15  8  2  0  0  0  0
 16 14  2  0  0  0  0
 17 19  1  0  0  0  0
 19 18  1  0  0  0  0
 20 25  2  0  0  0  0
 20 23  1  0  0  0  0
 21 24  1  0  0  0  0
 22 23  1  0  0  0  0
 24 19  1  1  0  0  0
 24 22  1  0  0  0  0
 26 21  1  0  0  0  0
 26 27  1  0  0  0  0
 27 28  1  1  0  0  0
 27 20  1  0  0  0  0
 29 28  1  0  0  0  0
 30 29  1  0  0  0  0
 31 32  1  0  0  0  0
 32 30  1  0  0  0  0
M  END
>  <MODEL>
1

>  <REMARK>
 VINA RESULT:      -8.1      0.000      0.000
  Name = 
  8 active torsions:
  status: ('A' for Active; 'I' for Inactive)
    1  A    between atoms: C_5  and  C_10
    2  A    between atoms: C_5  and  C_20
    3  A    between atoms: C_6  and  C_28
    4  A    between atoms: C_9  and  N_22
    5  A    between atoms: C_10  and  C_32
    6  A    between atoms: C_16  and  N_31
    7  A    between atoms: C_20  and  C_25
    8  A    between atoms: N_22  and  N_31
                            x       y       z     vdW  Elec       q    Type
                         _______ _______ _______ _____ _____    ______ ____

>  <TORSDO>
F 8

$$$$
=
 OpenBabel11062412403D

 32 34  0  0  1  0  0  0  0  0999 V2000
  184.9710  178.9990  139.6220 O   0  0  0  0  0  0  0  0  0  0  0  0
  183.8640  178.8520  142.8860 C   0  0  0  0  0  0  0  0  0  0  0  0
  183.6230  178.6880  141.5960 C   0  0  0  0  0  0  0  0  0  0  0  0
  185.8540  179.4210  141.7690 N   0  0  0  0  0  2  0  0  0  0  0  0
  184.8260  179.0320  140.8720 C   0  0  0  0  0  0  0  0  0  0  0  0
  182.8630  178.6240  143.9680 C   0  0  0  0  0  1  0  0  0  0  0  0
  185.2790  179.3300  143.1110 C   0  0  2  0  0  3  0  0  0  0  0  0
  186.7790  177.2510  143.3000 C   0  0  0  0  0  3  0  0  0  0  0  0
  186.5520  177.5810  146.2750 C   0  0  1  0  0  3  0  0  0  0  0  0
  186.0550  178.3670  143.9590 C   0  0  0  0  0  0  0  0  0  0  0  0
  186.1970  177.9820  147.5520 F   0  0  0  0  0  0  0  0  0  0  0  0
  188.5790  176.8730  144.9440 N   0  0  0  0  0  2  0  0  0  0  0  0
  185.9680  178.5230  145.2800 C   0  0  0  0  0  3  0  0  0  0  0  0
  188.0360  177.4960  146.1060 C   0  0  0  0  0  0  0  0  0  0  0  0
  187.8730  176.6050  143.7250 C   0  0  0  0  0  3  0  0  0  0  0  0
  189.0520  177.9200  147.3200 S   0  0  0  0  0  0  0  0  0  0  0  0
  182.3770  178.2410  141.0470 N   0  0  0  0  0  2  0  0  0  0  0  0
  180.1780  178.4580  141.6910 C   0  0  0  0  0  1  0  0  0  0  0  0
  181.2580  179.0830  140.9420 N   0  0  0  0  0  0  0  0  0  0  0  0
  179.4470  181.9020  138.5520 C   0  0  0  0  0  0  0  0  0  0  0  0
  181.8210  180.2140  138.8070 C   0  0  0  0  0  2  0  0  0  0  0  0
  179.3940  179.4340  139.2500 C   0  0  0  0  0  2  0  0  0  0  0  0
  179.0060  180.8300  139.3970 N   0  0  0  0  0  2  0  0  0  0  0  0
  180.9000  179.2220  139.5210 C   0  0  2  0  0  3  0  0  0  0  0  0
  179.0450  183.0670  138.8040 O   0  0  0  0  0  0  0  0  0  0  0  0
  181.3070  180.5010  137.4060 C   0  0  0  0  0  2  0  0  0  0  0  0
  180.3640  181.7110  137.3640 C   0  0  1  0  0  3  0  0  0  0  0  0
  179.5660  181.7230  136.0660 C   0  0  0  0  0  2  0  0  0  0  0  0
  180.3990  182.2780  134.9200 C   0  0  0  0  0  2  0  0  0  0  0  0
  180.8160  183.7110  135.2120 C   0  0  0  0  0  2  0  0  0  0  0  0
  179.2880  185.2370  136.2400 O   0  0  0  0  0  1  0  0  0  0  0  0
  179.6370  184.6530  135.0190 C   0  0  0  0  0  2  0  0  0  0  0  0
  1  5  2  0  0  0  0
  2  7  1  0  0  0  0
  2  6  1  0  0  0  0
  3  2  2  0  0  0  0
  4  7  1  0  0  0  0
  5  3  1  0  0  0  0
  5  4  1  0  0  0  0
  7 10  1  1  0  0  0
  8 15  2  0  0  0  0
  8 10  1  0  0  0  0
  9 11  1  1  0  0  0
 10 13  2  0  0  0  0
 12 14  1  0  0  0  0
 13  9  1  0  0  0  0
 14  9  1  0  0  0  0
 14 16  2  0  0  0  0
 15 12  1  0  0  0  0
 17  3  1  0  0  0  0
 19 17  1  0  0  0  0
 19 18  1  0  0  0  0
 20 25  2  0  0  0  0
 20 23  1  0  0  0  0
 21 24  1  0  0  0  0
 22 23  1  0  0  0  0
 22 24  1  0  0  0  0
 24 19  1  1  0  0  0
 26 21  1  0  0  0  0
 27 28  1  6  0  0  0
 27 26  1  0  0  0  0
 27 20  1  0  0  0  0
 29 30  1  0  0  0  0
 29 28  1  0  0  0  0
 32 30  1  0  0  0  0
 32 31  1  0  0  0  0
M  END
>  <MODEL>
2

>  <REMARK>
 VINA RESULT:      -7.2      6.032      9.317
  Name = 
  8 active torsions:
  status: ('A' for Active; 'I' for Inactive)
    1  A    between atoms: C_5  and  C_10
    2  A    between atoms: C_5  and  C_20
    3  A    between atoms: C_6  and  C_28
    4  A    between atoms: C_9  and  N_22
    5  A    between atoms: C_10  and  C_32
    6  A    between atoms: C_16  and  N_31
    7  A    between atoms: C_20  and  C_25
    8  A    between atoms: N_22  and  N_31
                            x       y       z     vdW  Elec       q    Type
                         _______ _______ _______ _____ _____    ______ ____

>  <TORSDO>
F 8

$$$$
=
 OpenBabel11062412403D

 32 34  0  0  1  0  0  0  0  0999 V2000
  192.6460  177.2370  140.9800 O   0  0  0  0  0  0  0  0  0  0  0  0
  189.4600  177.8370  142.1580 C   0  0  0  0  0  0  0  0  0  0  0  0
  190.2500  177.3570  141.2110 C   0  0  0  0  0  0  0  0  0  0  0  0
  191.6630  178.1960  142.8980 N   0  0  0  0  0  2  0  0  0  0  0  0
  191.6190  177.5630  141.6290 C   0  0  0  0  0  0  0  0  0  0  0  0
  187.9700  177.8370  142.0940 C   0  0  0  0  0  1  0  0  0  0  0  0
  190.2710  178.4090  143.2960 C   0  0  2  0  0  3  0  0  0  0  0  0
  191.0400  176.8980  145.2280 C   0  0  0  0  0  3  0  0  0  0  0  0
  188.2110  177.0390  146.2230 C   0  0  1  0  0  3  0  0  0  0  0  0
  189.9740  177.7090  144.5880 C   0  0  0  0  0  0  0  0  0  0  0  0
  186.8510  177.2660  146.3590 F   0  0  0  0  0  0  0  0  0  0  0  0
  190.3360  177.0460  147.5880 N   0  0  0  0  0  2  0  0  0  0  0  0
  188.7210  177.7850  145.0400 C   0  0  0  0  0  3  0  0  0  0  0  0
  188.9700  177.4290  147.4530 C   0  0  0  0  0  0  0  0  0  0  0  0
  191.1990  176.6120  146.5280 C   0  0  0  0  0  3  0  0  0  0  0  0
  188.2110  178.1070  148.7360 S   0  0  0  0  0  0  0  0  0  0  0  0
  189.7960  176.7440  139.9990 N   0  0  0  0  0  2  0  0  0  0  0  0
  188.1830  177.2370  138.4310 C   0  0  0  0  0  1  0  0  0  0  0  0
  189.5640  177.4810  138.8260 N   0  0  0  0  0  0  0  0  0  0  0  0
  190.1510  174.0690  136.6010 C   0  0  0  0  0  0  0  0  0  0  0  0
  189.8210  176.9690  136.4130 C   0  0  0  0  0  2  0  0  0  0  0  0
  191.3050  175.7560  138.1520 C   0  0  0  0  0  2  0  0  0  0  0  0
  190.5510  174.5360  137.8970 N   0  0  0  0  0  2  0  0  0  0  0  0
  190.4970  177.0210  137.7850 C   0  0  2  0  0  3  0  0  0  0  0  0
  189.4860  173.0040  136.5270 O   0  0  0  0  0  0  0  0  0  0  0  0
  190.7300  176.2950  135.3980 C   0  0  0  0  0  2  0  0  0  0  0  0
  190.4910  174.7820  135.3100 C   0  0  1  0  0  3  0  0  0  0  0  0
  191.6580  174.0950  134.6130 C   0  0  0  0  0  2  0  0  0  0  0  0
  192.9510  174.8700  134.8240 C   0  0  0  0  0  2  0  0  0  0  0  0
  193.7950  174.2100  135.9040 C   0  0  0  0  0  2  0  0  0  0  0  0
  194.8490  175.1850  137.8160 O   0  0  0  0  0  1  0  0  0  0  0  0
  194.8470  175.1810  136.4190 C   0  0  0  0  0  2  0  0  0  0  0  0
  1  5  2  0  0  0  0
  2  7  1  0  0  0  0
  3  5  1  0  0  0  0
  3  2  2  0  0  0  0
  4  7  1  0  0  0  0
  5  4  1  0  0  0  0
  6  2  1  0  0  0  0
  7 10  1  1  0  0  0
  8 15  2  0  0  0  0
  9 11  1  1  0  0  0
  9 14  1  0  0  0  0
 10 13  2  0  0  0  0
 10  8  1  0  0  0  0
 13  9  1  0  0  0  0
 14 12  1  0  0  0  0
 14 16  2  0  0  0  0
 15 12  1  0  0  0  0
 17  3  1  0  0  0  0
 18 19  1  0  0  0  0
 19 17  1  0  0  0  0
 20 23  1  0  0  0  0
 21 24  1  0  0  0  0
 23 22  1  0  0  0  0
 24 22  1  0  0  0  0
 24 19  1  1  0  0  0
 25 20  2  0  0  0  0
 26 21  1  0  0  0  0
 27 28  1  1  0  0  0
 27 26  1  0  0  0  0
 27 20  1  0  0  0  0
 28 29  1  0  0  0  0
 29 30  1  0  0  0  0
 30 32  1  0  0  0  0
 32 31  1  0  0  0  0
M  END
>  <MODEL>
3

>  <REMARK>
 VINA RESULT:      -7.1      4.435      9.114
  Name = 
  8 active torsions:
  status: ('A' for Active; 'I' for Inactive)
    1  A    between atoms: C_5  and  C_10
    2  A    between atoms: C_5  and  C_20
    3  A    between atoms: C_6  and  C_28
    4  A    between atoms: C_9  and  N_22
    5  A    between atoms: C_10  and  C_32
    6  A    between atoms: C_16  and  N_31
    7  A    between atoms: C_20  and  C_25
    8  A    between atoms: N_22  and  N_31
                            x       y       z     vdW  Elec       q    Type
                         _______ _______ _______ _____ _____    ______ ____

>  <TORSDO>
F 8

$$$$
=
 OpenBabel11062412403D

 32 34  0  0  1  0  0  0  0  0999 V2000
  184.3510  179.3690  140.6700 O   0  0  0  0  0  0  0  0  0  0  0  0
  187.3810  178.2530  139.4550 C   0  0  0  0  0  0  0  0  0  0  0  0
  186.6250  178.5910  140.4870 C   0  0  0  0  0  0  0  0  0  0  0  0
  185.2930  178.8710  138.5650 N   0  0  0  0  0  2  0  0  0  0  0  0
  185.3290  178.9820  139.9790 C   0  0  0  0  0  0  0  0  0  0  0  0
  188.8020  177.8130  139.5580 C   0  0  0  0  0  1  0  0  0  0  0  0
  186.6190  178.4020  138.1600 C   0  0  2  0  0  3  0  0  0  0  0  0
  187.7340  176.5490  136.7710 C   0  0  0  0  0  3  0  0  0  0  0  0
  184.9980  175.3370  136.5250 C   0  0  1  0  0  3  0  0  0  0  0  0
  186.5210  177.0970  137.4270 C   0  0  0  0  0  0  0  0  0  0  0  0
  183.6350  175.0960  136.5640 F   0  0  0  0  0  0  0  0  0  0  0  0
  187.2020  174.1400  136.8250 N   0  0  0  0  0  2  0  0  0  0  0  0
  185.3080  176.5500  137.3330 C   0  0  0  0  0  3  0  0  0  0  0  0
  185.7900  174.1660  137.0170 C   0  0  0  0  0  0  0  0  0  0  0  0
  188.0310  175.2680  136.5120 C   0  0  0  0  0  3  0  0  0  0  0  0
  185.0470  172.8220  137.5870 S   0  0  0  0  0  0  0  0  0  0  0  0
  187.0470  178.5590  141.8560 N   0  0  0  0  0  2  0  0  0  0  0  0
  185.6150  178.6100  143.6580 C   0  0  0  0  0  1  0  0  0  0  0  0
  186.4250  177.7420  142.8140 N   0  0  0  0  0  0  0  0  0  0  0  0
  190.2590  178.5470  144.0750 C   0  0  0  0  0  0  0  0  0  0  0  0
  187.6140  177.6950  144.9900 C   0  0  0  0  0  2  0  0  0  0  0  0
  188.7950  176.8260  142.8570 C   0  0  0  0  0  2  0  0  0  0  0  0
  189.6550  178.0010  142.8940 N   0  0  0  0  0  2  0  0  0  0  0  0
  187.4630  177.0620  143.6050 C   0  0  2  0  0  3  0  0  0  0  0  0
  190.9680  179.5790  143.9640 O   0  0  0  0  0  0  0  0  0  0  0  0
  188.8260  177.1220  145.7060 C   0  0  0  0  0  2  0  0  0  0  0  0
  190.0990  177.9420  145.4530 C   0  0  1  0  0  3  0  0  0  0  0  0
  191.3370  177.1410  145.8320 C   0  0  0  0  0  2  0  0  0  0  0  0
  191.3210  176.7790  147.3100 C   0  0  0  0  0  2  0  0  0  0  0  0
  192.1540  175.5310  147.5610 C   0  0  0  0  0  2  0  0  0  0  0  0
  193.0170  177.0820  149.1650 O   0  0  0  0  0  1  0  0  0  0  0  0
  193.1150  175.7620  148.7180 C   0  0  0  0  0  2  0  0  0  0  0  0
  2  6  1  0  0  0  0
  2  3  2  0  0  0  0
  3 17  1  0  0  0  0
  4  5  1  0  0  0  0
  5  3  1  0  0  0  0
  5  1  2  0  0  0  0
  7 10  1  1  0  0  0
  7  4  1  0  0  0  0
  7  2  1  0  0  0  0
  8 10  1  0  0  0  0
  9 11  1  1  0  0  0
  9 14  1  0  0  0  0
  9 13  1  0  0  0  0
 12 14  1  0  0  0  0
 13 10  2  0  0  0  0
 14 16  2  0  0  0  0
 15  8  2  0  0  0  0
 15 12  1  0  0  0  0
 17 19  1  0  0  0  0
 19 18  1  0  0  0  0
 20 27  1  0  0  0  0
 21 26  1  0  0  0  0
 22 23  1  0  0  0  0
 22 24  1  0  0  0  0
 23 20  1  0  0  0  0
 24 19  1  6  0  0  0
 24 21  1  0  0  0  0
 25 20  2  0  0  0  0
 27 26  1  0  0  0  0
 27 28  1  6  0  0  0
 28 29  1  0  0  0  0
 29 30  1  0  0  0  0
 30 32  1  0  0  0  0
 32 31  1  0  0  0  0
M  END
>  <MODEL>
4

>  <REMARK>
 VINA RESULT:      -7.1      3.151      6.427
  Name = 
  8 active torsions:
  status: ('A' for Active; 'I' for Inactive)
    1  A    between atoms: C_5  and  C_10
    2  A    between atoms: C_5  and  C_20
    3  A    between atoms: C_6  and  C_28
    4  A    between atoms: C_9  and  N_22
    5  A    between atoms: C_10  and  C_32
    6  A    between atoms: C_16  and  N_31
    7  A    between atoms: C_20  and  C_25
    8  A    between atoms: N_22  and  N_31
                            x       y       z     vdW  Elec       q    Type
                         _______ _______ _______ _____ _____    ______ ____

>  <TORSDO>
F 8

$$$$
=
 OpenBabel11062412403D

 32 34  0  0  1  0  0  0  0  0999 V2000
  187.2600  178.6200  138.0770 O   0  0  0  0  0  0  0  0  0  0  0  0
  190.3560  177.6780  139.2710 C   0  0  0  0  0  0  0  0  0  0  0  0
  189.1510  178.1730  139.5020 C   0  0  0  0  0  0  0  0  0  0  0  0
  189.2480  177.7030  137.1970 N   0  0  0  0  0  2  0  0  0  0  0  0
  188.4370  178.2070  138.2460 C   0  0  0  0  0  0  0  0  0  0  0  0
  191.4110  177.5030  140.3110 C   0  0  0  0  0  1  0  0  0  0  0  0
  190.5280  177.3440  137.8080 C   0  0  2  0  0  3  0  0  0  0  0  0
  189.6920  174.9320  137.5050 C   0  0  0  0  0  3  0  0  0  0  0  0
  192.5790  174.1140  137.5940 C   0  0  1  0  0  3  0  0  0  0  0  0
  190.8240  175.8880  137.6090 C   0  0  0  0  0  0  0  0  0  0  0  0
  193.9570  174.0860  137.7320 F   0  0  0  0  0  0  0  0  0  0  0  0
  190.7440  173.1660  136.1400 N   0  0  0  0  0  2  0  0  0  0  0  0
  192.1070  175.5260  137.6310 C   0  0  0  0  0  3  0  0  0  0  0  0
  192.1280  173.4460  136.3330 C   0  0  0  0  0  0  0  0  0  0  0  0
  189.6560  173.7550  136.8670 C   0  0  0  0  0  3  0  0  0  0  0  0
  193.2100  172.8450  135.2590 S   0  0  0  0  0  0  0  0  0  0  0  0
  188.6700  178.5870  140.7860 N   0  0  0  0  0  2  0  0  0  0  0  0
  186.4280  178.6040  141.3140 C   0  0  0  0  0  1  0  0  0  0  0  0
  187.6780  177.8750  141.4820 N   0  0  0  0  0  0  0  0  0  0  0  0
  190.6270  176.0830  143.7260 C   0  0  0  0  0  0  0  0  0  0  0  0
  189.3040  178.6370  143.1930 C   0  0  0  0  0  2  0  0  0  0  0  0
  188.0880  176.3720  143.4900 C   0  0  0  0  0  2  0  0  0  0  0  0
  189.3460  175.6960  143.2080 N   0  0  0  0  0  2  0  0  0  0  0  0
  188.0560  177.8010  142.9020 C   0  0  2  0  0  3  0  0  0  0  0  0
  191.6380  175.4170  143.3850 O   0  0  0  0  0  0  0  0  0  0  0  0
  189.7980  178.3800  144.6070 C   0  0  0  0  0  2  0  0  0  0  0  0
  190.8310  177.2470  144.6710 C   0  0  1  0  0  3  0  0  0  0  0  0
  190.9940  176.7510  146.1020 C   0  0  0  0  0  2  0  0  0  0  0  0
  190.0890  177.5210  147.0520 C   0  0  0  0  0  2  0  0  0  0  0  0
  189.0590  176.5910  147.6750 C   0  0  0  0  0  2  0  0  0  0  0  0
  187.3640  178.2520  147.3760 O   0  0  0  0  0  1  0  0  0  0  0  0
  187.9400  177.3970  148.3190 C   0  0  0  0  0  2  0  0  0  0  0  0
  1  5  2  0  0  0  0
  2  3  2  0  0  0  0
  2  6  1  0  0  0  0
  3 17  1  0  0  0  0
  4  7  1  0  0  0  0
  4  5  1  0  0  0  0
  5  3  1  0  0  0  0
  7 10  1  1  0  0  0
  7  2  1  0  0  0  0
  8 10  1  0  0  0  0
  9 13  1  0  0  0  0
  9 11  1  6  0  0  0
 10 13  2  0  0  0  0
 12 14  1  0  0  0  0
 12 15  1  0  0  0  0
 14  9  1  0  0  0  0
 15  8  2  0  0  0  0
 16 14  2  0  0  0  0
 17 19  1  0  0  0  0
 18 19  1  0  0  0  0
 20 27  1  0  0  0  0
 21 26  1  0  0  0  0
 23 22  1  0  0  0  0
 23 20  1  0  0  0  0
 24 19  1  6  0  0  0
 24 21  1  0  0  0  0
 24 22  1  0  0  0  0
 25 20  2  0  0  0  0
 26 27  1  0  0  0  0
 27 28  1  1  0  0  0
 28 29  1  0  0  0  0
 29 30  1  0  0  0  0
 30 32  1  0  0  0  0
 31 32  1  0  0  0  0
M  END
>  <MODEL>
5

>  <REMARK>
 VINA RESULT:      -7.1      3.137      5.744
  Name = 
  8 active torsions:
  status: ('A' for Active; 'I' for Inactive)
    1  A    between atoms: C_5  and  C_10
    2  A    between atoms: C_5  and  C_20
    3  A    between atoms: C_6  and  C_28
    4  A    between atoms: C_9  and  N_22
    5  A    between atoms: C_10  and  C_32
    6  A    between atoms: C_16  and  N_31
    7  A    between atoms: C_20  and  C_25
    8  A    between atoms: N_22  and  N_31
                            x       y       z     vdW  Elec       q    Type
                         _______ _______ _______ _____ _____    ______ ____

>  <TORSDO>
F 8

$$$$
=
 OpenBabel11062412403D

 32 34  0  0  1  0  0  0  0  0999 V2000
  187.0830  178.6920  140.6610 O   0  0  0  0  0  0  0  0  0  0  0  0
  188.5970  177.1600  137.9660 C   0  0  0  0  0  0  0  0  0  0  0  0
  188.5890  177.4350  139.2600 C   0  0  0  0  0  0  0  0  0  0  0  0
  186.6750  178.4600  138.3490 N   0  0  0  0  0  2  0  0  0  0  0  0
  187.4190  178.2390  139.5360 C   0  0  0  0  0  0  0  0  0  0  0  0
  189.6580  176.3700  137.2780 C   0  0  0  0  0  1  0  0  0  0  0  0
  187.4040  177.7800  137.2780 C   0  0  2  0  0  3  0  0  0  0  0  0
  186.9200  176.2360  135.2810 C   0  0  0  0  0  3  0  0  0  0  0  0
  184.3870  175.4870  136.7080 C   0  0  1  0  0  3  0  0  0  0  0  0
  186.5450  176.7390  136.6260 C   0  0  0  0  0  0  0  0  0  0  0  0
  183.3180  175.4160  137.5850 F   0  0  0  0  0  0  0  0  0  0  0  0
  185.9120  173.9860  135.3650 N   0  0  0  0  0  2  0  0  0  0  0  0
  185.4280  176.3930  137.2680 C   0  0  0  0  0  3  0  0  0  0  0  0
  184.9690  174.1370  136.4230 C   0  0  0  0  0  0  0  0  0  0  0  0
  186.6490  175.0430  134.7350 C   0  0  0  0  0  3  0  0  0  0  0  0
  184.3940  172.7940  137.1640 S   0  0  0  0  0  0  0  0  0  0  0  0
  189.5790  176.9930  140.1970 N   0  0  0  0  0  2  0  0  0  0  0  0
  191.7960  177.4180  140.6520 C   0  0  0  0  0  1  0  0  0  0  0  0
  190.4330  177.8870  140.8640 N   0  0  0  0  0  0  0  0  0  0  0  0
  191.4740  175.7220  144.2060 C   0  0  0  0  0  0  0  0  0  0  0  0
  191.2450  178.4370  143.1420 C   0  0  0  0  0  2  0  0  0  0  0  0
  189.4870  176.5660  142.8180 C   0  0  0  0  0  2  0  0  0  0  0  0
  190.5150  175.5880  143.1480 N   0  0  0  0  0  2  0  0  0  0  0  0
  190.0940  177.8880  142.2960 C   0  0  2  0  0  3  0  0  0  0  0  0
  192.3190  174.8050  144.3690 O   0  0  0  0  0  0  0  0  0  0  0  0
  190.9610  178.2330  144.6210 C   0  0  0  0  0  2  0  0  0  0  0  0
  191.5220  176.9050  145.1480 C   0  0  1  0  0  3  0  0  0  0  0  0
  190.8860  176.5490  146.4860 C   0  0  0  0  0  2  0  0  0  0  0  0
  189.4870  177.1360  146.5980 C   0  0  0  0  0  2  0  0  0  0  0  0
  189.3050  177.8220  147.9440 C   0  0  0  0  0  2  0  0  0  0  0  0
  187.0500  177.9090  147.1510 O   0  0  0  0  0  1  0  0  0  0  0  0
  187.8300  177.8820  148.3110 C   0  0  0  0  0  2  0  0  0  0  0  0
  2  3  2  0  0  0  0
  3  5  1  0  0  0  0
  3 17  1  0  0  0  0
  4  5  1  0  0  0  0
  5  1  2  0  0  0  0
  6  2  1  0  0  0  0
  7 10  1  1  0  0  0
  7  2  1  0  0  0  0
  7  4  1  0  0  0  0
  8 10  1  0  0  0  0
  9 13  1  0  0  0  0
  9 11  1  1  0  0  0
 10 13  2  0  0  0  0
 12 14  1  0  0  0  0
 14  9  1  0  0  0  0
 14 16  2  0  0  0  0
 15  8  2  0  0  0  0
 15 12  1  0  0  0  0
 17 19  1  0  0  0  0
 18 19  1  0  0  0  0
 20 25  2  0  0  0  0
 20 27  1  0  0  0  0
 21 26  1  0  0  0  0
 22 23  1  0  0  0  0
 23 20  1  0  0  0  0
 24 19  1  6  0  0  0
 24 22  1  0  0  0  0
 24 21  1  0  0  0  0
 26 27  1  0  0  0  0
 27 28  1  1  0  0  0
 28 29  1  0  0  0  0
 29 30  1  0  0  0  0
 30 32  1  0  0  0  0
 31 32  1  0  0  0  0
M  END
>  <MODEL>
6

>  <REMARK>
 VINA RESULT:      -7.1      3.368      6.187
  Name = 
  8 active torsions:
  status: ('A' for Active; 'I' for Inactive)
    1  A    between atoms: C_5  and  C_10
    2  A    between atoms: C_5  and  C_20
    3  A    between atoms: C_6  and  C_28
    4  A    between atoms: C_9  and  N_22
    5  A    between atoms: C_10  and  C_32
    6  A    between atoms: C_16  and  N_31
    7  A    between atoms: C_20  and  C_25
    8  A    between atoms: N_22  and  N_31
                            x       y       z     vdW  Elec       q    Type
                         _______ _______ _______ _____ _____    ______ ____

>  <TORSDO>
F 8

$$$$
=
 OpenBabel11062412403D

 32 34  0  0  1  0  0  0  0  0999 V2000
  186.0100  179.4980  140.9660 O   0  0  0  0  0  0  0  0  0  0  0  0
  188.5230  177.3160  141.8750 C   0  0  0  0  0  0  0  0  0  0  0  0
  188.0440  178.2060  141.0210 C   0  0  0  0  0  0  0  0  0  0  0  0
  186.4490  178.0080  142.7410 N   0  0  0  0  0  2  0  0  0  0  0  0
  186.7630  178.6540  141.5190 C   0  0  0  0  0  0  0  0  0  0  0  0
  189.8180  176.5970  141.7070 C   0  0  0  0  0  1  0  0  0  0  0  0
  187.5670  177.1080  143.0260 C   0  0  2  0  0  3  0  0  0  0  0  0
  187.3370  177.7230  145.5110 C   0  0  0  0  0  3  0  0  0  0  0  0
  190.3200  178.0550  145.5180 C   0  0  1  0  0  3  0  0  0  0  0  0
  188.2060  177.4510  144.3380 C   0  0  0  0  0  0  0  0  0  0  0  0
  191.6540  178.1690  145.1600 F   0  0  0  0  0  0  0  0  0  0  0  0
  188.8640  177.0820  147.3390 N   0  0  0  0  0  2  0  0  0  0  0  0
  189.5330  177.5810  144.3460 C   0  0  0  0  0  3  0  0  0  0  0  0
  190.1290  177.1340  146.6820 C   0  0  0  0  0  0  0  0  0  0  0  0
  187.6200  177.5610  146.8100 C   0  0  0  0  0  3  0  0  0  0  0  0
  191.3950  176.3360  147.3480 S   0  0  0  0  0  0  0  0  0  0  0  0
  188.7070  178.6310  139.8240 N   0  0  0  0  0  2  0  0  0  0  0  0
  187.2900  177.2260  138.6750 C   0  0  0  0  0  1  0  0  0  0  0  0
  188.1930  178.3620  138.5450 N   0  0  0  0  0  0  0  0  0  0  0  0
  190.1900  174.9860  137.2980 C   0  0  0  0  0  0  0  0  0  0  0  0
  188.8160  177.3880  136.3500 C   0  0  0  0  0  2  0  0  0  0  0  0
  190.5000  177.3220  138.3140 C   0  0  0  0  0  2  0  0  0  0  0  0
  190.2810  175.8850  138.4120 N   0  0  0  0  0  2  0  0  0  0  0  0
  189.3100  178.0430  137.6420 C   0  0  2  0  0  3  0  0  0  0  0  0
  189.9800  173.7670  137.5270 O   0  0  0  0  0  0  0  0  0  0  0  0
  189.9890  176.8770  135.5310 C   0  0  0  0  0  2  0  0  0  0  0  0
  190.3420  175.4190  135.8560 C   0  0  1  0  0  3  0  0  0  0  0  0
  191.7320  175.0760  135.3390 C   0  0  0  0  0  2  0  0  0  0  0  0
  192.7700  176.0510  135.8770 C   0  0  0  0  0  2  0  0  0  0  0  0
  193.9600  175.2970  136.4500 C   0  0  0  0  0  2  0  0  0  0  0  0
  195.1570  175.2510  138.5210 O   0  0  0  0  0  1  0  0  0  0  0  0
  193.8730  175.2490  137.9690 C   0  0  0  0  0  2  0  0  0  0  0  0
  1  5  2  0  0  0  0
  2  7  1  0  0  0  0
  3  5  1  0  0  0  0
  3  2  2  0  0  0  0
  4  7  1  0  0  0  0
  5  4  1  0  0  0  0
  6  2  1  0  0  0  0
  7 10  1  1  0  0  0
  8 15  2  0  0  0  0
  9 11  1  6  0  0  0
  9 14  1  0  0  0  0
 10 13  2  0  0  0  0
 10  8  1  0  0  0  0
 13  9  1  0  0  0  0
 14 12  1  0  0  0  0
 14 16  2  0  0  0  0
 15 12  1  0  0  0  0
 17  3  1  0  0  0  0
 19 18  1  0  0  0  0
 19 17  1  0  0  0  0
 20 25  2  0  0  0  0
 20 23  1  0  0  0  0
 21 24  1  0  0  0  0
 22 23  1  0  0  0  0
 24 22  1  0  0  0  0
 24 19  1  1  0  0  0
 26 27  1  0  0  0  0
 26 21  1  0  0  0  0
 27 28  1  1  0  0  0
 27 20  1  0  0  0  0
 28 29  1  0  0  0  0
 29 30  1  0  0  0  0
 30 32  1  0  0  0  0
 32 31  1  0  0  0  0
M  END
>  <MODEL>
7

>  <REMARK>
 VINA RESULT:      -7.0      3.929      8.799
  Name = 
  8 active torsions:
  status: ('A' for Active; 'I' for Inactive)
    1  A    between atoms: C_5  and  C_10
    2  A    between atoms: C_5  and  C_20
    3  A    between atoms: C_6  and  C_28
    4  A    between atoms: C_9  and  N_22
    5  A    between atoms: C_10  and  C_32
    6  A    between atoms: C_16  and  N_31
    7  A    between atoms: C_20  and  C_25
    8  A    between atoms: N_22  and  N_31
                            x       y       z     vdW  Elec       q    Type
                         _______ _______ _______ _____ _____    ______ ____

>  <TORSDO>
F 8

$$$$
=
 OpenBabel11062412403D

 32 34  0  0  1  0  0  0  0  0999 V2000
  192.1090  175.1760  143.2180 O   0  0  0  0  0  0  0  0  0  0  0  0
  190.9370  178.2740  144.1800 C   0  0  0  0  0  0  0  0  0  0  0  0
  191.3700  177.4700  143.2230 C   0  0  0  0  0  0  0  0  0  0  0  0
  191.4000  176.2140  145.2140 N   0  0  0  0  0  2  0  0  0  0  0  0
  191.6700  176.1890  143.8220 C   0  0  0  0  0  0  0  0  0  0  0  0
  190.5450  179.6980  143.9730 C   0  0  0  0  0  1  0  0  0  0  0  0
  190.9210  177.5640  145.5130 C   0  0  2  0  0  3  0  0  0  0  0  0
  189.3810  177.5840  147.5700 C   0  0  0  0  0  3  0  0  0  0  0  0
  187.1160  177.1250  145.6540 C   0  0  1  0  0  3  0  0  0  0  0  0
  189.5400  177.5220  146.0960 C   0  0  0  0  0  0  0  0  0  0  0  0
  186.3460  176.8640  144.5330 F   0  0  0  0  0  0  0  0  0  0  0  0
  187.1280  178.5800  147.7190 N   0  0  0  0  0  2  0  0  0  0  0  0
  188.5320  177.3350  145.2430 C   0  0  0  0  0  3  0  0  0  0  0  0
  186.6130  178.3090  146.4170 C   0  0  0  0  0  0  0  0  0  0  0  0
  188.3380  178.0440  148.2740 C   0  0  0  0  0  3  0  0  0  0  0  0
  185.3380  179.1850  145.8780 S   0  0  0  0  0  0  0  0  0  0  0  0
  191.5020  177.8360  141.8440 N   0  0  0  0  0  2  0  0  0  0  0  0
  192.6370  177.5030  139.8690 C   0  0  0  0  0  1  0  0  0  0  0  0
  191.7380  176.8870  140.8350 N   0  0  0  0  0  0  0  0  0  0  0  0
  189.0510  178.6580  138.2680 C   0  0  0  0  0  0  0  0  0  0  0  0
  190.6260  176.2340  138.7160 C   0  0  0  0  0  2  0  0  0  0  0  0
  189.2860  177.4890  140.5410 C   0  0  0  0  0  2  0  0  0  0  0  0
  189.2840  178.6670  139.6840 N   0  0  0  0  0  2  0  0  0  0  0  0
  190.4540  176.5340  140.2070 C   0  0  2  0  0  3  0  0  0  0  0  0
  189.0960  179.7500  137.6460 O   0  0  0  0  0  0  0  0  0  0  0  0
  189.2710  176.0800  138.0470 C   0  0  0  0  0  2  0  0  0  0  0  0
  188.7440  177.4050  137.4770 C   0  0  1  0  0  3  0  0  0  0  0  0
  187.2520  177.3080  137.1880 C   0  0  0  0  0  2  0  0  0  0  0  0
  186.4340  177.7600  138.3890 C   0  0  0  0  0  2  0  0  0  0  0  0
  185.0020  178.0630  137.9720 C   0  0  0  0  0  2  0  0  0  0  0  0
  184.5550  180.1260  139.0970 O   0  0  0  0  0  1  0  0  0  0  0  0
  184.2590  178.7600  139.1020 C   0  0  0  0  0  2  0  0  0  0  0  0
  1  5  2  0  0  0  0
  2  7  1  0  0  0  0
  3  5  1  0  0  0  0
  3  2  2  0  0  0  0
  4  7  1  0  0  0  0
  5  4  1  0  0  0  0
  6  2  1  0  0  0  0
  7 10  1  6  0  0  0
  8 15  2  0  0  0  0
  9 11  1  6  0  0  0
  9 14  1  0  0  0  0
 10  8  1  0  0  0  0
 12 15  1  0  0  0  0
 13  9  1  0  0  0  0
 13 10  2  0  0  0  0
 14 12  1  0  0  0  0
 16 14  2  0  0  0  0
 17  3  1  0  0  0  0
 18 19  1  0  0  0  0
 19 17  1  0  0  0  0
 20 23  1  0  0  0  0
 21 24  1  0  0  0  0
 23 22  1  0  0  0  0
 24 22  1  0  0  0  0
 24 19  1  6  0  0  0
 25 20  2  0  0  0  0
 26 21  1  0  0  0  0
 27 28  1  1  0  0  0
 27 26  1  0  0  0  0
 27 20  1  0  0  0  0
 28 29  1  0  0  0  0
 30 29  1  0  0  0  0
 30 32  1  0  0  0  0
 31 32  1  0  0  0  0
M  END
>  <MODEL>
8

>  <REMARK>
 VINA RESULT:      -6.9      3.237      6.680
  Name = 
  8 active torsions:
  status: ('A' for Active; 'I' for Inactive)
    1  A    between atoms: C_5  and  C_10
    2  A    between atoms: C_5  and  C_20
    3  A    between atoms: C_6  and  C_28
    4  A    between atoms: C_9  and  N_22
    5  A    between atoms: C_10  and  C_32
    6  A    between atoms: C_16  and  N_31
    7  A    between atoms: C_20  and  C_25
    8  A    between atoms: N_22  and  N_31
                            x       y       z     vdW  Elec       q    Type
                         _______ _______ _______ _____ _____    ______ ____

>  <TORSDO>
F 8

$$$$
=
 OpenBabel11062412403D

 32 34  0  0  1  0  0  0  0  0999 V2000
  193.1190  177.2340  140.7230 O   0  0  0  0  0  0  0  0  0  0  0  0
  189.8340  177.5720  141.7220 C   0  0  0  0  0  0  0  0  0  0  0  0
  190.7140  177.1300  140.8380 C   0  0  0  0  0  0  0  0  0  0  0  0
  191.9530  178.1790  142.5430 N   0  0  0  0  0  2  0  0  0  0  0  0
  192.0330  177.4870  141.3070 C   0  0  0  0  0  0  0  0  0  0  0  0
  188.3570  177.4240  141.5900 C   0  0  0  0  0  1  0  0  0  0  0  0
  190.5290  178.2730  142.8660 C   0  0  2  0  0  3  0  0  0  0  0  0
  191.2420  176.6810  144.7540 C   0  0  0  0  0  3  0  0  0  0  0  0
  188.5120  177.1320  145.9180 C   0  0  1  0  0  3  0  0  0  0  0  0
  190.2350  177.6070  144.1760 C   0  0  0  0  0  0  0  0  0  0  0  0
  187.1960  177.5080  146.1350 F   0  0  0  0  0  0  0  0  0  0  0  0
  190.7040  176.9010  147.1520 N   0  0  0  0  0  2  0  0  0  0  0  0
  189.0280  177.8200  144.7030 C   0  0  0  0  0  3  0  0  0  0  0  0
  189.3820  177.4330  147.0980 C   0  0  0  0  0  0  0  0  0  0  0  0
  191.4470  176.3770  146.0430 C   0  0  0  0  0  3  0  0  0  0  0  0
  188.7820  178.1880  148.4220 S   0  0  0  0  0  0  0  0  0  0  0  0
  190.3820  176.4200  139.6380 N   0  0  0  0  0  2  0  0  0  0  0  0
  188.9970  177.2220  137.9830 C   0  0  0  0  0  1  0  0  0  0  0  0
  190.3870  177.0360  138.3760 N   0  0  0  0  0  0  0  0  0  0  0  0
  194.0970  175.2790  138.0700 C   0  0  0  0  0  0  0  0  0  0  0  0
  191.2240  174.7360  137.9700 C   0  0  0  0  0  2  0  0  0  0  0  0
  192.3920  176.7500  136.8400 C   0  0  0  0  0  2  0  0  0  0  0  0
  193.5270  176.5510  137.7300 N   0  0  0  0  0  2  0  0  0  0  0  0
  191.0890  176.1600  137.4240 C   0  0  2  0  0  3  0  0  0  0  0  0
  195.0680  175.2510  138.8680 O   0  0  0  0  0  0  0  0  0  0  0  0
  192.1300  173.9080  137.0740 C   0  0  0  0  0  2  0  0  0  0  0  0
  193.5990  173.9630  137.5140 C   0  0  1  0  0  3  0  0  0  0  0  0
  194.5120  173.4770  136.3960 C   0  0  0  0  0  2  0  0  0  0  0  0
  194.8920  174.6210  135.4670 C   0  0  0  0  0  2  0  0  0  0  0  0
  196.3370  174.4760  135.0110 C   0  0  0  0  0  2  0  0  0  0  0  0
  197.6010  175.4890  136.7710 O   0  0  0  0  0  1  0  0  0  0  0  0
  197.1550  175.6780  135.4600 C   0  0  0  0  0  2  0  0  0  0  0  0
  1  5  2  0  0  0  0
  2  7  1  0  0  0  0
  3  5  1  0  0  0  0
  3  2  2  0  0  0  0
  4  7  1  0  0  0  0
  5  4  1  0  0  0  0
  6  2  1  0  0  0  0
  7 10  1  1  0  0  0
  8 15  2  0  0  0  0
  9 11  1  1  0  0  0
  9 14  1  0  0  0  0
 10 13  2  0  0  0  0
 10  8  1  0  0  0  0
 13  9  1  0  0  0  0
 14 12  1  0  0  0  0
 14 16  2  0  0  0  0
 15 12  1  0  0  0  0
 17  3  1  0  0  0  0
 18 19  1  0  0  0  0
 19 17  1  0  0  0  0
 20 25  2  0  0  0  0
 22 24  1  0  0  0  0
 22 23  1  0  0  0  0
 23 20  1  0  0  0  0
 24 21  1  0  0  0  0
 24 19  1  1  0  0  0
 26 27  1  0  0  0  0
 26 21  1  0  0  0  0
 27 28  1  6  0  0  0
 27 20  1  0  0  0  0
 29 28  1  0  0  0  0
 30 32  1  0  0  0  0
 30 29  1  0  0  0  0
 32 31  1  0  0  0  0
M  END
>  <MODEL>
9

>  <REMARK>
 VINA RESULT:      -6.9      4.860      9.602
  Name = 
  8 active torsions:
  status: ('A' for Active; 'I' for Inactive)
    1  A    between atoms: C_5  and  C_10
    2  A    between atoms: C_5  and  C_20
    3  A    between atoms: C_6  and  C_28
    4  A    between atoms: C_9  and  N_22
    5  A    between atoms: C_10  and  C_32
    6  A    between atoms: C_16  and  N_31
    7  A    between atoms: C_20  and  C_25
    8  A    between atoms: N_22  and  N_31
                            x       y       z     vdW  Elec       q    Type
                         _______ _______ _______ _____ _____    ______ ____

>  <TORSDO>
F 8

$$$$
