=
 OpenBabel11062412413D

 32 35  0  0  1  0  0  0  0  0999 V2000
  190.3590  177.7530  139.5060 N   0  0  0  0  0  0  0  0  0  0  0  0
  185.4750  178.3450  142.0860 C   0  0  0  0  0  0  0  0  0  0  0  0
  183.9820  178.5520  142.3310 C   0  0  1  0  0  3  0  0  0  0  0  0
  186.1050  178.5550  144.5420 C   0  0  0  0  0  2  0  0  0  0  0  0
  187.5940  177.3540  142.9570 C   0  0  0  0  0  0  0  0  0  0  0  0
  183.7450  179.7160  143.2790 C   0  0  0  0  0  2  0  0  0  0  0  0
  187.4630  178.1580  140.6640 C   0  0  0  0  0  0  0  0  0  0  0  0
  183.6860  179.2390  144.7310 C   0  0  0  0  0  2  0  0  0  0  0  0
  186.3370  178.0130  143.1990 N   0  0  0  0  0  0  0  0  0  0  0  0
  189.4140  178.5190  139.0600 C   0  0  0  0  0  3  0  0  0  0  0  0
  185.1740  178.7640  139.6350 C   0  0  0  0  0  2  0  0  0  0  0  0
  190.3500  176.8080  140.5760 C   0  0  0  0  0  3  0  0  0  0  0  0
  183.8820  179.4820  139.9970 C   0  0  2  0  0  3  0  0  0  0  0  0
  186.0170  178.4520  140.8510 C   0  0  0  0  0  0  0  0  0  0  0  0
  188.0350  178.6140  139.5450 C   0  0  0  0  0  3  0  0  0  0  0  0
  188.1790  177.4280  141.7420 C   0  0  0  0  0  0  0  0  0  0  0  0
  189.4300  176.6790  141.5260 C   0  0  0  0  0  3  0  0  0  0  0  0
  184.7310  178.1760  145.0750 C   0  0  0  0  0  2  0  0  0  0  0  0
  183.1210  178.7090  141.0770 C   0  0  1  0  0  3  0  0  0  0  0  0
  183.0430  179.7800  138.7940 C   0  0  0  0  0  0  0  0  0  0  0  0
  182.9730  178.8510  137.7640 O   0  0  0  0  0  0  0  0  0  0  0  0
  182.4270  180.8730  138.6890 O   0  0  0  0  0  1  0  0  0  0  0  0
  182.6020  177.3770  140.6180 C   0  0  0  0  0  0  0  0  0  0  0  0
  181.2520  177.0660  140.7170 O   0  0  0  0  0  1  0  0  0  0  0  0
  183.4030  176.5270  140.1490 O   0  0  0  0  0  0  0  0  0  0  0  0
  188.2180  176.5590  144.0750 C   0  0  0  0  0  2  0  0  0  0  0  0
  188.7910  177.9240  146.3080 O   0  0  0  0  0  0  0  0  0  0  0  0
  189.3870  177.5580  144.9790 S   0  0  0  0  0  0  0  0  0  0  0  0
  189.6780  178.8130  144.2040 O   0  0  0  0  0  0  0  0  0  0  0  0
  190.8960  176.6390  145.2390 C   0  0  0  0  0  2  0  0  0  0  0  0
  191.3080  176.6640  146.7000 C   0  0  0  0  0  2  0  0  0  0  0  0
  192.3080  175.5610  146.9820 C   0  0  0  0  0  1  0  0  0  0  0  0
  1 12  1  0  0  0  0
  2  3  1  0  0  0  0
  2  9  1  0  0  0  0
  3  6  1  1  0  0  0
  4 18  1  0  0  0  0
  5  9  1  0  0  0  0
  5 26  1  0  0  0  0
  6  8  1  0  0  0  0
  7 14  1  0  0  0  0
  7 16  1  0  0  0  0
  8 18  1  0  0  0  0
  9  4  1  0  0  0  0
 10  1  2  0  0  0  0
 10 15  1  0  0  0  0
 11 13  1  0  0  0  0
 11 14  1  0  0  0  0
 12 17  2  0  0  0  0
 13 20  1  6  0  0  0
 13 19  1  0  0  0  0
 14  2  2  0  0  0  0
 15  7  2  0  0  0  0
 16  5  2  0  0  0  0
 17 16  1  0  0  0  0
 19 23  1  6  0  0  0
 19  3  1  0  0  0  0
 21 20  2  0  0  0  0
 22 20  1  0  0  0  0
 23 24  1  0  0  0  0
 25 23  2  0  0  0  0
 26 28  1  0  0  0  0
 28 30  1  0  0  0  0
 28 27  2  0  0  0  0
 29 28  2  0  0  0  0
 30 31  1  0  0  0  0
 31 32  1  0  0  0  0
M  END
>  <MODEL>
1

>  <REMARK>
 VINA RESULT:      -7.1      0.000      0.000
  Name = 
  6 active torsions:
  status: ('A' for Active; 'I' for Inactive)
    1  A    between atoms: C_1  and  C_22
    2  A    between atoms: C_5  and  C_10
    3  A    between atoms: C_5  and  S_26
    4  A    between atoms: C_6  and  C_32
    5  A    between atoms: C_17  and  C_18
    6  A    between atoms: C_18  and  S_26
                            x       y       z     vdW  Elec       q    Type
                         _______ _______ _______ _____ _____    ______ ____

>  <TORSDO>
F 6

$$$$
=
 OpenBabel11062412413D

 32 35  0  0  1  0  0  0  0  0999 V2000
  190.6140  178.0800  144.8190 N   0  0  0  0  0  0  0  0  0  0  0  0
  189.4690  177.3210  139.4360 C   0  0  0  0  0  0  0  0  0  0  0  0
  189.6150  176.9460  137.9640 C   0  0  1  0  0  3  0  0  0  0  0  0
  187.2460  178.5150  139.1120 C   0  0  0  0  0  2  0  0  0  0  0  0
  187.8880  177.6300  141.3440 C   0  0  0  0  0  0  0  0  0  0  0  0
  189.2910  178.1300  137.0680 C   0  0  0  0  0  2  0  0  0  0  0  0
  190.2890  177.5620  141.7350 C   0  0  0  0  0  0  0  0  0  0  0  0
  187.8110  178.1410  136.6850 C   0  0  0  0  0  2  0  0  0  0  0  0
  188.1780  177.7390  139.9370 N   0  0  0  0  0  0  0  0  0  0  0  0
  191.5040  178.2010  143.8860 C   0  0  0  0  0  3  0  0  0  0  0  0
  191.8850  176.8040  139.8510 C   0  0  0  0  0  2  0  0  0  0  0  0
  189.2730  177.5940  144.7560 C   0  0  0  0  0  3  0  0  0  0  0  0
  192.0980  176.9860  138.3550 C   0  0  2  0  0  3  0  0  0  0  0  0
  190.5140  177.2630  140.2950 C   0  0  0  0  0  0  0  0  0  0  0  0
  191.3680  177.8510  142.4690 C   0  0  0  0  0  3  0  0  0  0  0  0
  188.8940  177.5690  142.2440 C   0  0  0  0  0  0  0  0  0  0  0  0
  188.5450  177.3880  143.6650 C   0  0  0  0  0  3  0  0  0  0  0  0
  186.8720  177.7770  137.8360 C   0  0  0  0  0  2  0  0  0  0  0  0
  190.9600  176.3350  137.5670 C   0  0  1  0  0  3  0  0  0  0  0  0
  193.4510  176.5200  137.9160 C   0  0  0  0  0  0  0  0  0  0  0  0
  194.3320  175.9990  138.8550 O   0  0  0  0  0  1  0  0  0  0  0  0
  193.8130  176.6250  136.7140 O   0  0  0  0  0  0  0  0  0  0  0  0
  190.9180  174.8390  137.6820 C   0  0  0  0  0  0  0  0  0  0  0  0
  192.0910  174.0990  137.7790 O   0  0  0  0  0  1  0  0  0  0  0  0
  189.8080  174.2470  137.6780 O   0  0  0  0  0  0  0  0  0  0  0  0
  186.4480  177.5540  141.7790 C   0  0  0  0  0  2  0  0  0  0  0  0
  184.8220  179.4220  140.7550 O   0  0  0  0  0  0  0  0  0  0  0  0
  185.7460  179.1890  141.9160 S   0  0  0  0  0  0  0  0  0  0  0  0
  186.8480  180.2110  141.8850 O   0  0  0  0  0  0  0  0  0  0  0  0
  184.8280  179.3290  143.4410 C   0  0  0  0  0  2  0  0  0  0  0  0
  185.2430  178.2560  144.4300 C   0  0  0  0  0  2  0  0  0  0  0  0
  185.5430  178.8740  145.7820 C   0  0  0  0  0  1  0  0  0  0  0  0
  2  9  1  0  0  0  0
  2 14  2  0  0  0  0
  3  6  1  6  0  0  0
  3  2  1  0  0  0  0
  4  9  1  0  0  0  0
  5 26  1  0  0  0  0
  5 16  2  0  0  0  0
  7 16  1  0  0  0  0
  7 15  2  0  0  0  0
  8  6  1  0  0  0  0
  8 18  1  0  0  0  0
  9  5  1  0  0  0  0
 10  1  2  0  0  0  0
 11 14  1  0  0  0  0
 12  1  1  0  0  0  0
 13 20  1  6  0  0  0
 13 11  1  0  0  0  0
 14  7  1  0  0  0  0
 15 10  1  0  0  0  0
 16 17  1  0  0  0  0
 17 12  2  0  0  0  0
 18  4  1  0  0  0  0
 19 23  1  1  0  0  0
 19  3  1  0  0  0  0
 19 13  1  0  0  0  0
 20 21  1  0  0  0  0
 22 20  2  0  0  0  0
 23 24  1  0  0  0  0
 25 23  2  0  0  0  0
 26 28  1  0  0  0  0
 27 28  2  0  0  0  0
 28 30  1  0  0  0  0
 29 28  2  0  0  0  0
 30 31  1  0  0  0  0
 31 32  1  0  0  0  0
M  END
>  <MODEL>
2

>  <REMARK>
 VINA RESULT:      -6.4      3.668      7.083
  Name = 
  6 active torsions:
  status: ('A' for Active; 'I' for Inactive)
    1  A    between atoms: C_1  and  C_22
    2  A    between atoms: C_5  and  C_10
    3  A    between atoms: C_5  and  S_26
    4  A    between atoms: C_6  and  C_32
    5  A    between atoms: C_17  and  C_18
    6  A    between atoms: C_18  and  S_26
                            x       y       z     vdW  Elec       q    Type
                         _______ _______ _______ _____ _____    ______ ____

>  <TORSDO>
F 6

$$$$
=
 OpenBabel11062412413D

 32 35  0  0  1  0  0  0  0  0999 V2000
  188.5240  177.9360  144.2060 N   0  0  0  0  0  0  0  0  0  0  0  0
  185.7870  178.1070  139.3740 C   0  0  0  0  0  0  0  0  0  0  0  0
  184.6670  178.2670  138.3500 C   0  0  1  0  0  3  0  0  0  0  0  0
  187.4430  177.1420  137.7020 C   0  0  0  0  0  2  0  0  0  0  0  0
  188.2470  178.2330  139.7850 C   0  0  0  0  0  0  0  0  0  0  0  0
  184.5360  177.0200  137.4910 C   0  0  0  0  0  2  0  0  0  0  0  0
  186.6940  178.0780  141.6520 C   0  0  0  0  0  0  0  0  0  0  0  0
  185.3960  177.1280  136.2310 C   0  0  0  0  0  2  0  0  0  0  0  0
  187.1450  177.9080  138.9160 N   0  0  0  0  0  0  0  0  0  0  0  0
  187.2800  177.5930  144.0880 C   0  0  0  0  0  3  0  0  0  0  0  0
  184.1620  178.3960  141.2590 C   0  0  0  0  0  2  0  0  0  0  0  0
  189.4010  178.5580  143.2670 C   0  0  0  0  0  3  0  0  0  0  0  0
  183.0720  177.9960  140.2750 C   0  0  2  0  0  3  0  0  0  0  0  0
  185.5490  178.1580  140.7060 C   0  0  0  0  0  0  0  0  0  0  0  0
  186.4110  177.7670  142.9210 C   0  0  0  0  0  3  0  0  0  0  0  0
  188.0640  178.2970  141.1220 C   0  0  0  0  0  0  0  0  0  0  0  0
  189.2070  178.7010  141.9600 C   0  0  0  0  0  3  0  0  0  0  0  0
  186.7750  177.7440  136.4750 C   0  0  0  0  0  2  0  0  0  0  0  0
  183.3030  178.6630  138.9170 C   0  0  1  0  0  3  0  0  0  0  0  0
  181.7000  178.2430  140.8190 C   0  0  0  0  0  0  0  0  0  0  0  0
  181.5480  179.0180  141.9610 O   0  0  0  0  0  1  0  0  0  0  0  0
  180.6860  177.7310  140.2740 O   0  0  0  0  0  0  0  0  0  0  0  0
  183.1500  180.1570  138.9400 C   0  0  0  0  0  0  0  0  0  0  0  0
  181.8920  180.7430  139.0060 O   0  0  0  0  0  1  0  0  0  0  0  0
  184.1740  180.8860  138.8860 O   0  0  0  0  0  0  0  0  0  0  0  0
  189.5890  178.5290  139.1670 C   0  0  0  0  0  2  0  0  0  0  0  0
  189.8960  175.9700  139.8990 O   0  0  0  0  0  0  0  0  0  0  0  0
  190.6580  177.1050  139.2760 S   0  0  0  0  0  0  0  0  0  0  0  0
  191.8470  177.4350  140.1340 O   0  0  0  0  0  0  0  0  0  0  0  0
  191.1990  176.6280  137.6420 C   0  0  0  0  0  2  0  0  0  0  0  0
  192.6580  176.2070  137.6500 C   0  0  0  0  0  2  0  0  0  0  0  0
  192.7720  174.7040  137.4860 C   0  0  0  0  0  1  0  0  0  0  0  0
  2 14  2  0  0  0  0
  3  6  1  1  0  0  0
  3 19  1  0  0  0  0
  3  2  1  0  0  0  0
  4  9  1  0  0  0  0
  5 16  2  0  0  0  0
  7 15  2  0  0  0  0
  8 18  1  0  0  0  0
  8  6  1  0  0  0  0
  9  2  1  0  0  0  0
  9  5  1  0  0  0  0
 10  1  2  0  0  0  0
 12  1  1  0  0  0  0
 13 20  1  1  0  0  0
 13 11  1  0  0  0  0
 14 11  1  0  0  0  0
 14  7  1  0  0  0  0
 15 10  1  0  0  0  0
 16  7  1  0  0  0  0
 16 17  1  0  0  0  0
 17 12  2  0  0  0  0
 18  4  1  0  0  0  0
 19 23  1  1  0  0  0
 19 13  1  0  0  0  0
 20 21  1  0  0  0  0
 22 20  2  0  0  0  0
 23 24  1  0  0  0  0
 25 23  2  0  0  0  0
 26 28  1  0  0  0  0
 26  5  1  0  0  0  0
 28 27  2  0  0  0  0
 28 29  2  0  0  0  0
 30 31  1  0  0  0  0
 30 28  1  0  0  0  0
 32 31  1  0  0  0  0
M  END
>  <MODEL>
3

>  <REMARK>
 VINA RESULT:      -6.3      2.791      5.195
  Name = 
  6 active torsions:
  status: ('A' for Active; 'I' for Inactive)
    1  A    between atoms: C_1  and  C_22
    2  A    between atoms: C_5  and  C_10
    3  A    between atoms: C_5  and  S_26
    4  A    between atoms: C_6  and  C_32
    5  A    between atoms: C_17  and  C_18
    6  A    between atoms: C_18  and  S_26
                            x       y       z     vdW  Elec       q    Type
                         _______ _______ _______ _____ _____    ______ ____

>  <TORSDO>
F 6

$$$$
=
 OpenBabel11062412413D

 32 35  0  0  1  0  0  0  0  0999 V2000
  184.6740  179.2460  140.3670 N   0  0  0  0  0  0  0  0  0  0  0  0
  189.9030  177.3940  140.6640 C   0  0  0  0  0  0  0  0  0  0  0  0
  191.2400  176.9160  141.2250 C   0  0  1  0  0  3  0  0  0  0  0  0
  190.7440  177.5570  138.2690 C   0  0  0  0  0  2  0  0  0  0  0  0
  188.3170  177.3010  138.7380 C   0  0  0  0  0  0  0  0  0  0  0  0
  192.3870  177.7460  140.6730 C   0  0  0  0  0  2  0  0  0  0  0  0
  187.6110  178.2410  140.8690 C   0  0  0  0  0  0  0  0  0  0  0  0
  192.9550  177.1200  139.3980 C   0  0  0  0  0  2  0  0  0  0  0  0
  189.6680  177.3290  139.2380 N   0  0  0  0  0  0  0  0  0  0  0  0
  185.4890  179.5850  141.3150 C   0  0  0  0  0  3  0  0  0  0  0  0
  189.0820  177.9340  142.9690 C   0  0  0  0  0  2  0  0  0  0  0  0
  184.8150  178.2660  139.3380 C   0  0  0  0  0  3  0  0  0  0  0  0
  190.5430  177.9860  143.3910 C   0  0  2  0  0  3  0  0  0  0  0  0
  188.9210  177.8680  141.4660 C   0  0  0  0  0  0  0  0  0  0  0  0
  186.8140  179.0260  141.5990 C   0  0  0  0  0  3  0  0  0  0  0  0
  187.3000  177.7610  139.4970 C   0  0  0  0  0  0  0  0  0  0  0  0
  185.9290  177.6470  138.9660 C   0  0  0  0  0  3  0  0  0  0  0  0
  191.8870  176.5700  138.4510 C   0  0  0  0  0  2  0  0  0  0  0  0
  191.3290  176.8400  142.7500 C   0  0  1  0  0  3  0  0  0  0  0  0
  190.7010  178.0400  144.8780 C   0  0  0  0  0  0  0  0  0  0  0  0
  189.5820  178.2390  145.6760 O   0  0  0  0  0  1  0  0  0  0  0  0
  191.8370  177.9400  145.4120 O   0  0  0  0  0  0  0  0  0  0  0  0
  190.9270  175.4790  143.2390 C   0  0  0  0  0  0  0  0  0  0  0  0
  191.7530  174.7550  144.0900 O   0  0  0  0  0  1  0  0  0  0  0  0
  189.8330  174.9830  142.8630 O   0  0  0  0  0  0  0  0  0  0  0  0
  188.0680  176.7200  137.3700 C   0  0  0  0  0  2  0  0  0  0  0  0
  189.2400  177.8510  135.2430 O   0  0  0  0  0  0  0  0  0  0  0  0
  188.0430  178.0080  136.1360 S   0  0  0  0  0  0  0  0  0  0  0  0
  188.1000  179.3500  136.8110 O   0  0  0  0  0  0  0  0  0  0  0  0
  186.5540  177.8810  135.1580 C   0  0  0  0  0  2  0  0  0  0  0  0
  185.8370  176.5690  135.4190 C   0  0  0  0  0  2  0  0  0  0  0  0
  184.3610  176.8150  135.6610 C   0  0  0  0  0  1  0  0  0  0  0  0
  1 10  2  0  0  0  0
  2  3  1  0  0  0  0
  2 14  2  0  0  0  0
  3  6  1  1  0  0  0
  3 19  1  0  0  0  0
  4 18  1  0  0  0  0
  4  9  1  0  0  0  0
  5  9  1  0  0  0  0
  5 16  2  0  0  0  0
  7 14  1  0  0  0  0
  7 15  2  0  0  0  0
  8  6  1  0  0  0  0
  9  2  1  0  0  0  0
 10 15  1  0  0  0  0
 11 13  1  0  0  0  0
 12  1  1  0  0  0  0
 13 20  1  1  0  0  0
 14 11  1  0  0  0  0
 16  7  1  0  0  0  0
 17 12  2  0  0  0  0
 17 16  1  0  0  0  0
 18  8  1  0  0  0  0
 19 23  1  1  0  0  0
 19 13  1  0  0  0  0
 20 22  2  0  0  0  0
 20 21  1  0  0  0  0
 23 24  1  0  0  0  0
 25 23  2  0  0  0  0
 26  5  1  0  0  0  0
 27 28  2  0  0  0  0
 28 29  2  0  0  0  0
 28 26  1  0  0  0  0
 30 31  1  0  0  0  0
 30 28  1  0  0  0  0
 31 32  1  0  0  0  0
M  END
>  <MODEL>
4

>  <REMARK>
 VINA RESULT:      -6.2      3.462      8.220
  Name = 
  6 active torsions:
  status: ('A' for Active; 'I' for Inactive)
    1  A    between atoms: C_1  and  C_22
    2  A    between atoms: C_5  and  C_10
    3  A    between atoms: C_5  and  S_26
    4  A    between atoms: C_6  and  C_32
    5  A    between atoms: C_17  and  C_18
    6  A    between atoms: C_18  and  S_26
                            x       y       z     vdW  Elec       q    Type
                         _______ _______ _______ _____ _____    ______ ____

>  <TORSDO>
F 6

$$$$
=
 OpenBabel11062412413D

 32 35  0  0  1  0  0  0  0  0999 V2000
  184.0640  178.9790  145.6620 N   0  0  0  0  0  0  0  0  0  0  0  0
  183.9590  178.8310  140.1090 C   0  0  0  0  0  0  0  0  0  0  0  0
  183.4670  178.9250  138.6680 C   0  0  1  0  0  3  0  0  0  0  0  0
  186.1740  177.7460  139.4870 C   0  0  0  0  0  2  0  0  0  0  0  0
  185.9310  178.9740  141.6340 C   0  0  0  0  0  0  0  0  0  0  0  0
  183.7140  177.6230  137.9240 C   0  0  0  0  0  2  0  0  0  0  0  0
  183.6730  178.9540  142.5420 C   0  0  0  0  0  0  0  0  0  0  0  0
  185.0730  177.6400  137.2230 C   0  0  0  0  0  2  0  0  0  0  0  0
  185.3630  178.5950  140.3660 N   0  0  0  0  0  0  0  0  0  0  0  0
  183.0140  178.6350  144.9860 C   0  0  0  0  0  3  0  0  0  0  0  0
  181.6460  179.2560  140.9720 C   0  0  0  0  0  2  0  0  0  0  0  0
  185.3040  179.5320  145.2200 C   0  0  0  0  0  3  0  0  0  0  0  0
  181.1400  178.7950  139.6120 C   0  0  2  0  0  3  0  0  0  0  0  0
  183.1200  178.9740  141.1610 C   0  0  0  0  0  0  0  0  0  0  0  0
  182.8100  178.7320  143.5380 C   0  0  0  0  0  3  0  0  0  0  0  0
  185.1380  179.1300  142.7160 C   0  0  0  0  0  0  0  0  0  0  0  0
  185.7600  179.5860  143.9730 C   0  0  0  0  0  3  0  0  0  0  0  0
  186.1920  178.2650  138.0570 C   0  0  0  0  0  2  0  0  0  0  0  0
  182.0130  179.3660  138.4920 C   0  0  1  0  0  3  0  0  0  0  0  0
  179.6840  179.0840  139.4220 C   0  0  0  0  0  0  0  0  0  0  0  0
  179.0470  178.6510  138.2670 O   0  0  0  0  0  0  0  0  0  0  0  0
  179.0390  179.7430  140.2800 O   0  0  0  0  0  1  0  0  0  0  0  0
  181.9230  180.8580  138.3530 C   0  0  0  0  0  0  0  0  0  0  0  0
  180.7910  181.4560  137.8110 O   0  0  0  0  0  0  0  0  0  0  0  0
  182.8890  181.5750  138.7200 O   0  0  0  0  0  1  0  0  0  0  0  0
  187.4160  179.2200  141.7140 C   0  0  0  0  0  2  0  0  0  0  0  0
  189.0210  177.1370  141.2000 O   0  0  0  0  0  0  0  0  0  0  0  0
  188.2600  177.7740  142.3280 S   0  0  0  0  0  0  0  0  0  0  0  0
  187.2520  176.7940  142.8610 O   0  0  0  0  0  0  0  0  0  0  0  0
  189.3990  178.2410  143.6220 C   0  0  0  0  0  2  0  0  0  0  0  0
  189.4320  177.1980  144.7240 C   0  0  0  0  0  2  0  0  0  0  0  0
  188.6220  177.6670  145.9170 C   0  0  0  0  0  1  0  0  0  0  0  0
  2  9  1  0  0  0  0
  2 14  2  0  0  0  0
  3  6  1  1  0  0  0
  3  2  1  0  0  0  0
  4  9  1  0  0  0  0
  5 26  1  0  0  0  0
  5 16  2  0  0  0  0
  7 16  1  0  0  0  0
  7 15  2  0  0  0  0
  8  6  1  0  0  0  0
  8 18  1  0  0  0  0
  9  5  1  0  0  0  0
 10  1  2  0  0  0  0
 11 14  1  0  0  0  0
 12  1  1  0  0  0  0
 13 20  1  6  0  0  0
 13 11  1  0  0  0  0
 14  7  1  0  0  0  0
 15 10  1  0  0  0  0
 16 17  1  0  0  0  0
 17 12  2  0  0  0  0
 18  4  1  0  0  0  0
 19 23  1  1  0  0  0
 19  3  1  0  0  0  0
 19 13  1  0  0  0  0
 20 22  1  0  0  0  0
 21 20  2  0  0  0  0
 23 25  1  0  0  0  0
 24 23  2  0  0  0  0
 26 28  1  0  0  0  0
 27 28  2  0  0  0  0
 28 29  2  0  0  0  0
 28 30  1  0  0  0  0
 30 31  1  0  0  0  0
 31 32  1  0  0  0  0
M  END
>  <MODEL>
5

>  <REMARK>
 VINA RESULT:      -6.0      2.517      4.910
  Name = 
  6 active torsions:
  status: ('A' for Active; 'I' for Inactive)
    1  A    between atoms: C_1  and  C_22
    2  A    between atoms: C_5  and  C_10
    3  A    between atoms: C_5  and  S_26
    4  A    between atoms: C_6  and  C_32
    5  A    between atoms: C_17  and  C_18
    6  A    between atoms: C_18  and  S_26
                            x       y       z     vdW  Elec       q    Type
                         _______ _______ _______ _____ _____    ______ ____

>  <TORSDO>
F 6

$$$$
=
 OpenBabel11062412413D

 32 35  0  0  1  0  0  0  0  0999 V2000
  184.6060  178.5030  138.0370 N   0  0  0  0  0  0  0  0  0  0  0  0
  189.6780  177.1540  139.8590 C   0  0  0  0  0  0  0  0  0  0  0  0
  190.8500  176.8580  140.7900 C   0  0  1  0  0  3  0  0  0  0  0  0
  191.0960  177.1280  137.7470 C   0  0  0  0  0  2  0  0  0  0  0  0
  188.6490  176.7150  137.6270 C   0  0  0  0  0  0  0  0  0  0  0  0
  192.0520  177.7190  140.4390 C   0  0  0  0  0  2  0  0  0  0  0  0
  187.3660  177.8160  139.3770 C   0  0  0  0  0  0  0  0  0  0  0  0
  192.9630  177.0100  139.4370 C   0  0  0  0  0  2  0  0  0  0  0  0
  189.8210  176.9140  138.4390 N   0  0  0  0  0  0  0  0  0  0  0  0
  185.1290  179.0130  139.1070 C   0  0  0  0  0  3  0  0  0  0  0  0
  188.2620  177.8690  141.7980 C   0  0  0  0  0  2  0  0  0  0  0  0
  185.0610  177.4330  137.2090 C   0  0  0  0  0  3  0  0  0  0  0  0
  189.5610  178.0940  142.5600 C   0  0  2  0  0  3  0  0  0  0  0  0
  188.4970  177.6260  140.3240 C   0  0  0  0  0  0  0  0  0  0  0  0
  186.3650  178.6050  139.7800 C   0  0  0  0  0  3  0  0  0  0  0  0
  187.4460  177.1650  138.0440 C   0  0  0  0  0  0  0  0  0  0  0  0
  186.2670  176.8750  137.2080 C   0  0  0  0  0  3  0  0  0  0  0  0
  192.2080  176.2690  138.3320 C   0  0  0  0  0  2  0  0  0  0  0  0
  190.5480  176.9570  142.2860 C   0  0  1  0  0  3  0  0  0  0  0  0
  189.3270  178.3230  144.0210 C   0  0  0  0  0  0  0  0  0  0  0  0
  188.0570  178.1290  144.5480 O   0  0  0  0  0  0  0  0  0  0  0  0
  190.2580  178.7200  144.7700 O   0  0  0  0  0  1  0  0  0  0  0  0
  190.1110  175.6280  142.8290 C   0  0  0  0  0  0  0  0  0  0  0  0
  188.7660  175.2770  142.8560 O   0  0  0  0  0  0  0  0  0  0  0  0
  190.9720  174.8260  143.2760 O   0  0  0  0  0  1  0  0  0  0  0  0
  188.7920  175.9680  136.3250 C   0  0  0  0  0  2  0  0  0  0  0  0
  189.8730  173.8700  137.5940 O   0  0  0  0  0  0  0  0  0  0  0  0
  188.7900  174.2070  136.6090 S   0  0  0  0  0  0  0  0  0  0  0  0
  189.0570  173.4910  135.3140 O   0  0  0  0  0  0  0  0  0  0  0  0
  187.2100  173.7020  137.2700 C   0  0  0  0  0  2  0  0  0  0  0  0
  186.5860  172.6080  136.4210 C   0  0  0  0  0  2  0  0  0  0  0  0
  185.0940  172.5330  136.6760 C   0  0  0  0  0  1  0  0  0  0  0  0
  1 10  2  0  0  0  0
  2 14  2  0  0  0  0
  2  3  1  0  0  0  0
  3  6  1  6  0  0  0
  3 19  1  0  0  0  0
  4 18  1  0  0  0  0
  4  9  1  0  0  0  0
  5 16  2  0  0  0  0
  5  9  1  0  0  0  0
  7 15  2  0  0  0  0
  7 14  1  0  0  0  0
  8  6  1  0  0  0  0
  9  2  1  0  0  0  0
 10 15  1  0  0  0  0
 11 13  1  0  0  0  0
 12  1  1  0  0  0  0
 13 20  1  1  0  0  0
 14 11  1  0  0  0  0
 16  7  1  0  0  0  0
 17 12  2  0  0  0  0
 17 16  1  0  0  0  0
 18  8  1  0  0  0  0
 19 13  1  0  0  0  0
 19 23  1  6  0  0  0
 20 21  2  0  0  0  0
 20 22  1  0  0  0  0
 23 24  2  0  0  0  0
 23 25  1  0  0  0  0
 26 28  1  0  0  0  0
 26  5  1  0  0  0  0
 28 30  1  0  0  0  0
 28 27  2  0  0  0  0
 29 28  2  0  0  0  0
 31 32  1  0  0  0  0
 31 30  1  0  0  0  0
M  END
>  <MODEL>
6

>  <REMARK>
 VINA RESULT:      -6.0      4.148      7.844
  Name = 
  6 active torsions:
  status: ('A' for Active; 'I' for Inactive)
    1  A    between atoms: C_1  and  C_22
    2  A    between atoms: C_5  and  C_10
    3  A    between atoms: C_5  and  S_26
    4  A    between atoms: C_6  and  C_32
    5  A    between atoms: C_17  and  C_18
    6  A    between atoms: C_18  and  S_26
                            x       y       z     vdW  Elec       q    Type
                         _______ _______ _______ _____ _____    ______ ____

>  <TORSDO>
F 6

$$$$
=
 OpenBabel11062412413D

 32 35  0  0  1  0  0  0  0  0999 V2000
  189.9290  177.9880  144.0630 N   0  0  0  0  0  0  0  0  0  0  0  0
  185.7940  178.3370  140.3690 C   0  0  0  0  0  0  0  0  0  0  0  0
  185.0290  178.3370  139.0480 C   0  0  1  0  0  3  0  0  0  0  0  0
  183.8410  179.2400  141.7250 C   0  0  0  0  0  2  0  0  0  0  0  0
  185.6630  177.9650  142.8340 C   0  0  0  0  0  0  0  0  0  0  0  0
  184.2640  179.6370  138.8650 C   0  0  0  0  0  2  0  0  0  0  0  0
  187.8240  178.1560  141.7330 C   0  0  0  0  0  0  0  0  0  0  0  0
  182.8450  179.5220  139.4260 C   0  0  0  0  0  2  0  0  0  0  0  0
  185.0630  178.4370  141.6130 N   0  0  0  0  0  0  0  0  0  0  0  0
  190.0930  178.4480  142.8640 C   0  0  0  0  0  3  0  0  0  0  0  0
  187.9730  178.0910  139.1560 C   0  0  0  0  0  2  0  0  0  0  0  0
  188.8020  177.3420  144.6560 C   0  0  0  0  0  3  0  0  0  0  0  0
  187.2600  178.6430  137.9290 C   0  0  2  0  0  3  0  0  0  0  0  0
  187.1430  178.2330  140.4120 C   0  0  0  0  0  0  0  0  0  0  0  0
  189.1340  178.4200  141.7550 C   0  0  0  0  0  3  0  0  0  0  0  0
  187.0040  177.8430  142.9310 C   0  0  0  0  0  0  0  0  0  0  0  0
  187.5630  177.2910  144.1790 C   0  0  0  0  0  3  0  0  0  0  0  0
  182.7650  178.7710  140.7560 C   0  0  0  0  0  2  0  0  0  0  0  0
  185.8620  178.0350  137.8010 C   0  0  1  0  0  3  0  0  0  0  0  0
  188.0780  178.4910  136.6840 C   0  0  0  0  0  0  0  0  0  0  0  0
  187.4470  178.5080  135.4470 O   0  0  0  0  0  0  0  0  0  0  0  0
  189.3240  178.3170  136.7460 O   0  0  0  0  0  1  0  0  0  0  0  0
  185.8640  176.5620  137.5070 C   0  0  0  0  0  0  0  0  0  0  0  0
  187.0550  175.8500  137.4470 O   0  0  0  0  0  1  0  0  0  0  0  0
  184.7730  175.9690  137.3020 O   0  0  0  0  0  0  0  0  0  0  0  0
  184.7610  177.5840  143.9800 C   0  0  0  0  0  2  0  0  0  0  0  0
  183.1490  179.3550  145.1830 O   0  0  0  0  0  0  0  0  0  0  0  0
  184.5920  178.9420  145.1250 S   0  0  0  0  0  0  0  0  0  0  0  0
  185.4210  180.1030  144.6500 O   0  0  0  0  0  0  0  0  0  0  0  0
  185.1300  178.4340  146.7500 C   0  0  0  0  0  2  0  0  0  0  0  0
  186.4090  179.1460  147.1510 C   0  0  0  0  0  2  0  0  0  0  0  0
  187.3430  178.1870  147.8630 C   0  0  0  0  0  1  0  0  0  0  0  0
  1 12  1  0  0  0  0
  2 14  2  0  0  0  0
  2  9  1  0  0  0  0
  3  6  1  6  0  0  0
  3  2  1  0  0  0  0
  5 16  2  0  0  0  0
  5 26  1  0  0  0  0
  6  8  1  0  0  0  0
  7 15  2  0  0  0  0
  7 16  1  0  0  0  0
  8 18  1  0  0  0  0
  9  4  1  0  0  0  0
  9  5  1  0  0  0  0
 10  1  2  0  0  0  0
 11 14  1  0  0  0  0
 13 20  1  6  0  0  0
 13 11  1  0  0  0  0
 14  7  1  0  0  0  0
 15 10  1  0  0  0  0
 16 17  1  0  0  0  0
 17 12  2  0  0  0  0
 18  4  1  0  0  0  0
 19 23  1  1  0  0  0
 19 13  1  0  0  0  0
 19  3  1  0  0  0  0
 20 22  1  0  0  0  0
 21 20  2  0  0  0  0
 24 23  1  0  0  0  0
 25 23  2  0  0  0  0
 26 28  1  0  0  0  0
 28 27  2  0  0  0  0
 28 30  1  0  0  0  0
 29 28  2  0  0  0  0
 30 31  1  0  0  0  0
 31 32  1  0  0  0  0
M  END
>  <MODEL>
7

>  <REMARK>
 VINA RESULT:      -5.9      2.820      4.390
  Name = 
  6 active torsions:
  status: ('A' for Active; 'I' for Inactive)
    1  A    between atoms: C_1  and  C_22
    2  A    between atoms: C_5  and  C_10
    3  A    between atoms: C_5  and  S_26
    4  A    between atoms: C_6  and  C_32
    5  A    between atoms: C_17  and  C_18
    6  A    between atoms: C_18  and  S_26
                            x       y       z     vdW  Elec       q    Type
                         _______ _______ _______ _____ _____    ______ ____

>  <TORSDO>
F 6

$$$$
=
 OpenBabel11062412413D

 32 35  0  0  1  0  0  0  0  0999 V2000
  182.6480  179.4420  144.3580 N   0  0  0  0  0  0  0  0  0  0  0  0
  187.2380  178.0460  141.5580 C   0  0  0  0  0  0  0  0  0  0  0  0
  188.6690  177.6140  141.2460 C   0  0  1  0  0  3  0  0  0  0  0  0
  186.6820  178.6320  139.1450 C   0  0  0  0  0  2  0  0  0  0  0  0
  184.8720  178.0920  140.7610 C   0  0  0  0  0  0  0  0  0  0  0  0
  189.3490  178.6160  140.3280 C   0  0  0  0  0  2  0  0  0  0  0  0
  185.4040  178.6440  143.0710 C   0  0  0  0  0  0  0  0  0  0  0  0
  189.1550  178.2360  138.8590 C   0  0  0  0  0  2  0  0  0  0  0  0
  186.2830  178.1690  140.4790 N   0  0  0  0  0  0  0  0  0  0  0  0
  183.8420  179.7120  144.7830 C   0  0  0  0  0  3  0  0  0  0  0  0
  187.7640  178.1680  144.0040 C   0  0  0  0  0  2  0  0  0  0  0  0
  182.2210  178.6400  143.2570 C   0  0  0  0  0  3  0  0  0  0  0  0
  189.2270  178.2900  143.6020 C   0  0  2  0  0  3  0  0  0  0  0  0
  186.8310  178.3070  142.8220 C   0  0  0  0  0  0  0  0  0  0  0  0
  185.1150  179.2390  144.2320 C   0  0  0  0  0  3  0  0  0  0  0  0
  184.4120  178.3430  142.0060 C   0  0  0  0  0  0  0  0  0  0  0  0
  182.9690  178.1840  142.2580 C   0  0  0  0  0  3  0  0  0  0  0  0
  187.7470  177.7360  138.5310 C   0  0  0  0  0  2  0  0  0  0  0  0
  189.5530  177.3250  142.4600 C   0  0  1  0  0  3  0  0  0  0  0  0
  190.1490  178.1410  144.7720 C   0  0  0  0  0  0  0  0  0  0  0  0
  191.5200  178.2410  144.5770 O   0  0  0  0  0  0  0  0  0  0  0  0
  189.6990  177.8940  145.9220 O   0  0  0  0  0  1  0  0  0  0  0  0
  189.4700  175.8770  142.8450 C   0  0  0  0  0  0  0  0  0  0  0  0
  188.2580  175.3070  143.2180 O   0  0  0  0  0  1  0  0  0  0  0  0
  190.5130  175.1730  142.8410 O   0  0  0  0  0  0  0  0  0  0  0  0
  183.9350  177.6960  139.6490 C   0  0  0  0  0  2  0  0  0  0  0  0
  182.9920  178.8900  137.4430 O   0  0  0  0  0  0  0  0  0  0  0  0
  183.1930  179.1410  138.9100 S   0  0  0  0  0  0  0  0  0  0  0  0
  184.1050  180.3220  139.0920 O   0  0  0  0  0  0  0  0  0  0  0  0
  181.6130  179.4690  139.6760 C   0  0  0  0  0  2  0  0  0  0  0  0
  180.5220  178.6010  139.0750 C   0  0  0  0  0  2  0  0  0  0  0  0
  180.2490  177.4070  139.9690 C   0  0  0  0  0  1  0  0  0  0  0  0
  1 10  2  0  0  0  0
  2 14  2  0  0  0  0
  3  6  1  1  0  0  0
  3  2  1  0  0  0  0
  3 19  1  0  0  0  0
  4  9  1  0  0  0  0
  5 16  2  0  0  0  0
  7 15  2  0  0  0  0
  8  6  1  0  0  0  0
  9  5  1  0  0  0  0
  9  2  1  0  0  0  0
 12  1  1  0  0  0  0
 13 11  1  0  0  0  0
 13 20  1  1  0  0  0
 14  7  1  0  0  0  0
 14 11  1  0  0  0  0
 15 10  1  0  0  0  0
 16 17  1  0  0  0  0
 16  7  1  0  0  0  0
 17 12  2  0  0  0  0
 18  8  1  0  0  0  0
 18  4  1  0  0  0  0
 19 23  1  1  0  0  0
 19 13  1  0  0  0  0
 20 22  1  0  0  0  0
 21 20  2  0  0  0  0
 23 24  1  0  0  0  0
 25 23  2  0  0  0  0
 26  5  1  0  0  0  0
 27 28  2  0  0  0  0
 28 29  2  0  0  0  0
 28 26  1  0  0  0  0
 28 30  1  0  0  0  0
 31 30  1  0  0  0  0
 31 32  1  0  0  0  0
M  END
>  <MODEL>
8

>  <REMARK>
 VINA RESULT:      -5.9      2.513      7.845
  Name = 
  6 active torsions:
  status: ('A' for Active; 'I' for Inactive)
    1  A    between atoms: C_1  and  C_22
    2  A    between atoms: C_5  and  C_10
    3  A    between atoms: C_5  and  S_26
    4  A    between atoms: C_6  and  C_32
    5  A    between atoms: C_17  and  C_18
    6  A    between atoms: C_18  and  S_26
                            x       y       z     vdW  Elec       q    Type
                         _______ _______ _______ _____ _____    ______ ____

>  <TORSDO>
F 6

$$$$
=
 OpenBabel11062412413D

 32 35  0  0  1  0  0  0  0  0999 V2000
  193.7050  176.4650  138.7890 N   0  0  0  0  0  0  0  0  0  0  0  0
  188.3370  175.9980  137.4330 C   0  0  0  0  0  0  0  0  0  0  0  0
  187.0200  175.4290  136.9150 C   0  0  1  0  0  3  0  0  0  0  0  0
  187.4250  178.3530  137.7380 C   0  0  0  0  0  2  0  0  0  0  0  0
  189.4180  177.5980  139.0170 C   0  0  0  0  0  0  0  0  0  0  0  0
  186.4000  176.3520  135.8790 C   0  0  0  0  0  2  0  0  0  0  0  0
  190.7470  175.9060  137.8790 C   0  0  0  0  0  0  0  0  0  0  0  0
  185.4490  177.3540  136.5340 C   0  0  0  0  0  2  0  0  0  0  0  0
  188.3390  177.2710  138.1190 N   0  0  0  0  0  0  0  0  0  0  0  0
  193.2930  175.7890  137.7630 C   0  0  0  0  0  3  0  0  0  0  0  0
  189.5810  173.9880  136.6030 C   0  0  0  0  0  2  0  0  0  0  0  0
  192.9660  177.0690  139.8500 C   0  0  0  0  0  3  0  0  0  0  0  0
  188.4110  173.7530  135.6580 C   0  0  2  0  0  3  0  0  0  0  0  0
  189.5090  175.3380  137.2800 C   0  0  0  0  0  0  0  0  0  0  0  0
  191.9120  175.4450  137.4140 C   0  0  0  0  0  3  0  0  0  0  0  0
  190.6090  176.9690  138.9070 C   0  0  0  0  0  0  0  0  0  0  0  0
  191.6570  177.2900  139.8930 C   0  0  0  0  0  3  0  0  0  0  0  0
  185.9680  177.9280  137.8530 C   0  0  0  0  0  2  0  0  0  0  0  0
  187.0820  173.9980  136.3770 C   0  0  1  0  0  3  0  0  0  0  0  0
  188.4770  172.4120  134.9980 C   0  0  0  0  0  0  0  0  0  0  0  0
  189.7120  171.8110  134.7950 O   0  0  0  0  0  1  0  0  0  0  0  0
  187.4310  171.8370  134.5950 O   0  0  0  0  0  0  0  0  0  0  0  0
  186.7880  173.0080  137.4660 C   0  0  0  0  0  0  0  0  0  0  0  0
  187.7530  172.0970  137.8800 O   0  0  0  0  0  0  0  0  0  0  0  0
  185.6500  172.9950  138.0020 O   0  0  0  0  0  1  0  0  0  0  0  0
  189.1760  178.6260  140.0910 C   0  0  0  0  0  2  0  0  0  0  0  0
  188.6800  176.3490  141.4150 O   0  0  0  0  0  0  0  0  0  0  0  0
  188.6770  177.8380  141.6130 S   0  0  0  0  0  0  0  0  0  0  0  0
  187.2900  178.2870  141.9780 O   0  0  0  0  0  0  0  0  0  0  0  0
  189.8190  178.2650  142.9170 C   0  0  0  0  0  2  0  0  0  0  0  0
  189.3500  177.7210  144.2550 C   0  0  0  0  0  2  0  0  0  0  0  0
  190.5360  177.2620  145.0800 C   0  0  0  0  0  1  0  0  0  0  0  0
  1 12  1  0  0  0  0
  2  9  1  0  0  0  0
  3  6  1  6  0  0  0
  3  2  1  0  0  0  0
  4 18  1  0  0  0  0
  4  9  1  0  0  0  0
  5 26  1  0  0  0  0
  6  8  1  0  0  0  0
  7 16  1  0  0  0  0
  8 18  1  0  0  0  0
  9  5  1  0  0  0  0
 10  1  2  0  0  0  0
 11 14  1  0  0  0  0
 12 17  2  0  0  0  0
 13 20  1  1  0  0  0
 13 19  1  0  0  0  0
 13 11  1  0  0  0  0
 14  2  2  0  0  0  0
 14  7  1  0  0  0  0
 15 10  1  0  0  0  0
 15  7  2  0  0  0  0
 16  5  2  0  0  0  0
 16 17  1  0  0  0  0
 19  3  1  0  0  0  0
 19 23  1  1  0  0  0
 21 20  1  0  0  0  0
 22 20  2  0  0  0  0
 23 24  2  0  0  0  0
 23 25  1  0  0  0  0
 26 28  1  0  0  0  0
 27 28  2  0  0  0  0
 28 29  2  0  0  0  0
 28 30  1  0  0  0  0
 30 31  1  0  0  0  0
 31 32  1  0  0  0  0
M  END
>  <MODEL>
9

>  <REMARK>
 VINA RESULT:      -5.8      4.369      6.348
  Name = 
  6 active torsions:
  status: ('A' for Active; 'I' for Inactive)
    1  A    between atoms: C_1  and  C_22
    2  A    between atoms: C_5  and  C_10
    3  A    between atoms: C_5  and  S_26
    4  A    between atoms: C_6  and  C_32
    5  A    between atoms: C_17  and  C_18
    6  A    between atoms: C_18  and  S_26
                            x       y       z     vdW  Elec       q    Type
                         _______ _______ _______ _____ _____    ______ ____

>  <TORSDO>
F 6

$$$$
