=
 OpenBabel11062412033D

 48 54  0  0  1  0  0  0  0  0999 V2000
  188.6650  177.9870  139.6410 O   0  0  0  0  0  0  0  0  0  0  0  0
  179.9630  178.0370  137.1350 C   0  0  0  0  0  2  0  0  0  0  0  0
  180.3890  180.4420  137.0810 C   0  0  0  0  0  2  0  0  0  0  0  0
  181.1150  178.3360  138.0980 C   0  0  2  0  0  0  0  0  0  0  0  0
  180.9770  178.6070  141.7680 N   0  0  0  0  0  0  0  0  0  0  0  0
  184.7400  174.8180  137.3070 C   0  0  0  0  0  2  0  0  0  0  0  0
  188.7280  178.8220  137.0830 C   0  0  0  0  0  2  0  0  0  0  0  0
  190.2320  175.7570  135.6290 C   0  0  0  0  0  2  0  0  0  0  0  0
  185.3080  176.8690  135.3580 O   0  0  0  0  0  1  0  0  0  0  0  0
  183.1570  177.5760  137.0170 C   0  0  0  0  0  3  0  0  0  0  0  0
  186.4860  179.9120  140.5130 C   0  0  0  0  0  1  0  0  0  0  0  0
  183.0320  179.0580  140.7020 C   0  0  0  0  0  2  0  0  0  0  0  0
  180.6990  179.1030  139.3410 C   0  0  2  0  0  3  0  0  0  0  0  0
  186.2510  177.5370  141.2670 C   0  0  0  0  0  2  0  0  0  0  0  0
  182.0890  176.0330  138.6220 C   0  0  0  0  0  1  0  0  0  0  0  0
  184.7690  177.4710  141.6620 C   0  0  0  0  0  2  0  0  0  0  0  0
  188.2050  174.8750  135.2900 C   0  0  0  0  0  0  0  0  0  0  0  0
  189.4310  174.7850  134.8730 N   0  0  0  0  0  0  0  0  0  0  0  0
  185.3580  175.8990  137.8000 O   0  0  0  0  0  0  0  0  0  0  0  0
  181.3520  179.8580  138.1240 C   0  0  2  0  0  0  0  0  0  0  0  0
  184.3750  176.3750  136.4360 P   0  0  2  0  0  0  0  0  0  0  0  0
  185.8340  174.0720  135.2050 N   0  0  0  0  0  2  0  0  0  0  0  0
  188.0250  175.8960  136.3120 C   0  0  0  0  0  3  0  0  0  0  0  0
  182.2640  177.3760  137.9990 C   0  0  0  0  0  0  0  0  0  0  0  0
  181.5460  178.7990  140.6070 C   0  0  0  0  0  0  0  0  0  0  0  0
  187.3830  178.0550  139.0630 C   0  0  2  0  0  3  0  0  0  0  0  0
  183.9350  177.8580  140.4340 C   0  0  2  0  0  3  0  0  0  0  0  0
  189.2260  176.4160  136.5170 C   0  0  0  0  0  0  0  0  0  0  0  0
  184.9350  178.2920  139.3890 C   0  0  0  0  0  2  0  0  0  0  0  0
  189.5160  177.5470  137.4600 C   0  0  2  0  0  3  0  0  0  0  0  0
  187.1830  173.9830  134.8130 N   0  0  0  0  0  2  0  0  0  0  0  0
  187.4560  179.0410  137.9040 C   0  0  0  0  0  2  0  0  0  0  0  0
  185.7720  173.8900  136.6480 C   0  0  2  0  0  3  0  0  0  0  0  0
  179.3590  179.3730  136.7270 C   0  0  0  0  0  2  0  0  0  0  0  0
  186.2910  178.4520  140.0560 C   0  0  2  0  0  0  0  0  0  0  0  0
  189.3830  177.1190  138.8770 N   0  0  0  0  0  2  0  0  0  0  0  0
  185.3480  171.5890  135.8140 C   0  0  0  0  0  3  0  0  0  0  0  0
  185.3950  172.4640  137.0370 C   0  0  2  0  0  3  0  0  0  0  0  0
  184.2090  170.9900  135.7340 N   0  0  0  0  0  0  0  0  0  0  0  0
  184.0380  172.3400  137.5560 N   0  0  0  0  0  0  0  0  0  0  0  0
  183.4310  171.4510  136.8340 C   0  0  0  0  0  3  0  0  0  0  0  0
  178.9420  177.5390  142.0180 O   0  0  0  0  0  0  0  0  0  0  0  0
  179.5880  178.6110  142.1530 C   0  0  0  0  0  0  0  0  0  0  0  0
  179.8170  180.8740  142.8920 O   0  0  0  0  0  1  0  0  0  0  0  0
  178.9310  179.7860  142.8410 C   0  0  0  0  0  2  0  0  0  0  0  0
  182.4000  180.8780  138.6700 C   0  0  0  0  0  2  0  0  0  0  0  0
  183.0350  183.2250  138.4100 O   0  0  0  0  0  1  0  0  0  0  0  0
  181.9560  182.3310  138.3550 C   0  0  0  0  0  2  0  0  0  0  0  0
  3 20  1  0  0  0  0
  4  2  1  6  0  0  0
  4 20  1  0  0  0  0
  4 13  1  0  0  0  0
  5 43  1  0  0  0  0
  6 19  1  0  0  0  0
  7 32  1  0  0  0  0
  8 28  1  0  0  0  0
 10 24  2  0  0  0  0
 13 25  1  1  0  0  0
 14 16  1  0  0  0  0
 17 23  1  0  0  0  0
 18 17  2  0  0  0  0
 18  8  1  0  0  0  0
 20 46  1  1  0  0  0
 20 13  1  0  0  0  0
 21  9  1  6  0  0  0
 21 10  1  0  0  0  0
 21 19  1  0  0  0  0
 22 33  1  0  0  0  0
 23 28  2  0  0  0  0
 24  4  1  0  0  0  0
 24 15  1  0  0  0  0
 25 12  1  0  0  0  0
 25  5  2  0  0  0  0
 26 32  1  6  0  0  0
 26  1  1  0  0  0  0
 26 35  1  0  0  0  0
 27 29  1  6  0  0  0
 27 12  1  0  0  0  0
 27 16  1  0  0  0  0
 28 30  1  0  0  0  0
 29 35  1  0  0  0  0
 30  7  1  6  0  0  0
 30 36  1  0  0  0  0
 31 22  1  0  0  0  0
 31 17  1  0  0  0  0
 33 38  1  0  0  0  0
 33  6  1  6  0  0  0
 34  3  1  0  0  0  0
 34  2  1  0  0  0  0
 35 11  1  1  0  0  0
 35 14  1  0  0  0  0
 36  1  1  0  0  0  0
 38 37  1  6  0  0  0
 38 40  1  0  0  0  0
 39 37  2  0  0  0  0
 39 41  1  0  0  0  0
 41 40  2  0  0  0  0
 42 43  2  0  0  0  0
 43 45  1  0  0  0  0
 45 44  1  0  0  0  0
 48 47  1  0  0  0  0
 48 46  1  0  0  0  0
M  END
>  <MODEL>
1

>  <REMARK>
 VINA RESULT:      -2.1      0.000      0.000
  Name = 
  5 active torsions:
  status: ('A' for Active; 'I' for Inactive)
    1  A    between atoms: C_7  and  C_45
    2  A    between atoms: N_8  and  C_28
    3  A    between atoms: C_21  and  C_26
    4  A    between atoms: C_21  and  C_43
    5  A    between atoms: C_28  and  C_34
                            x       y       z     vdW  Elec       q    Type
                         _______ _______ _______ _____ _____    ______ ____

>  <TORSDO>
F 5

$$$$
=
 OpenBabel11062412033D

 48 54  0  0  1  0  0  0  0  0999 V2000
  185.1280  175.2450  136.8640 O   0  0  0  0  0  0  0  0  0  0  0  0
  194.0130  176.7380  137.7850 C   0  0  0  0  0  2  0  0  0  0  0  0
  193.8070  177.1350  135.3840 C   0  0  0  0  0  2  0  0  0  0  0  0
  192.7980  175.9560  137.2790 C   0  0  2  0  0  0  0  0  0  0  0  0
  192.5820  172.3550  136.5370 N   0  0  0  0  0  0  0  0  0  0  0  0
  188.9800  176.7130  140.5930 C   0  0  0  0  0  2  0  0  0  0  0  0
  185.4020  177.8770  136.3710 C   0  0  0  0  0  2  0  0  0  0  0  0
  183.7930  179.1040  139.4810 C   0  0  0  0  0  2  0  0  0  0  0  0
  188.7970  178.9510  138.7810 O   0  0  0  0  0  1  0  0  0  0  0  0
  190.8200  177.1590  138.0220 C   0  0  0  0  0  3  0  0  0  0  0  0
  187.3660  174.3760  135.0060 C   0  0  0  0  0  1  0  0  0  0  0  0
  190.6940  173.6940  136.0800 C   0  0  0  0  0  2  0  0  0  0  0  0
  193.1500  174.7770  136.3860 C   0  0  2  0  0  3  0  0  0  0  0  0
  187.3140  173.3140  137.2720 C   0  0  0  0  0  2  0  0  0  0  0  0
  191.5780  175.2650  139.4140 C   0  0  0  0  0  1  0  0  0  0  0  0
  188.7360  172.7480  137.3950 C   0  0  0  0  0  2  0  0  0  0  0  0
  185.7590  179.1010  140.5470 C   0  0  0  0  0  0  0  0  0  0  0  0
  184.5790  179.6390  140.6010 N   0  0  0  0  0  0  0  0  0  0  0  0
  188.4110  176.4290  139.4140 O   0  0  0  0  0  0  0  0  0  0  0  0
  192.6940  176.1440  135.7530 C   0  0  2  0  0  0  0  0  0  0  0  0
  189.5680  177.7210  139.1950 P   0  0  2  0  0  0  0  0  0  0  0  0
  188.0470  178.8170  141.5270 N   0  0  0  0  0  2  0  0  0  0  0  0
  185.9220  178.1980  139.4160 C   0  0  0  0  0  3  0  0  0  0  0  0
  191.5860  176.0650  138.1550 C   0  0  0  0  0  0  0  0  0  0  0  0
  192.1540  173.5870  136.4580 C   0  0  0  0  0  0  0  0  0  0  0  0
  186.4640  175.6790  136.9680 C   0  0  2  0  0  3  0  0  0  0  0  0
  189.7220  173.9120  137.2350 C   0  0  2  0  0  3  0  0  0  0  0  0
  184.7560  178.1950  138.7870 C   0  0  0  0  0  0  0  0  0  0  0  0
  188.8760  175.1100  136.8700 C   0  0  0  0  0  2  0  0  0  0  0  0
  184.4710  177.4380  137.5240 C   0  0  2  0  0  3  0  0  0  0  0  0
  186.7430  179.3450  141.5670 N   0  0  0  0  0  2  0  0  0  0  0  0
  186.5970  176.9510  136.1400 C   0  0  0  0  0  2  0  0  0  0  0  0
  187.9440  177.3660  141.5210 C   0  0  2  0  0  3  0  0  0  0  0  0
  194.7700  177.2350  136.5630 C   0  0  0  0  0  2  0  0  0  0  0  0
  187.4790  174.6250  136.5240 C   0  0  2  0  0  0  0  0  0  0  0  0
  184.4200  175.9740  137.7700 N   0  0  0  0  0  2  0  0  0  0  0  0
  187.6250  177.6980  143.9620 C   0  0  0  0  0  3  0  0  0  0  0  0
  188.1520  176.7640  142.9080 C   0  0  2  0  0  3  0  0  0  0  0  0
  188.5380  177.9500  144.8370 N   0  0  0  0  0  0  0  0  0  0  0  0
  189.5560  176.6370  143.2840 N   0  0  0  0  0  0  0  0  0  0  0  0
  189.7090  177.2620  144.4080 C   0  0  0  0  0  3  0  0  0  0  0  0
  194.2150  170.9150  135.7600 O   0  0  0  0  0  0  0  0  0  0  0  0
  193.9180  171.8180  136.5850 C   0  0  0  0  0  0  0  0  0  0  0  0
  195.0760  171.6670  138.6720 O   0  0  0  0  0  1  0  0  0  0  0  0
  195.0010  172.3910  137.4720 C   0  0  0  0  0  2  0  0  0  0  0  0
  191.6880  175.8490  134.5950 C   0  0  0  0  0  2  0  0  0  0  0  0
  190.5690  178.0230  134.5940 O   0  0  0  0  0  1  0  0  0  0  0  0
  190.3760  176.6500  134.8030 C   0  0  0  0  0  2  0  0  0  0  0  0
  1 26  1  0  0  0  0
  1 36  1  0  0  0  0
  3 20  1  0  0  0  0
  3 34  1  0  0  0  0
  4  2  1  1  0  0  0
  4 24  1  0  0  0  0
  5 43  1  0  0  0  0
  8 18  1  0  0  0  0
 10 24  2  0  0  0  0
 10 21  1  0  0  0  0
 12 25  1  0  0  0  0
 13 25  1  1  0  0  0
 13  4  1  0  0  0  0
 14 16  1  0  0  0  0
 17 18  2  0  0  0  0
 17 31  1  0  0  0  0
 19  6  1  0  0  0  0
 20 46  1  6  0  0  0
 20 13  1  0  0  0  0
 20  4  1  0  0  0  0
 21  9  1  6  0  0  0
 21 19  1  0  0  0  0
 22 31  1  0  0  0  0
 23 17  1  0  0  0  0
 24 15  1  0  0  0  0
 25  5  2  0  0  0  0
 26 32  1  6  0  0  0
 27 12  1  6  0  0  0
 27 16  1  0  0  0  0
 28 23  2  0  0  0  0
 28  8  1  0  0  0  0
 29 27  1  0  0  0  0
 30  7  1  6  0  0  0
 30 36  1  0  0  0  0
 30 28  1  0  0  0  0
 32  7  1  0  0  0  0
 33  6  1  6  0  0  0
 33 22  1  0  0  0  0
 33 38  1  0  0  0  0
 34  2  1  0  0  0  0
 35 11  1  6  0  0  0
 35 29  1  0  0  0  0
 35 26  1  0  0  0  0
 35 14  1  0  0  0  0
 37 39  2  0  0  0  0
 38 40  1  0  0  0  0
 38 37  1  1  0  0  0
 40 41  2  0  0  0  0
 41 39  1  0  0  0  0
 42 43  2  0  0  0  0
 43 45  1  0  0  0  0
 45 44  1  0  0  0  0
 46 48  1  0  0  0  0
 47 48  1  0  0  0  0
M  END
>  <MODEL>
2

>  <REMARK>
 VINA RESULT:      -1.5      3.717     10.092
  Name = 
  5 active torsions:
  status: ('A' for Active; 'I' for Inactive)
    1  A    between atoms: C_7  and  C_45
    2  A    between atoms: N_8  and  C_28
    3  A    between atoms: C_21  and  C_26
    4  A    between atoms: C_21  and  C_43
    5  A    between atoms: C_28  and  C_34
                            x       y       z     vdW  Elec       q    Type
                         _______ _______ _______ _____ _____    ______ ____

>  <TORSDO>
F 5

$$$$
=
 OpenBabel11062412033D

 48 54  0  0  1  0  0  0  0  0999 V2000
  179.5670  175.6580  139.5620 O   0  0  0  0  0  0  0  0  0  0  0  0
  187.6850  178.4370  136.6660 C   0  0  0  0  0  2  0  0  0  0  0  0
  186.4240  178.7200  134.5940 C   0  0  0  0  0  2  0  0  0  0  0  0
  186.4970  177.4720  136.7000 C   0  0  2  0  0  0  0  0  0  0  0  0
  186.5060  173.8550  136.0090 N   0  0  0  0  0  0  0  0  0  0  0  0
  184.3830  177.7850  141.3440 C   0  0  0  0  0  2  0  0  0  0  0  0
  179.2240  178.2840  139.0810 C   0  0  0  0  0  2  0  0  0  0  0  0
  178.9310  179.3710  142.6170 C   0  0  0  0  0  2  0  0  0  0  0  0
  183.1280  179.9130  139.8520 O   0  0  0  0  0  1  0  0  0  0  0  0
  184.8710  178.4040  138.2500 C   0  0  0  0  0  3  0  0  0  0  0  0
  180.9040  175.0560  136.9040 C   0  0  0  0  0  1  0  0  0  0  0  0
  184.4320  174.8940  136.4400 C   0  0  0  0  0  2  0  0  0  0  0  0
  186.6020  176.3270  135.7070 C   0  0  2  0  0  3  0  0  0  0  0  0
  181.9720  174.0750  138.9430 C   0  0  0  0  0  2  0  0  0  0  0  0
  186.4120  176.6860  139.1290 C   0  0  0  0  0  1  0  0  0  0  0  0
  183.3760  173.7220  138.4320 C   0  0  0  0  0  2  0  0  0  0  0  0
  181.1420  179.6850  142.7450 C   0  0  0  0  0  0  0  0  0  0  0  0
  180.0320  180.0510  143.3120 N   0  0  0  0  0  0  0  0  0  0  0  0
  183.4150  177.3840  140.5100 O   0  0  0  0  0  0  0  0  0  0  0  0
  185.7290  177.5930  135.3690 C   0  0  2  0  0  0  0  0  0  0  0  0
  184.1700  178.8210  139.8620 P   0  0  2  0  0  0  0  0  0  0  0  0
  183.6430  179.7650  142.6510 N   0  0  0  0  0  2  0  0  0  0  0  0
  180.9360  178.7770  141.6250 C   0  0  0  0  0  3  0  0  0  0  0  0
  185.7700  177.4370  138.0120 C   0  0  0  0  0  0  0  0  0  0  0  0
  185.9130  175.0100  136.1580 C   0  0  0  0  0  0  0  0  0  0  0  0
  180.7430  176.2820  139.1020 C   0  0  2  0  0  3  0  0  0  0  0  0
  184.0230  175.0100  137.9050 C   0  0  2  0  0  3  0  0  0  0  0  0
  179.6270  178.5870  141.5510 C   0  0  0  0  0  0  0  0  0  0  0  0
  182.9400  176.0610  137.9710 C   0  0  0  0  0  2  0  0  0  0  0  0
  178.9450  177.7550  140.5060 C   0  0  2  0  0  3  0  0  0  0  0  0
  182.4190  180.1020  143.2580 N   0  0  0  0  0  2  0  0  0  0  0  0
  180.3270  177.5310  138.3360 C   0  0  0  0  0  2  0  0  0  0  0  0
  183.7580  178.3140  142.6440 C   0  0  2  0  0  3  0  0  0  0  0  0
  187.7710  178.9970  135.2540 C   0  0  0  0  0  2  0  0  0  0  0  0
  181.6130  175.3700  138.2360 C   0  0  2  0  0  0  0  0  0  0  0  0
  179.2140  176.3070  140.7050 N   0  0  0  0  0  2  0  0  0  0  0  0
  184.4200  178.6470  145.0150 C   0  0  0  0  0  3  0  0  0  0  0  0
  184.6190  177.7950  143.7920 C   0  0  2  0  0  3  0  0  0  0  0  0
  185.5530  179.0800  145.4510 N   0  0  0  0  0  0  0  0  0  0  0  0
  186.0520  177.9310  143.5530 N   0  0  0  0  0  0  0  0  0  0  0  0
  186.5440  178.6010  144.5460 C   0  0  0  0  0  3  0  0  0  0  0  0
  187.8610  172.5460  134.6700 O   0  0  0  0  0  0  0  0  0  0  0  0
  187.7980  173.5170  135.4680 C   0  0  0  0  0  0  0  0  0  0  0  0
  189.5040  174.1720  137.0110 O   0  0  0  0  0  1  0  0  0  0  0  0
  189.0320  174.3600  135.7020 C   0  0  0  0  0  2  0  0  0  0  0  0
  184.3810  177.1190  134.7410 C   0  0  0  0  0  2  0  0  0  0  0  0
  182.2080  178.0000  135.4380 O   0  0  0  0  0  1  0  0  0  0  0  0
  183.3630  178.2900  134.6970 C   0  0  0  0  0  2  0  0  0  0  0  0
  1 36  1  0  0  0  0
  3 34  1  0  0  0  0
  3 20  1  0  0  0  0
  4  2  1  1  0  0  0
  4 24  1  0  0  0  0
  5 25  2  0  0  0  0
  8 18  1  0  0  0  0
 10 21  1  0  0  0  0
 13 25  1  1  0  0  0
 13  4  1  0  0  0  0
 16 14  1  0  0  0  0
 17 31  1  0  0  0  0
 17 18  2  0  0  0  0
 19  6  1  0  0  0  0
 20 46  1  6  0  0  0
 20 13  1  0  0  0  0
 20  4  1  0  0  0  0
 21  9  1  6  0  0  0
 21 19  1  0  0  0  0
 22 31  1  0  0  0  0
 23 17  1  0  0  0  0
 24 10  2  0  0  0  0
 24 15  1  0  0  0  0
 25 12  1  0  0  0  0
 26 32  1  6  0  0  0
 26  1  1  0  0  0  0
 27 12  1  6  0  0  0
 27 29  1  0  0  0  0
 27 16  1  0  0  0  0
 28 23  2  0  0  0  0
 28  8  1  0  0  0  0
 29 35  1  0  0  0  0
 30  7  1  6  0  0  0
 30 36  1  0  0  0  0
 30 28  1  0  0  0  0
 32  7  1  0  0  0  0
 33  6  1  6  0  0  0
 33 22  1  0  0  0  0
 33 38  1  0  0  0  0
 34  2  1  0  0  0  0
 35 11  1  6  0  0  0
 35 14  1  0  0  0  0
 35 26  1  0  0  0  0
 37 39  2  0  0  0  0
 38 37  1  1  0  0  0
 40 38  1  0  0  0  0
 40 41  2  0  0  0  0
 41 39  1  0  0  0  0
 42 43  2  0  0  0  0
 43 45  1  0  0  0  0
 43  5  1  0  0  0  0
 45 44  1  0  0  0  0
 48 46  1  0  0  0  0
 48 47  1  0  0  0  0
M  END
>  <MODEL>
3

>  <REMARK>
 VINA RESULT:       0.9      2.629      8.684
  Name = 
  5 active torsions:
  status: ('A' for Active; 'I' for Inactive)
    1  A    between atoms: C_7  and  C_45
    2  A    between atoms: N_8  and  C_28
    3  A    between atoms: C_21  and  C_26
    4  A    between atoms: C_21  and  C_43
    5  A    between atoms: C_28  and  C_34
                            x       y       z     vdW  Elec       q    Type
                         _______ _______ _______ _____ _____    ______ ____

>  <TORSDO>
F 5

$$$$
