=
 OpenBabel11062415133D

 52 56  0  0  1  0  0  0  0  0999 V2000
  186.1580  173.8640  134.9700 C   0  0  0  0  0  0  0  0  0  0  0  0
  187.7520  177.6320  136.6080 C   0  0  0  0  0  0  0  0  0  0  0  0
  186.5340  177.5000  135.7440 C   0  0  0  0  0  2  0  0  0  0  0  0
  189.1450  176.7660  138.6290 C   0  0  1  0  0  3  0  0  0  0  0  0
  188.9260  173.0350  135.9910 C   0  0  0  0  0  3  0  0  0  0  0  0
  189.8550  173.9140  136.3380 C   0  0  0  0  0  3  0  0  0  0  0  0
  186.6760  175.1170  135.3260 O   0  0  0  0  0  0  0  0  0  0  0  0
  191.0820  175.2830  138.0450 C   0  0  1  0  0  3  0  0  0  0  0  0
  185.8520  176.1430  135.8630 C   0  0  0  0  0  2  0  0  0  0  0  0
  190.2620  176.4980  137.6320 C   0  0  0  0  0  2  0  0  0  0  0  0
  189.5070  177.9330  139.5470 C   0  0  1  0  0  3  0  0  0  0  0  0
  186.9530  172.9000  134.6140 N   0  0  0  0  0  0  0  0  0  0  0  0
  188.4050  173.0320  134.5950 C   0  0  0  0  0  2  0  0  0  0  0  0
  188.2870  178.6100  139.7800 O   0  0  0  0  0  0  0  0  0  0  0  0
  187.7570  177.0950  138.0260 C   0  0  1  0  0  3  0  0  0  0  0  0
  187.2920  178.1540  138.9480 C   0  0  0  0  0  0  0  0  0  0  0  0
  186.1120  178.5910  138.9880 O   0  0  0  0  0  0  0  0  0  0  0  0
  190.3520  173.9690  137.7480 C   0  0  0  0  0  2  0  0  0  0  0  0
  188.6800  178.3080  136.1940 O   0  0  0  0  0  0  0  0  0  0  0  0
  192.6960  175.3430  137.2820 S   0  0  0  0  0  0  0  0  0  0  0  0
  192.5620  175.8980  135.8930 O   0  0  0  0  0  0  0  0  0  0  0  0
  193.5880  176.2520  138.0810 O   0  0  0  0  0  0  0  0  0  0  0  0
  193.8340  173.4700  135.8440 O   0  0  0  0  0  0  0  0  0  0  0  0
  194.8560  173.5550  136.8080 C   0  0  2  0  0  3  0  0  0  0  0  0
  193.4070  173.6950  137.1650 C   0  0  1  0  0  3  0  0  0  0  0  0
  195.6500  174.8190  136.6240 C   0  0  0  0  0  0  0  0  0  0  0  0
  196.3330  175.2550  137.5390 O   0  0  0  0  0  0  0  0  0  0  0  0
  195.6670  176.8440  135.4230 F   0  0  0  0  0  0  0  0  0  0  0  0
  196.8960  175.1050  134.6560 F   0  0  0  0  0  0  0  0  0  0  0  0
  195.7190  175.4680  135.2810 C   0  0  0  0  0  3  0  0  0  0  0  0
  190.0430  177.4320  140.7980 N   0  0  0  0  0  2  0  0  0  0  0  0
  189.5590  178.2690  141.8150 N   0  0  0  0  0  2  0  0  0  0  0  0
  189.6830  176.5520  143.6190 C   0  0  0  0  0  2  0  0  0  0  0  0
  190.1840  177.8530  143.0600 C   0  0  0  0  0  0  0  0  0  0  0  0
  191.5470  178.0840  143.2150 O   0  0  0  0  0  1  0  0  0  0  0  0
  189.3320  177.8750  144.3020 C   0  0  0  0  0  2  0  0  0  0  0  0
  184.6850  173.6030  135.0000 C   0  0  0  0  0  2  0  0  0  0  0  0
  184.9240  173.7090  137.6670 O   0  0  0  0  0  0  0  0  0  0  0  0
  184.5750  171.5040  136.6630 O   0  0  0  0  0  0  0  0  0  0  0  0
  184.1970  172.9550  136.5910 S   0  0  0  0  0  0  0  0  0  0  0  0
  182.4300  173.1510  136.8160 C   0  0  2  0  0  3  0  0  0  0  0  0
  181.7310  171.9690  136.1630 C   0  0  0  0  0  1  0  0  0  0  0  0
  179.4500  174.4120  137.0490 N   0  0  0  0  0  2  0  0  0  0  0  0
  180.9650  175.8630  138.7300 O   0  0  0  0  0  0  0  0  0  0  0  0
  180.0230  174.8190  134.8400 O   0  0  0  0  0  0  0  0  0  0  0  0
  182.4610  175.7670  136.8460 C   0  0  0  0  0  2  0  0  0  0  0  0
  179.8660  172.5000  138.3460 O   0  0  0  0  0  1  0  0  0  0  0  0
  180.7240  174.5700  139.2010 C   0  0  0  0  0  2  0  0  0  0  0  0
  180.4240  174.5510  136.0000 C   0  0  0  0  0  0  0  0  0  0  0  0
  182.3120  175.8350  138.3620 C   0  0  0  0  0  2  0  0  0  0  0  0
  179.6280  173.8760  138.3980 C   0  0  1  0  0  3  0  0  0  0  0  0
  181.9120  174.4760  136.2230 C   0  0  2  0  0  3  0  0  0  0  0  0
  1 37  1  0  0  0  0
  1  7  1  0  0  0  0
  3  9  1  0  0  0  0
  3  2  1  0  0  0  0
  4 10  1  6  0  0  0
  4 11  1  0  0  0  0
  5  6  2  0  0  0  0
  6 18  1  0  0  0  0
  7  9  1  0  0  0  0
  8 20  1  6  0  0  0
 10  8  1  0  0  0  0
 11 14  1  0  0  0  0
 11 31  1  1  0  0  0
 12  1  2  0  0  0  0
 13 12  1  0  0  0  0
 13  5  1  0  0  0  0
 15  2  1  6  0  0  0
 15  4  1  0  0  0  0
 15 16  1  0  0  0  0
 16 17  2  0  0  0  0
 16 14  1  0  0  0  0
 18  8  1  0  0  0  0
 19  2  2  0  0  0  0
 20 22  2  0  0  0  0
 21 20  2  0  0  0  0
 23 24  1  0  0  0  0
 23 25  1  0  0  0  0
 24 26  1  6  0  0  0
 24 25  1  0  0  0  0
 25 20  1  6  0  0  0
 26 27  2  0  0  0  0
 29 30  1  0  0  0  0
 30 28  1  0  0  0  0
 30 26  1  0  0  0  0
 31 32  1  0  0  0  0
 32 34  1  0  0  0  0
 33 36  1  0  0  0  0
 34 35  1  0  0  0  0
 34 33  1  0  0  0  0
 34 36  1  0  0  0  0
 37 40  1  0  0  0  0
 40 39  2  0  0  0  0
 40 41  1  0  0  0  0
 40 38  2  0  0  0  0
 41 42  1  6  0  0  0
 43 51  1  0  0  0  0
 44 48  1  0  0  0  0
 45 49  2  0  0  0  0
 46 50  1  0  0  0  0
 49 52  1  0  0  0  0
 49 43  1  0  0  0  0
 50 44  1  0  0  0  0
 51 47  1  6  0  0  0
 51 48  1  0  0  0  0
 52 41  1  1  0  0  0
 52 46  1  0  0  0  0
M  END
>  <MODEL>
1

>  <REMARK>
 VINA RESULT:      -6.4      0.000      0.000
  Name = 
  11 active torsions:
  status: ('A' for Active; 'I' for Inactive)
    1  A    between atoms: S_1  and  C_23
    2  A    between atoms: S_1  and  C_46
    3  A    between atoms: C_3  and  C_47
    4  A    between atoms: C_6  and  C_49
    5  A    between atoms: C_6  and  S_52
    6  A    between atoms: N_9  and  N_15
    7  A    between atoms: N_9  and  C_24
    8  A    between atoms: N_15  and  C_29
    9  A    between atoms: C_17  and  C_34
   10  A    between atoms: C_17  and  C_41
   11  A    between atoms: C_47  and  S_52
                            x       y       z     vdW  Elec       q    Type
                         _______ _______ _______ _____ _____    ______ ____

>  <TORSDO>
F 11

$$$$
=
 OpenBabel11062415133D

 52 56  0  0  1  0  0  0  0  0999 V2000
  186.3920  178.8680  140.9160 C   0  0  0  0  0  0  0  0  0  0  0  0
  186.8750  177.2250  136.8560 C   0  0  0  0  0  0  0  0  0  0  0  0
  187.8280  178.1590  137.5410 C   0  0  0  0  0  2  0  0  0  0  0  0
  185.3710  175.1040  136.9770 C   0  0  1  0  0  3  0  0  0  0  0  0
  183.6330  177.6620  140.3470 C   0  0  0  0  0  3  0  0  0  0  0  0
  183.2540  177.2810  139.1360 C   0  0  0  0  0  3  0  0  0  0  0  0
  186.5510  178.5110  139.5700 O   0  0  0  0  0  0  0  0  0  0  0  0
  182.9310  175.5350  137.3640 C   0  0  1  0  0  3  0  0  0  0  0  0
  187.7950  178.0490  139.0590 C   0  0  0  0  0  2  0  0  0  0  0  0
  184.1980  176.0250  136.6770 C   0  0  0  0  0  2  0  0  0  0  0  0
  185.6630  174.1930  135.7850 C   0  0  1  0  0  3  0  0  0  0  0  0
  185.2160  179.1530  141.3870 N   0  0  0  0  0  0  0  0  0  0  0  0
  184.0000  179.0870  140.5850 C   0  0  0  0  0  2  0  0  0  0  0  0
  187.0710  174.0500  135.7660 O   0  0  0  0  0  0  0  0  0  0  0  0
  186.7080  175.7980  137.3380 C   0  0  1  0  0  3  0  0  0  0  0  0
  187.6760  174.9310  136.6320 C   0  0  0  0  0  0  0  0  0  0  0  0
  188.9230  174.9720  136.8040 O   0  0  0  0  0  0  0  0  0  0  0  0
  182.9340  175.8450  138.8640 C   0  0  0  0  0  2  0  0  0  0  0  0
  186.3520  177.5980  135.8180 O   0  0  0  0  0  0  0  0  0  0  0  0
  181.4900  176.2000  136.5430 S   0  0  0  0  0  0  0  0  0  0  0  0
  181.8650  177.4830  135.8580 O   0  0  0  0  0  0  0  0  0  0  0  0
  181.0160  175.2200  135.5050 O   0  0  0  0  0  0  0  0  0  0  0  0
  178.9380  176.4240  137.0930 O   0  0  0  0  0  0  0  0  0  0  0  0
  179.2180  175.4650  138.0850 C   0  0  2  0  0  3  0  0  0  0  0  0
  180.1860  176.5520  137.7290 C   0  0  1  0  0  3  0  0  0  0  0  0
  179.4360  174.1120  137.4640 C   0  0  0  0  0  0  0  0  0  0  0  0
  179.0090  173.8750  136.3440 O   0  0  0  0  0  0  0  0  0  0  0  0
  180.1180  173.1990  139.5240 F   0  0  0  0  0  0  0  0  0  0  0  0
  179.9500  171.8380  137.7230 F   0  0  0  0  0  0  0  0  0  0  0  0
  180.2940  173.1040  138.1540 C   0  0  0  0  0  3  0  0  0  0  0  0
  185.0360  172.9010  135.9830 N   0  0  0  0  0  2  0  0  0  0  0  0
  183.9330  172.8450  135.1180 N   0  0  0  0  0  2  0  0  0  0  0  0
  183.2390  171.4100  137.0360 C   0  0  0  0  0  2  0  0  0  0  0  0
  183.0580  171.7840  135.5930 C   0  0  0  0  0  0  0  0  0  0  0  0
  181.7470  171.7630  135.1300 O   0  0  0  0  0  1  0  0  0  0  0  0
  183.6970  170.4610  135.9270 C   0  0  0  0  0  2  0  0  0  0  0  0
  187.5670  178.9220  141.8420 C   0  0  0  0  0  2  0  0  0  0  0  0
  187.3520  176.3110  142.4100 O   0  0  0  0  0  0  0  0  0  0  0  0
  186.1920  177.8770  143.8920 O   0  0  0  0  0  0  0  0  0  0  0  0
  187.4390  177.6480  143.0880 S   0  0  0  0  0  0  0  0  0  0  0  0
  188.8810  177.6850  144.1510 C   0  0  2  0  0  3  0  0  0  0  0  0
  188.5000  178.3740  145.4500 C   0  0  0  0  0  1  0  0  0  0  0  0
  191.9270  177.9260  145.2450 N   0  0  0  0  0  2  0  0  0  0  0  0
  192.0310  176.1210  143.2550 O   0  0  0  0  0  0  0  0  0  0  0  0
  191.4900  180.0520  144.4280 O   0  0  0  0  0  0  0  0  0  0  0  0
  190.6290  177.7740  142.2050 C   0  0  0  0  0  2  0  0  0  0  0  0
  190.5070  176.4950  146.4490 O   0  0  0  0  0  1  0  0  0  0  0  0
  191.3970  175.6280  144.3970 C   0  0  0  0  0  2  0  0  0  0  0  0
  191.1730  178.8350  144.4240 C   0  0  0  0  0  0  0  0  0  0  0  0
  190.9860  176.2970  142.3460 C   0  0  0  0  0  2  0  0  0  0  0  0
  191.6160  176.5420  145.5990 C   0  0  1  0  0  3  0  0  0  0  0  0
  190.0730  178.4050  143.4890 C   0  0  2  0  0  3  0  0  0  0  0  0
  1 12  2  0  0  0  0
  1 37  1  0  0  0  0
  2 15  1  0  0  0  0
  2  3  1  0  0  0  0
  3  9  1  0  0  0  0
  4 10  1  6  0  0  0
  4 15  1  0  0  0  0
  5 13  1  0  0  0  0
  6  5  2  0  0  0  0
  7  1  1  0  0  0  0
  8 20  1  6  0  0  0
  8 18  1  0  0  0  0
  9  7  1  0  0  0  0
 10  8  1  0  0  0  0
 11 31  1  1  0  0  0
 11  4  1  0  0  0  0
 13 12  1  0  0  0  0
 14 11  1  0  0  0  0
 14 16  1  0  0  0  0
 15 16  1  6  0  0  0
 16 17  2  0  0  0  0
 18  6  1  0  0  0  0
 19  2  2  0  0  0  0
 21 20  2  0  0  0  0
 22 20  2  0  0  0  0
 23 25  1  0  0  0  0
 23 24  1  0  0  0  0
 24 26  1  6  0  0  0
 25 20  1  6  0  0  0
 25 24  1  0  0  0  0
 26 30  1  0  0  0  0
 27 26  2  0  0  0  0
 29 30  1  0  0  0  0
 30 28  1  0  0  0  0
 32 34  1  0  0  0  0
 32 31  1  0  0  0  0
 34 36  1  0  0  0  0
 34 33  1  0  0  0  0
 35 34  1  0  0  0  0
 36 33  1  0  0  0  0
 37 40  1  0  0  0  0
 38 40  2  0  0  0  0
 40 39  2  0  0  0  0
 40 41  1  0  0  0  0
 41 42  1  1  0  0  0
 43 51  1  0  0  0  0
 44 48  1  0  0  0  0
 46 50  1  0  0  0  0
 46 52  1  0  0  0  0
 48 51  1  0  0  0  0
 49 45  2  0  0  0  0
 49 43  1  0  0  0  0
 50 44  1  0  0  0  0
 51 47  1  1  0  0  0
 52 41  1  1  0  0  0
 52 49  1  0  0  0  0
M  END
>  <MODEL>
2

>  <REMARK>
 VINA RESULT:      -6.1      4.815     10.989
  Name = 
  11 active torsions:
  status: ('A' for Active; 'I' for Inactive)
    1  A    between atoms: S_1  and  C_23
    2  A    between atoms: S_1  and  C_46
    3  A    between atoms: C_3  and  C_47
    4  A    between atoms: C_6  and  C_49
    5  A    between atoms: C_6  and  S_52
    6  A    between atoms: N_9  and  N_15
    7  A    between atoms: N_9  and  C_24
    8  A    between atoms: N_15  and  C_29
    9  A    between atoms: C_17  and  C_34
   10  A    between atoms: C_17  and  C_41
   11  A    between atoms: C_47  and  S_52
                            x       y       z     vdW  Elec       q    Type
                         _______ _______ _______ _____ _____    ______ ____

>  <TORSDO>
F 11

$$$$
=
 OpenBabel11062415133D

 52 56  0  0  1  0  0  0  0  0999 V2000
  186.0830  178.9100  141.1150 C   0  0  0  0  0  0  0  0  0  0  0  0
  187.0390  177.5270  137.0410 C   0  0  0  0  0  0  0  0  0  0  0  0
  187.8260  178.5280  137.8320 C   0  0  0  0  0  2  0  0  0  0  0  0
  185.7870  175.2460  136.9650 C   0  0  1  0  0  3  0  0  0  0  0  0
  183.5300  177.4280  140.2910 C   0  0  0  0  0  3  0  0  0  0  0  0
  183.2840  177.0640  139.0410 C   0  0  0  0  0  3  0  0  0  0  0  0
  186.3770  178.6370  139.7710 O   0  0  0  0  0  0  0  0  0  0  0  0
  183.2920  175.3790  137.1830 C   0  0  1  0  0  3  0  0  0  0  0  0
  187.6990  178.3430  139.3380 C   0  0  0  0  0  2  0  0  0  0  0  0
  184.5390  176.0420  136.6130 C   0  0  0  0  0  2  0  0  0  0  0  0
  186.2660  174.4320  135.7630 C   0  0  1  0  0  3  0  0  0  0  0  0
  184.8510  179.0370  141.5060 N   0  0  0  0  0  0  0  0  0  0  0  0
  183.7110  178.8730  140.6120 C   0  0  0  0  0  2  0  0  0  0  0  0
  187.6780  174.4500  135.8460 O   0  0  0  0  0  0  0  0  0  0  0  0
  187.0060  176.0680  137.4530 C   0  0  1  0  0  3  0  0  0  0  0  0
  188.1150  175.3510  136.7880 C   0  0  0  0  0  0  0  0  0  0  0  0
  189.3330  175.5250  137.0560 O   0  0  0  0  0  0  0  0  0  0  0  0
  183.1530  175.6160  138.6900 C   0  0  0  0  0  2  0  0  0  0  0  0
  186.5500  177.8870  135.9820 O   0  0  0  0  0  0  0  0  0  0  0  0
  181.8460  175.9160  136.2810 S   0  0  0  0  0  0  0  0  0  0  0  0
  180.6230  175.6440  137.1090 O   0  0  0  0  0  0  0  0  0  0  0  0
  181.9400  177.3960  136.0320 O   0  0  0  0  0  0  0  0  0  0  0  0
  182.7080  174.0500  134.6570 O   0  0  0  0  0  0  0  0  0  0  0  0
  181.3980  173.5480  134.7720 C   0  0  2  0  0  3  0  0  0  0  0  0
  181.6900  175.0180  134.7310 C   0  0  1  0  0  3  0  0  0  0  0  0
  181.1910  172.9200  136.1230 C   0  0  0  0  0  0  0  0  0  0  0  0
  180.0750  172.8820  136.6190 O   0  0  0  0  0  0  0  0  0  0  0  0
  181.8300  171.4030  137.8070 F   0  0  0  0  0  0  0  0  0  0  0  0
  183.0040  171.4520  135.8730 F   0  0  0  0  0  0  0  0  0  0  0  0
  182.3210  172.2160  136.7990 C   0  0  0  0  0  3  0  0  0  0  0  0
  185.7810  173.0690  135.8620 N   0  0  0  0  0  2  0  0  0  0  0  0
  186.1490  172.4160  134.6760 N   0  0  0  0  0  2  0  0  0  0  0  0
  187.7800  171.1280  136.0540 C   0  0  0  0  0  2  0  0  0  0  0  0
  186.6720  171.1090  135.0400 C   0  0  0  0  0  0  0  0  0  0  0  0
  185.7720  170.0550  135.1580 O   0  0  0  0  0  1  0  0  0  0  0  0
  188.0730  170.7780  134.5940 C   0  0  0  0  0  2  0  0  0  0  0  0
  187.1750  179.0510  142.1280 C   0  0  0  0  0  2  0  0  0  0  0  0
  187.2340  176.3770  142.3040 O   0  0  0  0  0  0  0  0  0  0  0  0
  186.0510  177.5870  144.0720 O   0  0  0  0  0  0  0  0  0  0  0  0
  187.2520  177.6030  143.1710 S   0  0  0  0  0  0  0  0  0  0  0  0
  188.7580  177.6260  144.1400 C   0  0  2  0  0  3  0  0  0  0  0  0
  188.4430  178.2240  145.5010 C   0  0  0  0  0  1  0  0  0  0  0  0
  191.8470  177.9480  145.0810 N   0  0  0  0  0  2  0  0  0  0  0  0
  191.9150  176.2380  143.0080 O   0  0  0  0  0  0  0  0  0  0  0  0
  191.2820  180.0870  144.3850 O   0  0  0  0  0  0  0  0  0  0  0  0
  190.3910  177.8730  142.1100 C   0  0  0  0  0  2  0  0  0  0  0  0
  190.5550  176.4080  146.2930 O   0  0  0  0  0  1  0  0  0  0  0  0
  191.3640  175.6690  144.1590 C   0  0  0  0  0  2  0  0  0  0  0  0
  191.0140  178.8600  144.3430 C   0  0  0  0  0  0  0  0  0  0  0  0
  190.8140  176.4080  142.1650 C   0  0  0  0  0  2  0  0  0  0  0  0
  191.6120  176.5380  145.3880 C   0  0  1  0  0  3  0  0  0  0  0  0
  189.8820  178.4240  143.4490 C   0  0  2  0  0  3  0  0  0  0  0  0
  1 12  2  0  0  0  0
  1 37  1  0  0  0  0
  2 15  1  0  0  0  0
  2  3  1  0  0  0  0
  3  9  1  0  0  0  0
  4 10  1  6  0  0  0
  4 15  1  0  0  0  0
  5 13  1  0  0  0  0
  6  5  2  0  0  0  0
  7  1  1  0  0  0  0
  8 20  1  6  0  0  0
  8 18  1  0  0  0  0
  9  7  1  0  0  0  0
 10  8  1  0  0  0  0
 11 14  1  0  0  0  0
 11 31  1  1  0  0  0
 11  4  1  0  0  0  0
 13 12  1  0  0  0  0
 14 16  1  0  0  0  0
 15 16  1  6  0  0  0
 16 17  2  0  0  0  0
 18  6  1  0  0  0  0
 19  2  2  0  0  0  0
 20 21  2  0  0  0  0
 22 20  2  0  0  0  0
 23 25  1  0  0  0  0
 23 24  1  0  0  0  0
 24 26  1  1  0  0  0
 25 24  1  0  0  0  0
 25 20  1  1  0  0  0
 26 27  2  0  0  0  0
 26 30  1  0  0  0  0
 29 30  1  0  0  0  0
 30 28  1  0  0  0  0
 32 34  1  0  0  0  0
 32 31  1  0  0  0  0
 34 35  1  0  0  0  0
 34 33  1  0  0  0  0
 36 34  1  0  0  0  0
 36 33  1  0  0  0  0
 37 40  1  0  0  0  0
 38 40  2  0  0  0  0
 40 39  2  0  0  0  0
 40 41  1  0  0  0  0
 41 42  1  1  0  0  0
 43 51  1  0  0  0  0
 44 48  1  0  0  0  0
 46 50  1  0  0  0  0
 46 52  1  0  0  0  0
 48 51  1  0  0  0  0
 49 45  2  0  0  0  0
 49 43  1  0  0  0  0
 50 44  1  0  0  0  0
 51 47  1  1  0  0  0
 52 41  1  1  0  0  0
 52 49  1  0  0  0  0
M  END
>  <MODEL>
3

>  <REMARK>
 VINA RESULT:      -6.1      4.383     10.376
  Name = 
  11 active torsions:
  status: ('A' for Active; 'I' for Inactive)
    1  A    between atoms: S_1  and  C_23
    2  A    between atoms: S_1  and  C_46
    3  A    between atoms: C_3  and  C_47
    4  A    between atoms: C_6  and  C_49
    5  A    between atoms: C_6  and  S_52
    6  A    between atoms: N_9  and  N_15
    7  A    between atoms: N_9  and  C_24
    8  A    between atoms: N_15  and  C_29
    9  A    between atoms: C_17  and  C_34
   10  A    between atoms: C_17  and  C_41
   11  A    between atoms: C_47  and  S_52
                            x       y       z     vdW  Elec       q    Type
                         _______ _______ _______ _____ _____    ______ ____

>  <TORSDO>
F 11

$$$$
=
 OpenBabel11062415133D

 52 56  0  0  1  0  0  0  0  0999 V2000
  186.1980  178.8600  141.0500 C   0  0  0  0  0  0  0  0  0  0  0  0
  186.8090  177.3370  136.9600 C   0  0  0  0  0  0  0  0  0  0  0  0
  187.7010  178.3070  137.6740 C   0  0  0  0  0  2  0  0  0  0  0  0
  185.4290  175.1310  137.0210 C   0  0  1  0  0  3  0  0  0  0  0  0
  183.5170  177.5120  140.4270 C   0  0  0  0  0  3  0  0  0  0  0  0
  183.1710  177.1360  139.2040 C   0  0  0  0  0  3  0  0  0  0  0  0
  186.3890  178.5420  139.6980 O   0  0  0  0  0  0  0  0  0  0  0  0
  182.9650  175.4130  137.3920 C   0  0  1  0  0  3  0  0  0  0  0  0
  187.6610  178.1630  139.1900 C   0  0  0  0  0  2  0  0  0  0  0  0
  184.2080  175.9900  136.7290 C   0  0  0  0  0  2  0  0  0  0  0  0
  185.7820  174.2650  135.8120 C   0  0  1  0  0  3  0  0  0  0  0  0
  185.0030  179.0670  141.5150 N   0  0  0  0  0  0  0  0  0  0  0  0
  183.8000  178.9500  140.6990 C   0  0  0  0  0  2  0  0  0  0  0  0
  187.1960  174.2020  135.8050 O   0  0  0  0  0  0  0  0  0  0  0  0
  186.7210  175.8910  137.4100 C   0  0  1  0  0  3  0  0  0  0  0  0
  187.7430  175.0970  136.6950 C   0  0  0  0  0  0  0  0  0  0  0  0
  188.9830  175.2060  136.8810 O   0  0  0  0  0  0  0  0  0  0  0  0
  182.9360  175.6900  138.8990 C   0  0  0  0  0  2  0  0  0  0  0  0
  186.2750  177.7020  135.9250 O   0  0  0  0  0  0  0  0  0  0  0  0
  181.4950  176.0130  136.5710 S   0  0  0  0  0  0  0  0  0  0  0  0
  180.9510  174.9300  135.6860 O   0  0  0  0  0  0  0  0  0  0  0  0
  180.4580  176.3600  137.6040 O   0  0  0  0  0  0  0  0  0  0  0  0
  180.7510  177.7620  134.7660 O   0  0  0  0  0  0  0  0  0  0  0  0
  181.0990  178.7070  135.7500 C   0  0  2  0  0  3  0  0  0  0  0  0
  181.8760  177.4420  135.5470 C   0  0  1  0  0  3  0  0  0  0  0  0
  180.0750  178.7220  136.8520 C   0  0  0  0  0  0  0  0  0  0  0  0
  179.0410  178.0820  136.7380 O   0  0  0  0  0  0  0  0  0  0  0  0
  180.1220  178.5420  139.1990 F   0  0  0  0  0  0  0  0  0  0  0  0
  181.7110  179.7770  138.1620 F   0  0  0  0  0  0  0  0  0  0  0  0
  180.3820  179.4020  138.1450 C   0  0  0  0  0  3  0  0  0  0  0  0
  185.2290  172.9340  135.9760 N   0  0  0  0  0  2  0  0  0  0  0  0
  184.2130  172.7930  135.0190 N   0  0  0  0  0  2  0  0  0  0  0  0
  183.2460  171.7170  137.0500 C   0  0  0  0  0  2  0  0  0  0  0  0
  183.2330  171.8630  135.5550 C   0  0  0  0  0  0  0  0  0  0  0  0
  181.9750  171.8260  134.9630 O   0  0  0  0  0  1  0  0  0  0  0  0
  183.7530  170.5830  136.1570 C   0  0  0  0  0  2  0  0  0  0  0  0
  187.3590  178.9600  141.9890 C   0  0  0  0  0  2  0  0  0  0  0  0
  187.3140  176.3070  142.3650 O   0  0  0  0  0  0  0  0  0  0  0  0
  186.1280  177.6880  144.0010 O   0  0  0  0  0  0  0  0  0  0  0  0
  187.3530  177.5930  143.1380 S   0  0  0  0  0  0  0  0  0  0  0  0
  188.8320  177.6370  144.1490 C   0  0  2  0  0  3  0  0  0  0  0  0
  188.4860  178.2950  145.4740 C   0  0  0  0  0  1  0  0  0  0  0  0
  191.9000  177.9510  145.1590 N   0  0  0  0  0  2  0  0  0  0  0  0
  191.9950  176.1610  143.1550 O   0  0  0  0  0  0  0  0  0  0  0  0
  191.3860  180.0690  144.3670 O   0  0  0  0  0  0  0  0  0  0  0  0
  190.5210  177.7820  142.1560 C   0  0  0  0  0  2  0  0  0  0  0  0
  190.5520  176.4770  146.3930 O   0  0  0  0  0  1  0  0  0  0  0  0
  191.4060  175.6450  144.3120 C   0  0  0  0  0  2  0  0  0  0  0  0
  191.1000  178.8450  144.3650 C   0  0  0  0  0  0  0  0  0  0  0  0
  190.9200  176.3150  142.2770 C   0  0  0  0  0  2  0  0  0  0  0  0
  191.6350  176.5570  145.5130 C   0  0  1  0  0  3  0  0  0  0  0  0
  189.9850  178.3920  143.4580 C   0  0  2  0  0  3  0  0  0  0  0  0
  1 12  2  0  0  0  0
  1 37  1  0  0  0  0
  2 15  1  0  0  0  0
  2  3  1  0  0  0  0
  3  9  1  0  0  0  0
  4 10  1  6  0  0  0
  4 15  1  0  0  0  0
  5 13  1  0  0  0  0
  6  5  2  0  0  0  0
  7  1  1  0  0  0  0
  8 20  1  6  0  0  0
  8 18  1  0  0  0  0
  9  7  1  0  0  0  0
 10  8  1  0  0  0  0
 11 31  1  1  0  0  0
 11  4  1  0  0  0  0
 13 12  1  0  0  0  0
 14 11  1  0  0  0  0
 14 16  1  0  0  0  0
 15 16  1  6  0  0  0
 16 17  2  0  0  0  0
 18  6  1  0  0  0  0
 19  2  2  0  0  0  0
 20 22  2  0  0  0  0
 21 20  2  0  0  0  0
 23 25  1  0  0  0  0
 23 24  1  0  0  0  0
 24 26  1  1  0  0  0
 25 24  1  0  0  0  0
 25 20  1  1  0  0  0
 26 30  1  0  0  0  0
 27 26  2  0  0  0  0
 30 29  1  0  0  0  0
 30 28  1  0  0  0  0
 32 34  1  0  0  0  0
 32 31  1  0  0  0  0
 34 36  1  0  0  0  0
 34 33  1  0  0  0  0
 35 34  1  0  0  0  0
 36 33  1  0  0  0  0
 37 40  1  0  0  0  0
 38 40  2  0  0  0  0
 40 39  2  0  0  0  0
 40 41  1  0  0  0  0
 41 42  1  1  0  0  0
 43 51  1  0  0  0  0
 44 48  1  0  0  0  0
 46 50  1  0  0  0  0
 46 52  1  0  0  0  0
 48 51  1  0  0  0  0
 49 45  2  0  0  0  0
 49 43  1  0  0  0  0
 50 44  1  0  0  0  0
 51 47  1  1  0  0  0
 52 41  1  1  0  0  0
 52 49  1  0  0  0  0
M  END
>  <MODEL>
4

>  <REMARK>
 VINA RESULT:      -5.5      4.654     10.838
  Name = 
  11 active torsions:
  status: ('A' for Active; 'I' for Inactive)
    1  A    between atoms: S_1  and  C_23
    2  A    between atoms: S_1  and  C_46
    3  A    between atoms: C_3  and  C_47
    4  A    between atoms: C_6  and  C_49
    5  A    between atoms: C_6  and  S_52
    6  A    between atoms: N_9  and  N_15
    7  A    between atoms: N_9  and  C_24
    8  A    between atoms: N_15  and  C_29
    9  A    between atoms: C_17  and  C_34
   10  A    between atoms: C_17  and  C_41
   11  A    between atoms: C_47  and  S_52
                            x       y       z     vdW  Elec       q    Type
                         _______ _______ _______ _____ _____    ______ ____

>  <TORSDO>
F 11

$$$$
=
 OpenBabel11062415133D

 52 56  0  0  1  0  0  0  0  0999 V2000
  184.9620  176.4800  135.6660 C   0  0  0  0  0  0  0  0  0  0  0  0
  188.1510  178.6170  137.8300 C   0  0  0  0  0  0  0  0  0  0  0  0
  186.9190  179.2420  137.2480 C   0  0  0  0  0  2  0  0  0  0  0  0
  189.2240  176.6850  139.2050 C   0  0  1  0  0  3  0  0  0  0  0  0
  187.1950  174.3870  135.8090 C   0  0  0  0  0  3  0  0  0  0  0  0
  188.4380  174.6880  136.1590 C   0  0  0  0  0  3  0  0  0  0  0  0
  185.9940  177.2570  136.2100 O   0  0  0  0  0  0  0  0  0  0  0  0
  190.2820  174.8580  137.8510 C   0  0  1  0  0  3  0  0  0  0  0  0
  185.7380  178.2840  137.1600 C   0  0  0  0  0  2  0  0  0  0  0  0
  190.0230  176.3550  137.9530 C   0  0  0  0  0  2  0  0  0  0  0  0
  190.1310  177.2620  140.2900 C   0  0  1  0  0  3  0  0  0  0  0  0
  185.2340  175.4610  134.9090 N   0  0  0  0  0  0  0  0  0  0  0  0
  186.5950  175.0350  134.6080 C   0  0  0  0  0  2  0  0  0  0  0  0
  189.3420  178.2340  140.9510 O   0  0  0  0  0  0  0  0  0  0  0  0
  188.0580  177.6890  139.0250 C   0  0  1  0  0  3  0  0  0  0  0  0
  188.1760  178.4830  140.2670 C   0  0  0  0  0  0  0  0  0  0  0  0
  187.3030  179.2940  140.6750 O   0  0  0  0  0  0  0  0  0  0  0  0
  189.0390  174.0900  137.3920 C   0  0  0  0  0  2  0  0  0  0  0  0
  189.2360  178.9890  137.4110 O   0  0  0  0  0  0  0  0  0  0  0  0
  191.6900  174.5500  136.7940 S   0  0  0  0  0  0  0  0  0  0  0  0
  192.7510  173.8400  137.5860 O   0  0  0  0  0  0  0  0  0  0  0  0
  191.2670  173.6670  135.6520 O   0  0  0  0  0  0  0  0  0  0  0  0
  193.5340  176.4070  136.9240 O   0  0  0  0  0  0  0  0  0  0  0  0
  193.7470  176.0840  135.5700 C   0  0  2  0  0  3  0  0  0  0  0  0
  192.3790  176.0940  136.1840 C   0  0  1  0  0  3  0  0  0  0  0  0
  194.4420  174.7560  135.4480 C   0  0  0  0  0  0  0  0  0  0  0  0
  194.0610  173.9370  134.6260 O   0  0  0  0  0  0  0  0  0  0  0  0
  195.5100  173.3690  137.0220 F   0  0  0  0  0  0  0  0  0  0  0  0
  196.7410  174.2920  135.3610 F   0  0  0  0  0  0  0  0  0  0  0  0
  195.6860  174.4910  136.2300 C   0  0  0  0  0  3  0  0  0  0  0  0
  190.5160  176.2200  141.2220 N   0  0  0  0  0  2  0  0  0  0  0  0
  189.5800  176.2390  142.2670 N   0  0  0  0  0  2  0  0  0  0  0  0
  191.6680  177.1340  143.2960 C   0  0  0  0  0  2  0  0  0  0  0  0
  190.3000  176.5480  143.4930 C   0  0  0  0  0  0  0  0  0  0  0  0
  189.5760  177.0650  144.5620 O   0  0  0  0  0  1  0  0  0  0  0  0
  191.5060  175.7050  143.8160 C   0  0  0  0  0  2  0  0  0  0  0  0
  183.5270  176.8000  135.9490 C   0  0  0  0  0  2  0  0  0  0  0  0
  183.8990  175.6460  138.3390 O   0  0  0  0  0  0  0  0  0  0  0  0
  182.6670  174.3620  136.6580 O   0  0  0  0  0  0  0  0  0  0  0  0
  182.8900  175.7320  137.2310 S   0  0  0  0  0  0  0  0  0  0  0  0
  181.3550  176.3960  137.8730 C   0  0  2  0  0  3  0  0  0  0  0  0
  180.2030  175.7670  137.1060 C   0  0  0  0  0  1  0  0  0  0  0  0
  179.1360  178.4010  139.1310 N   0  0  0  0  0  2  0  0  0  0  0  0
  181.3090  178.6850  140.6890 O   0  0  0  0  0  0  0  0  0  0  0  0
  179.5000  179.2780  137.0160 O   0  0  0  0  0  0  0  0  0  0  0  0
  182.3740  178.7140  138.5290 C   0  0  0  0  0  2  0  0  0  0  0  0
  178.9800  176.1510  139.7820 O   0  0  0  0  0  1  0  0  0  0  0  0
  180.6670  177.4580  140.8760 C   0  0  0  0  0  2  0  0  0  0  0  0
  179.9310  178.5440  137.9410 C   0  0  0  0  0  0  0  0  0  0  0  0
  182.4780  178.3450  140.0050 C   0  0  0  0  0  2  0  0  0  0  0  0
  179.2890  177.4410  140.2230 C   0  0  1  0  0  3  0  0  0  0  0  0
  181.2960  177.9320  137.7660 C   0  0  2  0  0  3  0  0  0  0  0  0
  1 37  1  0  0  0  0
  1  7  1  0  0  0  0
  3  2  1  0  0  0  0
  4 10  1  6  0  0  0
  4 11  1  0  0  0  0
  5  6  2  0  0  0  0
  6 18  1  0  0  0  0
  7  9  1  0  0  0  0
  8 20  1  6  0  0  0
  8 10  1  0  0  0  0
  9  3  1  0  0  0  0
 11 14  1  0  0  0  0
 11 31  1  1  0  0  0
 12  1  2  0  0  0  0
 13 12  1  0  0  0  0
 13  5  1  0  0  0  0
 15  2  1  6  0  0  0
 15  4  1  0  0  0  0
 15 16  1  0  0  0  0
 16 17  2  0  0  0  0
 16 14  1  0  0  0  0
 18  8  1  0  0  0  0
 19  2  2  0  0  0  0
 20 21  2  0  0  0  0
 22 20  2  0  0  0  0
 24 26  1  1  0  0  0
 24 25  1  0  0  0  0
 24 23  1  0  0  0  0
 25 20  1  1  0  0  0
 25 23  1  0  0  0  0
 26 30  1  0  0  0  0
 27 26  2  0  0  0  0
 29 30  1  0  0  0  0
 30 28  1  0  0  0  0
 31 32  1  0  0  0  0
 32 34  1  0  0  0  0
 33 34  1  0  0  0  0
 33 36  1  0  0  0  0
 34 36  1  0  0  0  0
 34 35  1  0  0  0  0
 37 40  1  0  0  0  0
 39 40  2  0  0  0  0
 40 41  1  0  0  0  0
 40 38  2  0  0  0  0
 41 42  1  6  0  0  0
 43 51  1  0  0  0  0
 44 48  1  0  0  0  0
 45 49  2  0  0  0  0
 46 50  1  0  0  0  0
 49 43  1  0  0  0  0
 50 44  1  0  0  0  0
 51 47  1  6  0  0  0
 51 48  1  0  0  0  0
 52 41  1  1  0  0  0
 52 49  1  0  0  0  0
 52 46  1  0  0  0  0
M  END
>  <MODEL>
5

>  <REMARK>
 VINA RESULT:      -5.1      2.187      2.828
  Name = 
  11 active torsions:
  status: ('A' for Active; 'I' for Inactive)
    1  A    between atoms: S_1  and  C_23
    2  A    between atoms: S_1  and  C_46
    3  A    between atoms: C_3  and  C_47
    4  A    between atoms: C_6  and  C_49
    5  A    between atoms: C_6  and  S_52
    6  A    between atoms: N_9  and  N_15
    7  A    between atoms: N_9  and  C_24
    8  A    between atoms: N_15  and  C_29
    9  A    between atoms: C_17  and  C_34
   10  A    between atoms: C_17  and  C_41
   11  A    between atoms: C_47  and  S_52
                            x       y       z     vdW  Elec       q    Type
                         _______ _______ _______ _____ _____    ______ ____

>  <TORSDO>
F 11

$$$$
=
 OpenBabel11062415133D

 52 56  0  0  1  0  0  0  0  0999 V2000
  185.2280  175.4760  135.4790 C   0  0  0  0  0  0  0  0  0  0  0  0
  187.8890  178.3200  137.5400 C   0  0  0  0  0  0  0  0  0  0  0  0
  186.5920  178.6630  136.8720 C   0  0  0  0  0  2  0  0  0  0  0  0
  189.2270  176.7300  139.1070 C   0  0  1  0  0  3  0  0  0  0  0  0
  187.7900  173.8400  135.8660 C   0  0  0  0  0  3  0  0  0  0  0  0
  188.9420  174.3870  136.2240 C   0  0  0  0  0  3  0  0  0  0  0  0
  186.0810  176.4680  135.9830 O   0  0  0  0  0  0  0  0  0  0  0  0
  190.6510  175.0230  137.9470 C   0  0  1  0  0  3  0  0  0  0  0  0
  185.6060  177.5040  136.8330 C   0  0  0  0  0  2  0  0  0  0  0  0
  190.1260  176.4510  137.9120 C   0  0  0  0  0  2  0  0  0  0  0  0
  189.9690  177.5470  140.1650 C   0  0  1  0  0  3  0  0  0  0  0  0
  185.7100  174.4660  134.8210 N   0  0  0  0  0  0  0  0  0  0  0  0
  187.1370  174.2700  134.5960 C   0  0  0  0  0  2  0  0  0  0  0  0
  188.9920  178.4090  140.7160 O   0  0  0  0  0  0  0  0  0  0  0  0
  187.9100  177.4890  138.8080 C   0  0  1  0  0  3  0  0  0  0  0  0
  187.8310  178.3880  139.9800 C   0  0  0  0  0  0  0  0  0  0  0  0
  186.8110  179.0580  140.2910 O   0  0  0  0  0  0  0  0  0  0  0  0
  189.5860  174.0080  137.5200 C   0  0  0  0  0  2  0  0  0  0  0  0
  188.9080  178.8480  137.1230 O   0  0  0  0  0  0  0  0  0  0  0  0
  192.1370  174.8900  136.9620 S   0  0  0  0  0  0  0  0  0  0  0  0
  192.0150  175.7910  135.7660 O   0  0  0  0  0  0  0  0  0  0  0  0
  193.3160  175.3360  137.7830 O   0  0  0  0  0  0  0  0  0  0  0  0
  193.3240  173.2010  135.3490 O   0  0  0  0  0  0  0  0  0  0  0  0
  193.7100  172.5590  136.5420 C   0  0  2  0  0  3  0  0  0  0  0  0
  192.3670  173.2050  136.3790 C   0  0  1  0  0  3  0  0  0  0  0  0
  194.7790  173.3510  137.2440 C   0  0  0  0  0  0  0  0  0  0  0  0
  194.7510  173.4790  138.4590 O   0  0  0  0  0  0  0  0  0  0  0  0
  196.7360  174.6580  137.2960 F   0  0  0  0  0  0  0  0  0  0  0  0
  196.6960  172.7960  136.0100 F   0  0  0  0  0  0  0  0  0  0  0  0
  195.9530  173.8630  136.4770 C   0  0  0  0  0  3  0  0  0  0  0  0
  190.4920  176.6690  141.1930 N   0  0  0  0  0  2  0  0  0  0  0  0
  190.9670  177.4890  142.2280 N   0  0  0  0  0  2  0  0  0  0  0  0
  189.8980  175.5810  143.4260 C   0  0  0  0  0  2  0  0  0  0  0  0
  190.8560  176.7370  143.4680 C   0  0  0  0  0  0  0  0  0  0  0  0
  192.0140  176.5270  144.2100 O   0  0  0  0  0  1  0  0  0  0  0  0
  189.5570  176.8410  144.2240 C   0  0  0  0  0  2  0  0  0  0  0  0
  183.7480  175.5530  135.6920 C   0  0  0  0  0  2  0  0  0  0  0  0
  184.5440  174.5440  138.0430 O   0  0  0  0  0  0  0  0  0  0  0  0
  182.6360  173.4650  136.9530 O   0  0  0  0  0  0  0  0  0  0  0  0
  183.2990  174.7820  137.2390 S   0  0  0  0  0  0  0  0  0  0  0  0
  182.1920  175.8500  138.1560 C   0  0  2  0  0  3  0  0  0  0  0  0
  182.7050  175.9610  139.5820 C   0  0  0  0  0  1  0  0  0  0  0  0
  179.5000  177.4210  139.0610 N   0  0  0  0  0  2  0  0  0  0  0  0
  179.4320  177.3920  136.3740 O   0  0  0  0  0  0  0  0  0  0  0  0
  179.1870  175.2950  139.9310 O   0  0  0  0  0  0  0  0  0  0  0  0
  180.1000  175.1130  136.7680 C   0  0  0  0  0  2  0  0  0  0  0  0
  181.4660  178.7020  138.9840 O   0  0  0  0  0  1  0  0  0  0  0  0
  180.4050  178.2580  136.8790 C   0  0  0  0  0  2  0  0  0  0  0  0
  179.7980  176.0140  139.1010 C   0  0  0  0  0  0  0  0  0  0  0  0
  180.1740  176.3300  135.8520 C   0  0  0  0  0  2  0  0  0  0  0  0
  180.2260  178.4900  138.3760 C   0  0  1  0  0  3  0  0  0  0  0  0
  180.7410  175.3300  138.1450 C   0  0  2  0  0  3  0  0  0  0  0  0
  1 37  1  0  0  0  0
  1  7  1  0  0  0  0
  3  2  1  0  0  0  0
  4 10  1  6  0  0  0
  4 11  1  0  0  0  0
  5  6  2  0  0  0  0
  6 18  1  0  0  0  0
  7  9  1  0  0  0  0
  8 20  1  6  0  0  0
  9  3  1  0  0  0  0
 10  8  1  0  0  0  0
 11 14  1  0  0  0  0
 11 31  1  1  0  0  0
 12  1  2  0  0  0  0
 13 12  1  0  0  0  0
 13  5  1  0  0  0  0
 15  2  1  6  0  0  0
 15  4  1  0  0  0  0
 15 16  1  0  0  0  0
 16 17  2  0  0  0  0
 16 14  1  0  0  0  0
 18  8  1  0  0  0  0
 19  2  2  0  0  0  0
 20 22  2  0  0  0  0
 21 20  2  0  0  0  0
 23 25  1  0  0  0  0
 23 24  1  0  0  0  0
 24 26  1  1  0  0  0
 25 24  1  0  0  0  0
 25 20  1  1  0  0  0
 26 27  2  0  0  0  0
 29 30  1  0  0  0  0
 30 26  1  0  0  0  0
 30 28  1  0  0  0  0
 31 32  1  0  0  0  0
 32 34  1  0  0  0  0
 33 34  1  0  0  0  0
 33 36  1  0  0  0  0
 34 35  1  0  0  0  0
 34 36  1  0  0  0  0
 37 40  1  0  0  0  0
 39 40  2  0  0  0  0
 40 38  2  0  0  0  0
 40 41  1  0  0  0  0
 41 42  1  1  0  0  0
 43 49  1  0  0  0  0
 44 48  1  0  0  0  0
 46 52  1  0  0  0  0
 48 51  1  0  0  0  0
 49 45  2  0  0  0  0
 50 44  1  0  0  0  0
 50 46  1  0  0  0  0
 51 47  1  1  0  0  0
 51 43  1  0  0  0  0
 52 41  1  6  0  0  0
 52 49  1  0  0  0  0
M  END
>  <MODEL>
6

>  <REMARK>
 VINA RESULT:      -5.1      1.748      2.421
  Name = 
  11 active torsions:
  status: ('A' for Active; 'I' for Inactive)
    1  A    between atoms: S_1  and  C_23
    2  A    between atoms: S_1  and  C_46
    3  A    between atoms: C_3  and  C_47
    4  A    between atoms: C_6  and  C_49
    5  A    between atoms: C_6  and  S_52
    6  A    between atoms: N_9  and  N_15
    7  A    between atoms: N_9  and  C_24
    8  A    between atoms: N_15  and  C_29
    9  A    between atoms: C_17  and  C_34
   10  A    between atoms: C_17  and  C_41
   11  A    between atoms: C_47  and  S_52
                            x       y       z     vdW  Elec       q    Type
                         _______ _______ _______ _____ _____    ______ ____

>  <TORSDO>
F 11

$$$$
=
 OpenBabel11062415133D

 52 56  0  0  1  0  0  0  0  0999 V2000
  187.1930  178.5010  141.1730 C   0  0  0  0  0  0  0  0  0  0  0  0
  186.7640  177.9140  136.8270 C   0  0  0  0  0  0  0  0  0  0  0  0
  188.0070  178.3720  137.5290 C   0  0  0  0  0  2  0  0  0  0  0  0
  184.7480  176.2710  136.7260 C   0  0  1  0  0  3  0  0  0  0  0  0
  184.1630  178.2020  140.8320 C   0  0  0  0  0  3  0  0  0  0  0  0
  183.5660  178.2560  139.6500 C   0  0  0  0  0  3  0  0  0  0  0  0
  187.1030  178.4820  139.7750 O   0  0  0  0  0  0  0  0  0  0  0  0
  182.5810  177.1690  137.6140 C   0  0  1  0  0  3  0  0  0  0  0  0
  188.1060  177.8800  138.9670 C   0  0  0  0  0  2  0  0  0  0  0  0
  183.8550  177.4960  136.8470 C   0  0  0  0  0  2  0  0  0  0  0  0
  184.6450  175.6620  135.3290 C   0  0  1  0  0  3  0  0  0  0  0  0
  186.2010  178.9320  141.8910 N   0  0  0  0  0  0  0  0  0  0  0  0
  184.9380  179.3790  141.3160 C   0  0  0  0  0  2  0  0  0  0  0  0
  185.9450  175.1880  135.0370 O   0  0  0  0  0  0  0  0  0  0  0  0
  186.2560  176.4960  136.9980 C   0  0  1  0  0  3  0  0  0  0  0  0
  186.8620  175.6340  135.9600 C   0  0  0  0  0  0  0  0  0  0  0  0
  188.0810  175.3220  135.9200 O   0  0  0  0  0  0  0  0  0  0  0  0
  182.8290  177.0650  139.1230 C   0  0  0  0  0  2  0  0  0  0  0  0
  186.2600  178.6620  136.0050 O   0  0  0  0  0  0  0  0  0  0  0  0
  181.3060  178.3590  137.2240 S   0  0  0  0  0  0  0  0  0  0  0  0
  181.9020  179.7370  137.2320 O   0  0  0  0  0  0  0  0  0  0  0  0
  180.7690  178.0740  135.8480 O   0  0  0  0  0  0  0  0  0  0  0  0
  180.2550  179.2520  139.4520 O   0  0  0  0  0  0  0  0  0  0  0  0
  179.1330  179.5210  138.6430 C   0  0  2  0  0  3  0  0  0  0  0  0
  179.9880  178.3050  138.4460 C   0  0  1  0  0  3  0  0  0  0  0  0
  179.3970  180.7050  137.7540 C   0  0  0  0  0  0  0  0  0  0  0  0
  179.1020  180.6610  136.5690 O   0  0  0  0  0  0  0  0  0  0  0  0
  179.5520  183.0420  137.5140 F   0  0  0  0  0  0  0  0  0  0  0  0
  179.3130  182.1670  139.5880 F   0  0  0  0  0  0  0  0  0  0  0  0
  179.8870  181.9860  138.3440 C   0  0  0  0  0  3  0  0  0  0  0  0
  183.7050  174.5570  135.3370 N   0  0  0  0  0  2  0  0  0  0  0  0
  183.5080  174.1970  136.6780 N   0  0  0  0  0  2  0  0  0  0  0  0
  185.0890  172.4640  137.5230 C   0  0  0  0  0  2  0  0  0  0  0  0
  183.8110  172.7800  136.8000 C   0  0  0  0  0  0  0  0  0  0  0  0
  182.7570  171.9050  137.0410 O   0  0  0  0  0  1  0  0  0  0  0  0
  184.9820  172.2540  136.0110 C   0  0  0  0  0  2  0  0  0  0  0  0
  188.4270  178.0200  141.8710 C   0  0  0  0  0  2  0  0  0  0  0  0
  187.9080  175.5980  142.8940 O   0  0  0  0  0  0  0  0  0  0  0  0
  186.6570  177.4900  143.8130 O   0  0  0  0  0  0  0  0  0  0  0  0
  187.9950  177.0400  143.3000 S   0  0  0  0  0  0  0  0  0  0  0  0
  189.2440  177.2280  144.5710 C   0  0  2  0  0  3  0  0  0  0  0  0
  188.7520  178.2550  145.5780 C   0  0  0  0  0  1  0  0  0  0  0  0
  192.0670  177.5640  146.1360 N   0  0  0  0  0  2  0  0  0  0  0  0
  192.2960  175.2730  144.7490 O   0  0  0  0  0  0  0  0  0  0  0  0
  192.0260  179.4010  144.7200 O   0  0  0  0  0  0  0  0  0  0  0  0
  191.2940  176.6540  143.0500 C   0  0  0  0  0  2  0  0  0  0  0  0
  190.3070  176.6240  147.3730 O   0  0  0  0  0  1  0  0  0  0  0  0
  191.4240  175.1610  145.8350 C   0  0  0  0  0  2  0  0  0  0  0  0
  191.5740  178.2550  144.9740 C   0  0  0  0  0  0  0  0  0  0  0  0
  191.4470  175.2560  143.6400 C   0  0  0  0  0  2  0  0  0  0  0  0
  191.5410  176.3580  146.7730 C   0  0  1  0  0  3  0  0  0  0  0  0
  190.6060  177.6540  143.9890 C   0  0  2  0  0  3  0  0  0  0  0  0
  1 37  1  0  0  0  0
  1 12  2  0  0  0  0
  2 15  1  0  0  0  0
  2  3  1  0  0  0  0
  3  9  1  0  0  0  0
  4 10  1  6  0  0  0
  4 15  1  0  0  0  0
  5 13  1  0  0  0  0
  6  5  2  0  0  0  0
  7  1  1  0  0  0  0
  8 20  1  1  0  0  0
  8 18  1  0  0  0  0
  9  7  1  0  0  0  0
 10  8  1  0  0  0  0
 11 31  1  1  0  0  0
 11  4  1  0  0  0  0
 13 12  1  0  0  0  0
 14 11  1  0  0  0  0
 14 16  1  0  0  0  0
 15 16  1  6  0  0  0
 17 16  2  0  0  0  0
 18  6  1  0  0  0  0
 19  2  2  0  0  0  0
 20 21  2  0  0  0  0
 22 20  2  0  0  0  0
 24 26  1  6  0  0  0
 24 23  1  0  0  0  0
 25 20  1  6  0  0  0
 25 24  1  0  0  0  0
 25 23  1  0  0  0  0
 26 30  1  0  0  0  0
 27 26  2  0  0  0  0
 28 30  1  0  0  0  0
 30 29  1  0  0  0  0
 31 32  1  0  0  0  0
 32 34  1  0  0  0  0
 34 35  1  0  0  0  0
 34 33  1  0  0  0  0
 36 34  1  0  0  0  0
 36 33  1  0  0  0  0
 37 40  1  0  0  0  0
 38 40  2  0  0  0  0
 40 39  2  0  0  0  0
 40 41  1  0  0  0  0
 41 42  1  1  0  0  0
 43 51  1  0  0  0  0
 44 48  1  0  0  0  0
 45 49  2  0  0  0  0
 46 50  1  0  0  0  0
 46 52  1  0  0  0  0
 48 51  1  0  0  0  0
 49 43  1  0  0  0  0
 50 44  1  0  0  0  0
 51 47  1  6  0  0  0
 52 41  1  1  0  0  0
 52 49  1  0  0  0  0
M  END
>  <MODEL>
7

>  <REMARK>
 VINA RESULT:      -5.1      5.306     11.289
  Name = 
  11 active torsions:
  status: ('A' for Active; 'I' for Inactive)
    1  A    between atoms: S_1  and  C_23
    2  A    between atoms: S_1  and  C_46
    3  A    between atoms: C_3  and  C_47
    4  A    between atoms: C_6  and  C_49
    5  A    between atoms: C_6  and  S_52
    6  A    between atoms: N_9  and  N_15
    7  A    between atoms: N_9  and  C_24
    8  A    between atoms: N_15  and  C_29
    9  A    between atoms: C_17  and  C_34
   10  A    between atoms: C_17  and  C_41
   11  A    between atoms: C_47  and  S_52
                            x       y       z     vdW  Elec       q    Type
                         _______ _______ _______ _____ _____    ______ ____

>  <TORSDO>
F 11

$$$$
=
 OpenBabel11062415133D

 52 56  0  0  1  0  0  0  0  0999 V2000
  185.7300  177.8860  142.8100 C   0  0  0  0  0  0  0  0  0  0  0  0
  186.2870  178.3520  138.4630 C   0  0  0  0  0  0  0  0  0  0  0  0
  187.3840  178.2900  139.4840 C   0  0  0  0  0  2  0  0  0  0  0  0
  184.0450  177.3930  137.5520 C   0  0  1  0  0  3  0  0  0  0  0  0
  182.8960  178.5200  141.8330 C   0  0  0  0  0  3  0  0  0  0  0  0
  182.6430  178.9810  140.6170 C   0  0  0  0  0  3  0  0  0  0  0  0
  185.9920  178.1820  141.4650 O   0  0  0  0  0  0  0  0  0  0  0  0
  181.9840  178.6570  138.2180 C   0  0  1  0  0  3  0  0  0  0  0  0
  187.0050  177.5040  140.7320 C   0  0  0  0  0  2  0  0  0  0  0  0
  183.4500  178.7670  137.8210 C   0  0  0  0  0  2  0  0  0  0  0  0
  184.1630  177.1390  136.0490 C   0  0  1  0  0  3  0  0  0  0  0  0
  184.7120  178.4190  143.4140 N   0  0  0  0  0  0  0  0  0  0  0  0
  183.7680  179.3090  142.7490 C   0  0  0  0  0  2  0  0  0  0  0  0
  185.3550  176.3920  135.8940 O   0  0  0  0  0  0  0  0  0  0  0  0
  185.4470  177.1270  138.1540 C   0  0  1  0  0  3  0  0  0  0  0  0
  186.0860  176.3650  137.0590 C   0  0  0  0  0  0  0  0  0  0  0  0
  187.1740  175.7410  137.1700 O   0  0  0  0  0  0  0  0  0  0  0  0
  181.8150  178.1790  139.6640 C   0  0  0  0  0  2  0  0  0  0  0  0
  186.1870  179.3630  137.7880 O   0  0  0  0  0  0  0  0  0  0  0  0
  181.1490  180.2090  137.9210 S   0  0  0  0  0  0  0  0  0  0  0  0
  179.8920  180.2540  138.7410 O   0  0  0  0  0  0  0  0  0  0  0  0
  182.0440  181.3410  138.3460 O   0  0  0  0  0  0  0  0  0  0  0  0
  179.3210  180.6310  136.0920 O   0  0  0  0  0  0  0  0  0  0  0  0
  180.1700  181.6820  135.6950 C   0  0  2  0  0  3  0  0  0  0  0  0
  180.7000  180.3690  136.1880 C   0  0  1  0  0  3  0  0  0  0  0  0
  180.1030  182.8160  136.6810 C   0  0  0  0  0  0  0  0  0  0  0  0
  179.2400  182.8260  137.5460 O   0  0  0  0  0  0  0  0  0  0  0  0
  181.1820  184.5350  135.4880 F   0  0  0  0  0  0  0  0  0  0  0  0
  180.9370  184.7430  137.7290 F   0  0  0  0  0  0  0  0  0  0  0  0
  181.1720  183.8570  136.6950 C   0  0  0  0  0  3  0  0  0  0  0  0
  183.0290  176.3630  135.5870 N   0  0  0  0  0  2  0  0  0  0  0  0
  182.6600  175.5110  136.6390 N   0  0  0  0  0  2  0  0  0  0  0  0
  182.2840  173.0830  137.0660 C   0  0  0  0  0  2  0  0  0  0  0  0
  182.9000  174.1460  136.2010 C   0  0  0  0  0  0  0  0  0  0  0  0
  182.8850  173.8850  134.8350 O   0  0  0  0  0  1  0  0  0  0  0  0
  183.7990  173.2940  137.0590 C   0  0  0  0  0  2  0  0  0  0  0  0
  186.6080  176.9470  143.5770 C   0  0  0  0  0  2  0  0  0  0  0  0
  186.4000  176.8970  146.2480 O   0  0  0  0  0  0  0  0  0  0  0  0
  186.6070  179.0920  145.1840 O   0  0  0  0  0  0  0  0  0  0  0  0
  187.0700  177.6640  145.1460 S   0  0  0  0  0  0  0  0  0  0  0  0
  188.8480  177.5810  145.3570 C   0  0  2  0  0  3  0  0  0  0  0  0
  189.2030  178.2240  146.6870 C   0  0  0  0  0  1  0  0  0  0  0  0
  192.0560  177.8720  144.9630 N   0  0  0  0  0  2  0  0  0  0  0  0
  191.2960  175.9850  143.2050 O   0  0  0  0  0  0  0  0  0  0  0  0
  191.2570  179.9600  144.3480 O   0  0  0  0  0  0  0  0  0  0  0  0
  189.5390  177.5890  142.8330 C   0  0  0  0  0  2  0  0  0  0  0  0
  191.3530  176.4910  146.7270 O   0  0  0  0  0  1  0  0  0  0  0  0
  191.2490  175.5400  144.5280 C   0  0  0  0  0  2  0  0  0  0  0  0
  190.9960  178.7450  144.5320 C   0  0  0  0  0  0  0  0  0  0  0  0
  189.9510  176.1210  142.8540 C   0  0  0  0  0  2  0  0  0  0  0  0
  191.9630  176.5040  145.4700 C   0  0  1  0  0  3  0  0  0  0  0  0
  189.6030  178.2740  144.2050 C   0  0  2  0  0  3  0  0  0  0  0  0
  1 12  2  0  0  0  0
  1 37  1  0  0  0  0
  2  3  1  0  0  0  0
  3  9  1  0  0  0  0
  4 10  1  6  0  0  0
  4 15  1  0  0  0  0
  5 13  1  0  0  0  0
  6  5  2  0  0  0  0
  7  1  1  0  0  0  0
  8 20  1  1  0  0  0
  8 18  1  0  0  0  0
  9  7  1  0  0  0  0
 10  8  1  0  0  0  0
 11 31  1  1  0  0  0
 11  4  1  0  0  0  0
 13 12  1  0  0  0  0
 14 11  1  0  0  0  0
 14 16  1  0  0  0  0
 15 16  1  6  0  0  0
 15  2  1  0  0  0  0
 16 17  2  0  0  0  0
 18  6  1  0  0  0  0
 19  2  2  0  0  0  0
 20 22  2  0  0  0  0
 20 21  2  0  0  0  0
 23 25  1  0  0  0  0
 24 23  1  0  0  0  0
 24 25  1  0  0  0  0
 24 26  1  1  0  0  0
 25 20  1  1  0  0  0
 26 30  1  0  0  0  0
 26 27  2  0  0  0  0
 28 30  1  0  0  0  0
 30 29  1  0  0  0  0
 31 32  1  0  0  0  0
 34 32  1  0  0  0  0
 34 36  1  0  0  0  0
 34 33  1  0  0  0  0
 35 34  1  0  0  0  0
 36 33  1  0  0  0  0
 37 40  1  0  0  0  0
 40 39  2  0  0  0  0
 40 41  1  0  0  0  0
 40 38  2  0  0  0  0
 41 42  1  1  0  0  0
 43 51  1  0  0  0  0
 44 48  1  0  0  0  0
 45 49  2  0  0  0  0
 46 50  1  0  0  0  0
 46 52  1  0  0  0  0
 48 51  1  0  0  0  0
 49 43  1  0  0  0  0
 50 44  1  0  0  0  0
 51 47  1  1  0  0  0
 52 49  1  0  0  0  0
 52 41  1  1  0  0  0
M  END
>  <MODEL>
8

>  <REMARK>
 VINA RESULT:      -4.8      5.561     11.507
  Name = 
  11 active torsions:
  status: ('A' for Active; 'I' for Inactive)
    1  A    between atoms: S_1  and  C_23
    2  A    between atoms: S_1  and  C_46
    3  A    between atoms: C_3  and  C_47
    4  A    between atoms: C_6  and  C_49
    5  A    between atoms: C_6  and  S_52
    6  A    between atoms: N_9  and  N_15
    7  A    between atoms: N_9  and  C_24
    8  A    between atoms: N_15  and  C_29
    9  A    between atoms: C_17  and  C_34
   10  A    between atoms: C_17  and  C_41
   11  A    between atoms: C_47  and  S_52
                            x       y       z     vdW  Elec       q    Type
                         _______ _______ _______ _____ _____    ______ ____

>  <TORSDO>
F 11

$$$$
=
 OpenBabel11062415133D

 52 56  0  0  1  0  0  0  0  0999 V2000
  187.6240  177.2360  138.2730 C   0  0  0  0  0  0  0  0  0  0  0  0
  184.4340  176.7170  135.2760 C   0  0  0  0  0  0  0  0  0  0  0  0
  185.8960  176.4740  135.0490 C   0  0  0  0  0  2  0  0  0  0  0  0
  182.3430  176.4140  136.7970 C   0  0  1  0  0  3  0  0  0  0  0  0
  185.2220  178.5950  139.6050 C   0  0  0  0  0  3  0  0  0  0  0  0
  184.1100  178.8920  138.9470 C   0  0  0  0  0  3  0  0  0  0  0  0
  186.6970  177.1860  137.2220 O   0  0  0  0  0  0  0  0  0  0  0  0
  181.7600  178.3880  138.2290 C   0  0  1  0  0  3  0  0  0  0  0  0
  186.6500  176.0920  136.3150 C   0  0  0  0  0  2  0  0  0  0  0  0
  182.2910  177.9320  136.8770 C   0  0  0  0  0  2  0  0  0  0  0  0
  181.1760  175.8750  135.9710 C   0  0  1  0  0  3  0  0  0  0  0  0
  187.5540  178.1740  139.1680 N   0  0  0  0  0  0  0  0  0  0  0  0
  186.5140  179.1960  139.1700 C   0  0  0  0  0  2  0  0  0  0  0  0
  181.7000  174.7600  135.2770 O   0  0  0  0  0  0  0  0  0  0  0  0
  183.6310  175.8080  136.1860 C   0  0  1  0  0  3  0  0  0  0  0  0
  183.0690  174.6960  135.3890 C   0  0  0  0  0  0  0  0  0  0  0  0
  183.7560  173.7750  134.8730 O   0  0  0  0  0  0  0  0  0  0  0  0
  182.8120  178.2560  139.3350 C   0  0  0  0  0  2  0  0  0  0  0  0
  183.8810  177.5690  134.5990 O   0  0  0  0  0  0  0  0  0  0  0  0
  181.1180  180.0520  138.1080 S   0  0  0  0  0  0  0  0  0  0  0  0
  179.8870  180.1660  138.9590 O   0  0  0  0  0  0  0  0  0  0  0  0
  182.1500  181.0190  138.6200 O   0  0  0  0  0  0  0  0  0  0  0  0
  179.3300  180.8660  136.3740 O   0  0  0  0  0  0  0  0  0  0  0  0
  180.2910  181.8480  136.0650 C   0  0  2  0  0  3  0  0  0  0  0  0
  180.6700  180.4400  136.4100 C   0  0  1  0  0  3  0  0  0  0  0  0
  180.3670  182.8750  137.1610 C   0  0  0  0  0  0  0  0  0  0  0  0
  179.6320  182.7900  138.1340 O   0  0  0  0  0  0  0  0  0  0  0  0
  181.7960  184.1830  135.8230 F   0  0  0  0  0  0  0  0  0  0  0  0
  180.9660  185.0700  137.7330 F   0  0  0  0  0  0  0  0  0  0  0  0
  181.4350  183.9180  137.1330 C   0  0  0  0  0  3  0  0  0  0  0  0
  180.1010  175.4530  136.8480 N   0  0  0  0  0  2  0  0  0  0  0  0
  180.6760  174.6430  137.8390 N   0  0  0  0  0  2  0  0  0  0  0  0
  179.1470  176.0320  139.2350 C   0  0  0  0  0  2  0  0  0  0  0  0
  179.8170  174.7070  139.0100 C   0  0  0  0  0  0  0  0  0  0  0  0
  179.0480  173.5890  139.3180 O   0  0  0  0  0  1  0  0  0  0  0  0
  180.2760  175.5700  140.1570 C   0  0  0  0  0  2  0  0  0  0  0  0
  188.7050  176.2080  138.3940 C   0  0  0  0  0  2  0  0  0  0  0  0
  190.8500  177.2820  139.5910 O   0  0  0  0  0  0  0  0  0  0  0  0
  190.1670  178.2470  137.4480 O   0  0  0  0  0  0  0  0  0  0  0  0
  190.3120  176.9700  138.2250 S   0  0  0  0  0  0  0  0  0  0  0  0
  191.4330  175.8530  137.3840 C   0  0  2  0  0  3  0  0  0  0  0  0
  192.7870  175.9280  138.0690 C   0  0  0  0  0  1  0  0  0  0  0  0
  193.0890  174.2240  135.1190 N   0  0  0  0  0  2  0  0  0  0  0  0
  190.5050  173.6430  134.6590 O   0  0  0  0  0  0  0  0  0  0  0  0
  193.5520  176.4410  134.6180 O   0  0  0  0  0  0  0  0  0  0  0  0
  190.3080  176.0140  135.0270 C   0  0  0  0  0  2  0  0  0  0  0  0
  192.9330  173.1950  137.2230 O   0  0  0  0  0  1  0  0  0  0  0  0
  190.9990  173.0310  135.8140 C   0  0  0  0  0  2  0  0  0  0  0  0
  192.7910  175.6290  135.2040 C   0  0  0  0  0  0  0  0  0  0  0  0
  189.6590  174.6400  135.1490 C   0  0  0  0  0  2  0  0  0  0  0  0
  192.5200  173.1210  135.8900 C   0  0  1  0  0  3  0  0  0  0  0  0
  191.5690  176.1870  135.8850 C   0  0  2  0  0  3  0  0  0  0  0  0
  1 37  1  0  0  0  0
  1 12  2  0  0  0  0
  3  2  1  0  0  0  0
  3  9  1  0  0  0  0
  4 10  1  6  0  0  0
  6 18  1  0  0  0  0
  6  5  2  0  0  0  0
  7  1  1  0  0  0  0
  8 20  1  6  0  0  0
  8 18  1  0  0  0  0
  9  7  1  0  0  0  0
 10  8  1  0  0  0  0
 11  4  1  0  0  0  0
 11 31  1  1  0  0  0
 12 13  1  0  0  0  0
 13  5  1  0  0  0  0
 14 16  1  0  0  0  0
 14 11  1  0  0  0  0
 15  2  1  6  0  0  0
 15  4  1  0  0  0  0
 16 15  1  0  0  0  0
 17 16  2  0  0  0  0
 19  2  2  0  0  0  0
 20 22  2  0  0  0  0
 20 21  2  0  0  0  0
 23 25  1  0  0  0  0
 24 23  1  0  0  0  0
 24 25  1  0  0  0  0
 24 26  1  1  0  0  0
 25 20  1  1  0  0  0
 26 27  2  0  0  0  0
 28 30  1  0  0  0  0
 30 26  1  0  0  0  0
 30 29  1  0  0  0  0
 31 32  1  0  0  0  0
 32 34  1  0  0  0  0
 33 36  1  0  0  0  0
 34 33  1  0  0  0  0
 34 35  1  0  0  0  0
 34 36  1  0  0  0  0
 39 40  2  0  0  0  0
 40 37  1  0  0  0  0
 40 38  2  0  0  0  0
 41 42  1  1  0  0  0
 41 40  1  0  0  0  0
 43 49  1  0  0  0  0
 43 51  1  0  0  0  0
 44 50  1  0  0  0  0
 44 48  1  0  0  0  0
 45 49  2  0  0  0  0
 46 50  1  0  0  0  0
 46 52  1  0  0  0  0
 48 51  1  0  0  0  0
 49 52  1  0  0  0  0
 51 47  1  1  0  0  0
 52 41  1  1  0  0  0
M  END
>  <MODEL>
9

>  <REMARK>
 VINA RESULT:      -4.3      4.648     10.939
  Name = 
  11 active torsions:
  status: ('A' for Active; 'I' for Inactive)
    1  A    between atoms: S_1  and  C_23
    2  A    between atoms: S_1  and  C_46
    3  A    between atoms: C_3  and  C_47
    4  A    between atoms: C_6  and  C_49
    5  A    between atoms: C_6  and  S_52
    6  A    between atoms: N_9  and  N_15
    7  A    between atoms: N_9  and  C_24
    8  A    between atoms: N_15  and  C_29
    9  A    between atoms: C_17  and  C_34
   10  A    between atoms: C_17  and  C_41
   11  A    between atoms: C_47  and  S_52
                            x       y       z     vdW  Elec       q    Type
                         _______ _______ _______ _____ _____    ______ ____

>  <TORSDO>
F 11

$$$$
