=
 OpenBabel11062412543D

 50 55  0  0  1  0  0  0  0  0999 V2000
  188.8010  176.4260  136.6370 N   0  0  0  0  0  2  0  0  0  0  0  0
  192.9740  177.3310  139.2580 C   0  0  0  0  0  3  0  0  0  0  0  0
  190.3490  176.0500  140.8540 O   0  0  0  0  0  0  0  0  0  0  0  0
  187.8420  177.5940  141.2020 C   0  0  0  0  0  3  0  0  0  0  0  0
  189.6600  176.5970  139.7150 C   0  0  2  0  0  3  0  0  0  0  0  0
  191.7790  177.8080  139.3140 N   0  0  0  0  0  0  0  0  0  0  0  0
  191.0280  176.0740  137.6280 C   0  0  2  0  0  3  0  0  0  0  0  0
  189.9370  178.0980  144.0070 C   0  0  1  0  0  3  0  0  0  0  0  0
  190.6410  177.1670  138.6700 C   0  0  1  0  0  3  0  0  0  0  0  0
  188.3640  177.6640  135.9990 C   0  0  2  0  0  3  0  0  0  0  0  0
  193.2290  176.0540  138.5290 C   0  0  0  0  0  2  0  0  0  0  0  0
  191.3490  180.0020  144.3520 O   0  0  0  0  0  0  0  0  0  0  0  0
  192.4560  176.0960  137.2920 N   0  0  0  0  0  2  0  0  0  0  0  0
  191.1980  178.8820  143.7940 C   0  0  0  0  0  0  0  0  0  0  0  0
  188.2600  176.8730  142.4510 C   0  0  0  0  0  2  0  0  0  0  0  0
  188.4630  177.5070  140.0090 C   0  0  0  0  0  0  0  0  0  0  0  0
  189.1960  178.7340  136.3470 O   0  0  0  0  0  1  0  0  0  0  0  0
  190.6480  176.7940  142.0070 C   0  0  0  0  0  0  0  0  0  0  0  0
  186.9200  178.0040  136.3840 C   0  0  2  0  0  3  0  0  0  0  0  0
  192.1830  178.3860  142.9380 O   0  0  0  0  0  0  0  0  0  0  0  0
  186.4590  177.5550  138.1100 S   0  0  0  0  0  0  0  0  0  0  0  0
  190.2090  176.1950  136.3440 C   0  0  1  0  0  3  0  0  0  0  0  0
  192.0750  177.0860  142.3590 C   0  0  0  0  0  2  0  0  0  0  0  0
  187.9020  178.3510  138.9000 C   0  0  0  0  0  2  0  0  0  0  0  0
  189.6600  177.2250  142.7980 C   0  0  0  0  0  0  0  0  0  0  0  0
  190.0070  177.2900  145.3130 C   0  0  0  0  0  0  0  0  0  0  0  0
  191.1220  176.2560  145.3680 C   0  0  0  0  0  2  0  0  0  0  0  0
  191.2400  177.5490  146.1540 C   0  0  0  0  0  2  0  0  0  0  0  0
  187.5910  177.9070  145.8430 C   0  0  0  0  0  0  0  0  0  0  0  0
  187.9550  177.7330  148.0830 C   0  0  0  0  0  0  0  0  0  0  0  0
  187.8740  177.8470  149.3700 N   0  0  0  0  0  2  0  0  0  0  0  0
  187.0960  178.4880  147.1340 C   0  0  2  0  0  3  0  0  0  0  0  0
  188.7010  176.9160  146.0490 C   0  0  2  0  0  3  0  0  0  0  0  0
  187.1690  178.2380  144.7490 O   0  0  0  0  0  0  0  0  0  0  0  0
  188.8650  176.8850  147.4620 O   0  0  0  0  0  0  0  0  0  0  0  0
  185.7550  178.1540  147.3320 O   0  0  0  0  0  0  0  0  0  0  0  0
  185.0460  179.0310  146.5170 C   0  0  0  0  0  1  0  0  0  0  0  0
  185.9510  177.3890  135.4350 C   0  0  0  0  0  0  0  0  0  0  0  0
  184.5460  177.6510  135.5840 N   0  0  0  0  0  2  0  0  0  0  0  0
  186.3580  176.5440  134.5940 O   0  0  0  0  0  0  0  0  0  0  0  0
  183.5210  176.8130  134.9520 C   0  0  0  0  0  2  0  0  0  0  0  0
  182.7660  176.0150  136.0080 C   0  0  0  0  0  2  0  0  0  0  0  0
  183.1860  174.5580  135.9400 C   0  0  0  0  0  2  0  0  0  0  0  0
  183.3200  174.0080  137.3480 C   0  0  0  0  0  2  0  0  0  0  0  0
  184.7090  173.4210  137.5560 C   0  0  1  0  0  3  0  0  0  0  0  0
  184.8280  172.0770  136.8640 C   0  0  0  0  0  1  0  0  0  0  0  0
  185.6790  174.2890  137.0590 O   0  0  0  0  0  1  0  0  0  0  0  0
  190.3370  174.9440  135.4900 C   0  0  0  0  0  2  0  0  0  0  0  0
  188.6850  172.9210  135.3600 C   0  0  0  0  0  1  0  0  0  0  0  0
  189.9680  173.4810  136.5070 S   0  0  0  0  0  0  0  0  0  0  0  0
  2  6  2  0  0  0  0
  3 18  1  0  0  0  0
  4 15  1  0  0  0  0
  5 16  1  1  0  0  0
  5  3  1  0  0  0  0
  7 13  1  6  0  0  0
  7  9  1  0  0  0  0
  8 26  1  1  0  0  0
  9  6  1  1  0  0  0
  9  5  1  0  0  0  0
 10 17  1  1  0  0  0
 10 19  1  0  0  0  0
 10  1  1  0  0  0  0
 11  2  1  0  0  0  0
 13 11  1  0  0  0  0
 14  8  1  0  0  0  0
 14 12  2  0  0  0  0
 15 25  1  0  0  0  0
 16  4  2  0  0  0  0
 18 23  1  0  0  0  0
 18 25  2  0  0  0  0
 19 38  1  6  0  0  0
 19 21  1  0  0  0  0
 20 14  1  0  0  0  0
 21 24  1  0  0  0  0
 22 48  1  1  0  0  0
 22  1  1  0  0  0  0
 22  7  1  0  0  0  0
 23 20  1  0  0  0  0
 24 16  1  0  0  0  0
 25  8  1  0  0  0  0
 26 27  1  0  0  0  0
 26 28  1  0  0  0  0
 27 28  1  0  0  0  0
 29 33  1  0  0  0  0
 29 32  1  0  0  0  0
 30 31  2  0  0  0  0
 32 36  1  1  0  0  0
 32 30  1  0  0  0  0
 33 26  1  6  0  0  0
 33 35  1  0  0  0  0
 34 29  2  0  0  0  0
 35 30  1  0  0  0  0
 37 36  1  0  0  0  0
 38 39  1  0  0  0  0
 40 38  2  0  0  0  0
 41 39  1  0  0  0  0
 41 42  1  0  0  0  0
 43 42  1  0  0  0  0
 43 44  1  0  0  0  0
 44 45  1  0  0  0  0
 45 46  1  6  0  0  0
 47 45  1  0  0  0  0
 48 50  1  0  0  0  0
 49 50  1  0  0  0  0
M  END
>  <MODEL>
1

>  <REMARK>
 VINA RESULT:      -6.8      0.000      0.000
  Name = 
  11 active torsions:
  status: ('A' for Active; 'I' for Inactive)
    1  A    between atoms: C_4  and  C_32
    2  A    between atoms: C_4  and  N_45
    3  A    between atoms: C_5  and  C_16
    4  A    between atoms: C_5  and  C_39
    5  A    between atoms: O_8  and  C_21
    6  A    between atoms: C_12  and  C_30
    7  A    between atoms: C_12  and  C_32
    8  A    between atoms: C_15  and  C_38
    9  A    between atoms: C_25  and  C_30
   10  A    between atoms: S_34  and  C_44
   11  A    between atoms: C_42  and  C_44
                            x       y       z     vdW  Elec       q    Type
                         _______ _______ _______ _____ _____    ______ ____

>  <TORSDO>
F 11

$$$$
=
 OpenBabel11062412543D

 50 55  0  0  1  0  0  0  0  0999 V2000
  188.8720  176.4450  136.7880 N   0  0  0  0  0  2  0  0  0  0  0  0
  193.0070  177.3820  139.4580 C   0  0  0  0  0  3  0  0  0  0  0  0
  190.3770  176.0700  141.0200 O   0  0  0  0  0  0  0  0  0  0  0  0
  187.8520  177.5890  141.3460 C   0  0  0  0  0  3  0  0  0  0  0  0
  189.6960  176.6140  139.8760 C   0  0  2  0  0  3  0  0  0  0  0  0
  191.8070  177.8470  139.5020 N   0  0  0  0  0  0  0  0  0  0  0  0
  191.0920  176.1110  137.8030 C   0  0  2  0  0  3  0  0  0  0  0  0
  189.9110  178.1040  144.1760 C   0  0  1  0  0  3  0  0  0  0  0  0
  190.6820  177.1970  138.8440 C   0  0  1  0  0  3  0  0  0  0  0  0
  188.4310  177.6810  136.1500 C   0  0  2  0  0  3  0  0  0  0  0  0
  193.2830  176.1100  138.7280 C   0  0  0  0  0  2  0  0  0  0  0  0
  191.3000  180.0200  144.5420 O   0  0  0  0  0  0  0  0  0  0  0  0
  192.5230  176.1480  137.4830 N   0  0  0  0  0  2  0  0  0  0  0  0
  191.1660  178.9000  143.9800 C   0  0  0  0  0  0  0  0  0  0  0  0
  188.2620  176.8680  142.5970 C   0  0  0  0  0  2  0  0  0  0  0  0
  188.4860  177.5120  140.1590 C   0  0  0  0  0  0  0  0  0  0  0  0
  189.2480  178.7580  136.5100 O   0  0  0  0  0  1  0  0  0  0  0  0
  190.6560  176.8130  142.1790 C   0  0  0  0  0  0  0  0  0  0  0  0
  186.9790  178.0060  136.5190 C   0  0  2  0  0  3  0  0  0  0  0  0
  192.1650  178.4170  143.1330 O   0  0  0  0  0  0  0  0  0  0  0  0
  186.5040  177.5470  138.2380 S   0  0  0  0  0  0  0  0  0  0  0  0
  190.2860  176.2290  136.5100 C   0  0  1  0  0  3  0  0  0  0  0  0
  192.0760  177.1180  142.5480 C   0  0  0  0  0  2  0  0  0  0  0  0
  187.9300  178.3530  139.0480 C   0  0  0  0  0  2  0  0  0  0  0  0
  189.6560  177.2320  142.9610 C   0  0  0  0  0  0  0  0  0  0  0  0
  189.9740  177.2910  145.4800 C   0  0  0  0  0  0  0  0  0  0  0  0
  191.0820  176.2500  145.5330 C   0  0  0  0  0  2  0  0  0  0  0  0
  191.2070  177.5410  146.3230 C   0  0  0  0  0  2  0  0  0  0  0  0
  187.5520  177.9070  145.9830 C   0  0  0  0  0  0  0  0  0  0  0  0
  187.9010  177.7730  148.2280 C   0  0  0  0  0  0  0  0  0  0  0  0
  187.8110  177.9090  149.5120 N   0  0  0  0  0  2  0  0  0  0  0  0
  187.0450  178.5080  147.2600 C   0  0  2  0  0  3  0  0  0  0  0  0
  188.6650  176.9240  146.2140 C   0  0  2  0  0  3  0  0  0  0  0  0
  187.1350  178.2160  144.8800 O   0  0  0  0  0  0  0  0  0  0  0  0
  188.8190  176.9190  147.6270 O   0  0  0  0  0  0  0  0  0  0  0  0
  185.7040  178.1700  147.4550 O   0  0  0  0  0  0  0  0  0  0  0  0
  185.0230  178.8160  146.4280 C   0  0  0  0  0  1  0  0  0  0  0  0
  186.0270  177.3850  135.5570 C   0  0  0  0  0  0  0  0  0  0  0  0
  184.6150  177.4380  135.8200 N   0  0  0  0  0  2  0  0  0  0  0  0
  186.4730  176.7070  134.5940 O   0  0  0  0  0  0  0  0  0  0  0  0
  183.6580  176.5530  135.1470 C   0  0  0  0  0  2  0  0  0  0  0  0
  182.2820  177.2040  135.0950 C   0  0  0  0  0  2  0  0  0  0  0  0
  182.0270  177.9580  136.3880 C   0  0  0  0  0  2  0  0  0  0  0  0
  181.3130  177.0450  137.3690 C   0  0  0  0  0  2  0  0  0  0  0  0
  181.9830  177.1090  138.7330 C   0  0  1  0  0  3  0  0  0  0  0  0
  182.6840  175.8000  139.0460 C   0  0  0  0  0  1  0  0  0  0  0  0
  182.9070  178.1520  138.7700 O   0  0  0  0  0  1  0  0  0  0  0  0
  190.4350  174.9820  135.6540 C   0  0  0  0  0  2  0  0  0  0  0  0
  188.6800  173.1370  135.0560 C   0  0  0  0  0  1  0  0  0  0  0  0
  189.6700  173.5700  136.5090 S   0  0  0  0  0  0  0  0  0  0  0  0
  2  6  2  0  0  0  0
  3 18  1  0  0  0  0
  4 15  1  0  0  0  0
  5 16  1  1  0  0  0
  5  3  1  0  0  0  0
  7 13  1  6  0  0  0
  7  9  1  0  0  0  0
  8 26  1  1  0  0  0
  9  6  1  1  0  0  0
  9  5  1  0  0  0  0
 10 17  1  1  0  0  0
 10 19  1  0  0  0  0
 10  1  1  0  0  0  0
 11  2  1  0  0  0  0
 13 11  1  0  0  0  0
 14  8  1  0  0  0  0
 14 12  2  0  0  0  0
 15 25  1  0  0  0  0
 16  4  2  0  0  0  0
 18 23  1  0  0  0  0
 18 25  2  0  0  0  0
 19 38  1  6  0  0  0
 19 21  1  0  0  0  0
 20 14  1  0  0  0  0
 21 24  1  0  0  0  0
 22 48  1  1  0  0  0
 22  1  1  0  0  0  0
 22  7  1  0  0  0  0
 23 20  1  0  0  0  0
 24 16  1  0  0  0  0
 25  8  1  0  0  0  0
 26 27  1  0  0  0  0
 26 28  1  0  0  0  0
 27 28  1  0  0  0  0
 29 33  1  0  0  0  0
 29 32  1  0  0  0  0
 30 31  2  0  0  0  0
 32 36  1  1  0  0  0
 32 30  1  0  0  0  0
 33 26  1  6  0  0  0
 33 35  1  0  0  0  0
 34 29  2  0  0  0  0
 35 30  1  0  0  0  0
 37 36  1  0  0  0  0
 38 39  1  0  0  0  0
 40 38  2  0  0  0  0
 41 39  1  0  0  0  0
 42 41  1  0  0  0  0
 42 43  1  0  0  0  0
 43 44  1  0  0  0  0
 44 45  1  0  0  0  0
 45 47  1  0  0  0  0
 45 46  1  6  0  0  0
 48 50  1  0  0  0  0
 49 50  1  0  0  0  0
M  END
>  <MODEL>
2

>  <REMARK>
 VINA RESULT:      -6.7      1.083      1.426
  Name = 
  11 active torsions:
  status: ('A' for Active; 'I' for Inactive)
    1  A    between atoms: C_4  and  C_32
    2  A    between atoms: C_4  and  N_45
    3  A    between atoms: C_5  and  C_16
    4  A    between atoms: C_5  and  C_39
    5  A    between atoms: O_8  and  C_21
    6  A    between atoms: C_12  and  C_30
    7  A    between atoms: C_12  and  C_32
    8  A    between atoms: C_15  and  C_38
    9  A    between atoms: C_25  and  C_30
   10  A    between atoms: S_34  and  C_44
   11  A    between atoms: C_42  and  C_44
                            x       y       z     vdW  Elec       q    Type
                         _______ _______ _______ _____ _____    ______ ____

>  <TORSDO>
F 11

$$$$
=
 OpenBabel11062412543D

 50 55  0  0  1  0  0  0  0  0999 V2000
  186.6610  176.9270  138.7890 N   0  0  0  0  0  2  0  0  0  0  0  0
  189.1280  175.7350  134.5940 C   0  0  0  0  0  3  0  0  0  0  0  0
  190.4400  174.8270  137.5140 O   0  0  0  0  0  0  0  0  0  0  0  0
  191.4210  176.8340  139.4630 C   0  0  0  0  0  3  0  0  0  0  0  0
  189.5750  175.8750  137.9860 C   0  0  2  0  0  3  0  0  0  0  0  0
  189.4110  176.4920  135.5970 N   0  0  0  0  0  0  0  0  0  0  0  0
  187.3350  175.6620  136.7860 C   0  0  2  0  0  3  0  0  0  0  0  0
  194.0890  175.8160  137.3760 C   0  0  1  0  0  3  0  0  0  0  0  0
  188.6860  176.4380  136.8580 C   0  0  1  0  0  3  0  0  0  0  0  0
  186.4640  178.3730  138.8270 C   0  0  2  0  0  3  0  0  0  0  0  0
  188.0280  174.7340  134.7080 C   0  0  0  0  0  2  0  0  0  0  0  0
  194.8960  177.0290  135.4760 O   0  0  0  0  0  0  0  0  0  0  0  0
  186.9220  175.3790  135.4080 N   0  0  0  0  0  2  0  0  0  0  0  0
  194.0360  176.2310  135.9370 C   0  0  0  0  0  0  0  0  0  0  0  0
  192.3580  175.6710  139.3050 C   0  0  0  0  0  2  0  0  0  0  0  0
  190.2170  176.9510  138.8700 C   0  0  0  0  0  0  0  0  0  0  0  0
  187.0610  178.9970  137.7260 O   0  0  0  0  0  1  0  0  0  0  0  0
  191.7410  175.0550  137.0360 C   0  0  0  0  0  0  0  0  0  0  0  0
  187.0360  178.9740  140.1170 C   0  0  2  0  0  3  0  0  0  0  0  0
  193.0010  175.7680  135.1220 O   0  0  0  0  0  0  0  0  0  0  0  0
  188.5710  178.1600  140.7270 S   0  0  0  0  0  0  0  0  0  0  0  0
  186.2120  176.4070  137.5040 C   0  0  1  0  0  3  0  0  0  0  0  0
  192.0630  174.8020  135.5940 C   0  0  0  0  0  2  0  0  0  0  0  0
  189.4620  178.2210  139.1320 C   0  0  0  0  0  2  0  0  0  0  0  0
  192.6940  175.4810  137.8700 C   0  0  0  0  0  0  0  0  0  0  0  0
  195.0780  174.6550  137.5770 C   0  0  0  0  0  0  0  0  0  0  0  0
  195.9430  174.7580  138.8240 C   0  0  0  0  0  2  0  0  0  0  0  0
  194.7880  173.7750  138.7750 C   0  0  0  0  0  2  0  0  0  0  0  0
  195.3470  172.5610  136.1470 C   0  0  0  0  0  0  0  0  0  0  0  0
  197.6150  172.6370  136.3230 C   0  0  0  0  0  0  0  0  0  0  0  0
  198.8730  172.3320  136.3440 N   0  0  0  0  0  2  0  0  0  0  0  0
  196.5280  171.6370  136.1570 C   0  0  2  0  0  3  0  0  0  0  0  0
  195.7410  173.9970  136.3460 C   0  0  2  0  0  3  0  0  0  0  0  0
  194.1950  172.1810  136.0350 O   0  0  0  0  0  0  0  0  0  0  0  0
  197.1580  173.9430  136.4590 O   0  0  0  0  0  0  0  0  0  0  0  0
  196.6520  170.9970  134.9220 O   0  0  0  0  0  0  0  0  0  0  0  0
  196.6290  169.6380  135.2230 C   0  0  0  0  0  1  0  0  0  0  0  0
  186.0170  178.9910  141.2020 C   0  0  0  0  0  0  0  0  0  0  0  0
  186.3850  178.5840  142.5300 N   0  0  0  0  0  2  0  0  0  0  0  0
  184.8140  179.2340  140.9180 O   0  0  0  0  0  0  0  0  0  0  0  0
  185.3890  178.2170  143.5420 C   0  0  0  0  0  2  0  0  0  0  0  0
  186.0600  177.5060  144.7110 C   0  0  0  0  0  2  0  0  0  0  0  0
  187.5150  177.2350  144.3720 C   0  0  0  0  0  2  0  0  0  0  0  0
  188.4010  178.1600  145.1860 C   0  0  0  0  0  2  0  0  0  0  0  0
  189.8190  177.6110  145.2520 C   0  0  1  0  0  3  0  0  0  0  0  0
  190.0010  176.7530  146.4900 C   0  0  0  0  0  1  0  0  0  0  0  0
  190.0970  176.8540  144.1160 O   0  0  0  0  0  1  0  0  0  0  0  0
  185.0100  175.5040  137.7310 C   0  0  0  0  0  2  0  0  0  0  0  0
  182.9930  176.5390  139.0340 C   0  0  0  0  0  1  0  0  0  0  0  0
  183.4910  176.4070  137.2990 S   0  0  0  0  0  0  0  0  0  0  0  0
  1 10  1  0  0  0  0
  2 11  1  0  0  0  0
  2  6  2  0  0  0  0
  5  3  1  6  0  0  0
  5 16  1  0  0  0  0
  7 13  1  6  0  0  0
  7  9  1  0  0  0  0
  7 22  1  0  0  0  0
  8 26  1  6  0  0  0
  8 25  1  0  0  0  0
  9  6  1  6  0  0  0
  9  5  1  0  0  0  0
 10 17  1  6  0  0  0
 10 19  1  0  0  0  0
 11 13  1  0  0  0  0
 12 14  2  0  0  0  0
 14  8  1  0  0  0  0
 15  4  1  0  0  0  0
 16 24  1  0  0  0  0
 16  4  2  0  0  0  0
 18  3  1  0  0  0  0
 18 25  2  0  0  0  0
 19 21  1  0  0  0  0
 19 38  1  1  0  0  0
 20 23  1  0  0  0  0
 20 14  1  0  0  0  0
 22 48  1  1  0  0  0
 22  1  1  0  0  0  0
 23 18  1  0  0  0  0
 24 21  1  0  0  0  0
 25 15  1  0  0  0  0
 26 28  1  0  0  0  0
 26 27  1  0  0  0  0
 28 27  1  0  0  0  0
 29 32  1  0  0  0  0
 29 33  1  0  0  0  0
 30 31  2  0  0  0  0
 30 35  1  0  0  0  0
 32 36  1  6  0  0  0
 32 30  1  0  0  0  0
 33 35  1  0  0  0  0
 33 26  1  1  0  0  0
 34 29  2  0  0  0  0
 36 37  1  0  0  0  0
 38 39  1  0  0  0  0
 39 41  1  0  0  0  0
 40 38  2  0  0  0  0
 41 42  1  0  0  0  0
 43 42  1  0  0  0  0
 43 44  1  0  0  0  0
 44 45  1  0  0  0  0
 45 46  1  1  0  0  0
 47 45  1  0  0  0  0
 50 48  1  0  0  0  0
 50 49  1  0  0  0  0
M  END
>  <MODEL>
3

>  <REMARK>
 VINA RESULT:      -5.9      3.874      9.107
  Name = 
  11 active torsions:
  status: ('A' for Active; 'I' for Inactive)
    1  A    between atoms: C_4  and  C_32
    2  A    between atoms: C_4  and  N_45
    3  A    between atoms: C_5  and  C_16
    4  A    between atoms: C_5  and  C_39
    5  A    between atoms: O_8  and  C_21
    6  A    between atoms: C_12  and  C_30
    7  A    between atoms: C_12  and  C_32
    8  A    between atoms: C_15  and  C_38
    9  A    between atoms: C_25  and  C_30
   10  A    between atoms: S_34  and  C_44
   11  A    between atoms: C_42  and  C_44
                            x       y       z     vdW  Elec       q    Type
                         _______ _______ _______ _____ _____    ______ ____

>  <TORSDO>
F 11

$$$$
=
 OpenBabel11062412543D

 50 55  0  0  1  0  0  0  0  0999 V2000
  184.5030  178.0060  138.5250 N   0  0  0  0  0  2  0  0  0  0  0  0
  189.4620  178.7170  138.4470 C   0  0  0  0  0  3  0  0  0  0  0  0
  188.1830  176.7430  140.8020 O   0  0  0  0  0  0  0  0  0  0  0  0
  186.4200  177.8140  142.9310 C   0  0  0  0  0  3  0  0  0  0  0  0
  186.9910  177.4760  140.4670 C   0  0  2  0  0  3  0  0  0  0  0  0
  188.5450  179.0080  139.3020 N   0  0  0  0  0  0  0  0  0  0  0  0
  186.8730  177.6930  137.9290 C   0  0  2  0  0  3  0  0  0  0  0  0
  189.7720  177.8310  144.0570 C   0  0  1  0  0  3  0  0  0  0  0  0
  187.2140  178.4190  139.2660 C   0  0  1  0  0  3  0  0  0  0  0  0
  183.8410  179.3020  138.6320 C   0  0  2  0  0  3  0  0  0  0  0  0
  189.1850  177.7170  137.3740 C   0  0  0  0  0  2  0  0  0  0  0  0
  191.2160  179.7420  144.0680 O   0  0  0  0  0  0  0  0  0  0  0  0
  187.8430  177.9810  136.8680 N   0  0  0  0  0  2  0  0  0  0  0  0
  190.7150  178.7950  143.4030 C   0  0  0  0  0  0  0  0  0  0  0  0
  187.4450  176.8510  143.4550 C   0  0  0  0  0  2  0  0  0  0  0  0
  186.2310  178.1200  141.6320 C   0  0  0  0  0  0  0  0  0  0  0  0
  184.7720  180.3410  138.7350 O   0  0  0  0  0  1  0  0  0  0  0  0
  189.1300  177.1930  141.7360 C   0  0  0  0  0  0  0  0  0  0  0  0
  182.9030  179.3450  139.8440 C   0  0  2  0  0  3  0  0  0  0  0  0
  190.9980  178.6680  142.0410 O   0  0  0  0  0  0  0  0  0  0  0  0
  183.5040  178.4070  141.3110 S   0  0  0  0  0  0  0  0  0  0  0  0
  185.4700  178.0390  137.4350 C   0  0  1  0  0  3  0  0  0  0  0  0
  190.5110  177.5610  141.2840 C   0  0  0  0  0  2  0  0  0  0  0  0
  185.1760  179.1450  141.3330 C   0  0  0  0  0  2  0  0  0  0  0  0
  188.8040  177.2750  143.0300 C   0  0  0  0  0  0  0  0  0  0  0  0
  190.5440  176.7250  144.7980 C   0  0  0  0  0  0  0  0  0  0  0  0
  190.8900  175.5090  143.9510 C   0  0  0  0  0  2  0  0  0  0  0  0
  191.9660  176.5150  144.3190 C   0  0  0  0  0  2  0  0  0  0  0  0
  189.2260  177.3880  146.8760 C   0  0  0  0  0  0  0  0  0  0  0  0
  191.1210  177.5430  148.1260 C   0  0  0  0  0  0  0  0  0  0  0  0
  191.9910  177.8410  149.0370 N   0  0  0  0  0  2  0  0  0  0  0  0
  189.7650  178.1440  148.0540 C   0  0  2  0  0  3  0  0  0  0  0  0
  190.2390  176.4480  146.2860 C   0  0  2  0  0  3  0  0  0  0  0  0
  188.1060  177.5520  146.4240 O   0  0  0  0  0  0  0  0  0  0  0  0
  191.3810  176.6240  147.1160 O   0  0  0  0  0  0  0  0  0  0  0  0
  189.0400  177.8280  149.2050 O   0  0  0  0  0  0  0  0  0  0  0  0
  187.7320  178.2060  148.9150 C   0  0  0  0  0  1  0  0  0  0  0  0
  181.5350  178.8810  139.4830 C   0  0  0  0  0  0  0  0  0  0  0  0
  181.0860  178.9810  138.1220 N   0  0  0  0  0  2  0  0  0  0  0  0
  180.7400  178.5300  140.3950 O   0  0  0  0  0  0  0  0  0  0  0  0
  179.6680  178.9060  137.7560 C   0  0  0  0  0  2  0  0  0  0  0  0
  179.3590  179.8860  136.6310 C   0  0  0  0  0  2  0  0  0  0  0  0
  180.6110  180.6730  136.2860 C   0  0  0  0  0  2  0  0  0  0  0  0
  180.2170  182.0580  135.8040 C   0  0  0  0  0  2  0  0  0  0  0  0
  180.5630  183.1000  136.8560 C   0  0  1  0  0  3  0  0  0  0  0  0
  181.4590  182.5020  137.9250 C   0  0  0  0  0  1  0  0  0  0  0  0
  181.2040  184.1880  136.2670 O   0  0  0  0  0  1  0  0  0  0  0  0
  185.0180  177.0810  136.3450 C   0  0  0  0  0  2  0  0  0  0  0  0
  185.9640  174.6910  135.8620 C   0  0  0  0  0  1  0  0  0  0  0  0
  184.8120  175.4180  137.0550 S   0  0  0  0  0  0  0  0  0  0  0  0
  1 10  1  0  0  0  0
  2  6  2  0  0  0  0
  3 18  1  0  0  0  0
  4 15  1  0  0  0  0
  5  3  1  1  0  0  0
  5 16  1  0  0  0  0
  7 13  1  6  0  0  0
  7  9  1  0  0  0  0
  8 26  1  6  0  0  0
  9  6  1  6  0  0  0
  9  5  1  0  0  0  0
 10 17  1  1  0  0  0
 10 19  1  0  0  0  0
 11  2  1  0  0  0  0
 13 11  1  0  0  0  0
 14  8  1  0  0  0  0
 14 12  2  0  0  0  0
 16  4  2  0  0  0  0
 18 25  2  0  0  0  0
 19 38  1  6  0  0  0
 19 21  1  0  0  0  0
 20 14  1  0  0  0  0
 21 24  1  0  0  0  0
 22 48  1  6  0  0  0
 22  7  1  0  0  0  0
 22  1  1  0  0  0  0
 23 18  1  0  0  0  0
 23 20  1  0  0  0  0
 24 16  1  0  0  0  0
 25 15  1  0  0  0  0
 25  8  1  0  0  0  0
 27 28  1  0  0  0  0
 27 26  1  0  0  0  0
 28 26  1  0  0  0  0
 29 32  1  0  0  0  0
 30 31  2  0  0  0  0
 32 30  1  0  0  0  0
 32 36  1  1  0  0  0
 33 26  1  6  0  0  0
 33 29  1  0  0  0  0
 33 35  1  0  0  0  0
 34 29  2  0  0  0  0
 35 30  1  0  0  0  0
 37 36  1  0  0  0  0
 38 40  2  0  0  0  0
 39 38  1  0  0  0  0
 41 39  1  0  0  0  0
 42 41  1  0  0  0  0
 43 42  1  0  0  0  0
 44 43  1  0  0  0  0
 44 45  1  0  0  0  0
 45 46  1  1  0  0  0
 47 45  1  0  0  0  0
 48 50  1  0  0  0  0
 49 50  1  0  0  0  0
M  END
>  <MODEL>
4

>  <REMARK>
 VINA RESULT:      -5.8      3.499      4.765
  Name = 
  11 active torsions:
  status: ('A' for Active; 'I' for Inactive)
    1  A    between atoms: C_4  and  C_32
    2  A    between atoms: C_4  and  N_45
    3  A    between atoms: C_5  and  C_16
    4  A    between atoms: C_5  and  C_39
    5  A    between atoms: O_8  and  C_21
    6  A    between atoms: C_12  and  C_30
    7  A    between atoms: C_12  and  C_32
    8  A    between atoms: C_15  and  C_38
    9  A    between atoms: C_25  and  C_30
   10  A    between atoms: S_34  and  C_44
   11  A    between atoms: C_42  and  C_44
                            x       y       z     vdW  Elec       q    Type
                         _______ _______ _______ _____ _____    ______ ____

>  <TORSDO>
F 11

$$$$
=
 OpenBabel11062412543D

 50 55  0  0  1  0  0  0  0  0999 V2000
  190.6680  177.5700  142.0450 N   0  0  0  0  0  2  0  0  0  0  0  0
  188.3930  176.5580  137.6980 C   0  0  0  0  0  3  0  0  0  0  0  0
  187.0170  178.8200  139.7150 O   0  0  0  0  0  0  0  0  0  0  0  0
  185.8940  178.0640  142.3530 C   0  0  0  0  0  3  0  0  0  0  0  0
  187.8250  178.1310  140.6860 C   0  0  2  0  0  3  0  0  0  0  0  0
  188.0460  176.4050  138.9290 N   0  0  0  0  0  0  0  0  0  0  0  0
  190.1110  177.6820  139.6480 C   0  0  2  0  0  3  0  0  0  0  0  0
  183.3400  177.9530  139.9080 C   0  0  1  0  0  3  0  0  0  0  0  0
  188.7300  177.0670  140.0300 C   0  0  1  0  0  3  0  0  0  0  0  0
  190.8080  176.3320  142.8060 C   0  0  2  0  0  3  0  0  0  0  0  0
  189.5260  177.4660  137.3530 C   0  0  0  0  0  2  0  0  0  0  0  0
  182.5530  175.9690  138.8240 O   0  0  0  0  0  0  0  0  0  0  0  0
  190.5820  177.2360  138.3330 N   0  0  0  0  0  2  0  0  0  0  0  0
  183.4260  176.8760  138.8690 C   0  0  0  0  0  0  0  0  0  0  0  0
  185.0090  179.0090  141.5930 C   0  0  0  0  0  2  0  0  0  0  0  0
  187.1130  177.6480  141.9540 C   0  0  0  0  0  0  0  0  0  0  0  0
  190.2250  175.2530  142.1310 O   0  0  0  0  0  1  0  0  0  0  0  0
  185.7260  178.4050  139.3500 C   0  0  0  0  0  0  0  0  0  0  0  0
  190.1700  176.4610  144.1940 C   0  0  2  0  0  3  0  0  0  0  0  0
  184.5050  176.8560  137.9830 O   0  0  0  0  0  0  0  0  0  0  0  0
  188.6470  177.4960  144.2450 S   0  0  0  0  0  0  0  0  0  0  0  0
  191.1800  177.3750  140.6960 C   0  0  1  0  0  3  0  0  0  0  0  0
  185.4640  177.9130  137.9590 C   0  0  0  0  0  2  0  0  0  0  0  0
  187.8100  176.6640  142.8490 C   0  0  0  0  0  2  0  0  0  0  0  0
  184.7290  178.4660  140.2390 C   0  0  0  0  0  0  0  0  0  0  0  0
  182.3900  179.0760  139.4580 C   0  0  0  0  0  0  0  0  0  0  0  0
  183.0740  180.3850  139.0910 C   0  0  0  0  0  2  0  0  0  0  0  0
  182.5270  179.4770  138.0040 C   0  0  0  0  0  2  0  0  0  0  0  0
  181.0380  179.2870  141.6090 C   0  0  0  0  0  0  0  0  0  0  0  0
  179.7330  177.5070  141.0570 C   0  0  0  0  0  0  0  0  0  0  0  0
  178.9370  176.4870  141.0970 N   0  0  0  0  0  2  0  0  0  0  0  0
  180.2590  178.1880  142.2680 C   0  0  2  0  0  3  0  0  0  0  0  0
  180.9950  179.2010  140.1100 C   0  0  2  0  0  3  0  0  0  0  0  0
  181.6710  180.1280  142.2240 O   0  0  0  0  0  0  0  0  0  0  0  0
  180.1780  178.0630  139.8630 O   0  0  0  0  0  0  0  0  0  0  0  0
  179.2050  178.7220  143.0120 O   0  0  0  0  0  0  0  0  0  0  0  0
  179.5780  178.5370  144.3400 C   0  0  0  0  0  1  0  0  0  0  0  0
  191.1500  176.9700  145.1920 C   0  0  0  0  0  0  0  0  0  0  0  0
  191.2500  176.3350  146.4770 N   0  0  0  0  0  2  0  0  0  0  0  0
  191.7870  178.0290  144.9510 O   0  0  0  0  0  0  0  0  0  0  0  0
  191.8960  176.9830  147.6240 C   0  0  0  0  0  2  0  0  0  0  0  0
  190.9110  177.9010  148.3360 C   0  0  0  0  0  2  0  0  0  0  0  0
  189.5010  177.3630  148.1650 C   0  0  0  0  0  2  0  0  0  0  0  0
  188.5030  178.4760  148.4340 C   0  0  0  0  0  2  0  0  0  0  0  0
  187.1310  178.0930  147.9010 C   0  0  1  0  0  3  0  0  0  0  0  0
  186.4190  179.3090  147.3390 C   0  0  0  0  0  1  0  0  0  0  0  0
  187.2500  177.1230  146.9080 O   0  0  0  0  0  1  0  0  0  0  0  0
  192.4070  178.2510  140.5020 C   0  0  0  0  0  2  0  0  0  0  0  0
  193.3700  176.7200  138.6140 C   0  0  0  0  0  1  0  0  0  0  0  0
  193.8720  177.1940  140.2870 S   0  0  0  0  0  0  0  0  0  0  0  0
  1 10  1  0  0  0  0
  2  6  2  0  0  0  0
  5  3  1  6  0  0  0
  5 16  1  0  0  0  0
  7 13  1  6  0  0  0
  7  9  1  0  0  0  0
  7 22  1  0  0  0  0
  8 26  1  6  0  0  0
  8 25  1  0  0  0  0
  9  6  1  6  0  0  0
  9  5  1  0  0  0  0
 10 17  1  6  0  0  0
 10 19  1  0  0  0  0
 11  2  1  0  0  0  0
 11 13  1  0  0  0  0
 12 14  2  0  0  0  0
 14  8  1  0  0  0  0
 15  4  1  0  0  0  0
 16  4  2  0  0  0  0
 16 24  1  0  0  0  0
 18  3  1  0  0  0  0
 18 25  2  0  0  0  0
 19 21  1  0  0  0  0
 19 38  1  1  0  0  0
 20 14  1  0  0  0  0
 22 48  1  6  0  0  0
 22  1  1  0  0  0  0
 23 20  1  0  0  0  0
 23 18  1  0  0  0  0
 24 21  1  0  0  0  0
 25 15  1  0  0  0  0
 27 26  1  0  0  0  0
 28 27  1  0  0  0  0
 28 26  1  0  0  0  0
 29 34  2  0  0  0  0
 29 32  1  0  0  0  0
 30 31  2  0  0  0  0
 30 32  1  0  0  0  0
 32 36  1  1  0  0  0
 33 26  1  1  0  0  0
 33 29  1  0  0  0  0
 35 33  1  0  0  0  0
 35 30  1  0  0  0  0
 36 37  1  0  0  0  0
 38 39  1  0  0  0  0
 39 41  1  0  0  0  0
 40 38  2  0  0  0  0
 41 42  1  0  0  0  0
 43 42  1  0  0  0  0
 43 44  1  0  0  0  0
 45 46  1  6  0  0  0
 45 44  1  0  0  0  0
 47 45  1  0  0  0  0
 49 50  1  0  0  0  0
 50 48  1  0  0  0  0
M  END
>  <MODEL>
5

>  <REMARK>
 VINA RESULT:      -5.7      3.847      8.750
  Name = 
  11 active torsions:
  status: ('A' for Active; 'I' for Inactive)
    1  A    between atoms: C_4  and  C_32
    2  A    between atoms: C_4  and  N_45
    3  A    between atoms: C_5  and  C_16
    4  A    between atoms: C_5  and  C_39
    5  A    between atoms: O_8  and  C_21
    6  A    between atoms: C_12  and  C_30
    7  A    between atoms: C_12  and  C_32
    8  A    between atoms: C_15  and  C_38
    9  A    between atoms: C_25  and  C_30
   10  A    between atoms: S_34  and  C_44
   11  A    between atoms: C_42  and  C_44
                            x       y       z     vdW  Elec       q    Type
                         _______ _______ _______ _____ _____    ______ ____

>  <TORSDO>
F 11

$$$$
=
 OpenBabel11062412543D

 50 55  0  0  1  0  0  0  0  0999 V2000
  184.5340  178.0690  138.5060 N   0  0  0  0  0  2  0  0  0  0  0  0
  189.5030  178.6950  138.3680 C   0  0  0  0  0  3  0  0  0  0  0  0
  188.2180  176.7470  140.7420 O   0  0  0  0  0  0  0  0  0  0  0  0
  186.4990  177.8510  142.8900 C   0  0  0  0  0  3  0  0  0  0  0  0
  187.0350  177.5000  140.4200 C   0  0  2  0  0  3  0  0  0  0  0  0
  188.6010  179.0030  139.2340 N   0  0  0  0  0  0  0  0  0  0  0  0
  186.8900  177.7140  137.8830 C   0  0  2  0  0  3  0  0  0  0  0  0
  189.8640  177.8130  143.9760 C   0  0  1  0  0  3  0  0  0  0  0  0
  187.2600  178.4360  139.2150 C   0  0  1  0  0  3  0  0  0  0  0  0
  183.8950  179.3770  138.6190 C   0  0  2  0  0  3  0  0  0  0  0  0
  189.1960  177.6990  137.3010 C   0  0  0  0  0  2  0  0  0  0  0  0
  191.3400  179.6980  143.9660 O   0  0  0  0  0  0  0  0  0  0  0  0
  187.8530  177.9850  136.8100 N   0  0  0  0  0  2  0  0  0  0  0  0
  190.8150  178.7600  143.3090 C   0  0  0  0  0  0  0  0  0  0  0  0
  187.5140  176.8720  143.4030 C   0  0  0  0  0  2  0  0  0  0  0  0
  186.2990  178.1590  141.5920 C   0  0  0  0  0  0  0  0  0  0  0  0
  184.8450  180.4000  138.7090 O   0  0  0  0  0  1  0  0  0  0  0  0
  189.1830  177.1820  141.6640 C   0  0  0  0  0  0  0  0  0  0  0  0
  182.9720  179.4370  139.8420 C   0  0  2  0  0  3  0  0  0  0  0  0
  191.0800  178.6260  141.9450 O   0  0  0  0  0  0  0  0  0  0  0  0
  183.5740  178.4920  141.3040 S   0  0  0  0  0  0  0  0  0  0  0  0
  185.4870  178.0840  137.4050 C   0  0  1  0  0  3  0  0  0  0  0  0
  190.5650  177.5260  141.1950 C   0  0  0  0  0  2  0  0  0  0  0  0
  185.2580  179.2010  141.3040 C   0  0  0  0  0  2  0  0  0  0  0  0
  188.8750  177.2720  142.9620 C   0  0  0  0  0  0  0  0  0  0  0  0
  190.6250  176.6950  144.7090 C   0  0  0  0  0  0  0  0  0  0  0  0
  191.0280  175.5150  143.8370 C   0  0  0  0  0  2  0  0  0  0  0  0
  192.0690  176.5260  144.2830 C   0  0  0  0  0  2  0  0  0  0  0  0
  189.1270  177.1800  146.7140 C   0  0  0  0  0  0  0  0  0  0  0  0
  190.9210  177.5090  148.0750 C   0  0  0  0  0  0  0  0  0  0  0  0
  191.7000  177.8800  149.0400 N   0  0  0  0  0  2  0  0  0  0  0  0
  189.5150  177.9670  147.9300 C   0  0  2  0  0  3  0  0  0  0  0  0
  190.2660  176.3610  146.1740 C   0  0  2  0  0  3  0  0  0  0  0  0
  188.0250  177.2350  146.1990 O   0  0  0  0  0  0  0  0  0  0  0  0
  191.3330  176.6400  147.0710 O   0  0  0  0  0  0  0  0  0  0  0  0
  188.7620  177.5570  149.0320 O   0  0  0  0  0  0  0  0  0  0  0  0
  187.5720  178.2710  148.9340 C   0  0  0  0  0  1  0  0  0  0  0  0
  181.5920  178.9960  139.4980 C   0  0  0  0  0  0  0  0  0  0  0  0
  180.6160  178.8400  140.5400 N   0  0  0  0  0  2  0  0  0  0  0  0
  181.3320  178.6400  138.3180 O   0  0  0  0  0  0  0  0  0  0  0  0
  179.3820  178.0700  140.3500 C   0  0  0  0  0  2  0  0  0  0  0  0
  179.3180  176.9190  141.3460 C   0  0  0  0  0  2  0  0  0  0  0  0
  179.2400  175.6010  140.5960 C   0  0  0  0  0  2  0  0  0  0  0  0
  179.4270  175.8580  139.1110 C   0  0  0  0  0  2  0  0  0  0  0  0
  180.6260  175.0810  138.5880 C   0  0  1  0  0  3  0  0  0  0  0  0
  180.8100  175.3210  137.1020 C   0  0  0  0  0  1  0  0  0  0  0  0
  181.7820  175.4600  139.2680 O   0  0  0  0  0  1  0  0  0  0  0  0
  185.0070  177.1320  136.3230 C   0  0  0  0  0  2  0  0  0  0  0  0
  184.4840  174.7250  135.4430 C   0  0  0  0  0  1  0  0  0  0  0  0
  184.6430  175.5110  137.0660 S   0  0  0  0  0  0  0  0  0  0  0  0
  1 10  1  0  0  0  0
  2  6  2  0  0  0  0
  3 18  1  0  0  0  0
  4 15  1  0  0  0  0
  5  3  1  1  0  0  0
  5 16  1  0  0  0  0
  7 13  1  6  0  0  0
  7  9  1  0  0  0  0
  8 26  1  6  0  0  0
  9  6  1  6  0  0  0
  9  5  1  0  0  0  0
 10 17  1  1  0  0  0
 10 19  1  0  0  0  0
 11  2  1  0  0  0  0
 13 11  1  0  0  0  0
 14 12  2  0  0  0  0
 14  8  1  0  0  0  0
 16  4  2  0  0  0  0
 18 25  2  0  0  0  0
 19 38  1  6  0  0  0
 19 21  1  0  0  0  0
 20 14  1  0  0  0  0
 21 24  1  0  0  0  0
 22 48  1  6  0  0  0
 22  7  1  0  0  0  0
 22  1  1  0  0  0  0
 23 18  1  0  0  0  0
 23 20  1  0  0  0  0
 24 16  1  0  0  0  0
 25 15  1  0  0  0  0
 25  8  1  0  0  0  0
 27 28  1  0  0  0  0
 27 26  1  0  0  0  0
 28 26  1  0  0  0  0
 29 32  1  0  0  0  0
 30 31  2  0  0  0  0
 32 30  1  0  0  0  0
 32 36  1  1  0  0  0
 33 26  1  6  0  0  0
 33 29  1  0  0  0  0
 33 35  1  0  0  0  0
 34 29  2  0  0  0  0
 35 30  1  0  0  0  0
 37 36  1  0  0  0  0
 38 39  1  0  0  0  0
 40 38  2  0  0  0  0
 41 39  1  0  0  0  0
 41 42  1  0  0  0  0
 43 42  1  0  0  0  0
 44 43  1  0  0  0  0
 45 46  1  6  0  0  0
 45 44  1  0  0  0  0
 45 47  1  0  0  0  0
 48 50  1  0  0  0  0
 49 50  1  0  0  0  0
M  END
>  <MODEL>
6

>  <REMARK>
 VINA RESULT:      -5.6      3.080      4.056
  Name = 
  11 active torsions:
  status: ('A' for Active; 'I' for Inactive)
    1  A    between atoms: C_4  and  C_32
    2  A    between atoms: C_4  and  N_45
    3  A    between atoms: C_5  and  C_16
    4  A    between atoms: C_5  and  C_39
    5  A    between atoms: O_8  and  C_21
    6  A    between atoms: C_12  and  C_30
    7  A    between atoms: C_12  and  C_32
    8  A    between atoms: C_15  and  C_38
    9  A    between atoms: C_25  and  C_30
   10  A    between atoms: S_34  and  C_44
   11  A    between atoms: C_42  and  C_44
                            x       y       z     vdW  Elec       q    Type
                         _______ _______ _______ _____ _____    ______ ____

>  <TORSDO>
F 11

$$$$
=
 OpenBabel11062412543D

 50 55  0  0  1  0  0  0  0  0999 V2000
  184.8460  177.4310  139.2160 N   0  0  0  0  0  2  0  0  0  0  0  0
  186.5540  176.3070  134.6420 C   0  0  0  0  0  3  0  0  0  0  0  0
  188.1540  175.0600  137.2800 O   0  0  0  0  0  0  0  0  0  0  0  0
  189.6150  176.8090  139.1760 C   0  0  0  0  0  3  0  0  0  0  0  0
  187.4850  176.1520  137.9340 C   0  0  2  0  0  3  0  0  0  0  0  0
  187.0570  176.9550  135.6340 N   0  0  0  0  0  0  0  0  0  0  0  0
  185.0890  176.2550  137.0650 C   0  0  2  0  0  3  0  0  0  0  0  0
  191.8340  175.6820  136.6630 C   0  0  1  0  0  3  0  0  0  0  0  0
  186.5140  176.8830  136.9830 C   0  0  1  0  0  3  0  0  0  0  0  0
  184.8180  178.8830  139.3670 C   0  0  2  0  0  3  0  0  0  0  0  0
  185.3770  175.4160  134.8590 C   0  0  0  0  0  2  0  0  0  0  0  0
  192.4960  176.9430  134.7380 O   0  0  0  0  0  0  0  0  0  0  0  0
  184.4580  176.1160  135.7490 N   0  0  0  0  0  2  0  0  0  0  0  0
  191.6260  176.2050  135.2740 C   0  0  0  0  0  0  0  0  0  0  0  0
  190.3850  175.5720  138.8140 C   0  0  0  0  0  2  0  0  0  0  0  0
  188.3590  177.0900  138.7740 C   0  0  0  0  0  0  0  0  0  0  0  0
  185.3200  179.5220  138.2280 O   0  0  0  0  0  1  0  0  0  0  0  0
  189.3920  175.1890  136.6290 C   0  0  0  0  0  0  0  0  0  0  0  0
  185.6280  179.3270  140.5900 C   0  0  2  0  0  3  0  0  0  0  0  0
  190.4420  175.9100  134.5950 O   0  0  0  0  0  0  0  0  0  0  0  0
  187.1340  178.3200  140.9200 S   0  0  0  0  0  0  0  0  0  0  0  0
  184.1670  177.0550  137.9840 C   0  0  1  0  0  3  0  0  0  0  0  0
  189.4780  175.0110  135.1430 C   0  0  0  0  0  2  0  0  0  0  0  0
  187.7930  178.4070  139.2180 C   0  0  0  0  0  2  0  0  0  0  0  0
  190.4940  175.4550  137.3370 C   0  0  0  0  0  0  0  0  0  0  0  0
  192.7070  174.4150  136.6480 C   0  0  0  0  0  0  0  0  0  0  0  0
  191.9700  173.1340  136.2890 C   0  0  0  0  0  2  0  0  0  0  0  0
  192.8950  173.7920  135.2810 C   0  0  0  0  0  2  0  0  0  0  0  0
  195.1570  174.8590  137.1950 C   0  0  0  0  0  0  0  0  0  0  0  0
  195.5280  172.6670  137.6810 C   0  0  0  0  0  0  0  0  0  0  0  0
  196.0770  171.5130  137.8880 N   0  0  0  0  0  2  0  0  0  0  0  0
  196.2630  173.8460  137.1560 C   0  0  2  0  0  3  0  0  0  0  0  0
  193.8580  174.2710  137.6680 C   0  0  2  0  0  3  0  0  0  0  0  0
  195.2910  176.0170  136.8390 O   0  0  0  0  0  0  0  0  0  0  0  0
  194.1820  172.9110  137.9310 O   0  0  0  0  0  0  0  0  0  0  0  0
  197.2810  174.2080  138.0410 O   0  0  0  0  0  0  0  0  0  0  0  0
  198.4310  174.2560  137.2580 C   0  0  0  0  0  1  0  0  0  0  0  0
  184.7790  179.3670  141.8130 C   0  0  0  0  0  0  0  0  0  0  0  0
  185.3970  179.4940  143.1040 N   0  0  0  0  0  2  0  0  0  0  0  0
  183.5400  179.1590  141.7140 O   0  0  0  0  0  0  0  0  0  0  0  0
  184.6890  179.1690  144.3470 C   0  0  0  0  0  2  0  0  0  0  0  0
  185.6840  178.9460  145.4790 C   0  0  0  0  0  2  0  0  0  0  0  0
  186.8800  178.1690  144.9580 C   0  0  0  0  0  2  0  0  0  0  0  0
  187.2420  177.0790  145.9520 C   0  0  0  0  0  2  0  0  0  0  0  0
  188.7520  176.9090  146.0200 C   0  0  1  0  0  3  0  0  0  0  0  0
  189.3350  176.7560  144.6270 C   0  0  0  0  0  1  0  0  0  0  0  0
  189.3360  178.0050  146.6510 O   0  0  0  0  0  1  0  0  0  0  0  0
  182.9170  176.2640  138.3320 C   0  0  0  0  0  2  0  0  0  0  0  0
  180.3220  175.9490  138.2520 C   0  0  0  0  0  1  0  0  0  0  0  0
  181.5670  176.7490  137.2110 S   0  0  0  0  0  0  0  0  0  0  0  0
  1 10  1  0  0  0  0
  2 11  1  0  0  0  0
  2  6  2  0  0  0  0
  5  3  1  6  0  0  0
  5 16  1  0  0  0  0
  7 13  1  6  0  0  0
  7 22  1  0  0  0  0
  8 26  1  6  0  0  0
  8 25  1  0  0  0  0
  9  6  1  6  0  0  0
  9  7  1  0  0  0  0
  9  5  1  0  0  0  0
 10 17  1  6  0  0  0
 10 19  1  0  0  0  0
 11 13  1  0  0  0  0
 12 14  2  0  0  0  0
 14  8  1  0  0  0  0
 15  4  1  0  0  0  0
 16  4  2  0  0  0  0
 16 24  1  0  0  0  0
 18  3  1  0  0  0  0
 18 25  2  0  0  0  0
 19 21  1  0  0  0  0
 19 38  1  1  0  0  0
 20 23  1  0  0  0  0
 20 14  1  0  0  0  0
 22 48  1  1  0  0  0
 22  1  1  0  0  0  0
 23 18  1  0  0  0  0
 24 21  1  0  0  0  0
 25 15  1  0  0  0  0
 27 26  1  0  0  0  0
 28 27  1  0  0  0  0
 28 26  1  0  0  0  0
 29 33  1  0  0  0  0
 30 31  2  0  0  0  0
 30 35  1  0  0  0  0
 32 29  1  0  0  0  0
 32 30  1  0  0  0  0
 32 36  1  1  0  0  0
 33 26  1  6  0  0  0
 33 35  1  0  0  0  0
 34 29  2  0  0  0  0
 37 36  1  0  0  0  0
 38 39  1  0  0  0  0
 39 41  1  0  0  0  0
 40 38  2  0  0  0  0
 41 42  1  0  0  0  0
 43 42  1  0  0  0  0
 43 44  1  0  0  0  0
 44 45  1  0  0  0  0
 45 46  1  6  0  0  0
 45 47  1  0  0  0  0
 50 49  1  0  0  0  0
 50 48  1  0  0  0  0
M  END
>  <MODEL>
7

>  <REMARK>
 VINA RESULT:      -5.6      3.299      9.026
  Name = 
  11 active torsions:
  status: ('A' for Active; 'I' for Inactive)
    1  A    between atoms: C_4  and  C_32
    2  A    between atoms: C_4  and  N_45
    3  A    between atoms: C_5  and  C_16
    4  A    between atoms: C_5  and  C_39
    5  A    between atoms: O_8  and  C_21
    6  A    between atoms: C_12  and  C_30
    7  A    between atoms: C_12  and  C_32
    8  A    between atoms: C_15  and  C_38
    9  A    between atoms: C_25  and  C_30
   10  A    between atoms: S_34  and  C_44
   11  A    between atoms: C_42  and  C_44
                            x       y       z     vdW  Elec       q    Type
                         _______ _______ _______ _____ _____    ______ ____

>  <TORSDO>
F 11

$$$$
=
 OpenBabel11062412543D

 50 55  0  0  1  0  0  0  0  0999 V2000
  186.4020  176.6840  138.7880 N   0  0  0  0  0  2  0  0  0  0  0  0
  189.0450  175.9310  134.5980 C   0  0  0  0  0  3  0  0  0  0  0  0
  190.3310  174.8970  137.4890 O   0  0  0  0  0  0  0  0  0  0  0  0
  191.1400  176.8160  139.5990 C   0  0  0  0  0  3  0  0  0  0  0  0
  189.3930  175.8580  138.0040 C   0  0  2  0  0  3  0  0  0  0  0  0
  189.2560  176.6300  135.6590 N   0  0  0  0  0  0  0  0  0  0  0  0
  187.2030  175.6020  136.7250 C   0  0  2  0  0  3  0  0  0  0  0  0
  193.9170  176.1000  137.5290 C   0  0  1  0  0  3  0  0  0  0  0  0
  188.5030  176.4470  136.8910 C   0  0  1  0  0  3  0  0  0  0  0  0
  186.1190  178.1100  138.9190 C   0  0  2  0  0  3  0  0  0  0  0  0
  188.0030  174.8620  134.6110 C   0  0  0  0  0  2  0  0  0  0  0  0
  194.7010  177.4870  135.7410 O   0  0  0  0  0  0  0  0  0  0  0  0
  186.8430  175.3920  135.3190 N   0  0  0  0  0  2  0  0  0  0  0  0
  193.8780  176.6120  136.1200 C   0  0  0  0  0  0  0  0  0  0  0  0
  192.1470  175.7230  139.3900 C   0  0  0  0  0  2  0  0  0  0  0  0
  189.9470  176.9050  138.9780 C   0  0  0  0  0  0  0  0  0  0  0  0
  186.7070  178.8420  137.8820 O   0  0  0  0  0  1  0  0  0  0  0  0
  191.6280  175.2320  137.0670 C   0  0  0  0  0  0  0  0  0  0  0  0
  186.6200  178.6510  140.2630 C   0  0  2  0  0  3  0  0  0  0  0  0
  192.8940  176.1480  135.2450 O   0  0  0  0  0  0  0  0  0  0  0  0
  188.1840  177.8860  140.8630 S   0  0  0  0  0  0  0  0  0  0  0  0
  186.0190  176.2300  137.4580 C   0  0  1  0  0  3  0  0  0  0  0  0
  192.0020  175.0990  135.6210 C   0  0  0  0  0  2  0  0  0  0  0  0
  189.1110  178.1090  139.3040 C   0  0  0  0  0  2  0  0  0  0  0  0
  192.5320  175.6530  137.9570 C   0  0  0  0  0  0  0  0  0  0  0  0
  194.9680  174.9860  137.6800 C   0  0  0  0  0  0  0  0  0  0  0  0
  195.7290  174.9980  138.9970 C   0  0  0  0  0  2  0  0  0  0  0  0
  194.6520  173.9580  138.7460 C   0  0  0  0  0  2  0  0  0  0  0  0
  195.4860  173.0930  136.0540 C   0  0  0  0  0  0  0  0  0  0  0  0
  197.7230  173.2830  136.4210 C   0  0  0  0  0  0  0  0  0  0  0  0
  198.9940  173.0540  136.5100 N   0  0  0  0  0  2  0  0  0  0  0  0
  196.7230  172.2460  136.0570 C   0  0  2  0  0  3  0  0  0  0  0  0
  195.7640  174.5170  136.4420 C   0  0  2  0  0  3  0  0  0  0  0  0
  194.3740  172.6600  135.8060 O   0  0  0  0  0  0  0  0  0  0  0  0
  197.1690  174.5350  136.6630 O   0  0  0  0  0  0  0  0  0  0  0  0
  196.9820  171.7620  134.7730 O   0  0  0  0  0  0  0  0  0  0  0  0
  197.0230  170.3790  134.9170 C   0  0  0  0  0  1  0  0  0  0  0  0
  185.5740  178.5340  141.3150 C   0  0  0  0  0  0  0  0  0  0  0  0
  185.9620  178.3580  142.6880 N   0  0  0  0  0  2  0  0  0  0  0  0
  184.3620  178.4580  140.9790 O   0  0  0  0  0  0  0  0  0  0  0  0
  185.0300  177.8670  143.7090 C   0  0  0  0  0  2  0  0  0  0  0  0
  184.4600  179.0330  144.5080 C   0  0  0  0  0  2  0  0  0  0  0  0
  183.1080  179.4250  143.9380 C   0  0  0  0  0  2  0  0  0  0  0  0
  182.1390  178.2680  144.1020 C   0  0  0  0  0  2  0  0  0  0  0  0
  180.7760  178.6380  143.5370 C   0  0  1  0  0  3  0  0  0  0  0  0
  180.8930  179.0310  142.0760 C   0  0  0  0  0  1  0  0  0  0  0  0
  179.8940  177.5670  143.6620 O   0  0  0  0  0  1  0  0  0  0  0  0
  184.8670  175.2460  137.5860 C   0  0  0  0  0  2  0  0  0  0  0  0
  182.3630  174.8500  138.2280 C   0  0  0  0  0  1  0  0  0  0  0  0
  183.2940  176.1280  137.3480 S   0  0  0  0  0  0  0  0  0  0  0  0
  1 10  1  0  0  0  0
  2 11  1  0  0  0  0
  2  6  2  0  0  0  0
  5  3  1  6  0  0  0
  5 16  1  0  0  0  0
  7 13  1  6  0  0  0
  7  9  1  0  0  0  0
  7 22  1  0  0  0  0
  8 26  1  6  0  0  0
  8 25  1  0  0  0  0
  9  6  1  6  0  0  0
  9  5  1  0  0  0  0
 10 17  1  6  0  0  0
 10 19  1  0  0  0  0
 11 13  1  0  0  0  0
 12 14  2  0  0  0  0
 14  8  1  0  0  0  0
 15  4  1  0  0  0  0
 16 24  1  0  0  0  0
 16  4  2  0  0  0  0
 18  3  1  0  0  0  0
 18 25  2  0  0  0  0
 19 21  1  0  0  0  0
 19 38  1  1  0  0  0
 20 23  1  0  0  0  0
 20 14  1  0  0  0  0
 22 48  1  1  0  0  0
 22  1  1  0  0  0  0
 23 18  1  0  0  0  0
 24 21  1  0  0  0  0
 25 15  1  0  0  0  0
 26 28  1  0  0  0  0
 26 27  1  0  0  0  0
 28 27  1  0  0  0  0
 29 32  1  0  0  0  0
 29 33  1  0  0  0  0
 30 31  2  0  0  0  0
 30 35  1  0  0  0  0
 32 36  1  6  0  0  0
 32 30  1  0  0  0  0
 33 35  1  0  0  0  0
 33 26  1  1  0  0  0
 34 29  2  0  0  0  0
 36 37  1  0  0  0  0
 38 39  1  0  0  0  0
 39 41  1  0  0  0  0
 40 38  2  0  0  0  0
 41 42  1  0  0  0  0
 43 44  1  0  0  0  0
 43 42  1  0  0  0  0
 45 46  1  6  0  0  0
 45 47  1  0  0  0  0
 45 44  1  0  0  0  0
 50 48  1  0  0  0  0
 50 49  1  0  0  0  0
M  END
>  <MODEL>
8

>  <REMARK>
 VINA RESULT:      -4.8      4.112      8.904
  Name = 
  11 active torsions:
  status: ('A' for Active; 'I' for Inactive)
    1  A    between atoms: C_4  and  C_32
    2  A    between atoms: C_4  and  N_45
    3  A    between atoms: C_5  and  C_16
    4  A    between atoms: C_5  and  C_39
    5  A    between atoms: O_8  and  C_21
    6  A    between atoms: C_12  and  C_30
    7  A    between atoms: C_12  and  C_32
    8  A    between atoms: C_15  and  C_38
    9  A    between atoms: C_25  and  C_30
   10  A    between atoms: S_34  and  C_44
   11  A    between atoms: C_42  and  C_44
                            x       y       z     vdW  Elec       q    Type
                         _______ _______ _______ _____ _____    ______ ____

>  <TORSDO>
F 11

$$$$
=
 OpenBabel11062412543D

 50 55  0  0  1  0  0  0  0  0999 V2000
  188.2450  177.4560  142.0910 N   0  0  0  0  0  2  0  0  0  0  0  0
  184.2330  179.7620  144.0110 C   0  0  0  0  0  3  0  0  0  0  0  0
  183.7620  177.4890  141.6260 O   0  0  0  0  0  0  0  0  0  0  0  0
  184.7200  177.9300  138.8550 C   0  0  0  0  0  3  0  0  0  0  0  0
  185.1460  177.7860  141.3670 C   0  0  2  0  0  3  0  0  0  0  0  0
  184.7550  179.7380  142.8340 N   0  0  0  0  0  0  0  0  0  0  0  0
  186.3620  177.9380  143.6030 C   0  0  2  0  0  3  0  0  0  0  0  0
  181.3800  179.0570  139.1410 C   0  0  1  0  0  3  0  0  0  0  0  0
  185.7350  178.7430  142.4230 C   0  0  1  0  0  3  0  0  0  0  0  0
  189.1620  178.4630  141.5630 C   0  0  2  0  0  3  0  0  0  0  0  0
  184.6120  178.7210  145.0110 C   0  0  0  0  0  2  0  0  0  0  0  0
  180.7130  181.3360  139.4450 O   0  0  0  0  0  0  0  0  0  0  0  0
  186.0540  178.5250  144.9110 N   0  0  0  0  0  2  0  0  0  0  0  0
  181.1320  180.2750  139.9790 C   0  0  0  0  0  0  0  0  0  0  0  0
  183.3320  177.3620  138.9070 C   0  0  0  0  0  2  0  0  0  0  0  0
  185.5120  178.1500  139.9230 C   0  0  0  0  0  0  0  0  0  0  0  0
  188.6330  179.7510  141.6970 O   0  0  0  0  0  1  0  0  0  0  0  0
  182.6980  178.2300  141.0870 C   0  0  0  0  0  0  0  0  0  0  0  0
  189.4790  178.2000  140.0860 C   0  0  2  0  0  3  0  0  0  0  0  0
  181.4130  180.2410  141.3460 O   0  0  0  0  0  0  0  0  0  0  0  0
  188.0740  177.5210  139.1090 S   0  0  0  0  0  0  0  0  0  0  0  0
  187.8760  177.8000  143.4570 C   0  0  1  0  0  3  0  0  0  0  0  0
  181.8110  179.0310  141.9910 C   0  0  0  0  0  2  0  0  0  0  0  0
  186.8520  178.7680  139.6470 C   0  0  0  0  0  2  0  0  0  0  0  0
  182.4680  178.2070  139.7700 C   0  0  0  0  0  0  0  0  0  0  0  0
  180.0770  178.2710  138.9150 C   0  0  0  0  0  0  0  0  0  0  0  0
  179.6770  177.3510  140.0590 C   0  0  0  0  0  2  0  0  0  0  0  0
  178.9370  178.6570  139.8340 C   0  0  0  0  0  2  0  0  0  0  0  0
  180.1900  176.3810  137.2080 C   0  0  0  0  0  0  0  0  0  0  0  0
  181.0960  177.7510  135.6330 C   0  0  0  0  0  0  0  0  0  0  0  0
  181.7240  178.2190  134.6030 N   0  0  0  0  0  2  0  0  0  0  0  0
  181.1120  176.3190  136.0270 C   0  0  2  0  0  3  0  0  0  0  0  0
  179.7200  177.7790  137.4950 C   0  0  2  0  0  3  0  0  0  0  0  0
  179.8940  175.4110  137.8840 O   0  0  0  0  0  0  0  0  0  0  0  0
  180.3420  178.5560  136.4790 O   0  0  0  0  0  0  0  0  0  0  0  0
  180.5490  175.5380  135.0140 O   0  0  0  0  0  0  0  0  0  0  0  0
  181.3560  174.4060  134.9490 C   0  0  0  0  0  1  0  0  0  0  0  0
  190.6630  177.3100  139.9390 C   0  0  0  0  0  0  0  0  0  0  0  0
  191.2420  177.1030  138.6400 N   0  0  0  0  0  2  0  0  0  0  0  0
  191.0650  176.6440  140.9310 O   0  0  0  0  0  0  0  0  0  0  0  0
  192.1430  175.9820  138.3520 C   0  0  0  0  0  2  0  0  0  0  0  0
  192.8260  176.1870  137.0050 C   0  0  0  0  0  2  0  0  0  0  0  0
  193.8940  175.1250  136.8120 C   0  0  0  0  0  2  0  0  0  0  0  0
  193.8390  174.1420  137.9680 C   0  0  0  0  0  2  0  0  0  0  0  0
  195.2230  173.9630  138.5740 C   0  0  1  0  0  3  0  0  0  0  0  0
  196.2670  173.8080  137.4850 C   0  0  0  0  0  1  0  0  0  0  0  0
  195.5450  175.0570  139.3750 O   0  0  0  0  0  1  0  0  0  0  0  0
  188.4250  176.7410  144.3980 C   0  0  0  0  0  2  0  0  0  0  0  0
  190.8190  176.8180  145.4470 C   0  0  0  0  0  1  0  0  0  0  0  0
  189.2090  177.5530  145.8260 S   0  0  0  0  0  0  0  0  0  0  0  0
  1 22  1  0  0  0  0
  2 11  1  0  0  0  0
  4 15  1  0  0  0  0
  4 16  2  0  0  0  0
  5 16  1  6  0  0  0
  5  3  1  0  0  0  0
  5  9  1  0  0  0  0
  6  2  2  0  0  0  0
  7 13  1  1  0  0  0
  8 26  1  1  0  0  0
  8 25  1  0  0  0  0
  8 14  1  0  0  0  0
  9  6  1  1  0  0  0
  9  7  1  0  0  0  0
 10 17  1  6  0  0  0
 10  1  1  0  0  0  0
 12 14  2  0  0  0  0
 13 11  1  0  0  0  0
 14 20  1  0  0  0  0
 15 25  1  0  0  0  0
 18  3  1  0  0  0  0
 18 23  1  0  0  0  0
 19 38  1  1  0  0  0
 19 10  1  0  0  0  0
 20 23  1  0  0  0  0
 21 24  1  0  0  0  0
 21 19  1  0  0  0  0
 22  7  1  0  0  0  0
 22 48  1  1  0  0  0
 24 16  1  0  0  0  0
 25 18  2  0  0  0  0
 26 28  1  0  0  0  0
 26 27  1  0  0  0  0
 28 27  1  0  0  0  0
 29 33  1  0  0  0  0
 29 34  2  0  0  0  0
 30 32  1  0  0  0  0
 30 35  1  0  0  0  0
 31 30  2  0  0  0  0
 32 36  1  6  0  0  0
 32 29  1  0  0  0  0
 33 26  1  1  0  0  0
 35 33  1  0  0  0  0
 37 36  1  0  0  0  0
 38 40  2  0  0  0  0
 39 38  1  0  0  0  0
 41 39  1  0  0  0  0
 42 41  1  0  0  0  0
 43 42  1  0  0  0  0
 43 44  1  0  0  0  0
 44 45  1  0  0  0  0
 45 46  1  6  0  0  0
 45 47  1  0  0  0  0
 48 50  1  0  0  0  0
 49 50  1  0  0  0  0
M  END
>  <MODEL>
9

>  <REMARK>
 VINA RESULT:      -4.8      4.120      9.818
  Name = 
  11 active torsions:
  status: ('A' for Active; 'I' for Inactive)
    1  A    between atoms: C_4  and  C_32
    2  A    between atoms: C_4  and  N_45
    3  A    between atoms: C_5  and  C_16
    4  A    between atoms: C_5  and  C_39
    5  A    between atoms: O_8  and  C_21
    6  A    between atoms: C_12  and  C_30
    7  A    between atoms: C_12  and  C_32
    8  A    between atoms: C_15  and  C_38
    9  A    between atoms: C_25  and  C_30
   10  A    between atoms: S_34  and  C_44
   11  A    between atoms: C_42  and  C_44
                            x       y       z     vdW  Elec       q    Type
                         _______ _______ _______ _____ _____    ______ ____

>  <TORSDO>
F 11

$$$$
