=
 OpenBabel11062413413D

 35 39  0  0  1  0  0  0  0  0999 V2000
  189.5070  176.3720  136.5640 C   0  0  1  0  0  3  0  0  0  0  0  0
  184.8430  178.6680  140.5770 C   0  0  0  0  0  0  0  0  0  0  0  0
  187.0320  176.9950  137.1270 C   0  0  2  0  0  3  0  0  0  0  0  0
  183.7440  178.2090  138.4580 C   0  0  0  0  0  3  0  0  0  0  0  0
  182.5660  177.8860  139.1350 C   0  0  0  0  0  3  0  0  0  0  0  0
  188.2340  177.1490  136.1760 C   0  0  0  0  0  2  0  0  0  0  0  0
  183.6530  178.3530  141.2450 C   0  0  0  0  0  3  0  0  0  0  0  0
  189.3960  177.1030  141.2130 C   0  0  0  0  0  2  0  0  0  0  0  0
  188.4440  179.0560  140.0430 O   0  0  0  0  0  0  0  0  0  0  0  0
  190.2650  177.2120  140.1170 O   0  0  0  0  0  0  0  0  0  0  0  0
  184.8820  178.6070  139.1680 C   0  0  0  0  0  0  0  0  0  0  0  0
  182.5200  177.9620  140.5280 C   0  0  0  0  0  0  0  0  0  0  0  0
  188.4150  178.2920  141.2450 C   0  0  1  0  0  3  0  0  0  0  0  0
  190.2840  176.9810  137.7320 C   0  0  0  0  0  2  0  0  0  0  0  0
  187.0850  177.7720  138.4520 C   0  0  1  0  0  3  0  0  0  0  0  0
  186.7060  175.6580  137.3520 O   0  0  0  0  0  1  0  0  0  0  0  0
  188.4770  178.2400  138.8770 C   0  0  2  0  0  3  0  0  0  0  0  0
  186.9780  177.9020  141.6700 C   0  0  2  0  0  3  0  0  0  0  0  0
  186.1190  178.9420  138.4010 C   0  0  0  0  0  2  0  0  0  0  0  0
  181.3760  177.6540  141.1860 F   0  0  0  0  0  0  0  0  0  0  0  0
  186.0370  179.0820  141.3870 C   0  0  0  0  0  2  0  0  0  0  0  0
  189.4450  177.0550  138.9930 C   0  0  2  0  0  3  0  0  0  0  0  0
  185.8830  178.2810  145.2810 C   0  0  0  0  0  0  0  0  0  0  0  0
  185.0710  179.0830  146.0150 F   0  0  0  0  0  0  0  0  0  0  0  0
  185.9460  178.4220  143.9530 C   0  0  0  0  0  3  0  0  0  0  0  0
  186.7500  177.2560  145.9550 C   0  0  0  0  0  2  0  0  0  0  0  0
  186.8930  177.5470  143.1740 C   0  0  2  0  0  3  0  0  0  0  0  0
  188.1780  177.2620  145.3850 C   0  0  0  0  0  2  0  0  0  0  0  0
  188.8580  178.8170  143.7150 F   0  0  0  0  0  0  0  0  0  0  0  0
  188.2660  177.5750  143.8760 C   0  0  2  0  0  3  0  0  0  0  0  0
  189.2510  175.0140  136.7830 O   0  0  0  0  0  0  0  0  0  0  0  0
  190.6610  174.1940  136.3120 P   0  0  0  0  0  0  0  0  0  0  0  0
  190.3040  172.8340  135.7540 O   0  0  0  0  0  1  0  0  0  0  0  0
  191.6950  174.0070  137.6400 O   0  0  0  0  0  1  0  0  0  0  0  0
  191.4500  175.0930  135.1190 O   0  0  0  0  0  0  0  0  0  0  0  0
  1 31  1  1  0  0  0
  1 14  1  0  0  0  0
  2  7  1  0  0  0  0
  2 21  1  0  0  0  0
  3 16  1  1  0  0  0
  3 15  1  0  0  0  0
  4  5  2  0  0  0  0
  4 11  1  0  0  0  0
  5 12  1  0  0  0  0
  6  1  1  0  0  0  0
  6  3  1  0  0  0  0
  9 13  1  0  0  0  0
 10  8  1  0  0  0  0
 11  2  2  0  0  0  0
 12 20  1  0  0  0  0
 12  7  2  0  0  0  0
 13  8  1  6  0  0  0
 13 18  1  0  0  0  0
 15 19  1  6  0  0  0
 15 17  1  0  0  0  0
 17 22  1  0  0  0  0
 17  9  1  1  0  0  0
 18 21  1  1  0  0  0
 18 27  1  0  0  0  0
 19 11  1  0  0  0  0
 22 14  1  6  0  0  0
 22 10  1  0  0  0  0
 23 26  1  0  0  0  0
 23 24  1  0  0  0  0
 25 23  2  0  0  0  0
 27 30  1  0  0  0  0
 27 25  1  1  0  0  0
 28 26  1  0  0  0  0
 30 29  1  1  0  0  0
 30 28  1  0  0  0  0
 32 31  1  0  0  0  0
 32 34  1  0  0  0  0
 33 32  1  0  0  0  0
 35 32  2  0  0  0  0
M  END
>  <MODEL>
1

>  <REMARK>
 VINA RESULT:      -8.7      0.000      0.000
  Name = 
  3 active torsions:
  status: ('A' for Active; 'I' for Inactive)
    1  A    between atoms: C_1  and  O_27
    2  A    between atoms: P_4  and  O_27
    3  A    between atoms: C_25  and  C_28
                            x       y       z     vdW  Elec       q    Type
                         _______ _______ _______ _____ _____    ______ ____

>  <TORSDO>
F 3

$$$$
=
 OpenBabel11062413413D

 35 39  0  0  1  0  0  0  0  0999 V2000
  188.6180  175.6860  135.9340 C   0  0  1  0  0  3  0  0  0  0  0  0
  185.4730  178.8830  140.7320 C   0  0  0  0  0  0  0  0  0  0  0  0
  186.4500  176.5160  137.1350 C   0  0  2  0  0  3  0  0  0  0  0  0
  183.7540  178.1020  139.2010 C   0  0  0  0  0  3  0  0  0  0  0  0
  182.8640  177.9620  140.2680 C   0  0  0  0  0  3  0  0  0  0  0  0
  187.2770  176.4390  135.8370 C   0  0  0  0  0  2  0  0  0  0  0  0
  184.5690  178.7500  141.7920 C   0  0  0  0  0  3  0  0  0  0  0  0
  190.0090  177.2460  140.1510 C   0  0  0  0  0  2  0  0  0  0  0  0
  188.7010  179.0000  139.0070 O   0  0  0  0  0  0  0  0  0  0  0  0
  190.4740  177.1160  138.8340 O   0  0  0  0  0  0  0  0  0  0  0  0
  185.0550  178.5680  139.4220 C   0  0  0  0  0  0  0  0  0  0  0  0
  183.2700  178.2890  141.5620 C   0  0  0  0  0  0  0  0  0  0  0  0
  189.0730  178.4660  140.2750 C   0  0  1  0  0  3  0  0  0  0  0  0
  189.7220  176.4580  136.6550 C   0  0  0  0  0  2  0  0  0  0  0  0
  186.9180  177.5140  138.2040 C   0  0  1  0  0  3  0  0  0  0  0  0
  186.2330  175.2570  137.6960 O   0  0  0  0  0  1  0  0  0  0  0  0
  188.3660  177.9860  138.0660 C   0  0  2  0  0  3  0  0  0  0  0  0
  187.8580  178.2270  141.2040 C   0  0  2  0  0  3  0  0  0  0  0  0
  185.9710  178.7010  138.2500 C   0  0  0  0  0  2  0  0  0  0  0  0
  182.4050  178.1590  142.5970 F   0  0  0  0  0  0  0  0  0  0  0  0
  186.8590  179.3790  141.0240 C   0  0  0  0  0  2  0  0  0  0  0  0
  189.3360  176.7980  138.0830 C   0  0  2  0  0  3  0  0  0  0  0  0
  190.2310  178.1470  144.1600 C   0  0  0  0  0  0  0  0  0  0  0  0
  191.5650  178.2420  144.3930 F   0  0  0  0  0  0  0  0  0  0  0  0
  189.7500  178.3120  142.9240 C   0  0  0  0  0  3  0  0  0  0  0  0
  189.2860  177.8150  145.2810 C   0  0  0  0  0  2  0  0  0  0  0  0
  188.2700  178.1530  142.6930 C   0  0  2  0  0  3  0  0  0  0  0  0
  188.2570  176.7560  144.8540 C   0  0  0  0  0  2  0  0  0  0  0  0
  188.3060  175.7510  142.6950 F   0  0  0  0  0  0  0  0  0  0  0  0
  187.8110  176.8500  143.3790 C   0  0  2  0  0  3  0  0  0  0  0  0
  188.4660  174.4030  136.4710 O   0  0  0  0  0  0  0  0  0  0  0  0
  189.7850  173.5010  135.8990 P   0  0  0  0  0  0  0  0  0  0  0  0
  190.7970  173.3080  137.0070 O   0  0  0  0  0  1  0  0  0  0  0  0
  190.5160  174.3000  134.5980 O   0  0  0  0  0  0  0  0  0  0  0  0
  189.2370  171.9880  135.3810 O   0  0  0  0  0  1  0  0  0  0  0  0
  1 31  1  1  0  0  0
  1 14  1  0  0  0  0
  2 21  1  0  0  0  0
  2  7  1  0  0  0  0
  3 16  1  1  0  0  0
  3 15  1  0  0  0  0
  4 11  1  0  0  0  0
  4  5  2  0  0  0  0
  5 12  1  0  0  0  0
  6  1  1  0  0  0  0
  6  3  1  0  0  0  0
  9 13  1  0  0  0  0
 10  8  1  0  0  0  0
 11  2  2  0  0  0  0
 12  7  2  0  0  0  0
 12 20  1  0  0  0  0
 13  8  1  6  0  0  0
 13 18  1  0  0  0  0
 15 19  1  6  0  0  0
 17 22  1  0  0  0  0
 17 15  1  0  0  0  0
 17  9  1  1  0  0  0
 18 21  1  1  0  0  0
 18 27  1  0  0  0  0
 19 11  1  0  0  0  0
 22 14  1  6  0  0  0
 22 10  1  0  0  0  0
 23 24  1  0  0  0  0
 23 26  1  0  0  0  0
 25 23  2  0  0  0  0
 27 25  1  6  0  0  0
 27 30  1  0  0  0  0
 28 26  1  0  0  0  0
 30 29  1  6  0  0  0
 30 28  1  0  0  0  0
 32 31  1  0  0  0  0
 32 33  1  0  0  0  0
 34 32  2  0  0  0  0
 35 32  1  0  0  0  0
M  END
>  <MODEL>
2

>  <REMARK>
 VINA RESULT:      -8.2      1.466      2.122
  Name = 
  3 active torsions:
  status: ('A' for Active; 'I' for Inactive)
    1  A    between atoms: C_1  and  O_27
    2  A    between atoms: P_4  and  O_27
    3  A    between atoms: C_25  and  C_28
                            x       y       z     vdW  Elec       q    Type
                         _______ _______ _______ _____ _____    ______ ____

>  <TORSDO>
F 3

$$$$
=
 OpenBabel11062413413D

 35 39  0  0  1  0  0  0  0  0999 V2000
  181.8520  177.2090  137.6670 C   0  0  1  0  0  3  0  0  0  0  0  0
  187.0890  178.4070  141.4450 C   0  0  0  0  0  0  0  0  0  0  0  0
  183.0090  177.5620  139.9840 C   0  0  2  0  0  3  0  0  0  0  0  0
  185.1820  178.2980  142.9480 C   0  0  0  0  0  3  0  0  0  0  0  0
  186.0020  177.7810  143.9540 C   0  0  0  0  0  3  0  0  0  0  0  0
  181.8880  177.9670  139.0080 C   0  0  0  0  0  2  0  0  0  0  0  0
  187.9030  177.8990  142.4640 C   0  0  0  0  0  3  0  0  0  0  0  0
  186.4800  177.0260  136.8290 C   0  0  0  0  0  2  0  0  0  0  0  0
  185.9380  179.1070  138.0400 O   0  0  0  0  0  0  0  0  0  0  0  0
  185.2780  177.3950  136.2070 O   0  0  0  0  0  0  0  0  0  0  0  0
  185.7170  178.6200  141.6960 C   0  0  0  0  0  0  0  0  0  0  0  0
  187.3630  177.5860  143.7130 C   0  0  0  0  0  0  0  0  0  0  0  0
  186.9440  178.1250  137.8060 C   0  0  1  0  0  3  0  0  0  0  0  0
  182.9400  177.6280  136.6780 C   0  0  0  0  0  2  0  0  0  0  0  0
  184.4250  178.0720  139.6730 C   0  0  1  0  0  3  0  0  0  0  0  0
  183.0220  176.1890  140.2310 O   0  0  0  0  0  1  0  0  0  0  0  0
  184.6500  178.5330  138.2330 C   0  0  2  0  0  3  0  0  0  0  0  0
  187.5600  177.5750  139.1150 C   0  0  2  0  0  3  0  0  0  0  0  0
  184.8020  179.1700  140.6520 C   0  0  0  0  0  2  0  0  0  0  0  0
  188.1590  177.0890  144.6900 F   0  0  0  0  0  0  0  0  0  0  0  0
  187.7110  178.7290  140.1180 C   0  0  0  0  0  2  0  0  0  0  0  0
  184.3320  177.4080  137.2390 C   0  0  2  0  0  3  0  0  0  0  0  0
  191.2430  176.9220  139.7360 C   0  0  0  0  0  0  0  0  0  0  0  0
  192.2030  177.2910  140.6210 F   0  0  0  0  0  0  0  0  0  0  0  0
  189.9800  177.3230  139.9080 C   0  0  0  0  0  3  0  0  0  0  0  0
  191.5970  176.0940  138.5330 C   0  0  0  0  0  2  0  0  0  0  0  0
  188.9480  176.9340  138.8800 C   0  0  2  0  0  3  0  0  0  0  0  0
  190.9250  176.6340  137.2590 C   0  0  0  0  0  2  0  0  0  0  0  0
  189.5920  178.6070  137.2820 F   0  0  0  0  0  0  0  0  0  0  0  0
  189.5210  177.2380  137.4810 C   0  0  2  0  0  3  0  0  0  0  0  0
  181.8410  175.8210  137.8460 O   0  0  0  0  0  0  0  0  0  0  0  0
  180.2050  175.3700  137.8760 P   0  0  0  0  0  0  0  0  0  0  0  0
  180.0250  174.0360  137.1870 O   0  0  0  0  0  1  0  0  0  0  0  0
  179.2650  176.5410  137.0940 O   0  0  0  0  0  0  0  0  0  0  0  0
  179.6980  175.2360  139.4830 O   0  0  0  0  0  1  0  0  0  0  0  0
  1 31  1  1  0  0  0
  1  6  1  0  0  0  0
  2 11  2  0  0  0  0
  2  7  1  0  0  0  0
  3 16  1  6  0  0  0
  4  5  2  0  0  0  0
  6  3  1  0  0  0  0
  7 12  2  0  0  0  0
 10  8  1  0  0  0  0
 10 22  1  0  0  0  0
 11  4  1  0  0  0  0
 12  5  1  0  0  0  0
 12 20  1  0  0  0  0
 13  8  1  1  0  0  0
 13  9  1  0  0  0  0
 13 18  1  0  0  0  0
 14  1  1  0  0  0  0
 15  3  1  0  0  0  0
 15 19  1  1  0  0  0
 17  9  1  1  0  0  0
 17 15  1  0  0  0  0
 18 21  1  1  0  0  0
 19 11  1  0  0  0  0
 21  2  1  0  0  0  0
 22 14  1  6  0  0  0
 22 17  1  0  0  0  0
 23 25  2  0  0  0  0
 23 24  1  0  0  0  0
 26 23  1  0  0  0  0
 27 18  1  0  0  0  0
 27 25  1  1  0  0  0
 28 30  1  0  0  0  0
 28 26  1  0  0  0  0
 30 29  1  1  0  0  0
 30 27  1  0  0  0  0
 31 32  1  0  0  0  0
 32 35  1  0  0  0  0
 33 32  1  0  0  0  0
 34 32  2  0  0  0  0
M  END
>  <MODEL>
3

>  <REMARK>
 VINA RESULT:      -8.1      3.523      6.751
  Name = 
  3 active torsions:
  status: ('A' for Active; 'I' for Inactive)
    1  A    between atoms: C_1  and  O_27
    2  A    between atoms: P_4  and  O_27
    3  A    between atoms: C_25  and  C_28
                            x       y       z     vdW  Elec       q    Type
                         _______ _______ _______ _____ _____    ______ ____

>  <TORSDO>
F 3

$$$$
=
 OpenBabel11062413413D

 35 39  0  0  1  0  0  0  0  0999 V2000
  183.0220  176.3000  136.4780 C   0  0  1  0  0  3  0  0  0  0  0  0
  185.5590  178.9890  141.9060 C   0  0  0  0  0  0  0  0  0  0  0  0
  182.8320  177.2260  138.9150 C   0  0  2  0  0  3  0  0  0  0  0  0
  183.1670  178.8050  142.2980 C   0  0  0  0  0  3  0  0  0  0  0  0
  183.4030  178.6110  143.6610 C   0  0  0  0  0  3  0  0  0  0  0  0
  182.3290  177.2650  137.4590 C   0  0  0  0  0  2  0  0  0  0  0  0
  185.7830  178.8050  143.2750 C   0  0  0  0  0  3  0  0  0  0  0  0
  187.4450  176.7780  138.0150 C   0  0  0  0  0  2  0  0  0  0  0  0
  186.2300  178.9070  138.3070 O   0  0  0  0  0  0  0  0  0  0  0  0
  186.6970  176.8280  136.8300 O   0  0  0  0  0  0  0  0  0  0  0  0
  184.2360  179.0020  141.4160 C   0  0  0  0  0  0  0  0  0  0  0  0
  184.7100  178.6140  144.1500 C   0  0  0  0  0  0  0  0  0  0  0  0
  187.2810  178.0880  138.8130 C   0  0  1  0  0  3  0  0  0  0  0  0
  184.4290  176.7300  136.0610 C   0  0  0  0  0  2  0  0  0  0  0  0
  184.1740  177.9120  139.2090 C   0  0  1  0  0  3  0  0  0  0  0  0
  182.8100  175.9360  139.4440 O   0  0  0  0  0  1  0  0  0  0  0  0
  185.0610  178.1600  137.9890 C   0  0  2  0  0  3  0  0  0  0  0  0
  187.1910  177.8760  140.3440 C   0  0  2  0  0  3  0  0  0  0  0  0
  183.9350  179.2060  139.9670 C   0  0  0  0  0  2  0  0  0  0  0  0
  184.9390  178.4310  145.4720 F   0  0  0  0  0  0  0  0  0  0  0  0
  186.7400  179.1890  141.0030 C   0  0  0  0  0  2  0  0  0  0  0  0
  185.3610  176.8490  137.2510 C   0  0  2  0  0  3  0  0  0  0  0  0
  190.1530  178.0520  142.7030 C   0  0  0  0  0  0  0  0  0  0  0  0
  190.5570  178.7860  143.7710 F   0  0  0  0  0  0  0  0  0  0  0  0
  188.9460  178.2530  142.1670 C   0  0  0  0  0  3  0  0  0  0  0  0
  191.0740  177.0360  142.0890 C   0  0  0  0  0  2  0  0  0  0  0  0
  188.5480  177.4530  140.9540 C   0  0  2  0  0  3  0  0  0  0  0  0
  191.0700  177.1280  140.5530 C   0  0  0  0  0  2  0  0  0  0  0  0
  189.8050  178.7820  139.3960 F   0  0  0  0  0  0  0  0  0  0  0  0
  189.7060  177.5100  139.9370 C   0  0  2  0  0  3  0  0  0  0  0  0
  183.0150  174.9800  136.9420 O   0  0  0  0  0  0  0  0  0  0  0  0
  181.6270  174.2620  136.2800 P   0  0  0  0  0  0  0  0  0  0  0  0
  181.9150  172.8230  135.9140 O   0  0  0  0  0  1  0  0  0  0  0  0
  181.1370  175.1100  134.8990 O   0  0  0  0  0  0  0  0  0  0  0  0
  180.3840  174.3040  137.4250 O   0  0  0  0  0  1  0  0  0  0  0  0
  1 31  1  1  0  0  0
  1  6  1  0  0  0  0
  2  7  1  0  0  0  0
  3 15  1  0  0  0  0
  3 16  1  6  0  0  0
  4  5  2  0  0  0  0
  5 12  1  0  0  0  0
  6  3  1  0  0  0  0
  7 12  2  0  0  0  0
  9 13  1  0  0  0  0
 10 22  1  0  0  0  0
 10  8  1  0  0  0  0
 11  2  2  0  0  0  0
 11  4  1  0  0  0  0
 12 20  1  0  0  0  0
 13  8  1  6  0  0  0
 13 18  1  0  0  0  0
 14  1  1  0  0  0  0
 15 19  1  6  0  0  0
 17  9  1  1  0  0  0
 17 15  1  0  0  0  0
 18 27  1  0  0  0  0
 18 21  1  1  0  0  0
 19 11  1  0  0  0  0
 21  2  1  0  0  0  0
 22 14  1  6  0  0  0
 22 17  1  0  0  0  0
 23 24  1  0  0  0  0
 25 23  2  0  0  0  0
 26 23  1  0  0  0  0
 27 25  1  1  0  0  0
 28 26  1  0  0  0  0
 30 29  1  1  0  0  0
 30 28  1  0  0  0  0
 30 27  1  0  0  0  0
 32 31  1  0  0  0  0
 32 35  1  0  0  0  0
 33 32  1  0  0  0  0
 34 32  2  0  0  0  0
M  END
>  <MODEL>
4

>  <REMARK>
 VINA RESULT:      -8.0      3.003      5.309
  Name = 
  3 active torsions:
  status: ('A' for Active; 'I' for Inactive)
    1  A    between atoms: C_1  and  O_27
    2  A    between atoms: P_4  and  O_27
    3  A    between atoms: C_25  and  C_28
                            x       y       z     vdW  Elec       q    Type
                         _______ _______ _______ _____ _____    ______ ____

>  <TORSDO>
F 3

$$$$
=
 OpenBabel11062413413D

 35 39  0  0  1  0  0  0  0  0999 V2000
  184.9120  176.1140  136.2450 C   0  0  1  0  0  3  0  0  0  0  0  0
  185.0490  179.1140  142.0850 C   0  0  0  0  0  0  0  0  0  0  0  0
  183.7610  177.0840  138.3820 C   0  0  2  0  0  3  0  0  0  0  0  0
  182.7010  178.7670  141.5590 C   0  0  0  0  0  3  0  0  0  0  0  0
  182.4150  178.6240  142.9180 C   0  0  0  0  0  3  0  0  0  0  0  0
  183.8450  177.0500  136.8430 C   0  0  0  0  0  2  0  0  0  0  0  0
  184.7490  178.9810  143.4460 C   0  0  0  0  0  3  0  0  0  0  0  0
  188.3900  176.9500  139.3030 C   0  0  0  0  0  2  0  0  0  0  0  0
  187.0340  178.9910  139.0100 O   0  0  0  0  0  0  0  0  0  0  0  0
  188.1430  176.9160  137.9230 O   0  0  0  0  0  0  0  0  0  0  0  0
  184.0100  179.0190  141.1340 C   0  0  0  0  0  0  0  0  0  0  0  0
  183.4380  178.7350  143.8610 C   0  0  0  0  0  0  0  0  0  0  0  0
  187.8610  178.2640  139.9140 C   0  0  1  0  0  3  0  0  0  0  0  0
  186.3440  176.6340  136.3650 C   0  0  0  0  0  2  0  0  0  0  0  0
  184.8510  177.8730  139.1230 C   0  0  1  0  0  3  0  0  0  0  0  0
  183.6160  175.8090  138.9290 O   0  0  0  0  0  1  0  0  0  0  0  0
  186.1170  178.1540  138.3140 C   0  0  2  0  0  3  0  0  0  0  0  0
  187.2110  178.0840  141.3080 C   0  0  2  0  0  3  0  0  0  0  0  0
  184.2680  179.1640  139.6700 C   0  0  0  0  0  2  0  0  0  0  0  0
  183.1600  178.6020  145.1810 F   0  0  0  0  0  0  0  0  0  0  0  0
  186.4700  179.3770  141.6820 C   0  0  0  0  0  2  0  0  0  0  0  0
  186.7490  176.8500  137.8100 C   0  0  2  0  0  3  0  0  0  0  0  0
  189.9440  176.1240  143.0580 C   0  0  0  0  0  0  0  0  0  0  0  0
  190.6750  174.9980  142.8540 F   0  0  0  0  0  0  0  0  0  0  0  0
  189.0890  176.5500  142.1230 C   0  0  0  0  0  3  0  0  0  0  0  0
  190.0580  176.8780  144.3530 C   0  0  0  0  0  2  0  0  0  0  0  0
  188.2600  177.7760  142.4030 C   0  0  2  0  0  3  0  0  0  0  0  0
  188.6750  177.2810  144.8940 C   0  0  0  0  0  2  0  0  0  0  0  0
  186.6610  176.6450  143.7940 F   0  0  0  0  0  0  0  0  0  0  0  0
  187.6370  177.6290  143.8060 C   0  0  2  0  0  3  0  0  0  0  0  0
  184.8060  174.8090  136.7390 O   0  0  0  0  0  0  0  0  0  0  0  0
  183.9410  173.9370  135.5660 P   0  0  0  0  0  0  0  0  0  0  0  0
  182.9660  172.9970  136.2390 O   0  0  0  0  0  1  0  0  0  0  0  0
  185.0080  173.0490  134.5980 O   0  0  0  0  0  1  0  0  0  0  0  0
  183.0830  175.0220  134.5940 O   0  0  0  0  0  0  0  0  0  0  0  0
  1 14  1  0  0  0  0
  1 31  1  1  0  0  0
  1  6  1  0  0  0  0
  2  7  1  0  0  0  0
  3 16  1  1  0  0  0
  3 15  1  0  0  0  0
  4  5  2  0  0  0  0
  5 12  1  0  0  0  0
  6  3  1  0  0  0  0
  7 12  2  0  0  0  0
  9 13  1  0  0  0  0
 10  8  1  0  0  0  0
 11  4  1  0  0  0  0
 11  2  2  0  0  0  0
 12 20  1  0  0  0  0
 13  8  1  6  0  0  0
 13 18  1  0  0  0  0
 15 19  1  6  0  0  0
 17  9  1  1  0  0  0
 17 15  1  0  0  0  0
 18 21  1  1  0  0  0
 18 27  1  0  0  0  0
 19 11  1  0  0  0  0
 21  2  1  0  0  0  0
 22 14  1  6  0  0  0
 22 10  1  0  0  0  0
 22 17  1  0  0  0  0
 23 26  1  0  0  0  0
 24 23  1  0  0  0  0
 25 23  2  0  0  0  0
 26 28  1  0  0  0  0
 27 25  1  6  0  0  0
 27 30  1  0  0  0  0
 30 29  1  6  0  0  0
 30 28  1  0  0  0  0
 32 33  1  0  0  0  0
 32 31  1  0  0  0  0
 34 32  1  0  0  0  0
 35 32  2  0  0  0  0
M  END
>  <MODEL>
5

>  <REMARK>
 VINA RESULT:      -8.0      2.512      4.044
  Name = 
  3 active torsions:
  status: ('A' for Active; 'I' for Inactive)
    1  A    between atoms: C_1  and  O_27
    2  A    between atoms: P_4  and  O_27
    3  A    between atoms: C_25  and  C_28
                            x       y       z     vdW  Elec       q    Type
                         _______ _______ _______ _____ _____    ______ ____

>  <TORSDO>
F 3

$$$$
=
 OpenBabel11062413413D

 35 39  0  0  1  0  0  0  0  0999 V2000
  188.5270  176.5320  136.6990 C   0  0  1  0  0  3  0  0  0  0  0  0
  182.4630  177.2480  139.1150 C   0  0  0  0  0  0  0  0  0  0  0  0
  185.9750  175.9710  136.7650 C   0  0  2  0  0  3  0  0  0  0  0  0
  182.2660  175.7100  137.2430 C   0  0  0  0  0  3  0  0  0  0  0  0
  181.2140  175.0570  137.8870 C   0  0  0  0  0  3  0  0  0  0  0  0
  187.1940  176.4190  135.9350 C   0  0  0  0  0  2  0  0  0  0  0  0
  181.3990  176.5930  139.7470 C   0  0  0  0  0  3  0  0  0  0  0  0
  186.9040  178.4240  140.6910 C   0  0  0  0  0  2  0  0  0  0  0  0
  185.5410  179.2050  138.7880 O   0  0  0  0  0  0  0  0  0  0  0  0
  187.8910  178.6280  139.7160 O   0  0  0  0  0  0  0  0  0  0  0  0
  182.8900  176.8090  137.8440 C   0  0  0  0  0  0  0  0  0  0  0  0
  180.7780  175.5000  139.1370 C   0  0  0  0  0  0  0  0  0  0  0  0
  185.5330  178.9150  140.1830 C   0  0  1  0  0  3  0  0  0  0  0  0
  188.6290  177.7550  137.6090 C   0  0  0  0  0  2  0  0  0  0  0  0
  185.3400  177.0160  137.6940 C   0  0  1  0  0  3  0  0  0  0  0  0
  186.2150  174.7810  137.4520 O   0  0  0  0  0  1  0  0  0  0  0  0
  186.2260  178.2160  138.0280 C   0  0  2  0  0  3  0  0  0  0  0  0
  184.3520  178.0040  140.5980 C   0  0  2  0  0  3  0  0  0  0  0  0
  184.0120  177.4760  137.1170 C   0  0  0  0  0  2  0  0  0  0  0  0
  179.7530  174.8700  139.7600 F   0  0  0  0  0  0  0  0  0  0  0  0
  183.1020  178.4170  139.8070 C   0  0  0  0  0  2  0  0  0  0  0  0
  187.5450  177.7640  138.6690 C   0  0  2  0  0  3  0  0  0  0  0  0
  182.3890  178.9900  143.6890 C   0  0  0  0  0  0  0  0  0  0  0  0
  181.2130  179.5970  143.9930 F   0  0  0  0  0  0  0  0  0  0  0  0
  182.7080  178.7420  142.4150 C   0  0  0  0  0  3  0  0  0  0  0  0
  183.3600  178.6270  144.7770 C   0  0  0  0  0  2  0  0  0  0  0  0
  184.0410  178.1090  142.1100 C   0  0  2  0  0  3  0  0  0  0  0  0
  184.8000  179.0120  144.3980 C   0  0  0  0  0  2  0  0  0  0  0  0
  185.3060  180.1360  142.3600 F   0  0  0  0  0  0  0  0  0  0  0  0
  185.1280  178.8700  142.8950 C   0  0  2  0  0  3  0  0  0  0  0  0
  188.8380  175.3580  137.3940 O   0  0  0  0  0  0  0  0  0  0  0  0
  190.5270  175.2050  137.3150 P   0  0  0  0  0  0  0  0  0  0  0  0
  190.9060  173.7490  137.1590 O   0  0  0  0  0  1  0  0  0  0  0  0
  191.2330  175.8260  138.7230 O   0  0  0  0  0  1  0  0  0  0  0  0
  191.0980  176.0720  135.9810 O   0  0  0  0  0  0  0  0  0  0  0  0
  1 31  1  1  0  0  0
  1 14  1  0  0  0  0
  2  7  1  0  0  0  0
  2 21  1  0  0  0  0
  3 16  1  1  0  0  0
  3 15  1  0  0  0  0
  4 11  1  0  0  0  0
  4  5  2  0  0  0  0
  5 12  1  0  0  0  0
  6  1  1  0  0  0  0
  6  3  1  0  0  0  0
  9 13  1  0  0  0  0
 10  8  1  0  0  0  0
 11  2  2  0  0  0  0
 12  7  2  0  0  0  0
 12 20  1  0  0  0  0
 13 18  1  0  0  0  0
 13  8  1  6  0  0  0
 15 19  1  6  0  0  0
 15 17  1  0  0  0  0
 17 22  1  0  0  0  0
 17  9  1  1  0  0  0
 18 21  1  6  0  0  0
 18 27  1  0  0  0  0
 19 11  1  0  0  0  0
 22 14  1  6  0  0  0
 22 10  1  0  0  0  0
 23 24  1  0  0  0  0
 23 26  1  0  0  0  0
 25 23  2  0  0  0  0
 27 25  1  6  0  0  0
 27 30  1  0  0  0  0
 28 26  1  0  0  0  0
 30 29  1  6  0  0  0
 30 28  1  0  0  0  0
 32 31  1  0  0  0  0
 32 34  1  0  0  0  0
 33 32  1  0  0  0  0
 35 32  2  0  0  0  0
M  END
>  <MODEL>
6

>  <REMARK>
 VINA RESULT:      -7.7      1.976      2.876
  Name = 
  3 active torsions:
  status: ('A' for Active; 'I' for Inactive)
    1  A    between atoms: C_1  and  O_27
    2  A    between atoms: P_4  and  O_27
    3  A    between atoms: C_25  and  C_28
                            x       y       z     vdW  Elec       q    Type
                         _______ _______ _______ _____ _____    ______ ____

>  <TORSDO>
F 3

$$$$
=
 OpenBabel11062413413D

 35 39  0  0  1  0  0  0  0  0999 V2000
  184.9200  176.6090  136.8850 C   0  0  1  0  0  3  0  0  0  0  0  0
  182.1150  178.9720  142.3330 C   0  0  0  0  0  0  0  0  0  0  0  0
  182.8890  176.9210  138.5010 C   0  0  2  0  0  3  0  0  0  0  0  0
  180.3500  177.8420  141.1000 C   0  0  0  0  0  3  0  0  0  0  0  0
  179.7290  177.4960  142.3020 C   0  0  0  0  0  3  0  0  0  0  0  0
  183.4540  177.0440  137.0720 C   0  0  0  0  0  2  0  0  0  0  0  0
  181.4770  178.6290  143.5310 C   0  0  0  0  0  3  0  0  0  0  0  0
  186.7060  178.3970  140.8560 C   0  0  0  0  0  2  0  0  0  0  0  0
  184.8570  179.8260  140.0610 O   0  0  0  0  0  0  0  0  0  0  0  0
  186.9320  178.3880  139.4720 O   0  0  0  0  0  0  0  0  0  0  0  0
  181.5360  178.5850  141.1050 C   0  0  0  0  0  0  0  0  0  0  0  0
  180.2910  177.8920  143.5160 C   0  0  0  0  0  0  0  0  0  0  0  0
  185.5680  179.3760  141.2110 C   0  0  1  0  0  3  0  0  0  0  0  0
  185.9450  177.6010  137.4340 C   0  0  0  0  0  2  0  0  0  0  0  0
  183.3220  177.9880  139.5180 C   0  0  1  0  0  3  0  0  0  0  0  0
  183.0610  175.6400  139.0250 O   0  0  0  0  0  1  0  0  0  0  0  0
  184.5790  178.7720  139.1440 C   0  0  2  0  0  3  0  0  0  0  0  0
  184.6310  178.8610  142.3300 C   0  0  2  0  0  3  0  0  0  0  0  0
  182.1650  178.9320  139.7950 C   0  0  0  0  0  2  0  0  0  0  0  0
  179.6860  177.5610  144.6820 F   0  0  0  0  0  0  0  0  0  0  0  0
  183.3890  179.7630  142.3940 C   0  0  0  0  0  2  0  0  0  0  0  0
  185.7700  177.8310  138.9230 C   0  0  2  0  0  3  0  0  0  0  0  0
  186.7910  177.5300  145.1480 C   0  0  0  0  0  0  0  0  0  0  0  0
  187.5850  176.4580  145.3970 F   0  0  0  0  0  0  0  0  0  0  0  0
  186.2350  177.6890  143.9430 C   0  0  0  0  0  3  0  0  0  0  0  0
  186.4960  178.5260  146.2340 C   0  0  0  0  0  2  0  0  0  0  0  0
  185.3210  178.8660  143.7150 C   0  0  2  0  0  3  0  0  0  0  0  0
  185.0040  178.8970  146.2680 C   0  0  0  0  0  2  0  0  0  0  0  0
  183.4220  177.8810  144.8070 F   0  0  0  0  0  0  0  0  0  0  0  0
  184.3190  178.9340  144.8850 C   0  0  2  0  0  3  0  0  0  0  0  0
  185.1550  175.3190  137.3730 O   0  0  0  0  0  0  0  0  0  0  0  0
  186.2230  174.5930  136.2720 P   0  0  0  0  0  0  0  0  0  0  0  0
  186.0850  175.2440  134.9130 O   0  0  0  0  0  0  0  0  0  0  0  0
  185.8890  172.9390  136.1430 O   0  0  0  0  0  1  0  0  0  0  0  0
  187.8080  174.7960  136.8240 O   0  0  0  0  0  1  0  0  0  0  0  0
  1  6  1  0  0  0  0
  1 31  1  1  0  0  0
  1 14  1  0  0  0  0
  2 21  1  0  0  0  0
  2  7  1  0  0  0  0
  3 16  1  1  0  0  0
  3 15  1  0  0  0  0
  4 11  1  0  0  0  0
  4  5  2  0  0  0  0
  5 12  1  0  0  0  0
  6  3  1  0  0  0  0
  9 13  1  0  0  0  0
 10  8  1  0  0  0  0
 11  2  2  0  0  0  0
 12  7  2  0  0  0  0
 12 20  1  0  0  0  0
 13  8  1  6  0  0  0
 13 18  1  0  0  0  0
 15 19  1  6  0  0  0
 17 15  1  0  0  0  0
 17  9  1  1  0  0  0
 18 21  1  1  0  0  0
 18 27  1  0  0  0  0
 19 11  1  0  0  0  0
 22 14  1  6  0  0  0
 22 17  1  0  0  0  0
 22 10  1  0  0  0  0
 23 24  1  0  0  0  0
 23 26  1  0  0  0  0
 25 23  2  0  0  0  0
 26 28  1  0  0  0  0
 27 25  1  1  0  0  0
 27 30  1  0  0  0  0
 30 29  1  1  0  0  0
 30 28  1  0  0  0  0
 32 35  1  0  0  0  0
 32 31  1  0  0  0  0
 33 32  2  0  0  0  0
 34 32  1  0  0  0  0
M  END
>  <MODEL>
7

>  <REMARK>
 VINA RESULT:      -7.4      2.460      3.868
  Name = 
  3 active torsions:
  status: ('A' for Active; 'I' for Inactive)
    1  A    between atoms: C_1  and  O_27
    2  A    between atoms: P_4  and  O_27
    3  A    between atoms: C_25  and  C_28
                            x       y       z     vdW  Elec       q    Type
                         _______ _______ _______ _____ _____    ______ ____

>  <TORSDO>
F 3

$$$$
=
 OpenBabel11062413413D

 35 39  0  0  1  0  0  0  0  0999 V2000
  186.9390  175.5190  136.2810 C   0  0  1  0  0  3  0  0  0  0  0  0
  182.3740  178.3980  140.0230 C   0  0  0  0  0  0  0  0  0  0  0  0
  184.4750  175.8560  137.0890 C   0  0  2  0  0  3  0  0  0  0  0  0
  181.1770  176.8920  138.5370 C   0  0  0  0  0  3  0  0  0  0  0  0
  180.2150  176.6760  139.5260 C   0  0  0  0  0  3  0  0  0  0  0  0
  185.4710  175.8100  135.9130 C   0  0  0  0  0  2  0  0  0  0  0  0
  181.3970  178.1840  141.0030 C   0  0  0  0  0  3  0  0  0  0  0  0
  187.2190  178.1160  140.1960 C   0  0  0  0  0  2  0  0  0  0  0  0
  185.6590  179.1780  138.6060 O   0  0  0  0  0  0  0  0  0  0  0  0
  187.8880  177.9080  138.9820 O   0  0  0  0  0  0  0  0  0  0  0  0
  182.2530  177.7550  138.7730 C   0  0  0  0  0  0  0  0  0  0  0  0
  180.3230  177.3250  140.7570 C   0  0  0  0  0  0  0  0  0  0  0  0
  185.9760  179.0040  139.9840 C   0  0  1  0  0  3  0  0  0  0  0  0
  187.6710  176.6960  136.9250 C   0  0  0  0  0  2  0  0  0  0  0  0
  184.4910  177.1150  137.9680 C   0  0  1  0  0  3  0  0  0  0  0  0
  184.5350  174.7040  137.8740 O   0  0  0  0  0  1  0  0  0  0  0  0
  185.7560  177.9660  137.8660 C   0  0  2  0  0  3  0  0  0  0  0  0
  184.7520  178.5740  140.8300 C   0  0  2  0  0  3  0  0  0  0  0  0
  183.2570  177.9540  137.6850 C   0  0  0  0  0  2  0  0  0  0  0  0
  179.3880  177.1200  141.7150 F   0  0  0  0  0  0  0  0  0  0  0  0
  183.5110  179.3280  140.3290 C   0  0  0  0  0  2  0  0  0  0  0  0
  187.0030  177.1430  138.2120 C   0  0  2  0  0  3  0  0  0  0  0  0
  185.9540  177.9790  144.3770 C   0  0  0  0  0  0  0  0  0  0  0  0
  186.6940  177.0670  145.0570 F   0  0  0  0  0  0  0  0  0  0  0  0
  185.8150  177.8780  143.0510 C   0  0  0  0  0  3  0  0  0  0  0  0
  185.2520  179.0870  145.1100 C   0  0  0  0  0  2  0  0  0  0  0  0
  184.9480  178.8810  142.3340 C   0  0  2  0  0  3  0  0  0  0  0  0
  183.8090  179.2680  144.6090 C   0  0  0  0  0  2  0  0  0  0  0  0
  182.8680  177.8470  142.9450 F   0  0  0  0  0  0  0  0  0  0  0  0
  183.6160  179.0030  143.1000 C   0  0  2  0  0  3  0  0  0  0  0  0
  187.0700  174.3600  137.0530 O   0  0  0  0  0  0  0  0  0  0  0  0
  188.4080  173.5290  136.4210 P   0  0  0  0  0  0  0  0  0  0  0  0
  188.7460  174.0660  135.0480 O   0  0  0  0  0  0  0  0  0  0  0  0
  188.0680  171.8750  136.3130 O   0  0  0  0  0  1  0  0  0  0  0  0
  189.7330  173.7560  137.4460 O   0  0  0  0  0  1  0  0  0  0  0  0
  1 14  1  0  0  0  0
  1 31  1  1  0  0  0
  2 21  1  0  0  0  0
  2  7  1  0  0  0  0
  3 16  1  1  0  0  0
  3 15  1  0  0  0  0
  4 11  1  0  0  0  0
  4  5  2  0  0  0  0
  5 12  1  0  0  0  0
  6  1  1  0  0  0  0
  6  3  1  0  0  0  0
  9 13  1  0  0  0  0
 10  8  1  0  0  0  0
 11  2  2  0  0  0  0
 12  7  2  0  0  0  0
 12 20  1  0  0  0  0
 13  8  1  6  0  0  0
 13 18  1  0  0  0  0
 15 19  1  6  0  0  0
 17 15  1  0  0  0  0
 17 22  1  0  0  0  0
 17  9  1  1  0  0  0
 18 21  1  6  0  0  0
 18 27  1  0  0  0  0
 19 11  1  0  0  0  0
 22 14  1  6  0  0  0
 22 10  1  0  0  0  0
 23 24  1  0  0  0  0
 23 26  1  0  0  0  0
 25 23  2  0  0  0  0
 27 25  1  1  0  0  0
 27 30  1  0  0  0  0
 28 26  1  0  0  0  0
 30 29  1  1  0  0  0
 30 28  1  0  0  0  0
 32 31  1  0  0  0  0
 32 35  1  0  0  0  0
 33 32  2  0  0  0  0
 34 32  1  0  0  0  0
M  END
>  <MODEL>
8

>  <REMARK>
 VINA RESULT:      -7.2      1.849      2.992
  Name = 
  3 active torsions:
  status: ('A' for Active; 'I' for Inactive)
    1  A    between atoms: C_1  and  O_27
    2  A    between atoms: P_4  and  O_27
    3  A    between atoms: C_25  and  C_28
                            x       y       z     vdW  Elec       q    Type
                         _______ _______ _______ _____ _____    ______ ____

>  <TORSDO>
F 3

$$$$
=
 OpenBabel11062413413D

 35 39  0  0  1  0  0  0  0  0999 V2000
  182.0820  175.0130  136.0520 C   0  0  1  0  0  3  0  0  0  0  0  0
  186.2950  178.4540  139.7330 C   0  0  0  0  0  0  0  0  0  0  0  0
  182.7210  176.3650  138.1960 C   0  0  2  0  0  3  0  0  0  0  0  0
  184.1730  178.4930  140.9190 C   0  0  0  0  0  3  0  0  0  0  0  0
  184.8530  178.5280  142.1380 C   0  0  0  0  0  3  0  0  0  0  0  0
  181.7590  176.1780  137.0070 C   0  0  0  0  0  2  0  0  0  0  0  0
  186.9650  178.5010  140.9610 C   0  0  0  0  0  3  0  0  0  0  0  0
  186.7640  175.4750  135.9250 C   0  0  0  0  0  2  0  0  0  0  0  0
  185.7190  177.6940  136.1970 O   0  0  0  0  0  0  0  0  0  0  0  0
  185.6620  175.3620  135.0670 O   0  0  0  0  0  0  0  0  0  0  0  0
  184.8840  178.4640  139.7140 C   0  0  0  0  0  0  0  0  0  0  0  0
  186.2480  178.5360  142.1590 C   0  0  0  0  0  0  0  0  0  0  0  0
  186.8780  176.9130  136.4720 C   0  0  1  0  0  3  0  0  0  0  0  0
  183.2670  175.2730  135.1220 C   0  0  0  0  0  2  0  0  0  0  0  0
  184.0850  177.0070  137.8960 C   0  0  1  0  0  3  0  0  0  0  0  0
  182.8790  175.1930  138.9350 O   0  0  0  0  0  1  0  0  0  0  0  0
  184.5100  176.9780  136.4280 C   0  0  2  0  0  3  0  0  0  0  0  0
  187.3070  176.9820  137.9580 C   0  0  2  0  0  3  0  0  0  0  0  0
  184.1140  178.4270  138.4340 C   0  0  0  0  0  2  0  0  0  0  0  0
  186.9080  178.5750  143.3410 F   0  0  0  0  0  0  0  0  0  0  0  0
  187.1040  178.4160  138.4700 C   0  0  0  0  0  2  0  0  0  0  0  0
  184.5450  175.5410  135.8930 C   0  0  2  0  0  3  0  0  0  0  0  0
  190.7090  176.9520  139.6310 C   0  0  0  0  0  0  0  0  0  0  0  0
  191.2980  177.4640  140.7420 F   0  0  0  0  0  0  0  0  0  0  0  0
  189.4020  177.1300  139.4200 C   0  0  0  0  0  3  0  0  0  0  0  0
  191.5280  176.2140  138.6100 C   0  0  0  0  0  2  0  0  0  0  0  0
  188.7910  176.5880  138.1540 C   0  0  2  0  0  3  0  0  0  0  0  0
  191.1720  176.6520  137.1790 C   0  0  0  0  0  2  0  0  0  0  0  0
  189.5800  178.3710  136.7500 F   0  0  0  0  0  0  0  0  0  0  0  0
  189.6840  177.0060  136.9680 C   0  0  2  0  0  3  0  0  0  0  0  0
  182.2320  173.7990  136.7320 O   0  0  0  0  0  0  0  0  0  0  0  0
  180.7220  173.0280  136.6430 P   0  0  0  0  0  0  0  0  0  0  0  0
  179.9550  173.5340  135.4410 O   0  0  0  0  0  0  0  0  0  0  0  0
  179.8310  173.3290  138.0500 O   0  0  0  0  0  1  0  0  0  0  0  0
  180.9610  171.3620  136.4850 O   0  0  0  0  0  1  0  0  0  0  0  0
  1 31  1  1  0  0  0
  1  6  1  0  0  0  0
  2  7  1  0  0  0  0
  3 16  1  6  0  0  0
  4  5  2  0  0  0  0
  5 12  1  0  0  0  0
  6  3  1  0  0  0  0
  7 12  2  0  0  0  0
  9 13  1  0  0  0  0
 10 22  1  0  0  0  0
 10  8  1  0  0  0  0
 11  2  2  0  0  0  0
 11  4  1  0  0  0  0
 12 20  1  0  0  0  0
 13  8  1  1  0  0  0
 13 18  1  0  0  0  0
 14  1  1  0  0  0  0
 15  3  1  0  0  0  0
 15 19  1  6  0  0  0
 17  9  1  1  0  0  0
 17 15  1  0  0  0  0
 18 27  1  0  0  0  0
 18 21  1  6  0  0  0
 19 11  1  0  0  0  0
 21  2  1  0  0  0  0
 22 14  1  6  0  0  0
 22 17  1  0  0  0  0
 23 24  1  0  0  0  0
 25 23  2  0  0  0  0
 26 23  1  0  0  0  0
 27 25  1  1  0  0  0
 28 26  1  0  0  0  0
 30 29  1  1  0  0  0
 30 28  1  0  0  0  0
 30 27  1  0  0  0  0
 32 31  1  0  0  0  0
 32 34  1  0  0  0  0
 33 32  2  0  0  0  0
 35 32  1  0  0  0  0
M  END
>  <MODEL>
9

>  <REMARK>
 VINA RESULT:      -7.1      3.669      6.530
  Name = 
  3 active torsions:
  status: ('A' for Active; 'I' for Inactive)
    1  A    between atoms: C_1  and  O_27
    2  A    between atoms: P_4  and  O_27
    3  A    between atoms: C_25  and  C_28
                            x       y       z     vdW  Elec       q    Type
                         _______ _______ _______ _____ _____    ______ ____

>  <TORSDO>
F 3

$$$$
