=
 OpenBabel11062417553D

 39 44  0  0  1  0  0  0  0  0999 V2000
  187.5340  177.7690  143.0050 C   0  0  1  0  0  3  0  0  0  0  0  0
  192.3240  177.0720  140.1800 N   0  0  0  0  0  2  0  0  0  0  0  0
  189.3800  176.1970  143.6430 C   0  0  0  0  0  2  0  0  0  0  0  0
  189.1590  176.4120  139.8700 C   0  0  0  0  0  2  0  0  0  0  0  0
  193.0950  176.1310  138.0850 C   0  0  0  0  0  3  0  0  0  0  0  0
  190.7280  177.6290  142.0260 C   0  0  1  0  0  3  0  0  0  0  0  0
  192.1700  176.7560  138.8090 C   0  0  0  0  0  0  0  0  0  0  0  0
  191.1710  177.8600  140.5730 C   0  0  2  0  0  3  0  0  0  0  0  0
  188.7040  176.4020  141.2640 N   0  0  1  0  0  0  0  0  0  0  0  0
  189.8530  176.3750  142.1870 C   0  0  2  0  0  3  0  0  0  0  0  0
  190.8660  177.1950  138.2600 C   0  0  0  0  0  2  0  0  0  0  0  0
  190.0880  177.5890  139.5130 C   0  0  1  0  0  0  0  0  0  0  0  0
  187.9050  176.5500  143.8420 C   0  0  0  0  0  2  0  0  0  0  0  0
  187.7950  177.5350  141.5090 C   0  0  0  0  0  2  0  0  0  0  0  0
  189.3460  178.7440  139.2690 O   0  0  0  0  0  1  0  0  0  0  0  0
  186.1140  178.1780  143.2390 C   0  0  0  0  0  0  0  0  0  0  0  0
  185.2020  178.3190  142.1720 C   0  0  0  0  0  3  0  0  0  0  0  0
  186.2500  178.4130  145.7590 C   0  0  0  0  0  3  0  0  0  0  0  0
  183.4300  178.9960  143.7180 C   0  0  0  0  0  3  0  0  0  0  0  0
  185.3120  178.7810  146.6690 N   0  0  0  0  0  2  0  0  0  0  0  0
  183.8660  178.7280  142.4040 C   0  0  0  0  0  0  0  0  0  0  0  0
  185.6400  178.4520  144.5220 C   0  0  0  0  0  0  0  0  0  0  0  0
  184.3550  178.8440  144.7500 C   0  0  0  0  0  0  0  0  0  0  0  0
  184.1590  179.0450  146.0610 N   0  0  0  0  0  0  0  0  0  0  0  0
  182.9480  178.8980  141.3180 N   0  0  0  0  0  2  0  0  0  0  0  0
  182.1430  177.8180  140.7560 C   0  0  2  0  0  3  0  0  0  0  0  0
  183.6500  177.9860  138.7350 C   0  0  0  0  0  3  0  0  0  0  0  0
  182.8190  177.2140  139.5620 C   0  0  0  0  0  0  0  0  0  0  0  0
  184.2890  177.4000  137.6360 C   0  0  0  0  0  3  0  0  0  0  0  0
  184.0990  176.0420  137.3610 C   0  0  0  0  0  3  0  0  0  0  0  0
  182.6310  175.8560  139.2810 C   0  0  0  0  0  3  0  0  0  0  0  0
  183.2700  175.2700  138.1840 C   0  0  0  0  0  3  0  0  0  0  0  0
  180.0620  178.0360  141.4860 C   0  0  0  0  0  1  0  0  0  0  0  0
  180.8860  178.3130  140.3940 O   0  0  0  0  0  0  0  0  0  0  0  0
  191.8740  177.7540  143.0380 C   0  0  0  0  0  2  0  0  0  0  0  0
  191.6650  178.8860  144.0310 C   0  0  0  0  0  1  0  0  0  0  0  0
  194.4160  175.7110  138.6440 C   0  0  0  0  0  2  0  0  0  0  0  0
  194.7870  174.3130  138.1700 C   0  0  0  0  0  2  0  0  0  0  0  0
  195.5270  173.6500  139.1540 O   0  0  0  0  0  1  0  0  0  0  0  0
  1 16  1  6  0  0  0
  1 13  1  0  0  0  0
  3 13  1  0  0  0  0
  5 37  1  0  0  0  0
  5  7  2  0  0  0  0
  6 10  1  0  0  0  0
  6 35  1  1  0  0  0
  7  2  1  0  0  0  0
  8  2  1  6  0  0  0
  8  6  1  0  0  0  0
  9  4  1  6  0  0  0
  9 14  1  0  0  0  0
  9 10  1  0  0  0  0
 10  3  1  1  0  0  0
 11  7  1  0  0  0  0
 11 12  1  0  0  0  0
 12 15  1  6  0  0  0
 12  4  1  0  0  0  0
 12  8  1  0  0  0  0
 14  1  1  0  0  0  0
 16 22  1  0  0  0  0
 17 21  1  0  0  0  0
 17 16  2  0  0  0  0
 18 20  1  0  0  0  0
 19 23  1  0  0  0  0
 21 19  2  0  0  0  0
 22 23  1  0  0  0  0
 22 18  2  0  0  0  0
 23 24  2  0  0  0  0
 24 20  1  0  0  0  0
 25 21  1  0  0  0  0
 26 34  1  6  0  0  0
 26 25  1  0  0  0  0
 27 28  1  0  0  0  0
 28 26  1  0  0  0  0
 29 27  2  0  0  0  0
 30 29  1  0  0  0  0
 30 32  2  0  0  0  0
 31 28  2  0  0  0  0
 32 31  1  0  0  0  0
 34 33  1  0  0  0  0
 35 36  1  0  0  0  0
 38 37  1  0  0  0  0
 38 39  1  0  0  0  0
M  END
>  <MODEL>
1

>  <REMARK>
 VINA RESULT:      -8.2      0.000      0.000
  Name = 
  8 active torsions:
  status: ('A' for Active; 'I' for Inactive)
    1  A    between atoms: C_1  and  C_3
    2  A    between atoms: C_6  and  C_13
    3  A    between atoms: C_9  and  C_18
    4  A    between atoms: C_12  and  C_22
    5  A    between atoms: C_18  and  O_21
    6  A    between atoms: C_18  and  N_23
    7  A    between atoms: C_22  and  C_28
    8  A    between atoms: N_23  and  C_29
                            x       y       z     vdW  Elec       q    Type
                         _______ _______ _______ _____ _____    ______ ____

>  <TORSDO>
F 8

$$$$
=
 OpenBabel11062417553D

 39 44  0  0  1  0  0  0  0  0999 V2000
  184.8940  178.6650  141.6780 C   0  0  1  0  0  3  0  0  0  0  0  0
  180.6220  179.0670  138.0730 N   0  0  0  0  0  2  0  0  0  0  0  0
  185.1040  179.1480  139.2260 C   0  0  0  0  0  2  0  0  0  0  0  0
  182.1860  176.8060  139.8020 C   0  0  0  0  0  2  0  0  0  0  0  0
  178.9780  177.6370  137.0120 C   0  0  0  0  0  3  0  0  0  0  0  0
  182.6230  179.6820  139.4440 C   0  0  1  0  0  3  0  0  0  0  0  0
  179.7510  177.9510  138.0490 C   0  0  0  0  0  0  0  0  0  0  0  0
  181.1840  179.1470  139.4090 C   0  0  2  0  0  3  0  0  0  0  0  0
  183.4990  177.4230  140.0090 N   0  0  1  0  0  0  0  0  0  0  0  0
  183.6670  178.5960  139.1310 C   0  0  2  0  0  3  0  0  0  0  0  0
  179.7890  177.1630  139.3040 C   0  0  0  0  0  2  0  0  0  0  0  0
  180.9930  177.7530  140.0350 C   0  0  1  0  0  0  0  0  0  0  0  0
  185.8420  178.6860  140.4840 C   0  0  0  0  0  2  0  0  0  0  0  0
  183.6920  177.7390  141.4350 C   0  0  0  0  0  2  0  0  0  0  0  0
  180.7140  177.8660  141.3960 O   0  0  0  0  0  1  0  0  0  0  0  0
  185.6110  178.2860  142.9350 C   0  0  0  0  0  0  0  0  0  0  0  0
  186.8750  177.6600  142.9030 C   0  0  0  0  0  3  0  0  0  0  0  0
  183.8580  179.1020  144.5720 C   0  0  0  0  0  3  0  0  0  0  0  0
  186.9280  177.5450  145.3470 C   0  0  0  0  0  3  0  0  0  0  0  0
  183.8240  179.0690  145.9300 N   0  0  0  0  0  2  0  0  0  0  0  0
  187.5340  177.2870  144.1000 C   0  0  0  0  0  0  0  0  0  0  0  0
  185.0490  178.5230  144.1900 C   0  0  0  0  0  0  0  0  0  0  0  0
  185.6800  178.1670  145.3440 C   0  0  0  0  0  0  0  0  0  0  0  0
  184.9300  178.5010  146.4020 N   0  0  0  0  0  0  0  0  0  0  0  0
  188.8050  176.6270  144.0670 N   0  0  0  0  0  2  0  0  0  0  0  0
  190.0830  177.3140  144.2230 C   0  0  2  0  0  3  0  0  0  0  0  0
  190.4530  177.3780  146.7220 C   0  0  0  0  0  3  0  0  0  0  0  0
  190.7890  176.8540  145.4630 C   0  0  0  0  0  0  0  0  0  0  0  0
  191.1090  176.9230  147.8710 C   0  0  0  0  0  3  0  0  0  0  0  0
  192.1010  175.9430  147.7660 C   0  0  0  0  0  3  0  0  0  0  0  0
  191.7840  175.8750  145.3640 C   0  0  0  0  0  3  0  0  0  0  0  0
  192.4390  175.4190  146.5130 C   0  0  0  0  0  3  0  0  0  0  0  0
  191.0910  179.2640  143.9290 C   0  0  0  0  0  1  0  0  0  0  0  0
  189.8670  178.6940  144.2790 O   0  0  0  0  0  0  0  0  0  0  0  0
  182.8030  180.9950  138.6710 C   0  0  0  0  0  2  0  0  0  0  0  0
  181.5040  181.5120  138.0750 C   0  0  0  0  0  1  0  0  0  0  0  0
  178.9330  178.4490  135.7590 C   0  0  0  0  0  2  0  0  0  0  0  0
  179.9860  177.9790  134.7670 C   0  0  0  0  0  2  0  0  0  0  0  0
  180.1610  176.5950  134.8670 O   0  0  0  0  0  1  0  0  0  0  0  0
  1 16  1  1  0  0  0
  3 13  1  0  0  0  0
  4 12  1  0  0  0  0
  5  7  2  0  0  0  0
  6 35  1  6  0  0  0
  7  2  1  0  0  0  0
  7 11  1  0  0  0  0
  8  2  1  6  0  0  0
  8  6  1  0  0  0  0
  8 12  1  0  0  0  0
  9  4  1  1  0  0  0
  9 14  1  0  0  0  0
 10  3  1  1  0  0  0
 10  6  1  0  0  0  0
 10  9  1  0  0  0  0
 11 12  1  0  0  0  0
 12 15  1  1  0  0  0
 13  1  1  0  0  0  0
 14  1  1  0  0  0  0
 16 22  1  0  0  0  0
 17 16  2  0  0  0  0
 17 21  1  0  0  0  0
 18 20  1  0  0  0  0
 20 24  1  0  0  0  0
 21 19  2  0  0  0  0
 22 18  2  0  0  0  0
 22 23  1  0  0  0  0
 23 19  1  0  0  0  0
 23 24  2  0  0  0  0
 25 21  1  0  0  0  0
 26 25  1  1  0  0  0
 26 34  1  0  0  0  0
 26 28  1  0  0  0  0
 27 29  1  0  0  0  0
 28 27  2  0  0  0  0
 30 29  2  0  0  0  0
 31 28  1  0  0  0  0
 31 32  2  0  0  0  0
 32 30  1  0  0  0  0
 33 34  1  0  0  0  0
 36 35  1  0  0  0  0
 37  5  1  0  0  0  0
 38 39  1  0  0  0  0
 38 37  1  0  0  0  0
M  END
>  <MODEL>
2

>  <REMARK>
 VINA RESULT:      -7.8      3.514      9.368
  Name = 
  8 active torsions:
  status: ('A' for Active; 'I' for Inactive)
    1  A    between atoms: C_1  and  C_3
    2  A    between atoms: C_6  and  C_13
    3  A    between atoms: C_9  and  C_18
    4  A    between atoms: C_12  and  C_22
    5  A    between atoms: C_18  and  O_21
    6  A    between atoms: C_18  and  N_23
    7  A    between atoms: C_22  and  C_28
    8  A    between atoms: N_23  and  C_29
                            x       y       z     vdW  Elec       q    Type
                         _______ _______ _______ _____ _____    ______ ____

>  <TORSDO>
F 8

$$$$
=
 OpenBabel11062417553D

 39 44  0  0  1  0  0  0  0  0999 V2000
  184.7040  178.6390  141.6620 C   0  0  1  0  0  3  0  0  0  0  0  0
  180.5340  178.8700  137.9250 N   0  0  0  0  0  2  0  0  0  0  0  0
  184.9760  179.0810  139.2090 C   0  0  0  0  0  2  0  0  0  0  0  0
  182.0980  176.6800  139.7430 C   0  0  0  0  0  2  0  0  0  0  0  0
  178.9580  177.3810  136.8430 C   0  0  0  0  0  3  0  0  0  0  0  0
  182.4780  179.5590  139.3430 C   0  0  1  0  0  3  0  0  0  0  0  0
  179.6910  177.7330  137.8970 C   0  0  0  0  0  0  0  0  0  0  0  0
  181.0530  178.9880  139.2750 C   0  0  2  0  0  3  0  0  0  0  0  0
  183.3890  177.3330  139.9770 N   0  0  1  0  0  0  0  0  0  0  0  0
  183.5560  178.4930  139.0830 C   0  0  2  0  0  3  0  0  0  0  0  0
  179.7100  176.9700  139.1670 C   0  0  0  0  0  2  0  0  0  0  0  0
  180.8760  177.6020  139.9220 C   0  0  1  0  0  0  0  0  0  0  0  0
  185.6870  178.6610  140.4970 C   0  0  0  0  0  2  0  0  0  0  0  0
  183.5310  177.6800  141.4010 C   0  0  0  0  0  2  0  0  0  0  0  0
  180.5530  177.7340  141.2720 O   0  0  0  0  0  1  0  0  0  0  0  0
  185.3910  178.3010  142.9470 C   0  0  0  0  0  0  0  0  0  0  0  0
  186.6780  177.7240  142.9660 C   0  0  0  0  0  3  0  0  0  0  0  0
  183.5530  179.0670  144.5150 C   0  0  0  0  0  3  0  0  0  0  0  0
  186.6510  177.6360  145.4110 C   0  0  0  0  0  3  0  0  0  0  0  0
  183.4750  179.0480  145.8710 N   0  0  0  0  0  2  0  0  0  0  0  0
  187.3090  177.3890  144.1890 C   0  0  0  0  0  0  0  0  0  0  0  0
  184.7780  178.5300  144.1800 C   0  0  0  0  0  0  0  0  0  0  0  0
  185.3820  178.2100  145.3590 C   0  0  0  0  0  0  0  0  0  0  0  0
  184.5840  178.5270  146.3870 N   0  0  0  0  0  0  0  0  0  0  0  0
  188.6040  176.7770  144.2070 N   0  0  0  0  0  2  0  0  0  0  0  0
  189.8540  177.5130  144.0460 C   0  0  2  0  0  3  0  0  0  0  0  0
  191.7000  177.4970  142.3200 C   0  0  0  0  0  3  0  0  0  0  0  0
  190.3300  177.4530  142.6250 C   0  0  0  0  0  0  0  0  0  0  0  0
  192.1260  177.4210  140.9890 C   0  0  0  0  0  3  0  0  0  0  0  0
  191.1870  177.2990  139.9610 C   0  0  0  0  0  3  0  0  0  0  0  0
  189.3940  177.3330  141.5930 C   0  0  0  0  0  3  0  0  0  0  0  0
  189.8200  177.2550  140.2620 C   0  0  0  0  0  3  0  0  0  0  0  0
  190.2930  177.1200  146.1820 C   0  0  0  0  0  1  0  0  0  0  0  0
  190.8240  176.9760  144.8990 O   0  0  0  0  0  0  0  0  0  0  0  0
  182.6490  180.8610  138.5510 C   0  0  0  0  0  2  0  0  0  0  0  0
  181.4120  181.7430  138.5890 C   0  0  0  0  0  1  0  0  0  0  0  0
  178.9310  178.1680  135.5740 C   0  0  0  0  0  2  0  0  0  0  0  0
  180.1920  177.9280  134.7580 C   0  0  0  0  0  2  0  0  0  0  0  0
  180.8980  179.1240  134.5950 O   0  0  0  0  0  1  0  0  0  0  0  0
  1 16  1  1  0  0  0
  3 13  1  0  0  0  0
  4 12  1  0  0  0  0
  5  7  2  0  0  0  0
  6 35  1  6  0  0  0
  7  2  1  0  0  0  0
  7 11  1  0  0  0  0
  8  2  1  6  0  0  0
  8  6  1  0  0  0  0
  8 12  1  0  0  0  0
  9  4  1  1  0  0  0
  9 14  1  0  0  0  0
 10  3  1  1  0  0  0
 10  6  1  0  0  0  0
 10  9  1  0  0  0  0
 11 12  1  0  0  0  0
 12 15  1  1  0  0  0
 13  1  1  0  0  0  0
 14  1  1  0  0  0  0
 16 17  2  0  0  0  0
 16 22  1  0  0  0  0
 17 21  1  0  0  0  0
 18 20  1  0  0  0  0
 20 24  1  0  0  0  0
 21 25  1  0  0  0  0
 21 19  2  0  0  0  0
 22 18  2  0  0  0  0
 22 23  1  0  0  0  0
 23 19  1  0  0  0  0
 23 24  2  0  0  0  0
 26 25  1  6  0  0  0
 26 34  1  0  0  0  0
 27 28  1  0  0  0  0
 28 26  1  0  0  0  0
 29 27  2  0  0  0  0
 30 32  2  0  0  0  0
 30 29  1  0  0  0  0
 31 28  2  0  0  0  0
 32 31  1  0  0  0  0
 34 33  1  0  0  0  0
 35 36  1  0  0  0  0
 37  5  1  0  0  0  0
 38 37  1  0  0  0  0
 39 38  1  0  0  0  0
M  END
>  <MODEL>
3

>  <REMARK>
 VINA RESULT:      -7.8      2.650      8.810
  Name = 
  8 active torsions:
  status: ('A' for Active; 'I' for Inactive)
    1  A    between atoms: C_1  and  C_3
    2  A    between atoms: C_6  and  C_13
    3  A    between atoms: C_9  and  C_18
    4  A    between atoms: C_12  and  C_22
    5  A    between atoms: C_18  and  O_21
    6  A    between atoms: C_18  and  N_23
    7  A    between atoms: C_22  and  C_28
    8  A    between atoms: N_23  and  C_29
                            x       y       z     vdW  Elec       q    Type
                         _______ _______ _______ _____ _____    ______ ____

>  <TORSDO>
F 8

$$$$
=
 OpenBabel11062417553D

 39 44  0  0  1  0  0  0  0  0999 V2000
  184.1370  178.0810  142.6920 C   0  0  1  0  0  3  0  0  0  0  0  0
  180.9030  177.9140  138.1180 N   0  0  0  0  0  2  0  0  0  0  0  0
  181.8960  179.1810  142.4570 C   0  0  0  0  0  2  0  0  0  0  0  0
  183.6870  179.2520  139.1230 C   0  0  0  0  0  2  0  0  0  0  0  0
  180.8740  178.7970  135.8610 C   0  0  0  0  0  3  0  0  0  0  0  0
  181.6810  177.5970  140.4750 C   0  0  1  0  0  3  0  0  0  0  0  0
  181.5330  178.3400  136.9230 C   0  0  0  0  0  0  0  0  0  0  0  0
  181.9360  177.3670  138.9780 C   0  0  2  0  0  3  0  0  0  0  0  0
  183.5160  179.2730  140.5790 N   0  0  1  0  0  0  0  0  0  0  0  0
  182.1140  178.9970  140.9430 C   0  0  2  0  0  3  0  0  0  0  0  0
  183.0090  178.2240  136.9770 C   0  0  0  0  0  2  0  0  0  0  0  0
  183.2700  177.9280  138.4520 C   0  0  1  0  0  0  0  0  0  0  0  0
  183.1980  179.1390  143.2600 C   0  0  0  0  0  2  0  0  0  0  0  0
  184.4680  178.3460  141.2150 C   0  0  0  0  0  2  0  0  0  0  0  0
  184.2800  176.9750  138.5740 O   0  0  0  0  0  1  0  0  0  0  0  0
  185.3880  177.9700  143.5050 C   0  0  0  0  0  0  0  0  0  0  0  0
  186.6130  177.5780  142.9250 C   0  0  0  0  0  3  0  0  0  0  0  0
  184.3890  178.6350  145.7380 C   0  0  0  0  0  3  0  0  0  0  0  0
  187.7390  177.7340  145.0920 C   0  0  0  0  0  3  0  0  0  0  0  0
  184.9540  178.7410  146.9680 N   0  0  0  0  0  2  0  0  0  0  0  0
  187.7850  177.4560  143.7110 C   0  0  0  0  0  0  0  0  0  0  0  0
  185.3890  178.2370  144.8750 C   0  0  0  0  0  0  0  0  0  0  0  0
  186.5150  178.1220  145.6330 C   0  0  0  0  0  0  0  0  0  0  0  0
  186.2450  178.4300  146.9100 N   0  0  0  0  0  0  0  0  0  0  0  0
  189.0220  177.0300  143.1270 N   0  0  0  0  0  2  0  0  0  0  0  0
  189.8930  177.8990  142.3410 C   0  0  2  0  0  3  0  0  0  0  0  0
  190.8750  176.8210  140.2770 C   0  0  0  0  0  3  0  0  0  0  0  0
  189.8340  177.5390  140.8870 C   0  0  0  0  0  0  0  0  0  0  0  0
  190.7940  176.4790  138.9230 C   0  0  0  0  0  3  0  0  0  0  0  0
  189.6730  176.8510  138.1740 C   0  0  0  0  0  3  0  0  0  0  0  0
  188.7160  177.9120  140.1330 C   0  0  0  0  0  3  0  0  0  0  0  0
  188.6330  177.5680  138.7800 C   0  0  0  0  0  3  0  0  0  0  0  0
  191.2790  178.6690  143.8880 C   0  0  0  0  0  1  0  0  0  0  0  0
  191.2060  177.7870  142.8090 O   0  0  0  0  0  0  0  0  0  0  0  0
  180.2790  177.1690  140.9260 C   0  0  0  0  0  2  0  0  0  0  0  0
  179.9660  175.7200  140.5880 C   0  0  0  0  0  1  0  0  0  0  0  0
  179.3840  178.8910  135.8100 C   0  0  0  0  0  2  0  0  0  0  0  0
  178.9310  180.3430  135.7800 C   0  0  0  0  0  2  0  0  0  0  0  0
  180.0140  181.1820  135.5000 O   0  0  0  0  0  1  0  0  0  0  0  0
  1 13  1  0  0  0  0
  1 16  1  1  0  0  0
  3 13  1  0  0  0  0
  5  7  2  0  0  0  0
  6 35  1  6  0  0  0
  6 10  1  0  0  0  0
  7 11  1  0  0  0  0
  7  2  1  0  0  0  0
  8  2  1  6  0  0  0
  8  6  1  0  0  0  0
  9  4  1  6  0  0  0
  9 10  1  0  0  0  0
  9 14  1  0  0  0  0
 10  3  1  1  0  0  0
 11 12  1  0  0  0  0
 12 15  1  1  0  0  0
 12  8  1  0  0  0  0
 12  4  1  0  0  0  0
 14  1  1  0  0  0  0
 16 22  1  0  0  0  0
 17 16  2  0  0  0  0
 17 21  1  0  0  0  0
 18 20  1  0  0  0  0
 19 23  1  0  0  0  0
 21 19  2  0  0  0  0
 22 23  1  0  0  0  0
 22 18  2  0  0  0  0
 23 24  2  0  0  0  0
 24 20  1  0  0  0  0
 25 21  1  0  0  0  0
 26 34  1  1  0  0  0
 26 25  1  0  0  0  0
 27 28  1  0  0  0  0
 28 26  1  0  0  0  0
 29 27  2  0  0  0  0
 30 32  2  0  0  0  0
 30 29  1  0  0  0  0
 31 28  2  0  0  0  0
 32 31  1  0  0  0  0
 34 33  1  0  0  0  0
 36 35  1  0  0  0  0
 37  5  1  0  0  0  0
 38 37  1  0  0  0  0
 39 38  1  0  0  0  0
M  END
>  <MODEL>
4

>  <REMARK>
 VINA RESULT:      -7.5      2.355      8.487
  Name = 
  8 active torsions:
  status: ('A' for Active; 'I' for Inactive)
    1  A    between atoms: C_1  and  C_3
    2  A    between atoms: C_6  and  C_13
    3  A    between atoms: C_9  and  C_18
    4  A    between atoms: C_12  and  C_22
    5  A    between atoms: C_18  and  O_21
    6  A    between atoms: C_18  and  N_23
    7  A    between atoms: C_22  and  C_28
    8  A    between atoms: N_23  and  C_29
                            x       y       z     vdW  Elec       q    Type
                         _______ _______ _______ _____ _____    ______ ____

>  <TORSDO>
F 8

$$$$
=
 OpenBabel11062417553D

 39 44  0  0  1  0  0  0  0  0999 V2000
  186.6430  177.6740  138.0080 C   0  0  1  0  0  3  0  0  0  0  0  0
  191.6360  175.6270  136.4960 N   0  0  0  0  0  2  0  0  0  0  0  0
  187.6650  177.8770  135.7270 C   0  0  0  0  0  2  0  0  0  0  0  0
  190.3970  177.9930  138.3450 C   0  0  0  0  0  2  0  0  0  0  0  0
  193.9880  176.0480  136.9000 C   0  0  0  0  0  3  0  0  0  0  0  0
  189.1640  176.0040  136.5800 C   0  0  1  0  0  3  0  0  0  0  0  0
  192.7220  176.0340  137.3090 C   0  0  0  0  0  0  0  0  0  0  0  0
  190.4490  175.6250  137.3310 C   0  0  2  0  0  3  0  0  0  0  0  0
  189.0770  178.2010  137.7430 N   0  0  1  0  0  0  0  0  0  0  0  0
  188.9880  177.5250  136.4350 C   0  0  2  0  0  3  0  0  0  0  0  0
  192.3000  176.4450  138.6680 C   0  0  0  0  0  2  0  0  0  0  0  0
  190.7810  176.5130  138.5440 C   0  0  1  0  0  0  0  0  0  0  0  0
  186.6010  178.4230  136.6810 C   0  0  0  0  0  2  0  0  0  0  0  0
  188.0200  177.7820  138.6800 C   0  0  0  0  0  2  0  0  0  0  0  0
  190.1850  176.0020  139.6960 O   0  0  0  0  0  1  0  0  0  0  0  0
  185.5630  178.1410  138.9310 C   0  0  0  0  0  0  0  0  0  0  0  0
  185.8610  178.7070  140.1890 C   0  0  0  0  0  2  0  0  0  0  0  0
  183.5880  177.5270  137.4660 C   0  0  0  0  0  3  0  0  0  0  0  0
  183.4800  178.9840  140.6780 C   0  0  0  0  0  3  0  0  0  0  0  0
  182.2520  177.6540  137.6750 N   0  0  0  0  0  0  0  0  0  0  0  0
  184.8280  179.1260  141.0630 C   0  0  0  0  0  0  0  0  0  0  0  0
  184.2150  178.0220  138.5900 C   0  0  0  0  0  0  0  0  0  0  0  0
  183.2190  178.4250  139.4280 C   0  0  0  0  0  0  0  0  0  0  0  0
  182.0230  178.1980  138.8660 N   0  0  0  0  0  0  0  0  0  0  0  0
  185.1310  179.6740  142.3510 N   0  0  0  0  0  2  0  0  0  0  0  0
  184.5380  179.1980  143.5980 C   0  0  2  0  0  3  0  0  0  0  0  0
  186.6130  177.8020  143.9560 C   0  0  0  0  0  3  0  0  0  0  0  0
  185.5820  178.5920  144.4880 C   0  0  0  0  0  0  0  0  0  0  0  0
  187.5900  177.2600  144.8010 C   0  0  0  0  0  3  0  0  0  0  0  0
  187.5390  177.5070  146.1760 C   0  0  0  0  0  3  0  0  0  0  0  0
  185.5340  178.8340  145.8650 C   0  0  0  0  0  3  0  0  0  0  0  0
  186.5100  178.2940  146.7080 C   0  0  0  0  0  3  0  0  0  0  0  0
  182.4410  178.6570  144.0620 C   0  0  0  0  0  1  0  0  0  0  0  0
  183.5470  178.2550  143.3120 O   0  0  0  0  0  0  0  0  0  0  0  0
  188.9540  175.2010  135.2900 C   0  0  0  0  0  2  0  0  0  0  0  0
  188.3770  173.8180  135.5420 C   0  0  0  0  0  1  0  0  0  0  0  0
  194.4050  175.6120  135.5330 C   0  0  0  0  0  2  0  0  0  0  0  0
  194.9460  176.7860  134.7300 C   0  0  0  0  0  2  0  0  0  0  0  0
  195.3970  177.7930  135.5890 O   0  0  0  0  0  1  0  0  0  0  0  0
  1 14  1  0  0  0  0
  1 16  1  1  0  0  0
  2  7  1  0  0  0  0
  3 13  1  0  0  0  0
  4 12  1  0  0  0  0
  5  7  2  0  0  0  0
  6 35  1  6  0  0  0
  6  8  1  0  0  0  0
  7 11  1  0  0  0  0
  8  2  1  6  0  0  0
  8 12  1  0  0  0  0
  9  4  1  1  0  0  0
  9 14  1  0  0  0  0
 10  3  1  1  0  0  0
 10  6  1  0  0  0  0
 10  9  1  0  0  0  0
 12 11  1  0  0  0  0
 12 15  1  1  0  0  0
 13  1  1  0  0  0  0
 16 17  1  0  0  0  0
 17 21  1  0  0  0  0
 18 20  2  0  0  0  0
 18 22  1  0  0  0  0
 19 21  2  0  0  0  0
 20 24  1  0  0  0  0
 21 25  1  0  0  0  0
 22 16  2  0  0  0  0
 22 23  1  0  0  0  0
 23 19  1  0  0  0  0
 24 23  2  0  0  0  0
 26 25  1  6  0  0  0
 26 28  1  0  0  0  0
 27 28  2  0  0  0  0
 27 29  1  0  0  0  0
 28 31  1  0  0  0  0
 29 30  2  0  0  0  0
 30 32  1  0  0  0  0
 31 32  2  0  0  0  0
 34 26  1  0  0  0  0
 34 33  1  0  0  0  0
 35 36  1  0  0  0  0
 37  5  1  0  0  0  0
 38 37  1  0  0  0  0
 38 39  1  0  0  0  0
M  END
>  <MODEL>
5

>  <REMARK>
 VINA RESULT:      -7.4      2.646      5.770
  Name = 
  8 active torsions:
  status: ('A' for Active; 'I' for Inactive)
    1  A    between atoms: C_1  and  C_3
    2  A    between atoms: C_6  and  C_13
    3  A    between atoms: C_9  and  C_18
    4  A    between atoms: C_12  and  C_22
    5  A    between atoms: C_18  and  O_21
    6  A    between atoms: C_18  and  N_23
    7  A    between atoms: C_22  and  C_28
    8  A    between atoms: N_23  and  C_29
                            x       y       z     vdW  Elec       q    Type
                         _______ _______ _______ _____ _____    ______ ____

>  <TORSDO>
F 8

$$$$
=
 OpenBabel11062417553D

 39 44  0  0  1  0  0  0  0  0999 V2000
  187.4080  177.8180  142.8800 C   0  0  1  0  0  3  0  0  0  0  0  0
  192.2620  177.0900  140.1760 N   0  0  0  0  0  2  0  0  0  0  0  0
  189.2530  176.2810  143.5990 C   0  0  0  0  0  2  0  0  0  0  0  0
  189.1100  176.3930  139.8180 C   0  0  0  0  0  2  0  0  0  0  0  0
  193.0860  176.1000  138.1240 C   0  0  0  0  0  3  0  0  0  0  0  0
  190.6230  177.6810  141.9720 C   0  0  1  0  0  3  0  0  0  0  0  0
  192.1410  176.7360  138.8110 C   0  0  0  0  0  0  0  0  0  0  0  0
  191.0940  177.8780  140.5240 C   0  0  2  0  0  3  0  0  0  0  0  0
  188.6260  176.4160  141.2010 N   0  0  1  0  0  0  0  0  0  0  0  0
  189.7560  176.4240  142.1490 C   0  0  2  0  0  3  0  0  0  0  0  0
  190.8450  177.1480  138.2230 C   0  0  0  0  0  2  0  0  0  0  0  0
  190.0370  177.5680  139.4480 C   0  0  1  0  0  0  0  0  0  0  0  0
  187.7710  176.6260  143.7570 C   0  0  0  0  0  2  0  0  0  0  0  0
  187.7030  177.5460  141.3970 C   0  0  0  0  0  2  0  0  0  0  0  0
  189.2910  178.7090  139.1580 O   0  0  0  0  0  1  0  0  0  0  0  0
  185.9800  178.2210  143.0730 C   0  0  0  0  0  0  0  0  0  0  0  0
  185.1080  178.3930  141.9780 C   0  0  0  0  0  3  0  0  0  0  0  0
  186.0210  178.3800  145.6020 C   0  0  0  0  0  3  0  0  0  0  0  0
  183.2800  179.0240  143.4760 C   0  0  0  0  0  3  0  0  0  0  0  0
  185.0500  178.7210  146.4880 N   0  0  0  0  0  2  0  0  0  0  0  0
  183.7640  178.7950  142.1720 C   0  0  0  0  0  0  0  0  0  0  0  0
  185.4580  178.4560  144.3450 C   0  0  0  0  0  0  0  0  0  0  0  0
  184.1650  178.8410  144.5370 C   0  0  0  0  0  0  0  0  0  0  0  0
  183.9200  179.0030  145.8440 N   0  0  0  0  0  0  0  0  0  0  0  0
  182.8870  178.9980  141.0580 N   0  0  0  0  0  2  0  0  0  0  0  0
  183.0910  178.4010  139.7420 C   0  0  2  0  0  3  0  0  0  0  0  0
  181.8950  180.4590  138.8930 C   0  0  0  0  0  3  0  0  0  0  0  0
  182.3000  179.1290  138.6960 C   0  0  0  0  0  0  0  0  0  0  0  0
  181.1730  181.1280  137.8980 C   0  0  0  0  0  3  0  0  0  0  0  0
  180.8560  180.4720  136.7050 C   0  0  0  0  0  3  0  0  0  0  0  0
  181.9780  178.4760  137.5020 C   0  0  0  0  0  3  0  0  0  0  0  0
  181.2580  179.1460  136.5060 C   0  0  0  0  0  3  0  0  0  0  0  0
  181.4150  177.0600  140.2890 C   0  0  0  0  0  1  0  0  0  0  0  0
  182.7140  177.0550  139.7770 O   0  0  0  0  0  0  0  0  0  0  0  0
  191.7470  177.8430  143.0040 C   0  0  0  0  0  2  0  0  0  0  0  0
  191.5010  178.9930  143.9680 C   0  0  0  0  0  1  0  0  0  0  0  0
  194.3980  175.7070  138.7210 C   0  0  0  0  0  2  0  0  0  0  0  0
  194.9130  174.4160  138.1020 C   0  0  0  0  0  2  0  0  0  0  0  0
  195.4340  173.5780  139.0940 O   0  0  0  0  0  1  0  0  0  0  0  0
  1 16  1  6  0  0  0
  1 13  1  0  0  0  0
  3 13  1  0  0  0  0
  5 37  1  0  0  0  0
  5  7  2  0  0  0  0
  6 10  1  0  0  0  0
  6 35  1  1  0  0  0
  7  2  1  0  0  0  0
  8  2  1  6  0  0  0
  8  6  1  0  0  0  0
  9  4  1  6  0  0  0
  9 14  1  0  0  0  0
  9 10  1  0  0  0  0
 10  3  1  1  0  0  0
 11  7  1  0  0  0  0
 11 12  1  0  0  0  0
 12 15  1  6  0  0  0
 12  4  1  0  0  0  0
 12  8  1  0  0  0  0
 14  1  1  0  0  0  0
 16 22  1  0  0  0  0
 17 21  1  0  0  0  0
 17 16  2  0  0  0  0
 18 20  1  0  0  0  0
 19 23  1  0  0  0  0
 21 19  2  0  0  0  0
 22 23  1  0  0  0  0
 22 18  2  0  0  0  0
 23 24  2  0  0  0  0
 24 20  1  0  0  0  0
 25 21  1  0  0  0  0
 26 34  1  1  0  0  0
 26 25  1  0  0  0  0
 28 27  1  0  0  0  0
 28 26  1  0  0  0  0
 29 27  2  0  0  0  0
 30 29  1  0  0  0  0
 31 28  2  0  0  0  0
 32 30  2  0  0  0  0
 32 31  1  0  0  0  0
 34 33  1  0  0  0  0
 35 36  1  0  0  0  0
 38 37  1  0  0  0  0
 38 39  1  0  0  0  0
M  END
>  <MODEL>
6

>  <REMARK>
 VINA RESULT:      -7.4      1.368      1.705
  Name = 
  8 active torsions:
  status: ('A' for Active; 'I' for Inactive)
    1  A    between atoms: C_1  and  C_3
    2  A    between atoms: C_6  and  C_13
    3  A    between atoms: C_9  and  C_18
    4  A    between atoms: C_12  and  C_22
    5  A    between atoms: C_18  and  O_21
    6  A    between atoms: C_18  and  N_23
    7  A    between atoms: C_22  and  C_28
    8  A    between atoms: N_23  and  C_29
                            x       y       z     vdW  Elec       q    Type
                         _______ _______ _______ _____ _____    ______ ____

>  <TORSDO>
F 8

$$$$
=
 OpenBabel11062417553D

 39 44  0  0  1  0  0  0  0  0999 V2000
  187.2940  177.8510  140.7370 C   0  0  1  0  0  3  0  0  0  0  0  0
  183.0150  177.3050  137.1610 N   0  0  0  0  0  2  0  0  0  0  0  0
  185.1650  179.1730  140.8090 C   0  0  0  0  0  2  0  0  0  0  0  0
  186.0620  178.4260  137.2080 C   0  0  0  0  0  2  0  0  0  0  0  0
  182.4930  177.7750  134.8410 C   0  0  0  0  0  3  0  0  0  0  0  0
  184.3290  177.3080  139.2900 C   0  0  1  0  0  3  0  0  0  0  0  0
  183.3570  177.4290  135.7930 C   0  0  0  0  0  0  0  0  0  0  0  0
  184.1810  176.7880  137.8520 C   0  0  2  0  0  3  0  0  0  0  0  0
  186.2640  178.7240  138.6290 N   0  0  1  0  0  0  0  0  0  0  0  0
  184.9800  178.7000  139.3530 C   0  0  2  0  0  3  0  0  0  0  0  0
  184.7850  177.1350  135.5270 C   0  0  0  0  0  2  0  0  0  0  0  0
  185.3820  177.0710  136.9310 C   0  0  1  0  0  0  0  0  0  0  0  0
  186.6190  179.1040  141.2820 C   0  0  0  0  0  2  0  0  0  0  0  0
  187.2650  177.8080  139.2020 C   0  0  0  0  0  2  0  0  0  0  0  0
  186.3080  176.0320  137.0070 O   0  0  0  0  0  1  0  0  0  0  0  0
  188.6960  177.7240  141.2460 C   0  0  0  0  0  0  0  0  0  0  0  0
  189.0130  177.9580  142.6010 C   0  0  0  0  0  2  0  0  0  0  0  0
  189.7880  177.0920  139.0480 C   0  0  0  0  0  3  0  0  0  0  0  0
  191.3790  177.5090  142.1700 C   0  0  0  0  0  3  0  0  0  0  0  0
  191.0850  176.8310  138.7420 N   0  0  0  0  0  0  0  0  0  0  0  0
  190.3470  177.8560  143.0650 C   0  0  0  0  0  0  0  0  0  0  0  0
  189.7480  177.3820  140.3960 C   0  0  0  0  0  0  0  0  0  0  0  0
  191.0320  177.2810  140.8390 C   0  0  0  0  0  0  0  0  0  0  0  0
  191.8450  176.9460  139.8280 N   0  0  0  0  0  0  0  0  0  0  0  0
  190.6720  178.1210  144.4350 N   0  0  0  0  0  2  0  0  0  0  0  0
  190.4680  177.1670  145.5200 C   0  0  2  0  0  3  0  0  0  0  0  0
  187.9830  177.5380  145.7870 C   0  0  0  0  0  3  0  0  0  0  0  0
  189.2720  177.5420  146.3430 C   0  0  0  0  0  0  0  0  0  0  0  0
  186.8760  177.8730  146.5760 C   0  0  0  0  0  3  0  0  0  0  0  0
  187.0540  178.2110  147.9200 C   0  0  0  0  0  3  0  0  0  0  0  0
  189.4450  177.8840  147.6880 C   0  0  0  0  0  3  0  0  0  0  0  0
  188.3390  178.2170  148.4770 C   0  0  0  0  0  3  0  0  0  0  0  0
  192.0560  175.8060  146.2520 C   0  0  0  0  0  1  0  0  0  0  0  0
  191.6100  177.1270  146.3260 O   0  0  0  0  0  0  0  0  0  0  0  0
  183.0540  177.1500  140.1280 C   0  0  0  0  0  2  0  0  0  0  0  0
  182.2480  175.9180  139.7500 C   0  0  0  0  0  1  0  0  0  0  0  0
  181.0510  178.0500  135.1170 C   0  0  0  0  0  2  0  0  0  0  0  0
  180.2040  176.8090  134.8710 C   0  0  0  0  0  2  0  0  0  0  0  0
  179.9270  176.1660  136.0820 O   0  0  0  0  0  1  0  0  0  0  0  0
  1 16  1  6  0  0  0
  1 13  1  0  0  0  0
  3 13  1  0  0  0  0
  5 37  1  0  0  0  0
  5  7  2  0  0  0  0
  6 10  1  0  0  0  0
  6 35  1  6  0  0  0
  7  2  1  0  0  0  0
  8  2  1  6  0  0  0
  8  6  1  0  0  0  0
  9  4  1  6  0  0  0
  9 14  1  0  0  0  0
  9 10  1  0  0  0  0
 10  3  1  1  0  0  0
 11  7  1  0  0  0  0
 11 12  1  0  0  0  0
 12 15  1  1  0  0  0
 12  4  1  0  0  0  0
 12  8  1  0  0  0  0
 14  1  1  0  0  0  0
 16 17  1  0  0  0  0
 17 21  1  0  0  0  0
 18 22  1  0  0  0  0
 19 21  2  0  0  0  0
 20 18  2  0  0  0  0
 20 24  1  0  0  0  0
 21 25  1  0  0  0  0
 22 23  1  0  0  0  0
 22 16  2  0  0  0  0
 23 19  1  0  0  0  0
 24 23  2  0  0  0  0
 26 25  1  6  0  0  0
 26 34  1  0  0  0  0
 26 28  1  0  0  0  0
 27 28  2  0  0  0  0
 27 29  1  0  0  0  0
 28 31  1  0  0  0  0
 29 30  2  0  0  0  0
 30 32  1  0  0  0  0
 31 32  2  0  0  0  0
 33 34  1  0  0  0  0
 36 35  1  0  0  0  0
 38 37  1  0  0  0  0
 38 39  1  0  0  0  0
M  END
>  <MODEL>
7

>  <REMARK>
 VINA RESULT:      -7.1      3.158      8.980
  Name = 
  8 active torsions:
  status: ('A' for Active; 'I' for Inactive)
    1  A    between atoms: C_1  and  C_3
    2  A    between atoms: C_6  and  C_13
    3  A    between atoms: C_9  and  C_18
    4  A    between atoms: C_12  and  C_22
    5  A    between atoms: C_18  and  O_21
    6  A    between atoms: C_18  and  N_23
    7  A    between atoms: C_22  and  C_28
    8  A    between atoms: N_23  and  C_29
                            x       y       z     vdW  Elec       q    Type
                         _______ _______ _______ _____ _____    ______ ____

>  <TORSDO>
F 8

$$$$
=
 OpenBabel11062417553D

 39 44  0  0  1  0  0  0  0  0999 V2000
  186.4500  178.2780  142.6880 C   0  0  1  0  0  3  0  0  0  0  0  0
  190.5430  177.1830  146.3550 N   0  0  0  0  0  2  0  0  0  0  0  0
  186.1240  177.3370  144.9890 C   0  0  0  0  0  2  0  0  0  0  0  0
  189.3750  176.0400  143.5490 C   0  0  0  0  0  2  0  0  0  0  0  0
  192.3660  175.6140  146.6540 C   0  0  0  0  0  3  0  0  0  0  0  0
  188.4970  178.1950  145.3300 C   0  0  1  0  0  3  0  0  0  0  0  0
  191.5740  176.3420  145.8700 C   0  0  0  0  0  0  0  0  0  0  0  0
  190.0000  177.9010  145.2170 C   0  0  2  0  0  3  0  0  0  0  0  0
  187.9870  176.5100  143.5730 N   0  0  1  0  0  0  0  0  0  0  0  0
  187.6250  176.9970  144.9170 C   0  0  2  0  0  3  0  0  0  0  0  0
  191.6800  176.3550  144.3920 C   0  0  0  0  0  2  0  0  0  0  0  0
  190.4140  177.0970  143.9710 C   0  0  1  0  0  0  0  0  0  0  0  0
  185.4880  177.5410  143.6120 C   0  0  0  0  0  2  0  0  0  0  0  0
  187.7750  177.5180  142.5200 C   0  0  0  0  0  2  0  0  0  0  0  0
  190.6980  177.9570  142.9110 O   0  0  0  0  0  1  0  0  0  0  0  0
  185.8230  178.5530  141.3570 C   0  0  0  0  0  0  0  0  0  0  0  0
  184.4500  178.8520  141.2370 C   0  0  0  0  0  2  0  0  0  0  0  0
  187.9050  178.2530  139.9440 C   0  0  0  0  0  3  0  0  0  0  0  0
  184.6570  179.0330  138.8060 C   0  0  0  0  0  3  0  0  0  0  0  0
  188.0880  178.3380  138.6010 N   0  0  0  0  0  0  0  0  0  0  0  0
  183.8640  179.0890  139.9690 C   0  0  0  0  0  0  0  0  0  0  0  0
  186.5710  178.5080  140.1800 C   0  0  0  0  0  0  0  0  0  0  0  0
  186.0110  178.7380  138.9590 C   0  0  0  0  0  0  0  0  0  0  0  0
  186.9390  178.6320  137.9980 N   0  0  0  0  0  0  0  0  0  0  0  0
  182.4640  179.3650  139.8450 N   0  0  0  0  0  2  0  0  0  0  0  0
  181.6710  179.0370  138.6640 C   0  0  2  0  0  3  0  0  0  0  0  0
  181.5050  181.5510  138.4630 C   0  0  0  0  0  3  0  0  0  0  0  0
  181.3050  180.2780  137.9050 C   0  0  0  0  0  0  0  0  0  0  0  0
  181.1750  182.6980  137.7310 C   0  0  0  0  0  3  0  0  0  0  0  0
  180.6470  182.5760  136.4420 C   0  0  0  0  0  3  0  0  0  0  0  0
  180.7750  180.1610  136.6160 C   0  0  0  0  0  3  0  0  0  0  0  0
  180.4460  181.3080  135.8840 C   0  0  0  0  0  3  0  0  0  0  0  0
  180.8690  177.0070  139.0410 C   0  0  0  0  0  1  0  0  0  0  0  0
  180.5140  178.3560  139.0540 O   0  0  0  0  0  0  0  0  0  0  0  0
  188.1050  178.8540  146.6590 C   0  0  0  0  0  2  0  0  0  0  0  0
  187.7780  177.8430  147.7450 C   0  0  0  0  0  1  0  0  0  0  0  0
  192.2640  175.6230  148.1440 C   0  0  0  0  0  2  0  0  0  0  0  0
  193.5940  176.0030  148.7780 C   0  0  0  0  0  2  0  0  0  0  0  0
  193.4370  177.1280  149.5930 O   0  0  0  0  0  1  0  0  0  0  0  0
  1 16  1  6  0  0  0
  1 13  1  0  0  0  0
  4  9  1  0  0  0  0
  4 12  1  0  0  0  0
  5 37  1  0  0  0  0
  6 35  1  1  0  0  0
  7  2  1  0  0  0  0
  7  5  2  0  0  0  0
  8  6  1  0  0  0  0
  8  2  1  1  0  0  0
  9 14  1  6  0  0  0
  9 10  1  0  0  0  0
 10  3  1  6  0  0  0
 10  6  1  0  0  0  0
 11  7  1  0  0  0  0
 12 15  1  6  0  0  0
 12 11  1  0  0  0  0
 12  8  1  0  0  0  0
 13  3  1  0  0  0  0
 14  1  1  0  0  0  0
 17 16  1  0  0  0  0
 18 22  1  0  0  0  0
 19 23  1  0  0  0  0
 19 21  2  0  0  0  0
 20 18  2  0  0  0  0
 21 17  1  0  0  0  0
 22 16  2  0  0  0  0
 23 22  1  0  0  0  0
 24 20  1  0  0  0  0
 24 23  2  0  0  0  0
 25 21  1  0  0  0  0
 26 34  1  1  0  0  0
 26 25  1  0  0  0  0
 28 27  1  0  0  0  0
 28 26  1  0  0  0  0
 29 27  2  0  0  0  0
 30 29  1  0  0  0  0
 31 28  2  0  0  0  0
 32 30  2  0  0  0  0
 32 31  1  0  0  0  0
 33 34  1  0  0  0  0
 35 36  1  0  0  0  0
 37 38  1  0  0  0  0
 38 39  1  0  0  0  0
M  END
>  <MODEL>
8

>  <REMARK>
 VINA RESULT:      -7.0      3.597      5.614
  Name = 
  8 active torsions:
  status: ('A' for Active; 'I' for Inactive)
    1  A    between atoms: C_1  and  C_3
    2  A    between atoms: C_6  and  C_13
    3  A    between atoms: C_9  and  C_18
    4  A    between atoms: C_12  and  C_22
    5  A    between atoms: C_18  and  O_21
    6  A    between atoms: C_18  and  N_23
    7  A    between atoms: C_22  and  C_28
    8  A    between atoms: N_23  and  C_29
                            x       y       z     vdW  Elec       q    Type
                         _______ _______ _______ _____ _____    ______ ____

>  <TORSDO>
F 8

$$$$
=
 OpenBabel11062417553D

 39 44  0  0  1  0  0  0  0  0999 V2000
  184.1620  178.0690  142.6580 C   0  0  1  0  0  3  0  0  0  0  0  0
  181.1440  177.8720  137.9400 N   0  0  0  0  0  2  0  0  0  0  0  0
  181.9590  179.2120  142.2950 C   0  0  0  0  0  2  0  0  0  0  0  0
  183.9070  179.1710  139.0490 C   0  0  0  0  0  2  0  0  0  0  0  0
  181.2400  178.7060  135.6670 C   0  0  0  0  0  3  0  0  0  0  0  0
  181.8020  177.5900  140.3370 C   0  0  1  0  0  3  0  0  0  0  0  0
  181.8380  178.2580  136.7680 C   0  0  0  0  0  0  0  0  0  0  0  0
  182.1220  177.3220  138.8600 C   0  0  2  0  0  3  0  0  0  0  0  0
  183.6680  179.2280  140.4940 N   0  0  1  0  0  0  0  0  0  0  0  0
  182.2440  178.9900  140.7960 C   0  0  2  0  0  3  0  0  0  0  0  0
  183.3070  178.1120  136.8940 C   0  0  0  0  0  2  0  0  0  0  0  0
  183.4920  177.8430  138.3860 C   0  0  1  0  0  0  0  0  0  0  0  0
  183.2210  179.1590  143.1590 C   0  0  0  0  0  2  0  0  0  0  0  0
  184.5680  178.2950  141.1940 C   0  0  0  0  0  2  0  0  0  0  0  0
  184.4730  176.8720  138.5760 O   0  0  0  0  0  1  0  0  0  0  0  0
  185.3700  177.9500  143.5320 C   0  0  0  0  0  0  0  0  0  0  0  0
  186.6180  177.5460  143.0140 C   0  0  0  0  0  3  0  0  0  0  0  0
  184.2680  178.6280  145.7120 C   0  0  0  0  0  3  0  0  0  0  0  0
  187.6380  177.6970  145.2330 C   0  0  0  0  0  3  0  0  0  0  0  0
  184.7720  178.7320  146.9680 N   0  0  0  0  0  2  0  0  0  0  0  0
  187.7500  177.4150  143.8560 C   0  0  0  0  0  0  0  0  0  0  0  0
  185.3050  178.2190  144.9000 C   0  0  0  0  0  0  0  0  0  0  0  0
  186.3920  178.0970  145.7130 C   0  0  0  0  0  0  0  0  0  0  0  0
  186.0620  178.4090  146.9740 N   0  0  0  0  0  0  0  0  0  0  0  0
  189.0100  176.9770  143.3350 N   0  0  0  0  0  2  0  0  0  0  0  0
  190.2950  177.5510  143.7220 C   0  0  2  0  0  3  0  0  0  0  0  0
  191.7270  175.6290  144.5200 C   0  0  0  0  0  3  0  0  0  0  0  0
  190.9310  176.7460  144.8160 C   0  0  0  0  0  0  0  0  0  0  0  0
  192.3280  174.9010  145.5540 C   0  0  0  0  0  3  0  0  0  0  0  0
  192.1360  175.2870  146.8840 C   0  0  0  0  0  3  0  0  0  0  0  0
  190.7390  177.1280  146.1480 C   0  0  0  0  0  3  0  0  0  0  0  0
  191.3410  176.4010  147.1820 C   0  0  0  0  0  3  0  0  0  0  0  0
  191.3470  179.4850  143.9680 C   0  0  0  0  0  1  0  0  0  0  0  0
  190.1070  178.8700  144.1460 O   0  0  0  0  0  0  0  0  0  0  0  0
  180.3710  177.2020  140.7300 C   0  0  0  0  0  2  0  0  0  0  0  0
  180.0640  175.7360  140.4670 C   0  0  0  0  0  1  0  0  0  0  0  0
  179.7570  178.8300  135.5420 C   0  0  0  0  0  2  0  0  0  0  0  0
  179.3560  180.2640  135.2250 C   0  0  0  0  0  2  0  0  0  0  0  0
  180.4890  181.0290  134.9320 O   0  0  0  0  0  1  0  0  0  0  0  0
  1 13  1  0  0  0  0
  1 16  1  1  0  0  0
  3 13  1  0  0  0  0
  5  7  2  0  0  0  0
  6 35  1  6  0  0  0
  6 10  1  0  0  0  0
  7 11  1  0  0  0  0
  7  2  1  0  0  0  0
  8  2  1  6  0  0  0
  8  6  1  0  0  0  0
  9  4  1  6  0  0  0
  9 10  1  0  0  0  0
  9 14  1  0  0  0  0
 10  3  1  1  0  0  0
 11 12  1  0  0  0  0
 12 15  1  1  0  0  0
 12  8  1  0  0  0  0
 12  4  1  0  0  0  0
 14  1  1  0  0  0  0
 16 22  1  0  0  0  0
 17 16  2  0  0  0  0
 17 21  1  0  0  0  0
 18 20  1  0  0  0  0
 19 23  1  0  0  0  0
 20 24  1  0  0  0  0
 21 19  2  0  0  0  0
 22 18  2  0  0  0  0
 22 23  1  0  0  0  0
 23 24  2  0  0  0  0
 25 21  1  0  0  0  0
 26 25  1  1  0  0  0
 26 34  1  0  0  0  0
 26 28  1  0  0  0  0
 27 28  2  0  0  0  0
 27 29  1  0  0  0  0
 28 31  1  0  0  0  0
 29 30  2  0  0  0  0
 30 32  1  0  0  0  0
 31 32  2  0  0  0  0
 33 34  1  0  0  0  0
 36 35  1  0  0  0  0
 37  5  1  0  0  0  0
 38 37  1  0  0  0  0
 39 38  1  0  0  0  0
M  END
>  <MODEL>
9

>  <REMARK>
 VINA RESULT:      -7.0      3.331      9.094
  Name = 
  8 active torsions:
  status: ('A' for Active; 'I' for Inactive)
    1  A    between atoms: C_1  and  C_3
    2  A    between atoms: C_6  and  C_13
    3  A    between atoms: C_9  and  C_18
    4  A    between atoms: C_12  and  C_22
    5  A    between atoms: C_18  and  O_21
    6  A    between atoms: C_18  and  N_23
    7  A    between atoms: C_22  and  C_28
    8  A    between atoms: N_23  and  C_29
                            x       y       z     vdW  Elec       q    Type
                         _______ _______ _______ _____ _____    ______ ____

>  <TORSDO>
F 8

$$$$
