=
 OpenBabel11062416583D

 26 29  0  0  1  0  0  0  0  0999 V2000
  190.3110  176.4400  144.1160 C   0  0  0  0  0  1  0  0  0  0  0  0
  188.9270  177.7400  147.1460 C   0  0  0  0  0  0  0  0  0  0  0  0
  189.4820  176.8620  145.2760 C   0  0  0  0  0  0  0  0  0  0  0  0
  189.0480  178.4560  148.4450 C   0  0  0  0  0  1  0  0  0  0  0  0
  187.7960  177.6880  146.4200 N   0  0  0  0  0  0  0  0  0  0  0  0
  187.2530  177.5840  144.1740 C   0  0  0  0  0  2  0  0  0  0  0  0
  185.0610  178.7600  144.2720 C   0  0  0  0  0  0  0  0  0  0  0  0
  188.1470  177.1880  145.2480 C   0  0  0  0  0  0  0  0  0  0  0  0
  186.7100  178.6250  146.2350 C   0  0  2  0  0  3  0  0  0  0  0  0
  184.2970  178.4010  146.5430 N   0  0  0  0  0  0  0  0  0  0  0  0
  189.9880  177.2140  146.4830 N   0  0  0  0  0  0  0  0  0  0  0  0
  184.0600  178.7530  145.1610 C   0  0  0  0  0  3  0  0  0  0  0  0
  185.4950  178.2820  147.0520 C   0  0  0  0  0  3  0  0  0  0  0  0
  186.3940  178.4160  144.7760 C   0  0  1  0  0  3  0  0  0  0  0  0
  184.7410  179.1430  142.5500 S   0  0  0  0  0  0  0  0  0  0  0  0
  179.6220  179.0970  140.0610 O   0  0  0  0  0  1  0  0  0  0  0  0
  183.4680  177.0750  140.6270 F   0  0  0  0  0  0  0  0  0  0  0  0
  180.1000  178.0080  140.8000 C   0  0  1  0  0  3  0  0  0  0  0  0
  182.9570  179.1110  142.7690 C   0  0  0  0  0  3  0  0  0  0  0  0
  182.8820  179.1510  139.6150 C   0  0  0  0  0  1  0  0  0  0  0  0
  182.4530  178.0080  140.5390 C   0  0  1  0  0  0  0  0  0  0  0  0
  181.2140  177.3380  140.1070 N   0  0  0  0  0  0  0  0  0  0  0  0
  180.6520  178.5220  142.1210 C   0  0  0  0  0  2  0  0  0  0  0  0
  182.1120  178.5650  141.8830 C   0  0  0  0  0  0  0  0  0  0  0  0
  181.0350  177.2700  138.6540 C   0  0  0  0  0  2  0  0  0  0  0  0
  181.6300  176.1100  138.1610 O   0  0  0  0  0  1  0  0  0  0  0  0
  1  3  1  0  0  0  0
  2  4  1  0  0  0  0
  3 11  1  0  0  0  0
  5  2  1  0  0  0  0
  6  8  1  0  0  0  0
  7 14  1  0  0  0  0
  7 12  2  0  0  0  0
  8  3  2  0  0  0  0
  8  5  1  0  0  0  0
  9  5  1  0  0  0  0
  9 13  1  1  0  0  0
 10 13  2  0  0  0  0
 11  2  2  0  0  0  0
 12 10  1  0  0  0  0
 14  6  1  1  0  0  0
 14  9  1  0  0  0  0
 15 19  1  0  0  0  0
 15  7  1  0  0  0  0
 18 16  1  6  0  0  0
 18 23  1  0  0  0  0
 21 20  1  6  0  0  0
 21 17  1  0  0  0  0
 21 24  1  0  0  0  0
 22 21  1  0  0  0  0
 22 18  1  0  0  0  0
 24 23  1  0  0  0  0
 24 19  2  0  0  0  0
 25 22  1  0  0  0  0
 26 25  1  0  0  0  0
M  END
>  <MODEL>
1

>  <REMARK>
 VINA RESULT:      -7.8      0.000      0.000
  Name = 
  3 active torsions:
  status: ('A' for Active; 'I' for Inactive)
    1  A    between atoms: C_3  and  N_23
    2  A    between atoms: C_10  and  S_19
    3  A    between atoms: C_13  and  S_19
                            x       y       z     vdW  Elec       q    Type
                         _______ _______ _______ _____ _____    ______ ____

>  <TORSDO>
F 3

$$$$
=
 OpenBabel11062416583D

 26 29  0  0  1  0  0  0  0  0999 V2000
  188.0040  177.6990  148.4650 C   0  0  0  0  0  1  0  0  0  0  0  0
  190.5350  176.9000  146.0700 C   0  0  0  0  0  0  0  0  0  0  0  0
  188.9410  177.5940  147.3150 C   0  0  0  0  0  0  0  0  0  0  0  0
  191.7010  176.0980  145.6060 C   0  0  0  0  0  1  0  0  0  0  0  0
  189.6690  177.5120  145.2430 N   0  0  0  0  0  0  0  0  0  0  0  0
  187.4170  178.0370  145.2710 C   0  0  0  0  0  2  0  0  0  0  0  0
  186.9910  177.9580  142.8190 C   0  0  0  0  0  0  0  0  0  0  0  0
  188.6620  177.9000  146.0060 C   0  0  0  0  0  0  0  0  0  0  0  0
  189.1710  177.1770  143.9270 C   0  0  2  0  0  3  0  0  0  0  0  0
  189.1520  178.4250  141.8270 N   0  0  0  0  0  0  0  0  0  0  0  0
  190.1340  176.9520  147.3650 N   0  0  0  0  0  0  0  0  0  0  0  0
  187.7110  178.3350  141.7550 C   0  0  0  0  0  3  0  0  0  0  0  0
  189.8450  177.9550  142.8300 C   0  0  0  0  0  3  0  0  0  0  0  0
  187.7370  177.6270  144.0370 C   0  0  1  0  0  3  0  0  0  0  0  0
  185.2010  177.9050  142.7310 S   0  0  0  0  0  0  0  0  0  0  0  0
  182.6550  178.5550  137.6820 O   0  0  0  0  0  1  0  0  0  0  0  0
  182.2840  178.6910  142.0460 F   0  0  0  0  0  0  0  0  0  0  0  0
  182.6140  179.5470  138.6690 C   0  0  1  0  0  3  0  0  0  0  0  0
  185.1500  178.7950  141.1700 C   0  0  0  0  0  3  0  0  0  0  0  0
  182.7080  176.9040  140.5280 C   0  0  0  0  0  1  0  0  0  0  0  0
  182.6760  178.4190  140.7490 C   0  0  1  0  0  0  0  0  0  0  0  0
  181.7870  179.1290  139.8140 N   0  0  0  0  0  0  0  0  0  0  0  0
  184.0220  179.7610  139.2020 C   0  0  0  0  0  2  0  0  0  0  0  0
  184.0280  178.9860  140.4620 C   0  0  0  0  0  0  0  0  0  0  0  0
  180.5920  178.3770  139.4210 C   0  0  0  0  0  2  0  0  0  0  0  0
  179.5690  178.6030  140.3420 O   0  0  0  0  0  1  0  0  0  0  0  0
  2 11  2  0  0  0  0
  3 11  1  0  0  0  0
  3  1  1  0  0  0  0
  4  2  1  0  0  0  0
  5  8  1  0  0  0  0
  5  2  1  0  0  0  0
  6  8  1  0  0  0  0
  7 14  1  0  0  0  0
  8  3  2  0  0  0  0
  9 13  1  6  0  0  0
  9 14  1  0  0  0  0
  9  5  1  0  0  0  0
 10 13  2  0  0  0  0
 12 10  1  0  0  0  0
 12  7  2  0  0  0  0
 14  6  1  1  0  0  0
 15  7  1  0  0  0  0
 18 16  1  6  0  0  0
 18 23  1  0  0  0  0
 18 22  1  0  0  0  0
 19 15  1  0  0  0  0
 21 20  1  6  0  0  0
 21 17  1  0  0  0  0
 22 21  1  0  0  0  0
 23 24  1  0  0  0  0
 24 21  1  0  0  0  0
 24 19  2  0  0  0  0
 25 22  1  0  0  0  0
 25 26  1  0  0  0  0
M  END
>  <MODEL>
2

>  <REMARK>
 VINA RESULT:      -7.8      2.051      3.358
  Name = 
  3 active torsions:
  status: ('A' for Active; 'I' for Inactive)
    1  A    between atoms: C_3  and  N_23
    2  A    between atoms: C_10  and  S_19
    3  A    between atoms: C_13  and  S_19
                            x       y       z     vdW  Elec       q    Type
                         _______ _______ _______ _____ _____    ______ ____

>  <TORSDO>
F 3

$$$$
=
 OpenBabel11062416583D

 26 29  0  0  1  0  0  0  0  0999 V2000
  192.0490  176.0630  146.4680 C   0  0  0  0  0  1  0  0  0  0  0  0
  188.9590  177.5470  147.4850 C   0  0  0  0  0  0  0  0  0  0  0  0
  190.6500  176.5280  146.6640 C   0  0  0  0  0  0  0  0  0  0  0  0
  188.1490  178.4120  148.3870 C   0  0  0  0  0  1  0  0  0  0  0  0
  188.6450  177.3020  146.2000 N   0  0  0  0  0  0  0  0  0  0  0  0
  189.8080  176.8960  144.2430 C   0  0  0  0  0  2  0  0  0  0  0  0
  188.1650  177.8500  142.6350 C   0  0  0  0  0  0  0  0  0  0  0  0
  189.7080  176.7130  145.6810 C   0  0  0  0  0  0  0  0  0  0  0  0
  187.9950  178.1000  145.1840 C   0  0  2  0  0  3  0  0  0  0  0  0
  186.0400  177.6710  143.7840 N   0  0  0  0  0  0  0  0  0  0  0  0
  190.1810  177.0600  147.8190 N   0  0  0  0  0  0  0  0  0  0  0  0
  186.8270  177.8410  142.5840 C   0  0  0  0  0  3  0  0  0  0  0  0
  186.5510  177.7290  144.9850 C   0  0  0  0  0  3  0  0  0  0  0  0
  188.7760  177.6990  143.9590 C   0  0  1  0  0  3  0  0  0  0  0  0
  189.1290  178.0050  141.1310 S   0  0  0  0  0  0  0  0  0  0  0  0
  187.0330  178.6350  135.8770 O   0  0  0  0  0  1  0  0  0  0  0  0
  189.1030  176.0400  138.7370 F   0  0  0  0  0  0  0  0  0  0  0  0
  186.6990  177.5410  136.6860 C   0  0  1  0  0  3  0  0  0  0  0  0
  187.6790  178.2930  140.1100 C   0  0  0  0  0  3  0  0  0  0  0  0
  189.7140  178.1000  137.7080 C   0  0  0  0  0  1  0  0  0  0  0  0
  188.5870  177.1220  138.0500 C   0  0  1  0  0  0  0  0  0  0  0  0
  187.8500  176.6410  136.8690 N   0  0  0  0  0  0  0  0  0  0  0  0
  186.3200  178.0550  138.0660 C   0  0  0  0  0  2  0  0  0  0  0  0
  187.5500  177.8310  138.8580 C   0  0  0  0  0  0  0  0  0  0  0  0
  188.6670  176.4910  135.6620 C   0  0  0  0  0  2  0  0  0  0  0  0
  189.1760  175.1950  135.5960 O   0  0  0  0  0  1  0  0  0  0  0  0
  1  3  1  0  0  0  0
  2 11  2  0  0  0  0
  2  4  1  0  0  0  0
  3 11  1  0  0  0  0
  5  2  1  0  0  0  0
  6  8  1  0  0  0  0
  7 14  1  0  0  0  0
  8  5  1  0  0  0  0
  8  3  2  0  0  0  0
  9 13  1  6  0  0  0
  9  5  1  0  0  0  0
 10 13  2  0  0  0  0
 12  7  2  0  0  0  0
 12 10  1  0  0  0  0
 14  6  1  1  0  0  0
 14  9  1  0  0  0  0
 15  7  1  0  0  0  0
 18 16  1  6  0  0  0
 18 22  1  0  0  0  0
 18 23  1  0  0  0  0
 19 15  1  0  0  0  0
 21 20  1  6  0  0  0
 21 17  1  0  0  0  0
 21 24  1  0  0  0  0
 22 21  1  0  0  0  0
 23 24  1  0  0  0  0
 24 19  2  0  0  0  0
 25 22  1  0  0  0  0
 26 25  1  0  0  0  0
M  END
>  <MODEL>
3

>  <REMARK>
 VINA RESULT:      -7.5      4.285      5.093
  Name = 
  3 active torsions:
  status: ('A' for Active; 'I' for Inactive)
    1  A    between atoms: C_3  and  N_23
    2  A    between atoms: C_10  and  S_19
    3  A    between atoms: C_13  and  S_19
                            x       y       z     vdW  Elec       q    Type
                         _______ _______ _______ _____ _____    ______ ____

>  <TORSDO>
F 3

$$$$
=
 OpenBabel11062416583D

 26 29  0  0  1  0  0  0  0  0999 V2000
  188.4540  178.3450  140.2610 C   0  0  0  0  0  1  0  0  0  0  0  0
  184.8890  178.5520  140.0710 C   0  0  0  0  0  0  0  0  0  0  0  0
  186.9980  178.6020  140.4230 C   0  0  0  0  0  0  0  0  0  0  0  0
  183.5860  178.2330  139.4240 C   0  0  0  0  0  1  0  0  0  0  0  0
  185.0320  178.8180  141.3820 N   0  0  0  0  0  0  0  0  0  0  0  0
  186.6630  178.4890  142.9880 C   0  0  0  0  0  2  0  0  0  0  0  0
  185.1820  178.2940  144.9790 C   0  0  0  0  0  0  0  0  0  0  0  0
  186.3330  178.8040  141.6080 C   0  0  0  0  0  0  0  0  0  0  0  0
  184.3350  178.3420  142.5560 C   0  0  2  0  0  3  0  0  0  0  0  0
  183.1900  179.5260  144.3600 N   0  0  0  0  0  0  0  0  0  0  0  0
  186.0840  178.4370  139.4360 N   0  0  0  0  0  0  0  0  0  0  0  0
  184.0570  178.9200  145.3460 C   0  0  0  0  0  3  0  0  0  0  0  0
  183.3230  179.3260  143.0760 C   0  0  0  0  0  3  0  0  0  0  0  0
  185.4700  178.2400  143.5420 C   0  0  1  0  0  3  0  0  0  0  0  0
  186.2750  177.5950  146.2170 S   0  0  0  0  0  0  0  0  0  0  0  0
  191.8920  177.9880  145.3840 O   0  0  0  0  0  1  0  0  0  0  0  0
  188.6090  176.0490  147.5420 F   0  0  0  0  0  0  0  0  0  0  0  0
  191.2140  176.7650  145.3190 C   0  0  1  0  0  3  0  0  0  0  0  0
  187.6440  177.4340  145.0640 C   0  0  0  0  0  3  0  0  0  0  0  0
  189.4160  178.2910  147.5300 C   0  0  0  0  0  1  0  0  0  0  0  0
  189.3980  176.9300  146.8280 C   0  0  1  0  0  0  0  0  0  0  0  0
  190.7380  176.3450  146.6480 N   0  0  0  0  0  0  0  0  0  0  0  0
  189.9800  176.9390  144.4470 C   0  0  0  0  0  2  0  0  0  0  0  0
  188.8900  177.1030  145.4340 C   0  0  0  0  0  0  0  0  0  0  0  0
  191.6840  176.6510  147.7250 C   0  0  0  0  0  2  0  0  0  0  0  0
  192.6920  175.6880  147.7530 O   0  0  0  0  0  1  0  0  0  0  0  0
  1  3  1  0  0  0  0
  2  5  1  0  0  0  0
  3  8  2  0  0  0  0
  4  2  1  0  0  0  0
  5  8  1  0  0  0  0
  5  9  1  0  0  0  0
  7 12  2  0  0  0  0
  7 15  1  0  0  0  0
  8  6  1  0  0  0  0
  9 13  1  1  0  0  0
  9 14  1  0  0  0  0
 10 12  1  0  0  0  0
 11  2  2  0  0  0  0
 11  3  1  0  0  0  0
 13 10  2  0  0  0  0
 14  6  1  6  0  0  0
 14  7  1  0  0  0  0
 18 16  1  1  0  0  0
 18 22  1  0  0  0  0
 19 24  2  0  0  0  0
 19 15  1  0  0  0  0
 21 20  1  1  0  0  0
 21 17  1  0  0  0  0
 22 21  1  0  0  0  0
 22 25  1  0  0  0  0
 23 18  1  0  0  0  0
 23 24  1  0  0  0  0
 24 21  1  0  0  0  0
 25 26  1  0  0  0  0
M  END
>  <MODEL>
4

>  <REMARK>
 VINA RESULT:      -7.4      4.764      8.208
  Name = 
  3 active torsions:
  status: ('A' for Active; 'I' for Inactive)
    1  A    between atoms: C_3  and  N_23
    2  A    between atoms: C_10  and  S_19
    3  A    between atoms: C_13  and  S_19
                            x       y       z     vdW  Elec       q    Type
                         _______ _______ _______ _____ _____    ______ ____

>  <TORSDO>
F 3

$$$$
=
 OpenBabel11062416583D

 26 29  0  0  1  0  0  0  0  0999 V2000
  186.3250  177.9890  146.4600 C   0  0  0  0  0  1  0  0  0  0  0  0
  189.7170  176.8920  146.7420 C   0  0  0  0  0  0  0  0  0  0  0  0
  187.7890  177.7380  146.3690 C   0  0  0  0  0  0  0  0  0  0  0  0
  190.7760  176.0370  147.3440 C   0  0  0  0  0  1  0  0  0  0  0  0
  189.7770  177.3960  145.4960 N   0  0  0  0  0  0  0  0  0  0  0  0
  188.2610  177.9220  143.8300 C   0  0  0  0  0  2  0  0  0  0  0  0
  189.7320  177.5350  141.8600 C   0  0  0  0  0  0  0  0  0  0  0  0
  188.5710  177.8780  145.2490 C   0  0  0  0  0  0  0  0  0  0  0  0
  190.3550  176.8970  144.2670 C   0  0  2  0  0  3  0  0  0  0  0  0
  191.9730  177.8720  142.7180 N   0  0  0  0  0  0  0  0  0  0  0  0
  188.5110  177.1070  147.3260 N   0  0  0  0  0  0  0  0  0  0  0  0
  191.0290  177.7740  141.6270 C   0  0  0  0  0  3  0  0  0  0  0  0
  191.6800  177.5300  143.9450 C   0  0  0  0  0  3  0  0  0  0  0  0
  189.3330  177.3600  143.2600 C   0  0  1  0  0  3  0  0  0  0  0  0
  188.5640  177.4730  140.5010 S   0  0  0  0  0  0  0  0  0  0  0  0
  189.7310  175.4110  135.3260 O   0  0  0  0  0  1  0  0  0  0  0  0
  187.7840  178.5380  137.6990 F   0  0  0  0  0  0  0  0  0  0  0  0
  190.0010  176.7400  135.6760 C   0  0  1  0  0  3  0  0  0  0  0  0
  189.8280  177.0380  139.3000 C   0  0  0  0  0  3  0  0  0  0  0  0
  187.3830  176.1980  137.4920 C   0  0  0  0  0  1  0  0  0  0  0  0
  188.3540  177.3590  137.2590 C   0  0  1  0  0  0  0  0  0  0  0  0
  188.7580  177.5110  135.8510 N   0  0  0  0  0  0  0  0  0  0  0  0
  190.7170  176.7530  137.0170 C   0  0  0  0  0  2  0  0  0  0  0  0
  189.6360  177.0780  137.9740 C   0  0  0  0  0  0  0  0  0  0  0  0
  187.7190  177.1620  134.8790 C   0  0  0  0  0  2  0  0  0  0  0  0
  186.8720  178.2530  134.6830 O   0  0  0  0  0  1  0  0  0  0  0  0
  2 11  2  0  0  0  0
  2  4  1  0  0  0  0
  3  1  1  0  0  0  0
  3 11  1  0  0  0  0
  5  2  1  0  0  0  0
  6  8  1  0  0  0  0
  7 14  1  0  0  0  0
  8  5  1  0  0  0  0
  8  3  2  0  0  0  0
  9 13  1  6  0  0  0
  9  5  1  0  0  0  0
 10 13  2  0  0  0  0
 12  7  2  0  0  0  0
 12 10  1  0  0  0  0
 14  6  1  1  0  0  0
 14  9  1  0  0  0  0
 15  7  1  0  0  0  0
 18 16  1  1  0  0  0
 18 22  1  0  0  0  0
 18 23  1  0  0  0  0
 19 15  1  0  0  0  0
 21 20  1  1  0  0  0
 21 17  1  0  0  0  0
 21 24  1  0  0  0  0
 22 21  1  0  0  0  0
 23 24  1  0  0  0  0
 24 19  2  0  0  0  0
 25 22  1  0  0  0  0
 26 25  1  0  0  0  0
M  END
>  <MODEL>
5

>  <REMARK>
 VINA RESULT:      -7.1      4.824      6.611
  Name = 
  3 active torsions:
  status: ('A' for Active; 'I' for Inactive)
    1  A    between atoms: C_3  and  N_23
    2  A    between atoms: C_10  and  S_19
    3  A    between atoms: C_13  and  S_19
                            x       y       z     vdW  Elec       q    Type
                         _______ _______ _______ _____ _____    ______ ____

>  <TORSDO>
F 3

$$$$
=
 OpenBabel11062416583D

 26 29  0  0  1  0  0  0  0  0999 V2000
  185.3350  178.9920  140.4640 C   0  0  0  0  0  1  0  0  0  0  0  0
  187.4660  177.8080  143.0800 C   0  0  0  0  0  0  0  0  0  0  0  0
  186.4360  178.6350  141.3980 C   0  0  0  0  0  0  0  0  0  0  0  0
  187.6980  177.0900  144.3640 C   0  0  0  0  0  1  0  0  0  0  0  0
  188.3940  177.9390  142.1150 N   0  0  0  0  0  0  0  0  0  0  0  0
  188.3990  178.0720  139.8060 C   0  0  0  0  0  2  0  0  0  0  0  0
  190.6320  177.0580  139.3850 C   0  0  0  0  0  0  0  0  0  0  0  0
  187.7480  178.4070  141.0620 C   0  0  0  0  0  0  0  0  0  0  0  0
  189.4730  177.0820  141.6740 C   0  0  2  0  0  3  0  0  0  0  0  0
  191.8700  177.4810  141.4240 N   0  0  0  0  0  0  0  0  0  0  0  0
  186.2460  178.2530  142.6850 N   0  0  0  0  0  0  0  0  0  0  0  0
  191.8080  177.1420  140.0200 C   0  0  0  0  0  3  0  0  0  0  0  0
  190.8150  177.5150  142.1960 C   0  0  0  0  0  3  0  0  0  0  0  0
  189.4290  177.3070  140.1850 C   0  0  1  0  0  3  0  0  0  0  0  0
  190.5750  176.6920  137.6300 S   0  0  0  0  0  0  0  0  0  0  0  0
  194.5880  173.2290  135.5560 O   0  0  0  0  0  1  0  0  0  0  0  0
  193.6010  177.1780  137.1770 F   0  0  0  0  0  0  0  0  0  0  0  0
  194.7380  173.8940  136.7800 C   0  0  1  0  0  3  0  0  0  0  0  0
  191.4840  175.1530  137.8180 C   0  0  0  0  0  3  0  0  0  0  0  0
  192.9520  176.0590  135.1760 C   0  0  0  0  0  1  0  0  0  0  0  0
  193.5560  175.9340  136.5780 C   0  0  1  0  0  0  0  0  0  0  0  0
  194.9050  175.3440  136.5840 N   0  0  0  0  0  0  0  0  0  0  0  0
  193.4680  173.7060  137.5940 C   0  0  0  0  0  2  0  0  0  0  0  0
  192.7390  174.9760  137.3810 C   0  0  0  0  0  0  0  0  0  0  0  0
  195.7220  175.6800  135.4140 C   0  0  0  0  0  2  0  0  0  0  0  0
  196.5610  176.7510  135.7190 O   0  0  0  0  0  1  0  0  0  0  0  0
  1  3  1  0  0  0  0
  2  4  1  0  0  0  0
  3 11  1  0  0  0  0
  5  2  1  0  0  0  0
  6  8  1  0  0  0  0
  7 12  2  0  0  0  0
  7 14  1  0  0  0  0
  8  3  2  0  0  0  0
  8  5  1  0  0  0  0
  9  5  1  0  0  0  0
  9 13  1  1  0  0  0
 10 13  2  0  0  0  0
 11  2  2  0  0  0  0
 12 10  1  0  0  0  0
 14  6  1  1  0  0  0
 14  9  1  0  0  0  0
 15 19  1  0  0  0  0
 15  7  1  0  0  0  0
 18 16  1  6  0  0  0
 18 23  1  0  0  0  0
 21 20  1  6  0  0  0
 21 22  1  0  0  0  0
 21 17  1  0  0  0  0
 21 24  1  0  0  0  0
 22 18  1  0  0  0  0
 24 23  1  0  0  0  0
 24 19  2  0  0  0  0
 25 26  1  0  0  0  0
 25 22  1  0  0  0  0
M  END
>  <MODEL>
6

>  <REMARK>
 VINA RESULT:      -7.1      7.334     10.101
  Name = 
  3 active torsions:
  status: ('A' for Active; 'I' for Inactive)
    1  A    between atoms: C_3  and  N_23
    2  A    between atoms: C_10  and  S_19
    3  A    between atoms: C_13  and  S_19
                            x       y       z     vdW  Elec       q    Type
                         _______ _______ _______ _____ _____    ______ ____

>  <TORSDO>
F 3

$$$$
=
 OpenBabel11062416583D

 26 29  0  0  1  0  0  0  0  0999 V2000
  182.5060  178.9440  137.6230 C   0  0  0  0  0  1  0  0  0  0  0  0
  180.2640  178.6040  140.3880 C   0  0  0  0  0  0  0  0  0  0  0  0
  181.7690  178.9770  138.9150 C   0  0  0  0  0  0  0  0  0  0  0  0
  179.0140  178.0900  141.0110 C   0  0  0  0  0  1  0  0  0  0  0  0
  181.3830  178.8920  141.0770 N   0  0  0  0  0  0  0  0  0  0  0  0
  183.6600  178.8190  140.6760 C   0  0  0  0  0  2  0  0  0  0  0  0
  184.4290  178.4040  143.0070 C   0  0  0  0  0  0  0  0  0  0  0  0
  182.3230  179.0770  140.1670 C   0  0  0  0  0  0  0  0  0  0  0  0
  181.9730  178.3180  142.2660 C   0  0  2  0  0  3  0  0  0  0  0  0
  182.6600  179.3170  144.3870 N   0  0  0  0  0  0  0  0  0  0  0  0
  180.4550  178.6720  139.0460 N   0  0  0  0  0  0  0  0  0  0  0  0
  184.0160  178.8520  144.1980 C   0  0  0  0  0  3  0  0  0  0  0  0
  181.7160  179.1370  143.5010 C   0  0  0  0  0  3  0  0  0  0  0  0
  183.4390  178.3920  141.9250 C   0  0  1  0  0  3  0  0  0  0  0  0
  186.1290  177.8830  142.7740 S   0  0  0  0  0  0  0  0  0  0  0  0
  189.6930  176.3010  146.9210 O   0  0  0  0  0  1  0  0  0  0  0  0
  189.0550  178.7340  143.3330 F   0  0  0  0  0  0  0  0  0  0  0  0
  189.4310  177.6470  146.6370 C   0  0  1  0  0  3  0  0  0  0  0  0
  186.4620  177.8320  144.5390 C   0  0  0  0  0  3  0  0  0  0  0  0
  189.1270  176.3780  143.6800 C   0  0  0  0  0  1  0  0  0  0  0  0
  188.9890  177.7640  144.3150 C   0  0  1  0  0  0  0  0  0  0  0  0
  190.0080  178.0430  145.3410 N   0  0  0  0  0  0  0  0  0  0  0  0
  187.9270  177.8360  146.5230 C   0  0  0  0  0  2  0  0  0  0  0  0
  187.6970  177.8370  145.0610 C   0  0  0  0  0  0  0  0  0  0  0  0
  191.3160  177.4360  145.0800 C   0  0  0  0  0  2  0  0  0  0  0  0
  192.0560  178.2600  144.2320 O   0  0  0  0  0  1  0  0  0  0  0  0
  1  3  1  0  0  0  0
  2  4  1  0  0  0  0
  2  5  1  0  0  0  0
  3 11  1  0  0  0  0
  3  8  2  0  0  0  0
  5  9  1  0  0  0  0
  7 12  2  0  0  0  0
  8  6  1  0  0  0  0
  8  5  1  0  0  0  0
  9 13  1  1  0  0  0
 11  2  2  0  0  0  0
 12 10  1  0  0  0  0
 13 10  2  0  0  0  0
 14  6  1  1  0  0  0
 14  9  1  0  0  0  0
 14  7  1  0  0  0  0
 15  7  1  0  0  0  0
 15 19  1  0  0  0  0
 17 21  1  0  0  0  0
 18 16  1  6  0  0  0
 19 24  2  0  0  0  0
 21 20  1  6  0  0  0
 21 24  1  0  0  0  0
 21 22  1  0  0  0  0
 22 18  1  0  0  0  0
 23 18  1  0  0  0  0
 24 23  1  0  0  0  0
 25 22  1  0  0  0  0
 26 25  1  0  0  0  0
M  END
>  <MODEL>
7

>  <REMARK>
 VINA RESULT:      -7.0      3.887      8.484
  Name = 
  3 active torsions:
  status: ('A' for Active; 'I' for Inactive)
    1  A    between atoms: C_3  and  N_23
    2  A    between atoms: C_10  and  S_19
    3  A    between atoms: C_13  and  S_19
                            x       y       z     vdW  Elec       q    Type
                         _______ _______ _______ _____ _____    ______ ____

>  <TORSDO>
F 3

$$$$
=
 OpenBabel11062416583D

 26 29  0  0  1  0  0  0  0  0999 V2000
  191.0640  176.9990  139.9590 C   0  0  0  0  0  1  0  0  0  0  0  0
  191.0500  177.3430  143.5180 C   0  0  0  0  0  0  0  0  0  0  0  0
  190.7950  177.0050  141.4220 C   0  0  0  0  0  0  0  0  0  0  0  0
  191.6750  177.7690  144.8010 C   0  0  0  0  0  1  0  0  0  0  0  0
  189.7220  177.2490  143.3250 N   0  0  0  0  0  0  0  0  0  0  0  0
  188.2650  177.5400  141.5530 C   0  0  0  0  0  2  0  0  0  0  0  0
  186.2590  178.2560  142.8420 C   0  0  0  0  0  0  0  0  0  0  0  0
  189.5630  177.0860  142.0240 C   0  0  0  0  0  0  0  0  0  0  0  0
  188.6020  177.9950  143.8560 C   0  0  2  0  0  3  0  0  0  0  0  0
  186.5850  177.2830  145.0360 N   0  0  0  0  0  0  0  0  0  0  0  0
  191.7500  177.1710  142.3690 N   0  0  0  0  0  0  0  0  0  0  0  0
  185.7470  177.8780  144.0200 C   0  0  0  0  0  3  0  0  0  0  0  0
  187.8910  177.2710  144.9660 C   0  0  0  0  0  3  0  0  0  0  0  0
  187.6990  178.0540  142.6520 C   0  0  1  0  0  3  0  0  0  0  0  0
  185.1970  178.9410  141.5700 S   0  0  0  0  0  0  0  0  0  0  0  0
  179.5710  179.6500  142.0620 O   0  0  0  0  0  1  0  0  0  0  0  0
  182.8590  177.2210  140.4860 F   0  0  0  0  0  0  0  0  0  0  0  0
  180.2020  178.4470  142.4030 C   0  0  1  0  0  3  0  0  0  0  0  0
  183.7810  179.0560  142.6710 C   0  0  0  0  0  3  0  0  0  0  0  0
  182.1330  179.4400  140.0080 C   0  0  0  0  0  1  0  0  0  0  0  0
  182.0770  178.2510  140.9720 C   0  0  1  0  0  0  0  0  0  0  0  0
  180.7110  177.7520  141.2080 N   0  0  0  0  0  0  0  0  0  0  0  0
  181.4080  178.7610  143.2730 C   0  0  0  0  0  2  0  0  0  0  0  0
  182.5390  178.6900  142.3220 C   0  0  0  0  0  0  0  0  0  0  0  0
  179.8170  177.8570  140.0520 C   0  0  0  0  0  2  0  0  0  0  0  0
  179.3520  176.5900  139.6990 O   0  0  0  0  0  1  0  0  0  0  0  0
  1  3  1  0  0  0  0
  2  4  1  0  0  0  0
  3  8  2  0  0  0  0
  3 11  1  0  0  0  0
  5  2  1  0  0  0  0
  5  9  1  0  0  0  0
  6  8  1  0  0  0  0
  7 12  2  0  0  0  0
  8  5  1  0  0  0  0
  9 13  1  1  0  0  0
 11  2  2  0  0  0  0
 12 10  1  0  0  0  0
 13 10  2  0  0  0  0
 14  6  1  1  0  0  0
 14  7  1  0  0  0  0
 14  9  1  0  0  0  0
 15 19  1  0  0  0  0
 15  7  1  0  0  0  0
 17 21  1  0  0  0  0
 18 16  1  6  0  0  0
 18 23  1  0  0  0  0
 21 20  1  6  0  0  0
 21 22  1  0  0  0  0
 21 24  1  0  0  0  0
 22 18  1  0  0  0  0
 24 19  2  0  0  0  0
 24 23  1  0  0  0  0
 25 22  1  0  0  0  0
 26 25  1  0  0  0  0
M  END
>  <MODEL>
8

>  <REMARK>
 VINA RESULT:      -6.9      2.032      2.757
  Name = 
  3 active torsions:
  status: ('A' for Active; 'I' for Inactive)
    1  A    between atoms: C_3  and  N_23
    2  A    between atoms: C_10  and  S_19
    3  A    between atoms: C_13  and  S_19
                            x       y       z     vdW  Elec       q    Type
                         _______ _______ _______ _____ _____    ______ ____

>  <TORSDO>
F 3

$$$$
=
 OpenBabel11062416583D

 26 29  0  0  1  0  0  0  0  0999 V2000
  191.6800  176.4060  145.1280 C   0  0  0  0  0  1  0  0  0  0  0  0
  189.0550  177.5580  147.2640 C   0  0  0  0  0  0  0  0  0  0  0  0
  190.4100  176.7470  145.8230 C   0  0  0  0  0  0  0  0  0  0  0  0
  188.5620  178.2710  148.4740 C   0  0  0  0  0  1  0  0  0  0  0  0
  188.3390  177.4130  146.1340 N   0  0  0  0  0  0  0  0  0  0  0  0
  188.7960  177.2810  143.8710 C   0  0  0  0  0  2  0  0  0  0  0  0
  186.6750  178.2610  143.0110 C   0  0  0  0  0  0  0  0  0  0  0  0
  189.1880  176.9550  145.2320 C   0  0  0  0  0  0  0  0  0  0  0  0
  187.3570  178.2540  145.4860 C   0  0  2  0  0  3  0  0  0  0  0  0
  185.0640  177.8190  144.7650 N   0  0  0  0  0  0  0  0  0  0  0  0
  190.3350  177.1310  147.1200 N   0  0  0  0  0  0  0  0  0  0  0  0
  185.3980  178.1590  143.4010 C   0  0  0  0  0  3  0  0  0  0  0  0
  185.9440  177.8000  145.7310 C   0  0  0  0  0  3  0  0  0  0  0  0
  187.6990  178.0300  144.0350 C   0  0  1  0  0  3  0  0  0  0  0  0
  187.0750  178.6280  141.3020 S   0  0  0  0  0  0  0  0  0  0  0  0
  190.8650  175.2590  138.7170 O   0  0  0  0  0  1  0  0  0  0  0  0
  188.6300  179.0280  138.6530 F   0  0  0  0  0  0  0  0  0  0  0  0
  191.1320  176.6060  138.9930 C   0  0  1  0  0  3  0  0  0  0  0  0
  188.6700  177.8060  141.3910 C   0  0  0  0  0  3  0  0  0  0  0  0
  187.9400  176.7520  138.5090 C   0  0  0  0  0  1  0  0  0  0  0  0
  189.0540  177.7330  138.8840 C   0  0  1  0  0  0  0  0  0  0  0  0
  190.3120  177.4970  138.1550 N   0  0  0  0  0  0  0  0  0  0  0  0
  190.7520  176.8910  140.4370 C   0  0  0  0  0  2  0  0  0  0  0  0
  189.4240  177.5320  140.3170 C   0  0  0  0  0  0  0  0  0  0  0  0
  190.1390  177.0070  136.7850 C   0  0  0  0  0  2  0  0  0  0  0  0
  189.5290  177.9900  136.0070 O   0  0  0  0  0  1  0  0  0  0  0  0
  1  3  1  0  0  0  0
  2  4  1  0  0  0  0
  3 11  1  0  0  0  0
  5  2  1  0  0  0  0
  6  8  1  0  0  0  0
  7 12  2  0  0  0  0
  7 14  1  0  0  0  0
  8  3  2  0  0  0  0
  8  5  1  0  0  0  0
  9 13  1  6  0  0  0
  9  5  1  0  0  0  0
 10 13  2  0  0  0  0
 11  2  2  0  0  0  0
 12 10  1  0  0  0  0
 14  6  1  1  0  0  0
 14  9  1  0  0  0  0
 15 19  1  0  0  0  0
 15  7  1  0  0  0  0
 17 21  1  0  0  0  0
 18 16  1  6  0  0  0
 18 23  1  0  0  0  0
 21 20  1  6  0  0  0
 21 24  1  0  0  0  0
 22 21  1  0  0  0  0
 22 18  1  0  0  0  0
 24 23  1  0  0  0  0
 24 19  2  0  0  0  0
 25 22  1  0  0  0  0
 26 25  1  0  0  0  0
M  END
>  <MODEL>
9

>  <REMARK>
 VINA RESULT:      -6.9      4.255      5.762
  Name = 
  3 active torsions:
  status: ('A' for Active; 'I' for Inactive)
    1  A    between atoms: C_3  and  N_23
    2  A    between atoms: C_10  and  S_19
    3  A    between atoms: C_13  and  S_19
                            x       y       z     vdW  Elec       q    Type
                         _______ _______ _______ _____ _____    ______ ____

>  <TORSDO>
F 3

$$$$
