=
 OpenBabel11062415143D

 52 58  0  0  1  0  0  0  0  0999 V2000
  188.5700  177.6880  139.5910 C   0  0  1  0  0  0  0  0  0  0  0  0
  188.9390  176.3510  139.4220 O   0  0  0  0  0  1  0  0  0  0  0  0
  188.1260  178.0860  140.9530 C   0  0  2  0  0  0  0  0  0  0  0  0
  189.4320  178.3500  140.4860 O   0  0  0  0  0  0  0  0  0  0  0  0
  188.1950  178.5290  138.3570 C   0  0  1  0  0  3  0  0  0  0  0  0
  189.2290  178.4850  137.3610 O   0  0  0  0  0  0  0  0  0  0  0  0
  189.6690  176.0200  134.8300 C   0  0  2  0  0  3  0  0  0  0  0  0
  189.1480  177.5810  136.3040 C   0  0  0  0  0  0  0  0  0  0  0  0
  190.1630  177.0140  135.7720 N   0  0  0  0  0  0  0  0  0  0  0  0
  186.9310  176.8400  136.9460 C   0  0  0  0  0  2  0  0  0  0  0  0
  186.8210  178.1230  137.7810 C   0  0  0  0  0  2  0  0  0  0  0  0
  188.2200  175.8870  135.0560 N   0  0  0  0  0  2  0  0  0  0  0  0
  187.8690  177.1030  135.7780 C   0  0  2  0  0  3  0  0  0  0  0  0
  192.7670  175.4290  135.4870 C   0  0  0  0  0  2  0  0  0  0  0  0
  192.0230  173.2570  135.4170 N   0  0  0  0  0  0  0  0  0  0  0  0
  190.7590  172.6180  135.7470 C   0  0  0  0  0  2  0  0  0  0  0  0
  193.1080  173.2770  136.2930 N   0  0  0  0  0  0  0  0  0  0  0  0
  190.3670  174.7070  135.0330 C   0  0  0  0  0  0  0  0  0  0  0  0
  189.7610  173.6620  135.5030 N   0  0  0  0  0  0  0  0  0  0  0  0
  193.5680  174.4870  136.3470 C   0  0  0  0  0  0  0  0  0  0  0  0
  191.7680  174.5290  134.9370 N   0  0  0  0  0  0  0  0  0  0  0  0
  194.7480  174.8630  137.2050 C   0  0  2  0  0  3  0  0  0  0  0  0
  196.4320  176.0860  136.0850 O   0  0  0  0  0  0  0  0  0  0  0  0
  195.9730  174.9870  136.3550 C   0  0  0  0  0  3  0  0  0  0  0  0
  195.0020  173.8440  138.3160 C   0  0  0  0  0  2  0  0  0  0  0  0
  195.8190  175.4130  139.9910 N   0  0  0  0  0  1  0  0  0  0  0  0
  196.1780  174.2570  139.1890 C   0  0  0  0  0  2  0  0  0  0  0  0
  188.1200  177.0530  142.0920 C   0  0  0  0  0  2  0  0  0  0  0  0
  189.6900  178.6100  143.2880 C   0  0  0  0  0  1  0  0  0  0  0  0
  189.2780  177.1530  143.1040 C   0  0  2  0  0  0  0  0  0  0  0  0
  190.3670  174.9830  142.9840 O   0  0  0  0  0  1  0  0  0  0  0  0
  191.8240  176.8670  143.1100 C   0  0  0  0  0  1  0  0  0  0  0  0
  190.4880  176.3260  142.6170 C   0  0  2  0  0  3  0  0  0  0  0  0
  188.7870  176.6590  144.4370 C   0  0  0  0  0  3  0  0  0  0  0  0
  189.2910  177.0320  145.4850 O   0  0  0  0  0  0  0  0  0  0  0  0
  187.3960  179.2870  141.0920 O   0  0  0  0  0  0  0  0  0  0  0  0
  186.0060  178.1350  142.6570 C   0  0  0  0  0  2  0  0  0  0  0  0
  186.0500  178.9850  141.4020 C   0  0  0  0  0  0  0  0  0  0  0  0
  185.3700  179.5070  142.6650 C   0  0  0  0  0  2  0  0  0  0  0  0
  185.2860  178.3600  140.4020 O   0  0  0  0  0  0  0  0  0  0  0  0
  184.5390  180.1260  139.1540 O   0  0  0  0  0  1  0  0  0  0  0  0
  184.1940  179.1970  140.1380 C   0  0  1  0  0  3  0  0  0  0  0  0
  181.3180  178.4930  138.0390 C   0  0  1  0  0  3  0  0  0  0  0  0
  182.9670  178.3820  139.7280 C   0  0  1  0  0  3  0  0  0  0  0  0
  181.0660  178.2070  141.1410 O   0  0  0  0  0  1  0  0  0  0  0  0
  181.6890  179.0340  140.2070 C   0  0  2  0  0  3  0  0  0  0  0  0
  182.8000  178.2890  138.2400 C   0  0  1  0  0  3  0  0  0  0  0  0
  180.8270  179.2550  139.1150 O   0  0  0  0  0  0  0  0  0  0  0  0
  181.0730  179.2220  136.7320 C   0  0  0  0  0  2  0  0  0  0  0  0
  180.2870  178.4370  135.8910 O   0  0  0  0  0  1  0  0  0  0  0  0
  183.2900  176.9510  137.6800 C   0  0  0  0  0  2  0  0  0  0  0  0
  183.0160  175.7800  138.6170 C   0  0  0  0  0  1  0  0  0  0  0  0
  1  2  1  6  0  0  0
  1  4  1  0  0  0  0
  1  3  1  0  0  0  0
  3 36  1  0  0  0  0
  3 28  1  1  0  0  0
  4  3  1  0  0  0  0
  5 11  1  6  0  0  0
  5  1  1  0  0  0  0
  6  5  1  0  0  0  0
  7 18  1  1  0  0  0
  7 12  1  0  0  0  0
  7  9  1  0  0  0  0
  8  6  1  0  0  0  0
  9  8  2  0  0  0  0
 10 11  1  0  0  0  0
 12 13  1  0  0  0  0
 13  8  1  0  0  0  0
 13 10  1  1  0  0  0
 14 20  1  0  0  0  0
 15 16  1  0  0  0  0
 15 17  1  0  0  0  0
 17 20  2  0  0  0  0
 18 19  2  0  0  0  0
 19 16  1  0  0  0  0
 20 22  1  0  0  0  0
 21 18  1  0  0  0  0
 21 15  1  0  0  0  0
 21 14  1  0  0  0  0
 22 24  1  6  0  0  0
 22 25  1  0  0  0  0
 23 24  2  0  0  0  0
 25 27  1  0  0  0  0
 27 26  1  0  0  0  0
 28 30  1  0  0  0  0
 30 29  1  1  0  0  0
 30 34  1  0  0  0  0
 33 31  1  0  0  0  0
 33 30  1  0  0  0  0
 33 32  1  1  0  0  0
 34 35  2  0  0  0  0
 36 38  1  0  0  0  0
 37 39  1  0  0  0  0
 38 37  1  0  0  0  0
 38 39  1  0  0  0  0
 40 38  1  0  0  0  0
 42 41  1  6  0  0  0
 42 40  1  0  0  0  0
 43 49  1  6  0  0  0
 43 47  1  0  0  0  0
 43 48  1  0  0  0  0
 44 42  1  6  0  0  0
 44 46  1  0  0  0  0
 46 45  1  1  0  0  0
 47 51  1  1  0  0  0
 47 44  1  0  0  0  0
 48 46  1  0  0  0  0
 50 49  1  0  0  0  0
 51 52  1  0  0  0  0
M  END
>  <MODEL>
1

>  <REMARK>
 VINA RESULT:      -6.8      0.000      0.000
  Name = 
  17 active torsions:
  status: ('A' for Active; 'I' for Inactive)
    1  A    between atoms: C_2  and  C_25
    2  A    between atoms: C_3  and  C_51
    3  A    between atoms: C_4  and  C_24
    4  A    between atoms: C_5  and  O_8
    5  A    between atoms: C_5  and  O_42
    6  A    between atoms: C_6  and  C_13
    7  A    between atoms: C_6  and  C_22
    8  A    between atoms: C_6  and  C_29
    9  A    between atoms: O_8  and  C_12
   10  A    between atoms: C_12  and  C_35
   11  A    between atoms: C_19  and  C_31
   12  A    between atoms: C_20  and  C_48
   13  A    between atoms: C_22  and  C_45
   14  A    between atoms: C_23  and  C_34
   15  A    between atoms: C_35  and  C_48
   16  A    between atoms: O_42  and  C_51
   17  A    between atoms: C_48  and  C_50
                            x       y       z     vdW  Elec       q    Type
                         _______ _______ _______ _____ _____    ______ ____

>  <TORSDO>
F 17

$$$$
=
 OpenBabel11062415143D

 52 58  0  0  1  0  0  0  0  0999 V2000
  184.6580  178.1660  138.4440 C   0  0  1  0  0  0  0  0  0  0  0  0
  185.0990  177.5470  139.6170 O   0  0  0  0  0  1  0  0  0  0  0  0
  183.1870  178.2330  138.2420 C   0  0  2  0  0  0  0  0  0  0  0  0
  183.9260  179.3360  138.7240 O   0  0  0  0  0  0  0  0  0  0  0  0
  185.6290  178.3130  137.2580 C   0  0  1  0  0  3  0  0  0  0  0  0
  186.8230  179.0120  137.6440 O   0  0  0  0  0  0  0  0  0  0  0  0
  189.7480  177.6150  139.1170 C   0  0  2  0  0  3  0  0  0  0  0  0
  187.9660  178.3020  138.0060 C   0  0  0  0  0  0  0  0  0  0  0  0
  188.7920  178.6920  138.9010 N   0  0  0  0  0  0  0  0  0  0  0  0
  186.9750  176.1690  137.4240 C   0  0  0  0  0  2  0  0  0  0  0  0
  185.9430  176.9520  136.6010 C   0  0  0  0  0  2  0  0  0  0  0  0
  189.2310  176.4270  138.4180 N   0  0  0  0  0  2  0  0  0  0  0  0
  188.2650  176.9730  137.4740 C   0  0  2  0  0  3  0  0  0  0  0  0
  187.8370  178.4310  141.5790 C   0  0  0  0  0  2  0  0  0  0  0  0
  189.4810  177.3620  142.7760 N   0  0  0  0  0  0  0  0  0  0  0  0
  190.3700  176.2480  142.4850 C   0  0  0  0  0  2  0  0  0  0  0  0
  188.3010  177.2140  143.5030 N   0  0  0  0  0  0  0  0  0  0  0  0
  189.9150  177.3450  140.5840 C   0  0  0  0  0  0  0  0  0  0  0  0
  190.5480  176.3070  141.0330 N   0  0  0  0  0  0  0  0  0  0  0  0
  187.3480  177.8200  142.8670 C   0  0  0  0  0  0  0  0  0  0  0  0
  189.2410  178.0580  141.6050 N   0  0  0  0  0  0  0  0  0  0  0  0
  185.9320  177.8570  143.3790 C   0  0  2  0  0  3  0  0  0  0  0  0
  184.1410  178.9680  142.3120 O   0  0  0  0  0  0  0  0  0  0  0  0
  185.2330  179.0680  142.8480 C   0  0  0  0  0  3  0  0  0  0  0  0
  185.8710  177.8640  144.9060 C   0  0  0  0  0  2  0  0  0  0  0  0
  184.0100  178.9130  146.0790 N   0  0  0  0  0  1  0  0  0  0  0  0
  185.2850  179.1660  145.4320 C   0  0  0  0  0  2  0  0  0  0  0  0
  182.2380  177.6650  139.3120 C   0  0  0  0  0  2  0  0  0  0  0  0
  179.7250  177.6730  139.2950 C   0  0  0  0  0  1  0  0  0  0  0  0
  180.9720  178.4940  139.6030 C   0  0  2  0  0  0  0  0  0  0  0  0
  181.1300  180.9190  139.5560 O   0  0  0  0  0  1  0  0  0  0  0  0
  179.7210  179.9410  137.8990 C   0  0  0  0  0  1  0  0  0  0  0  0
  180.9710  179.7850  138.7560 C   0  0  2  0  0  3  0  0  0  0  0  0
  180.9420  178.8120  141.0730 C   0  0  0  0  0  3  0  0  0  0  0  0
  179.9890  178.5090  141.7750 O   0  0  0  0  0  0  0  0  0  0  0  0
  182.7020  178.4900  136.9410 O   0  0  0  0  0  0  0  0  0  0  0  0
  181.3920  177.5190  135.1960 C   0  0  0  0  0  2  0  0  0  0  0  0
  182.3930  177.2660  136.3050 C   0  0  0  0  0  0  0  0  0  0  0  0
  182.7650  176.9880  134.8510 C   0  0  0  0  0  2  0  0  0  0  0  0
  181.9170  176.2220  137.1180 O   0  0  0  0  0  0  0  0  0  0  0  0
  183.4480  174.5430  137.3860 O   0  0  0  0  0  1  0  0  0  0  0  0
  182.4130  175.0270  136.5820 C   0  0  1  0  0  3  0  0  0  0  0  0
  179.6020  173.0780  137.7930 C   0  0  1  0  0  3  0  0  0  0  0  0
  181.2980  173.9920  136.4270 C   0  0  1  0  0  3  0  0  0  0  0  0
  181.7810  171.7020  136.0260 O   0  0  0  0  0  1  0  0  0  0  0  0
  181.6950  172.6630  137.0320 C   0  0  2  0  0  3  0  0  0  0  0  0
  180.0440  174.3730  137.1570 C   0  0  1  0  0  3  0  0  0  0  0  0
  180.7370  172.2690  137.9870 O   0  0  0  0  0  0  0  0  0  0  0  0
  178.9340  173.3620  139.1250 C   0  0  0  0  0  2  0  0  0  0  0  0
  179.6960  174.2730  139.8540 O   0  0  0  0  0  1  0  0  0  0  0  0
  178.9830  174.9620  136.2240 C   0  0  0  0  0  2  0  0  0  0  0  0
  179.2530  174.6650  134.7540 C   0  0  0  0  0  1  0  0  0  0  0  0
  1  4  1  0  0  0  0
  1  2  1  1  0  0  0
  3  1  1  0  0  0  0
  3  4  1  0  0  0  0
  3 28  1  1  0  0  0
  5 11  1  1  0  0  0
  5  6  1  0  0  0  0
  5  1  1  0  0  0  0
  6  8  1  0  0  0  0
  7 18  1  1  0  0  0
  8  9  2  0  0  0  0
  9  7  1  0  0  0  0
 11 10  1  0  0  0  0
 12  7  1  0  0  0  0
 13 10  1  1  0  0  0
 13  8  1  0  0  0  0
 13 12  1  0  0  0  0
 14 21  1  0  0  0  0
 14 20  1  0  0  0  0
 15 17  1  0  0  0  0
 16 15  1  0  0  0  0
 18 19  2  0  0  0  0
 18 21  1  0  0  0  0
 19 16  1  0  0  0  0
 20 22  1  0  0  0  0
 20 17  2  0  0  0  0
 21 15  1  0  0  0  0
 22 24  1  6  0  0  0
 22 25  1  0  0  0  0
 23 24  2  0  0  0  0
 25 27  1  0  0  0  0
 27 26  1  0  0  0  0
 28 30  1  0  0  0  0
 30 29  1  6  0  0  0
 30 34  1  0  0  0  0
 33 32  1  1  0  0  0
 33 31  1  0  0  0  0
 33 30  1  0  0  0  0
 34 35  2  0  0  0  0
 36  3  1  0  0  0  0
 37 38  1  0  0  0  0
 38 36  1  0  0  0  0
 38 40  1  0  0  0  0
 39 37  1  0  0  0  0
 39 38  1  0  0  0  0
 42 40  1  0  0  0  0
 42 41  1  1  0  0  0
 43 48  1  0  0  0  0
 43 49  1  1  0  0  0
 44 42  1  1  0  0  0
 44 46  1  0  0  0  0
 44 47  1  0  0  0  0
 46 45  1  6  0  0  0
 46 48  1  0  0  0  0
 47 51  1  6  0  0  0
 47 43  1  0  0  0  0
 49 50  1  0  0  0  0
 52 51  1  0  0  0  0
M  END
>  <MODEL>
2

>  <REMARK>
 VINA RESULT:      -6.6      3.774      7.953
  Name = 
  17 active torsions:
  status: ('A' for Active; 'I' for Inactive)
    1  A    between atoms: C_2  and  C_25
    2  A    between atoms: C_3  and  C_51
    3  A    between atoms: C_4  and  C_24
    4  A    between atoms: C_5  and  O_8
    5  A    between atoms: C_5  and  O_42
    6  A    between atoms: C_6  and  C_13
    7  A    between atoms: C_6  and  C_22
    8  A    between atoms: C_6  and  C_29
    9  A    between atoms: O_8  and  C_12
   10  A    between atoms: C_12  and  C_35
   11  A    between atoms: C_19  and  C_31
   12  A    between atoms: C_20  and  C_48
   13  A    between atoms: C_22  and  C_45
   14  A    between atoms: C_23  and  C_34
   15  A    between atoms: C_35  and  C_48
   16  A    between atoms: O_42  and  C_51
   17  A    between atoms: C_48  and  C_50
                            x       y       z     vdW  Elec       q    Type
                         _______ _______ _______ _____ _____    ______ ____

>  <TORSDO>
F 17

$$$$
=
 OpenBabel11062415143D

 52 58  0  0  1  0  0  0  0  0999 V2000
  185.5660  177.7680  137.4880 C   0  0  1  0  0  0  0  0  0  0  0  0
  184.8170  177.0370  136.5630 O   0  0  0  0  0  1  0  0  0  0  0  0
  184.8700  178.1630  138.7420 C   0  0  2  0  0  0  0  0  0  0  0  0
  185.7410  177.0520  138.6880 O   0  0  0  0  0  0  0  0  0  0  0  0
  186.8330  178.5070  137.0190 C   0  0  1  0  0  3  0  0  0  0  0  0
  188.0220  177.8160  137.4320 O   0  0  0  0  0  0  0  0  0  0  0  0
  189.6510  175.1430  135.7340 C   0  0  2  0  0  3  0  0  0  0  0  0
  188.6640  176.9390  136.5590 C   0  0  0  0  0  0  0  0  0  0  0  0
  189.2640  175.8730  136.9330 N   0  0  0  0  0  0  0  0  0  0  0  0
  187.1920  177.5020  134.7170 C   0  0  0  0  0  2  0  0  0  0  0  0
  186.8150  178.7680  135.4980 C   0  0  0  0  0  2  0  0  0  0  0  0
  188.9750  175.7840  134.5940 N   0  0  0  0  0  2  0  0  0  0  0  0
  188.6060  177.0980  135.1060 C   0  0  2  0  0  3  0  0  0  0  0  0
  186.7920  173.8510  136.4710 C   0  0  0  0  0  2  0  0  0  0  0  0
  187.9790  171.9020  136.2110 N   0  0  0  0  0  0  0  0  0  0  0  0
  189.1000  171.5140  135.3680 C   0  0  0  0  0  2  0  0  0  0  0  0
  186.6560  171.6070  135.8860 N   0  0  0  0  0  0  0  0  0  0  0  0
  189.2580  173.6980  135.8480 C   0  0  0  0  0  0  0  0  0  0  0  0
  189.8360  172.7640  135.1620 N   0  0  0  0  0  0  0  0  0  0  0  0
  185.9480  172.6820  136.0370 C   0  0  0  0  0  0  0  0  0  0  0  0
  188.1080  173.2400  136.5370 N   0  0  0  0  0  0  0  0  0  0  0  0
  184.4660  172.7140  135.7700 C   0  0  2  0  0  3  0  0  0  0  0  0
  183.0130  174.4900  135.2040 O   0  0  0  0  0  0  0  0  0  0  0  0
  184.1090  173.9760  135.0480 C   0  0  0  0  0  3  0  0  0  0  0  0
  183.6450  172.6140  137.0550 C   0  0  0  0  0  2  0  0  0  0  0  0
  183.2630  170.3800  136.1610 N   0  0  0  0  0  1  0  0  0  0  0  0
  182.7180  171.4080  137.0290 C   0  0  0  0  0  2  0  0  0  0  0  0
  183.4100  177.7370  138.9760 C   0  0  0  0  0  2  0  0  0  0  0  0
  182.9050  180.1850  138.7060 C   0  0  0  0  0  1  0  0  0  0  0  0
  182.3340  178.7750  138.6020 C   0  0  2  0  0  0  0  0  0  0  0  0
  181.0500  179.6880  140.4530 O   0  0  0  0  0  1  0  0  0  0  0  0
  181.0700  177.3100  140.2800 C   0  0  0  0  0  1  0  0  0  0  0  0
  181.1100  178.6370  139.5340 C   0  0  2  0  0  3  0  0  0  0  0  0
  181.9450  178.5570  137.1650 C   0  0  0  0  0  3  0  0  0  0  0  0
  181.1080  177.7270  136.8460 O   0  0  0  0  0  0  0  0  0  0  0  0
  185.4320  179.1980  139.5200 O   0  0  0  0  0  0  0  0  0  0  0  0
  184.5860  179.3620  141.7480 C   0  0  0  0  0  2  0  0  0  0  0  0
  185.6280  178.7360  140.8420 C   0  0  0  0  0  0  0  0  0  0  0  0
  184.6030  177.8610  141.5580 C   0  0  0  0  0  2  0  0  0  0  0  0
  186.9000  178.9320  141.4090 O   0  0  0  0  0  0  0  0  0  0  0  0
  188.6260  179.2090  139.9320 O   0  0  0  0  0  1  0  0  0  0  0  0
  187.8210  178.2730  140.5850 C   0  0  1  0  0  3  0  0  0  0  0  0
  190.0800  177.3670  143.2780 C   0  0  1  0  0  3  0  0  0  0  0  0
  188.6630  177.2810  141.3900 C   0  0  1  0  0  3  0  0  0  0  0  0
  190.5270  176.1710  140.4260 O   0  0  0  0  0  1  0  0  0  0  0  0
  190.1250  177.3700  141.0130 C   0  0  2  0  0  3  0  0  0  0  0  0
  188.6420  177.5600  142.8640 C   0  0  1  0  0  3  0  0  0  0  0  0
  190.8990  177.6210  142.1630 O   0  0  0  0  0  0  0  0  0  0  0  0
  190.4230  178.3250  144.4030 C   0  0  0  0  0  2  0  0  0  0  0  0
  191.7910  178.5880  144.4020 O   0  0  0  0  0  1  0  0  0  0  0  0
  187.6830  176.6350  143.6190 C   0  0  0  0  0  2  0  0  0  0  0  0
  186.8240  177.3750  144.6370 C   0  0  0  0  0  1  0  0  0  0  0  0
  1  2  1  6  0  0  0
  1  4  1  0  0  0  0
  1  3  1  0  0  0  0
  3 28  1  1  0  0  0
  3 36  1  0  0  0  0
  4  3  1  0  0  0  0
  5 11  1  6  0  0  0
  5  6  1  0  0  0  0
  5  1  1  0  0  0  0
  7 18  1  1  0  0  0
  7  9  1  0  0  0  0
  8  9  2  0  0  0  0
  8  6  1  0  0  0  0
 10 11  1  0  0  0  0
 12 13  1  0  0  0  0
 12  7  1  0  0  0  0
 13 10  1  1  0  0  0
 13  8  1  0  0  0  0
 14 21  1  0  0  0  0
 15 21  1  0  0  0  0
 16 15  1  0  0  0  0
 17 20  2  0  0  0  0
 17 15  1  0  0  0  0
 18 21  1  0  0  0  0
 19 16  1  0  0  0  0
 19 18  2  0  0  0  0
 20 14  1  0  0  0  0
 22 24  1  1  0  0  0
 22 20  1  0  0  0  0
 22 25  1  0  0  0  0
 24 23  2  0  0  0  0
 26 27  1  0  0  0  0
 27 25  1  0  0  0  0
 30 29  1  1  0  0  0
 30 28  1  0  0  0  0
 30 33  1  0  0  0  0
 33 32  1  1  0  0  0
 33 31  1  0  0  0  0
 34 30  1  0  0  0  0
 35 34  2  0  0  0  0
 36 38  1  0  0  0  0
 38 40  1  0  0  0  0
 38 39  1  0  0  0  0
 38 37  1  0  0  0  0
 39 37  1  0  0  0  0
 42 41  1  1  0  0  0
 42 40  1  0  0  0  0
 43 49  1  1  0  0  0
 44 42  1  6  0  0  0
 44 47  1  0  0  0  0
 46 45  1  1  0  0  0
 46 44  1  0  0  0  0
 46 48  1  0  0  0  0
 47 43  1  0  0  0  0
 47 51  1  1  0  0  0
 48 43  1  0  0  0  0
 50 49  1  0  0  0  0
 51 52  1  0  0  0  0
M  END
>  <MODEL>
3

>  <REMARK>
 VINA RESULT:      -6.5      2.772      7.598
  Name = 
  17 active torsions:
  status: ('A' for Active; 'I' for Inactive)
    1  A    between atoms: C_2  and  C_25
    2  A    between atoms: C_3  and  C_51
    3  A    between atoms: C_4  and  C_24
    4  A    between atoms: C_5  and  O_8
    5  A    between atoms: C_5  and  O_42
    6  A    between atoms: C_6  and  C_13
    7  A    between atoms: C_6  and  C_22
    8  A    between atoms: C_6  and  C_29
    9  A    between atoms: O_8  and  C_12
   10  A    between atoms: C_12  and  C_35
   11  A    between atoms: C_19  and  C_31
   12  A    between atoms: C_20  and  C_48
   13  A    between atoms: C_22  and  C_45
   14  A    between atoms: C_23  and  C_34
   15  A    between atoms: C_35  and  C_48
   16  A    between atoms: O_42  and  C_51
   17  A    between atoms: C_48  and  C_50
                            x       y       z     vdW  Elec       q    Type
                         _______ _______ _______ _____ _____    ______ ____

>  <TORSDO>
F 17

$$$$
=
 OpenBabel11062415143D

 52 58  0  0  1  0  0  0  0  0999 V2000
  188.2720  177.7770  140.0020 C   0  0  1  0  0  0  0  0  0  0  0  0
  188.7630  176.4750  139.8860 O   0  0  0  0  0  1  0  0  0  0  0  0
  187.8110  178.1950  141.3530 C   0  0  2  0  0  0  0  0  0  0  0  0
  189.0810  178.5570  140.8510 O   0  0  0  0  0  0  0  0  0  0  0  0
  187.8030  178.5220  138.7390 C   0  0  1  0  0  3  0  0  0  0  0  0
  188.8850  178.7160  137.8150 O   0  0  0  0  0  0  0  0  0  0  0  0
  190.0300  176.4280  135.3390 C   0  0  2  0  0  3  0  0  0  0  0  0
  189.0780  177.8240  136.7620 C   0  0  0  0  0  0  0  0  0  0  0  0
  190.2270  177.5000  136.3040 N   0  0  0  0  0  0  0  0  0  0  0  0
  187.0440  176.6050  137.2610 C   0  0  0  0  0  2  0  0  0  0  0  0
  186.5950  177.8250  138.0760 C   0  0  0  0  0  2  0  0  0  0  0  0
  188.6350  175.9740  135.4690 N   0  0  0  0  0  2  0  0  0  0  0  0
  187.9760  177.0770  136.1560 C   0  0  2  0  0  3  0  0  0  0  0  0
  193.1710  176.2110  134.6560 C   0  0  0  0  0  2  0  0  0  0  0  0
  192.8980  174.1420  135.6150 N   0  0  0  0  0  0  0  0  0  0  0  0
  192.0330  173.6300  136.6670 C   0  0  0  0  0  2  0  0  0  0  0  0
  194.2220  174.5130  135.8430 N   0  0  0  0  0  0  0  0  0  0  0  0
  190.9870  175.3020  135.6000 C   0  0  0  0  0  0  0  0  0  0  0  0
  190.8440  174.4830  136.5940 N   0  0  0  0  0  0  0  0  0  0  0  0
  194.4220  175.6730  135.3010 C   0  0  0  0  0  0  0  0  0  0  0  0
  192.2280  175.1430  134.9350 N   0  0  0  0  0  0  0  0  0  0  0  0
  195.7560  176.3710  135.3590 C   0  0  2  0  0  3  0  0  0  0  0  0
  196.2440  178.6820  135.3000 O   0  0  0  0  0  0  0  0  0  0  0  0
  195.6280  177.7530  134.8010 C   0  0  0  0  0  3  0  0  0  0  0  0
  196.8390  175.6120  134.5940 C   0  0  0  0  0  2  0  0  0  0  0  0
  197.7280  175.5530  136.8620 N   0  0  0  0  0  1  0  0  0  0  0  0
  198.0650  175.3680  135.4620 C   0  0  0  0  0  2  0  0  0  0  0  0
  187.9190  177.2180  142.5370 C   0  0  0  0  0  2  0  0  0  0  0  0
  190.2260  176.3140  142.9550 C   0  0  0  0  0  1  0  0  0  0  0  0
  189.1890  177.3380  143.4010 C   0  0  2  0  0  0  0  0  0  0  0  0
  188.1860  178.2270  145.4290 O   0  0  0  0  0  1  0  0  0  0  0  0
  190.0610  176.7890  145.7460 C   0  0  0  0  0  1  0  0  0  0  0  0
  188.8450  177.1190  144.8910 C   0  0  2  0  0  3  0  0  0  0  0  0
  189.7860  178.7010  143.1790 C   0  0  0  0  0  3  0  0  0  0  0  0
  190.9630  178.9300  143.4080 O   0  0  0  0  0  0  0  0  0  0  0  0
  186.9740  179.3280  141.4520 O   0  0  0  0  0  0  0  0  0  0  0  0
  185.6930  177.9980  142.9680 C   0  0  0  0  0  2  0  0  0  0  0  0
  185.6580  178.9130  141.7590 C   0  0  0  0  0  0  0  0  0  0  0  0
  184.9600  179.3180  143.0550 C   0  0  0  0  0  2  0  0  0  0  0  0
  184.9260  178.2860  140.7360 O   0  0  0  0  0  0  0  0  0  0  0  0
  184.5040  179.9300  139.2010 O   0  0  0  0  0  1  0  0  0  0  0  0
  183.9820  179.2140  140.2810 C   0  0  1  0  0  3  0  0  0  0  0  0
  180.9400  178.8550  138.3330 C   0  0  1  0  0  3  0  0  0  0  0  0
  182.6700  178.5220  139.9070 C   0  0  1  0  0  3  0  0  0  0  0  0
  180.8480  178.4170  141.4260 O   0  0  0  0  0  1  0  0  0  0  0  0
  181.4800  179.2440  140.4990 C   0  0  2  0  0  3  0  0  0  0  0  0
  182.4100  178.5260  138.4300 C   0  0  1  0  0  3  0  0  0  0  0  0
  180.5760  179.5910  139.4750 O   0  0  0  0  0  0  0  0  0  0  0  0
  180.6790  179.6730  137.0830 C   0  0  0  0  0  2  0  0  0  0  0  0
  179.9260  178.9290  136.1770 O   0  0  0  0  0  1  0  0  0  0  0  0
  182.7570  177.1870  137.7730 C   0  0  0  0  0  2  0  0  0  0  0  0
  183.3350  177.3450  136.3720 C   0  0  0  0  0  1  0  0  0  0  0  0
  1  2  1  6  0  0  0
  1  4  1  0  0  0  0
  1  3  1  0  0  0  0
  3 36  1  0  0  0  0
  3 28  1  1  0  0  0
  4  3  1  0  0  0  0
  5 11  1  6  0  0  0
  5  1  1  0  0  0  0
  6  5  1  0  0  0  0
  7 12  1  0  0  0  0
  7 18  1  1  0  0  0
  7  9  1  0  0  0  0
  8  6  1  0  0  0  0
  9  8  2  0  0  0  0
 10 11  1  0  0  0  0
 12 13  1  0  0  0  0
 13  8  1  0  0  0  0
 13 10  1  1  0  0  0
 14 21  1  0  0  0  0
 14 20  1  0  0  0  0
 15 17  1  0  0  0  0
 15 16  1  0  0  0  0
 18 19  2  0  0  0  0
 19 16  1  0  0  0  0
 20 22  1  0  0  0  0
 20 17  2  0  0  0  0
 21 18  1  0  0  0  0
 21 15  1  0  0  0  0
 22 25  1  6  0  0  0
 24 23  2  0  0  0  0
 24 22  1  0  0  0  0
 25 27  1  0  0  0  0
 27 26  1  0  0  0  0
 28 30  1  0  0  0  0
 30 29  1  6  0  0  0
 30 33  1  0  0  0  0
 33 31  1  0  0  0  0
 33 32  1  1  0  0  0
 34 30  1  0  0  0  0
 34 35  2  0  0  0  0
 36 38  1  0  0  0  0
 37 39  1  0  0  0  0
 38 37  1  0  0  0  0
 38 39  1  0  0  0  0
 40 38  1  0  0  0  0
 42 41  1  6  0  0  0
 42 40  1  0  0  0  0
 43 49  1  6  0  0  0
 43 47  1  0  0  0  0
 43 48  1  0  0  0  0
 44 42  1  6  0  0  0
 44 46  1  0  0  0  0
 46 45  1  1  0  0  0
 47 51  1  1  0  0  0
 47 44  1  0  0  0  0
 48 46  1  0  0  0  0
 50 49  1  0  0  0  0
 52 51  1  0  0  0  0
M  END
>  <MODEL>
4

>  <REMARK>
 VINA RESULT:      -6.5      1.428      1.826
  Name = 
  17 active torsions:
  status: ('A' for Active; 'I' for Inactive)
    1  A    between atoms: C_2  and  C_25
    2  A    between atoms: C_3  and  C_51
    3  A    between atoms: C_4  and  C_24
    4  A    between atoms: C_5  and  O_8
    5  A    between atoms: C_5  and  O_42
    6  A    between atoms: C_6  and  C_13
    7  A    between atoms: C_6  and  C_22
    8  A    between atoms: C_6  and  C_29
    9  A    between atoms: O_8  and  C_12
   10  A    between atoms: C_12  and  C_35
   11  A    between atoms: C_19  and  C_31
   12  A    between atoms: C_20  and  C_48
   13  A    between atoms: C_22  and  C_45
   14  A    between atoms: C_23  and  C_34
   15  A    between atoms: C_35  and  C_48
   16  A    between atoms: O_42  and  C_51
   17  A    between atoms: C_48  and  C_50
                            x       y       z     vdW  Elec       q    Type
                         _______ _______ _______ _____ _____    ______ ____

>  <TORSDO>
F 17

$$$$
=
 OpenBabel11062415143D

 52 58  0  0  1  0  0  0  0  0999 V2000
  185.6620  177.9900  138.6090 C   0  0  1  0  0  0  0  0  0  0  0  0
  184.8080  176.9600  138.2060 O   0  0  0  0  0  1  0  0  0  0  0  0
  187.0980  177.8340  138.2600 C   0  0  2  0  0  0  0  0  0  0  0  0
  186.2290  178.6480  137.5010 O   0  0  0  0  0  0  0  0  0  0  0  0
  185.2180  178.9420  139.7340 C   0  0  1  0  0  3  0  0  0  0  0  0
  184.5430  180.0950  139.2050 O   0  0  0  0  0  0  0  0  0  0  0  0
  181.0880  180.3750  138.3900 C   0  0  2  0  0  3  0  0  0  0  0  0
  183.1510  180.1260  139.1400 C   0  0  0  0  0  0  0  0  0  0  0  0
  182.4940  180.7060  138.2090 N   0  0  0  0  0  0  0  0  0  0  0  0
  182.9270  178.0190  140.3170 C   0  0  0  0  0  2  0  0  0  0  0  0
  184.3700  178.2160  140.8010 C   0  0  0  0  0  2  0  0  0  0  0  0
  181.0180  179.3080  139.4020 N   0  0  0  0  0  2  0  0  0  0  0  0
  182.3060  179.3870  140.0780 C   0  0  2  0  0  3  0  0  0  0  0  0
  181.7760  177.7890  136.5960 C   0  0  0  0  0  2  0  0  0  0  0  0
  180.1310  178.6850  135.2680 N   0  0  0  0  0  0  0  0  0  0  0  0
  178.9310  179.4610  135.5420 C   0  0  0  0  0  2  0  0  0  0  0  0
  180.1040  177.3070  135.0560 N   0  0  0  0  0  0  0  0  0  0  0  0
  180.4810  179.9250  137.0930 C   0  0  0  0  0  0  0  0  0  0  0  0
  179.2550  180.1920  136.7690 N   0  0  0  0  0  0  0  0  0  0  0  0
  181.0330  176.7640  135.7790 C   0  0  0  0  0  0  0  0  0  0  0  0
  181.0950  179.0110  136.2040 N   0  0  0  0  0  0  0  0  0  0  0  0
  181.2820  175.2790  135.7870 C   0  0  2  0  0  3  0  0  0  0  0  0
  179.7390  175.2200  137.5770 O   0  0  0  0  0  0  0  0  0  0  0  0
  180.2850  174.6040  136.6760 C   0  0  0  0  0  3  0  0  0  0  0  0
  182.6950  174.9320  136.2540 C   0  0  0  0  0  2  0  0  0  0  0  0
  183.8070  172.8660  136.9080 N   0  0  0  0  0  1  0  0  0  0  0  0
  183.0900  173.5250  135.8320 C   0  0  0  0  0  2  0  0  0  0  0  0
  187.5680  176.6010  137.4690 C   0  0  0  0  0  2  0  0  0  0  0  0
  186.8830  177.8450  135.3950 C   0  0  0  0  0  1  0  0  0  0  0  0
  187.8600  176.8260  135.9730 C   0  0  2  0  0  0  0  0  0  0  0  0
  186.8100  174.6420  135.7900 O   0  0  0  0  0  1  0  0  0  0  0  0
  189.0750  174.7670  135.0550 C   0  0  0  0  0  1  0  0  0  0  0  0
  187.7450  175.4950  135.1990 C   0  0  2  0  0  3  0  0  0  0  0  0
  189.2400  177.4110  135.8420 C   0  0  0  0  0  3  0  0  0  0  0  0
  189.4490  178.6030  136.0090 O   0  0  0  0  0  0  0  0  0  0  0  0
  188.0430  178.6250  138.9510 O   0  0  0  0  0  0  0  0  0  0  0  0
  189.4850  176.7250  139.0790 C   0  0  0  0  0  2  0  0  0  0  0  0
  188.7650  177.8110  139.8540 C   0  0  0  0  0  0  0  0  0  0  0  0
  190.2900  177.7480  139.8500 C   0  0  0  0  0  2  0  0  0  0  0  0
  188.0420  177.2170  140.9030 O   0  0  0  0  0  0  0  0  0  0  0  0
  187.4220  178.8700  142.3580 O   0  0  0  0  0  1  0  0  0  0  0  0
  188.3870  177.9010  142.0760 C   0  0  1  0  0  3  0  0  0  0  0  0
  189.2490  177.0620  145.5000 C   0  0  1  0  0  3  0  0  0  0  0  0
  188.5580  176.9300  143.2450 C   0  0  1  0  0  3  0  0  0  0  0  0
  190.1640  175.1810  143.1790 O   0  0  0  0  0  1  0  0  0  0  0  0
  190.0090  176.5440  143.4300 C   0  0  2  0  0  3  0  0  0  0  0  0
  188.1620  177.5290  144.5620 C   0  0  1  0  0  3  0  0  0  0  0  0
  190.4150  176.8340  144.7470 O   0  0  0  0  0  0  0  0  0  0  0  0
  189.5090  178.1240  146.5520 C   0  0  0  0  0  2  0  0  0  0  0  0
  189.5880  177.5350  147.8120 O   0  0  0  0  0  1  0  0  0  0  0  0
  186.7680  177.0830  145.0100 C   0  0  0  0  0  2  0  0  0  0  0  0
  185.8120  178.2500  145.2260 C   0  0  0  0  0  1  0  0  0  0  0  0
  1  2  1  6  0  0  0
  1  5  1  0  0  0  0
  3 28  1  6  0  0  0
  3  1  1  0  0  0  0
  3 36  1  0  0  0  0
  4  3  1  0  0  0  0
  4  1  1  0  0  0  0
  5 11  1  1  0  0  0
  6  5  1  0  0  0  0
  7 18  1  6  0  0  0
  7 12  1  0  0  0  0
  8  6  1  0  0  0  0
  8 13  1  0  0  0  0
  9  7  1  0  0  0  0
  9  8  2  0  0  0  0
 10 11  1  0  0  0  0
 12 13  1  0  0  0  0
 13 10  1  6  0  0  0
 15 16  1  0  0  0  0
 15 21  1  0  0  0  0
 16 19  1  0  0  0  0
 17 15  1  0  0  0  0
 17 20  2  0  0  0  0
 19 18  2  0  0  0  0
 20 22  1  0  0  0  0
 20 14  1  0  0  0  0
 21 14  1  0  0  0  0
 21 18  1  0  0  0  0
 22 25  1  1  0  0  0
 22 24  1  0  0  0  0
 24 23  2  0  0  0  0
 27 25  1  0  0  0  0
 27 26  1  0  0  0  0
 30 29  1  6  0  0  0
 30 28  1  0  0  0  0
 33 32  1  1  0  0  0
 33 31  1  0  0  0  0
 33 30  1  0  0  0  0
 34 30  1  0  0  0  0
 34 35  2  0  0  0  0
 36 38  1  0  0  0  0
 37 39  1  0  0  0  0
 37 38  1  0  0  0  0
 38 40  1  0  0  0  0
 39 38  1  0  0  0  0
 40 42  1  0  0  0  0
 42 41  1  1  0  0  0
 43 49  1  1  0  0  0
 44 42  1  6  0  0  0
 44 46  1  0  0  0  0
 44 47  1  0  0  0  0
 46 45  1  1  0  0  0
 46 48  1  0  0  0  0
 47 51  1  1  0  0  0
 47 43  1  0  0  0  0
 48 43  1  0  0  0  0
 49 50  1  0  0  0  0
 51 52  1  0  0  0  0
M  END
>  <MODEL>
5

>  <REMARK>
 VINA RESULT:      -6.0      4.175      9.500
  Name = 
  17 active torsions:
  status: ('A' for Active; 'I' for Inactive)
    1  A    between atoms: C_2  and  C_25
    2  A    between atoms: C_3  and  C_51
    3  A    between atoms: C_4  and  C_24
    4  A    between atoms: C_5  and  O_8
    5  A    between atoms: C_5  and  O_42
    6  A    between atoms: C_6  and  C_13
    7  A    between atoms: C_6  and  C_22
    8  A    between atoms: C_6  and  C_29
    9  A    between atoms: O_8  and  C_12
   10  A    between atoms: C_12  and  C_35
   11  A    between atoms: C_19  and  C_31
   12  A    between atoms: C_20  and  C_48
   13  A    between atoms: C_22  and  C_45
   14  A    between atoms: C_23  and  C_34
   15  A    between atoms: C_35  and  C_48
   16  A    between atoms: O_42  and  C_51
   17  A    between atoms: C_48  and  C_50
                            x       y       z     vdW  Elec       q    Type
                         _______ _______ _______ _____ _____    ______ ____

>  <TORSDO>
F 17

$$$$
=
 OpenBabel11062415143D

 52 58  0  0  1  0  0  0  0  0999 V2000
  186.8600  177.4370  137.0260 C   0  0  1  0  0  0  0  0  0  0  0  0
  186.3190  178.3150  136.0840 O   0  0  0  0  0  1  0  0  0  0  0  0
  186.5830  177.7440  138.4540 C   0  0  2  0  0  0  0  0  0  0  0  0
  185.8500  176.7670  137.7440 O   0  0  0  0  0  0  0  0  0  0  0  0
  188.0380  176.5310  136.6250 C   0  0  1  0  0  3  0  0  0  0  0  0
  187.9830  175.2690  137.3090 O   0  0  0  0  0  0  0  0  0  0  0  0
  186.1670  172.3700  136.3220 C   0  0  2  0  0  3  0  0  0  0  0  0
  187.4070  174.1600  136.6920 C   0  0  0  0  0  0  0  0  0  0  0  0
  186.7530  173.2570  137.3170 N   0  0  0  0  0  0  0  0  0  0  0  0
  187.1000  175.3340  134.5940 C   0  0  0  0  0  2  0  0  0  0  0  0
  188.1320  176.3540  135.0940 C   0  0  0  0  0  2  0  0  0  0  0  0
  186.3420  173.0110  135.0090 N   0  0  0  0  0  2  0  0  0  0  0  0
  187.3970  173.9900  135.2390 C   0  0  2  0  0  3  0  0  0  0  0  0
  183.7770  174.5050  136.6600 C   0  0  0  0  0  2  0  0  0  0  0  0
  182.5640  172.5890  137.0260 N   0  0  0  0  0  0  0  0  0  0  0  0
  182.6670  171.2260  136.5280 C   0  0  0  0  0  2  0  0  0  0  0  0
  181.6790  173.5220  136.4870 N   0  0  0  0  0  0  0  0  0  0  0  0
  184.7140  172.1360  136.6160 C   0  0  0  0  0  0  0  0  0  0  0  0
  184.0960  171.0560  136.2540 N   0  0  0  0  0  0  0  0  0  0  0  0
  182.3240  174.6270  136.2810 C   0  0  0  0  0  0  0  0  0  0  0  0
  183.8350  173.1270  137.1170 N   0  0  0  0  0  0  0  0  0  0  0  0
  181.6630  175.8510  135.7040 C   0  0  2  0  0  3  0  0  0  0  0  0
  182.5430  177.8360  134.7720 O   0  0  0  0  0  0  0  0  0  0  0  0
  182.6530  176.6270  134.8930 C   0  0  0  0  0  3  0  0  0  0  0  0
  181.0730  176.7540  136.7860 C   0  0  0  0  0  2  0  0  0  0  0  0
  178.9880  176.9970  138.0220 N   0  0  0  0  0  1  0  0  0  0  0  0
  179.5550  176.8050  136.7000 C   0  0  0  0  0  2  0  0  0  0  0  0
  185.7130  178.9580  138.8240 C   0  0  0  0  0  2  0  0  0  0  0  0
  183.9700  177.1760  139.1480 C   0  0  0  0  0  1  0  0  0  0  0  0
  184.3120  178.6430  139.3860 C   0  0  2  0  0  0  0  0  0  0  0  0
  183.6470  180.8830  138.7170 O   0  0  0  0  0  1  0  0  0  0  0  0
  181.8720  179.4200  139.3480 C   0  0  0  0  0  1  0  0  0  0  0  0
  183.2520  179.5420  138.7150 C   0  0  2  0  0  3  0  0  0  0  0  0
  184.3400  178.8570  140.8750 C   0  0  0  0  0  3  0  0  0  0  0  0
  185.2250  179.5060  141.4120 O   0  0  0  0  0  0  0  0  0  0  0  0
  187.3950  177.1390  139.4380 O   0  0  0  0  0  0  0  0  0  0  0  0
  189.7120  177.6040  139.7840 C   0  0  0  0  0  2  0  0  0  0  0  0
  188.2900  178.0990  139.9630 C   0  0  0  0  0  0  0  0  0  0  0  0
  189.2700  178.8660  139.0780 C   0  0  0  0  0  2  0  0  0  0  0  0
  188.1070  178.4830  141.3020 O   0  0  0  0  0  0  0  0  0  0  0  0
  189.7460  179.3070  142.6710 O   0  0  0  0  0  1  0  0  0  0  0  0
  189.2940  178.1790  141.9810 C   0  0  1  0  0  3  0  0  0  0  0  0
  189.2280  176.6090  145.2530 C   0  0  1  0  0  3  0  0  0  0  0  0
  189.0960  176.9930  142.9250 C   0  0  1  0  0  3  0  0  0  0  0  0
  190.5170  175.0920  142.8440 O   0  0  0  0  0  1  0  0  0  0  0  0
  190.4210  176.3920  143.3390 C   0  0  2  0  0  3  0  0  0  0  0  0
  188.4440  177.3810  144.2200 C   0  0  1  0  0  3  0  0  0  0  0  0
  190.5190  176.3750  144.7440 O   0  0  0  0  0  0  0  0  0  0  0  0
  189.3140  177.4120  146.5370 C   0  0  0  0  0  2  0  0  0  0  0  0
  188.0420  177.5690  147.0840 O   0  0  0  0  0  1  0  0  0  0  0  0
  186.9500  177.0450  144.2450 C   0  0  0  0  0  2  0  0  0  0  0  0
  186.0880  178.2100  144.7180 C   0  0  0  0  0  1  0  0  0  0  0  0
  1  2  1  6  0  0  0
  1  4  1  0  0  0  0
  1  3  1  0  0  0  0
  3 28  1  1  0  0  0
  3 36  1  0  0  0  0
  4  3  1  0  0  0  0
  5 11  1  6  0  0  0
  5  1  1  0  0  0  0
  5  6  1  0  0  0  0
  7 18  1  1  0  0  0
  7  9  1  0  0  0  0
  8  6  1  0  0  0  0
  8  9  2  0  0  0  0
 10 11  1  0  0  0  0
 12 13  1  0  0  0  0
 12  7  1  0  0  0  0
 13 10  1  6  0  0  0
 13  8  1  0  0  0  0
 14 21  1  0  0  0  0
 15 21  1  0  0  0  0
 16 15  1  0  0  0  0
 17 15  1  0  0  0  0
 18 21  1  0  0  0  0
 19 16  1  0  0  0  0
 19 18  2  0  0  0  0
 20 17  2  0  0  0  0
 20 14  1  0  0  0  0
 22 24  1  1  0  0  0
 22 20  1  0  0  0  0
 22 25  1  0  0  0  0
 23 24  2  0  0  0  0
 27 25  1  0  0  0  0
 27 26  1  0  0  0  0
 28 30  1  0  0  0  0
 30 29  1  6  0  0  0
 30 34  1  0  0  0  0
 33 31  1  0  0  0  0
 33 32  1  1  0  0  0
 33 30  1  0  0  0  0
 34 35  2  0  0  0  0
 36 38  1  0  0  0  0
 37 38  1  0  0  0  0
 38 40  1  0  0  0  0
 39 37  1  0  0  0  0
 39 38  1  0  0  0  0
 40 42  1  0  0  0  0
 42 41  1  1  0  0  0
 43 49  1  1  0  0  0
 44 42  1  6  0  0  0
 44 46  1  0  0  0  0
 44 47  1  0  0  0  0
 46 45  1  1  0  0  0
 46 48  1  0  0  0  0
 47 51  1  6  0  0  0
 47 43  1  0  0  0  0
 48 43  1  0  0  0  0
 49 50  1  0  0  0  0
 51 52  1  0  0  0  0
M  END
>  <MODEL>
6

>  <REMARK>
 VINA RESULT:      -5.5      3.687      8.595
  Name = 
  17 active torsions:
  status: ('A' for Active; 'I' for Inactive)
    1  A    between atoms: C_2  and  C_25
    2  A    between atoms: C_3  and  C_51
    3  A    between atoms: C_4  and  C_24
    4  A    between atoms: C_5  and  O_8
    5  A    between atoms: C_5  and  O_42
    6  A    between atoms: C_6  and  C_13
    7  A    between atoms: C_6  and  C_22
    8  A    between atoms: C_6  and  C_29
    9  A    between atoms: O_8  and  C_12
   10  A    between atoms: C_12  and  C_35
   11  A    between atoms: C_19  and  C_31
   12  A    between atoms: C_20  and  C_48
   13  A    between atoms: C_22  and  C_45
   14  A    between atoms: C_23  and  C_34
   15  A    between atoms: C_35  and  C_48
   16  A    between atoms: O_42  and  C_51
   17  A    between atoms: C_48  and  C_50
                            x       y       z     vdW  Elec       q    Type
                         _______ _______ _______ _____ _____    ______ ____

>  <TORSDO>
F 17

$$$$
=
 OpenBabel11062415143D

 52 58  0  0  1  0  0  0  0  0999 V2000
  184.1750  178.0380  139.9940 C   0  0  1  0  0  0  0  0  0  0  0  0
  183.4350  177.2030  139.1520 O   0  0  0  0  0  1  0  0  0  0  0  0
  183.5880  178.3200  141.3300 C   0  0  2  0  0  0  0  0  0  0  0  0
  184.6020  177.3540  141.1490 O   0  0  0  0  0  0  0  0  0  0  0  0
  185.2500  178.9600  139.3890 C   0  0  1  0  0  3  0  0  0  0  0  0
  186.5490  178.3490  139.4390 O   0  0  0  0  0  0  0  0  0  0  0  0
  187.9600  176.1060  137.0610 C   0  0  2  0  0  3  0  0  0  0  0  0
  187.0470  177.6660  138.3310 C   0  0  0  0  0  0  0  0  0  0  0  0
  187.7920  176.6290  138.4090 N   0  0  0  0  0  0  0  0  0  0  0  0
  185.1700  178.3070  136.9390 C   0  0  0  0  0  2  0  0  0  0  0  0
  184.8790  179.4140  137.9610 C   0  0  0  0  0  2  0  0  0  0  0  0
  187.0040  176.8160  136.1950 N   0  0  0  0  0  2  0  0  0  0  0  0
  186.6600  178.0060  136.9620 C   0  0  2  0  0  3  0  0  0  0  0  0
  185.1660  174.5010  137.1050 C   0  0  0  0  0  2  0  0  0  0  0  0
  186.5840  172.6950  137.0470 N   0  0  0  0  0  0  0  0  0  0  0  0
  187.8950  172.4670  136.4590 C   0  0  0  0  0  2  0  0  0  0  0  0
  185.4020  172.2910  136.4280 N   0  0  0  0  0  0  0  0  0  0  0  0
  187.7090  174.6260  137.0360 C   0  0  0  0  0  0  0  0  0  0  0  0
  188.5200  173.7930  136.4630 N   0  0  0  0  0  0  0  0  0  0  0  0
  184.5660  173.2810  136.4560 C   0  0  0  0  0  0  0  0  0  0  0  0
  186.4950  174.0190  137.4380 N   0  0  0  0  0  0  0  0  0  0  0  0
  183.1820  173.1830  135.8700 C   0  0  2  0  0  3  0  0  0  0  0  0
  181.9060  174.2750  137.5330 O   0  0  0  0  0  0  0  0  0  0  0  0
  182.3320  174.3000  136.3890 C   0  0  0  0  0  3  0  0  0  0  0  0
  182.5130  171.8460  136.1870 C   0  0  0  0  0  2  0  0  0  0  0  0
  181.4580  169.8930  135.1830 N   0  0  0  0  0  1  0  0  0  0  0  0
  181.7710  171.2960  134.9780 C   0  0  0  0  0  2  0  0  0  0  0  0
  182.2480  177.6790  141.7320 C   0  0  0  0  0  2  0  0  0  0  0  0
  180.6430  179.2900  142.8030 C   0  0  0  0  0  1  0  0  0  0  0  0
  180.9910  178.5460  141.5190 C   0  0  2  0  0  0  0  0  0  0  0  0
  179.2400  176.9950  142.1780 O   0  0  0  0  0  1  0  0  0  0  0  0
  180.1600  176.6550  140.0050 C   0  0  0  0  0  1  0  0  0  0  0  0
  179.8000  177.6640  141.0870 C   0  0  2  0  0  3  0  0  0  0  0  0
  181.3030  179.5830  140.4750 C   0  0  0  0  0  3  0  0  0  0  0  0
  180.4290  180.0690  139.7730 O   0  0  0  0  0  0  0  0  0  0  0  0
  184.0800  179.4270  142.0560 O   0  0  0  0  0  0  0  0  0  0  0  0
  184.4800  180.0150  144.3360 C   0  0  0  0  0  2  0  0  0  0  0  0
  184.6810  178.9740  143.2520 C   0  0  0  0  0  0  0  0  0  0  0  0
  183.8630  178.6430  144.4980 C   0  0  0  0  0  2  0  0  0  0  0  0
  186.0440  178.6320  143.1980 O   0  0  0  0  0  0  0  0  0  0  0  0
  186.8150  176.5410  143.7190 O   0  0  0  0  0  1  0  0  0  0  0  0
  186.2790  177.7230  144.2370 C   0  0  1  0  0  3  0  0  0  0  0  0
  188.8910  177.5580  146.7510 C   0  0  1  0  0  3  0  0  0  0  0  0
  187.1970  178.3320  145.2980 C   0  0  1  0  0  3  0  0  0  0  0  0
  186.3280  179.2580  147.3040 O   0  0  0  0  0  1  0  0  0  0  0  0
  186.6820  178.0560  146.6930 C   0  0  2  0  0  3  0  0  0  0  0  0
  188.5750  177.7370  145.2870 C   0  0  1  0  0  3  0  0  0  0  0  0
  187.6790  177.4120  147.4510 O   0  0  0  0  0  0  0  0  0  0  0  0
  189.7530  176.3240  146.9430 C   0  0  0  0  0  2  0  0  0  0  0  0
  190.9190  176.6620  147.6270 O   0  0  0  0  0  1  0  0  0  0  0  0
  189.5900  178.6330  144.5720 C   0  0  0  0  0  2  0  0  0  0  0  0
  189.9350  178.1380  143.1720 C   0  0  0  0  0  1  0  0  0  0  0  0
  1  2  1  6  0  0  0
  1  4  1  0  0  0  0
  1  3  1  0  0  0  0
  3 28  1  1  0  0  0
  3 36  1  0  0  0  0
  4  3  1  0  0  0  0
  5 11  1  6  0  0  0
  5  6  1  0  0  0  0
  5  1  1  0  0  0  0
  7 18  1  1  0  0  0
  7  9  1  0  0  0  0
  8  9  2  0  0  0  0
  8  6  1  0  0  0  0
 10 11  1  0  0  0  0
 12 13  1  0  0  0  0
 12  7  1  0  0  0  0
 13 10  1  1  0  0  0
 13  8  1  0  0  0  0
 14 21  1  0  0  0  0
 15 21  1  0  0  0  0
 16 19  1  0  0  0  0
 16 15  1  0  0  0  0
 17 20  2  0  0  0  0
 17 15  1  0  0  0  0
 18 21  1  0  0  0  0
 19 18  2  0  0  0  0
 20 14  1  0  0  0  0
 22 25  1  1  0  0  0
 22 24  1  0  0  0  0
 22 20  1  0  0  0  0
 24 23  2  0  0  0  0
 27 26  1  0  0  0  0
 27 25  1  0  0  0  0
 30 28  1  0  0  0  0
 30 29  1  1  0  0  0
 33 32  1  6  0  0  0
 33 30  1  0  0  0  0
 33 31  1  0  0  0  0
 34 30  1  0  0  0  0
 35 34  2  0  0  0  0
 36 38  1  0  0  0  0
 37 39  1  0  0  0  0
 38 37  1  0  0  0  0
 38 39  1  0  0  0  0
 40 38  1  0  0  0  0
 40 42  1  0  0  0  0
 42 41  1  6  0  0  0
 43 49  1  6  0  0  0
 43 48  1  0  0  0  0
 44 42  1  6  0  0  0
 44 46  1  0  0  0  0
 46 45  1  1  0  0  0
 46 48  1  0  0  0  0
 47 51  1  1  0  0  0
 47 44  1  0  0  0  0
 47 43  1  0  0  0  0
 49 50  1  0  0  0  0
 52 51  1  0  0  0  0
M  END
>  <MODEL>
7

>  <REMARK>
 VINA RESULT:      -5.4      3.820      8.403
  Name = 
  17 active torsions:
  status: ('A' for Active; 'I' for Inactive)
    1  A    between atoms: C_2  and  C_25
    2  A    between atoms: C_3  and  C_51
    3  A    between atoms: C_4  and  C_24
    4  A    between atoms: C_5  and  O_8
    5  A    between atoms: C_5  and  O_42
    6  A    between atoms: C_6  and  C_13
    7  A    between atoms: C_6  and  C_22
    8  A    between atoms: C_6  and  C_29
    9  A    between atoms: O_8  and  C_12
   10  A    between atoms: C_12  and  C_35
   11  A    between atoms: C_19  and  C_31
   12  A    between atoms: C_20  and  C_48
   13  A    between atoms: C_22  and  C_45
   14  A    between atoms: C_23  and  C_34
   15  A    between atoms: C_35  and  C_48
   16  A    between atoms: O_42  and  C_51
   17  A    between atoms: C_48  and  C_50
                            x       y       z     vdW  Elec       q    Type
                         _______ _______ _______ _____ _____    ______ ____

>  <TORSDO>
F 17

$$$$
=
 OpenBabel11062415143D

 52 58  0  0  1  0  0  0  0  0999 V2000
  183.6750  178.0530  140.2810 C   0  0  1  0  0  0  0  0  0  0  0  0
  182.8070  177.2310  139.5590 O   0  0  0  0  0  1  0  0  0  0  0  0
  183.3580  178.2500  141.7200 C   0  0  2  0  0  0  0  0  0  0  0  0
  184.3440  177.3330  141.2900 O   0  0  0  0  0  0  0  0  0  0  0  0
  184.5800  179.0440  139.5260 C   0  0  1  0  0  3  0  0  0  0  0  0
  185.9350  178.5730  139.4690 O   0  0  0  0  0  0  0  0  0  0  0  0
  187.3380  176.3540  137.0620 C   0  0  2  0  0  3  0  0  0  0  0  0
  186.3920  177.8830  138.3480 C   0  0  0  0  0  0  0  0  0  0  0  0
  187.2480  176.9340  138.3950 N   0  0  0  0  0  0  0  0  0  0  0  0
  184.3290  178.2490  137.1300 C   0  0  0  0  0  2  0  0  0  0  0  0
  184.0240  179.3770  138.1250 C   0  0  0  0  0  2  0  0  0  0  0  0
  186.2310  176.9130  136.2680 N   0  0  0  0  0  2  0  0  0  0  0  0
  185.8380  178.1040  137.0120 C   0  0  2  0  0  3  0  0  0  0  0  0
  184.7310  174.4680  137.2340 C   0  0  0  0  0  2  0  0  0  0  0  0
  186.3330  172.8230  137.2740 N   0  0  0  0  0  0  0  0  0  0  0  0
  187.6590  172.6990  136.6880 C   0  0  0  0  0  2  0  0  0  0  0  0
  185.1990  172.2580  136.6930 N   0  0  0  0  0  0  0  0  0  0  0  0
  187.2460  174.8580  137.1310 C   0  0  0  0  0  0  0  0  0  0  0  0
  188.1380  174.0810  136.6030 N   0  0  0  0  0  0  0  0  0  0  0  0
  184.2620  173.1530  136.6680 C   0  0  0  0  0  0  0  0  0  0  0  0
  186.1050  174.1520  137.5830 N   0  0  0  0  0  0  0  0  0  0  0  0
  182.8940  172.8730  136.1040 C   0  0  2  0  0  3  0  0  0  0  0  0
  181.6200  174.0850  137.6830 O   0  0  0  0  0  0  0  0  0  0  0  0
  181.9460  173.9550  136.5130 C   0  0  0  0  0  3  0  0  0  0  0  0
  182.3480  171.5200  136.5580 C   0  0  0  0  0  2  0  0  0  0  0  0
  180.8500  170.0800  135.2850 N   0  0  0  0  0  1  0  0  0  0  0  0
  180.9250  171.3020  136.0650 C   0  0  0  0  0  2  0  0  0  0  0  0
  182.1450  177.5380  142.3440 C   0  0  0  0  0  2  0  0  0  0  0  0
  179.7350  177.4650  141.6320 C   0  0  0  0  0  1  0  0  0  0  0  0
  180.8120  178.3100  142.3040 C   0  0  2  0  0  0  0  0  0  0  0  0
  180.4360  180.7110  142.2450 O   0  0  0  0  0  1  0  0  0  0  0  0
  180.3990  179.6050  140.1330 C   0  0  0  0  0  1  0  0  0  0  0  0
  180.9870  179.6400  141.5370 C   0  0  2  0  0  3  0  0  0  0  0  0
  180.3650  178.5570  143.7190 C   0  0  0  0  0  3  0  0  0  0  0  0
  179.6880  177.7430  144.3280 O   0  0  0  0  0  0  0  0  0  0  0  0
  183.9530  179.3400  142.3920 O   0  0  0  0  0  0  0  0  0  0  0  0
  184.8840  180.1260  144.4470 C   0  0  0  0  0  2  0  0  0  0  0  0
  184.3900  178.9210  143.6700 C   0  0  0  0  0  0  0  0  0  0  0  0
  183.6850  179.3550  144.9520 C   0  0  0  0  0  2  0  0  0  0  0  0
  185.3720  177.9170  143.7160 O   0  0  0  0  0  0  0  0  0  0  0  0
  185.4230  177.8240  146.0020 O   0  0  0  0  0  1  0  0  0  0  0  0
  186.1500  178.1570  144.8550 C   0  0  1  0  0  3  0  0  0  0  0  0
  189.7220  177.8780  144.2800 C   0  0  1  0  0  3  0  0  0  0  0  0
  187.4690  177.3860  144.7900 C   0  0  1  0  0  3  0  0  0  0  0  0
  187.8130  175.6490  143.2080 O   0  0  0  0  0  1  0  0  0  0  0  0
  187.8300  177.0340  143.3640 C   0  0  2  0  0  3  0  0  0  0  0  0
  188.6370  178.1880  145.2820 C   0  0  1  0  0  3  0  0  0  0  0  0
  189.1120  177.5330  143.0600 O   0  0  0  0  0  0  0  0  0  0  0  0
  190.6090  179.0950  144.0900 C   0  0  0  0  0  2  0  0  0  0  0  0
  191.9470  178.7340  144.2290 O   0  0  0  0  0  1  0  0  0  0  0  0
  189.0370  177.8200  146.7130 C   0  0  0  0  0  2  0  0  0  0  0  0
  190.1310  176.7600  146.7700 C   0  0  0  0  0  1  0  0  0  0  0  0
  1  2  1  6  0  0  0
  1  4  1  0  0  0  0
  1  3  1  0  0  0  0
  3 28  1  1  0  0  0
  3 36  1  0  0  0  0
  4  3  1  0  0  0  0
  5 11  1  6  0  0  0
  5  1  1  0  0  0  0
  6  5  1  0  0  0  0
  7 18  1  1  0  0  0
  7  9  1  0  0  0  0
  8  9  2  0  0  0  0
  8  6  1  0  0  0  0
 10 11  1  0  0  0  0
 12 13  1  0  0  0  0
 12  7  1  0  0  0  0
 13 10  1  1  0  0  0
 13  8  1  0  0  0  0
 14 21  1  0  0  0  0
 15 21  1  0  0  0  0
 16 15  1  0  0  0  0
 17 15  1  0  0  0  0
 18 21  1  0  0  0  0
 19 16  1  0  0  0  0
 19 18  2  0  0  0  0
 20 17  2  0  0  0  0
 20 14  1  0  0  0  0
 22 24  1  1  0  0  0
 22 25  1  0  0  0  0
 22 20  1  0  0  0  0
 24 23  2  0  0  0  0
 26 27  1  0  0  0  0
 27 25  1  0  0  0  0
 30 29  1  6  0  0  0
 30 28  1  0  0  0  0
 30 34  1  0  0  0  0
 33 32  1  6  0  0  0
 33 31  1  0  0  0  0
 33 30  1  0  0  0  0
 34 35  2  0  0  0  0
 36 38  1  0  0  0  0
 37 39  1  0  0  0  0
 38 40  1  0  0  0  0
 38 37  1  0  0  0  0
 38 39  1  0  0  0  0
 40 42  1  0  0  0  0
 42 41  1  1  0  0  0
 43 49  1  6  0  0  0
 43 47  1  0  0  0  0
 44 42  1  6  0  0  0
 44 47  1  0  0  0  0
 46 45  1  1  0  0  0
 46 44  1  0  0  0  0
 47 51  1  1  0  0  0
 48 46  1  0  0  0  0
 48 43  1  0  0  0  0
 49 50  1  0  0  0  0
 51 52  1  0  0  0  0
M  END
>  <MODEL>
8

>  <REMARK>
 VINA RESULT:      -5.4      3.941      8.451
  Name = 
  17 active torsions:
  status: ('A' for Active; 'I' for Inactive)
    1  A    between atoms: C_2  and  C_25
    2  A    between atoms: C_3  and  C_51
    3  A    between atoms: C_4  and  C_24
    4  A    between atoms: C_5  and  O_8
    5  A    between atoms: C_5  and  O_42
    6  A    between atoms: C_6  and  C_13
    7  A    between atoms: C_6  and  C_22
    8  A    between atoms: C_6  and  C_29
    9  A    between atoms: O_8  and  C_12
   10  A    between atoms: C_12  and  C_35
   11  A    between atoms: C_19  and  C_31
   12  A    between atoms: C_20  and  C_48
   13  A    between atoms: C_22  and  C_45
   14  A    between atoms: C_23  and  C_34
   15  A    between atoms: C_35  and  C_48
   16  A    between atoms: O_42  and  C_51
   17  A    between atoms: C_48  and  C_50
                            x       y       z     vdW  Elec       q    Type
                         _______ _______ _______ _____ _____    ______ ____

>  <TORSDO>
F 17

$$$$
=
 OpenBabel11062415143D

 52 58  0  0  1  0  0  0  0  0999 V2000
  189.2260  174.0820  136.0490 C   0  0  1  0  0  0  0  0  0  0  0  0
  189.6700  173.9370  134.7330 O   0  0  0  0  0  1  0  0  0  0  0  0
  189.7490  175.2540  136.8000 C   0  0  2  0  0  0  0  0  0  0  0  0
  188.4660  175.2570  136.2090 O   0  0  0  0  0  0  0  0  0  0  0  0
  188.6430  172.8630  136.7880 C   0  0  1  0  0  3  0  0  0  0  0  0
  187.5310  173.2380  137.6150 O   0  0  0  0  0  0  0  0  0  0  0  0
  184.1240  173.5410  136.6250 C   0  0  2  0  0  3  0  0  0  0  0  0
  186.2270  173.1040  137.1420 C   0  0  0  0  0  0  0  0  0  0  0  0
  185.2750  173.9050  137.4390 N   0  0  0  0  0  0  0  0  0  0  0  0
  186.9480  172.0040  135.1070 C   0  0  0  0  0  2  0  0  0  0  0  0
  188.2800  171.7210  135.8150 C   0  0  0  0  0  2  0  0  0  0  0  0
  184.5910  172.5790  135.6130 N   0  0  0  0  0  2  0  0  0  0  0  0
  185.8510  172.0900  136.1570 C   0  0  2  0  0  3  0  0  0  0  0  0
  182.6880  176.0890  137.9770 C   0  0  0  0  0  2  0  0  0  0  0  0
  182.4900  176.7260  135.7790 N   0  0  0  0  0  0  0  0  0  0  0  0
  183.3070  176.5100  134.5940 C   0  0  0  0  0  2  0  0  0  0  0  0
  182.5470  177.9000  136.5280 N   0  0  0  0  0  0  0  0  0  0  0  0
  183.5330  174.7590  135.9760 C   0  0  0  0  0  0  0  0  0  0  0  0
  183.9690  175.2280  134.8500 N   0  0  0  0  0  0  0  0  0  0  0  0
  182.6430  177.5820  137.7810 C   0  0  0  0  0  0  0  0  0  0  0  0
  182.6020  175.6220  136.6040 N   0  0  0  0  0  0  0  0  0  0  0  0
  182.7240  178.6190  138.8710 C   0  0  2  0  0  3  0  0  0  0  0  0
  184.4430  180.1290  139.4640 O   0  0  0  0  0  0  0  0  0  0  0  0
  184.1530  179.0000  139.1010 C   0  0  0  0  0  3  0  0  0  0  0  0
  182.1120  178.1280  140.1820 C   0  0  0  0  0  2  0  0  0  0  0  0
  180.7690  180.1260  139.8040 N   0  0  0  0  0  1  0  0  0  0  0  0
  181.2320  179.1950  140.8170 C   0  0  0  0  0  2  0  0  0  0  0  0
  190.7020  176.2450  136.1100 C   0  0  0  0  0  2  0  0  0  0  0  0
  192.9390  176.3860  134.9730 C   0  0  0  0  0  1  0  0  0  0  0  0
  192.2070  175.9350  136.2320 C   0  0  2  0  0  0  0  0  0  0  0  0
  192.8220  174.1500  137.7620 O   0  0  0  0  0  1  0  0  0  0  0  0
  193.4300  173.8140  135.4810 C   0  0  0  0  0  1  0  0  0  0  0  0
  192.4250  174.4220  136.4500 C   0  0  2  0  0  3  0  0  0  0  0  0
  192.7630  176.7330  137.3790 C   0  0  0  0  0  3  0  0  0  0  0  0
  193.9620  176.7700  137.6130 O   0  0  0  0  0  0  0  0  0  0  0  0
  189.6470  175.2440  138.2080 O   0  0  0  0  0  0  0  0  0  0  0  0
  189.0720  177.4400  137.4650 C   0  0  0  0  0  2  0  0  0  0  0  0
  189.2140  176.5130  138.6560 C   0  0  0  0  0  0  0  0  0  0  0  0
  187.8490  177.0850  138.2810 C   0  0  0  0  0  2  0  0  0  0  0  0
  189.9940  177.1500  139.6370 O   0  0  0  0  0  0  0  0  0  0  0  0
  190.5430  175.9960  141.5350 O   0  0  0  0  0  1  0  0  0  0  0  0
  189.5310  176.7030  140.8810 C   0  0  1  0  0  3  0  0  0  0  0  0
  188.2500  178.1800  143.9390 C   0  0  1  0  0  3  0  0  0  0  0  0
  189.0330  177.8730  141.7310 C   0  0  1  0  0  3  0  0  0  0  0  0
  187.0330  179.0340  141.1900 O   0  0  0  0  0  1  0  0  0  0  0  0
  187.5230  177.8870  141.8130 C   0  0  2  0  0  3  0  0  0  0  0  0
  189.4820  177.7870  143.1600 C   0  0  1  0  0  3  0  0  0  0  0  0
  187.1180  177.8690  143.1630 O   0  0  0  0  0  0  0  0  0  0  0  0
  188.2070  177.4170  145.2490 C   0  0  0  0  0  2  0  0  0  0  0  0
  186.8910  177.3110  145.6930 O   0  0  0  0  0  1  0  0  0  0  0  0
  190.6770  178.6990  143.4510 C   0  0  0  0  0  2  0  0  0  0  0  0
  191.6810  178.0730  144.4120 C   0  0  0  0  0  1  0  0  0  0  0  0
  1  2  1  6  0  0  0
  1  4  1  0  0  0  0
  1  5  1  0  0  0  0
  1  3  1  0  0  0  0
  3 28  1  6  0  0  0
  3 36  1  0  0  0  0
  4  3  1  0  0  0  0
  5 11  1  6  0  0  0
  5  6  1  0  0  0  0
  7 18  1  6  0  0  0
  7  9  1  0  0  0  0
  8  9  2  0  0  0  0
  8  6  1  0  0  0  0
 10 11  1  0  0  0  0
 12 13  1  0  0  0  0
 12  7  1  0  0  0  0
 13 10  1  6  0  0  0
 13  8  1  0  0  0  0
 15 17  1  0  0  0  0
 15 21  1  0  0  0  0
 16 19  1  0  0  0  0
 16 15  1  0  0  0  0
 17 20  2  0  0  0  0
 18 21  1  0  0  0  0
 19 18  2  0  0  0  0
 20 14  1  0  0  0  0
 20 22  1  0  0  0  0
 21 14  1  0  0  0  0
 22 24  1  1  0  0  0
 22 25  1  0  0  0  0
 24 23  2  0  0  0  0
 25 27  1  0  0  0  0
 26 27  1  0  0  0  0
 28 30  1  0  0  0  0
 30 29  1  6  0  0  0
 30 33  1  0  0  0  0
 30 34  1  0  0  0  0
 33 32  1  6  0  0  0
 33 31  1  0  0  0  0
 34 35  2  0  0  0  0
 36 38  1  0  0  0  0
 37 39  1  0  0  0  0
 37 38  1  0  0  0  0
 38 40  1  0  0  0  0
 39 38  1  0  0  0  0
 40 42  1  0  0  0  0
 42 41  1  1  0  0  0
 43 49  1  1  0  0  0
 44 42  1  6  0  0  0
 44 46  1  0  0  0  0
 44 47  1  0  0  0  0
 46 45  1  1  0  0  0
 46 48  1  0  0  0  0
 47 51  1  6  0  0  0
 47 43  1  0  0  0  0
 48 43  1  0  0  0  0
 49 50  1  0  0  0  0
 51 52  1  0  0  0  0
M  END
>  <MODEL>
9

>  <REMARK>
 VINA RESULT:      -5.3      3.320      8.586
  Name = 
  17 active torsions:
  status: ('A' for Active; 'I' for Inactive)
    1  A    between atoms: C_2  and  C_25
    2  A    between atoms: C_3  and  C_51
    3  A    between atoms: C_4  and  C_24
    4  A    between atoms: C_5  and  O_8
    5  A    between atoms: C_5  and  O_42
    6  A    between atoms: C_6  and  C_13
    7  A    between atoms: C_6  and  C_22
    8  A    between atoms: C_6  and  C_29
    9  A    between atoms: O_8  and  C_12
   10  A    between atoms: C_12  and  C_35
   11  A    between atoms: C_19  and  C_31
   12  A    between atoms: C_20  and  C_48
   13  A    between atoms: C_22  and  C_45
   14  A    between atoms: C_23  and  C_34
   15  A    between atoms: C_35  and  C_48
   16  A    between atoms: O_42  and  C_51
   17  A    between atoms: C_48  and  C_50
                            x       y       z     vdW  Elec       q    Type
                         _______ _______ _______ _____ _____    ______ ____

>  <TORSDO>
F 17

$$$$
