=
 OpenBabel11062413063D

 40 47  0  0  1  0  0  0  0  0999 V2000
  179.9450  179.0730  138.3630 C   0  0  0  0  0  3  0  0  0  0  0  0
  184.9700  180.0170  143.1570 C   0  0  0  0  0  1  0  0  0  0  0  0
  183.3300  178.2480  142.3660 C   0  0  1  0  0  3  0  0  0  0  0  0
  181.6990  178.0920  140.5190 C   0  0  0  0  0  2  0  0  0  0  0  0
  184.8010  178.6200  142.5450 C   0  0  1  0  0  0  0  0  0  0  0  0
  184.1380  178.6590  140.1500 C   0  0  0  0  0  2  0  0  0  0  0  0
  180.4410  178.3250  141.3920 C   0  0  1  0  0  3  0  0  0  0  0  0
  180.7730  179.0730  142.6620 C   0  0  2  0  0  3  0  0  0  0  0  0
  180.1550  180.1920  142.7900 N   0  0  0  0  0  2  0  0  0  0  0  0
  179.0540  181.2060  139.5300 C   0  0  1  0  0  3  0  0  0  0  0  0
  179.4780  179.3150  140.7970 C   0  0  2  0  0  3  0  0  0  0  0  0
  180.2820  179.7540  137.2550 C   0  0  0  0  0  0  0  0  0  0  0  0
  179.8810  181.9180  138.4950 C   0  0  0  0  0  0  0  0  0  0  0  0
  182.1610  178.6450  143.7290 S   0  0  0  0  0  0  0  0  0  0  0  0
  179.4070  179.7600  139.5470 C   0  0  2  0  0  3  0  0  0  0  0  0
  185.3290  178.5770  141.0990 C   0  0  1  0  0  3  0  0  0  0  0  0
  179.1600  180.3740  141.7700 C   0  0  2  0  0  3  0  0  0  0  0  0
  182.9270  178.8330  141.0340 C   0  0  2  0  0  3  0  0  0  0  0  0
  186.2520  179.5900  140.8190 O   0  0  0  0  0  1  0  0  0  0  0  0
  179.3610  181.6490  140.9640 C   0  0  0  0  0  2  0  0  0  0  0  0
  180.1310  181.2560  137.1660 C   0  0  0  0  0  2  0  0  0  0  0  0
  180.2490  183.0690  138.6730 O   0  0  0  0  0  0  0  0  0  0  0  0
  181.8040  178.1010  136.2030 C   0  0  0  0  0  1  0  0  0  0  0  0
  180.7840  179.0880  136.1310 O   0  0  0  0  0  0  0  0  0  0  0  0
  185.5040  177.6180  143.2900 O   0  0  0  0  0  0  0  0  0  0  0  0
  187.5220  177.6320  144.6730 C   0  0  0  0  0  0  0  0  0  0  0  0
  188.0700  177.7890  145.9580 C   0  0  0  0  0  0  0  0  0  0  0  0
  186.1040  177.7480  144.5560 C   0  0  0  0  0  0  0  0  0  0  0  0
  189.5300  177.9050  147.6170 N   0  0  0  0  0  0  0  0  0  0  0  0
  187.9600  178.3390  149.3500 O   0  0  0  0  0  0  0  0  0  0  0  0
  185.9050  178.1640  146.9730 C   0  0  0  0  0  3  0  0  0  0  0  0
  188.2220  178.1210  148.1390 C   0  0  0  0  0  0  0  0  0  0  0  0
  187.2830  178.0420  147.0490 C   0  0  0  0  0  0  0  0  0  0  0  0
  185.3230  178.0160  145.7080 C   0  0  0  0  0  3  0  0  0  0  0  0
  189.4430  177.7120  146.3580 N   0  0  0  0  0  0  0  0  0  0  0  0
  188.7200  178.2460  142.6280 N   0  0  0  0  0  0  0  0  0  0  0  0
  189.5700  177.6390  141.6170 C   0  0  0  0  0  3  0  0  0  0  0  0
  188.9750  176.0580  143.1720 C   0  0  0  0  0  3  0  0  0  0  0  0
  189.6740  176.2170  142.0600 C   0  0  0  0  0  3  0  0  0  0  0  0
  188.3910  177.3510  143.4980 C   0  0  2  0  0  3  0  0  0  0  0  0
  1 15  1  0  0  0  0
  3  5  1  0  0  0  0
  3 14  1  1  0  0  0
  4 18  1  0  0  0  0
  5  2  1  1  0  0  0
  5 25  1  0  0  0  0
  6 18  1  0  0  0  0
  6 16  1  0  0  0  0
  7  4  1  6  0  0  0
  7  8  1  0  0  0  0
  8  9  1  6  0  0  0
  8 14  1  0  0  0  0
 10 15  1  0  0  0  0
 10 20  1  1  0  0  0
 11  7  1  0  0  0  0
 11 17  1  0  0  0  0
 12  1  2  0  0  0  0
 13 22  2  0  0  0  0
 13 10  1  0  0  0  0
 15 11  1  0  0  0  0
 16  5  1  0  0  0  0
 17  9  1  0  0  0  0
 18  3  1  0  0  0  0
 19 16  1  0  0  0  0
 20 17  1  0  0  0  0
 21 12  1  0  0  0  0
 21 13  1  0  0  0  0
 24 23  1  0  0  0  0
 24 12  1  0  0  0  0
 25 28  1  0  0  0  0
 26 27  1  0  0  0  0
 27 35  1  0  0  0  0
 27 33  2  0  0  0  0
 28 26  2  0  0  0  0
 28 34  1  0  0  0  0
 29 32  1  0  0  0  0
 31 33  1  0  0  0  0
 32 30  2  0  0  0  0
 33 32  1  0  0  0  0
 34 31  2  0  0  0  0
 35 29  2  0  0  0  0
 36 40  1  0  0  0  0
 37 39  1  0  0  0  0
 37 36  2  0  0  0  0
 38 40  1  0  0  0  0
 39 38  2  0  0  0  0
 40 26  1  0  0  0  0
M  END
>  <MODEL>
1

>  <REMARK>
 VINA RESULT:      -9.1      0.000      0.000
  Name = 
  4 active torsions:
  status: ('A' for Active; 'I' for Inactive)
    1  A    between atoms: C_3  and  C_34
    2  A    between atoms: C_8  and  O_16
    3  A    between atoms: C_12  and  O_16
    4  A    between atoms: C_20  and  O_22
                            x       y       z     vdW  Elec       q    Type
                         _______ _______ _______ _____ _____    ______ ____

>  <TORSDO>
F 4

$$$$
=
 OpenBabel11062413063D

 40 47  0  0  1  0  0  0  0  0999 V2000
  180.5510  178.5970  138.3540 C   0  0  0  0  0  3  0  0  0  0  0  0
  185.1210  180.1820  143.4260 C   0  0  0  0  0  1  0  0  0  0  0  0
  183.6320  178.2730  142.6620 C   0  0  1  0  0  3  0  0  0  0  0  0
  182.1660  177.8840  140.7150 C   0  0  0  0  0  2  0  0  0  0  0  0
  185.0650  178.7340  142.9230 C   0  0  1  0  0  0  0  0  0  0  0  0
  184.5990  178.5450  140.4890 C   0  0  0  0  0  2  0  0  0  0  0  0
  180.8310  178.1220  141.4650 C   0  0  1  0  0  3  0  0  0  0  0  0
  181.0240  178.9860  142.6890 C   0  0  2  0  0  3  0  0  0  0  0  0
  180.3480  180.0780  142.6740 N   0  0  0  0  0  2  0  0  0  0  0  0
  179.4730  180.7680  139.2650 C   0  0  1  0  0  3  0  0  0  0  0  0
  179.8760  179.0090  140.7150 C   0  0  2  0  0  3  0  0  0  0  0  0
  180.9460  179.2030  137.2230 C   0  0  0  0  0  0  0  0  0  0  0  0
  180.3480  181.4370  138.2410 C   0  0  0  0  0  0  0  0  0  0  0  0
  182.3390  178.7170  143.8930 S   0  0  0  0  0  0  0  0  0  0  0  0
  179.8880  179.3480  139.4310 C   0  0  2  0  0  3  0  0  0  0  0  0
  185.7110  178.6020  141.5310 C   0  0  1  0  0  3  0  0  0  0  0  0
  179.4330  180.1260  141.5680 C   0  0  2  0  0  3  0  0  0  0  0  0
  183.3130  178.7270  141.2590 C   0  0  2  0  0  3  0  0  0  0  0  0
  186.6070  179.6350  141.2390 O   0  0  0  0  0  1  0  0  0  0  0  0
  179.6410  181.3400  140.6760 C   0  0  0  0  0  2  0  0  0  0  0  0
  180.7350  180.6830  136.9950 C   0  0  0  0  0  2  0  0  0  0  0  0
  180.6480  182.6150  138.3490 O   0  0  0  0  0  0  0  0  0  0  0  0
  182.6090  177.5380  136.4370 C   0  0  0  0  0  1  0  0  0  0  0  0
  181.5670  178.4760  136.2010 O   0  0  0  0  0  0  0  0  0  0  0  0
  185.7490  177.8320  143.8020 O   0  0  0  0  0  0  0  0  0  0  0  0
  187.8880  177.5460  144.9560 C   0  0  0  0  0  0  0  0  0  0  0  0
  189.2310  177.1410  144.8680 C   0  0  0  0  0  0  0  0  0  0  0  0
  187.1050  177.4570  143.7660 C   0  0  0  0  0  0  0  0  0  0  0  0
  191.3310  176.7030  145.4120 N   0  0  0  0  0  0  0  0  0  0  0  0
  192.0280  175.9410  143.2690 O   0  0  0  0  0  0  0  0  0  0  0  0
  189.0380  176.5780  142.5220 C   0  0  0  0  0  3  0  0  0  0  0  0
  191.1370  176.3910  144.0360 C   0  0  0  0  0  0  0  0  0  0  0  0
  189.7670  176.6810  143.6960 C   0  0  0  0  0  0  0  0  0  0  0  0
  187.6950  176.9700  142.5720 C   0  0  0  0  0  3  0  0  0  0  0  0
  190.2300  177.1370  145.8930 N   0  0  0  0  0  0  0  0  0  0  0  0
  187.9130  177.9140  147.3780 N   0  0  0  0  0  0  0  0  0  0  0  0
  187.0900  178.5120  148.4150 C   0  0  0  0  0  2  0  0  0  0  0  0
  186.0500  178.7430  146.3820 C   0  0  0  0  0  3  0  0  0  0  0  0
  185.9030  179.0220  147.6670 C   0  0  0  0  0  3  0  0  0  0  0  0
  187.3210  178.0490  146.2380 C   0  0  0  0  0  0  0  0  0  0  0  0
  1 15  1  0  0  0  0
  3  5  1  0  0  0  0
  3 14  1  1  0  0  0
  4 18  1  0  0  0  0
  5  2  1  1  0  0  0
  5 25  1  0  0  0  0
  6 18  1  0  0  0  0
  6 16  1  0  0  0  0
  7  4  1  6  0  0  0
  7  8  1  0  0  0  0
  8  9  1  6  0  0  0
  8 14  1  0  0  0  0
 10 15  1  0  0  0  0
 10 20  1  1  0  0  0
 11  7  1  0  0  0  0
 11 17  1  0  0  0  0
 12  1  2  0  0  0  0
 13 22  2  0  0  0  0
 13 10  1  0  0  0  0
 15 11  1  0  0  0  0
 16  5  1  0  0  0  0
 17  9  1  0  0  0  0
 18  3  1  0  0  0  0
 19 16  1  0  0  0  0
 20 17  1  0  0  0  0
 21 12  1  0  0  0  0
 21 13  1  0  0  0  0
 24 23  1  0  0  0  0
 24 12  1  0  0  0  0
 26 40  1  0  0  0  0
 27 26  1  0  0  0  0
 27 35  1  0  0  0  0
 28 25  1  0  0  0  0
 28 26  2  0  0  0  0
 29 35  2  0  0  0  0
 30 32  2  0  0  0  0
 31 34  2  0  0  0  0
 31 33  1  0  0  0  0
 32 29  1  0  0  0  0
 33 32  1  0  0  0  0
 33 27  2  0  0  0  0
 34 28  1  0  0  0  0
 36 37  1  0  0  0  0
 38 39  2  0  0  0  0
 39 37  1  0  0  0  0
 40 38  1  0  0  0  0
 40 36  2  0  0  0  0
M  END
>  <MODEL>
2

>  <REMARK>
 VINA RESULT:      -7.4      1.424      2.940
  Name = 
  4 active torsions:
  status: ('A' for Active; 'I' for Inactive)
    1  A    between atoms: C_3  and  C_34
    2  A    between atoms: C_8  and  O_16
    3  A    between atoms: C_12  and  O_16
    4  A    between atoms: C_20  and  O_22
                            x       y       z     vdW  Elec       q    Type
                         _______ _______ _______ _____ _____    ______ ____

>  <TORSDO>
F 4

$$$$
=
 OpenBabel11062413063D

 40 47  0  0  1  0  0  0  0  0999 V2000
  180.2770  177.8320  136.6200 C   0  0  0  0  0  3  0  0  0  0  0  0
  187.2260  178.6740  136.9700 C   0  0  0  0  0  1  0  0  0  0  0  0
  185.3510  177.4060  138.1170 C   0  0  1  0  0  3  0  0  0  0  0  0
  182.9260  177.1590  137.7260 C   0  0  0  0  0  2  0  0  0  0  0  0
  186.6430  177.2970  137.3090 C   0  0  1  0  0  0  0  0  0  0  0  0
  184.6580  176.6940  135.9390 C   0  0  0  0  0  2  0  0  0  0  0  0
  182.4780  178.1020  138.8710 C   0  0  1  0  0  3  0  0  0  0  0  0
  183.5570  179.0960  139.2310 C   0  0  2  0  0  3  0  0  0  0  0  0
  183.2090  180.3240  139.0880 N   0  0  0  0  0  2  0  0  0  0  0  0
  180.4050  180.4080  136.8540 C   0  0  1  0  0  3  0  0  0  0  0  0
  181.4080  179.0740  138.4580 C   0  0  2  0  0  3  0  0  0  0  0  0
  179.9040  177.9130  135.3330 C   0  0  0  0  0  0  0  0  0  0  0  0
  180.4640  180.3770  135.3520 C   0  0  0  0  0  0  0  0  0  0  0  0
  185.2820  178.6370  139.4830 S   0  0  0  0  0  0  0  0  0  0  0  0
  180.6140  179.0370  137.3950 C   0  0  2  0  0  3  0  0  0  0  0  0
  186.1730  176.5610  136.0400 C   0  0  1  0  0  3  0  0  0  0  0  0
  181.8110  180.4530  138.7880 C   0  0  2  0  0  3  0  0  0  0  0  0
  184.2510  177.5730  137.0970 C   0  0  2  0  0  3  0  0  0  0  0  0
  186.7880  177.0290  134.8730 O   0  0  0  0  0  1  0  0  0  0  0  0
  181.5470  181.2050  137.4920 C   0  0  0  0  0  2  0  0  0  0  0  0
  179.8140  179.2390  134.6100 C   0  0  0  0  0  2  0  0  0  0  0  0
  180.9270  181.3170  134.7250 O   0  0  0  0  0  0  0  0  0  0  0  0
  180.1440  175.4850  134.8800 C   0  0  0  0  0  1  0  0  0  0  0  0
  179.5770  176.7610  134.6090 O   0  0  0  0  0  0  0  0  0  0  0  0
  187.5970  176.4540  137.9670 O   0  0  0  0  0  0  0  0  0  0  0  0
  189.8230  176.8700  138.8930 C   0  0  0  0  0  0  0  0  0  0  0  0
  191.2130  176.8280  138.6870 C   0  0  0  0  0  0  0  0  0  0  0  0
  188.9950  176.4500  137.8090 C   0  0  0  0  0  0  0  0  0  0  0  0
  193.3910  177.0230  139.0250 N   0  0  0  0  0  0  0  0  0  0  0  0
  194.0830  176.2500  136.8840 O   0  0  0  0  0  0  0  0  0  0  0  0
  190.9800  175.9880  136.4290 C   0  0  0  0  0  3  0  0  0  0  0  0
  193.1730  176.5270  137.7080 C   0  0  0  0  0  0  0  0  0  0  0  0
  191.7520  176.4050  137.5020 C   0  0  0  0  0  0  0  0  0  0  0  0
  189.5900  176.0130  136.5980 C   0  0  0  0  0  3  0  0  0  0  0  0
  192.2600  177.1990  139.5910 N   0  0  0  0  0  0  0  0  0  0  0  0
  188.6770  178.4830  140.3360 N   0  0  0  0  0  0  0  0  0  0  0  0
  188.2410  178.6210  141.7150 C   0  0  0  0  0  2  0  0  0  0  0  0
  189.2710  176.5890  141.4340 C   0  0  0  0  0  3  0  0  0  0  0  0
  188.6740  177.3390  142.3460 C   0  0  0  0  0  3  0  0  0  0  0  0
  189.2540  177.3380  140.1870 C   0  0  0  0  0  0  0  0  0  0  0  0
  1 15  1  0  0  0  0
  3 14  1  1  0  0  0
  5  2  1  6  0  0  0
  5 25  1  0  0  0  0
  5  3  1  0  0  0  0
  6 16  1  0  0  0  0
  6 18  1  0  0  0  0
  7  4  1  6  0  0  0
  7  8  1  0  0  0  0
  8  9  1  6  0  0  0
  8 14  1  0  0  0  0
 10 15  1  0  0  0  0
 10 20  1  1  0  0  0
 11 17  1  0  0  0  0
 11  7  1  0  0  0  0
 12  1  2  0  0  0  0
 13 10  1  0  0  0  0
 15 11  1  0  0  0  0
 16  5  1  0  0  0  0
 17  9  1  0  0  0  0
 18  4  1  0  0  0  0
 18  3  1  0  0  0  0
 19 16  1  0  0  0  0
 20 17  1  0  0  0  0
 21 12  1  0  0  0  0
 21 13  1  0  0  0  0
 22 13  2  0  0  0  0
 24 23  1  0  0  0  0
 24 12  1  0  0  0  0
 26 40  1  0  0  0  0
 27 26  1  0  0  0  0
 27 35  1  0  0  0  0
 28 25  1  0  0  0  0
 28 26  2  0  0  0  0
 29 35  2  0  0  0  0
 30 32  2  0  0  0  0
 31 34  2  0  0  0  0
 31 33  1  0  0  0  0
 32 29  1  0  0  0  0
 33 32  1  0  0  0  0
 33 27  2  0  0  0  0
 34 28  1  0  0  0  0
 36 37  1  0  0  0  0
 37 39  1  0  0  0  0
 38 39  2  0  0  0  0
 40 36  2  0  0  0  0
 40 38  1  0  0  0  0
M  END
>  <MODEL>
3

>  <REMARK>
 VINA RESULT:      -7.1      4.041      6.111
  Name = 
  4 active torsions:
  status: ('A' for Active; 'I' for Inactive)
    1  A    between atoms: C_3  and  C_34
    2  A    between atoms: C_8  and  O_16
    3  A    between atoms: C_12  and  O_16
    4  A    between atoms: C_20  and  O_22
                            x       y       z     vdW  Elec       q    Type
                         _______ _______ _______ _____ _____    ______ ____

>  <TORSDO>
F 4

$$$$
=
 OpenBabel11062413063D

 40 47  0  0  1  0  0  0  0  0999 V2000
  193.3760  173.9810  136.8810 C   0  0  0  0  0  3  0  0  0  0  0  0
  189.0670  178.9260  139.3520 C   0  0  0  0  0  1  0  0  0  0  0  0
  189.0900  176.4470  138.8090 C   0  0  1  0  0  3  0  0  0  0  0  0
  190.8130  174.8490  138.0500 C   0  0  0  0  0  2  0  0  0  0  0  0
  188.9310  177.5010  139.9030 C   0  0  1  0  0  0  0  0  0  0  0  0
  191.0990  176.3030  140.1020 C   0  0  0  0  0  2  0  0  0  0  0  0
  190.3340  174.7800  136.5780 C   0  0  1  0  0  3  0  0  0  0  0  0
  189.5630  176.0180  136.1820 C   0  0  2  0  0  3  0  0  0  0  0  0
  190.0800  176.6680  135.2020 N   0  0  0  0  0  2  0  0  0  0  0  0
  193.5280  175.7090  134.9580 C   0  0  1  0  0  3  0  0  0  0  0  0
  191.4550  174.8880  135.5810 C   0  0  2  0  0  3  0  0  0  0  0  0
  194.6220  174.2560  137.3000 C   0  0  0  0  0  0  0  0  0  0  0  0
  194.6650  176.2660  135.7690 C   0  0  0  0  0  0  0  0  0  0  0  0
  188.2570  176.7370  137.1940 S   0  0  0  0  0  0  0  0  0  0  0  0
  192.7590  174.7300  135.7750 C   0  0  2  0  0  3  0  0  0  0  0  0
  190.0900  177.1600  140.8580 C   0  0  1  0  0  3  0  0  0  0  0  0
  191.1760  175.9550  134.6050 C   0  0  2  0  0  3  0  0  0  0  0  0
  190.5760  176.2120  138.6890 C   0  0  2  0  0  3  0  0  0  0  0  0
  190.7100  178.2910  141.3980 O   0  0  0  0  0  1  0  0  0  0  0  0
  192.4700  176.7550  134.5940 C   0  0  0  0  0  2  0  0  0  0  0  0
  195.4540  175.3470  136.6640 C   0  0  0  0  0  2  0  0  0  0  0  0
  195.0290  177.4220  135.6230 O   0  0  0  0  0  0  0  0  0  0  0  0
  196.3130  174.0010  139.0970 C   0  0  0  0  0  1  0  0  0  0  0  0
  195.2010  173.5310  138.3470 O   0  0  0  0  0  0  0  0  0  0  0  0
  187.7080  177.3180  140.6270 O   0  0  0  0  0  0  0  0  0  0  0  0
  186.2320  178.0800  142.4240 C   0  0  0  0  0  0  0  0  0  0  0  0
  186.0500  178.2550  143.8070 C   0  0  0  0  0  0  0  0  0  0  0  0
  187.4790  177.5320  141.9990 C   0  0  0  0  0  0  0  0  0  0  0  0
  185.1420  178.7880  145.7530 N   0  0  0  0  0  0  0  0  0  0  0  0
  186.9750  178.1220  147.1150 O   0  0  0  0  0  0  0  0  0  0  0  0
  188.2440  177.3790  144.3330 C   0  0  0  0  0  3  0  0  0  0  0  0
  186.4440  178.2580  145.9820 C   0  0  0  0  0  0  0  0  0  0  0  0
  187.0220  177.9160  144.7080 C   0  0  0  0  0  0  0  0  0  0  0  0
  188.4600  177.1880  142.9630 C   0  0  0  0  0  3  0  0  0  0  0  0
  184.9140  178.7880  144.4960 N   0  0  0  0  0  0  0  0  0  0  0  0
  185.3160  179.3710  140.5550 N   0  0  0  0  0  0  0  0  0  0  0  0
  184.0880  179.4900  139.7870 C   0  0  0  0  0  3  0  0  0  0  0  0
  183.8350  177.8720  141.3960 C   0  0  0  0  0  3  0  0  0  0  0  0
  183.1890  178.4740  140.4110 C   0  0  0  0  0  3  0  0  0  0  0  0
  185.1660  178.4600  141.4560 C   0  0  2  0  0  3  0  0  0  0  0  0
  1 12  2  0  0  0  0
  3 14  1  6  0  0  0
  3  5  1  0  0  0  0
  4 18  1  0  0  0  0
  5  2  1  6  0  0  0
  5 25  1  0  0  0  0
  5 16  1  0  0  0  0
  6 16  1  0  0  0  0
  7  4  1  1  0  0  0
  8  9  1  1  0  0  0
  8  7  1  0  0  0  0
  8 14  1  0  0  0  0
 10 20  1  1  0  0  0
 10 13  1  0  0  0  0
 10 15  1  0  0  0  0
 11 15  1  0  0  0  0
 11  7  1  0  0  0  0
 12 24  1  0  0  0  0
 13 21  1  0  0  0  0
 15  1  1  0  0  0  0
 16 19  1  0  0  0  0
 17  9  1  0  0  0  0
 17 11  1  0  0  0  0
 18  3  1  0  0  0  0
 18  6  1  0  0  0  0
 20 17  1  0  0  0  0
 21 12  1  0  0  0  0
 22 13  2  0  0  0  0
 24 23  1  0  0  0  0
 25 28  1  0  0  0  0
 26 27  1  0  0  0  0
 27 35  1  0  0  0  0
 27 33  2  0  0  0  0
 28 26  2  0  0  0  0
 28 34  1  0  0  0  0
 29 32  1  0  0  0  0
 31 33  1  0  0  0  0
 32 30  2  0  0  0  0
 33 32  1  0  0  0  0
 34 31  2  0  0  0  0
 35 29  2  0  0  0  0
 36 40  1  0  0  0  0
 37 39  1  0  0  0  0
 37 36  2  0  0  0  0
 38 40  1  0  0  0  0
 39 38  2  0  0  0  0
 40 26  1  0  0  0  0
M  END
>  <MODEL>
4

>  <REMARK>
 VINA RESULT:      -6.3      5.372     10.015
  Name = 
  4 active torsions:
  status: ('A' for Active; 'I' for Inactive)
    1  A    between atoms: C_3  and  C_34
    2  A    between atoms: C_8  and  O_16
    3  A    between atoms: C_12  and  O_16
    4  A    between atoms: C_20  and  O_22
                            x       y       z     vdW  Elec       q    Type
                         _______ _______ _______ _____ _____    ______ ____

>  <TORSDO>
F 4

$$$$
=
 OpenBabel11062413063D

 40 47  0  0  1  0  0  0  0  0999 V2000
  188.0680  178.7850  141.3830 C   0  0  0  0  0  3  0  0  0  0  0  0
  181.6570  176.1290  140.4030 C   0  0  0  0  0  1  0  0  0  0  0  0
  182.8720  178.3570  140.3930 C   0  0  1  0  0  3  0  0  0  0  0  0
  185.2270  179.0540  140.6450 C   0  0  0  0  0  2  0  0  0  0  0  0
  182.0740  177.3470  139.5700 C   0  0  1  0  0  0  0  0  0  0  0  0
  184.4780  177.3420  138.9380 C   0  0  0  0  0  2  0  0  0  0  0  0
  185.0910  179.5640  142.1020 C   0  0  1  0  0  3  0  0  0  0  0  0
  183.9330  178.9100  142.8180 C   0  0  2  0  0  3  0  0  0  0  0  0
  184.2690  178.2530  143.8690 N   0  0  0  0  0  2  0  0  0  0  0  0
  187.7680  177.5060  143.6150 C   0  0  1  0  0  3  0  0  0  0  0  0
  186.2020  179.0970  143.0020 C   0  0  2  0  0  3  0  0  0  0  0  0
  188.9680  177.8970  140.9320 C   0  0  0  0  0  0  0  0  0  0  0  0
  188.3790  176.3640  142.8520 C   0  0  0  0  0  0  0  0  0  0  0  0
  182.2900  178.7430  142.0960 S   0  0  0  0  0  0  0  0  0  0  0  0
  187.3850  178.5930  142.6720 C   0  0  2  0  0  3  0  0  0  0  0  0
  183.0800  176.9540  138.4710 C   0  0  1  0  0  3  0  0  0  0  0  0
  185.6510  178.4500  144.2050 C   0  0  2  0  0  3  0  0  0  0  0  0
  184.3030  177.8820  140.3370 C   0  0  2  0  0  3  0  0  0  0  0  0
  183.0290  175.5960  138.1390 O   0  0  0  0  0  1  0  0  0  0  0  0
  186.4360  177.1480  144.2820 C   0  0  0  0  0  2  0  0  0  0  0  0
  189.3270  176.6550  141.7180 C   0  0  0  0  0  2  0  0  0  0  0  0
  188.2110  175.2090  143.2140 O   0  0  0  0  0  0  0  0  0  0  0  0
  188.9730  178.6370  138.5640 C   0  0  0  0  0  1  0  0  0  0  0  0
  189.6190  178.0960  139.7090 O   0  0  0  0  0  0  0  0  0  0  0  0
  180.9550  177.9700  138.9270 O   0  0  0  0  0  0  0  0  0  0  0  0
  180.8960  179.4240  136.9600 C   0  0  0  0  0  0  0  0  0  0  0  0
  180.8070  180.7370  136.4660 C   0  0  0  0  0  0  0  0  0  0  0  0
  180.8870  179.2630  138.3780 C   0  0  0  0  0  0  0  0  0  0  0  0
  180.7180  182.4520  135.0710 N   0  0  0  0  0  0  0  0  0  0  0  0
  180.5670  184.1570  136.7250 O   0  0  0  0  0  0  0  0  0  0  0  0
  180.7020  181.6980  138.6840 C   0  0  0  0  0  3  0  0  0  0  0  0
  180.6570  182.9420  136.4080 C   0  0  0  0  0  0  0  0  0  0  0  0
  180.7160  181.8150  137.3040 C   0  0  0  0  0  0  0  0  0  0  0  0
  180.7860  180.4050  139.2140 C   0  0  0  0  0  3  0  0  0  0  0  0
  180.8060  181.1790  135.1040 N   0  0  0  0  0  0  0  0  0  0  0  0
  180.0130  177.4720  135.7730 N   0  0  0  0  0  0  0  0  0  0  0  0
  180.4560  176.4500  134.8390 C   0  0  0  0  0  3  0  0  0  0  0  0
  182.2010  177.8630  135.3160 C   0  0  0  0  0  3  0  0  0  0  0  0
  181.8910  176.7910  134.6050 C   0  0  0  0  0  3  0  0  0  0  0  0
  181.0000  178.2620  136.0340 C   0  0  2  0  0  3  0  0  0  0  0  0
  1 15  1  0  0  0  0
  3 14  1  1  0  0  0
  5  3  1  0  0  0  0
  5  2  1  1  0  0  0
  6 18  1  0  0  0  0
  7  4  1  6  0  0  0
  7  8  1  0  0  0  0
  7 11  1  0  0  0  0
  8 14  1  6  0  0  0
  8  9  1  0  0  0  0
  9 17  1  0  0  0  0
 10 20  1  6  0  0  0
 11 17  1  0  0  0  0
 12  1  2  0  0  0  0
 12 21  1  0  0  0  0
 13 22  2  0  0  0  0
 13 10  1  0  0  0  0
 15 11  1  0  0  0  0
 15 10  1  0  0  0  0
 16  6  1  0  0  0  0
 16  5  1  0  0  0  0
 17 20  1  0  0  0  0
 18  3  1  0  0  0  0
 18  4  1  0  0  0  0
 19 16  1  0  0  0  0
 21 13  1  0  0  0  0
 23 24  1  0  0  0  0
 24 12  1  0  0  0  0
 25  5  1  0  0  0  0
 26 28  1  0  0  0  0
 27 26  2  0  0  0  0
 27 33  1  0  0  0  0
 28 25  1  0  0  0  0
 28 34  2  0  0  0  0
 29 35  2  0  0  0  0
 29 32  1  0  0  0  0
 31 34  1  0  0  0  0
 32 30  2  0  0  0  0
 32 33  1  0  0  0  0
 33 31  2  0  0  0  0
 35 27  1  0  0  0  0
 36 40  1  0  0  0  0
 37 36  2  0  0  0  0
 38 40  1  0  0  0  0
 39 37  1  0  0  0  0
 39 38  2  0  0  0  0
 40 26  1  0  0  0  0
M  END
>  <MODEL>
5

>  <REMARK>
 VINA RESULT:      -6.3      2.895      9.327
  Name = 
  4 active torsions:
  status: ('A' for Active; 'I' for Inactive)
    1  A    between atoms: C_3  and  C_34
    2  A    between atoms: C_8  and  O_16
    3  A    between atoms: C_12  and  O_16
    4  A    between atoms: C_20  and  O_22
                            x       y       z     vdW  Elec       q    Type
                         _______ _______ _______ _____ _____    ______ ____

>  <TORSDO>
F 4

$$$$
=
 OpenBabel11062413063D

 40 47  0  0  1  0  0  0  0  0999 V2000
  181.0660  179.6830  141.3660 C   0  0  0  0  0  3  0  0  0  0  0  0
  186.7070  176.3900  143.9080 C   0  0  0  0  0  1  0  0  0  0  0  0
  186.0170  178.6460  142.9720 C   0  0  1  0  0  3  0  0  0  0  0  0
  183.8810  179.6450  142.2410 C   0  0  0  0  0  2  0  0  0  0  0  0
  186.5530  177.8900  144.1860 C   0  0  1  0  0  0  0  0  0  0  0  0
  184.1960  178.6020  144.5250 C   0  0  0  0  0  2  0  0  0  0  0  0
  184.1550  179.5240  140.7210 C   0  0  1  0  0  3  0  0  0  0  0  0
  185.1530  178.4310  140.4190 C   0  0  2  0  0  3  0  0  0  0  0  0
  184.7010  177.5030  139.6540 N   0  0  0  0  0  2  0  0  0  0  0  0
  181.1190  177.6170  139.8040 C   0  0  1  0  0  3  0  0  0  0  0  0
  182.9870  178.9790  139.9460 C   0  0  2  0  0  3  0  0  0  0  0  0
  179.9820  179.2310  142.0170 C   0  0  0  0  0  0  0  0  0  0  0  0
  180.2540  176.9980  140.8670 C   0  0  0  0  0  0  0  0  0  0  0  0
  186.7030  178.2300  141.3160 S   0  0  0  0  0  0  0  0  0  0  0  0
  181.7150  178.8830  140.3160 C   0  0  2  0  0  3  0  0  0  0  0  0
  185.4640  178.1530  145.2430 C   0  0  1  0  0  3  0  0  0  0  0  0
  183.4040  177.8260  139.1290 C   0  0  2  0  0  3  0  0  0  0  0  0
  184.5150  178.5220  143.0520 C   0  0  2  0  0  3  0  0  0  0  0  0
  185.2050  177.0430  146.0550 O   0  0  0  0  0  1  0  0  0  0  0  0
  182.3510  176.7770  139.4560 C   0  0  0  0  0  2  0  0  0  0  0  0
  179.3730  177.8810  141.7110 C   0  0  0  0  0  2  0  0  0  0  0  0
  180.1690  175.7840  140.9740 O   0  0  0  0  0  0  0  0  0  0  0  0
  178.9670  179.4820  144.2670 C   0  0  0  0  0  1  0  0  0  0  0  0
  179.3680  180.0060  143.0070 O   0  0  0  0  0  0  0  0  0  0  0  0
  187.7700  178.4760  144.6670 O   0  0  0  0  0  0  0  0  0  0  0  0
  189.8850  177.2620  144.8680 C   0  0  0  0  0  0  0  0  0  0  0  0
  190.8430  176.6970  145.7260 C   0  0  0  0  0  0  0  0  0  0  0  0
  188.7520  177.8780  145.4780 C   0  0  0  0  0  0  0  0  0  0  0  0
  192.6490  175.6430  146.4520 N   0  0  0  0  0  0  0  0  0  0  0  0
  192.1770  175.8350  148.7760 O   0  0  0  0  0  0  0  0  0  0  0  0
  189.6150  177.3240  147.7160 C   0  0  0  0  0  3  0  0  0  0  0  0
  191.8710  176.0500  147.5740 C   0  0  0  0  0  0  0  0  0  0  0  0
  190.7000  176.7330  147.0870 C   0  0  0  0  0  0  0  0  0  0  0  0
  188.6400  177.9010  146.8920 C   0  0  0  0  0  3  0  0  0  0  0  0
  192.0550  176.0160  145.3850 N   0  0  0  0  0  0  0  0  0  0  0  0
  190.3550  178.2380  142.6710 N   0  0  0  0  0  0  0  0  0  0  0  0
  190.4390  177.8380  141.2770 C   0  0  0  0  0  3  0  0  0  0  0  0
  189.9030  176.0170  142.5670 C   0  0  0  0  0  3  0  0  0  0  0  0
  190.1290  176.3780  141.3150 C   0  0  0  0  0  3  0  0  0  0  0  0
  190.0540  177.2090  143.3890 C   0  0  2  0  0  3  0  0  0  0  0  0
  1 12  2  0  0  0  0
  3 14  1  6  0  0  0
  3 18  1  0  0  0  0
  3  5  1  0  0  0  0
  4 18  1  0  0  0  0
  5  2  1  6  0  0  0
  5 25  1  0  0  0  0
  5 16  1  0  0  0  0
  6 16  1  0  0  0  0
  7  4  1  1  0  0  0
  8  9  1  1  0  0  0
  8  7  1  0  0  0  0
  8 14  1  0  0  0  0
 10 20  1  1  0  0  0
 10 15  1  0  0  0  0
 10 13  1  0  0  0  0
 11 15  1  0  0  0  0
 11  7  1  0  0  0  0
 12 24  1  0  0  0  0
 13 22  2  0  0  0  0
 13 21  1  0  0  0  0
 15  1  1  0  0  0  0
 16 19  1  0  0  0  0
 17 20  1  0  0  0  0
 17  9  1  0  0  0  0
 17 11  1  0  0  0  0
 18  6  1  0  0  0  0
 21 12  1  0  0  0  0
 24 23  1  0  0  0  0
 25 28  1  0  0  0  0
 26 28  2  0  0  0  0
 26 27  1  0  0  0  0
 27 33  2  0  0  0  0
 28 34  1  0  0  0  0
 29 32  1  0  0  0  0
 32 30  2  0  0  0  0
 33 32  1  0  0  0  0
 33 31  1  0  0  0  0
 34 31  2  0  0  0  0
 35 27  1  0  0  0  0
 35 29  2  0  0  0  0
 36 40  1  0  0  0  0
 37 39  1  0  0  0  0
 37 36  2  0  0  0  0
 38 40  1  0  0  0  0
 39 38  2  0  0  0  0
 40 26  1  0  0  0  0
M  END
>  <MODEL>
6

>  <REMARK>
 VINA RESULT:      -6.1      2.808      4.347
  Name = 
  4 active torsions:
  status: ('A' for Active; 'I' for Inactive)
    1  A    between atoms: C_3  and  C_34
    2  A    between atoms: C_8  and  O_16
    3  A    between atoms: C_12  and  O_16
    4  A    between atoms: C_20  and  O_22
                            x       y       z     vdW  Elec       q    Type
                         _______ _______ _______ _____ _____    ______ ____

>  <TORSDO>
F 4

$$$$
