=
 OpenBabel11062417323D

 47 52  0  0  1  0  0  0  0  0999 V2000
  186.2450  176.9180  137.9040 C   0  0  2  0  0  3  0  0  0  0  0  0
  183.9780  175.4520  136.9190 C   0  0  2  0  0  3  0  0  0  0  0  0
  187.8920  175.6170  136.7970 C   0  0  0  0  0  2  0  0  0  0  0  0
  184.3890  179.4700  139.5660 C   0  0  0  0  0  3  0  0  0  0  0  0
  186.4460  176.0360  136.7070 C   0  0  1  0  0  3  0  0  0  0  0  0
  185.4130  174.9130  136.6900 C   0  0  0  0  0  2  0  0  0  0  0  0
  188.6030  176.8330  137.4080 C   0  0  2  0  0  0  0  0  0  0  0  0
  184.9360  177.6420  137.7800 C   0  0  0  0  0  0  0  0  0  0  0  0
  183.8840  177.0070  136.8770 C   0  0  2  0  0  3  0  0  0  0  0  0
  183.4400  174.8940  138.2290 C   0  0  0  0  0  1  0  0  0  0  0  0
  184.6400  178.5550  138.6690 C   0  0  0  0  0  0  0  0  0  0  0  0
  187.4880  177.7720  137.9040 C   0  0  0  0  0  2  0  0  0  0  0  0
  190.7610  177.0580  136.3800 F   0  0  0  0  0  0  0  0  0  0  0  0
  189.4840  178.9050  136.5580 F   0  0  0  0  0  0  0  0  0  0  0  0
  188.9420  177.3040  135.0750 F   0  0  0  0  0  0  0  0  0  0  0  0
  189.4630  177.5360  136.3390 C   0  0  0  0  0  0  0  0  0  0  0  0
  181.8360  177.5720  135.7650 O   0  0  0  0  0  1  0  0  0  0  0  0
  182.4560  177.5620  137.0170 C   0  0  1  0  0  3  0  0  0  0  0  0
  180.4710  176.1860  137.4260 O   0  0  0  0  0  0  0  0  0  0  0  0
  180.0990  176.5710  139.7650 C   0  0  0  0  0  2  0  0  0  0  0  0
  181.6290  176.7310  138.0060 C   0  0  2  0  0  3  0  0  0  0  0  0
  180.7610  178.8390  139.1170 C   0  0  0  0  0  1  0  0  0  0  0  0
  179.6360  175.8430  138.5090 C   0  0  2  0  0  3  0  0  0  0  0  0
  181.2560  177.4130  139.3120 C   0  0  1  0  0  3  0  0  0  0  0  0
  179.6420  173.8670  139.9090 N   0  0  0  0  0  2  0  0  0  0  0  0
  179.6370  174.3590  138.7240 C   0  0  0  0  0  3  0  0  0  0  0  0
  185.0350  179.4010  140.9080 C   0  0  0  0  0  2  0  0  0  0  0  0
  184.5350  178.3050  141.6200 O   0  0  0  0  0  0  0  0  0  0  0  0
  182.7550  178.5540  142.8610 O   0  0  0  0  0  1  0  0  0  0  0  0
  184.0830  178.8200  142.7940 N   0  0  0  0  0  0  0  0  0  0  0  0
  186.5750  178.0260  146.1420 C   0  0  0  0  0  0  0  0  0  0  0  0
  185.3640  178.7120  146.2700 O   0  0  0  0  0  0  0  0  0  0  0  0
  183.3310  179.3440  145.4140 O   0  0  0  0  0  0  0  0  0  0  0  0
  184.7310  178.1120  143.9050 C   0  0  2  0  0  3  0  0  0  0  0  0
  184.4390  178.7790  145.2230 C   0  0  0  0  0  0  0  0  0  0  0  0
  186.8960  177.2720  144.8870 C   0  0  0  0  0  2  0  0  0  0  0  0
  186.2470  177.9600  143.6940 C   0  0  0  0  0  2  0  0  0  0  0  0
  187.3820  177.9980  147.1070 O   0  0  0  0  0  0  0  0  0  0  0  0
  189.4670  176.3270  138.5740 C   0  0  0  0  0  2  0  0  0  0  0  0
  190.0400  177.4510  139.4310 C   0  0  0  0  0  2  0  0  0  0  0  0
  188.2070  177.3620  141.1410 F   0  0  0  0  0  0  0  0  0  0  0  0
  189.7600  178.4210  143.0020 O   0  0  0  0  0  1  0  0  0  0  0  0
  191.5430  177.1580  142.2660 O   0  0  0  0  0  0  0  0  0  0  0  0
  189.6680  175.7660  142.8720 C   0  0  0  0  0  1  0  0  0  0  0  0
  189.5670  177.3160  140.8660 C   0  0  1  0  0  0  0  0  0  0  0  0
  190.4390  176.4560  141.7510 C   0  0  2  0  0  0  0  0  0  0  0  0
  190.4680  177.9790  141.8780 C   0  0  2  0  0  0  0  0  0  0  0  0
  1 12  1  6  0  0  0
  2 10  1  1  0  0  0
  3  7  1  0  0  0  0
  4 27  1  0  0  0  0
  5  6  1  1  0  0  0
  5  3  1  0  0  0  0
  5  1  1  0  0  0  0
  6  2  1  0  0  0  0
  7 12  1  0  0  0  0
  7 39  1  1  0  0  0
  8  1  1  0  0  0  0
  8 11  2  0  0  0  0
  9  2  1  0  0  0  0
  9 18  1  1  0  0  0
  9  8  1  0  0  0  0
 11  4  2  0  0  0  0
 15 16  1  0  0  0  0
 16 13  1  0  0  0  0
 16 14  1  0  0  0  0
 16  7  1  0  0  0  0
 18 17  1  6  0  0  0
 19 21  1  0  0  0  0
 19 23  1  0  0  0  0
 21 18  1  6  0  0  0
 21 24  1  0  0  0  0
 23 26  1  1  0  0  0
 23 20  1  0  0  0  0
 24 22  1  6  0  0  0
 24 20  1  0  0  0  0
 26 25  2  0  0  0  0
 27 28  1  0  0  0  0
 28 30  1  0  0  0  0
 30 29  1  0  0  0  0
 31 32  1  0  0  0  0
 31 38  2  0  0  0  0
 34 30  1  6  0  0  0
 34 35  1  0  0  0  0
 35 33  2  0  0  0  0
 35 32  1  0  0  0  0
 36 31  1  0  0  0  0
 37 34  1  0  0  0  0
 37 36  1  0  0  0  0
 39 40  1  0  0  0  0
 40 45  1  0  0  0  0
 45 41  1  1  0  0  0
 45 46  1  0  0  0  0
 45 47  1  0  0  0  0
 46 47  1  0  0  0  0
 46 43  1  0  0  0  0
 46 44  1  1  0  0  0
 47 43  1  0  0  0  0
 47 42  1  1  0  0  0
M  END
>  <MODEL>
1

>  <REMARK>
 VINA RESULT:      -7.8      0.000      0.000
  Name = 
  11 active torsions:
  status: ('A' for Active; 'I' for Inactive)
    1  A    between atoms: C_11  and  C_23
    2  A    between atoms: C_11  and  C_34
    3  A    between atoms: C_14  and  C_21
    4  A    between atoms: C_21  and  O_41
    5  A    between atoms: C_22  and  C_30
    6  A    between atoms: C_22  and  C_47
    7  A    between atoms: C_27  and  C_36
    8  A    between atoms: C_27  and  C_47
    9  A    between atoms: N_28  and  C_31
   10  A    between atoms: N_28  and  O_41
   11  A    between atoms: C_32  and  C_33
                            x       y       z     vdW  Elec       q    Type
                         _______ _______ _______ _____ _____    ______ ____

>  <TORSDO>
F 11

$$$$
=
 OpenBabel11062417323D

 47 52  0  0  1  0  0  0  0  0999 V2000
  190.7360  175.7780  137.3480 C   0  0  2  0  0  3  0  0  0  0  0  0
  188.1710  175.6140  136.0610 C   0  0  2  0  0  3  0  0  0  0  0  0
  191.9720  174.7850  135.5820 C   0  0  0  0  0  2  0  0  0  0  0  0
  189.6410  177.6090  140.2060 C   0  0  0  0  0  3  0  0  0  0  0  0
  190.7080  175.5580  135.8630 C   0  0  1  0  0  3  0  0  0  0  0  0
  189.3980  174.8960  135.4450 C   0  0  0  0  0  2  0  0  0  0  0  0
  192.9840  175.3260  136.6020 C   0  0  2  0  0  0  0  0  0  0  0  0
  189.6910  176.7870  137.7250 C   0  0  0  0  0  0  0  0  0  0  0  0
  188.5250  176.9620  136.7580 C   0  0  2  0  0  3  0  0  0  0  0  0
  187.4630  174.6610  137.0130 C   0  0  0  0  0  1  0  0  0  0  0  0
  189.6440  177.2050  138.9640 C   0  0  0  0  0  0  0  0  0  0  0  0
  192.1700  176.1680  137.6010 C   0  0  0  0  0  2  0  0  0  0  0  0
  193.6350  176.4680  134.5940 F   0  0  0  0  0  0  0  0  0  0  0  0
  195.2610  175.5550  135.8570 F   0  0  0  0  0  0  0  0  0  0  0  0
  194.1930  177.4030  136.5650 F   0  0  0  0  0  0  0  0  0  0  0  0
  194.0350  176.2010  135.8920 C   0  0  0  0  0  0  0  0  0  0  0  0
  187.3720  179.0620  136.8690 O   0  0  0  0  0  1  0  0  0  0  0  0
  187.3110  177.7350  137.3020 C   0  0  1  0  0  3  0  0  0  0  0  0
  185.5430  177.5900  135.6130 O   0  0  0  0  0  0  0  0  0  0  0  0
  183.6650  176.9150  136.9450 C   0  0  0  0  0  2  0  0  0  0  0  0
  185.9930  177.0940  136.8480 C   0  0  2  0  0  3  0  0  0  0  0  0
  184.6910  178.4890  138.5180 C   0  0  0  0  0  1  0  0  0  0  0  0
  184.1760  177.2510  135.5500 C   0  0  2  0  0  3  0  0  0  0  0  0
  184.8470  177.1330  137.8450 C   0  0  1  0  0  3  0  0  0  0  0  0
  183.0430  175.2330  134.8380 N   0  0  0  0  0  2  0  0  0  0  0  0
  183.9620  176.0990  134.6140 C   0  0  0  0  0  3  0  0  0  0  0  0
  190.2060  176.7400  141.2780 C   0  0  0  0  0  2  0  0  0  0  0  0
  189.5350  176.9760  142.4830 O   0  0  0  0  0  0  0  0  0  0  0  0
  191.3190  178.1570  142.9220 O   0  0  0  0  0  1  0  0  0  0  0  0
  190.5150  177.1770  143.4030 N   0  0  0  0  0  0  0  0  0  0  0  0
  188.5950  177.2330  147.1920 C   0  0  0  0  0  0  0  0  0  0  0  0
  189.9590  176.9570  147.0600 O   0  0  0  0  0  0  0  0  0  0  0  0
  191.8820  176.9640  145.8100 O   0  0  0  0  0  0  0  0  0  0  0  0
  189.9090  177.6730  144.6440 C   0  0  2  0  0  3  0  0  0  0  0  0
  190.6390  177.1560  145.8550 C   0  0  0  0  0  0  0  0  0  0  0  0
  187.8220  177.8250  146.0520 C   0  0  0  0  0  2  0  0  0  0  0  0
  188.4080  177.3460  144.7310 C   0  0  0  0  0  2  0  0  0  0  0  0
  188.0200  177.0310  148.2930 O   0  0  0  0  0  0  0  0  0  0  0  0
  193.6380  174.1180  137.2920 C   0  0  0  0  0  2  0  0  0  0  0  0
  193.4440  172.8120  136.5300 C   0  0  0  0  0  2  0  0  0  0  0  0
  195.1130  171.7800  134.9670 F   0  0  0  0  0  0  0  0  0  0  0  0
  196.0360  170.1770  136.8580 O   0  0  0  0  0  1  0  0  0  0  0  0
  195.8930  171.8800  138.4050 O   0  0  0  0  0  0  0  0  0  0  0  0
  197.2820  172.5050  136.5320 C   0  0  0  0  0  1  0  0  0  0  0  0
  194.7830  172.1510  136.2630 C   0  0  1  0  0  0  0  0  0  0  0  0
  195.9040  172.5780  137.1830 C   0  0  2  0  0  0  0  0  0  0  0  0
  195.2370  171.2130  137.3540 C   0  0  2  0  0  0  0  0  0  0  0  0
  1 12  1  6  0  0  0
  1  8  1  0  0  0  0
  2  9  1  0  0  0  0
  2 10  1  1  0  0  0
  3  5  1  0  0  0  0
  3  7  1  0  0  0  0
  4 27  1  0  0  0  0
  5  6  1  1  0  0  0
  5  1  1  0  0  0  0
  6  2  1  0  0  0  0
  7 39  1  1  0  0  0
  7 12  1  0  0  0  0
  8 11  2  0  0  0  0
  9 18  1  1  0  0  0
  9  8  1  0  0  0  0
 11  4  2  0  0  0  0
 13 16  1  0  0  0  0
 14 16  1  0  0  0  0
 16 15  1  0  0  0  0
 16  7  1  0  0  0  0
 18 17  1  6  0  0  0
 19 21  1  0  0  0  0
 20 24  1  0  0  0  0
 21 18  1  1  0  0  0
 21 24  1  0  0  0  0
 23 26  1  6  0  0  0
 23 19  1  0  0  0  0
 23 20  1  0  0  0  0
 24 22  1  6  0  0  0
 26 25  2  0  0  0  0
 27 28  1  0  0  0  0
 28 30  1  0  0  0  0
 29 30  1  0  0  0  0
 31 38  2  0  0  0  0
 32 31  1  0  0  0  0
 33 35  2  0  0  0  0
 34 30  1  6  0  0  0
 34 37  1  0  0  0  0
 34 35  1  0  0  0  0
 35 32  1  0  0  0  0
 36 31  1  0  0  0  0
 37 36  1  0  0  0  0
 40 39  1  0  0  0  0
 45 41  1  6  0  0  0
 45 40  1  0  0  0  0
 45 46  1  0  0  0  0
 45 47  1  0  0  0  0
 46 44  1  6  0  0  0
 46 47  1  0  0  0  0
 46 43  1  0  0  0  0
 47 42  1  6  0  0  0
 47 43  1  0  0  0  0
M  END
>  <MODEL>
2

>  <REMARK>
 VINA RESULT:      -7.3      4.216      6.085
  Name = 
  11 active torsions:
  status: ('A' for Active; 'I' for Inactive)
    1  A    between atoms: C_11  and  C_23
    2  A    between atoms: C_11  and  C_34
    3  A    between atoms: C_14  and  C_21
    4  A    between atoms: C_21  and  O_41
    5  A    between atoms: C_22  and  C_30
    6  A    between atoms: C_22  and  C_47
    7  A    between atoms: C_27  and  C_36
    8  A    between atoms: C_27  and  C_47
    9  A    between atoms: N_28  and  C_31
   10  A    between atoms: N_28  and  O_41
   11  A    between atoms: C_32  and  C_33
                            x       y       z     vdW  Elec       q    Type
                         _______ _______ _______ _____ _____    ______ ____

>  <TORSDO>
F 11

$$$$
=
 OpenBabel11062417323D

 47 52  0  0  1  0  0  0  0  0999 V2000
  184.7940  177.2910  137.7810 C   0  0  2  0  0  3  0  0  0  0  0  0
  182.5440  176.2360  136.3370 C   0  0  2  0  0  3  0  0  0  0  0  0
  186.4260  176.7400  136.1480 C   0  0  0  0  0  2  0  0  0  0  0  0
  182.9270  178.7010  140.4730 C   0  0  0  0  0  3  0  0  0  0  0  0
  184.9580  177.0430  136.3100 C   0  0  1  0  0  3  0  0  0  0  0  0
  183.9850  175.9660  135.8370 C   0  0  0  0  0  2  0  0  0  0  0  0
  187.1140  177.6150  137.2070 C   0  0  2  0  0  0  0  0  0  0  0  0
  183.4440  177.8920  138.0410 C   0  0  0  0  0  0  0  0  0  0  0  0
  182.3660  177.6390  136.9930 C   0  0  2  0  0  3  0  0  0  0  0  0
  182.1280  175.1190  137.2850 C   0  0  0  0  0  1  0  0  0  0  0  0
  183.1620  178.2960  139.2540 C   0  0  0  0  0  0  0  0  0  0  0  0
  185.9880  178.1510  138.1100 C   0  0  0  0  0  2  0  0  0  0  0  0
  189.0240  179.0690  137.2170 F   0  0  0  0  0  0  0  0  0  0  0  0
  187.0640  179.9150  136.5020 F   0  0  0  0  0  0  0  0  0  0  0  0
  188.1860  178.4460  135.2220 F   0  0  0  0  0  0  0  0  0  0  0  0
  187.8590  178.7800  136.5270 C   0  0  0  0  0  0  0  0  0  0  0  0
  180.5890  177.2040  138.5420 O   0  0  0  0  0  1  0  0  0  0  0  0
  180.9240  177.9640  137.4190 C   0  0  1  0  0  3  0  0  0  0  0  0
  179.5010  179.7660  138.2740 O   0  0  0  0  0  0  0  0  0  0  0  0
  180.3310  181.6520  137.0450 C   0  0  0  0  0  2  0  0  0  0  0  0
  180.7580  179.4580  137.7270 C   0  0  2  0  0  3  0  0  0  0  0  0
  180.4390  179.9730  135.2650 C   0  0  0  0  0  1  0  0  0  0  0  0
  179.3460  181.1560  138.0960 C   0  0  2  0  0  3  0  0  0  0  0  0
  181.0500  180.4170  136.5860 C   0  0  1  0  0  3  0  0  0  0  0  0
  179.9850  181.2600  140.4290 N   0  0  0  0  0  2  0  0  0  0  0  0
  179.5450  181.8780  139.3950 C   0  0  0  0  0  3  0  0  0  0  0  0
  183.6670  178.0990  141.6190 C   0  0  0  0  0  2  0  0  0  0  0  0
  184.7550  178.9120  141.9600 O   0  0  0  0  0  0  0  0  0  0  0  0
  183.3740  178.8120  143.6500 O   0  0  0  0  0  1  0  0  0  0  0  0
  184.6540  179.0930  143.3040 N   0  0  0  0  0  0  0  0  0  0  0  0
  188.0150  177.3810  145.2590 C   0  0  0  0  0  0  0  0  0  0  0  0
  187.1090  178.2040  145.9340 O   0  0  0  0  0  0  0  0  0  0  0  0
  185.0770  179.2640  146.0420 O   0  0  0  0  0  0  0  0  0  0  0  0
  185.5180  178.1180  143.9810 C   0  0  2  0  0  3  0  0  0  0  0  0
  185.8900  178.5840  145.3630 C   0  0  0  0  0  0  0  0  0  0  0  0
  187.6760  176.8150  143.9130 C   0  0  0  0  0  2  0  0  0  0  0  0
  186.7760  177.7850  143.1610 C   0  0  0  0  0  2  0  0  0  0  0  0
  189.1050  177.0690  145.8070 O   0  0  0  0  0  0  0  0  0  0  0  0
  188.0820  176.7170  137.9930 C   0  0  0  0  0  2  0  0  0  0  0  0
  188.6260  175.5530  137.1720 C   0  0  0  0  0  2  0  0  0  0  0  0
  190.3440  176.7890  135.8240 F   0  0  0  0  0  0  0  0  0  0  0  0
  191.9560  174.6920  135.7790 O   0  0  0  0  0  1  0  0  0  0  0  0
  191.4480  174.2250  137.9790 O   0  0  0  0  0  0  0  0  0  0  0  0
  192.3250  176.4600  137.7320 C   0  0  0  0  0  1  0  0  0  0  0  0
  190.0660  175.8150  136.7730 C   0  0  1  0  0  0  0  0  0  0  0  0
  191.0860  175.5790  137.8640 C   0  0  2  0  0  0  0  0  0  0  0  0
  190.9270  174.5770  136.7200 C   0  0  2  0  0  0  0  0  0  0  0  0
  1  8  1  0  0  0  0
  1 12  1  6  0  0  0
  2  9  1  0  0  0  0
  2 10  1  1  0  0  0
  3  5  1  0  0  0  0
  3  7  1  0  0  0  0
  4 27  1  0  0  0  0
  5  6  1  1  0  0  0
  5  1  1  0  0  0  0
  6  2  1  0  0  0  0
  7 39  1  1  0  0  0
  7 12  1  0  0  0  0
  8 11  2  0  0  0  0
  9 18  1  1  0  0  0
  9  8  1  0  0  0  0
 11  4  2  0  0  0  0
 14 16  1  0  0  0  0
 15 16  1  0  0  0  0
 16  7  1  0  0  0  0
 16 13  1  0  0  0  0
 18 17  1  1  0  0  0
 20 23  1  0  0  0  0
 21 18  1  6  0  0  0
 21 19  1  0  0  0  0
 23 19  1  0  0  0  0
 23 26  1  1  0  0  0
 24 22  1  6  0  0  0
 24 20  1  0  0  0  0
 24 21  1  0  0  0  0
 26 25  2  0  0  0  0
 27 28  1  0  0  0  0
 28 30  1  0  0  0  0
 30 29  1  0  0  0  0
 31 38  2  0  0  0  0
 31 32  1  0  0  0  0
 34 30  1  6  0  0  0
 34 35  1  0  0  0  0
 35 32  1  0  0  0  0
 35 33  2  0  0  0  0
 36 31  1  0  0  0  0
 37 36  1  0  0  0  0
 37 34  1  0  0  0  0
 40 39  1  0  0  0  0
 45 41  1  6  0  0  0
 45 40  1  0  0  0  0
 45 46  1  0  0  0  0
 46 44  1  6  0  0  0
 46 43  1  0  0  0  0
 47 42  1  6  0  0  0
 47 45  1  0  0  0  0
 47 46  1  0  0  0  0
 47 43  1  0  0  0  0
M  END
>  <MODEL>
3

>  <REMARK>
 VINA RESULT:      -7.2      2.336      3.503
  Name = 
  11 active torsions:
  status: ('A' for Active; 'I' for Inactive)
    1  A    between atoms: C_11  and  C_23
    2  A    between atoms: C_11  and  C_34
    3  A    between atoms: C_14  and  C_21
    4  A    between atoms: C_21  and  O_41
    5  A    between atoms: C_22  and  C_30
    6  A    between atoms: C_22  and  C_47
    7  A    between atoms: C_27  and  C_36
    8  A    between atoms: C_27  and  C_47
    9  A    between atoms: N_28  and  C_31
   10  A    between atoms: N_28  and  O_41
   11  A    between atoms: C_32  and  C_33
                            x       y       z     vdW  Elec       q    Type
                         _______ _______ _______ _____ _____    ______ ____

>  <TORSDO>
F 11

$$$$
=
 OpenBabel11062417323D

 47 52  0  0  1  0  0  0  0  0999 V2000
  189.3610  177.3410  140.8790 C   0  0  2  0  0  3  0  0  0  0  0  0
  190.2160  176.3470  138.3210 C   0  0  2  0  0  3  0  0  0  0  0  0
  191.2980  176.6700  142.0750 C   0  0  0  0  0  2  0  0  0  0  0  0
  186.3730  178.9120  139.7280 C   0  0  0  0  0  3  0  0  0  0  0  0
  190.8210  177.0430  140.6940 C   0  0  1  0  0  3  0  0  0  0  0  0
  191.0180  175.9980  139.6000 C   0  0  0  0  0  2  0  0  0  0  0  0
  190.4580  177.5430  143.0180 C   0  0  2  0  0  0  0  0  0  0  0  0
  188.8250  178.0100  139.6470 C   0  0  0  0  0  0  0  0  0  0  0  0
  189.5920  177.7750  138.3510 C   0  0  2  0  0  3  0  0  0  0  0  0
  189.1570  175.2790  138.0910 C   0  0  0  0  0  1  0  0  0  0  0  0
  187.5970  178.4610  139.6650 C   0  0  0  0  0  0  0  0  0  0  0  0
  189.3440  178.1560  142.1480 C   0  0  0  0  0  2  0  0  0  0  0  0
  191.8520  178.2350  144.8450 F   0  0  0  0  0  0  0  0  0  0  0  0
  190.5850  179.8010  143.8390 F   0  0  0  0  0  0  0  0  0  0  0  0
  192.3830  178.9630  142.7800 F   0  0  0  0  0  0  0  0  0  0  0  0
  191.3330  178.6530  143.6320 C   0  0  0  0  0  0  0  0  0  0  0  0
  189.7930  178.6430  136.1240 O   0  0  0  0  0  1  0  0  0  0  0  0
  188.8630  178.1780  137.0560 C   0  0  1  0  0  3  0  0  0  0  0  0
  188.5060  176.6440  135.1800 O   0  0  0  0  0  0  0  0  0  0  0  0
  186.1770  176.1220  135.4290 C   0  0  0  0  0  2  0  0  0  0  0  0
  188.0770  176.9990  136.4710 C   0  0  2  0  0  3  0  0  0  0  0  0
  186.0880  178.5020  136.0050 C   0  0  0  0  0  1  0  0  0  0  0  0
  187.4540  175.8820  134.6320 C   0  0  2  0  0  3  0  0  0  0  0  0
  186.5630  177.1330  136.4690 C   0  0  1  0  0  3  0  0  0  0  0  0
  187.2220  173.6010  135.4110 N   0  0  0  0  0  2  0  0  0  0  0  0
  187.8080  174.4250  134.6220 C   0  0  0  0  0  3  0  0  0  0  0  0
  185.4020  178.3120  140.6870 C   0  0  0  0  0  2  0  0  0  0  0  0
  184.7490  179.3250  141.3990 O   0  0  0  0  0  0  0  0  0  0  0  0
  183.3720  177.6450  141.1730 O   0  0  0  0  0  1  0  0  0  0  0  0
  183.6510  178.7310  141.9350 N   0  0  0  0  0  0  0  0  0  0  0  0
  184.7410  178.7230  146.0410 C   0  0  0  0  0  0  0  0  0  0  0  0
  183.4380  179.0090  145.6250 O   0  0  0  0  0  0  0  0  0  0  0  0
  181.8170  178.9980  144.0020 O   0  0  0  0  0  0  0  0  0  0  0  0
  183.9800  178.2510  143.2830 C   0  0  2  0  0  3  0  0  0  0  0  0
  183.0200  178.7950  144.3080 C   0  0  0  0  0  0  0  0  0  0  0  0
  185.7260  178.1040  145.0960 C   0  0  0  0  0  2  0  0  0  0  0  0
  185.4340  178.5650  143.6750 C   0  0  0  0  0  2  0  0  0  0  0  0
  185.0780  178.9390  147.2350 O   0  0  0  0  0  0  0  0  0  0  0  0
  189.8760  176.6260  144.1050 C   0  0  0  0  0  2  0  0  0  0  0  0
  188.6750  177.2290  144.8230 C   0  0  0  0  0  2  0  0  0  0  0  0
  189.4330  179.0830  146.3340 F   0  0  0  0  0  0  0  0  0  0  0  0
  190.7590  177.4020  147.8890 O   0  0  0  0  0  1  0  0  0  0  0  0
  189.0530  175.8600  147.7160 O   0  0  0  0  0  0  0  0  0  0  0  0
  188.2520  177.9670  148.5780 C   0  0  0  0  0  1  0  0  0  0  0  0
  189.0810  177.7480  146.1900 C   0  0  1  0  0  0  0  0  0  0  0  0
  188.4150  177.0620  147.3600 C   0  0  2  0  0  0  0  0  0  0  0  0
  189.8730  176.7630  147.0140 C   0  0  2  0  0  0  0  0  0  0  0  0
  1 12  1  1  0  0  0
  2 10  1  1  0  0  0
  2  9  1  0  0  0  0
  2  6  1  0  0  0  0
  3  7  1  0  0  0  0
  4 27  1  0  0  0  0
  5  6  1  6  0  0  0
  5  1  1  0  0  0  0
  5  3  1  0  0  0  0
  7 16  1  0  0  0  0
  7 39  1  1  0  0  0
  8 11  2  0  0  0  0
  8  1  1  0  0  0  0
  9 18  1  6  0  0  0
  9  8  1  0  0  0  0
 11  4  2  0  0  0  0
 12  7  1  0  0  0  0
 15 16  1  0  0  0  0
 16 14  1  0  0  0  0
 16 13  1  0  0  0  0
 18 17  1  6  0  0  0
 19 21  1  0  0  0  0
 20 24  1  0  0  0  0
 21 18  1  6  0  0  0
 23 26  1  1  0  0  0
 23 19  1  0  0  0  0
 23 20  1  0  0  0  0
 24 22  1  6  0  0  0
 24 21  1  0  0  0  0
 26 25  2  0  0  0  0
 27 28  1  0  0  0  0
 28 30  1  0  0  0  0
 29 30  1  0  0  0  0
 31 38  2  0  0  0  0
 32 31  1  0  0  0  0
 33 35  2  0  0  0  0
 34 30  1  6  0  0  0
 34 37  1  0  0  0  0
 34 35  1  0  0  0  0
 35 32  1  0  0  0  0
 36 31  1  0  0  0  0
 37 36  1  0  0  0  0
 39 40  1  0  0  0  0
 40 45  1  0  0  0  0
 45 41  1  1  0  0  0
 45 47  1  0  0  0  0
 45 46  1  0  0  0  0
 46 43  1  0  0  0  0
 46 44  1  1  0  0  0
 47 46  1  0  0  0  0
 47 43  1  0  0  0  0
 47 42  1  1  0  0  0
M  END
>  <MODEL>
4

>  <REMARK>
 VINA RESULT:      -7.1      3.692      5.663
  Name = 
  11 active torsions:
  status: ('A' for Active; 'I' for Inactive)
    1  A    between atoms: C_11  and  C_23
    2  A    between atoms: C_11  and  C_34
    3  A    between atoms: C_14  and  C_21
    4  A    between atoms: C_21  and  O_41
    5  A    between atoms: C_22  and  C_30
    6  A    between atoms: C_22  and  C_47
    7  A    between atoms: C_27  and  C_36
    8  A    between atoms: C_27  and  C_47
    9  A    between atoms: N_28  and  C_31
   10  A    between atoms: N_28  and  O_41
   11  A    between atoms: C_32  and  C_33
                            x       y       z     vdW  Elec       q    Type
                         _______ _______ _______ _____ _____    ______ ____

>  <TORSDO>
F 11

$$$$
=
 OpenBabel11062417323D

 47 52  0  0  1  0  0  0  0  0999 V2000
  190.5630  176.0650  137.5260 C   0  0  2  0  0  3  0  0  0  0  0  0
  188.0420  175.7900  136.1750 C   0  0  2  0  0  3  0  0  0  0  0  0
  191.8440  174.8720  135.9230 C   0  0  0  0  0  2  0  0  0  0  0  0
  189.4000  178.2090  140.1280 C   0  0  0  0  0  3  0  0  0  0  0  0
  190.5830  175.6850  136.0740 C   0  0  1  0  0  3  0  0  0  0  0  0
  189.2780  174.9960  135.6840 C   0  0  0  0  0  2  0  0  0  0  0  0
  192.8290  175.5100  136.9140 C   0  0  2  0  0  0  0  0  0  0  0  0
  189.5220  177.1210  137.7550 C   0  0  0  0  0  0  0  0  0  0  0  0
  188.3920  177.2020  136.7340 C   0  0  2  0  0  3  0  0  0  0  0  0
  187.2880  174.9540  137.2000 C   0  0  0  0  0  1  0  0  0  0  0  0
  189.4390  177.6720  138.9390 C   0  0  0  0  0  0  0  0  0  0  0  0
  191.9940  176.4650  137.7870 C   0  0  0  0  0  2  0  0  0  0  0  0
  195.0770  175.5410  136.0720 F   0  0  0  0  0  0  0  0  0  0  0  0
  194.1990  177.4850  136.7960 F   0  0  0  0  0  0  0  0  0  0  0  0
  193.4860  176.5810  134.8640 F   0  0  0  0  0  0  0  0  0  0  0  0
  193.9160  176.2920  136.1500 C   0  0  0  0  0  0  0  0  0  0  0  0
  187.2030  179.2690  136.4780 O   0  0  0  0  0  1  0  0  0  0  0  0
  187.1710  178.0430  137.1480 C   0  0  1  0  0  3  0  0  0  0  0  0
  185.2700  177.7280  135.6360 O   0  0  0  0  0  0  0  0  0  0  0  0
  183.5650  177.0010  137.1600 C   0  0  0  0  0  2  0  0  0  0  0  0
  185.8600  177.3100  136.8410 C   0  0  2  0  0  3  0  0  0  0  0  0
  184.6310  178.6930  138.5750 C   0  0  0  0  0  1  0  0  0  0  0  0
  183.9260  177.3090  135.7120 C   0  0  2  0  0  3  0  0  0  0  0  0
  184.8080  177.3220  137.9380 C   0  0  1  0  0  3  0  0  0  0  0  0
  183.7600  174.9250  135.3260 N   0  0  0  0  0  2  0  0  0  0  0  0
  183.6980  176.1110  134.8410 C   0  0  0  0  0  3  0  0  0  0  0  0
  189.9160  177.4560  141.3080 C   0  0  0  0  0  2  0  0  0  0  0  0
  189.1280  177.7350  142.4310 O   0  0  0  0  0  0  0  0  0  0  0  0
  189.1120  175.5980  142.8820 O   0  0  0  0  0  1  0  0  0  0  0  0
  188.3180  176.6540  142.5740 N   0  0  0  0  0  0  0  0  0  0  0  0
  186.1930  178.6170  145.6860 C   0  0  0  0  0  0  0  0  0  0  0  0
  185.7710  178.6740  144.3540 O   0  0  0  0  0  0  0  0  0  0  0  0
  185.8620  177.8920  142.1990 O   0  0  0  0  0  0  0  0  0  0  0  0
  187.4220  176.8800  143.7150 C   0  0  2  0  0  3  0  0  0  0  0  0
  186.3280  177.8550  143.3680 C   0  0  0  0  0  0  0  0  0  0  0  0
  187.2200  177.6140  146.1190 C   0  0  0  0  0  2  0  0  0  0  0  0
  188.1810  177.3370  144.9720 C   0  0  0  0  0  2  0  0  0  0  0  0
  185.6700  179.3790  146.5400 O   0  0  0  0  0  0  0  0  0  0  0  0
  193.4420  174.3780  137.7530 C   0  0  0  0  0  2  0  0  0  0  0  0
  193.2770  173.0010  137.1180 C   0  0  0  0  0  2  0  0  0  0  0  0
  195.0200  172.7040  135.3390 F   0  0  0  0  0  0  0  0  0  0  0  0
  195.7990  170.3890  136.3540 O   0  0  0  0  0  1  0  0  0  0  0  0
  195.5910  171.2280  138.4910 O   0  0  0  0  0  0  0  0  0  0  0  0
  197.1020  172.5620  137.1620 C   0  0  0  0  0  1  0  0  0  0  0  0
  194.6180  172.4720  136.6470 C   0  0  1  0  0  0  0  0  0  0  0  0
  195.6880  172.3960  137.7120 C   0  0  2  0  0  0  0  0  0  0  0  0
  194.9890  171.1280  137.2230 C   0  0  2  0  0  0  0  0  0  0  0  0
  1  8  1  0  0  0  0
  1 12  1  6  0  0  0
  2  9  1  0  0  0  0
  2 10  1  1  0  0  0
  3  5  1  0  0  0  0
  3  7  1  0  0  0  0
  4 27  1  0  0  0  0
  5  6  1  1  0  0  0
  5  1  1  0  0  0  0
  6  2  1  0  0  0  0
  7 39  1  1  0  0  0
  7 12  1  0  0  0  0
  8 11  2  0  0  0  0
  9 18  1  1  0  0  0
  9  8  1  0  0  0  0
 11  4  2  0  0  0  0
 13 16  1  0  0  0  0
 15 16  1  0  0  0  0
 16 14  1  0  0  0  0
 16  7  1  0  0  0  0
 18 17  1  6  0  0  0
 19 23  1  0  0  0  0
 19 21  1  0  0  0  0
 20 24  1  0  0  0  0
 21 18  1  1  0  0  0
 21 24  1  0  0  0  0
 23 26  1  6  0  0  0
 23 20  1  0  0  0  0
 24 22  1  6  0  0  0
 26 25  2  0  0  0  0
 27 28  1  0  0  0  0
 28 30  1  0  0  0  0
 30 29  1  0  0  0  0
 31 36  1  0  0  0  0
 31 38  2  0  0  0  0
 32 31  1  0  0  0  0
 33 35  2  0  0  0  0
 34 30  1  6  0  0  0
 34 37  1  0  0  0  0
 35 34  1  0  0  0  0
 35 32  1  0  0  0  0
 37 36  1  0  0  0  0
 40 39  1  0  0  0  0
 45 41  1  6  0  0  0
 45 40  1  0  0  0  0
 45 47  1  0  0  0  0
 45 46  1  0  0  0  0
 46 44  1  6  0  0  0
 46 43  1  0  0  0  0
 47 42  1  6  0  0  0
 47 46  1  0  0  0  0
 47 43  1  0  0  0  0
M  END
>  <MODEL>
5

>  <REMARK>
 VINA RESULT:      -7.1      3.957      5.529
  Name = 
  11 active torsions:
  status: ('A' for Active; 'I' for Inactive)
    1  A    between atoms: C_11  and  C_23
    2  A    between atoms: C_11  and  C_34
    3  A    between atoms: C_14  and  C_21
    4  A    between atoms: C_21  and  O_41
    5  A    between atoms: C_22  and  C_30
    6  A    between atoms: C_22  and  C_47
    7  A    between atoms: C_27  and  C_36
    8  A    between atoms: C_27  and  C_47
    9  A    between atoms: N_28  and  C_31
   10  A    between atoms: N_28  and  O_41
   11  A    between atoms: C_32  and  C_33
                            x       y       z     vdW  Elec       q    Type
                         _______ _______ _______ _____ _____    ______ ____

>  <TORSDO>
F 11

$$$$
=
 OpenBabel11062417323D

 47 52  0  0  1  0  0  0  0  0999 V2000
  186.7080  176.0030  136.8140 C   0  0  2  0  0  3  0  0  0  0  0  0
  189.4080  176.8660  136.3430 C   0  0  2  0  0  3  0  0  0  0  0  0
  186.7450  174.1950  135.2770 C   0  0  0  0  0  2  0  0  0  0  0  0
  186.0170  178.2660  139.4830 C   0  0  0  0  0  3  0  0  0  0  0  0
  187.6440  175.0420  136.1420 C   0  0  1  0  0  3  0  0  0  0  0  0
  188.7620  175.7960  135.4270 C   0  0  0  0  0  2  0  0  0  0  0  0
  185.4370  174.0910  136.0750 C   0  0  2  0  0  0  0  0  0  0  0  0
  187.4260  176.7100  137.9260 C   0  0  0  0  0  0  0  0  0  0  0  0
  188.9470  176.7730  137.8290 C   0  0  2  0  0  3  0  0  0  0  0  0
  189.1420  178.2460  135.7600 C   0  0  0  0  0  1  0  0  0  0  0  0
  186.7400  177.5000  138.7120 C   0  0  0  0  0  0  0  0  0  0  0  0
  185.5530  175.1200  137.2150 C   0  0  0  0  0  2  0  0  0  0  0  0
  185.0510  172.7280  138.0130 F   0  0  0  0  0  0  0  0  0  0  0  0
  186.4220  171.9230  136.4180 F   0  0  0  0  0  0  0  0  0  0  0  0
  184.2070  172.0260  136.0460 F   0  0  0  0  0  0  0  0  0  0  0  0
  185.2780  172.6690  136.6480 C   0  0  0  0  0  0  0  0  0  0  0  0
  189.0530  179.0290  138.6330 O   0  0  0  0  0  1  0  0  0  0  0  0
  189.6400  177.7690  138.7740 C   0  0  1  0  0  3  0  0  0  0  0  0
  189.0810  178.3140  141.0970 O   0  0  0  0  0  0  0  0  0  0  0  0
  190.5420  176.8350  142.2970 C   0  0  0  0  0  2  0  0  0  0  0  0
  189.5490  177.3070  140.2340 C   0  0  2  0  0  3  0  0  0  0  0  0
  192.0660  177.4770  140.4890 C   0  0  0  0  0  1  0  0  0  0  0  0
  189.4560  177.9000  142.3910 C   0  0  2  0  0  3  0  0  0  0  0  0
  190.8060  176.6920  140.8260 C   0  0  1  0  0  3  0  0  0  0  0  0
  188.0290  176.1230  143.2090 N   0  0  0  0  0  2  0  0  0  0  0  0
  188.2670  177.3820  143.1430 C   0  0  0  0  0  3  0  0  0  0  0  0
  184.7450  178.8550  138.9750 C   0  0  0  0  0  2  0  0  0  0  0  0
  184.2240  179.7470  139.9190 O   0  0  0  0  0  0  0  0  0  0  0  0
  182.7900  178.1550  139.4960 O   0  0  0  0  0  1  0  0  0  0  0  0
  183.0640  179.1780  140.3420 N   0  0  0  0  0  0  0  0  0  0  0  0
  183.5980  178.8740  144.5460 C   0  0  0  0  0  0  0  0  0  0  0  0
  182.3340  179.0430  143.9730 O   0  0  0  0  0  0  0  0  0  0  0  0
  180.9560  179.0040  142.1400 O   0  0  0  0  0  0  0  0  0  0  0  0
  183.2750  178.6030  141.6760 C   0  0  2  0  0  3  0  0  0  0  0  0
  182.1250  178.9180  142.5960 C   0  0  0  0  0  0  0  0  0  0  0  0
  184.7730  178.4810  143.7020 C   0  0  0  0  0  2  0  0  0  0  0  0
  184.6090  179.0490  142.2990 C   0  0  0  0  0  2  0  0  0  0  0  0
  183.7430  179.0030  145.7900 O   0  0  0  0  0  0  0  0  0  0  0  0
  184.2830  174.4410  135.1220 C   0  0  0  0  0  2  0  0  0  0  0  0
  183.4110  175.5850  135.6270 C   0  0  0  0  0  2  0  0  0  0  0  0
  181.1080  174.8270  134.9800 F   0  0  0  0  0  0  0  0  0  0  0  0
  180.0710  175.7320  137.2380 O   0  0  0  0  0  1  0  0  0  0  0  0
  181.9070  174.9780  138.4110 O   0  0  0  0  0  0  0  0  0  0  0  0
  180.8410  173.1860  137.1960 C   0  0  0  0  0  1  0  0  0  0  0  0
  182.0280  175.0760  135.9890 C   0  0  1  0  0  0  0  0  0  0  0  0
  181.9660  174.2160  137.2300 C   0  0  2  0  0  0  0  0  0  0  0  0
  181.4690  175.6610  137.2620 C   0  0  2  0  0  0  0  0  0  0  0  0
  1 12  1  1  0  0  0
  1  8  1  0  0  0  0
  2 10  1  6  0  0  0
  2  9  1  0  0  0  0
  3  7  1  0  0  0  0
  5  3  1  6  0  0  0
  5  1  1  0  0  0  0
  6  5  1  0  0  0  0
  6  2  1  0  0  0  0
  7 39  1  6  0  0  0
  7 16  1  0  0  0  0
  7 12  1  0  0  0  0
  8 11  2  0  0  0  0
  9  8  1  0  0  0  0
  9 18  1  1  0  0  0
 11  4  2  0  0  0  0
 14 16  1  0  0  0  0
 15 16  1  0  0  0  0
 16 13  1  0  0  0  0
 18 17  1  1  0  0  0
 19 23  1  0  0  0  0
 20 23  1  0  0  0  0
 21 18  1  6  0  0  0
 21 24  1  0  0  0  0
 21 19  1  0  0  0  0
 23 26  1  6  0  0  0
 24 22  1  6  0  0  0
 24 20  1  0  0  0  0
 26 25  2  0  0  0  0
 27  4  1  0  0  0  0
 27 28  1  0  0  0  0
 28 30  1  0  0  0  0
 29 30  1  0  0  0  0
 31 38  2  0  0  0  0
 32 31  1  0  0  0  0
 33 35  2  0  0  0  0
 34 30  1  6  0  0  0
 34 37  1  0  0  0  0
 34 35  1  0  0  0  0
 35 32  1  0  0  0  0
 36 31  1  0  0  0  0
 37 36  1  0  0  0  0
 39 40  1  0  0  0  0
 40 45  1  0  0  0  0
 45 41  1  6  0  0  0
 45 46  1  0  0  0  0
 45 47  1  0  0  0  0
 46 44  1  6  0  0  0
 46 47  1  0  0  0  0
 46 43  1  0  0  0  0
 47 42  1  6  0  0  0
 47 43  1  0  0  0  0
M  END
>  <MODEL>
6

>  <REMARK>
 VINA RESULT:      -7.1      2.794      6.967
  Name = 
  11 active torsions:
  status: ('A' for Active; 'I' for Inactive)
    1  A    between atoms: C_11  and  C_23
    2  A    between atoms: C_11  and  C_34
    3  A    between atoms: C_14  and  C_21
    4  A    between atoms: C_21  and  O_41
    5  A    between atoms: C_22  and  C_30
    6  A    between atoms: C_22  and  C_47
    7  A    between atoms: C_27  and  C_36
    8  A    between atoms: C_27  and  C_47
    9  A    between atoms: N_28  and  C_31
   10  A    between atoms: N_28  and  O_41
   11  A    between atoms: C_32  and  C_33
                            x       y       z     vdW  Elec       q    Type
                         _______ _______ _______ _____ _____    ______ ____

>  <TORSDO>
F 11

$$$$
=
 OpenBabel11062417323D

 47 52  0  0  1  0  0  0  0  0999 V2000
  189.1720  177.4970  141.2600 C   0  0  2  0  0  3  0  0  0  0  0  0
  189.7650  176.8320  138.5270 C   0  0  2  0  0  3  0  0  0  0  0  0
  191.3020  176.9140  142.1320 C   0  0  0  0  0  2  0  0  0  0  0  0
  185.9340  178.8620  140.6540 C   0  0  0  0  0  3  0  0  0  0  0  0
  190.6150  177.3640  140.8670 C   0  0  1  0  0  3  0  0  0  0  0  0
  190.7570  176.4480  139.6540 C   0  0  0  0  0  2  0  0  0  0  0  0
  190.5200  177.6090  143.2570 C   0  0  2  0  0  0  0  0  0  0  0  0
  188.4230  178.2200  140.1800 C   0  0  0  0  0  0  0  0  0  0  0  0
  189.0290  178.1820  138.7810 C   0  0  2  0  0  3  0  0  0  0  0  0
  188.7820  175.6900  138.3190 C   0  0  0  0  0  1  0  0  0  0  0  0
  187.1730  178.5430  140.3940 C   0  0  0  0  0  0  0  0  0  0  0  0
  189.2530  178.1860  142.5990 C   0  0  0  0  0  2  0  0  0  0  0  0
  191.8530  178.3550  145.1090 F   0  0  0  0  0  0  0  0  0  0  0  0
  190.6080  179.8870  144.0270 F   0  0  0  0  0  0  0  0  0  0  0  0
  192.4430  179.0370  143.0450 F   0  0  0  0  0  0  0  0  0  0  0  0
  191.3690  178.7400  143.8710 C   0  0  0  0  0  0  0  0  0  0  0  0
  188.8400  179.3570  136.6990 O   0  0  0  0  0  1  0  0  0  0  0  0
  188.1030  178.6280  137.6350 C   0  0  1  0  0  3  0  0  0  0  0  0
  187.5570  177.4500  135.5580 O   0  0  0  0  0  0  0  0  0  0  0  0
  185.5390  176.3080  136.1740 C   0  0  0  0  0  2  0  0  0  0  0  0
  187.4370  177.4240  136.9580 C   0  0  2  0  0  3  0  0  0  0  0  0
  185.1400  178.4250  137.3420 C   0  0  0  0  0  1  0  0  0  0  0  0
  186.5680  176.5660  135.0810 C   0  0  2  0  0  3  0  0  0  0  0  0
  185.9870  177.1600  137.3260 C   0  0  1  0  0  3  0  0  0  0  0  0
  187.1190  174.2230  135.3440 N   0  0  0  0  0  2  0  0  0  0  0  0
  187.1890  175.2800  134.6220 C   0  0  0  0  0  3  0  0  0  0  0  0
  185.1540  178.0820  141.6570 C   0  0  0  0  0  2  0  0  0  0  0  0
  183.8620  178.6110  141.7700 O   0  0  0  0  0  0  0  0  0  0  0  0
  183.2770  176.9940  140.4240 O   0  0  0  0  0  1  0  0  0  0  0  0
  183.2630  178.3410  140.5810 N   0  0  0  0  0  0  0  0  0  0  0  0
  179.8230  180.7880  141.0580 C   0  0  0  0  0  0  0  0  0  0  0  0
  180.5660  180.7830  139.8740 O   0  0  0  0  0  0  0  0  0  0  0  0
  182.1440  179.8190  138.5150 O   0  0  0  0  0  0  0  0  0  0  0  0
  181.8580  178.7620  140.6500 C   0  0  2  0  0  3  0  0  0  0  0  0
  181.5550  179.8250  139.6280 C   0  0  0  0  0  0  0  0  0  0  0  0
  180.0150  179.7130  142.0840 C   0  0  0  0  0  2  0  0  0  0  0  0
  181.4590  179.2310  142.0590 C   0  0  0  0  0  2  0  0  0  0  0  0
  178.9480  181.6730  141.2430 O   0  0  0  0  0  0  0  0  0  0  0  0
  190.1690  176.5430  144.3060 C   0  0  0  0  0  2  0  0  0  0  0  0
  188.7950  176.7450  144.9340 C   0  0  0  0  0  2  0  0  0  0  0  0
  189.2160  178.9180  146.1150 F   0  0  0  0  0  0  0  0  0  0  0  0
  190.2040  177.6840  148.2370 O   0  0  0  0  0  1  0  0  0  0  0  0
  188.5790  176.0560  148.0750 O   0  0  0  0  0  0  0  0  0  0  0  0
  187.6060  178.2560  148.2700 C   0  0  0  0  0  1  0  0  0  0  0  0
  188.9090  177.5670  146.2040 C   0  0  1  0  0  0  0  0  0  0  0  0
  188.0200  177.1180  147.3410 C   0  0  2  0  0  0  0  0  0  0  0  0
  189.5210  176.8260  147.3670 C   0  0  2  0  0  0  0  0  0  0  0  0
  1 12  1  1  0  0  0
  2 10  1  1  0  0  0
  2  9  1  0  0  0  0
  2  6  1  0  0  0  0
  3  7  1  0  0  0  0
  4 27  1  0  0  0  0
  5  6  1  6  0  0  0
  5  1  1  0  0  0  0
  5  3  1  0  0  0  0
  7 16  1  0  0  0  0
  7 39  1  1  0  0  0
  8 11  2  0  0  0  0
  8  1  1  0  0  0  0
  9 18  1  6  0  0  0
  9  8  1  0  0  0  0
 11  4  2  0  0  0  0
 12  7  1  0  0  0  0
 15 16  1  0  0  0  0
 16 14  1  0  0  0  0
 16 13  1  0  0  0  0
 18 17  1  6  0  0  0
 19 21  1  0  0  0  0
 20 24  1  0  0  0  0
 21 24  1  0  0  0  0
 21 18  1  1  0  0  0
 23 26  1  1  0  0  0
 23 19  1  0  0  0  0
 23 20  1  0  0  0  0
 24 22  1  6  0  0  0
 26 25  2  0  0  0  0
 27 28  1  0  0  0  0
 29 30  1  0  0  0  0
 30 28  1  0  0  0  0
 31 38  2  0  0  0  0
 31 36  1  0  0  0  0
 32 31  1  0  0  0  0
 33 35  2  0  0  0  0
 34 30  1  1  0  0  0
 34 37  1  0  0  0  0
 35 32  1  0  0  0  0
 35 34  1  0  0  0  0
 37 36  1  0  0  0  0
 39 40  1  0  0  0  0
 40 45  1  0  0  0  0
 45 41  1  6  0  0  0
 45 46  1  0  0  0  0
 45 47  1  0  0  0  0
 46 47  1  0  0  0  0
 46 43  1  0  0  0  0
 46 44  1  1  0  0  0
 47 43  1  0  0  0  0
 47 42  1  1  0  0  0
M  END
>  <MODEL>
7

>  <REMARK>
 VINA RESULT:      -7.0      3.391      6.318
  Name = 
  11 active torsions:
  status: ('A' for Active; 'I' for Inactive)
    1  A    between atoms: C_11  and  C_23
    2  A    between atoms: C_11  and  C_34
    3  A    between atoms: C_14  and  C_21
    4  A    between atoms: C_21  and  O_41
    5  A    between atoms: C_22  and  C_30
    6  A    between atoms: C_22  and  C_47
    7  A    between atoms: C_27  and  C_36
    8  A    between atoms: C_27  and  C_47
    9  A    between atoms: N_28  and  C_31
   10  A    between atoms: N_28  and  O_41
   11  A    between atoms: C_32  and  C_33
                            x       y       z     vdW  Elec       q    Type
                         _______ _______ _______ _____ _____    ______ ____

>  <TORSDO>
F 11

$$$$
=
 OpenBabel11062417323D

 47 52  0  0  1  0  0  0  0  0999 V2000
  185.5700  177.0620  137.6760 C   0  0  2  0  0  3  0  0  0  0  0  0
  183.1840  175.6570  136.9030 C   0  0  2  0  0  3  0  0  0  0  0  0
  187.0410  175.8770  136.2390 C   0  0  0  0  0  2  0  0  0  0  0  0
  183.9710  179.4440  139.7950 C   0  0  0  0  0  3  0  0  0  0  0  0
  185.5980  176.2860  136.3920 C   0  0  1  0  0  3  0  0  0  0  0  0
  184.5710  175.1560  136.4270 C   0  0  0  0  0  2  0  0  0  0  0  0
  187.8330  177.0460  136.8440 C   0  0  2  0  0  0  0  0  0  0  0  0
  184.2570  177.7790  137.8010 C   0  0  0  0  0  0  0  0  0  0  0  0
  183.0870  177.2090  137.0070 C   0  0  2  0  0  3  0  0  0  0  0  0
  182.8390  174.9860  138.2240 C   0  0  0  0  0  1  0  0  0  0  0  0
  184.0910  178.6110  138.7970 C   0  0  0  0  0  0  0  0  0  0  0  0
  186.8000  177.9270  137.5710 C   0  0  0  0  0  2  0  0  0  0  0  0
  189.4940  177.0650  135.1100 F   0  0  0  0  0  0  0  0  0  0  0  0
  189.1410  178.9760  136.2480 F   0  0  0  0  0  0  0  0  0  0  0  0
  187.6070  178.2480  134.7750 F   0  0  0  0  0  0  0  0  0  0  0  0
  188.5310  177.8460  135.7270 C   0  0  0  0  0  0  0  0  0  0  0  0
  181.5230  177.6250  138.7760 O   0  0  0  0  0  1  0  0  0  0  0  0
  181.6930  177.7350  137.3940 C   0  0  1  0  0  3  0  0  0  0  0  0
  180.7550  179.9460  137.8740 O   0  0  0  0  0  0  0  0  0  0  0  0
  180.4380  180.8200  135.6620 C   0  0  0  0  0  2  0  0  0  0  0  0
  181.5060  179.1930  136.9560 C   0  0  2  0  0  3  0  0  0  0  0  0
  179.7680  178.5000  135.2450 C   0  0  0  0  0  1  0  0  0  0  0  0
  180.3160  181.0790  137.1580 C   0  0  2  0  0  3  0  0  0  0  0  0
  180.9460  179.4110  135.5610 C   0  0  1  0  0  3  0  0  0  0  0  0
  180.5380  183.4350  137.6710 N   0  0  0  0  0  2  0  0  0  0  0  0
  181.1060  182.2900  137.5540 C   0  0  0  0  0  3  0  0  0  0  0  0
  184.8020  179.2710  141.0210 C   0  0  0  0  0  2  0  0  0  0  0  0
  184.2430  178.2800  141.8370 O   0  0  0  0  0  0  0  0  0  0  0  0
  182.8970  178.6980  143.5060 O   0  0  0  0  0  1  0  0  0  0  0  0
  184.1750  178.8380  143.0750 N   0  0  0  0  0  0  0  0  0  0  0  0
  187.3560  177.8500  145.7120 C   0  0  0  0  0  0  0  0  0  0  0  0
  186.2480  178.5880  146.1370 O   0  0  0  0  0  0  0  0  0  0  0  0
  184.1040  179.3350  145.8050 O   0  0  0  0  0  0  0  0  0  0  0  0
  185.0340  178.0740  143.9880 C   0  0  2  0  0  3  0  0  0  0  0  0
  185.1030  178.7230  145.3450 C   0  0  0  0  0  0  0  0  0  0  0  0
  187.3270  177.1110  144.4080 C   0  0  0  0  0  2  0  0  0  0  0  0
  186.4450  177.8570  143.4160 C   0  0  0  0  0  2  0  0  0  0  0  0
  188.3700  177.7610  146.4530 O   0  0  0  0  0  0  0  0  0  0  0  0
  188.8550  176.4540  137.8280 C   0  0  0  0  0  2  0  0  0  0  0  0
  188.9050  177.1930  139.1610 C   0  0  0  0  0  2  0  0  0  0  0  0
  190.9160  175.7280  139.4780 F   0  0  0  0  0  0  0  0  0  0  0  0
  190.5530  175.6330  142.0970 O   0  0  0  0  0  1  0  0  0  0  0  0
  189.9820  177.8670  142.1220 O   0  0  0  0  0  0  0  0  0  0  0  0
  192.1730  177.5280  141.1680 C   0  0  0  0  0  1  0  0  0  0  0  0
  190.0790  176.7100  139.9900 C   0  0  1  0  0  0  0  0  0  0  0  0
  190.6850  177.7450  140.9100 C   0  0  2  0  0  0  0  0  0  0  0  0
  189.8000  176.6320  141.4710 C   0  0  2  0  0  0  0  0  0  0  0  0
  1 12  1  6  0  0  0
  1  8  1  0  0  0  0
  2  9  1  0  0  0  0
  2 10  1  1  0  0  0
  3  7  1  0  0  0  0
  4 27  1  0  0  0  0
  5  3  1  1  0  0  0
  5  6  1  0  0  0  0
  5  1  1  0  0  0  0
  6  2  1  0  0  0  0
  7 12  1  0  0  0  0
  7 39  1  1  0  0  0
  8 11  2  0  0  0  0
  9 18  1  1  0  0  0
  9  8  1  0  0  0  0
 11  4  2  0  0  0  0
 13 16  1  0  0  0  0
 15 16  1  0  0  0  0
 16 14  1  0  0  0  0
 16  7  1  0  0  0  0
 18 17  1  1  0  0  0
 20 23  1  0  0  0  0
 21 18  1  1  0  0  0
 21 19  1  0  0  0  0
 23 26  1  1  0  0  0
 23 19  1  0  0  0  0
 24 22  1  1  0  0  0
 24 20  1  0  0  0  0
 24 21  1  0  0  0  0
 26 25  2  0  0  0  0
 27 28  1  0  0  0  0
 28 30  1  0  0  0  0
 30 29  1  0  0  0  0
 31 32  1  0  0  0  0
 31 38  2  0  0  0  0
 34 30  1  6  0  0  0
 34 35  1  0  0  0  0
 35 33  2  0  0  0  0
 35 32  1  0  0  0  0
 36 31  1  0  0  0  0
 37 34  1  0  0  0  0
 37 36  1  0  0  0  0
 39 40  1  0  0  0  0
 40 45  1  0  0  0  0
 45 41  1  6  0  0  0
 45 46  1  0  0  0  0
 45 47  1  0  0  0  0
 46 44  1  1  0  0  0
 46 47  1  0  0  0  0
 46 43  1  0  0  0  0
 47 42  1  1  0  0  0
 47 43  1  0  0  0  0
M  END
>  <MODEL>
8

>  <REMARK>
 VINA RESULT:      -7.0      1.958      2.772
  Name = 
  11 active torsions:
  status: ('A' for Active; 'I' for Inactive)
    1  A    between atoms: C_11  and  C_23
    2  A    between atoms: C_11  and  C_34
    3  A    between atoms: C_14  and  C_21
    4  A    between atoms: C_21  and  O_41
    5  A    between atoms: C_22  and  C_30
    6  A    between atoms: C_22  and  C_47
    7  A    between atoms: C_27  and  C_36
    8  A    between atoms: C_27  and  C_47
    9  A    between atoms: N_28  and  C_31
   10  A    between atoms: N_28  and  O_41
   11  A    between atoms: C_32  and  C_33
                            x       y       z     vdW  Elec       q    Type
                         _______ _______ _______ _____ _____    ______ ____

>  <TORSDO>
F 11

$$$$
=
 OpenBabel11062417323D

 47 52  0  0  1  0  0  0  0  0999 V2000
  184.6490  177.2940  137.5060 C   0  0  2  0  0  3  0  0  0  0  0  0
  182.0500  176.6510  136.4610 C   0  0  2  0  0  3  0  0  0  0  0  0
  185.8880  176.2400  135.7780 C   0  0  0  0  0  2  0  0  0  0  0  0
  183.5110  179.3310  140.2040 C   0  0  0  0  0  3  0  0  0  0  0  0
  184.5540  176.8820  136.0660 C   0  0  1  0  0  3  0  0  0  0  0  0
  183.3180  176.0160  135.8380 C   0  0  0  0  0  2  0  0  0  0  0  0
  186.8840  177.0280  136.6410 C   0  0  2  0  0  0  0  0  0  0  0  0
  183.5070  178.2080  137.8430 C   0  0  0  0  0  0  0  0  0  0  0  0
  182.2680  178.1110  136.9600 C   0  0  2  0  0  3  0  0  0  0  0  0
  181.5370  175.7500  137.5750 C   0  0  0  0  0  1  0  0  0  0  0  0
  183.4860  178.7730  139.0230 C   0  0  0  0  0  0  0  0  0  0  0  0
  186.0320  177.8870  137.5940 C   0  0  0  0  0  2  0  0  0  0  0  0
  188.3400  177.1770  134.7380 F   0  0  0  0  0  0  0  0  0  0  0  0
  188.7670  178.5190  136.4950 F   0  0  0  0  0  0  0  0  0  0  0  0
  186.9950  178.9300  135.1740 F   0  0  0  0  0  0  0  0  0  0  0  0
  187.7620  177.9270  135.7480 C   0  0  0  0  0  0  0  0  0  0  0  0
  180.9980  178.7250  138.9000 O   0  0  0  0  0  1  0  0  0  0  0  0
  181.0000  178.7940  137.5050 C   0  0  1  0  0  3  0  0  0  0  0  0
  179.9000  180.9740  137.7040 O   0  0  0  0  0  0  0  0  0  0  0  0
  180.2510  181.8860  135.5130 C   0  0  0  0  0  2  0  0  0  0  0  0
  180.9160  180.2560  137.0500 C   0  0  2  0  0  3  0  0  0  0  0  0
  179.8030  179.5620  134.8800 C   0  0  0  0  0  1  0  0  0  0  0  0
  179.6710  182.1110  136.9040 C   0  0  2  0  0  3  0  0  0  0  0  0
  180.8030  180.4910  135.5530 C   0  0  1  0  0  3  0  0  0  0  0  0
  181.4470  183.7260  137.2200 N   0  0  0  0  0  2  0  0  0  0  0  0
  180.2690  183.3310  137.5380 C   0  0  0  0  0  3  0  0  0  0  0  0
  184.2540  178.6840  141.3230 C   0  0  0  0  0  2  0  0  0  0  0  0
  185.5040  179.2940  141.4780 O   0  0  0  0  0  0  0  0  0  0  0  0
  185.1170  177.8720  143.0900 O   0  0  0  0  0  1  0  0  0  0  0  0
  186.0550  178.7020  142.5710 N   0  0  0  0  0  0  0  0  0  0  0  0
  190.0150  177.5070  141.6040 C   0  0  0  0  0  0  0  0  0  0  0  0
  189.5660  177.5700  142.9260 O   0  0  0  0  0  0  0  0  0  0  0  0
  187.8510  177.7150  144.4430 O   0  0  0  0  0  0  0  0  0  0  0  0
  187.1890  177.8750  142.1430 C   0  0  2  0  0  3  0  0  0  0  0  0
  188.2130  177.7410  143.2380 C   0  0  0  0  0  0  0  0  0  0  0  0
  189.0430  177.5520  140.4640 C   0  0  0  0  0  2  0  0  0  0  0  0
  187.8380  178.3990  140.8500 C   0  0  0  0  0  2  0  0  0  0  0  0
  191.2430  177.3600  141.3680 O   0  0  0  0  0  0  0  0  0  0  0  0
  187.7350  176.0090  137.4150 C   0  0  0  0  0  2  0  0  0  0  0  0
  188.0970  174.7780  136.5910 C   0  0  0  0  0  2  0  0  0  0  0  0
  189.7810  173.0490  137.2760 F   0  0  0  0  0  0  0  0  0  0  0  0
  191.3670  174.8780  138.3430 O   0  0  0  0  0  1  0  0  0  0  0  0
  190.9310  176.3120  136.5910 O   0  0  0  0  0  0  0  0  0  0  0  0
  191.8240  174.2100  135.8090 C   0  0  0  0  0  1  0  0  0  0  0  0
  189.5250  174.3530  136.8750 C   0  0  1  0  0  0  0  0  0  0  0  0
  190.5800  175.0600  136.0550 C   0  0  2  0  0  0  0  0  0  0  0  0
  190.3700  175.4210  137.5260 C   0  0  2  0  0  0  0  0  0  0  0  0
  1 12  1  6  0  0  0
  1  8  1  0  0  0  0
  2  9  1  0  0  0  0
  2 10  1  1  0  0  0
  3  7  1  0  0  0  0
  4 27  1  0  0  0  0
  5  3  1  1  0  0  0
  5  1  1  0  0  0  0
  6  5  1  0  0  0  0
  6  2  1  0  0  0  0
  7 39  1  1  0  0  0
  7 12  1  0  0  0  0
  8 11  2  0  0  0  0
  9 18  1  1  0  0  0
  9  8  1  0  0  0  0
 11  4  2  0  0  0  0
 13 16  1  0  0  0  0
 15 16  1  0  0  0  0
 16 14  1  0  0  0  0
 16  7  1  0  0  0  0
 18 17  1  1  0  0  0
 20 24  1  0  0  0  0
 20 23  1  0  0  0  0
 21 18  1  6  0  0  0
 21 19  1  0  0  0  0
 23 26  1  1  0  0  0
 23 19  1  0  0  0  0
 24 22  1  1  0  0  0
 24 21  1  0  0  0  0
 25 26  2  0  0  0  0
 27 28  1  0  0  0  0
 28 30  1  0  0  0  0
 30 29  1  0  0  0  0
 31 32  1  0  0  0  0
 32 35  1  0  0  0  0
 34 30  1  1  0  0  0
 34 35  1  0  0  0  0
 35 33  2  0  0  0  0
 36 37  1  0  0  0  0
 36 31  1  0  0  0  0
 37 34  1  0  0  0  0
 38 31  2  0  0  0  0
 40 45  1  0  0  0  0
 40 39  1  0  0  0  0
 43 47  1  0  0  0  0
 45 41  1  1  0  0  0
 45 47  1  0  0  0  0
 46 44  1  6  0  0  0
 46 43  1  0  0  0  0
 46 45  1  0  0  0  0
 46 47  1  0  0  0  0
 47 42  1  1  0  0  0
M  END
>  <MODEL>
9

>  <REMARK>
 VINA RESULT:      -6.9      2.731      4.426
  Name = 
  11 active torsions:
  status: ('A' for Active; 'I' for Inactive)
    1  A    between atoms: C_11  and  C_23
    2  A    between atoms: C_11  and  C_34
    3  A    between atoms: C_14  and  C_21
    4  A    between atoms: C_21  and  O_41
    5  A    between atoms: C_22  and  C_30
    6  A    between atoms: C_22  and  C_47
    7  A    between atoms: C_27  and  C_36
    8  A    between atoms: C_27  and  C_47
    9  A    between atoms: N_28  and  C_31
   10  A    between atoms: N_28  and  O_41
   11  A    between atoms: C_32  and  C_33
                            x       y       z     vdW  Elec       q    Type
                         _______ _______ _______ _____ _____    ______ ____

>  <TORSDO>
F 11

$$$$
