=
 OpenBabel11062414423D

 68 74  0  0  1  0  0  0  0  0999 V2000
  185.5380  174.8250  136.4860 C   0  0  0  0  0  0  0  0  0  0  0  0
  187.5520  177.3310  134.6320 O   0  0  0  0  0  0  0  0  0  0  0  0
  187.9770  175.3110  136.6500 C   0  0  2  0  0  3  0  0  0  0  0  0
  183.0800  174.3850  136.1630 C   0  0  0  0  0  3  0  0  0  0  0  0
  185.3060  172.4020  136.9400 C   0  0  0  0  0  3  0  0  0  0  0  0
  186.4320  176.6320  135.0880 C   0  0  0  0  0  0  0  0  0  0  0  0
  189.0930  175.6220  135.6400 C   0  0  2  0  0  3  0  0  0  0  0  0
  185.7520  173.7210  137.4890 C   0  0  0  0  0  2  0  0  0  0  0  0
  185.2650  176.9430  134.6150 N   0  0  0  0  0  0  0  0  0  0  0  0
  184.0020  176.3180  135.0070 C   0  0  1  0  0  3  0  0  0  0  0  0
  186.5980  175.5470  136.0800 C   0  0  0  0  0  0  0  0  0  0  0  0
  184.0090  172.1560  136.7380 C   0  0  0  0  0  3  0  0  0  0  0  0
  189.8280  177.6610  134.6450 O   0  0  0  0  0  0  0  0  0  0  0  0
  182.9750  173.1920  137.0640 C   0  0  0  0  0  2  0  0  0  0  0  0
  188.8510  176.9320  134.9590 C   0  0  0  0  0  0  0  0  0  0  0  0
  184.1780  175.1300  135.9290 C   0  0  0  0  0  0  0  0  0  0  0  0
  188.1660  176.1160  137.9330 C   0  0  0  0  0  2  0  0  0  0  0  0
  189.2860  177.1380  137.7750 C   0  0  0  0  0  2  0  0  0  0  0  0
  190.5010  176.7320  138.5950 C   0  0  0  0  0  2  0  0  0  0  0  0
  190.1300  176.5340  140.0520 C   0  0  0  0  0  2  0  0  0  0  0  0
  191.1450  177.2290  140.9460 C   0  0  0  0  0  2  0  0  0  0  0  0
  191.2030  178.6420  142.8710 O   0  0  0  0  0  1  0  0  0  0  0  0
  190.5020  177.5930  142.2720 C   0  0  2  0  0  3  0  0  0  0  0  0
  190.5190  176.3830  143.1880 C   0  0  0  0  0  2  0  0  0  0  0  0
  190.2770  176.9140  146.1780 C   0  0  2  0  0  3  0  0  0  0  0  0
  192.0400  175.1550  146.1890 C   0  0  0  0  0  3  0  0  0  0  0  0
  191.6980  176.5800  146.5900 C   0  0  1  0  0  3  0  0  0  0  0  0
  191.4490  177.3730  145.3230 C   0  0  1  0  0  3  0  0  0  0  0  0
  191.7080  176.4390  144.1400 C   0  0  1  0  0  3  0  0  0  0  0  0
  192.0160  175.0560  144.6760 C   0  0  0  0  0  3  0  0  0  0  0  0
  189.7630  178.0910  146.9830 C   0  0  0  0  0  2  0  0  0  0  0  0
  188.3750  176.2010  147.8120 C   0  0  0  0  0  1  0  0  0  0  0  0
  188.5280  178.2970  149.1110 C   0  0  0  0  0  1  0  0  0  0  0  0
  188.4880  177.7110  147.7150 C   0  0  0  0  0  3  0  0  0  0  0  0
  189.2200  174.5180  134.5940 C   0  0  0  0  0  2  0  0  0  0  0  0
  190.4760  173.6720  134.7950 C   0  0  0  0  0  2  0  0  0  0  0  0
  193.3010  173.2820  135.1000 O   0  0  0  0  0  0  0  0  0  0  0  0
  191.3010  174.2100  135.8710 N   0  0  0  0  0  2  0  0  0  0  0  0
  192.7170  174.0270  135.9330 C   0  0  0  0  0  0  0  0  0  0  0  0
  193.4480  174.7100  136.9070 O   0  0  0  0  0  0  0  0  0  0  0  0
  193.9840  174.0620  138.0530 C   0  0  0  0  0  2  0  0  0  0  0  0
  198.1970  174.7870  138.3900 C   0  0  0  0  0  3  0  0  0  0  0  0
  196.2430  174.3790  137.0180 C   0  0  0  0  0  3  0  0  0  0  0  0
  197.3990  174.7650  139.5380 C   0  0  0  0  0  3  0  0  0  0  0  0
  195.4430  174.3470  138.1650 C   0  0  0  0  0  0  0  0  0  0  0  0
  197.6190  174.5970  137.1310 C   0  0  0  0  0  3  0  0  0  0  0  0
  196.0240  174.5430  139.4250 C   0  0  0  0  0  3  0  0  0  0  0  0
  183.1040  177.3770  135.6270 C   0  0  0  0  0  2  0  0  0  0  0  0
  183.3630  177.4510  137.1260 C   0  0  0  0  0  2  0  0  0  0  0  0
  182.4350  178.4480  137.8230 C   0  0  1  0  0  3  0  0  0  0  0  0
  180.9840  176.4630  138.3910 N   0  0  0  0  0  2  0  0  0  0  0  0
  180.0630  178.5950  138.1380 O   0  0  0  0  0  0  0  0  0  0  0  0
  181.0900  177.8620  138.1160 C   0  0  0  0  0  0  0  0  0  0  0  0
  179.1790  175.2070  137.3530 C   0  0  0  0  0  1  0  0  0  0  0  0
  179.7090  175.8090  138.6400 C   0  0  0  0  0  3  0  0  0  0  0  0
  179.9000  174.7080  139.6600 C   0  0  0  0  0  1  0  0  0  0  0  0
  183.0490  178.9740  139.0350 N   0  0  0  0  0  2  0  0  0  0  0  0
  182.1750  178.6320  140.1460 C   0  0  0  0  0  2  0  0  0  0  0  0
  184.3400  178.3540  141.3680 C   0  0  0  0  0  3  0  0  0  0  0  0
  186.8170  178.0340  142.3660 Cl  0  0  0  0  0  0  0  0  0  0  0  0
  183.0690  178.7700  143.8120 C   0  0  0  0  0  3  0  0  0  0  0  0
  185.0930  178.3230  142.5460 C   0  0  0  0  0  0  0  0  0  0  0  0
  182.9640  178.5830  141.4070 C   0  0  0  0  0  0  0  0  0  0  0  0
  182.3290  178.7980  142.6300 C   0  0  0  0  0  3  0  0  0  0  0  0
  184.4530  178.5330  143.7950 C   0  0  0  0  0  0  0  0  0  0  0  0
  184.8170  179.3060  146.0130 O   0  0  0  0  0  1  0  0  0  0  0  0
  186.2140  177.6380  145.3370 O   0  0  0  0  0  0  0  0  0  0  0  0
  185.1660  178.5160  145.0950 C   0  0  0  0  0  0  0  0  0  0  0  0
  1  8  1  0  0  0  0
  2 15  1  0  0  0  0
  2  6  1  0  0  0  0
  3 17  1  1  0  0  0
  4 14  1  0  0  0  0
  5  8  1  0  0  0  0
  6 11  1  0  0  0  0
  7 35  1  6  0  0  0
  7  3  1  0  0  0  0
  9 10  1  0  0  0  0
  9  6  2  0  0  0  0
 10 48  1  1  0  0  0
 10 16  1  0  0  0  0
 11  1  2  0  0  0  0
 11  3  1  0  0  0  0
 12  5  2  0  0  0  0
 12 14  1  0  0  0  0
 13 15  2  0  0  0  0
 15  7  1  0  0  0  0
 16  4  2  0  0  0  0
 16  1  1  0  0  0  0
 18 17  1  0  0  0  0
 18 19  1  0  0  0  0
 19 20  1  0  0  0  0
 20 21  1  0  0  0  0
 21 23  1  0  0  0  0
 23 22  1  1  0  0  0
 23 24  1  0  0  0  0
 24 29  1  0  0  0  0
 25 27  1  0  0  0  0
 25 31  1  1  0  0  0
 27 26  1  6  0  0  0
 28 25  1  0  0  0  0
 28 27  1  0  0  0  0
 29 30  1  0  0  0  0
 29 28  1  0  0  0  0
 30 26  2  0  0  0  0
 31 34  1  0  0  0  0
 34 32  1  0  0  0  0
 34 33  1  0  0  0  0
 35 36  1  0  0  0  0
 36 38  1  0  0  0  0
 37 39  2  0  0  0  0
 38 39  1  0  0  0  0
 39 40  1  0  0  0  0
 40 41  1  0  0  0  0
 41 45  1  0  0  0  0
 42 44  1  0  0  0  0
 43 46  1  0  0  0  0
 43 45  2  0  0  0  0
 45 47  1  0  0  0  0
 46 42  2  0  0  0  0
 47 44  2  0  0  0  0
 48 49  1  0  0  0  0
 49 50  1  0  0  0  0
 50 53  1  0  0  0  0
 50 57  1  0  0  0  0
 51 55  1  0  0  0  0
 53 52  2  0  0  0  0
 53 51  1  0  0  0  0
 54 55  1  0  0  0  0
 55 56  1  0  0  0  0
 57 58  1  0  0  0  0
 58 63  1  0  0  0  0
 59 63  2  0  0  0  0
 59 62  1  0  0  0  0
 60 62  1  0  0  0  0
 62 65  2  0  0  0  0
 63 64  1  0  0  0  0
 64 61  2  0  0  0  0
 65 61  1  0  0  0  0
 65 68  1  0  0  0  0
 68 67  2  0  0  0  0
 68 66  1  0  0  0  0
M  END
>  <MODEL>
1

>  <REMARK>
 VINA RESULT:      -7.2      0.000      0.000
  Name = 
  25 active torsions:
  status: ('A' for Active; 'I' for Inactive)
    1  A    between atoms: C_3  and  C_5
    2  A    between atoms: C_3  and  C_49
    3  A    between atoms: N_4  and  C_31
    4  A    between atoms: C_5  and  C_47
    5  A    between atoms: C_6  and  C_47
    6  A    between atoms: C_8  and  C_38
    7  A    between atoms: C_11  and  N_34
    8  A    between atoms: C_11  and  C_52
    9  A    between atoms: C_11  and  C_58
   10  A    between atoms: C_21  and  C_33
   11  A    between atoms: C_21  and  C_49
   12  A    between atoms: C_22  and  C_39
   13  A    between atoms: C_22  and  C_58
   14  A    between atoms: C_24  and  C_41
   15  A    between atoms: C_25  and  C_64
   16  A    between atoms: N_26  and  C_37
   17  A    between atoms: C_33  and  C_64
   18  A    between atoms: N_34  and  C_42
   19  A    between atoms: C_36  and  C_55
   20  A    between atoms: C_36  and  O_57
   21  A    between atoms: C_37  and  C_41
   22  A    between atoms: C_38  and  C_60
   23  A    between atoms: C_42  and  C_51
   24  A    between atoms: C_54  and  C_62
   25  A    between atoms: O_57  and  C_67
                            x       y       z     vdW  Elec       q    Type
                         _______ _______ _______ _____ _____    ______ ____

>  <TORSDO>
F 25

$$$$
=
 OpenBabel11062414423D

 68 74  0  0  1  0  0  0  0  0999 V2000
  187.2220  174.1330  135.9490 C   0  0  0  0  0  0  0  0  0  0  0  0
  187.7740  177.6960  135.0680 O   0  0  0  0  0  0  0  0  0  0  0  0
  189.0910  175.6420  136.6120 C   0  0  2  0  0  3  0  0  0  0  0  0
  185.3170  172.6980  135.1410 C   0  0  0  0  0  3  0  0  0  0  0  0
  188.2130  171.8690  135.7940 C   0  0  0  0  0  3  0  0  0  0  0  0
  187.1380  176.4560  135.1650 C   0  0  0  0  0  0  0  0  0  0  0  0
  189.9330  176.7100  135.8940 C   0  0  2  0  0  3  0  0  0  0  0  0
  187.9290  173.0300  136.6940 C   0  0  0  0  0  2  0  0  0  0  0  0
  185.9840  176.2990  134.5940 N   0  0  0  0  0  0  0  0  0  0  0  0
  185.1890  175.0720  134.6230 C   0  0  1  0  0  3  0  0  0  0  0  0
  187.7940  175.3500  135.8960 C   0  0  0  0  0  0  0  0  0  0  0  0
  187.2150  171.1090  135.3340 C   0  0  0  0  0  3  0  0  0  0  0  0
  189.5850  179.0400  135.5240 O   0  0  0  0  0  0  0  0  0  0  0  0
  185.7950  171.3990  135.7170 C   0  0  0  0  0  2  0  0  0  0  0  0
  189.0900  177.8820  135.5000 C   0  0  0  0  0  0  0  0  0  0  0  0
  185.9060  173.9040  135.2650 C   0  0  0  0  0  0  0  0  0  0  0  0
  188.8200  176.0480  138.0590 C   0  0  0  0  0  2  0  0  0  0  0  0
  190.0440  175.8010  138.9320 C   0  0  0  0  0  2  0  0  0  0  0  0
  190.8790  177.0670  139.0540 C   0  0  0  0  0  2  0  0  0  0  0  0
  190.6090  177.7690  140.3710 C   0  0  0  0  0  2  0  0  0  0  0  0
  191.6310  177.3370  141.4100 C   0  0  0  0  0  2  0  0  0  0  0  0
  190.4000  175.5950  142.4860 O   0  0  0  0  0  1  0  0  0  0  0  0
  190.9230  176.8760  142.6710 C   0  0  2  0  0  3  0  0  0  0  0  0
  189.7980  177.8410  142.9970 C   0  0  0  0  0  2  0  0  0  0  0  0
  187.5190  177.9770  145.0130 C   0  0  2  0  0  3  0  0  0  0  0  0
  186.2380  178.2310  142.8930 C   0  0  0  0  0  3  0  0  0  0  0  0
  186.4110  177.4000  144.1540 C   0  0  1  0  0  3  0  0  0  0  0  0
  187.7910  176.7790  144.1160 C   0  0  1  0  0  3  0  0  0  0  0  0
  188.4400  177.1800  142.7900 C   0  0  1  0  0  3  0  0  0  0  0  0
  187.5030  178.1230  142.0630 C   0  0  0  0  0  3  0  0  0  0  0  0
  187.3710  177.4980  146.4440 C   0  0  0  0  0  2  0  0  0  0  0  0
  188.2480  177.9990  148.7170 C   0  0  0  0  0  1  0  0  0  0  0  0
  189.6330  176.7520  147.0940 C   0  0  0  0  0  1  0  0  0  0  0  0
  188.6080  177.8560  147.2500 C   0  0  0  0  0  3  0  0  0  0  0  0
  190.6200  176.1370  134.6580 C   0  0  0  0  0  2  0  0  0  0  0  0
  192.0650  175.7260  134.9370 C   0  0  0  0  0  2  0  0  0  0  0  0
  193.5840  173.8390  136.4730 O   0  0  0  0  0  0  0  0  0  0  0  0
  192.2840  174.3250  134.5940 N   0  0  0  0  0  2  0  0  0  0  0  0
  193.0030  173.4200  135.4340 C   0  0  0  0  0  0  0  0  0  0  0  0
  193.0270  172.0630  135.1090 O   0  0  0  0  0  0  0  0  0  0  0  0
  193.3780  171.0580  136.0520 C   0  0  0  0  0  2  0  0  0  0  0  0
  197.5290  170.0720  135.6210 C   0  0  0  0  0  3  0  0  0  0  0  0
  195.4780  169.9930  136.9070 C   0  0  0  0  0  3  0  0  0  0  0  0
  196.8640  170.7550  134.5970 C   0  0  0  0  0  3  0  0  0  0  0  0
  194.8130  170.6850  135.8890 C   0  0  0  0  0  0  0  0  0  0  0  0
  196.8360  169.6890  136.7740 C   0  0  0  0  0  3  0  0  0  0  0  0
  195.5080  171.0620  134.7340 C   0  0  0  0  0  3  0  0  0  0  0  0
  183.8660  175.3630  135.3150 C   0  0  0  0  0  2  0  0  0  0  0  0
  184.0650  175.3400  136.8250 C   0  0  0  0  0  2  0  0  0  0  0  0
  182.9870  176.1380  137.5610 C   0  0  1  0  0  3  0  0  0  0  0  0
  181.6430  174.0170  137.3160 N   0  0  0  0  0  2  0  0  0  0  0  0
  180.6180  176.0320  137.9050 O   0  0  0  0  0  0  0  0  0  0  0  0
  181.6770  175.4170  137.6030 C   0  0  0  0  0  0  0  0  0  0  0  0
  179.7560  173.3670  135.9240 C   0  0  0  0  0  1  0  0  0  0  0  0
  180.4040  173.2540  137.2900 C   0  0  0  0  0  3  0  0  0  0  0  0
  180.7050  171.7990  137.5760 C   0  0  0  0  0  1  0  0  0  0  0  0
  183.4270  176.4970  138.9020 N   0  0  0  0  0  2  0  0  0  0  0  0
  183.2680  177.9360  139.0390 C   0  0  0  0  0  2  0  0  0  0  0  0
  182.9280  178.4310  141.4670 C   0  0  0  0  0  3  0  0  0  0  0  0
  182.9110  178.9620  144.1050 Cl  0  0  0  0  0  0  0  0  0  0  0  0
  180.1760  178.6450  141.0870 C   0  0  0  0  0  3  0  0  0  0  0  0
  182.1060  178.7280  142.5600 C   0  0  0  0  0  0  0  0  0  0  0  0
  182.3830  178.2340  140.1970 C   0  0  0  0  0  0  0  0  0  0  0  0
  181.0060  178.3480  140.0060 C   0  0  0  0  0  3  0  0  0  0  0  0
  180.7030  178.8380  142.3750 C   0  0  0  0  0  0  0  0  0  0  0  0
  179.2450  180.2980  143.5560 O   0  0  0  0  0  0  0  0  0  0  0  0
  179.3950  178.1910  144.4110 O   0  0  0  0  0  1  0  0  0  0  0  0
  179.7530  179.1470  143.4700 C   0  0  0  0  0  0  0  0  0  0  0  0
  1  8  1  0  0  0  0
  2  6  1  0  0  0  0
  2 15  1  0  0  0  0
  3 17  1  1  0  0  0
  4 16  2  0  0  0  0
  4 14  1  0  0  0  0
  5  8  1  0  0  0  0
  6 11  1  0  0  0  0
  7 35  1  6  0  0  0
  7  3  1  0  0  0  0
  9 10  1  0  0  0  0
  9  6  2  0  0  0  0
 10 16  1  0  0  0  0
 10 48  1  1  0  0  0
 11  1  2  0  0  0  0
 11  3  1  0  0  0  0
 12 14  1  0  0  0  0
 12  5  2  0  0  0  0
 15 13  2  0  0  0  0
 15  7  1  0  0  0  0
 16  1  1  0  0  0  0
 17 18  1  0  0  0  0
 18 19  1  0  0  0  0
 19 20  1  0  0  0  0
 20 21  1  0  0  0  0
 21 23  1  0  0  0  0
 23 22  1  6  0  0  0
 23 24  1  0  0  0  0
 25 31  1  1  0  0  0
 27 26  1  6  0  0  0
 27 25  1  0  0  0  0
 28 27  1  0  0  0  0
 28 25  1  0  0  0  0
 29 24  1  0  0  0  0
 29 28  1  0  0  0  0
 30 29  1  0  0  0  0
 30 26  2  0  0  0  0
 31 34  1  0  0  0  0
 33 34  1  0  0  0  0
 34 32  1  0  0  0  0
 35 36  1  0  0  0  0
 38 36  1  0  0  0  0
 38 39  1  0  0  0  0
 39 37  2  0  0  0  0
 40 39  1  0  0  0  0
 40 41  1  0  0  0  0
 42 46  1  0  0  0  0
 44 47  1  0  0  0  0
 44 42  2  0  0  0  0
 45 41  1  0  0  0  0
 45 43  1  0  0  0  0
 46 43  2  0  0  0  0
 47 45  2  0  0  0  0
 48 49  1  0  0  0  0
 49 50  1  0  0  0  0
 50 53  1  0  0  0  0
 50 57  1  0  0  0  0
 51 53  1  0  0  0  0
 53 52  2  0  0  0  0
 54 55  1  0  0  0  0
 55 51  1  0  0  0  0
 55 56  1  0  0  0  0
 57 58  1  0  0  0  0
 58 63  1  0  0  0  0
 59 62  1  0  0  0  0
 61 65  1  0  0  0  0
 62 60  1  0  0  0  0
 63 59  2  0  0  0  0
 64 63  1  0  0  0  0
 64 61  2  0  0  0  0
 65 62  2  0  0  0  0
 65 68  1  0  0  0  0
 68 66  2  0  0  0  0
 68 67  1  0  0  0  0
M  END
>  <MODEL>
2

>  <REMARK>
 VINA RESULT:      -6.8      2.421      3.322
  Name = 
  25 active torsions:
  status: ('A' for Active; 'I' for Inactive)
    1  A    between atoms: C_3  and  C_5
    2  A    between atoms: C_3  and  C_49
    3  A    between atoms: N_4  and  C_31
    4  A    between atoms: C_5  and  C_47
    5  A    between atoms: C_6  and  C_47
    6  A    between atoms: C_8  and  C_38
    7  A    between atoms: C_11  and  N_34
    8  A    between atoms: C_11  and  C_52
    9  A    between atoms: C_11  and  C_58
   10  A    between atoms: C_21  and  C_33
   11  A    between atoms: C_21  and  C_49
   12  A    between atoms: C_22  and  C_39
   13  A    between atoms: C_22  and  C_58
   14  A    between atoms: C_24  and  C_41
   15  A    between atoms: C_25  and  C_64
   16  A    between atoms: N_26  and  C_37
   17  A    between atoms: C_33  and  C_64
   18  A    between atoms: N_34  and  C_42
   19  A    between atoms: C_36  and  C_55
   20  A    between atoms: C_36  and  O_57
   21  A    between atoms: C_37  and  C_41
   22  A    between atoms: C_38  and  C_60
   23  A    between atoms: C_42  and  C_51
   24  A    between atoms: C_54  and  C_62
   25  A    between atoms: O_57  and  C_67
                            x       y       z     vdW  Elec       q    Type
                         _______ _______ _______ _____ _____    ______ ____

>  <TORSDO>
F 25

$$$$
=
 OpenBabel11062414423D

 68 74  0  0  1  0  0  0  0  0999 V2000
  186.1420  175.0990  136.9030 C   0  0  0  0  0  0  0  0  0  0  0  0
  187.3760  178.5350  136.2330 O   0  0  0  0  0  0  0  0  0  0  0  0
  188.3060  176.1460  137.5610 C   0  0  2  0  0  3  0  0  0  0  0  0
  183.9530  174.1430  136.1070 C   0  0  0  0  0  3  0  0  0  0  0  0
  186.6410  172.7010  136.5420 C   0  0  0  0  0  3  0  0  0  0  0  0
  186.5040  177.4450  136.2810 C   0  0  0  0  0  0  0  0  0  0  0  0
  189.3190  177.0740  136.8710 C   0  0  2  0  0  3  0  0  0  0  0  0
  186.6380  173.8230  137.5320 C   0  0  0  0  0  2  0  0  0  0  0  0
  185.3200  177.5670  135.7650 N   0  0  0  0  0  0  0  0  0  0  0  0
  184.2920  176.5270  135.7560 C   0  0  1  0  0  3  0  0  0  0  0  0
  186.9480  176.1770  136.8990 C   0  0  0  0  0  0  0  0  0  0  0  0
  185.4910  172.1950  136.0880 C   0  0  0  0  0  3  0  0  0  0  0  0
  189.4400  179.4480  136.6770 O   0  0  0  0  0  0  0  0  0  0  0  0
  184.1770  172.7340  136.5670 C   0  0  0  0  0  2  0  0  0  0  0  0
  188.7190  178.4190  136.6030 C   0  0  0  0  0  0  0  0  0  0  0  0
  184.7810  175.1930  136.2780 C   0  0  0  0  0  0  0  0  0  0  0  0
  188.1820  176.4860  139.0440 C   0  0  0  0  0  2  0  0  0  0  0  0
  188.7440  177.8720  139.3340 C   0  0  0  0  0  2  0  0  0  0  0  0
  190.0150  177.7710  140.1640 C   0  0  0  0  0  2  0  0  0  0  0  0
  189.6890  177.5680  141.6320 C   0  0  0  0  0  2  0  0  0  0  0  0
  190.3260  176.2820  142.1330 C   0  0  0  0  0  2  0  0  0  0  0  0
  191.9660  175.4470  143.6560 O   0  0  0  0  0  1  0  0  0  0  0  0
  191.5110  176.6060  143.0240 C   0  0  2  0  0  3  0  0  0  0  0  0
  191.0900  177.6220  144.0700 C   0  0  0  0  0  2  0  0  0  0  0  0
  191.6010  176.9070  146.9870 C   0  0  2  0  0  3  0  0  0  0  0  0
  189.3210  177.8920  147.1740 C   0  0  0  0  0  3  0  0  0  0  0  0
  190.1700  176.6550  147.4200 C   0  0  1  0  0  3  0  0  0  0  0  0
  190.6500  176.1450  146.0780 C   0  0  1  0  0  3  0  0  0  0  0  0
  190.0330  177.0370  145.0000 C   0  0  1  0  0  3  0  0  0  0  0  0
  189.2610  178.1490  145.6800 C   0  0  0  0  0  3  0  0  0  0  0  0
  192.5320  175.9210  147.6650 C   0  0  0  0  0  2  0  0  0  0  0  0
  193.3640  175.0750  149.8510 C   0  0  0  0  0  1  0  0  0  0  0  0
  193.1410  177.5050  149.4590 C   0  0  0  0  0  1  0  0  0  0  0  0
  192.5360  176.1480  149.1670 C   0  0  0  0  0  3  0  0  0  0  0  0
  189.8230  176.4710  135.5630 C   0  0  0  0  0  2  0  0  0  0  0  0
  191.3490  176.4030  135.5080 C   0  0  0  0  0  2  0  0  0  0  0  0
  191.6610  174.7050  137.7980 O   0  0  0  0  0  0  0  0  0  0  0  0
  191.8080  175.0190  135.4880 N   0  0  0  0  0  2  0  0  0  0  0  0
  191.8860  174.2060  136.6610 C   0  0  0  0  0  0  0  0  0  0  0  0
  192.1810  172.8480  136.5290 O   0  0  0  0  0  0  0  0  0  0  0  0
  192.7840  172.3080  135.3600 C   0  0  0  0  0  2  0  0  0  0  0  0
  196.8130  171.0780  136.1600 C   0  0  0  0  0  3  0  0  0  0  0  0
  195.1850  172.0930  134.6810 C   0  0  0  0  0  3  0  0  0  0  0  0
  195.8240  170.9050  137.1340 C   0  0  0  0  0  3  0  0  0  0  0  0
  194.1920  171.9120  135.6490 C   0  0  0  0  0  0  0  0  0  0  0  0
  196.4950  171.6750  134.9360 C   0  0  0  0  0  3  0  0  0  0  0  0
  194.5150  171.3190  136.8760 C   0  0  0  0  0  3  0  0  0  0  0  0
  183.0860  177.0250  136.5380 C   0  0  0  0  0  2  0  0  0  0  0  0
  183.4880  177.2830  137.9850 C   0  0  0  0  0  2  0  0  0  0  0  0
  182.2790  177.5790  138.8740 C   0  0  1  0  0  3  0  0  0  0  0  0
  181.0310  175.3870  138.8150 N   0  0  0  0  0  2  0  0  0  0  0  0
  180.1100  177.3240  137.8890 O   0  0  0  0  0  0  0  0  0  0  0  0
  181.0780  176.7780  138.4850 C   0  0  0  0  0  0  0  0  0  0  0  0
  180.4480  173.2410  137.8290 C   0  0  0  0  0  1  0  0  0  0  0  0
  179.9210  174.5290  138.4320 C   0  0  0  0  0  3  0  0  0  0  0  0
  179.0940  174.2010  139.6550 C   0  0  0  0  0  1  0  0  0  0  0  0
  182.6050  177.3800  140.2810 N   0  0  0  0  0  2  0  0  0  0  0  0
  182.5310  178.6790  140.9300 C   0  0  0  0  0  2  0  0  0  0  0  0
  184.6260  178.2590  142.2310 C   0  0  0  0  0  3  0  0  0  0  0  0
  187.0310  177.7460  143.3200 Cl  0  0  0  0  0  0  0  0  0  0  0  0
  183.3610  179.0000  144.6000 C   0  0  0  0  0  3  0  0  0  0  0  0
  185.3470  178.2360  143.4290 C   0  0  0  0  0  0  0  0  0  0  0  0
  183.2830  178.6410  142.2130 C   0  0  0  0  0  0  0  0  0  0  0  0
  182.6520  179.0190  143.3980 C   0  0  0  0  0  3  0  0  0  0  0  0
  184.7100  178.6120  144.6400 C   0  0  0  0  0  0  0  0  0  0  0  0
  185.5650  179.7050  146.5700 O   0  0  0  0  0  1  0  0  0  0  0  0
  185.8370  177.4420  146.5480 O   0  0  0  0  0  0  0  0  0  0  0  0
  185.3900  178.6170  145.9580 C   0  0  0  0  0  0  0  0  0  0  0  0
  1  8  1  0  0  0  0
  2  6  1  0  0  0  0
  2 15  1  0  0  0  0
  3 17  1  1  0  0  0
  4 16  2  0  0  0  0
  4 14  1  0  0  0  0
  5  8  1  0  0  0  0
  6 11  1  0  0  0  0
  7 35  1  6  0  0  0
  7  3  1  0  0  0  0
  9  6  2  0  0  0  0
 10  9  1  0  0  0  0
 10 16  1  0  0  0  0
 10 48  1  1  0  0  0
 11  1  2  0  0  0  0
 11  3  1  0  0  0  0
 12  5  2  0  0  0  0
 12 14  1  0  0  0  0
 15 13  2  0  0  0  0
 15  7  1  0  0  0  0
 16  1  1  0  0  0  0
 17 18  1  0  0  0  0
 18 19  1  0  0  0  0
 19 20  1  0  0  0  0
 20 21  1  0  0  0  0
 21 23  1  0  0  0  0
 23 22  1  1  0  0  0
 23 24  1  0  0  0  0
 24 29  1  0  0  0  0
 25 27  1  0  0  0  0
 25 31  1  1  0  0  0
 27 26  1  6  0  0  0
 28 25  1  0  0  0  0
 28 27  1  0  0  0  0
 29 30  1  0  0  0  0
 29 28  1  0  0  0  0
 30 26  2  0  0  0  0
 31 34  1  0  0  0  0
 34 33  1  0  0  0  0
 34 32  1  0  0  0  0
 36 35  1  0  0  0  0
 38 36  1  0  0  0  0
 38 39  1  0  0  0  0
 39 37  2  0  0  0  0
 40 39  1  0  0  0  0
 41 45  1  0  0  0  0
 41 40  1  0  0  0  0
 42 44  1  0  0  0  0
 43 46  1  0  0  0  0
 43 45  2  0  0  0  0
 45 47  1  0  0  0  0
 46 42  2  0  0  0  0
 47 44  2  0  0  0  0
 48 49  1  0  0  0  0
 49 50  1  0  0  0  0
 50 57  1  0  0  0  0
 52 53  2  0  0  0  0
 53 51  1  0  0  0  0
 53 50  1  0  0  0  0
 54 55  1  0  0  0  0
 55 51  1  0  0  0  0
 55 56  1  0  0  0  0
 57 58  1  0  0  0  0
 58 63  1  0  0  0  0
 59 62  1  0  0  0  0
 60 62  1  0  0  0  0
 61 65  1  0  0  0  0
 62 65  2  0  0  0  0
 63 59  2  0  0  0  0
 63 64  1  0  0  0  0
 64 61  2  0  0  0  0
 65 68  1  0  0  0  0
 68 67  2  0  0  0  0
 68 66  1  0  0  0  0
M  END
>  <MODEL>
3

>  <REMARK>
 VINA RESULT:      -6.3      1.810      2.363
  Name = 
  25 active torsions:
  status: ('A' for Active; 'I' for Inactive)
    1  A    between atoms: C_3  and  C_5
    2  A    between atoms: C_3  and  C_49
    3  A    between atoms: N_4  and  C_31
    4  A    between atoms: C_5  and  C_47
    5  A    between atoms: C_6  and  C_47
    6  A    between atoms: C_8  and  C_38
    7  A    between atoms: C_11  and  N_34
    8  A    between atoms: C_11  and  C_52
    9  A    between atoms: C_11  and  C_58
   10  A    between atoms: C_21  and  C_33
   11  A    between atoms: C_21  and  C_49
   12  A    between atoms: C_22  and  C_39
   13  A    between atoms: C_22  and  C_58
   14  A    between atoms: C_24  and  C_41
   15  A    between atoms: C_25  and  C_64
   16  A    between atoms: N_26  and  C_37
   17  A    between atoms: C_33  and  C_64
   18  A    between atoms: N_34  and  C_42
   19  A    between atoms: C_36  and  C_55
   20  A    between atoms: C_36  and  O_57
   21  A    between atoms: C_37  and  C_41
   22  A    between atoms: C_38  and  C_60
   23  A    between atoms: C_42  and  C_51
   24  A    between atoms: C_54  and  C_62
   25  A    between atoms: O_57  and  C_67
                            x       y       z     vdW  Elec       q    Type
                         _______ _______ _______ _____ _____    ______ ____

>  <TORSDO>
F 25

$$$$
=
 OpenBabel11062414423D

 68 74  0  0  1  0  0  0  0  0999 V2000
  190.7110  176.5440  137.9430 C   0  0  0  0  0  0  0  0  0  0  0  0
  187.3410  175.1150  137.3300 O   0  0  0  0  0  0  0  0  0  0  0  0
  189.7690  175.5900  135.8420 C   0  0  2  0  0  3  0  0  0  0  0  0
  191.5600  177.4080  140.1500 C   0  0  0  0  0  3  0  0  0  0  0  0
  193.1310  176.0260  137.8880 C   0  0  0  0  0  3  0  0  0  0  0  0
  188.3860  175.7590  137.9950 C   0  0  0  0  0  0  0  0  0  0  0  0
  188.8930  174.3740  135.4980 C   0  0  2  0  0  3  0  0  0  0  0  0
  192.0080  176.7380  137.2020 C   0  0  0  0  0  2  0  0  0  0  0  0
  188.2080  176.1400  139.2220 N   0  0  0  0  0  0  0  0  0  0  0  0
  189.1970  176.8410  140.0400 C   0  0  1  0  0  3  0  0  0  0  0  0
  189.6730  175.9780  137.3000 C   0  0  0  0  0  0  0  0  0  0  0  0
  193.5820  176.4530  139.0710 C   0  0  0  0  0  3  0  0  0  0  0  0
  186.5280  174.0690  135.4500 O   0  0  0  0  0  0  0  0  0  0  0  0
  192.9780  177.6570  139.7290 C   0  0  0  0  0  2  0  0  0  0  0  0
  187.5210  174.5200  136.0780 C   0  0  0  0  0  0  0  0  0  0  0  0
  190.5520  176.9600  139.3760 C   0  0  0  0  0  0  0  0  0  0  0  0
  189.4200  176.7800  134.9520 C   0  0  0  0  0  2  0  0  0  0  0  0
  188.3560  177.6550  135.6030 C   0  0  0  0  0  2  0  0  0  0  0  0
  187.2700  178.0150  134.6000 C   0  0  0  0  0  2  0  0  0  0  0  0
  185.9350  177.4250  135.0140 C   0  0  0  0  0  2  0  0  0  0  0  0
  185.6890  177.6810  136.4920 C   0  0  0  0  0  2  0  0  0  0  0  0
  184.1310  176.6990  138.0120 O   0  0  0  0  0  1  0  0  0  0  0  0
  184.2300  177.4260  136.8250 C   0  0  2  0  0  3  0  0  0  0  0  0
  183.5870  176.6420  135.6950 C   0  0  0  0  0  2  0  0  0  0  0  0
  180.7760  175.7880  136.5010 C   0  0  2  0  0  3  0  0  0  0  0  0
  180.5140  178.2640  136.5670 C   0  0  0  0  0  3  0  0  0  0  0  0
  180.0050  176.9720  135.9490 C   0  0  1  0  0  3  0  0  0  0  0  0
  181.1330  176.3670  135.1400 C   0  0  1  0  0  3  0  0  0  0  0  0
  182.3170  177.3320  135.2100 C   0  0  1  0  0  3  0  0  0  0  0  0
  181.9540  178.4740  136.1380 C   0  0  0  0  0  3  0  0  0  0  0  0
  179.9840  174.5110  136.3010 C   0  0  0  0  0  2  0  0  0  0  0  0
  180.9920  172.4830  137.3280 C   0  0  0  0  0  1  0  0  0  0  0  0
  180.5580  174.4910  138.7020 C   0  0  0  0  0  1  0  0  0  0  0  0
  180.0480  173.6510  137.5500 C   0  0  0  0  0  3  0  0  0  0  0  0
  189.5220  173.0760  135.9960 C   0  0  0  0  0  2  0  0  0  0  0  0
  190.8620  173.3130  136.6920 C   0  0  0  0  0  2  0  0  0  0  0  0
  192.6220  174.4300  134.7230 O   0  0  0  0  0  0  0  0  0  0  0  0
  191.9370  172.6040  136.0080 N   0  0  0  0  0  2  0  0  0  0  0  0
  192.8190  173.2360  135.0780 C   0  0  0  0  0  0  0  0  0  0  0  0
  193.9190  172.5250  134.5940 O   0  0  0  0  0  0  0  0  0  0  0  0
  194.6910  171.6590  135.4160 C   0  0  0  0  0  2  0  0  0  0  0  0
  197.4190  174.0260  137.7280 C   0  0  0  0  0  3  0  0  0  0  0  0
  195.2610  172.9520  137.4840 C   0  0  0  0  0  3  0  0  0  0  0  0
  197.8130  173.5210  136.4840 C   0  0  0  0  0  3  0  0  0  0  0  0
  195.6490  172.4540  136.2360 C   0  0  0  0  0  0  0  0  0  0  0  0
  196.1450  173.7390  138.2290 C   0  0  0  0  0  3  0  0  0  0  0  0
  196.9270  172.7380  135.7390 C   0  0  0  0  0  3  0  0  0  0  0  0
  188.6390  178.2040  140.4200 C   0  0  0  0  0  2  0  0  0  0  0  0
  189.0680  178.5520  141.8400 C   0  0  0  0  0  2  0  0  0  0  0  0
  188.4930  177.5780  142.8690 C   0  0  1  0  0  3  0  0  0  0  0  0
  188.7280  177.6890  145.3790 N   0  0  0  0  0  2  0  0  0  0  0  0
  190.5680  177.2250  144.0160 O   0  0  0  0  0  0  0  0  0  0  0  0
  189.3370  177.4890  144.1010 C   0  0  0  0  0  0  0  0  0  0  0  0
  188.5910  178.0580  147.7790 C   0  0  0  0  0  1  0  0  0  0  0  0
  189.4870  177.6660  146.6200 C   0  0  0  0  0  3  0  0  0  0  0  0
  190.0200  176.2710  146.8570 C   0  0  0  0  0  1  0  0  0  0  0  0
  187.1180  177.9240  143.2050 N   0  0  0  0  0  2  0  0  0  0  0  0
  186.4490  178.2850  141.9650 C   0  0  0  0  0  2  0  0  0  0  0  0
  184.0610  178.3080  141.2190 C   0  0  0  0  0  3  0  0  0  0  0  0
  181.6110  178.2020  140.1140 Cl  0  0  0  0  0  0  0  0  0  0  0  0
  183.2290  179.1320  143.7470 C   0  0  0  0  0  3  0  0  0  0  0  0
  182.6980  178.5110  141.4590 C   0  0  0  0  0  0  0  0  0  0  0  0
  185.0030  178.5210  142.2270 C   0  0  0  0  0  0  0  0  0  0  0  0
  184.5850  178.9270  143.4940 C   0  0  0  0  0  3  0  0  0  0  0  0
  182.2660  178.9310  142.7440 C   0  0  0  0  0  0  0  0  0  0  0  0
  180.1380  178.2310  143.5390 O   0  0  0  0  0  1  0  0  0  0  0  0
  180.2670  180.4280  142.9490 O   0  0  0  0  0  0  0  0  0  0  0  0
  180.8460  179.1740  143.0930 C   0  0  0  0  0  0  0  0  0  0  0  0
  1 16  1  0  0  0  0
  2  6  1  0  0  0  0
  3 17  1  6  0  0  0
  3 11  1  0  0  0  0
  5 12  2  0  0  0  0
  6  9  2  0  0  0  0
  7  3  1  0  0  0  0
  7 35  1  1  0  0  0
  7 15  1  0  0  0  0
  8  5  1  0  0  0  0
  8  1  1  0  0  0  0
  9 10  1  0  0  0  0
 10 48  1  6  0  0  0
 11  1  2  0  0  0  0
 11  6  1  0  0  0  0
 12 14  1  0  0  0  0
 13 15  2  0  0  0  0
 14  4  1  0  0  0  0
 15  2  1  0  0  0  0
 16 10  1  0  0  0  0
 16  4  2  0  0  0  0
 17 18  1  0  0  0  0
 19 20  1  0  0  0  0
 19 18  1  0  0  0  0
 20 21  1  0  0  0  0
 21 23  1  0  0  0  0
 23 22  1  1  0  0  0
 24 23  1  0  0  0  0
 25 31  1  6  0  0  0
 27 25  1  0  0  0  0
 27 26  1  1  0  0  0
 28 29  1  0  0  0  0
 28 27  1  0  0  0  0
 28 25  1  0  0  0  0
 29 24  1  0  0  0  0
 29 30  1  0  0  0  0
 30 26  2  0  0  0  0
 31 34  1  0  0  0  0
 32 34  1  0  0  0  0
 34 33  1  0  0  0  0
 35 36  1  0  0  0  0
 37 39  2  0  0  0  0
 38 36  1  0  0  0  0
 39 38  1  0  0  0  0
 40 39  1  0  0  0  0
 40 41  1  0  0  0  0
 41 45  1  0  0  0  0
 42 46  1  0  0  0  0
 43 46  2  0  0  0  0
 44 42  2  0  0  0  0
 45 43  1  0  0  0  0
 47 45  2  0  0  0  0
 47 44  1  0  0  0  0
 48 49  1  0  0  0  0
 49 50  1  0  0  0  0
 50 57  1  0  0  0  0
 50 53  1  0  0  0  0
 51 55  1  0  0  0  0
 52 53  2  0  0  0  0
 53 51  1  0  0  0  0
 55 56  1  0  0  0  0
 55 54  1  0  0  0  0
 58 63  1  0  0  0  0
 58 57  1  0  0  0  0
 59 62  2  0  0  0  0
 59 63  1  0  0  0  0
 60 62  1  0  0  0  0
 62 65  1  0  0  0  0
 63 64  2  0  0  0  0
 64 61  1  0  0  0  0
 65 68  1  0  0  0  0
 65 61  2  0  0  0  0
 67 68  2  0  0  0  0
 68 66  1  0  0  0  0
M  END
>  <MODEL>
4

>  <REMARK>
 VINA RESULT:      -5.9      2.435      8.106
  Name = 
  25 active torsions:
  status: ('A' for Active; 'I' for Inactive)
    1  A    between atoms: C_3  and  C_5
    2  A    between atoms: C_3  and  C_49
    3  A    between atoms: N_4  and  C_31
    4  A    between atoms: C_5  and  C_47
    5  A    between atoms: C_6  and  C_47
    6  A    between atoms: C_8  and  C_38
    7  A    between atoms: C_11  and  N_34
    8  A    between atoms: C_11  and  C_52
    9  A    between atoms: C_11  and  C_58
   10  A    between atoms: C_21  and  C_33
   11  A    between atoms: C_21  and  C_49
   12  A    between atoms: C_22  and  C_39
   13  A    between atoms: C_22  and  C_58
   14  A    between atoms: C_24  and  C_41
   15  A    between atoms: C_25  and  C_64
   16  A    between atoms: N_26  and  C_37
   17  A    between atoms: C_33  and  C_64
   18  A    between atoms: N_34  and  C_42
   19  A    between atoms: C_36  and  C_55
   20  A    between atoms: C_36  and  O_57
   21  A    between atoms: C_37  and  C_41
   22  A    between atoms: C_38  and  C_60
   23  A    between atoms: C_42  and  C_51
   24  A    between atoms: C_54  and  C_62
   25  A    between atoms: O_57  and  C_67
                            x       y       z     vdW  Elec       q    Type
                         _______ _______ _______ _____ _____    ______ ____

>  <TORSDO>
F 25

$$$$
=
 OpenBabel11062414423D

 68 74  0  0  1  0  0  0  0  0999 V2000
  187.6960  174.6330  136.3820 C   0  0  0  0  0  0  0  0  0  0  0  0
  187.8880  178.3250  136.0630 O   0  0  0  0  0  0  0  0  0  0  0  0
  189.0210  176.2580  137.7290 C   0  0  2  0  0  3  0  0  0  0  0  0
  186.3670  173.0970  134.8940 C   0  0  0  0  0  3  0  0  0  0  0  0
  189.0460  172.5580  136.3190 C   0  0  0  0  0  3  0  0  0  0  0  0
  187.4630  177.0140  135.8390 C   0  0  0  0  0  0  0  0  0  0  0  0
  189.8480  177.5150  137.4110 C   0  0  2  0  0  3  0  0  0  0  0  0
  188.3280  173.5340  137.1980 C   0  0  0  0  0  2  0  0  0  0  0  0
  186.5660  176.7940  134.9290 N   0  0  0  0  0  0  0  0  0  0  0  0
  186.0070  175.4850  134.5940 C   0  0  1  0  0  3  0  0  0  0  0  0
  188.0520  175.9080  136.6250 C   0  0  0  0  0  0  0  0  0  0  0  0
  188.3620  171.7500  135.5040 C   0  0  0  0  0  3  0  0  0  0  0  0
  189.2450  179.8100  137.1790 O   0  0  0  0  0  0  0  0  0  0  0  0
  186.8640  171.8000  135.4590 C   0  0  0  0  0  2  0  0  0  0  0  0
  188.9750  178.6140  136.8930 C   0  0  0  0  0  0  0  0  0  0  0  0
  186.6900  174.3380  135.3080 C   0  0  0  0  0  0  0  0  0  0  0  0
  188.2810  176.4170  139.0550 C   0  0  0  0  0  2  0  0  0  0  0  0
  187.4110  177.6680  139.0470 C   0  0  0  0  0  2  0  0  0  0  0  0
  187.6690  178.5080  140.2880 C   0  0  0  0  0  2  0  0  0  0  0  0
  186.4670  178.4900  141.2140 C   0  0  0  0  0  2  0  0  0  0  0  0
  186.8970  178.8310  142.6310 C   0  0  0  0  0  2  0  0  0  0  0  0
  186.4400  178.1740  144.8820 O   0  0  0  0  0  1  0  0  0  0  0  0
  186.5210  177.7000  143.5710 C   0  0  2  0  0  3  0  0  0  0  0  0
  187.5730  176.6080  143.4910 C   0  0  0  0  0  2  0  0  0  0  0  0
  189.8610  176.9870  145.4660 C   0  0  2  0  0  3  0  0  0  0  0  0
  191.1310  176.1930  143.4760 C   0  0  0  0  0  3  0  0  0  0  0  0
  190.9660  177.3210  144.4820 C   0  0  1  0  0  3  0  0  0  0  0  0
  189.5860  177.9150  144.2930 C   0  0  1  0  0  3  0  0  0  0  0  0
  188.9310  177.1900  143.1170 C   0  0  1  0  0  3  0  0  0  0  0  0
  189.8620  176.0890  142.6510 C   0  0  0  0  0  3  0  0  0  0  0  0
  190.0170  177.8160  146.7250 C   0  0  0  0  0  2  0  0  0  0  0  0
  188.1630  176.4220  147.6220 C   0  0  0  0  0  1  0  0  0  0  0  0
  188.9860  178.3710  148.8990 C   0  0  0  0  0  1  0  0  0  0  0  0
  188.7170  177.8310  147.5100 C   0  0  0  0  0  3  0  0  0  0  0  0
  190.9470  177.2150  136.3950 C   0  0  0  0  0  2  0  0  0  0  0  0
  192.0420  176.3200  136.9750 C   0  0  0  0  0  2  0  0  0  0  0  0
  192.6710  173.5260  137.1160 O   0  0  0  0  0  0  0  0  0  0  0  0
  192.6840  175.5360  135.9260 N   0  0  0  0  0  2  0  0  0  0  0  0
  192.9170  174.1310  136.0360 C   0  0  0  0  0  0  0  0  0  0  0  0
  193.3880  173.4300  134.9240 O   0  0  0  0  0  0  0  0  0  0  0  0
  194.4590  172.4980  135.0070 C   0  0  0  0  0  2  0  0  0  0  0  0
  198.0380  174.5850  136.1130 C   0  0  0  0  0  3  0  0  0  0  0  0
  196.4750  172.7680  136.4680 C   0  0  0  0  0  3  0  0  0  0  0  0
  197.2920  175.0140  135.0100 C   0  0  0  0  0  3  0  0  0  0  0  0
  195.7220  173.2020  135.3730 C   0  0  0  0  0  0  0  0  0  0  0  0
  197.6320  173.4610  136.8390 C   0  0  0  0  0  3  0  0  0  0  0  0
  196.1330  174.3240  134.6430 C   0  0  0  0  0  3  0  0  0  0  0  0
  184.5120  175.5040  134.8720 C   0  0  0  0  0  2  0  0  0  0  0  0
  184.2620  175.1680  136.3360 C   0  0  0  0  0  2  0  0  0  0  0  0
  182.7800  174.9220  136.6260 C   0  0  1  0  0  3  0  0  0  0  0  0
  182.7050  172.4250  136.9790 N   0  0  0  0  0  2  0  0  0  0  0  0
  181.6260  173.4180  135.1600 O   0  0  0  0  0  0  0  0  0  0  0  0
  182.3340  173.5610  136.1940 C   0  0  0  0  0  0  0  0  0  0  0  0
  180.9070  171.0160  136.1440 C   0  0  0  0  0  1  0  0  0  0  0  0
  182.3510  171.0650  136.6030 C   0  0  0  0  0  3  0  0  0  0  0  0
  183.2460  170.6080  135.4720 C   0  0  0  0  0  1  0  0  0  0  0  0
  182.4790  175.1460  138.0340 N   0  0  0  0  0  2  0  0  0  0  0  0
  183.2850  176.2740  138.4740 C   0  0  0  0  0  2  0  0  0  0  0  0
  182.4540  177.7130  140.3440 C   0  0  0  0  0  3  0  0  0  0  0  0
  181.8050  179.1070  142.5510 Cl  0  0  0  0  0  0  0  0  0  0  0  0
  180.7130  179.0350  138.6160 C   0  0  0  0  0  3  0  0  0  0  0  0
  181.6380  178.7340  140.8420 C   0  0  0  0  0  0  0  0  0  0  0  0
  182.3990  177.3490  138.9970 C   0  0  0  0  0  0  0  0  0  0  0  0
  181.5320  178.0150  138.1310 C   0  0  0  0  0  3  0  0  0  0  0  0
  180.7480  179.4120  139.9690 C   0  0  0  0  0  0  0  0  0  0  0  0
  179.0710  180.3240  141.3850 O   0  0  0  0  0  1  0  0  0  0  0  0
  179.8250  181.7320  139.7600 O   0  0  0  0  0  0  0  0  0  0  0  0
  179.8430  180.5020  140.4040 C   0  0  0  0  0  0  0  0  0  0  0  0
  1 11  2  0  0  0  0
  1  8  1  0  0  0  0
  2 15  1  0  0  0  0
  3 17  1  1  0  0  0
  4 16  2  0  0  0  0
  4 14  1  0  0  0  0
  5  8  1  0  0  0  0
  6  2  1  0  0  0  0
  6 11  1  0  0  0  0
  7 35  1  6  0  0  0
  7  3  1  0  0  0  0
  9  6  2  0  0  0  0
 10 48  1  1  0  0  0
 10  9  1  0  0  0  0
 10 16  1  0  0  0  0
 11  3  1  0  0  0  0
 12  5  2  0  0  0  0
 14 12  1  0  0  0  0
 15 13  2  0  0  0  0
 15  7  1  0  0  0  0
 16  1  1  0  0  0  0
 18 17  1  0  0  0  0
 18 19  1  0  0  0  0
 19 20  1  0  0  0  0
 20 21  1  0  0  0  0
 21 23  1  0  0  0  0
 23 22  1  1  0  0  0
 24 23  1  0  0  0  0
 25 31  1  1  0  0  0
 27 26  1  6  0  0  0
 27 25  1  0  0  0  0
 28 27  1  0  0  0  0
 28 25  1  0  0  0  0
 29 24  1  0  0  0  0
 29 28  1  0  0  0  0
 30 29  1  0  0  0  0
 30 26  2  0  0  0  0
 31 34  1  0  0  0  0
 34 32  1  0  0  0  0
 34 33  1  0  0  0  0
 35 36  1  0  0  0  0
 38 39  1  0  0  0  0
 38 36  1  0  0  0  0
 39 37  2  0  0  0  0
 40 41  1  0  0  0  0
 40 39  1  0  0  0  0
 41 45  1  0  0  0  0
 42 46  1  0  0  0  0
 43 46  2  0  0  0  0
 44 42  2  0  0  0  0
 45 43  1  0  0  0  0
 47 44  1  0  0  0  0
 47 45  2  0  0  0  0
 48 49  1  0  0  0  0
 49 50  1  0  0  0  0
 50 57  1  0  0  0  0
 52 53  2  0  0  0  0
 53 50  1  0  0  0  0
 53 51  1  0  0  0  0
 54 55  1  0  0  0  0
 55 51  1  0  0  0  0
 56 55  1  0  0  0  0
 57 58  1  0  0  0  0
 58 63  1  0  0  0  0
 59 62  1  0  0  0  0
 61 65  1  0  0  0  0
 62 60  1  0  0  0  0
 63 59  2  0  0  0  0
 64 61  2  0  0  0  0
 64 63  1  0  0  0  0
 65 68  1  0  0  0  0
 65 62  2  0  0  0  0
 67 68  2  0  0  0  0
 68 66  1  0  0  0  0
M  END
>  <MODEL>
5

>  <REMARK>
 VINA RESULT:      -5.6      2.123      3.786
  Name = 
  25 active torsions:
  status: ('A' for Active; 'I' for Inactive)
    1  A    between atoms: C_3  and  C_5
    2  A    between atoms: C_3  and  C_49
    3  A    between atoms: N_4  and  C_31
    4  A    between atoms: C_5  and  C_47
    5  A    between atoms: C_6  and  C_47
    6  A    between atoms: C_8  and  C_38
    7  A    between atoms: C_11  and  N_34
    8  A    between atoms: C_11  and  C_52
    9  A    between atoms: C_11  and  C_58
   10  A    between atoms: C_21  and  C_33
   11  A    between atoms: C_21  and  C_49
   12  A    between atoms: C_22  and  C_39
   13  A    between atoms: C_22  and  C_58
   14  A    between atoms: C_24  and  C_41
   15  A    between atoms: C_25  and  C_64
   16  A    between atoms: N_26  and  C_37
   17  A    between atoms: C_33  and  C_64
   18  A    between atoms: N_34  and  C_42
   19  A    between atoms: C_36  and  C_55
   20  A    between atoms: C_36  and  O_57
   21  A    between atoms: C_37  and  C_41
   22  A    between atoms: C_38  and  C_60
   23  A    between atoms: C_42  and  C_51
   24  A    between atoms: C_54  and  C_62
   25  A    between atoms: O_57  and  C_67
                            x       y       z     vdW  Elec       q    Type
                         _______ _______ _______ _____ _____    ______ ____

>  <TORSDO>
F 25

$$$$
=
 OpenBabel11062414423D

 68 74  0  0  1  0  0  0  0  0999 V2000
  191.8160  176.3060  137.9810 C   0  0  0  0  0  0  0  0  0  0  0  0
  188.5490  174.9550  136.8520 O   0  0  0  0  0  0  0  0  0  0  0  0
  191.1770  175.4070  135.7460 C   0  0  2  0  0  3  0  0  0  0  0  0
  192.3470  177.1140  140.3060 C   0  0  0  0  0  3  0  0  0  0  0  0
  194.2090  175.7410  138.2710 C   0  0  0  0  0  3  0  0  0  0  0  0
  189.4960  175.5660  137.6760 C   0  0  0  0  0  0  0  0  0  0  0  0
  190.3410  174.2150  135.2520 C   0  0  2  0  0  3  0  0  0  0  0  0
  193.2110  176.4870  137.4420 C   0  0  0  0  0  2  0  0  0  0  0  0
  189.1460  175.9290  138.8700 N   0  0  0  0  0  0  0  0  0  0  0  0
  190.0160  176.5960  139.8380 C   0  0  1  0  0  3  0  0  0  0  0  0
  190.8750  175.7710  137.1810 C   0  0  0  0  0  0  0  0  0  0  0  0
  194.4880  176.1380  139.5160 C   0  0  0  0  0  3  0  0  0  0  0  0
  188.0040  173.9570  134.8510 O   0  0  0  0  0  0  0  0  0  0  0  0
  193.8150  177.3420  140.1020 C   0  0  0  0  0  2  0  0  0  0  0  0
  188.9010  174.3780  135.6280 C   0  0  0  0  0  0  0  0  0  0  0  0
  191.4560  176.7000  139.3840 C   0  0  0  0  0  0  0  0  0  0  0  0
  190.9830  176.6190  134.8380 C   0  0  0  0  0  2  0  0  0  0  0  0
  189.9580  177.5820  135.4250 C   0  0  0  0  0  2  0  0  0  0  0  0
  188.6800  177.5710  134.6010 C   0  0  0  0  0  2  0  0  0  0  0  0
  187.5320  178.1910  135.3740 C   0  0  0  0  0  2  0  0  0  0  0  0
  186.4510  177.1510  135.6230 C   0  0  0  0  0  2  0  0  0  0  0  0
  186.1910  178.3710  137.6600 O   0  0  0  0  0  1  0  0  0  0  0  0
  185.4940  177.6460  136.6920 C   0  0  2  0  0  3  0  0  0  0  0  0
  184.8110  176.4570  137.3440 C   0  0  0  0  0  2  0  0  0  0  0  0
  182.9290  174.0630  137.3710 C   0  0  2  0  0  3  0  0  0  0  0  0
  181.6070  175.6700  138.7390 C   0  0  0  0  0  3  0  0  0  0  0  0
  181.6100  174.8030  137.4900 C   0  0  1  0  0  3  0  0  0  0  0  0
  182.6860  175.3280  136.5620 C   0  0  1  0  0  3  0  0  0  0  0  0
  183.2960  176.5660  137.2200 C   0  0  1  0  0  3  0  0  0  0  0  0
  182.6700  176.7420  138.5880 C   0  0  0  0  0  3  0  0  0  0  0  0
  182.7700  172.8590  136.4630 C   0  0  0  0  0  2  0  0  0  0  0  0
  183.4730  170.5090  136.0490 C   0  0  0  0  0  1  0  0  0  0  0  0
  185.1420  172.2130  136.6950 C   0  0  0  0  0  1  0  0  0  0  0  0
  183.7140  171.7490  136.8910 C   0  0  0  0  0  3  0  0  0  0  0  0
  190.8680  172.8970  135.8110 C   0  0  0  0  0  2  0  0  0  0  0  0
  191.0970  171.8550  134.7160 C   0  0  0  0  0  2  0  0  0  0  0  0
  193.2640  172.8650  136.3000 O   0  0  0  0  0  0  0  0  0  0  0  0
  192.4180  171.2500  134.8400 N   0  0  0  0  0  2  0  0  0  0  0  0
  193.4370  171.7720  135.6950 C   0  0  0  0  0  0  0  0  0  0  0  0
  194.6130  171.0410  135.8760 O   0  0  0  0  0  0  0  0  0  0  0  0
  195.5480  171.3420  136.9050 C   0  0  0  0  0  2  0  0  0  0  0  0
  198.7110  173.8460  135.4510 C   0  0  0  0  0  3  0  0  0  0  0  0
  197.6910  171.6570  135.6480 C   0  0  0  0  0  3  0  0  0  0  0  0
  197.6470  174.4080  136.1640 C   0  0  0  0  0  3  0  0  0  0  0  0
  196.6320  172.2150  136.3700 C   0  0  0  0  0  0  0  0  0  0  0  0
  198.7320  172.4710  135.1900 C   0  0  0  0  0  3  0  0  0  0  0  0
  196.6110  173.5920  136.6240 C   0  0  0  0  0  3  0  0  0  0  0  0
  189.4320  177.9630  140.1600 C   0  0  0  0  0  2  0  0  0  0  0  0
  187.9250  177.8420  140.3480 C   0  0  0  0  0  2  0  0  0  0  0  0
  187.3710  178.9280  141.2720 C   0  0  1  0  0  3  0  0  0  0  0  0
  185.4540  178.5480  142.8680 N   0  0  0  0  0  2  0  0  0  0  0  0
  185.0790  178.8300  140.5790 O   0  0  0  0  0  0  0  0  0  0  0  0
  185.9070  178.7640  141.5290 C   0  0  0  0  0  0  0  0  0  0  0  0
  183.6290  179.2830  144.2970 C   0  0  0  0  0  1  0  0  0  0  0  0
  184.0530  178.3320  143.1950 C   0  0  0  0  0  3  0  0  0  0  0  0
  183.2050  178.5850  141.9690 C   0  0  0  0  0  1  0  0  0  0  0  0
  188.1160  178.9790  142.5230 N   0  0  0  0  0  2  0  0  0  0  0  0
  187.6330  177.8910  143.3580 C   0  0  0  0  0  2  0  0  0  0  0  0
  188.3230  177.6230  145.7480 C   0  0  0  0  0  3  0  0  0  0  0  0
  188.7310  177.4070  148.3980 Cl  0  0  0  0  0  0  0  0  0  0  0  0
  190.8820  176.8420  144.9720 C   0  0  0  0  0  3  0  0  0  0  0  0
  189.2680  177.3020  146.7280 C   0  0  0  0  0  0  0  0  0  0  0  0
  188.6520  177.5640  144.3930 C   0  0  0  0  0  0  0  0  0  0  0  0
  189.9310  177.1660  144.0040 C   0  0  0  0  0  3  0  0  0  0  0  0
  190.5740  176.9030  146.3410 C   0  0  0  0  0  0  0  0  0  0  0  0
  192.2590  175.4540  147.1820 O   0  0  0  0  0  0  0  0  0  0  0  0
  191.9930  177.3940  148.3470 O   0  0  0  0  0  1  0  0  0  0  0  0
  191.6420  176.5460  147.3050 C   0  0  0  0  0  0  0  0  0  0  0  0
  1 16  1  0  0  0  0
  2  6  1  0  0  0  0
  3 17  1  6  0  0  0
  3 11  1  0  0  0  0
  5 12  2  0  0  0  0
  6  9  2  0  0  0  0
  7 15  1  0  0  0  0
  7  3  1  0  0  0  0
  7 35  1  1  0  0  0
  8  1  1  0  0  0  0
  8  5  1  0  0  0  0
  9 10  1  0  0  0  0
 10 48  1  6  0  0  0
 11  6  1  0  0  0  0
 11  1  2  0  0  0  0
 12 14  1  0  0  0  0
 13 15  2  0  0  0  0
 14  4  1  0  0  0  0
 15  2  1  0  0  0  0
 16 10  1  0  0  0  0
 16  4  2  0  0  0  0
 17 18  1  0  0  0  0
 19 20  1  0  0  0  0
 19 18  1  0  0  0  0
 20 21  1  0  0  0  0
 21 23  1  0  0  0  0
 23 24  1  0  0  0  0
 23 22  1  1  0  0  0
 25 31  1  6  0  0  0
 25 27  1  0  0  0  0
 27 26  1  1  0  0  0
 28 29  1  0  0  0  0
 28 25  1  0  0  0  0
 28 27  1  0  0  0  0
 29 24  1  0  0  0  0
 29 30  1  0  0  0  0
 30 26  2  0  0  0  0
 31 34  1  0  0  0  0
 32 34  1  0  0  0  0
 33 34  1  0  0  0  0
 36 38  1  0  0  0  0
 36 35  1  0  0  0  0
 38 39  1  0  0  0  0
 39 40  1  0  0  0  0
 39 37  2  0  0  0  0
 40 41  1  0  0  0  0
 42 44  1  0  0  0  0
 43 45  2  0  0  0  0
 44 47  2  0  0  0  0
 45 47  1  0  0  0  0
 45 41  1  0  0  0  0
 46 42  2  0  0  0  0
 46 43  1  0  0  0  0
 48 49  1  0  0  0  0
 49 50  1  0  0  0  0
 50 53  1  0  0  0  0
 50 57  1  0  0  0  0
 51 55  1  0  0  0  0
 52 53  2  0  0  0  0
 53 51  1  0  0  0  0
 55 54  1  0  0  0  0
 56 55  1  0  0  0  0
 57 58  1  0  0  0  0
 58 63  1  0  0  0  0
 59 62  1  0  0  0  0
 61 65  1  0  0  0  0
 62 60  1  0  0  0  0
 63 59  2  0  0  0  0
 64 63  1  0  0  0  0
 64 61  2  0  0  0  0
 65 62  2  0  0  0  0
 65 68  1  0  0  0  0
 66 68  2  0  0  0  0
 68 67  1  0  0  0  0
M  END
>  <MODEL>
6

>  <REMARK>
 VINA RESULT:      -5.3      2.530      7.557
  Name = 
  25 active torsions:
  status: ('A' for Active; 'I' for Inactive)
    1  A    between atoms: C_3  and  C_5
    2  A    between atoms: C_3  and  C_49
    3  A    between atoms: N_4  and  C_31
    4  A    between atoms: C_5  and  C_47
    5  A    between atoms: C_6  and  C_47
    6  A    between atoms: C_8  and  C_38
    7  A    between atoms: C_11  and  N_34
    8  A    between atoms: C_11  and  C_52
    9  A    between atoms: C_11  and  C_58
   10  A    between atoms: C_21  and  C_33
   11  A    between atoms: C_21  and  C_49
   12  A    between atoms: C_22  and  C_39
   13  A    between atoms: C_22  and  C_58
   14  A    between atoms: C_24  and  C_41
   15  A    between atoms: C_25  and  C_64
   16  A    between atoms: N_26  and  C_37
   17  A    between atoms: C_33  and  C_64
   18  A    between atoms: N_34  and  C_42
   19  A    between atoms: C_36  and  C_55
   20  A    between atoms: C_36  and  O_57
   21  A    between atoms: C_37  and  C_41
   22  A    between atoms: C_38  and  C_60
   23  A    between atoms: C_42  and  C_51
   24  A    between atoms: C_54  and  C_62
   25  A    between atoms: O_57  and  C_67
                            x       y       z     vdW  Elec       q    Type
                         _______ _______ _______ _____ _____    ______ ____

>  <TORSDO>
F 25

$$$$
=
 OpenBabel11062414423D

 68 74  0  0  1  0  0  0  0  0999 V2000
  183.6860  176.7710  137.6000 C   0  0  0  0  0  0  0  0  0  0  0  0
  186.4850  178.5600  135.9440 O   0  0  0  0  0  0  0  0  0  0  0  0
  185.7270  177.7770  138.6170 C   0  0  2  0  0  3  0  0  0  0  0  0
  181.7110  175.7330  136.4330 C   0  0  0  0  0  3  0  0  0  0  0  0
  183.1340  174.8100  139.0060 C   0  0  0  0  0  3  0  0  0  0  0  0
  185.2550  177.9170  136.1010 C   0  0  0  0  0  0  0  0  0  0  0  0
  187.2150  177.8350  138.2360 C   0  0  2  0  0  3  0  0  0  0  0  0
  183.3070  176.2960  138.9790 C   0  0  0  0  0  2  0  0  0  0  0  0
  184.5050  177.7360  135.0580 N   0  0  0  0  0  0  0  0  0  0  0  0
  183.1880  177.1010  135.0660 C   0  0  1  0  0  3  0  0  0  0  0  0
  184.8410  177.4430  137.4400 C   0  0  0  0  0  0  0  0  0  0  0  0
  182.1070  174.2360  138.3730 C   0  0  0  0  0  3  0  0  0  0  0  0
  188.4550  179.3270  136.8500 O   0  0  0  0  0  0  0  0  0  0  0  0
  181.1040  175.0680  137.6320 C   0  0  0  0  0  2  0  0  0  0  0  0
  187.4180  178.6270  136.9820 C   0  0  0  0  0  0  0  0  0  0  0  0
  182.8130  176.5080  136.4080 C   0  0  0  0  0  0  0  0  0  0  0  0
  185.2810  179.0860  139.2640 C   0  0  0  0  0  2  0  0  0  0  0  0
  185.1670  178.9350  140.7760 C   0  0  0  0  0  2  0  0  0  0  0  0
  186.5360  178.6950  141.3950 C   0  0  0  0  0  2  0  0  0  0  0  0
  186.4500  177.6880  142.5260 C   0  0  0  0  0  2  0  0  0  0  0  0
  187.2980  178.1510  143.7000 C   0  0  0  0  0  2  0  0  0  0  0  0
  185.3560  177.4930  144.9240 O   0  0  0  0  0  1  0  0  0  0  0  0
  186.7480  177.5760  144.9930 C   0  0  2  0  0  3  0  0  0  0  0  0
  187.1450  178.4740  146.1500 C   0  0  0  0  0  2  0  0  0  0  0  0
  190.0930  177.7250  146.3190 C   0  0  2  0  0  3  0  0  0  0  0  0
  189.6430  178.2570  148.7090 C   0  0  0  0  0  3  0  0  0  0  0  0
  190.1180  177.1890  147.7370 C   0  0  1  0  0  3  0  0  0  0  0  0
  188.9600  176.8440  146.8240 C   0  0  1  0  0  3  0  0  0  0  0  0
  187.7510  177.6580  147.2860 C   0  0  1  0  0  3  0  0  0  0  0  0
  188.1890  178.5720  148.4130 C   0  0  0  0  0  3  0  0  0  0  0  0
  191.0040  176.8970  145.4330 C   0  0  0  0  0  2  0  0  0  0  0  0
  191.4780  178.6300  143.7140 C   0  0  0  0  0  1  0  0  0  0  0  0
  191.4680  176.2370  143.1000 C   0  0  0  0  0  1  0  0  0  0  0  0
  190.8210  177.2880  143.9770 C   0  0  0  0  0  3  0  0  0  0  0  0
  187.7980  176.4360  138.0560 C   0  0  0  0  0  2  0  0  0  0  0  0
  188.3400  176.2120  136.6450 C   0  0  0  0  0  2  0  0  0  0  0  0
  191.1920  176.4950  136.7580 O   0  0  0  0  0  0  0  0  0  0  0  0
  189.3080  175.1210  136.6250 N   0  0  0  0  0  2  0  0  0  0  0  0
  190.7170  175.3270  136.7440 C   0  0  0  0  0  0  0  0  0  0  0  0
  191.5570  174.2190  136.8780 O   0  0  0  0  0  0  0  0  0  0  0  0
  192.7360  174.2480  137.6720 C   0  0  0  0  0  2  0  0  0  0  0  0
  196.1510  174.4680  135.0870 C   0  0  0  0  0  3  0  0  0  0  0  0
  194.0450  175.3810  135.8610 C   0  0  0  0  0  3  0  0  0  0  0  0
  196.0530  173.4370  136.0280 C   0  0  0  0  0  3  0  0  0  0  0  0
  193.9390  174.3450  136.7950 C   0  0  0  0  0  0  0  0  0  0  0  0
  195.1500  175.4410  135.0060 C   0  0  0  0  0  3  0  0  0  0  0  0
  194.9460  173.3750  136.8780 C   0  0  0  0  0  3  0  0  0  0  0  0
  182.1540  178.1120  134.5940 C   0  0  0  0  0  2  0  0  0  0  0  0
  182.0790  179.2650  135.5860 C   0  0  0  0  0  2  0  0  0  0  0  0
  180.9380  179.0880  136.5890 C   0  0  1  0  0  3  0  0  0  0  0  0
  180.6580  178.6950  139.0650 N   0  0  0  0  0  2  0  0  0  0  0  0
  182.3920  180.0290  138.2460 O   0  0  0  0  0  0  0  0  0  0  0  0
  181.3820  179.3140  138.0000 C   0  0  0  0  0  0  0  0  0  0  0  0
  180.1750  180.0430  141.0310 C   0  0  0  0  0  1  0  0  0  0  0  0
  180.9960  178.9010  140.4650 C   0  0  0  0  0  3  0  0  0  0  0  0
  180.6960  177.6410  141.2460 C   0  0  0  0  0  1  0  0  0  0  0  0
  179.8110  179.9480  136.2540 N   0  0  0  0  0  2  0  0  0  0  0  0
  179.1920  180.3570  137.5060 C   0  0  0  0  0  2  0  0  0  0  0  0
  179.6960  182.6230  136.5740 C   0  0  0  0  0  3  0  0  0  0  0  0
  180.2930  184.8970  135.2670 Cl  0  0  0  0  0  0  0  0  0  0  0  0
  179.0010  183.8240  138.9900 C   0  0  0  0  0  3  0  0  0  0  0  0
  179.7710  184.0150  136.6940 C   0  0  0  0  0  0  0  0  0  0  0  0
  179.2850  181.8350  137.6500 C   0  0  0  0  0  0  0  0  0  0  0  0
  178.9310  182.4370  138.8570 C   0  0  0  0  0  3  0  0  0  0  0  0
  179.4190  184.6340  137.9210 C   0  0  0  0  0  0  0  0  0  0  0  0
  179.8370  186.5510  139.2620 O   0  0  0  0  0  1  0  0  0  0  0  0
  179.1250  186.9990  137.1440 O   0  0  0  0  0  0  0  0  0  0  0  0
  179.4680  186.0990  138.1450 C   0  0  0  0  0  0  0  0  0  0  0  0
  1  8  1  0  0  0  0
  2  6  1  0  0  0  0
  2 15  1  0  0  0  0
  3 17  1  6  0  0  0
  4 14  1  0  0  0  0
  6 11  1  0  0  0  0
  7 35  1  6  0  0  0
  7  3  1  0  0  0  0
  8  5  1  0  0  0  0
  9 10  1  0  0  0  0
  9  6  2  0  0  0  0
 10 48  1  1  0  0  0
 10 16  1  0  0  0  0
 11  1  2  0  0  0  0
 11  3  1  0  0  0  0
 12  5  2  0  0  0  0
 13 15  2  0  0  0  0
 14 12  1  0  0  0  0
 15  7  1  0  0  0  0
 16  4  2  0  0  0  0
 16  1  1  0  0  0  0
 17 18  1  0  0  0  0
 18 19  1  0  0  0  0
 19 20  1  0  0  0  0
 20 21  1  0  0  0  0
 21 23  1  0  0  0  0
 23 22  1  6  0  0  0
 23 24  1  0  0  0  0
 24 29  1  0  0  0  0
 25 31  1  6  0  0  0
 25 28  1  0  0  0  0
 25 27  1  0  0  0  0
 27 26  1  1  0  0  0
 28 29  1  0  0  0  0
 28 27  1  0  0  0  0
 29 30  1  0  0  0  0
 30 26  2  0  0  0  0
 32 34  1  0  0  0  0
 33 34  1  0  0  0  0
 34 31  1  0  0  0  0
 36 35  1  0  0  0  0
 38 36  1  0  0  0  0
 38 39  1  0  0  0  0
 39 37  2  0  0  0  0
 39 40  1  0  0  0  0
 40 41  1  0  0  0  0
 42 44  1  0  0  0  0
 43 45  2  0  0  0  0
 44 47  2  0  0  0  0
 45 47  1  0  0  0  0
 45 41  1  0  0  0  0
 46 42  2  0  0  0  0
 46 43  1  0  0  0  0
 48 49  1  0  0  0  0
 49 50  1  0  0  0  0
 50 53  1  0  0  0  0
 51 55  1  0  0  0  0
 53 52  2  0  0  0  0
 53 51  1  0  0  0  0
 55 54  1  0  0  0  0
 55 56  1  0  0  0  0
 57 50  1  0  0  0  0
 57 58  1  0  0  0  0
 58 63  1  0  0  0  0
 59 62  2  0  0  0  0
 59 63  1  0  0  0  0
 60 62  1  0  0  0  0
 62 65  1  0  0  0  0
 63 64  2  0  0  0  0
 64 61  1  0  0  0  0
 65 68  1  0  0  0  0
 65 61  2  0  0  0  0
 67 68  2  0  0  0  0
 68 66  1  0  0  0  0
M  END
>  <MODEL>
7

>  <REMARK>
 VINA RESULT:      -5.0      3.340      5.162
  Name = 
  25 active torsions:
  status: ('A' for Active; 'I' for Inactive)
    1  A    between atoms: C_3  and  C_5
    2  A    between atoms: C_3  and  C_49
    3  A    between atoms: N_4  and  C_31
    4  A    between atoms: C_5  and  C_47
    5  A    between atoms: C_6  and  C_47
    6  A    between atoms: C_8  and  C_38
    7  A    between atoms: C_11  and  N_34
    8  A    between atoms: C_11  and  C_52
    9  A    between atoms: C_11  and  C_58
   10  A    between atoms: C_21  and  C_33
   11  A    between atoms: C_21  and  C_49
   12  A    between atoms: C_22  and  C_39
   13  A    between atoms: C_22  and  C_58
   14  A    between atoms: C_24  and  C_41
   15  A    between atoms: C_25  and  C_64
   16  A    between atoms: N_26  and  C_37
   17  A    between atoms: C_33  and  C_64
   18  A    between atoms: N_34  and  C_42
   19  A    between atoms: C_36  and  C_55
   20  A    between atoms: C_36  and  O_57
   21  A    between atoms: C_37  and  C_41
   22  A    between atoms: C_38  and  C_60
   23  A    between atoms: C_42  and  C_51
   24  A    between atoms: C_54  and  C_62
   25  A    between atoms: O_57  and  C_67
                            x       y       z     vdW  Elec       q    Type
                         _______ _______ _______ _____ _____    ______ ____

>  <TORSDO>
F 25

$$$$
=
 OpenBabel11062414423D

 68 74  0  0  1  0  0  0  0  0999 V2000
  188.8840  174.1780  135.7550 C   0  0  0  0  0  0  0  0  0  0  0  0
  191.2200  177.0230  135.2780 O   0  0  0  0  0  0  0  0  0  0  0  0
  191.2420  174.4200  136.5270 C   0  0  2  0  0  3  0  0  0  0  0  0
  186.5400  174.0350  134.8490 C   0  0  0  0  0  3  0  0  0  0  0  0
  188.5720  171.7640  135.3040 C   0  0  0  0  0  3  0  0  0  0  0  0
  190.0340  176.2860  135.2500 C   0  0  0  0  0  0  0  0  0  0  0  0
  192.5350  174.9770  135.9110 C   0  0  2  0  0  3  0  0  0  0  0  0
  188.8980  172.7910  136.3420 C   0  0  0  0  0  2  0  0  0  0  0  0
  188.9830  176.8140  134.7030 N   0  0  0  0  0  0  0  0  0  0  0  0
  187.6690  176.1780  134.6150 C   0  0  1  0  0  3  0  0  0  0  0  0
  190.0020  174.9240  135.8250 C   0  0  0  0  0  0  0  0  0  0  0  0
  187.3400  171.6860  134.7920 C   0  0  0  0  0  3  0  0  0  0  0  0
  193.4490  177.1780  135.8270 O   0  0  0  0  0  0  0  0  0  0  0  0
  186.2610  172.6180  135.2530 C   0  0  0  0  0  2  0  0  0  0  0  0
  192.4300  176.4530  135.6850 C   0  0  0  0  0  0  0  0  0  0  0  0
  187.6610  174.7410  135.0920 C   0  0  0  0  0  0  0  0  0  0  0  0
  191.1720  174.7350  138.0190 C   0  0  0  0  0  2  0  0  0  0  0  0
  190.2790  175.9430  138.2800 C   0  0  0  0  0  2  0  0  0  0  0  0
  190.5790  176.5450  139.6440 C   0  0  0  0  0  2  0  0  0  0  0  0
  189.4810  177.5030  140.0660 C   0  0  0  0  0  2  0  0  0  0  0  0
  188.9130  177.0820  141.4120 C   0  0  0  0  0  2  0  0  0  0  0  0
  187.4520  178.8650  140.7880 O   0  0  0  0  0  1  0  0  0  0  0  0
  187.5860  177.7780  141.6540 C   0  0  2  0  0  3  0  0  0  0  0  0
  187.5290  178.2650  143.0910 C   0  0  0  0  0  2  0  0  0  0  0  0
  187.1100  178.0120  146.0970 C   0  0  2  0  0  3  0  0  0  0  0  0
  184.9800  179.1320  145.4540 C   0  0  0  0  0  3  0  0  0  0  0  0
  185.5970  177.9090  146.1150 C   0  0  1  0  0  3  0  0  0  0  0  0
  186.3890  177.1620  145.0630 C   0  0  1  0  0  3  0  0  0  0  0  0
  186.1970  177.8960  143.7350 C   0  0  1  0  0  3  0  0  0  0  0  0
  185.3760  179.1440  143.9900 C   0  0  0  0  0  3  0  0  0  0  0  0
  187.7070  177.1030  147.1540 C   0  0  0  0  0  2  0  0  0  0  0  0
  189.7250  177.8770  145.9240 C   0  0  0  0  0  1  0  0  0  0  0  0
  189.5250  178.2640  148.3570 C   0  0  0  0  0  1  0  0  0  0  0  0
  189.2110  177.3010  147.2300 C   0  0  0  0  0  3  0  0  0  0  0  0
  192.8680  174.2820  134.5940 C   0  0  0  0  0  2  0  0  0  0  0  0
  192.8930  172.7600  134.7330 C   0  0  0  0  0  2  0  0  0  0  0  0
  193.5480  170.5000  136.3730 O   0  0  0  0  0  0  0  0  0  0  0  0
  194.2390  172.2860  135.0360 N   0  0  0  0  0  2  0  0  0  0  0  0
  194.4970  171.1160  135.8130 C   0  0  0  0  0  0  0  0  0  0  0  0
  195.8070  170.6430  135.9180 O   0  0  0  0  0  0  0  0  0  0  0  0
  196.8890  171.2320  135.2080 C   0  0  0  0  0  2  0  0  0  0  0  0
  198.3120  174.6720  137.3370 C   0  0  0  0  0  3  0  0  0  0  0  0
  197.0920  172.5800  137.3100 C   0  0  0  0  0  3  0  0  0  0  0  0
  198.6420  174.5000  135.9880 C   0  0  0  0  0  3  0  0  0  0  0  0
  197.4110  172.4100  135.9590 C   0  0  0  0  0  0  0  0  0  0  0  0
  197.5400  173.7110  137.9980 C   0  0  0  0  0  3  0  0  0  0  0  0
  198.1890  173.3710  135.3010 C   0  0  0  0  0  3  0  0  0  0  0  0
  186.6630  177.0250  135.3800 C   0  0  0  0  0  2  0  0  0  0  0  0
  185.2650  176.7810  134.8260 C   0  0  0  0  0  2  0  0  0  0  0  0
  184.1790  177.0270  135.8750 C   0  0  1  0  0  3  0  0  0  0  0  0
  182.2520  175.7850  136.9270 N   0  0  0  0  0  2  0  0  0  0  0  0
  184.2000  174.6660  136.2850 O   0  0  0  0  0  0  0  0  0  0  0  0
  183.5690  175.7550  136.3700 C   0  0  0  0  0  0  0  0  0  0  0  0
  180.5070  175.0100  138.4330 C   0  0  0  0  0  1  0  0  0  0  0  0
  181.6060  174.6010  137.4730 C   0  0  0  0  0  3  0  0  0  0  0  0
  181.0030  173.7920  136.3460 C   0  0  0  0  0  1  0  0  0  0  0  0
  184.6930  177.8240  136.9810 N   0  0  0  0  0  2  0  0  0  0  0  0
  184.3350  177.1360  138.2120 C   0  0  0  0  0  2  0  0  0  0  0  0
  183.1850  177.8420  140.3180 C   0  0  0  0  0  3  0  0  0  0  0  0
  182.1940  178.4170  142.7520 Cl  0  0  0  0  0  0  0  0  0  0  0  0
  181.4330  179.4590  138.8770 C   0  0  0  0  0  3  0  0  0  0  0  0
  182.2100  178.5760  141.0020 C   0  0  0  0  0  0  0  0  0  0  0  0
  183.2820  177.9070  138.9270 C   0  0  0  0  0  0  0  0  0  0  0  0
  182.4090  178.7220  138.2070 C   0  0  0  0  0  3  0  0  0  0  0  0
  181.3130  179.4020  140.2750 C   0  0  0  0  0  0  0  0  0  0  0  0
  179.4920  179.6910  141.7750 O   0  0  0  0  0  1  0  0  0  0  0  0
  180.0590  181.5490  140.5830 O   0  0  0  0  0  0  0  0  0  0  0  0
  180.2470  180.2130  140.9100 C   0  0  0  0  0  0  0  0  0  0  0  0
  1 11  2  0  0  0  0
  1  8  1  0  0  0  0
  2 15  1  0  0  0  0
  3 17  1  1  0  0  0
  4 16  2  0  0  0  0
  4 14  1  0  0  0  0
  5  8  1  0  0  0  0
  6  2  1  0  0  0  0
  6 11  1  0  0  0  0
  7 35  1  6  0  0  0
  7  3  1  0  0  0  0
  9  6  2  0  0  0  0
 10  9  1  0  0  0  0
 10 16  1  0  0  0  0
 10 48  1  1  0  0  0
 11  3  1  0  0  0  0
 12 14  1  0  0  0  0
 12  5  2  0  0  0  0
 15 13  2  0  0  0  0
 15  7  1  0  0  0  0
 16  1  1  0  0  0  0
 17 18  1  0  0  0  0
 18 19  1  0  0  0  0
 19 20  1  0  0  0  0
 20 21  1  0  0  0  0
 21 23  1  0  0  0  0
 23 22  1  6  0  0  0
 23 24  1  0  0  0  0
 24 29  1  0  0  0  0
 25 27  1  0  0  0  0
 25 31  1  1  0  0  0
 27 26  1  6  0  0  0
 28 25  1  0  0  0  0
 28 27  1  0  0  0  0
 29 30  1  0  0  0  0
 29 28  1  0  0  0  0
 30 26  2  0  0  0  0
 31 34  1  0  0  0  0
 32 34  1  0  0  0  0
 34 33  1  0  0  0  0
 35 36  1  0  0  0  0
 36 38  1  0  0  0  0
 38 39  1  0  0  0  0
 39 40  1  0  0  0  0
 39 37  2  0  0  0  0
 41 40  1  0  0  0  0
 41 45  1  0  0  0  0
 42 46  1  0  0  0  0
 43 46  2  0  0  0  0
 44 42  2  0  0  0  0
 45 43  1  0  0  0  0
 47 45  2  0  0  0  0
 47 44  1  0  0  0  0
 49 48  1  0  0  0  0
 49 50  1  0  0  0  0
 50 53  1  0  0  0  0
 50 57  1  0  0  0  0
 51 55  1  0  0  0  0
 52 53  2  0  0  0  0
 53 51  1  0  0  0  0
 55 54  1  0  0  0  0
 56 55  1  0  0  0  0
 57 58  1  0  0  0  0
 58 63  1  0  0  0  0
 59 62  1  0  0  0  0
 61 65  1  0  0  0  0
 62 60  1  0  0  0  0
 63 59  2  0  0  0  0
 64 61  2  0  0  0  0
 64 63  1  0  0  0  0
 65 68  1  0  0  0  0
 65 62  2  0  0  0  0
 67 68  2  0  0  0  0
 68 66  1  0  0  0  0
M  END
>  <MODEL>
8

>  <REMARK>
 VINA RESULT:      -5.0      2.276      4.003
  Name = 
  25 active torsions:
  status: ('A' for Active; 'I' for Inactive)
    1  A    between atoms: C_3  and  C_5
    2  A    between atoms: C_3  and  C_49
    3  A    between atoms: N_4  and  C_31
    4  A    between atoms: C_5  and  C_47
    5  A    between atoms: C_6  and  C_47
    6  A    between atoms: C_8  and  C_38
    7  A    between atoms: C_11  and  N_34
    8  A    between atoms: C_11  and  C_52
    9  A    between atoms: C_11  and  C_58
   10  A    between atoms: C_21  and  C_33
   11  A    between atoms: C_21  and  C_49
   12  A    between atoms: C_22  and  C_39
   13  A    between atoms: C_22  and  C_58
   14  A    between atoms: C_24  and  C_41
   15  A    between atoms: C_25  and  C_64
   16  A    between atoms: N_26  and  C_37
   17  A    between atoms: C_33  and  C_64
   18  A    between atoms: N_34  and  C_42
   19  A    between atoms: C_36  and  C_55
   20  A    between atoms: C_36  and  O_57
   21  A    between atoms: C_37  and  C_41
   22  A    between atoms: C_38  and  C_60
   23  A    between atoms: C_42  and  C_51
   24  A    between atoms: C_54  and  C_62
   25  A    between atoms: O_57  and  C_67
                            x       y       z     vdW  Elec       q    Type
                         _______ _______ _______ _____ _____    ______ ____

>  <TORSDO>
F 25

$$$$
=
 OpenBabel11062414423D

 68 74  0  0  1  0  0  0  0  0999 V2000
  189.1710  178.1130  138.7460 C   0  0  0  0  0  0  0  0  0  0  0  0
  189.2640  175.9790  141.7820 O   0  0  0  0  0  0  0  0  0  0  0  0
  188.5170  178.6790  141.0830 C   0  0  2  0  0  3  0  0  0  0  0  0
  189.7920  177.3830  136.4180 C   0  0  0  0  0  3  0  0  0  0  0  0
  187.6680  179.4370  137.2910 C   0  0  0  0  0  3  0  0  0  0  0  0
  189.4590  176.3780  140.4580 C   0  0  0  0  0  0  0  0  0  0  0  0
  187.7650  177.9500  142.2090 C   0  0  2  0  0  3  0  0  0  0  0  0
  188.7230  179.4960  138.3500 C   0  0  0  0  0  2  0  0  0  0  0  0
  189.9930  175.5400  139.6240 N   0  0  0  0  0  0  0  0  0  0  0  0
  190.2790  175.8170  138.2170 C   0  0  1  0  0  3  0  0  0  0  0  0
  189.0430  177.7320  140.0300 C   0  0  0  0  0  0  0  0  0  0  0  0
  187.9710  179.0300  136.0550 C   0  0  0  0  0  3  0  0  0  0  0  0
  188.4920  176.4350  143.9000 O   0  0  0  0  0  0  0  0  0  0  0  0
  189.3730  178.6320  135.7040 C   0  0  0  0  0  2  0  0  0  0  0  0
  188.5340  176.7580  142.6840 C   0  0  0  0  0  0  0  0  0  0  0  0
  189.7470  177.1540  137.7450 C   0  0  0  0  0  0  0  0  0  0  0  0
  189.6530  179.5260  141.6510 C   0  0  0  0  0  2  0  0  0  0  0  0
  189.9610  179.1310  143.0910 C   0  0  0  0  0  2  0  0  0  0  0  0
  191.3460  178.5100  143.1910 C   0  0  0  0  0  2  0  0  0  0  0  0
  191.7440  178.3070  144.6410 C   0  0  0  0  0  2  0  0  0  0  0  0
  191.5460  176.8520  145.0360 C   0  0  0  0  0  2  0  0  0  0  0  0
  191.9860  175.6120  147.0290 O   0  0  0  0  0  1  0  0  0  0  0  0
  191.3390  176.7470  146.5360 C   0  0  2  0  0  3  0  0  0  0  0  0
  189.8540  176.6540  146.8330 C   0  0  0  0  0  2  0  0  0  0  0  0
  186.9400  177.5070  146.5860 C   0  0  2  0  0  3  0  0  0  0  0  0
  187.4540  178.3710  148.8650 C   0  0  0  0  0  3  0  0  0  0  0  0
  186.9820  178.7400  147.4680 C   0  0  1  0  0  3  0  0  0  0  0  0
  188.1180  178.4660  146.5050 C   0  0  1  0  0  3  0  0  0  0  0  0
  189.3150  177.9900  147.3300 C   0  0  1  0  0  3  0  0  0  0  0  0
  188.8860  177.8770  148.7780 C   0  0  0  0  0  3  0  0  0  0  0  0
  186.0270  177.7450  145.4000 C   0  0  0  0  0  2  0  0  0  0  0  0
  185.3180  179.9060  144.3930 C   0  0  0  0  0  1  0  0  0  0  0  0
  183.7570  178.6230  145.8170 C   0  0  0  0  0  1  0  0  0  0  0  0
  185.2080  179.0060  145.6110 C   0  0  0  0  0  3  0  0  0  0  0  0
  186.3750  177.5120  141.7550 C   0  0  0  0  0  2  0  0  0  0  0  0
  185.6100  178.6400  141.0630 C   0  0  0  0  0  2  0  0  0  0  0  0
  183.0100  178.6780  142.2720 O   0  0  0  0  0  0  0  0  0  0  0  0
  184.3800  178.1420  140.4580 N   0  0  0  0  0  2  0  0  0  0  0  0
  183.1030  178.2440  141.0910 C   0  0  0  0  0  0  0  0  0  0  0  0
  181.9590  177.8890  140.3750 O   0  0  0  0  0  0  0  0  0  0  0  0
  182.0080  177.4700  139.0170 C   0  0  0  0  0  2  0  0  0  0  0  0
  180.8050  180.6840  136.4450 C   0  0  0  0  0  3  0  0  0  0  0  0
  181.4690  178.3730  136.7430 C   0  0  0  0  0  3  0  0  0  0  0  0
  180.8830  180.8870  137.8270 C   0  0  0  0  0  3  0  0  0  0  0  0
  181.5570  178.5770  138.1240 C   0  0  0  0  0  0  0  0  0  0  0  0
  181.0950  179.4270  135.9040 C   0  0  0  0  0  3  0  0  0  0  0  0
  181.2610  179.8340  138.6640 C   0  0  0  0  0  3  0  0  0  0  0  0
  191.7790  175.7030  137.9900 C   0  0  0  0  0  2  0  0  0  0  0  0
  192.0710  175.7230  136.4950 C   0  0  0  0  0  2  0  0  0  0  0  0
  192.3640  174.3250  135.9470 C   0  0  1  0  0  3  0  0  0  0  0  0
  194.8430  174.7840  135.8640 N   0  0  0  0  0  2  0  0  0  0  0  0
  194.0180  172.7770  136.7280 O   0  0  0  0  0  0  0  0  0  0  0  0
  193.7740  173.8980  136.2030 C   0  0  0  0  0  0  0  0  0  0  0  0
  197.1280  175.5790  135.6080 C   0  0  0  0  0  1  0  0  0  0  0  0
  196.2430  174.4260  136.0380 C   0  0  0  0  0  3  0  0  0  0  0  0
  196.5040  174.1170  137.4950 C   0  0  0  0  0  1  0  0  0  0  0  0
  191.4200  173.3490  136.4750 N   0  0  0  0  0  2  0  0  0  0  0  0
  190.6230  172.8700  135.3570 C   0  0  0  0  0  2  0  0  0  0  0  0
  188.5530  173.9690  136.2310 C   0  0  0  0  0  3  0  0  0  0  0  0
  186.5130  175.4480  137.1730 Cl  0  0  0  0  0  0  0  0  0  0  0  0
  187.1170  171.5970  135.9530 C   0  0  0  0  0  3  0  0  0  0  0  0
  187.2000  173.9410  136.5860 C   0  0  0  0  0  0  0  0  0  0  0  0
  189.1870  172.8240  135.7480 C   0  0  0  0  0  0  0  0  0  0  0  0
  188.4670  171.6380  135.6020 C   0  0  0  0  0  3  0  0  0  0  0  0
  186.4620  172.7370  136.4480 C   0  0  0  0  0  0  0  0  0  0  0  0
  184.6460  172.8530  137.9760 O   0  0  0  0  0  1  0  0  0  0  0  0
  184.0790  172.2310  135.8580 O   0  0  0  0  0  0  0  0  0  0  0  0
  185.0270  172.6090  136.8000 C   0  0  0  0  0  0  0  0  0  0  0  0
  1 11  2  0  0  0  0
  2 15  1  0  0  0  0
  3 17  1  1  0  0  0
  3  7  1  0  0  0  0
  4 16  2  0  0  0  0
  5  8  1  0  0  0  0
  6  2  1  0  0  0  0
  7 35  1  6  0  0  0
  7 15  1  0  0  0  0
  8  1  1  0  0  0  0
  9  6  2  0  0  0  0
 10 48  1  1  0  0  0
 10  9  1  0  0  0  0
 11  6  1  0  0  0  0
 11  3  1  0  0  0  0
 12  5  2  0  0  0  0
 14 12  1  0  0  0  0
 14  4  1  0  0  0  0
 15 13  2  0  0  0  0
 16 10  1  0  0  0  0
 16  1  1  0  0  0  0
 17 18  1  0  0  0  0
 18 19  1  0  0  0  0
 19 20  1  0  0  0  0
 20 21  1  0  0  0  0
 21 23  1  0  0  0  0
 23 24  1  0  0  0  0
 23 22  1  6  0  0  0
 24 29  1  0  0  0  0
 25 31  1  6  0  0  0
 25 27  1  0  0  0  0
 27 26  1  1  0  0  0
 28 25  1  0  0  0  0
 28 29  1  0  0  0  0
 28 27  1  0  0  0  0
 29 30  1  0  0  0  0
 30 26  2  0  0  0  0
 31 34  1  0  0  0  0
 32 34  1  0  0  0  0
 34 33  1  0  0  0  0
 36 35  1  0  0  0  0
 38 36  1  0  0  0  0
 38 39  1  0  0  0  0
 39 37  2  0  0  0  0
 40 39  1  0  0  0  0
 41 40  1  0  0  0  0
 42 44  1  0  0  0  0
 43 45  2  0  0  0  0
 44 47  2  0  0  0  0
 45 47  1  0  0  0  0
 45 41  1  0  0  0  0
 46 42  2  0  0  0  0
 46 43  1  0  0  0  0
 49 48  1  0  0  0  0
 50 53  1  0  0  0  0
 50 57  1  0  0  0  0
 50 49  1  0  0  0  0
 51 55  1  0  0  0  0
 51 53  1  0  0  0  0
 53 52  2  0  0  0  0
 54 55  1  0  0  0  0
 55 56  1  0  0  0  0
 58 63  1  0  0  0  0
 58 57  1  0  0  0  0
 59 62  1  0  0  0  0
 61 65  1  0  0  0  0
 62 60  1  0  0  0  0
 63 59  2  0  0  0  0
 64 63  1  0  0  0  0
 64 61  2  0  0  0  0
 65 62  2  0  0  0  0
 65 68  1  0  0  0  0
 67 68  2  0  0  0  0
 68 66  1  0  0  0  0
M  END
>  <MODEL>
9

>  <REMARK>
 VINA RESULT:      -4.7      2.476      9.949
  Name = 
  25 active torsions:
  status: ('A' for Active; 'I' for Inactive)
    1  A    between atoms: C_3  and  C_5
    2  A    between atoms: C_3  and  C_49
    3  A    between atoms: N_4  and  C_31
    4  A    between atoms: C_5  and  C_47
    5  A    between atoms: C_6  and  C_47
    6  A    between atoms: C_8  and  C_38
    7  A    between atoms: C_11  and  N_34
    8  A    between atoms: C_11  and  C_52
    9  A    between atoms: C_11  and  C_58
   10  A    between atoms: C_21  and  C_33
   11  A    between atoms: C_21  and  C_49
   12  A    between atoms: C_22  and  C_39
   13  A    between atoms: C_22  and  C_58
   14  A    between atoms: C_24  and  C_41
   15  A    between atoms: C_25  and  C_64
   16  A    between atoms: N_26  and  C_37
   17  A    between atoms: C_33  and  C_64
   18  A    between atoms: N_34  and  C_42
   19  A    between atoms: C_36  and  C_55
   20  A    between atoms: C_36  and  O_57
   21  A    between atoms: C_37  and  C_41
   22  A    between atoms: C_38  and  C_60
   23  A    between atoms: C_42  and  C_51
   24  A    between atoms: C_54  and  C_62
   25  A    between atoms: O_57  and  C_67
                            x       y       z     vdW  Elec       q    Type
                         _______ _______ _______ _____ _____    ______ ____

>  <TORSDO>
F 25

$$$$
