=
 OpenBabel11062416513D

 34 39  0  0  1  0  0  0  0  0999 V2000
  185.1820  178.6300  145.9820 C   0  0  0  0  0  3  0  0  0  0  0  0
  186.1190  178.1850  145.1380 C   0  0  0  0  0  3  0  0  0  0  0  0
  183.5260  178.9900  144.2100 C   0  0  0  0  0  3  0  0  0  0  0  0
  188.8320  177.6540  138.5470 C   0  0  0  0  0  0  0  0  0  0  0  0
  186.9720  177.9750  142.8040 N   0  0  0  0  0  0  0  0  0  0  0  0
  187.4830  178.1810  140.2980 C   0  0  0  0  0  0  0  0  0  0  0  0
  185.4900  179.0030  139.6680 N   0  0  0  0  0  0  0  0  0  0  0  0
  186.7290  178.3610  141.4420 C   0  0  0  0  0  0  0  0  0  0  0  0
  187.4400  178.3040  137.7900 S   0  0  0  0  0  0  0  0  0  0  0  0
  184.4120  179.0710  141.9520 C   0  0  0  0  0  3  0  0  0  0  0  0
  184.5720  178.6840  143.2250 C   0  0  0  0  0  0  0  0  0  0  0  0
  188.7040  177.6190  139.9450 C   0  0  0  0  0  3  0  0  0  0  0  0
  185.7910  177.8780  143.6960 C   0  0  2  0  0  3  0  0  0  0  0  0
  186.7110  178.5900  139.2690 C   0  0  0  0  0  0  0  0  0  0  0  0
  185.5090  178.8470  141.0140 C   0  0  0  0  0  0  0  0  0  0  0  0
  183.8150  178.9480  145.5150 C   0  0  0  0  0  3  0  0  0  0  0  0
  190.7370  176.3930  143.9540 C   0  0  0  0  0  0  0  0  0  0  0  0
  190.5150  177.7720  144.0020 C   0  0  0  0  0  3  0  0  0  0  0  0
  189.2740  178.2950  143.6260 C   0  0  0  0  0  3  0  0  0  0  0  0
  188.2460  177.4400  143.2030 C   0  0  0  0  0  0  0  0  0  0  0  0
  192.0560  175.8390  144.3560 C   0  0  0  0  0  1  0  0  0  0  0  0
  189.7200  175.5360  143.5250 C   0  0  0  0  0  3  0  0  0  0  0  0
  188.4790  176.0570  143.1480 C   0  0  0  0  0  3  0  0  0  0  0  0
  184.3900  179.4070  138.8940 N   0  0  0  0  0  2  0  0  0  0  0  0
  183.4820  178.4970  138.3330 C   0  0  0  0  0  0  0  0  0  0  0  0
  182.7340  177.7460  137.8680 N   0  0  0  0  0  0  0  0  0  0  0  0
  189.9880  177.0860  137.8040 C   0  0  0  0  0  2  0  0  0  0  0  0
  193.0230  176.1470  137.9070 C   0  0  0  0  0  2  0  0  0  0  0  0
  190.7180  176.1510  138.6640 N   0  0  0  0  0  0  0  0  0  0  0  0
  191.0160  174.8930  137.9690 C   0  0  2  0  0  3  0  0  0  0  0  0
  192.2550  175.1040  137.1350 C   0  0  0  0  0  2  0  0  0  0  0  0
  192.0280  176.7530  138.8920 C   0  0  0  0  0  2  0  0  0  0  0  0
  189.0140  173.9080  136.5730 N   0  0  0  0  0  0  0  0  0  0  0  0
  189.8930  174.3410  137.1870 C   0  0  0  0  0  0  0  0  0  0  0  0
  2  1  2  0  0  0  0
  3 16  2  0  0  0  0
  4 12  2  0  0  0  0
  5 20  1  0  0  0  0
  5 13  1  0  0  0  0
  6  8  1  0  0  0  0
  7 15  1  0  0  0  0
  8  5  1  0  0  0  0
  9  4  1  0  0  0  0
  9 14  1  0  0  0  0
 10 11  2  0  0  0  0
 11 13  1  0  0  0  0
 11  3  1  0  0  0  0
 12  6  1  0  0  0  0
 13  2  1  1  0  0  0
 14  7  1  0  0  0  0
 14  6  2  0  0  0  0
 15  8  2  0  0  0  0
 15 10  1  0  0  0  0
 16  1  1  0  0  0  0
 17 18  1  0  0  0  0
 17 21  1  0  0  0  0
 19 18  2  0  0  0  0
 20 19  1  0  0  0  0
 22 17  2  0  0  0  0
 23 20  2  0  0  0  0
 23 22  1  0  0  0  0
 24  7  1  0  0  0  0
 25 24  1  0  0  0  0
 26 25  3  0  0  0  0
 27  4  1  0  0  0  0
 27 29  1  0  0  0  0
 28 32  1  0  0  0  0
 29 32  1  0  0  0  0
 30 34  1  6  0  0  0
 30 29  1  0  0  0  0
 31 28  1  0  0  0  0
 31 30  1  0  0  0  0
 33 34  3  0  0  0  0
M  END
>  <MODEL>
1

>  <REMARK>
 VINA RESULT:      -8.2      0.000      0.000
  Name = 
  6 active torsions:
  status: ('A' for Active; 'I' for Inactive)
    1  A    between atoms: C_6  and  C_24
    2  A    between atoms: N_9  and  C_24
    3  A    between atoms: N_10  and  C_19
    4  A    between atoms: N_13  and  N_21
    5  A    between atoms: C_20  and  C_23
    6  A    between atoms: N_21  and  C_28
                            x       y       z     vdW  Elec       q    Type
                         _______ _______ _______ _____ _____    ______ ____

>  <TORSDO>
F 6

$$$$
=
 OpenBabel11062416513D

 34 39  0  0  1  0  0  0  0  0999 V2000
  185.0300  178.7400  145.8350 C   0  0  0  0  0  3  0  0  0  0  0  0
  186.0770  178.2720  145.1450 C   0  0  0  0  0  3  0  0  0  0  0  0
  183.6030  178.9330  143.8510 C   0  0  0  0  0  3  0  0  0  0  0  0
  189.6110  177.4130  138.9930 C   0  0  0  0  0  0  0  0  0  0  0  0
  187.2220  177.9420  142.9550 N   0  0  0  0  0  0  0  0  0  0  0  0
  188.0400  178.0060  140.5230 C   0  0  0  0  0  0  0  0  0  0  0  0
  186.1240  178.7220  139.5980 N   0  0  0  0  0  0  0  0  0  0  0  0
  187.1440  178.2330  141.5500 C   0  0  0  0  0  0  0  0  0  0  0  0
  188.3120  177.9680  138.0270 S   0  0  0  0  0  0  0  0  0  0  0  0
  184.7640  178.9000  141.7200 C   0  0  0  0  0  3  0  0  0  0  0  0
  184.7710  178.6000  143.0260 C   0  0  0  0  0  0  0  0  0  0  0  0
  189.3090  177.4610  140.3630 C   0  0  0  0  0  3  0  0  0  0  0  0
  185.9400  177.8640  143.6970 C   0  0  2  0  0  3  0  0  0  0  0  0
  187.3950  178.3240  139.3820 C   0  0  0  0  0  0  0  0  0  0  0  0
  185.9760  178.6520  140.9420 C   0  0  0  0  0  0  0  0  0  0  0  0
  183.7260  178.9830  145.1810 C   0  0  0  0  0  3  0  0  0  0  0  0
  190.8250  176.5580  144.7160 C   0  0  0  0  0  0  0  0  0  0  0  0
  190.0930  175.7190  143.8730 C   0  0  0  0  0  3  0  0  0  0  0  0
  188.9070  176.1740  143.2900 C   0  0  0  0  0  3  0  0  0  0  0  0
  188.4470  177.4740  143.5440 C   0  0  0  0  0  0  0  0  0  0  0  0
  192.0870  176.0750  145.3340 C   0  0  0  0  0  1  0  0  0  0  0  0
  190.3690  177.8530  144.9810 C   0  0  0  0  0  3  0  0  0  0  0  0
  189.1830  178.3090  144.3990 C   0  0  0  0  0  3  0  0  0  0  0  0
  185.1210  179.0410  138.6670 N   0  0  0  0  0  2  0  0  0  0  0  0
  184.3690  178.0650  137.9980 C   0  0  0  0  0  0  0  0  0  0  0  0
  183.7480  177.2600  137.4440 N   0  0  0  0  0  0  0  0  0  0  0  0
  190.8660  176.8360  138.4400 C   0  0  0  0  0  2  0  0  0  0  0  0
  190.3130  173.9330  137.2700 C   0  0  0  0  0  2  0  0  0  0  0  0
  190.6240  176.3320  137.0860 N   0  0  0  0  0  0  0  0  0  0  0  0
  191.7980  175.6300  136.5500 C   0  0  2  0  0  3  0  0  0  0  0  0
  191.7820  174.2200  137.0850 C   0  0  0  0  0  2  0  0  0  0  0  0
  189.6140  175.2870  137.2200 C   0  0  0  0  0  2  0  0  0  0  0  0
  194.0930  176.8480  136.9710 N   0  0  0  0  0  0  0  0  0  0  0  0
  193.0830  176.3130  136.7870 C   0  0  0  0  0  0  0  0  0  0  0  0
  2  1  2  0  0  0  0
  3 16  2  0  0  0  0
  4 12  2  0  0  0  0
  5 20  1  0  0  0  0
  5 13  1  0  0  0  0
  6  8  1  0  0  0  0
  7 15  1  0  0  0  0
  8  5  1  0  0  0  0
  9  4  1  0  0  0  0
  9 14  1  0  0  0  0
 10 11  2  0  0  0  0
 11 13  1  0  0  0  0
 11  3  1  0  0  0  0
 12  6  1  0  0  0  0
 13  2  1  1  0  0  0
 14  7  1  0  0  0  0
 14  6  2  0  0  0  0
 15  8  2  0  0  0  0
 15 10  1  0  0  0  0
 16  1  1  0  0  0  0
 17 22  1  0  0  0  0
 17 21  1  0  0  0  0
 18 17  2  0  0  0  0
 19 20  2  0  0  0  0
 19 18  1  0  0  0  0
 20 23  1  0  0  0  0
 23 22  2  0  0  0  0
 24  7  1  0  0  0  0
 25 24  1  0  0  0  0
 26 25  3  0  0  0  0
 27  4  1  0  0  0  0
 29 32  1  0  0  0  0
 29 27  1  0  0  0  0
 30 34  1  1  0  0  0
 30 31  1  0  0  0  0
 30 29  1  0  0  0  0
 31 28  1  0  0  0  0
 32 28  1  0  0  0  0
 34 33  3  0  0  0  0
M  END
>  <MODEL>
2

>  <REMARK>
 VINA RESULT:      -8.0      1.016      1.834
  Name = 
  6 active torsions:
  status: ('A' for Active; 'I' for Inactive)
    1  A    between atoms: C_6  and  C_24
    2  A    between atoms: N_9  and  C_24
    3  A    between atoms: N_10  and  C_19
    4  A    between atoms: N_13  and  N_21
    5  A    between atoms: C_20  and  C_23
    6  A    between atoms: N_21  and  C_28
                            x       y       z     vdW  Elec       q    Type
                         _______ _______ _______ _____ _____    ______ ____

>  <TORSDO>
F 6

$$$$
=
 OpenBabel11062416513D

 34 39  0  0  1  0  0  0  0  0999 V2000
  189.4890  177.5500  147.6130 C   0  0  0  0  0  3  0  0  0  0  0  0
  189.3910  177.5170  146.2780 C   0  0  0  0  0  3  0  0  0  0  0  0
  187.0620  177.5880  147.9510 C   0  0  0  0  0  3  0  0  0  0  0  0
  185.6880  178.6200  140.2660 C   0  0  0  0  0  0  0  0  0  0  0  0
  188.0200  177.8530  144.2240 N   0  0  0  0  0  0  0  0  0  0  0  0
  186.2720  178.4980  142.4590 C   0  0  0  0  0  0  0  0  0  0  0  0
  184.5310  178.7350  143.8560 N   0  0  0  0  0  0  0  0  0  0  0  0
  186.7430  178.3020  143.7430 C   0  0  0  0  0  0  0  0  0  0  0  0
  184.2090  178.8950  141.0830 S   0  0  0  0  0  0  0  0  0  0  0  0
  185.7440  178.2010  146.0070 C   0  0  0  0  0  3  0  0  0  0  0  0
  186.9000  177.7360  146.4990 C   0  0  0  0  0  0  0  0  0  0  0  0
  186.7470  178.3840  141.1570 C   0  0  0  0  0  3  0  0  0  0  0  0
  188.0620  177.2940  145.5970 C   0  0  2  0  0  3  0  0  0  0  0  0
  184.9550  178.7680  142.5760 C   0  0  0  0  0  0  0  0  0  0  0  0
  185.6430  178.4360  144.5690 C   0  0  0  0  0  0  0  0  0  0  0  0
  188.2880  177.4840  148.4730 C   0  0  0  0  0  3  0  0  0  0  0  0
  191.3140  177.3730  141.5930 C   0  0  0  0  0  0  0  0  0  0  0  0
  190.2970  176.4150  141.6210 C   0  0  0  0  0  3  0  0  0  0  0  0
  189.2100  176.5720  142.4860 C   0  0  0  0  0  3  0  0  0  0  0  0
  189.1310  177.6930  143.3250 C   0  0  0  0  0  0  0  0  0  0  0  0
  192.4680  177.2050  140.6730 C   0  0  0  0  0  1  0  0  0  0  0  0
  191.2470  178.4880  142.4330 C   0  0  0  0  0  3  0  0  0  0  0  0
  190.1600  178.6460  143.2990 C   0  0  0  0  0  3  0  0  0  0  0  0
  183.2290  178.8690  144.3660 N   0  0  0  0  0  2  0  0  0  0  0  0
  182.0970  178.9490  143.5430 C   0  0  0  0  0  0  0  0  0  0  0  0
  181.1620  179.0130  142.8620 N   0  0  0  0  0  0  0  0  0  0  0  0
  185.8120  178.5260  138.7870 C   0  0  0  0  0  2  0  0  0  0  0  0
  187.9960  178.3860  136.4830 C   0  0  0  0  0  2  0  0  0  0  0  0
  186.8360  177.5390  138.4370 N   0  0  0  0  0  0  0  0  0  0  0  0
  186.4570  176.7600  137.2510 C   0  0  2  0  0  3  0  0  0  0  0  0
  186.8110  177.5700  136.0290 C   0  0  0  0  0  2  0  0  0  0  0  0
  188.0010  178.3040  138.0050 C   0  0  0  0  0  2  0  0  0  0  0  0
  183.9570  175.9360  137.2300 N   0  0  0  0  0  0  0  0  0  0  0  0
  185.0550  176.2990  137.2400 C   0  0  0  0  0  0  0  0  0  0  0  0
  1 16  1  0  0  0  0
  2  1  2  0  0  0  0
  3 16  2  0  0  0  0
  4  9  1  0  0  0  0
  4 12  2  0  0  0  0
  5 13  1  0  0  0  0
  6 14  2  0  0  0  0
  6  8  1  0  0  0  0
  7 24  1  0  0  0  0
  7 15  1  0  0  0  0
  8  5  1  0  0  0  0
  8 15  2  0  0  0  0
  9 14  1  0  0  0  0
 10 11  2  0  0  0  0
 11  3  1  0  0  0  0
 12  6  1  0  0  0  0
 13  2  1  1  0  0  0
 13 11  1  0  0  0  0
 14  7  1  0  0  0  0
 15 10  1  0  0  0  0
 17 18  2  0  0  0  0
 17 22  1  0  0  0  0
 18 19  1  0  0  0  0
 19 20  2  0  0  0  0
 20  5  1  0  0  0  0
 21 17  1  0  0  0  0
 22 23  2  0  0  0  0
 23 20  1  0  0  0  0
 25 24  1  0  0  0  0
 26 25  3  0  0  0  0
 27  4  1  0  0  0  0
 28 32  1  0  0  0  0
 29 27  1  0  0  0  0
 30 34  1  1  0  0  0
 30 29  1  0  0  0  0
 31 28  1  0  0  0  0
 31 30  1  0  0  0  0
 32 29  1  0  0  0  0
 33 34  3  0  0  0  0
M  END
>  <MODEL>
3

>  <REMARK>
 VINA RESULT:      -7.7      2.439      4.186
  Name = 
  6 active torsions:
  status: ('A' for Active; 'I' for Inactive)
    1  A    between atoms: C_6  and  C_24
    2  A    between atoms: N_9  and  C_24
    3  A    between atoms: N_10  and  C_19
    4  A    between atoms: N_13  and  N_21
    5  A    between atoms: C_20  and  C_23
    6  A    between atoms: N_21  and  C_28
                            x       y       z     vdW  Elec       q    Type
                         _______ _______ _______ _____ _____    ______ ____

>  <TORSDO>
F 6

$$$$
=
 OpenBabel11062416513D

 34 39  0  0  1  0  0  0  0  0999 V2000
  189.0980  177.8790  146.6900 C   0  0  0  0  0  3  0  0  0  0  0  0
  188.7750  177.7520  145.3970 C   0  0  0  0  0  3  0  0  0  0  0  0
  186.7630  177.9590  147.4330 C   0  0  0  0  0  3  0  0  0  0  0  0
  184.0980  178.4590  140.0400 C   0  0  0  0  0  0  0  0  0  0  0  0
  187.0720  177.9540  143.5870 N   0  0  0  0  0  0  0  0  0  0  0  0
  185.0460  178.4870  142.1040 C   0  0  0  0  0  0  0  0  0  0  0  0
  183.5680  178.8360  143.7570 N   0  0  0  0  0  0  0  0  0  0  0  0
  185.7300  178.3780  143.3000 C   0  0  0  0  0  0  0  0  0  0  0  0
  182.7780  178.8020  141.0750 S   0  0  0  0  0  0  0  0  0  0  0  0
  185.1310  178.4440  145.7030 C   0  0  0  0  0  3  0  0  0  0  0  0
  186.3560  178.0060  146.0220 C   0  0  0  0  0  0  0  0  0  0  0  0
  185.2940  178.2780  140.7520 C   0  0  0  0  0  3  0  0  0  0  0  0
  187.3490  177.4930  144.9690 C   0  0  2  0  0  3  0  0  0  0  0  0
  183.7680  178.7750  142.4240 C   0  0  0  0  0  0  0  0  0  0  0  0
  184.7860  178.5790  144.2900 C   0  0  0  0  0  0  0  0  0  0  0  0
  188.0600  177.8830  147.7440 C   0  0  0  0  0  3  0  0  0  0  0  0
  189.8700  177.2890  140.4680 C   0  0  0  0  0  0  0  0  0  0  0  0
  189.7780  176.3830  141.5280 C   0  0  0  0  0  3  0  0  0  0  0  0
  188.8550  176.6000  142.5560 C   0  0  0  0  0  3  0  0  0  0  0  0
  188.0140  177.7220  142.5270 C   0  0  0  0  0  0  0  0  0  0  0  0
  190.8490  177.0570  139.3750 C   0  0  0  0  0  1  0  0  0  0  0  0
  189.0420  178.4140  140.4360 C   0  0  0  0  0  3  0  0  0  0  0  0
  188.1180  178.6320  141.4640 C   0  0  0  0  0  3  0  0  0  0  0  0
  182.3710  179.0160  144.4700 N   0  0  0  0  0  2  0  0  0  0  0  0
  181.1220  178.6270  143.9650 C   0  0  0  0  0  0  0  0  0  0  0  0
  180.0890  178.3060  143.5500 N   0  0  0  0  0  0  0  0  0  0  0  0
  183.9680  178.2600  138.5710 C   0  0  0  0  0  2  0  0  0  0  0  0
  184.8020  177.0960  135.7340 C   0  0  0  0  0  2  0  0  0  0  0  0
  184.7460  177.0900  138.1590 N   0  0  0  0  0  0  0  0  0  0  0  0
  183.8850  176.0220  137.6340 C   0  0  2  0  0  3  0  0  0  0  0  0
  183.5810  176.3360  136.1910 C   0  0  0  0  0  2  0  0  0  0  0  0
  185.5320  177.5150  137.0050 C   0  0  0  0  0  2  0  0  0  0  0  0
  181.7140  175.5650  139.0500 N   0  0  0  0  0  0  0  0  0  0  0  0
  182.6690  175.7670  138.4290 C   0  0  0  0  0  0  0  0  0  0  0  0
  1 16  1  0  0  0  0
  2  1  2  0  0  0  0
  3 16  2  0  0  0  0
  4 12  2  0  0  0  0
  4  9  1  0  0  0  0
  5 13  1  0  0  0  0
  6 14  2  0  0  0  0
  6  8  1  0  0  0  0
  7 15  1  0  0  0  0
  7 24  1  0  0  0  0
  8  5  1  0  0  0  0
  8 15  2  0  0  0  0
  9 14  1  0  0  0  0
 10 11  2  0  0  0  0
 11  3  1  0  0  0  0
 12  6  1  0  0  0  0
 13  2  1  1  0  0  0
 13 11  1  0  0  0  0
 14  7  1  0  0  0  0
 15 10  1  0  0  0  0
 17 18  1  0  0  0  0
 18 19  2  0  0  0  0
 20 19  1  0  0  0  0
 20  5  1  0  0  0  0
 21 17  1  0  0  0  0
 22 17  2  0  0  0  0
 22 23  1  0  0  0  0
 23 20  2  0  0  0  0
 25 24  1  0  0  0  0
 26 25  3  0  0  0  0
 27  4  1  0  0  0  0
 28 31  1  0  0  0  0
 28 32  1  0  0  0  0
 29 27  1  0  0  0  0
 30 29  1  0  0  0  0
 30 34  1  1  0  0  0
 31 30  1  0  0  0  0
 32 29  1  0  0  0  0
 34 33  3  0  0  0  0
M  END
>  <MODEL>
4

>  <REMARK>
 VINA RESULT:      -7.4      2.552      5.068
  Name = 
  6 active torsions:
  status: ('A' for Active; 'I' for Inactive)
    1  A    between atoms: C_6  and  C_24
    2  A    between atoms: N_9  and  C_24
    3  A    between atoms: N_10  and  C_19
    4  A    between atoms: N_13  and  N_21
    5  A    between atoms: C_20  and  C_23
    6  A    between atoms: N_21  and  C_28
                            x       y       z     vdW  Elec       q    Type
                         _______ _______ _______ _____ _____    ______ ____

>  <TORSDO>
F 6

$$$$
=
 OpenBabel11062416513D

 34 39  0  0  1  0  0  0  0  0999 V2000
  183.9510  178.5410  145.8470 C   0  0  0  0  0  3  0  0  0  0  0  0
  184.3690  178.5580  144.5760 C   0  0  0  0  0  3  0  0  0  0  0  0
  186.2240  178.4690  146.7620 C   0  0  0  0  0  3  0  0  0  0  0  0
  189.3920  177.3250  139.6440 C   0  0  0  0  0  0  0  0  0  0  0  0
  186.1890  178.1760  142.9160 N   0  0  0  0  0  0  0  0  0  0  0  0
  188.2990  177.4820  141.6300 C   0  0  0  0  0  0  0  0  0  0  0  0
  189.6470  177.2340  143.4080 N   0  0  0  0  0  0  0  0  0  0  0  0
  187.5360  177.7000  142.7610 C   0  0  0  0  0  0  0  0  0  0  0  0
  190.6250  177.0370  140.7960 S   0  0  0  0  0  0  0  0  0  0  0  0
  187.9610  177.8130  145.1990 C   0  0  0  0  0  3  0  0  0  0  0  0
  186.7280  178.3010  145.3930 C   0  0  0  0  0  0  0  0  0  0  0  0
  188.1540  177.5890  140.2510 C   0  0  0  0  0  3  0  0  0  0  0  0
  185.8270  178.7510  144.2340 C   0  0  2  0  0  3  0  0  0  0  0  0
  189.5440  177.1930  142.0630 C   0  0  0  0  0  0  0  0  0  0  0  0
  188.4010  177.5590  143.8290 C   0  0  0  0  0  0  0  0  0  0  0  0
  184.9110  178.5980  146.9710 C   0  0  0  0  0  3  0  0  0  0  0  0
  183.6390  178.6840  139.5630 C   0  0  0  0  0  0  0  0  0  0  0  0
  184.8210  179.4230  139.6600 C   0  0  0  0  0  3  0  0  0  0  0  0
  185.6630  179.2560  140.7630 C   0  0  0  0  0  3  0  0  0  0  0  0
  185.3310  178.3430  141.7740 C   0  0  0  0  0  0  0  0  0  0  0  0
  182.7460  178.8620  138.3890 C   0  0  0  0  0  1  0  0  0  0  0  0
  183.2970  177.7790  140.5710 C   0  0  0  0  0  3  0  0  0  0  0  0
  184.1380  177.6100  141.6750 C   0  0  0  0  0  3  0  0  0  0  0  0
  190.7850  177.0850  144.2180 N   0  0  0  0  0  2  0  0  0  0  0  0
  191.5370  175.9020  144.2600 C   0  0  0  0  0  0  0  0  0  0  0  0
  192.1570  174.9250  144.2960 N   0  0  0  0  0  0  0  0  0  0  0  0
  189.6310  177.4030  138.1780 C   0  0  0  0  0  2  0  0  0  0  0  0
  189.8460  175.8120  135.4350 C   0  0  0  0  0  2  0  0  0  0  0  0
  188.7270  176.4870  137.4790 N   0  0  0  0  0  0  0  0  0  0  0  0
  188.0900  177.1290  136.3220 C   0  0  2  0  0  3  0  0  0  0  0  0
  189.0570  177.0690  135.1660 C   0  0  0  0  0  2  0  0  0  0  0  0
  189.5750  175.4540  136.8930 C   0  0  0  0  0  2  0  0  0  0  0  0
  187.2000  179.5640  136.7740 N   0  0  0  0  0  0  0  0  0  0  0  0
  187.5910  178.4940  136.5740 C   0  0  0  0  0  0  0  0  0  0  0  0
  1 16  1  0  0  0  0
  2  1  2  0  0  0  0
  3 16  2  0  0  0  0
  4 12  2  0  0  0  0
  4  9  1  0  0  0  0
  5 13  1  0  0  0  0
  6 14  2  0  0  0  0
  6  8  1  0  0  0  0
  7 15  1  0  0  0  0
  7 24  1  0  0  0  0
  8  5  1  0  0  0  0
  8 15  2  0  0  0  0
  9 14  1  0  0  0  0
 10 11  2  0  0  0  0
 11  3  1  0  0  0  0
 12  6  1  0  0  0  0
 13  2  1  1  0  0  0
 13 11  1  0  0  0  0
 14  7  1  0  0  0  0
 15 10  1  0  0  0  0
 17 18  2  0  0  0  0
 17 22  1  0  0  0  0
 18 19  1  0  0  0  0
 19 20  2  0  0  0  0
 20  5  1  0  0  0  0
 21 17  1  0  0  0  0
 22 23  2  0  0  0  0
 23 20  1  0  0  0  0
 24 25  1  0  0  0  0
 25 26  3  0  0  0  0
 27  4  1  0  0  0  0
 28 32  1  0  0  0  0
 29 27  1  0  0  0  0
 30 34  1  1  0  0  0
 30 29  1  0  0  0  0
 31 28  1  0  0  0  0
 31 30  1  0  0  0  0
 32 29  1  0  0  0  0
 34 33  3  0  0  0  0
M  END
>  <MODEL>
5

>  <REMARK>
 VINA RESULT:      -7.3      2.144      5.356
  Name = 
  6 active torsions:
  status: ('A' for Active; 'I' for Inactive)
    1  A    between atoms: C_6  and  C_24
    2  A    between atoms: N_9  and  C_24
    3  A    between atoms: N_10  and  C_19
    4  A    between atoms: N_13  and  N_21
    5  A    between atoms: C_20  and  C_23
    6  A    between atoms: N_21  and  C_28
                            x       y       z     vdW  Elec       q    Type
                         _______ _______ _______ _____ _____    ______ ____

>  <TORSDO>
F 6

$$$$
=
 OpenBabel11062416513D

 34 39  0  0  1  0  0  0  0  0999 V2000
  186.1380  178.3890  146.8050 C   0  0  0  0  0  3  0  0  0  0  0  0
  186.8330  178.0250  145.7200 C   0  0  0  0  0  3  0  0  0  0  0  0
  184.0530  178.7180  145.5580 C   0  0  0  0  0  3  0  0  0  0  0  0
  187.6940  177.8750  138.6270 C   0  0  0  0  0  0  0  0  0  0  0  0
  187.0350  177.9440  143.2360 N   0  0  0  0  0  0  0  0  0  0  0  0
  186.8440  178.2660  140.6970 C   0  0  0  0  0  0  0  0  0  0  0  0
  184.7220  178.9980  140.6630 N   0  0  0  0  0  0  0  0  0  0  0  0
  186.4190  178.3630  142.0080 C   0  0  0  0  0  0  0  0  0  0  0  0
  186.1240  178.4740  138.3000 S   0  0  0  0  0  0  0  0  0  0  0  0
  184.2950  178.9260  143.1520 C   0  0  0  0  0  3  0  0  0  0  0  0
  184.8080  178.5050  144.3160 C   0  0  0  0  0  0  0  0  0  0  0  0
  187.9490  177.7840  140.0050 C   0  0  0  0  0  3  0  0  0  0  0  0
  186.1420  177.7510  144.4040 C   0  0  2  0  0  3  0  0  0  0  0  0
  185.8070  178.6670  139.9320 C   0  0  0  0  0  0  0  0  0  0  0  0
  185.1080  178.7960  141.9450 C   0  0  0  0  0  0  0  0  0  0  0  0
  184.6830  178.6460  146.7340 C   0  0  0  0  0  3  0  0  0  0  0  0
  191.0360  176.5330  143.3170 C   0  0  0  0  0  0  0  0  0  0  0  0
  189.9960  175.6630  142.9820 C   0  0  0  0  0  3  0  0  0  0  0  0
  188.6770  176.1270  142.9520 C   0  0  0  0  0  3  0  0  0  0  0  0
  188.3910  177.4660  143.2540 C   0  0  0  0  0  0  0  0  0  0  0  0
  192.4370  176.0400  143.3460 C   0  0  0  0  0  1  0  0  0  0  0  0
  190.7580  177.8680  143.6280 C   0  0  0  0  0  3  0  0  0  0  0  0
  189.4400  178.3320  143.6000 C   0  0  0  0  0  3  0  0  0  0  0  0
  183.4380  179.3680  140.2300 N   0  0  0  0  0  2  0  0  0  0  0  0
  182.3250  178.5220  140.3460 C   0  0  0  0  0  0  0  0  0  0  0  0
  181.4070  177.8230  140.4440 N   0  0  0  0  0  0  0  0  0  0  0  0
  188.6330  177.3980  137.5760 C   0  0  0  0  0  2  0  0  0  0  0  0
  190.9410  175.4470  136.5930 C   0  0  0  0  0  2  0  0  0  0  0  0
  188.8620  175.9590  137.7330 N   0  0  0  0  0  0  0  0  0  0  0  0
  188.5860  175.2270  136.4900 C   0  0  2  0  0  3  0  0  0  0  0  0
  189.8050  175.3320  135.6080 C   0  0  0  0  0  2  0  0  0  0  0  0
  190.2990  175.8000  137.9300 C   0  0  0  0  0  2  0  0  0  0  0  0
  186.3760  175.9480  135.2570 N   0  0  0  0  0  0  0  0  0  0  0  0
  187.3480  175.6320  135.7990 C   0  0  0  0  0  0  0  0  0  0  0  0
  2  1  2  0  0  0  0
  3 16  2  0  0  0  0
  4 12  2  0  0  0  0
  5 20  1  0  0  0  0
  5 13  1  0  0  0  0
  6  8  1  0  0  0  0
  7 15  1  0  0  0  0
  8  5  1  0  0  0  0
  9  4  1  0  0  0  0
  9 14  1  0  0  0  0
 10 11  2  0  0  0  0
 11 13  1  0  0  0  0
 11  3  1  0  0  0  0
 12  6  1  0  0  0  0
 13  2  1  1  0  0  0
 14  7  1  0  0  0  0
 14  6  2  0  0  0  0
 15  8  2  0  0  0  0
 15 10  1  0  0  0  0
 16  1  1  0  0  0  0
 17 21  1  0  0  0  0
 17 22  1  0  0  0  0
 18 17  2  0  0  0  0
 19 18  1  0  0  0  0
 19 20  2  0  0  0  0
 20 23  1  0  0  0  0
 23 22  2  0  0  0  0
 24 25  1  0  0  0  0
 24  7  1  0  0  0  0
 25 26  3  0  0  0  0
 27 29  1  0  0  0  0
 27  4  1  0  0  0  0
 28 32  1  0  0  0  0
 29 32  1  0  0  0  0
 30 34  1  6  0  0  0
 30 29  1  0  0  0  0
 31 30  1  0  0  0  0
 31 28  1  0  0  0  0
 33 34  3  0  0  0  0
M  END
>  <MODEL>
6

>  <REMARK>
 VINA RESULT:      -7.2      1.446      1.871
  Name = 
  6 active torsions:
  status: ('A' for Active; 'I' for Inactive)
    1  A    between atoms: C_6  and  C_24
    2  A    between atoms: N_9  and  C_24
    3  A    between atoms: N_10  and  C_19
    4  A    between atoms: N_13  and  N_21
    5  A    between atoms: C_20  and  C_23
    6  A    between atoms: N_21  and  C_28
                            x       y       z     vdW  Elec       q    Type
                         _______ _______ _______ _____ _____    ______ ____

>  <TORSDO>
F 6

$$$$
=
 OpenBabel11062416513D

 34 39  0  0  1  0  0  0  0  0999 V2000
  193.3240  175.7540  138.3280 C   0  0  0  0  0  3  0  0  0  0  0  0
  192.5570  176.2350  139.3140 C   0  0  0  0  0  3  0  0  0  0  0  0
  191.9030  176.6760  136.5560 C   0  0  0  0  0  2  0  0  0  0  0  0
  186.3080  178.7640  141.6890 C   0  0  0  0  0  0  0  0  0  0  0  0
  190.3740  177.1800  140.0610 N   0  0  0  0  0  0  0  0  0  0  0  0
  187.9380  177.9390  140.3370 C   0  0  0  0  0  0  0  0  0  0  0  0
  187.4310  178.0670  138.1540 N   0  0  0  0  0  0  0  0  0  0  0  0
  189.0430  177.5040  139.6300 C   0  0  0  0  0  0  0  0  0  0  0  0
  185.6390  178.9250  140.1210 S   0  0  0  0  0  0  0  0  0  0  0  0
  189.6680  177.3300  137.2400 C   0  0  0  0  0  3  0  0  0  0  0  0
  190.9350  177.0680  137.5890 C   0  0  0  0  0  0  0  0  0  0  0  0
  187.6060  178.2280  141.6560 C   0  0  0  0  0  3  0  0  0  0  0  0
  191.4400  177.2120  139.0310 C   0  0  0  0  0  0  0  0  0  0  0  0
  186.9990  178.2490  139.4190 C   0  0  0  0  0  0  0  0  0  0  0  0
  188.7010  177.6160  138.2960 C   0  0  0  0  0  0  0  0  0  0  0  0
  193.0400  176.0690  136.9110 C   0  0  0  0  0  3  0  0  0  0  0  0
  191.3110  176.9830  144.1950 C   0  0  0  0  0  0  0  0  0  0  0  0
  190.6410  175.9220  143.5790 C   0  0  0  0  0  3  0  0  0  0  0  0
  190.3330  175.9840  142.2170 C   0  0  0  0  0  3  0  0  0  0  0  0
  190.6990  177.1080  141.4600 C   0  0  0  0  0  0  0  0  0  0  0  0
  191.6380  176.9150  145.6420 C   0  0  0  0  0  1  0  0  0  0  0  0
  191.6700  178.1090  143.4490 C   0  0  0  0  0  3  0  0  0  0  0  0
  191.3620  178.1730  142.0870 C   0  0  0  0  0  3  0  0  0  0  0  0
  186.7860  178.3650  136.9420 N   0  0  0  0  0  2  0  0  0  0  0  0
  185.9960  177.4320  136.2550 C   0  0  0  0  0  0  0  0  0  0  0  0
  185.3440  176.6630  135.6850 N   0  0  0  0  0  0  0  0  0  0  0  0
  185.6400  179.2440  142.9270 C   0  0  0  0  0  2  0  0  0  0  0  0
  183.3380  179.1460  145.1170 C   0  0  0  0  0  2  0  0  0  0  0  0
  184.8910  178.1470  143.5440 N   0  0  0  0  0  0  0  0  0  0  0  0
  185.3360  177.8910  144.9200 C   0  0  2  0  0  3  0  0  0  0  0  0
  184.6440  178.8800  145.8240 C   0  0  0  0  0  2  0  0  0  0  0  0
  183.5220  178.6280  143.6950 C   0  0  0  0  0  2  0  0  0  0  0  0
  187.9480  177.8780  145.2470 N   0  0  0  0  0  0  0  0  0  0  0  0
  186.8000  177.8840  145.1020 C   0  0  0  0  0  0  0  0  0  0  0  0
  1  2  1  0  0  0  0
  3 16  1  0  0  0  0
  3 11  1  0  0  0  0
  4 27  1  0  0  0  0
  5 20  1  0  0  0  0
  6 12  1  0  0  0  0
  7 15  1  0  0  0  0
  7 14  1  0  0  0  0
  8  5  1  0  0  0  0
  8  6  1  0  0  0  0
  9  4  1  0  0  0  0
 10 11  2  0  0  0  0
 10 15  1  0  0  0  0
 11 13  1  0  0  0  0
 12  4  2  0  0  0  0
 13  2  2  0  0  0  0
 13  5  1  0  0  0  0
 14  9  1  0  0  0  0
 14  6  2  0  0  0  0
 15  8  2  0  0  0  0
 16  1  2  0  0  0  0
 17 21  1  0  0  0  0
 18 17  1  0  0  0  0
 19 18  2  0  0  0  0
 20 23  2  0  0  0  0
 20 19  1  0  0  0  0
 22 17  2  0  0  0  0
 23 22  1  0  0  0  0
 24  7  1  0  0  0  0
 25 24  1  0  0  0  0
 26 25  3  0  0  0  0
 27 29  1  0  0  0  0
 28 31  1  0  0  0  0
 29 32  1  0  0  0  0
 29 30  1  0  0  0  0
 30 34  1  6  0  0  0
 30 31  1  0  0  0  0
 32 28  1  0  0  0  0
 34 33  3  0  0  0  0
M  END
>  <MODEL>
7

>  <REMARK>
 VINA RESULT:      -7.1      1.920      6.958
  Name = 
  6 active torsions:
  status: ('A' for Active; 'I' for Inactive)
    1  A    between atoms: C_6  and  C_24
    2  A    between atoms: N_9  and  C_24
    3  A    between atoms: N_10  and  C_19
    4  A    between atoms: N_13  and  N_21
    5  A    between atoms: C_20  and  C_23
    6  A    between atoms: N_21  and  C_28
                            x       y       z     vdW  Elec       q    Type
                         _______ _______ _______ _____ _____    ______ ____

>  <TORSDO>
F 6

$$$$
=
 OpenBabel11062416513D

 34 39  0  0  1  0  0  0  0  0999 V2000
  191.6800  176.9670  142.9110 C   0  0  0  0  0  3  0  0  0  0  0  0
  190.7500  177.1330  141.9630 C   0  0  0  0  0  3  0  0  0  0  0  0
  190.0350  176.7540  144.7160 C   0  0  0  0  0  3  0  0  0  0  0  0
  184.1010  178.8540  139.9850 C   0  0  0  0  0  0  0  0  0  0  0  0
  188.3950  177.6720  141.3480 N   0  0  0  0  0  0  0  0  0  0  0  0
  185.9480  178.4400  141.2420 C   0  0  0  0  0  0  0  0  0  0  0  0
  185.5160  178.3150  143.4420 N   0  0  0  0  0  0  0  0  0  0  0  0
  187.1240  178.0860  141.8750 C   0  0  0  0  0  0  0  0  0  0  0  0
  183.4990  178.8770  141.5870 S   0  0  0  0  0  0  0  0  0  0  0  0
  187.8030  177.5520  144.1970 C   0  0  0  0  0  3  0  0  0  0  0  0
  188.9870  177.1120  143.7510 C   0  0  0  0  0  0  0  0  0  0  0  0
  185.4760  178.5680  139.9410 C   0  0  0  0  0  3  0  0  0  0  0  0
  189.2850  176.9120  142.2580 C   0  0  2  0  0  3  0  0  0  0  0  0
  185.0230  178.5800  142.2140 C   0  0  0  0  0  0  0  0  0  0  0  0
  186.8140  178.0000  143.2190 C   0  0  0  0  0  0  0  0  0  0  0  0
  191.3060  176.6700  144.3110 C   0  0  0  0  0  3  0  0  0  0  0  0
  189.1690  177.8850  137.1810 C   0  0  0  0  0  0  0  0  0  0  0  0
  189.2600  179.0360  137.9680 C   0  0  0  0  0  3  0  0  0  0  0  0
  189.0080  178.9670  139.3420 C   0  0  0  0  0  3  0  0  0  0  0  0
  188.6660  177.7450  139.9380 C   0  0  0  0  0  0  0  0  0  0  0  0
  189.4390  177.9590  135.7230 C   0  0  0  0  0  1  0  0  0  0  0  0
  188.8200  176.6650  137.7670 C   0  0  0  0  0  3  0  0  0  0  0  0
  188.5660  176.5950  139.1400 C   0  0  0  0  0  3  0  0  0  0  0  0
  184.8480  178.2620  144.6760 N   0  0  0  0  0  2  0  0  0  0  0  0
  185.3040  178.9410  145.8150 C   0  0  0  0  0  0  0  0  0  0  0  0
  185.6810  179.5030  146.7540 N   0  0  0  0  0  0  0  0  0  0  0  0
  183.2460  179.0010  138.7770 C   0  0  0  0  0  2  0  0  0  0  0  0
  180.7810  177.6780  137.2680 C   0  0  0  0  0  2  0  0  0  0  0  0
  181.8400  178.8030  139.1380 N   0  0  0  0  0  0  0  0  0  0  0  0
  180.9580  179.7360  138.4250 C   0  0  2  0  0  3  0  0  0  0  0  0
  180.6930  179.1690  137.0530 C   0  0  0  0  0  2  0  0  0  0  0  0
  181.4710  177.4910  138.6140 C   0  0  0  0  0  2  0  0  0  0  0  0
  181.8270  182.2190  138.3430 N   0  0  0  0  0  0  0  0  0  0  0  0
  181.4440  181.1280  138.3800 C   0  0  0  0  0  0  0  0  0  0  0  0
  1 16  1  0  0  0  0
  2  1  2  0  0  0  0
  4  9  1  0  0  0  0
  5  8  1  0  0  0  0
  5 13  1  0  0  0  0
  6  8  1  0  0  0  0
  6 14  2  0  0  0  0
  7 24  1  0  0  0  0
  8 15  2  0  0  0  0
  9 14  1  0  0  0  0
 11 10  2  0  0  0  0
 11  3  1  0  0  0  0
 12  4  2  0  0  0  0
 12  6  1  0  0  0  0
 13  2  1  1  0  0  0
 13 11  1  0  0  0  0
 14  7  1  0  0  0  0
 15  7  1  0  0  0  0
 15 10  1  0  0  0  0
 16  3  2  0  0  0  0
 17 22  2  0  0  0  0
 17 18  1  0  0  0  0
 18 19  2  0  0  0  0
 19 20  1  0  0  0  0
 20  5  1  0  0  0  0
 21 17  1  0  0  0  0
 22 23  1  0  0  0  0
 23 20  2  0  0  0  0
 24 25  1  0  0  0  0
 25 26  3  0  0  0  0
 27 29  1  0  0  0  0
 27  4  1  0  0  0  0
 28 32  1  0  0  0  0
 30 34  1  6  0  0  0
 30 29  1  0  0  0  0
 31 28  1  0  0  0  0
 31 30  1  0  0  0  0
 32 29  1  0  0  0  0
 33 34  3  0  0  0  0
M  END
>  <MODEL>
8

>  <REMARK>
 VINA RESULT:      -7.0      2.421      7.121
  Name = 
  6 active torsions:
  status: ('A' for Active; 'I' for Inactive)
    1  A    between atoms: C_6  and  C_24
    2  A    between atoms: N_9  and  C_24
    3  A    between atoms: N_10  and  C_19
    4  A    between atoms: N_13  and  N_21
    5  A    between atoms: C_20  and  C_23
    6  A    between atoms: N_21  and  C_28
                            x       y       z     vdW  Elec       q    Type
                         _______ _______ _______ _____ _____    ______ ____

>  <TORSDO>
F 6

$$$$
=
 OpenBabel11062416513D

 34 39  0  0  1  0  0  0  0  0999 V2000
  179.2790  178.3380  142.2970 C   0  0  0  0  0  3  0  0  0  0  0  0
  180.4000  178.3600  141.5670 C   0  0  0  0  0  3  0  0  0  0  0  0
  180.4030  179.0840  144.3430 C   0  0  0  0  0  3  0  0  0  0  0  0
  187.5310  178.3080  141.0880 C   0  0  0  0  0  0  0  0  0  0  0  0
  182.8910  178.4150  141.4730 N   0  0  0  0  0  0  0  0  0  0  0  0
  185.4160  178.3050  141.9190 C   0  0  0  0  0  0  0  0  0  0  0  0
  185.3300  178.6760  144.1320 N   0  0  0  0  0  0  0  0  0  0  0  0
  184.0830  178.3800  142.2740 C   0  0  0  0  0  0  0  0  0  0  0  0
  187.7680  178.5430  142.7680 S   0  0  0  0  0  0  0  0  0  0  0  0
  182.8200  178.8630  144.3500 C   0  0  0  0  0  3  0  0  0  0  0  0
  181.6860  178.9510  143.6410 C   0  0  0  0  0  0  0  0  0  0  0  0
  186.1700  178.2230  140.7540 C   0  0  0  0  0  3  0  0  0  0  0  0
  181.6720  178.9730  142.1060 C   0  0  2  0  0  3  0  0  0  0  0  0
  186.1210  178.4720  143.0580 C   0  0  0  0  0  0  0  0  0  0  0  0
  184.0710  178.6280  143.6340 C   0  0  0  0  0  0  0  0  0  0  0  0
  179.2650  178.8080  143.6990 C   0  0  0  0  0  3  0  0  0  0  0  0
  183.0390  177.7330  137.2870 C   0  0  0  0  0  0  0  0  0  0  0  0
  182.9630  179.0390  137.7800 C   0  0  0  0  0  3  0  0  0  0  0  0
  182.9170  179.2650  139.1590 C   0  0  0  0  0  3  0  0  0  0  0  0
  182.9500  178.1870  140.0540 C   0  0  0  0  0  0  0  0  0  0  0  0
  183.0900  177.4940  135.8220 C   0  0  0  0  0  1  0  0  0  0  0  0
  183.0630  176.6530  138.1740 C   0  0  0  0  0  3  0  0  0  0  0  0
  183.0160  176.8780  139.5530 C   0  0  0  0  0  3  0  0  0  0  0  0
  185.6880  178.9780  145.4560 N   0  0  0  0  0  2  0  0  0  0  0  0
  186.5500  178.1700  146.2110 C   0  0  0  0  0  0  0  0  0  0  0  0
  187.2630  177.5030  146.8340 N   0  0  0  0  0  0  0  0  0  0  0  0
  188.6330  178.3130  140.0890 C   0  0  0  0  0  2  0  0  0  0  0  0
  191.1850  176.9780  138.7450 C   0  0  0  0  0  2  0  0  0  0  0  0
  188.9550  176.9380  139.7000 N   0  0  0  0  0  0  0  0  0  0  0  0
  188.8820  176.7530  138.2450 C   0  0  2  0  0  3  0  0  0  0  0  0
  190.1810  177.2340  137.6490 C   0  0  0  0  0  2  0  0  0  0  0  0
  190.3690  176.7530  140.0130 C   0  0  0  0  0  2  0  0  0  0  0  0
  186.7770  177.8500  137.1070 N   0  0  0  0  0  0  0  0  0  0  0  0
  187.7020  177.3670  137.6060 C   0  0  0  0  0  0  0  0  0  0  0  0
  1 16  1  0  0  0  0
  2  1  2  0  0  0  0
  4  9  1  0  0  0  0
  5 13  1  0  0  0  0
  5  8  1  0  0  0  0
  6  8  1  0  0  0  0
  6 14  2  0  0  0  0
  7 24  1  0  0  0  0
  8 15  2  0  0  0  0
  9 14  1  0  0  0  0
 11  3  1  0  0  0  0
 11 10  2  0  0  0  0
 12  4  2  0  0  0  0
 12  6  1  0  0  0  0
 13  2  1  6  0  0  0
 13 11  1  0  0  0  0
 14  7  1  0  0  0  0
 15  7  1  0  0  0  0
 15 10  1  0  0  0  0
 16  3  2  0  0  0  0
 17 18  2  0  0  0  0
 17 22  1  0  0  0  0
 18 19  1  0  0  0  0
 19 20  2  0  0  0  0
 20  5  1  0  0  0  0
 21 17  1  0  0  0  0
 22 23  2  0  0  0  0
 23 20  1  0  0  0  0
 24 25  1  0  0  0  0
 25 26  3  0  0  0  0
 27  4  1  0  0  0  0
 28 32  1  0  0  0  0
 29 32  1  0  0  0  0
 29 27  1  0  0  0  0
 30 34  1  6  0  0  0
 30 29  1  0  0  0  0
 31 30  1  0  0  0  0
 31 28  1  0  0  0  0
 33 34  3  0  0  0  0
M  END
>  <MODEL>
9

>  <REMARK>
 VINA RESULT:      -6.9      2.560      5.819
  Name = 
  6 active torsions:
  status: ('A' for Active; 'I' for Inactive)
    1  A    between atoms: C_6  and  C_24
    2  A    between atoms: N_9  and  C_24
    3  A    between atoms: N_10  and  C_19
    4  A    between atoms: N_13  and  N_21
    5  A    between atoms: C_20  and  C_23
    6  A    between atoms: N_21  and  C_28
                            x       y       z     vdW  Elec       q    Type
                         _______ _______ _______ _____ _____    ______ ____

>  <TORSDO>
F 6

$$$$
