=
 OpenBabel11062412513D

 50 55  0  0  1  0  0  0  0  0999 V2000
  184.5610  179.6300  143.6020 C   0  0  0  0  0  3  0  0  0  0  0  0
  184.8850  179.2710  142.2900 C   0  0  0  0  0  0  0  0  0  0  0  0
  183.2930  179.4610  144.0640 N   0  0  0  0  0  0  0  0  0  0  0  0
  182.5860  178.5680  141.9570 C   0  0  0  0  0  0  0  0  0  0  0  0
  183.8920  178.7360  141.4750 C   0  0  0  0  0  3  0  0  0  0  0  0
  182.3060  178.9450  143.2810 C   0  0  0  0  0  0  0  0  0  0  0  0
  180.9950  178.7920  143.8200 N   0  0  0  0  0  1  0  0  0  0  0  0
  180.7850  178.9910  137.7080 N   0  0  0  0  0  0  0  0  0  0  0  0
  180.6530  180.1510  136.9440 N   0  0  0  0  0  0  0  0  0  0  0  0
  180.4060  181.1380  137.7520 C   0  0  0  0  0  0  0  0  0  0  0  0
  181.5290  178.0100  141.0910 C   0  0  0  0  0  3  0  0  0  0  0  0
  180.6080  179.3680  139.0610 C   0  0  0  0  0  0  0  0  0  0  0  0
  180.3900  180.7690  139.1390 N   0  0  0  0  0  2  0  0  0  0  0  0
  181.0530  178.6730  140.0710 C   0  0  0  0  0  0  0  0  0  0  0  0
  180.2740  182.6280  135.7510 C   0  0  0  0  0  2  0  0  0  0  0  0
  181.7740  184.5390  137.3330 C   0  0  0  0  0  3  0  0  0  0  0  0
  181.4640  183.3460  137.8520 C   0  0  0  0  0  3  0  0  0  0  0  0
  180.7560  183.9660  135.1470 C   0  0  0  0  0  2  0  0  0  0  0  0
  180.3040  182.5610  137.2930 C   0  0  2  0  0  0  0  0  0  0  0  0
  180.9610  185.0680  136.1890 C   0  0  0  0  0  2  0  0  0  0  0  0
  179.1260  183.1090  137.7740 F   0  0  0  0  0  0  0  0  0  0  0  0
  181.1360  177.6780  137.1780 C   0  0  0  0  0  2  0  0  0  0  0  0
  184.1850  176.4450  135.4340 N   0  0  0  0  0  2  0  0  0  0  0  0
  182.8760  177.0680  135.4420 C   0  0  0  0  0  2  0  0  0  0  0  0
  184.6280  176.1150  136.7340 C   0  0  0  0  0  0  0  0  0  0  0  0
  185.7730  175.6370  136.9400 O   0  0  0  0  0  0  0  0  0  0  0  0
  183.5160  176.5200  138.0570 S   0  0  0  0  0  0  0  0  0  0  0  0
  182.6260  177.5820  136.8610 C   0  0  2  0  0  3  0  0  0  0  0  0
  186.2060  179.4240  141.7690 N   0  0  0  0  0  2  0  0  0  0  0  0
  187.0600  178.3140  141.3710 C   0  0  1  0  0  3  0  0  0  0  0  0
  188.4290  178.8260  140.8980 C   0  0  0  0  0  2  0  0  0  0  0  0
  189.4140  176.5380  138.0930 C   0  0  0  0  0  2  0  0  0  0  0  0
  188.8440  177.2850  136.8850 C   0  0  0  0  0  2  0  0  0  0  0  0
  187.9640  178.4710  137.3130 C   0  0  0  0  0  2  0  0  0  0  0  0
  188.7470  178.5970  139.4160 C   0  0  2  0  0  3  0  0  0  0  0  0
  187.5820  178.3610  138.6610 O   0  0  0  0  0  0  0  0  0  0  0  0
  189.8080  177.4990  139.2170 C   0  0  0  0  0  2  0  0  0  0  0  0
  187.2010  177.4140  142.4360 O   0  0  0  0  0  0  0  0  0  0  0  0
  187.8090  176.4110  144.9520 O   0  0  0  0  0  0  0  0  0  0  0  0
  188.4770  177.3820  144.5050 C   0  0  0  0  0  0  0  0  0  0  0  0
  188.1580  177.9500  143.2350 N   0  0  0  0  0  2  0  0  0  0  0  0
  189.6060  177.9610  145.3040 C   0  0  2  0  0  3  0  0  0  0  0  0
  191.6590  177.7730  142.4710 C   0  0  0  0  0  2  0  0  0  0  0  0
  190.8880  176.2270  144.0050 C   0  0  0  0  0  2  0  0  0  0  0  0
  190.9840  177.5320  144.7780 C   0  0  1  0  0  3  0  0  0  0  0  0
  191.5010  178.5360  143.7670 C   0  0  0  0  0  2  0  0  0  0  0  0
  190.8930  176.5440  142.5860 N   0  0  0  0  0  2  0  0  0  0  0  0
  190.2810  176.6640  147.4340 C   0  0  0  0  0  1  0  0  0  0  0  0
  189.4210  177.6870  146.7740 C   0  0  0  0  0  0  0  0  0  0  0  0
  188.5310  178.3600  147.5050 C   0  0  0  0  0  2  0  0  0  0  0  0
  1  3  1  0  0  0  0
  2  1  2  0  0  0  0
  4  6  1  0  0  0  0
  5  4  2  0  0  0  0
  5  2  1  0  0  0  0
  6  7  1  0  0  0  0
  6  3  2  0  0  0  0
  8 12  1  0  0  0  0
  9  8  1  0  0  0  0
  9 10  2  0  0  0  0
 10 13  1  0  0  0  0
 11  4  1  0  0  0  0
 12 13  1  0  0  0  0
 12 14  2  0  0  0  0
 14 11  2  0  0  0  0
 15 19  1  0  0  0  0
 16 17  2  0  0  0  0
 18 15  1  0  0  0  0
 18 20  1  0  0  0  0
 19 10  1  0  0  0  0
 19 21  1  1  0  0  0
 19 17  1  0  0  0  0
 20 16  1  0  0  0  0
 22  8  1  0  0  0  0
 23 24  1  0  0  0  0
 23 25  1  0  0  0  0
 24 28  1  0  0  0  0
 25 26  2  0  0  0  0
 25 27  1  0  0  0  0
 28 22  1  1  0  0  0
 28 27  1  0  0  0  0
 29  2  1  0  0  0  0
 30 31  1  1  0  0  0
 30 29  1  0  0  0  0
 30 38  1  0  0  0  0
 32 37  1  0  0  0  0
 33 34  1  0  0  0  0
 33 32  1  0  0  0  0
 34 36  1  0  0  0  0
 35 31  1  1  0  0  0
 36 35  1  0  0  0  0
 37 35  1  0  0  0  0
 38 41  1  0  0  0  0
 40 39  2  0  0  0  0
 41 40  1  0  0  0  0
 42 40  1  6  0  0  0
 42 49  1  0  0  0  0
 43 47  1  0  0  0  0
 43 46  1  0  0  0  0
 44 45  1  0  0  0  0
 45 42  1  6  0  0  0
 46 45  1  0  0  0  0
 47 44  1  0  0  0  0
 49 48  1  0  0  0  0
 49 50  2  0  0  0  0
M  END
>  <MODEL>
1

>  <REMARK>
 VINA RESULT:      -8.8      0.000      0.000
  Name = 
  13 active torsions:
  status: ('A' for Active; 'I' for Inactive)
    1  A    between atoms: C_5  and  N_20
    2  A    between atoms: C_7  and  C_17
    3  A    between atoms: C_7  and  C_38
    4  A    between atoms: C_12  and  C_34
    5  A    between atoms: N_13  and  C_14
    6  A    between atoms: C_14  and  C_45
    7  A    between atoms: N_20  and  C_38
    8  A    between atoms: O_23  and  N_26
    9  A    between atoms: O_23  and  C_38
   10  A    between atoms: C_25  and  C_44
   11  A    between atoms: C_28  and  C_30
   12  A    between atoms: C_32  and  C_34
   13  A    between atoms: C_34  and  C_39
                            x       y       z     vdW  Elec       q    Type
                         _______ _______ _______ _____ _____    ______ ____

>  <TORSDO>
F 13

$$$$
=
 OpenBabel11062412513D

 50 55  0  0  1  0  0  0  0  0999 V2000
  186.6750  177.3870  144.0680 C   0  0  0  0  0  3  0  0  0  0  0  0
  187.3300  177.3820  142.8320 C   0  0  0  0  0  0  0  0  0  0  0  0
  185.4790  178.0180  144.2050 N   0  0  0  0  0  0  0  0  0  0  0  0
  185.5000  178.6790  141.9030 C   0  0  0  0  0  0  0  0  0  0  0  0
  186.7320  178.0270  141.7530 C   0  0  0  0  0  3  0  0  0  0  0  0
  184.8810  178.6600  143.1630 C   0  0  0  0  0  0  0  0  0  0  0  0
  183.6260  179.3050  143.3680 N   0  0  0  0  0  1  0  0  0  0  0  0
  183.5360  177.8400  137.7900 N   0  0  0  0  0  0  0  0  0  0  0  0
  183.8670  176.8470  136.8690 N   0  0  0  0  0  0  0  0  0  0  0  0
  185.1530  176.6660  136.9160 C   0  0  0  0  0  0  0  0  0  0  0  0
  184.8700  179.3720  140.7620 C   0  0  0  0  0  3  0  0  0  0  0  0
  184.7420  178.2390  138.4140 C   0  0  0  0  0  0  0  0  0  0  0  0
  185.8210  177.4740  137.8970 N   0  0  0  0  0  2  0  0  0  0  0  0
  184.7970  178.8240  139.5780 C   0  0  0  0  0  0  0  0  0  0  0  0
  184.8380  174.7660  135.3240 C   0  0  0  0  0  2  0  0  0  0  0  0
  187.0910  173.5350  136.6720 C   0  0  0  0  0  3  0  0  0  0  0  0
  186.6460  174.7300  137.0780 C   0  0  0  0  0  3  0  0  0  0  0  0
  185.3030  173.3370  134.9670 C   0  0  0  0  0  2  0  0  0  0  0  0
  185.8560  175.5990  136.1330 C   0  0  2  0  0  0  0  0  0  0  0  0
  186.7800  173.0790  135.2780 C   0  0  0  0  0  2  0  0  0  0  0  0
  186.7330  176.1950  135.2420 F   0  0  0  0  0  0  0  0  0  0  0  0
  182.1790  178.2820  138.0900 C   0  0  0  0  0  2  0  0  0  0  0  0
  179.1990  176.4780  139.4030 N   0  0  0  0  0  2  0  0  0  0  0  0
  179.8200  177.5520  138.6540 C   0  0  0  0  0  2  0  0  0  0  0  0
  180.1500  175.5810  139.9390 C   0  0  0  0  0  0  0  0  0  0  0  0
  179.8020  174.5410  140.5550 O   0  0  0  0  0  0  0  0  0  0  0  0
  181.8490  175.9540  139.5900 S   0  0  0  0  0  0  0  0  0  0  0  0
  181.2380  177.0990  138.2990 C   0  0  2  0  0  3  0  0  0  0  0  0
  188.5830  176.7240  142.6430 N   0  0  0  0  0  2  0  0  0  0  0  0
  189.8450  177.4160  142.4250 C   0  0  1  0  0  3  0  0  0  0  0  0
  190.3450  178.0550  143.7300 C   0  0  0  0  0  2  0  0  0  0  0  0
  191.8490  176.5550  146.8220 C   0  0  0  0  0  2  0  0  0  0  0  0
  190.6000  176.3180  147.6750 C   0  0  0  0  0  2  0  0  0  0  0  0
  189.3520  176.9580  147.0470 C   0  0  0  0  0  2  0  0  0  0  0  0
  190.2170  177.1850  144.9850 C   0  0  2  0  0  3  0  0  0  0  0  0
  189.7030  177.9130  146.0760 O   0  0  0  0  0  0  0  0  0  0  0  0
  191.5350  176.4670  145.3270 C   0  0  0  0  0  2  0  0  0  0  0  0
  190.7940  176.5250  141.9070 O   0  0  0  0  0  0  0  0  0  0  0  0
  192.3560  177.6430  139.9020 O   0  0  0  0  0  0  0  0  0  0  0  0
  191.3480  176.9590  139.5790 C   0  0  0  0  0  0  0  0  0  0  0  0
  190.4990  176.4100  140.5880 N   0  0  0  0  0  2  0  0  0  0  0  0
  191.0190  176.7220  138.1360 C   0  0  2  0  0  3  0  0  0  0  0  0
  188.8040  178.8990  136.5150 C   0  0  0  0  0  2  0  0  0  0  0  0
  188.9980  178.1210  138.6820 C   0  0  0  0  0  2  0  0  0  0  0  0
  189.5430  177.0000  137.8120 C   0  0  1  0  0  3  0  0  0  0  0  0
  189.4010  177.5150  136.3930 C   0  0  0  0  0  2  0  0  0  0  0  0
  188.9840  179.3390  137.8870 N   0  0  0  0  0  2  0  0  0  0  0  0
  192.9310  175.0550  137.6500 C   0  0  0  0  0  1  0  0  0  0  0  0
  191.4730  175.3540  137.6980 C   0  0  0  0  0  0  0  0  0  0  0  0
  190.6000  174.3940  137.3850 C   0  0  0  0  0  2  0  0  0  0  0  0
  1  3  1  0  0  0  0
  2  1  2  0  0  0  0
  4  6  1  0  0  0  0
  5  4  2  0  0  0  0
  5  2  1  0  0  0  0
  6  7  1  0  0  0  0
  6  3  2  0  0  0  0
  8 22  1  0  0  0  0
  8 12  1  0  0  0  0
  9 10  2  0  0  0  0
  9  8  1  0  0  0  0
 10 13  1  0  0  0  0
 11  4  1  0  0  0  0
 12 14  2  0  0  0  0
 13 12  1  0  0  0  0
 14 11  2  0  0  0  0
 15 19  1  0  0  0  0
 16 17  2  0  0  0  0
 18 20  1  0  0  0  0
 18 15  1  0  0  0  0
 19 21  1  6  0  0  0
 19 10  1  0  0  0  0
 19 17  1  0  0  0  0
 20 16  1  0  0  0  0
 23 25  1  0  0  0  0
 24 23  1  0  0  0  0
 25 26  2  0  0  0  0
 27 25  1  0  0  0  0
 28 22  1  1  0  0  0
 28 24  1  0  0  0  0
 28 27  1  0  0  0  0
 29  2  1  0  0  0  0
 30 29  1  0  0  0  0
 30 31  1  1  0  0  0
 32 33  1  0  0  0  0
 34 33  1  0  0  0  0
 35 31  1  6  0  0  0
 35 37  1  0  0  0  0
 35 36  1  0  0  0  0
 36 34  1  0  0  0  0
 37 32  1  0  0  0  0
 38 30  1  0  0  0  0
 40 39  2  0  0  0  0
 40 41  1  0  0  0  0
 41 38  1  0  0  0  0
 42 49  1  1  0  0  0
 42 40  1  0  0  0  0
 43 47  1  0  0  0  0
 45 42  1  1  0  0  0
 45 44  1  0  0  0  0
 46 43  1  0  0  0  0
 46 45  1  0  0  0  0
 47 44  1  0  0  0  0
 48 49  1  0  0  0  0
 50 49  2  0  0  0  0
M  END
>  <MODEL>
2

>  <REMARK>
 VINA RESULT:      -8.6      3.392      6.919
  Name = 
  13 active torsions:
  status: ('A' for Active; 'I' for Inactive)
    1  A    between atoms: C_5  and  N_20
    2  A    between atoms: C_7  and  C_17
    3  A    between atoms: C_7  and  C_38
    4  A    between atoms: C_12  and  C_34
    5  A    between atoms: N_13  and  C_14
    6  A    between atoms: C_14  and  C_45
    7  A    between atoms: N_20  and  C_38
    8  A    between atoms: O_23  and  N_26
    9  A    between atoms: O_23  and  C_38
   10  A    between atoms: C_25  and  C_44
   11  A    between atoms: C_28  and  C_30
   12  A    between atoms: C_32  and  C_34
   13  A    between atoms: C_34  and  C_39
                            x       y       z     vdW  Elec       q    Type
                         _______ _______ _______ _____ _____    ______ ____

>  <TORSDO>
F 13

$$$$
=
 OpenBabel11062412513D

 50 55  0  0  1  0  0  0  0  0999 V2000
  186.8860  177.1860  144.7590 C   0  0  0  0  0  3  0  0  0  0  0  0
  187.1810  177.2310  143.3930 C   0  0  0  0  0  0  0  0  0  0  0  0
  185.7880  177.8260  145.2430 N   0  0  0  0  0  0  0  0  0  0  0  0
  185.2010  178.5910  143.0500 C   0  0  0  0  0  0  0  0  0  0  0  0
  186.3290  177.9310  142.5440 C   0  0  0  0  0  3  0  0  0  0  0  0
  184.9450  178.5220  144.4290 C   0  0  0  0  0  0  0  0  0  0  0  0
  183.8090  179.1730  144.9940 N   0  0  0  0  0  1  0  0  0  0  0  0
  182.9050  178.1810  139.0460 N   0  0  0  0  0  0  0  0  0  0  0  0
  183.2950  177.4870  137.9000 N   0  0  0  0  0  0  0  0  0  0  0  0
  184.5860  177.5840  137.7920 C   0  0  0  0  0  0  0  0  0  0  0  0
  184.3020  179.3430  142.1520 C   0  0  0  0  0  3  0  0  0  0  0  0
  184.0830  178.7000  139.6320 C   0  0  0  0  0  0  0  0  0  0  0  0
  185.2100  178.3070  138.8640 N   0  0  0  0  0  2  0  0  0  0  0  0
  184.1780  179.0390  140.8880 C   0  0  0  0  0  0  0  0  0  0  0  0
  184.4210  176.2370  135.6940 C   0  0  0  0  0  2  0  0  0  0  0  0
  186.7940  174.8630  136.6360 C   0  0  0  0  0  3  0  0  0  0  0  0
  186.2500  175.8330  137.3790 C   0  0  0  0  0  3  0  0  0  0  0  0
  185.0080  175.0320  134.9260 C   0  0  0  0  0  2  0  0  0  0  0  0
  185.3710  176.8730  136.7320 C   0  0  2  0  0  0  0  0  0  0  0  0
  186.5060  174.8250  135.1650 C   0  0  0  0  0  2  0  0  0  0  0  0
  186.1790  177.7880  136.0760 F   0  0  0  0  0  0  0  0  0  0  0  0
  181.5400  178.2490  139.5550 C   0  0  0  0  0  2  0  0  0  0  0  0
  179.9250  179.8510  136.6080 N   0  0  0  0  0  2  0  0  0  0  0  0
  180.1380  178.7290  137.5010 C   0  0  0  0  0  2  0  0  0  0  0  0
  180.6680  180.9890  136.9930 C   0  0  0  0  0  0  0  0  0  0  0  0
  180.5560  182.0860  136.3880 O   0  0  0  0  0  0  0  0  0  0  0  0
  181.6740  180.8030  138.4440 S   0  0  0  0  0  0  0  0  0  0  0  0
  180.7120  179.2880  138.8050 C   0  0  2  0  0  3  0  0  0  0  0  0
  188.3190  176.5660  142.8440 N   0  0  0  0  0  2  0  0  0  0  0  0
  189.5800  177.2250  142.5340 C   0  0  1  0  0  3  0  0  0  0  0  0
  190.1540  177.9110  143.7840 C   0  0  0  0  0  2  0  0  0  0  0  0
  192.1170  176.3090  146.5520 C   0  0  0  0  0  2  0  0  0  0  0  0
  191.0380  176.1460  147.6250 C   0  0  0  0  0  2  0  0  0  0  0  0
  189.7360  176.8630  147.2380 C   0  0  0  0  0  2  0  0  0  0  0  0
  190.2110  177.0460  145.0480 C   0  0  2  0  0  3  0  0  0  0  0  0
  189.9550  177.7980  146.2110 O   0  0  0  0  0  0  0  0  0  0  0  0
  191.5240  176.2470  145.1430 C   0  0  0  0  0  2  0  0  0  0  0  0
  190.4890  176.2950  142.0110 O   0  0  0  0  0  0  0  0  0  0  0  0
  192.2120  177.5010  140.1990 O   0  0  0  0  0  0  0  0  0  0  0  0
  191.2020  176.8860  139.7630 C   0  0  0  0  0  0  0  0  0  0  0  0
  190.2730  176.2950  140.6720 N   0  0  0  0  0  2  0  0  0  0  0  0
  190.9560  176.7750  138.2890 C   0  0  2  0  0  3  0  0  0  0  0  0
  188.8530  179.1200  136.7550 C   0  0  0  0  0  2  0  0  0  0  0  0
  188.9120  178.1350  138.8440 C   0  0  0  0  0  2  0  0  0  0  0  0
  189.5040  177.0980  137.9050 C   0  0  1  0  0  3  0  0  0  0  0  0
  189.4500  177.7480  136.5360 C   0  0  0  0  0  2  0  0  0  0  0  0
  188.9520  179.4240  138.1710 N   0  0  0  0  0  2  0  0  0  0  0  0
  190.4130  174.4260  137.3600 C   0  0  0  0  0  1  0  0  0  0  0  0
  191.4250  175.4430  137.7640 C   0  0  0  0  0  0  0  0  0  0  0  0
  192.7220  175.1630  137.6210 C   0  0  0  0  0  2  0  0  0  0  0  0
  1  3  1  0  0  0  0
  2  1  2  0  0  0  0
  4  6  1  0  0  0  0
  5  4  2  0  0  0  0
  5  2  1  0  0  0  0
  6  7  1  0  0  0  0
  6  3  2  0  0  0  0
  8 22  1  0  0  0  0
  8 12  1  0  0  0  0
  9  8  1  0  0  0  0
 10  9  2  0  0  0  0
 10 13  1  0  0  0  0
 11  4  1  0  0  0  0
 12 14  2  0  0  0  0
 13 12  1  0  0  0  0
 14 11  2  0  0  0  0
 15 19  1  0  0  0  0
 16 17  2  0  0  0  0
 18 20  1  0  0  0  0
 18 15  1  0  0  0  0
 19 21  1  6  0  0  0
 19 17  1  0  0  0  0
 19 10  1  0  0  0  0
 20 16  1  0  0  0  0
 23 25  1  0  0  0  0
 23 24  1  0  0  0  0
 24 28  1  0  0  0  0
 25 27  1  0  0  0  0
 26 25  2  0  0  0  0
 27 28  1  0  0  0  0
 28 22  1  6  0  0  0
 29  2  1  0  0  0  0
 30 29  1  0  0  0  0
 30 31  1  1  0  0  0
 32 33  1  0  0  0  0
 34 33  1  0  0  0  0
 35 31  1  6  0  0  0
 35 37  1  0  0  0  0
 35 36  1  0  0  0  0
 36 34  1  0  0  0  0
 37 32  1  0  0  0  0
 38 30  1  0  0  0  0
 40 39  2  0  0  0  0
 40 41  1  0  0  0  0
 41 38  1  0  0  0  0
 42 49  1  1  0  0  0
 42 40  1  0  0  0  0
 43 47  1  0  0  0  0
 45 42  1  1  0  0  0
 45 44  1  0  0  0  0
 46 43  1  0  0  0  0
 46 45  1  0  0  0  0
 47 44  1  0  0  0  0
 48 49  1  0  0  0  0
 50 49  2  0  0  0  0
M  END
>  <MODEL>
3

>  <REMARK>
 VINA RESULT:      -8.5      2.732      6.593
  Name = 
  13 active torsions:
  status: ('A' for Active; 'I' for Inactive)
    1  A    between atoms: C_5  and  N_20
    2  A    between atoms: C_7  and  C_17
    3  A    between atoms: C_7  and  C_38
    4  A    between atoms: C_12  and  C_34
    5  A    between atoms: N_13  and  C_14
    6  A    between atoms: C_14  and  C_45
    7  A    between atoms: N_20  and  C_38
    8  A    between atoms: O_23  and  N_26
    9  A    between atoms: O_23  and  C_38
   10  A    between atoms: C_25  and  C_44
   11  A    between atoms: C_28  and  C_30
   12  A    between atoms: C_32  and  C_34
   13  A    between atoms: C_34  and  C_39
                            x       y       z     vdW  Elec       q    Type
                         _______ _______ _______ _____ _____    ______ ____

>  <TORSDO>
F 13

$$$$
=
 OpenBabel11062412513D

 50 55  0  0  1  0  0  0  0  0999 V2000
  184.9110  179.3610  143.1910 C   0  0  0  0  0  3  0  0  0  0  0  0
  185.0800  178.7870  141.9270 C   0  0  0  0  0  0  0  0  0  0  0  0
  183.6650  179.4890  143.7220 N   0  0  0  0  0  0  0  0  0  0  0  0
  182.6760  178.4860  141.7850 C   0  0  0  0  0  0  0  0  0  0  0  0
  183.9570  178.3460  141.2330 C   0  0  0  0  0  3  0  0  0  0  0  0
  182.5530  179.0710  143.0560 C   0  0  0  0  0  0  0  0  0  0  0  0
  181.2740  179.2330  143.6630 N   0  0  0  0  0  1  0  0  0  0  0  0
  180.6610  178.7820  137.6220 N   0  0  0  0  0  0  0  0  0  0  0  0
  180.6600  179.8660  136.7450 N   0  0  0  0  0  0  0  0  0  0  0  0
  180.6350  180.9560  137.4520 C   0  0  0  0  0  0  0  0  0  0  0  0
  181.4830  178.0290  141.0450 C   0  0  0  0  0  3  0  0  0  0  0  0
  180.6460  179.3150  138.9330 C   0  0  0  0  0  0  0  0  0  0  0  0
  180.6610  180.7330  138.8710 N   0  0  0  0  0  2  0  0  0  0  0  0
  181.0460  178.6580  139.9870 C   0  0  0  0  0  0  0  0  0  0  0  0
  181.8190  183.1530  137.5590 C   0  0  0  0  0  2  0  0  0  0  0  0
  179.2880  184.3210  136.7640 C   0  0  0  0  0  3  0  0  0  0  0  0
  179.3830  182.9980  136.9360 C   0  0  0  0  0  3  0  0  0  0  0  0
  181.6350  184.6840  137.4700 C   0  0  0  0  0  2  0  0  0  0  0  0
  180.7290  182.3230  136.8470 C   0  0  2  0  0  0  0  0  0  0  0  0
  180.5330  185.1120  136.4970 C   0  0  0  0  0  2  0  0  0  0  0  0
  181.0770  182.2050  135.5110 F   0  0  0  0  0  0  0  0  0  0  0  0
  180.7580  177.3830  137.2200 C   0  0  0  0  0  2  0  0  0  0  0  0
  183.6610  175.5150  135.8260 N   0  0  0  0  0  2  0  0  0  0  0  0
  182.5580  176.4480  135.7030 C   0  0  0  0  0  2  0  0  0  0  0  0
  183.7930  175.0130  137.1400 C   0  0  0  0  0  0  0  0  0  0  0  0
  184.7390  174.2500  137.4630 O   0  0  0  0  0  0  0  0  0  0  0  0
  182.6110  175.6140  138.3210 S   0  0  0  0  0  0  0  0  0  0  0  0
  182.2110  176.9300  137.1130 C   0  0  2  0  0  3  0  0  0  0  0  0
  186.3710  178.6250  141.3380 N   0  0  0  0  0  2  0  0  0  0  0  0
  187.6200  178.6510  142.0870 C   0  0  1  0  0  3  0  0  0  0  0  0
  187.6760  177.4860  143.0870 C   0  0  0  0  0  2  0  0  0  0  0  0
  188.3570  177.0800  146.7550 C   0  0  0  0  0  2  0  0  0  0  0  0
  189.8850  177.1640  146.7840 C   0  0  0  0  0  2  0  0  0  0  0  0
  190.4830  177.1530  145.3690 C   0  0  0  0  0  2  0  0  0  0  0  0
  188.5810  177.7030  144.3060 C   0  0  2  0  0  3  0  0  0  0  0  0
  189.5510  176.6890  144.4250 O   0  0  0  0  0  0  0  0  0  0  0  0
  187.7700  177.8950  145.6000 C   0  0  0  0  0  2  0  0  0  0  0  0
  188.7060  178.6070  141.2030 O   0  0  0  0  0  0  0  0  0  0  0  0
  189.0030  179.2450  138.5170 O   0  0  0  0  0  0  0  0  0  0  0  0
  188.5290  178.1200  138.8280 C   0  0  0  0  0  0  0  0  0  0  0  0
  188.3210  177.7800  140.1990 N   0  0  0  0  0  2  0  0  0  0  0  0
  188.1660  177.1270  137.7640 C   0  0  2  0  0  3  0  0  0  0  0  0
  190.3070  174.4070  137.2220 C   0  0  0  0  0  2  0  0  0  0  0  0
  190.6270  176.6050  137.8580 C   0  0  0  0  0  2  0  0  0  0  0  0
  189.3880  176.6280  136.9790 C   0  0  1  0  0  3  0  0  0  0  0  0
  189.1940  175.1850  136.5570 C   0  0  0  0  0  2  0  0  0  0  0  0
  190.8470  175.2330  138.2870 N   0  0  0  0  0  2  0  0  0  0  0  0
  185.7550  178.0120  137.4820 C   0  0  0  0  0  1  0  0  0  0  0  0
  187.0720  177.6630  136.8780 C   0  0  0  0  0  0  0  0  0  0  0  0
  187.2640  177.8640  135.5730 C   0  0  0  0  0  2  0  0  0  0  0  0
  1  3  1  0  0  0  0
  2  1  2  0  0  0  0
  4  6  1  0  0  0  0
  5  4  2  0  0  0  0
  5  2  1  0  0  0  0
  6  7  1  0  0  0  0
  6  3  2  0  0  0  0
  8 12  1  0  0  0  0
  9 10  2  0  0  0  0
  9  8  1  0  0  0  0
 10 13  1  0  0  0  0
 11  4  1  0  0  0  0
 12 14  2  0  0  0  0
 13 12  1  0  0  0  0
 14 11  2  0  0  0  0
 16 17  2  0  0  0  0
 18 15  1  0  0  0  0
 19 21  1  6  0  0  0
 19 17  1  0  0  0  0
 19 10  1  0  0  0  0
 19 15  1  0  0  0  0
 20 16  1  0  0  0  0
 20 18  1  0  0  0  0
 22  8  1  0  0  0  0
 23 25  1  0  0  0  0
 24 23  1  0  0  0  0
 24 28  1  0  0  0  0
 25 26  2  0  0  0  0
 25 27  1  0  0  0  0
 28 22  1  6  0  0  0
 28 27  1  0  0  0  0
 29  2  1  0  0  0  0
 29 30  1  0  0  0  0
 30 31  1  1  0  0  0
 32 33  1  0  0  0  0
 34 33  1  0  0  0  0
 35 31  1  6  0  0  0
 35 36  1  0  0  0  0
 35 37  1  0  0  0  0
 36 34  1  0  0  0  0
 37 32  1  0  0  0  0
 38 30  1  0  0  0  0
 39 40  2  0  0  0  0
 40 41  1  0  0  0  0
 41 38  1  0  0  0  0
 42 49  1  6  0  0  0
 42 40  1  0  0  0  0
 43 47  1  0  0  0  0
 44 47  1  0  0  0  0
 45 42  1  1  0  0  0
 45 44  1  0  0  0  0
 46 45  1  0  0  0  0
 46 43  1  0  0  0  0
 49 48  1  0  0  0  0
 50 49  2  0  0  0  0
M  END
>  <MODEL>
4

>  <REMARK>
 VINA RESULT:      -8.5      1.435      4.842
  Name = 
  13 active torsions:
  status: ('A' for Active; 'I' for Inactive)
    1  A    between atoms: C_5  and  N_20
    2  A    between atoms: C_7  and  C_17
    3  A    between atoms: C_7  and  C_38
    4  A    between atoms: C_12  and  C_34
    5  A    between atoms: N_13  and  C_14
    6  A    between atoms: C_14  and  C_45
    7  A    between atoms: N_20  and  C_38
    8  A    between atoms: O_23  and  N_26
    9  A    between atoms: O_23  and  C_38
   10  A    between atoms: C_25  and  C_44
   11  A    between atoms: C_28  and  C_30
   12  A    between atoms: C_32  and  C_34
   13  A    between atoms: C_34  and  C_39
                            x       y       z     vdW  Elec       q    Type
                         _______ _______ _______ _____ _____    ______ ____

>  <TORSDO>
F 13

$$$$
=
 OpenBabel11062412513D

 50 55  0  0  1  0  0  0  0  0999 V2000
  188.0020  175.7760  136.0350 C   0  0  0  0  0  3  0  0  0  0  0  0
  187.3810  176.7620  136.8080 C   0  0  0  0  0  0  0  0  0  0  0  0
  189.1890  175.2430  136.4320 N   0  0  0  0  0  0  0  0  0  0  0  0
  189.2180  176.6250  138.3880 C   0  0  0  0  0  0  0  0  0  0  0  0
  187.9940  177.1770  137.9870 C   0  0  0  0  0  3  0  0  0  0  0  0
  189.8070  175.6400  137.5780 C   0  0  0  0  0  0  0  0  0  0  0  0
  191.0500  175.0440  137.9430 N   0  0  0  0  0  1  0  0  0  0  0  0
  188.4090  177.1670  142.9180 N   0  0  0  0  0  0  0  0  0  0  0  0
  187.2160  177.5400  143.5380 N   0  0  0  0  0  0  0  0  0  0  0  0
  186.6070  178.3840  142.7610 C   0  0  0  0  0  0  0  0  0  0  0  0
  189.8750  177.0710  139.6320 C   0  0  0  0  0  3  0  0  0  0  0  0
  188.4630  177.8550  141.6830 C   0  0  0  0  0  0  0  0  0  0  0  0
  187.2890  178.6380  141.5230 N   0  0  0  0  0  2  0  0  0  0  0  0
  189.1880  177.4690  140.6690 C   0  0  0  0  0  0  0  0  0  0  0  0
  184.8720  178.6770  144.5340 C   0  0  0  0  0  2  0  0  0  0  0  0
  182.9350  178.3500  142.4020 C   0  0  0  0  0  3  0  0  0  0  0  0
  184.2420  178.2810  142.1280 C   0  0  0  0  0  3  0  0  0  0  0  0
  183.3560  178.6280  144.8290 C   0  0  0  0  0  2  0  0  0  0  0  0
  185.2410  178.9250  143.0560 C   0  0  2  0  0  0  0  0  0  0  0  0
  182.4890  179.0630  143.6440 C   0  0  0  0  0  2  0  0  0  0  0  0
  185.2360  180.2920  142.8310 F   0  0  0  0  0  0  0  0  0  0  0  0
  189.3450  176.1760  143.4390 C   0  0  0  0  0  2  0  0  0  0  0  0
  192.0550  176.2120  145.9900 N   0  0  0  0  0  2  0  0  0  0  0  0
  191.5480  175.9270  144.6630 C   0  0  0  0  0  2  0  0  0  0  0  0
  191.0810  176.8140  146.8170 C   0  0  0  0  0  0  0  0  0  0  0  0
  191.3530  177.2070  147.9810 O   0  0  0  0  0  0  0  0  0  0  0  0
  189.4920  177.0800  146.0730 S   0  0  0  0  0  0  0  0  0  0  0  0
  190.3010  176.7900  144.4570 C   0  0  2  0  0  3  0  0  0  0  0  0
  186.1310  177.3410  136.4310 N   0  0  0  0  0  2  0  0  0  0  0  0
  184.9730  176.5730  135.9960 C   0  0  1  0  0  3  0  0  0  0  0  0
  184.5670  175.5500  137.0700 C   0  0  0  0  0  2  0  0  0  0  0  0
  185.1810  171.9070  136.4140 C   0  0  0  0  0  2  0  0  0  0  0  0
  183.7500  171.3650  136.3860 C   0  0  0  0  0  2  0  0  0  0  0  0
  182.7310  172.4250  136.8340 C   0  0  0  0  0  2  0  0  0  0  0  0
  184.0880  174.1930  136.5430 C   0  0  2  0  0  3  0  0  0  0  0  0
  183.3600  173.4810  137.5160 O   0  0  0  0  0  0  0  0  0  0  0  0
  185.2410  173.3640  135.9490 C   0  0  0  0  0  2  0  0  0  0  0  0
  183.9110  177.4380  135.7010 O   0  0  0  0  0  0  0  0  0  0  0  0
  181.3250  178.4420  135.8110 O   0  0  0  0  0  0  0  0  0  0  0  0
  181.8670  178.0380  136.8740 C   0  0  0  0  0  0  0  0  0  0  0  0
  183.2120  177.5600  136.8580 N   0  0  0  0  0  2  0  0  0  0  0  0
  181.1150  178.0640  138.1700 C   0  0  2  0  0  3  0  0  0  0  0  0
  180.3920  181.2110  139.5290 C   0  0  0  0  0  2  0  0  0  0  0  0
  182.1720  180.3420  138.3400 C   0  0  0  0  0  2  0  0  0  0  0  0
  181.6100  179.1660  139.1200 C   0  0  1  0  0  3  0  0  0  0  0  0
  180.4510  179.7480  139.9050 C   0  0  0  0  0  2  0  0  0  0  0  0
  181.1590  181.3850  138.3080 N   0  0  0  0  0  2  0  0  0  0  0  0
  182.2530  176.2700  139.6410 C   0  0  0  0  0  1  0  0  0  0  0  0
  181.0950  176.6990  138.8080 C   0  0  0  0  0  0  0  0  0  0  0  0
  180.0500  175.8790  138.6730 C   0  0  0  0  0  2  0  0  0  0  0  0
  1  3  2  0  0  0  0
  1  2  1  0  0  0  0
  2  5  2  0  0  0  0
  3  6  1  0  0  0  0
  4 11  1  0  0  0  0
  5  4  1  0  0  0  0
  6  7  1  0  0  0  0
  6  4  2  0  0  0  0
  8 22  1  0  0  0  0
  8  9  1  0  0  0  0
 10 19  1  0  0  0  0
 10  9  2  0  0  0  0
 11 14  2  0  0  0  0
 12  8  1  0  0  0  0
 13 12  1  0  0  0  0
 13 10  1  0  0  0  0
 14 12  2  0  0  0  0
 15 18  1  0  0  0  0
 16 20  1  0  0  0  0
 17 16  2  0  0  0  0
 17 19  1  0  0  0  0
 19 21  1  6  0  0  0
 19 15  1  0  0  0  0
 20 18  1  0  0  0  0
 23 25  1  0  0  0  0
 24 23  1  0  0  0  0
 25 26  2  0  0  0  0
 27 25  1  0  0  0  0
 28 22  1  6  0  0  0
 28 24  1  0  0  0  0
 28 27  1  0  0  0  0
 29  2  1  0  0  0  0
 30 29  1  0  0  0  0
 30 31  1  1  0  0  0
 33 32  1  0  0  0  0
 33 34  1  0  0  0  0
 34 36  1  0  0  0  0
 35 31  1  1  0  0  0
 35 36  1  0  0  0  0
 37 32  1  0  0  0  0
 37 35  1  0  0  0  0
 38 30  1  0  0  0  0
 38 41  1  0  0  0  0
 39 40  2  0  0  0  0
 41 40  1  0  0  0  0
 42 40  1  6  0  0  0
 42 49  1  0  0  0  0
 43 46  1  0  0  0  0
 44 45  1  0  0  0  0
 45 42  1  6  0  0  0
 45 46  1  0  0  0  0
 47 44  1  0  0  0  0
 47 43  1  0  0  0  0
 49 48  1  0  0  0  0
 50 49  2  0  0  0  0
M  END
>  <MODEL>
5

>  <REMARK>
 VINA RESULT:      -8.4      3.220      9.630
  Name = 
  13 active torsions:
  status: ('A' for Active; 'I' for Inactive)
    1  A    between atoms: C_5  and  N_20
    2  A    between atoms: C_7  and  C_17
    3  A    between atoms: C_7  and  C_38
    4  A    between atoms: C_12  and  C_34
    5  A    between atoms: N_13  and  C_14
    6  A    between atoms: C_14  and  C_45
    7  A    between atoms: N_20  and  C_38
    8  A    between atoms: O_23  and  N_26
    9  A    between atoms: O_23  and  C_38
   10  A    between atoms: C_25  and  C_44
   11  A    between atoms: C_28  and  C_30
   12  A    between atoms: C_32  and  C_34
   13  A    between atoms: C_34  and  C_39
                            x       y       z     vdW  Elec       q    Type
                         _______ _______ _______ _____ _____    ______ ____

>  <TORSDO>
F 13

$$$$
=
 OpenBabel11062412513D

 50 55  0  0  1  0  0  0  0  0999 V2000
  183.2060  179.2740  144.1960 C   0  0  0  0  0  3  0  0  0  0  0  0
  184.0190  178.9130  143.1180 C   0  0  0  0  0  0  0  0  0  0  0  0
  183.6400  179.0870  145.4720 N   0  0  0  0  0  0  0  0  0  0  0  0
  185.7140  178.1780  144.6920 C   0  0  0  0  0  0  0  0  0  0  0  0
  185.2750  178.3700  143.3740 C   0  0  0  0  0  3  0  0  0  0  0  0
  184.8620  178.5520  145.7440 C   0  0  0  0  0  0  0  0  0  0  0  0
  185.2620  178.3800  147.1020 N   0  0  0  0  0  1  0  0  0  0  0  0
  190.0450  178.0890  143.0460 N   0  0  0  0  0  0  0  0  0  0  0  0
  190.4580  178.1360  141.7140 N   0  0  0  0  0  0  0  0  0  0  0  0
  189.5790  177.5010  140.9990 C   0  0  0  0  0  0  0  0  0  0  0  0
  187.0410  177.5930  144.9660 C   0  0  0  0  0  3  0  0  0  0  0  0
  188.8240  177.3740  143.0720 C   0  0  0  0  0  0  0  0  0  0  0  0
  188.4650  176.9980  141.7510 N   0  0  0  0  0  2  0  0  0  0  0  0
  187.9470  177.4730  144.0330 C   0  0  0  0  0  0  0  0  0  0  0  0
  188.3260  176.8560  138.9360 C   0  0  0  0  0  2  0  0  0  0  0  0
  190.9100  176.1240  137.8440 C   0  0  0  0  0  3  0  0  0  0  0  0
  190.8270  176.5970  139.0930 C   0  0  0  0  0  3  0  0  0  0  0  0
  188.4510  176.1920  137.5460 C   0  0  0  0  0  2  0  0  0  0  0  0
  189.6410  177.4330  139.5030 C   0  0  2  0  0  0  0  0  0  0  0  0
  189.8070  176.4290  136.8760 C   0  0  0  0  0  2  0  0  0  0  0  0
  189.8060  178.7120  138.9970 F   0  0  0  0  0  0  0  0  0  0  0  0
  190.7260  178.7500  144.1540 C   0  0  0  0  0  2  0  0  0  0  0  0
  191.9930  175.4270  145.2510 N   0  0  0  0  0  2  0  0  0  0  0  0
  191.7220  176.4240  144.2350 C   0  0  0  0  0  2  0  0  0  0  0  0
  191.6390  175.8720  146.5450 C   0  0  0  0  0  0  0  0  0  0  0  0
  191.8710  175.1790  147.5680 O   0  0  0  0  0  0  0  0  0  0  0  0
  190.9560  177.5080  146.6400 S   0  0  0  0  0  0  0  0  0  0  0  0
  191.5910  177.7730  144.9440 C   0  0  2  0  0  3  0  0  0  0  0  0
  183.6050  179.1000  141.7640 N   0  0  0  0  0  2  0  0  0  0  0  0
  182.7260  178.1890  141.0450 C   0  0  1  0  0  3  0  0  0  0  0  0
  181.5000  178.9370  140.4970 C   0  0  0  0  0  2  0  0  0  0  0  0
  179.9280  178.2610  143.8360 C   0  0  0  0  0  2  0  0  0  0  0  0
  178.9600  179.4400  143.9530 C   0  0  0  0  0  2  0  0  0  0  0  0
  179.1800  180.4710  142.8340 C   0  0  0  0  0  2  0  0  0  0  0  0
  180.3320  179.0990  141.4760 C   0  0  2  0  0  3  0  0  0  0  0  0
  180.4300  180.2930  142.2170 O   0  0  0  0  0  0  0  0  0  0  0  0
  180.1570  177.8630  142.3770 C   0  0  0  0  0  2  0  0  0  0  0  0
  183.4330  177.5610  140.0110 O   0  0  0  0  0  0  0  0  0  0  0  0
  183.9580  176.0340  137.7520 O   0  0  0  0  0  0  0  0  0  0  0  0
  182.9810  175.7220  138.4850 C   0  0  0  0  0  0  0  0  0  0  0  0
  182.6580  176.5150  139.6280 N   0  0  0  0  0  2  0  0  0  0  0  0
  182.1390  174.5240  138.1640 C   0  0  2  0  0  3  0  0  0  0  0  0
  182.0400  171.5220  136.3610 C   0  0  0  0  0  2  0  0  0  0  0  0
  183.7420  172.8740  137.1410 C   0  0  0  0  0  2  0  0  0  0  0  0
  182.5830  173.8190  136.8720 C   0  0  1  0  0  3  0  0  0  0  0  0
  181.4750  172.9240  136.3510 C   0  0  0  0  0  2  0  0  0  0  0  0
  183.2110  171.5230  137.2180 N   0  0  0  0  0  2  0  0  0  0  0  0
  180.1290  175.7320  137.0800 C   0  0  0  0  0  1  0  0  0  0  0  0
  180.6750  174.8780  138.1710 C   0  0  0  0  0  0  0  0  0  0  0  0
  179.8490  174.4180  139.1130 C   0  0  0  0  0  2  0  0  0  0  0  0
  1  3  1  0  0  0  0
  2  5  1  0  0  0  0
  2  1  2  0  0  0  0
  3  6  2  0  0  0  0
  4 11  1  0  0  0  0
  4  6  1  0  0  0  0
  5  4  2  0  0  0  0
  6  7  1  0  0  0  0
  8 12  1  0  0  0  0
  8 22  1  0  0  0  0
  9  8  1  0  0  0  0
 10  9  2  0  0  0  0
 10 13  1  0  0  0  0
 12 14  2  0  0  0  0
 13 12  1  0  0  0  0
 14 11  2  0  0  0  0
 15 19  1  0  0  0  0
 16 17  2  0  0  0  0
 17 19  1  0  0  0  0
 18 15  1  0  0  0  0
 19 21  1  6  0  0  0
 19 10  1  0  0  0  0
 20 18  1  0  0  0  0
 20 16  1  0  0  0  0
 23 25  1  0  0  0  0
 24 28  1  0  0  0  0
 24 23  1  0  0  0  0
 25 27  1  0  0  0  0
 25 26  2  0  0  0  0
 28 22  1  6  0  0  0
 28 27  1  0  0  0  0
 29  2  1  0  0  0  0
 30 31  1  6  0  0  0
 30 29  1  0  0  0  0
 32 33  1  0  0  0  0
 34 33  1  0  0  0  0
 35 31  1  1  0  0  0
 35 36  1  0  0  0  0
 35 37  1  0  0  0  0
 36 34  1  0  0  0  0
 37 32  1  0  0  0  0
 38 30  1  0  0  0  0
 39 40  2  0  0  0  0
 40 41  1  0  0  0  0
 41 38  1  0  0  0  0
 42 49  1  6  0  0  0
 42 40  1  0  0  0  0
 43 47  1  0  0  0  0
 44 47  1  0  0  0  0
 45 44  1  0  0  0  0
 45 42  1  1  0  0  0
 46 43  1  0  0  0  0
 46 45  1  0  0  0  0
 48 49  1  0  0  0  0
 49 50  2  0  0  0  0
M  END
>  <MODEL>
6

>  <REMARK>
 VINA RESULT:      -8.3      3.957      9.944
  Name = 
  13 active torsions:
  status: ('A' for Active; 'I' for Inactive)
    1  A    between atoms: C_5  and  N_20
    2  A    between atoms: C_7  and  C_17
    3  A    between atoms: C_7  and  C_38
    4  A    between atoms: C_12  and  C_34
    5  A    between atoms: N_13  and  C_14
    6  A    between atoms: C_14  and  C_45
    7  A    between atoms: N_20  and  C_38
    8  A    between atoms: O_23  and  N_26
    9  A    between atoms: O_23  and  C_38
   10  A    between atoms: C_25  and  C_44
   11  A    between atoms: C_28  and  C_30
   12  A    between atoms: C_32  and  C_34
   13  A    between atoms: C_34  and  C_39
                            x       y       z     vdW  Elec       q    Type
                         _______ _______ _______ _____ _____    ______ ____

>  <TORSDO>
F 13

$$$$
=
 OpenBabel11062412513D

 50 55  0  0  1  0  0  0  0  0999 V2000
  182.5780  179.3790  142.6860 C   0  0  0  0  0  3  0  0  0  0  0  0
  183.4130  178.7120  141.7850 C   0  0  0  0  0  0  0  0  0  0  0  0
  182.8860  179.4100  144.0100 N   0  0  0  0  0  0  0  0  0  0  0  0
  184.8720  178.1240  143.6340 C   0  0  0  0  0  0  0  0  0  0  0  0
  184.5630  178.0920  142.2670 C   0  0  0  0  0  3  0  0  0  0  0  0
  184.0020  178.8030  144.5020 C   0  0  0  0  0  0  0  0  0  0  0  0
  184.2730  178.8680  145.9010 N   0  0  0  0  0  1  0  0  0  0  0  0
  189.4620  177.9690  143.0130 N   0  0  0  0  0  0  0  0  0  0  0  0
  190.1710  178.1060  141.8200 N   0  0  0  0  0  0  0  0  0  0  0  0
  189.4650  177.5730  140.8690 C   0  0  0  0  0  0  0  0  0  0  0  0
  186.0850  177.4570  144.1480 C   0  0  0  0  0  3  0  0  0  0  0  0
  188.2490  177.3120  142.6960 C   0  0  0  0  0  0  0  0  0  0  0  0
  188.1940  177.0630  141.3000 N   0  0  0  0  0  2  0  0  0  0  0  0
  187.1780  177.3720  143.4380 C   0  0  0  0  0  0  0  0  0  0  0  0
  189.2040  178.8310  138.7260 C   0  0  0  0  0  2  0  0  0  0  0  0
  189.4450  176.2520  137.4230 C   0  0  0  0  0  3  0  0  0  0  0  0
  189.4880  176.3280  138.7580 C   0  0  0  0  0  3  0  0  0  0  0  0
  189.0380  178.6860  137.1970 C   0  0  0  0  0  2  0  0  0  0  0  0
  189.8670  177.6250  139.4270 C   0  0  2  0  0  0  0  0  0  0  0  0
  189.7680  177.4730  136.6150 C   0  0  0  0  0  2  0  0  0  0  0  0
  191.2420  177.7790  139.3440 F   0  0  0  0  0  0  0  0  0  0  0  0
  189.8860  178.5050  144.3020 C   0  0  0  0  0  2  0  0  0  0  0  0
  190.1520  177.0850  147.7320 N   0  0  0  0  0  2  0  0  0  0  0  0
  189.4920  177.8940  146.7280 C   0  0  0  0  0  2  0  0  0  0  0  0
  191.3030  176.4390  147.2270 C   0  0  0  0  0  0  0  0  0  0  0  0
  191.9670  175.6310  147.9260 O   0  0  0  0  0  0  0  0  0  0  0  0
  191.6810  176.7530  145.5210 S   0  0  0  0  0  0  0  0  0  0  0  0
  189.9800  177.4100  145.3610 C   0  0  2  0  0  3  0  0  0  0  0  0
  183.1310  178.6640  140.3860 N   0  0  0  0  0  2  0  0  0  0  0  0
  181.9370  178.0580  139.8140 C   0  0  1  0  0  3  0  0  0  0  0  0
  181.6930  178.5800  138.3890 C   0  0  0  0  0  2  0  0  0  0  0  0
  179.6860  181.3340  139.9580 C   0  0  0  0  0  2  0  0  0  0  0  0
  179.4490  182.2510  138.7560 C   0  0  0  0  0  2  0  0  0  0  0  0
  180.2680  181.8100  137.5330 C   0  0  0  0  0  2  0  0  0  0  0  0
  180.6830  179.7260  138.2680 C   0  0  2  0  0  3  0  0  0  0  0  0
  181.3060  180.9360  137.9030 O   0  0  0  0  0  0  0  0  0  0  0  0
  179.8180  179.8700  139.5330 C   0  0  0  0  0  2  0  0  0  0  0  0
  182.0600  176.6620  139.8230 O   0  0  0  0  0  0  0  0  0  0  0  0
  181.8490  174.7260  137.8440 O   0  0  0  0  0  0  0  0  0  0  0  0
  182.9040  175.4130  137.9150 C   0  0  0  0  0  0  0  0  0  0  0  0
  183.0610  176.3830  138.9500 N   0  0  0  0  0  2  0  0  0  0  0  0
  184.0110  175.2130  136.9240 C   0  0  2  0  0  3  0  0  0  0  0  0
  186.2410  172.6650  136.0230 C   0  0  0  0  0  2  0  0  0  0  0  0
  184.5530  172.8460  137.5900 C   0  0  0  0  0  2  0  0  0  0  0  0
  185.0990  174.2560  137.4370 C   0  0  1  0  0  3  0  0  0  0  0  0
  186.2120  174.1250  136.4160 C   0  0  0  0  0  2  0  0  0  0  0  0
  184.9820  172.0710  136.4370 N   0  0  0  0  0  2  0  0  0  0  0  0
  185.6870  177.1590  137.2050 C   0  0  0  0  0  1  0  0  0  0  0  0
  184.5590  176.5360  136.4560 C   0  0  0  0  0  0  0  0  0  0  0  0
  184.0820  177.1460  135.3690 C   0  0  0  0  0  2  0  0  0  0  0  0
  1  3  1  0  0  0  0
  2  5  1  0  0  0  0
  2  1  2  0  0  0  0
  3  6  2  0  0  0  0
  4 11  1  0  0  0  0
  4  6  1  0  0  0  0
  5  4  2  0  0  0  0
  6  7  1  0  0  0  0
  8 22  1  0  0  0  0
  9  8  1  0  0  0  0
 10 13  1  0  0  0  0
 10  9  2  0  0  0  0
 12  8  1  0  0  0  0
 12 14  2  0  0  0  0
 13 12  1  0  0  0  0
 14 11  2  0  0  0  0
 15 19  1  0  0  0  0
 16 17  2  0  0  0  0
 17 19  1  0  0  0  0
 18 15  1  0  0  0  0
 19 21  1  6  0  0  0
 19 10  1  0  0  0  0
 20 18  1  0  0  0  0
 20 16  1  0  0  0  0
 24 23  1  0  0  0  0
 25 23  1  0  0  0  0
 25 26  2  0  0  0  0
 27 25  1  0  0  0  0
 28 22  1  6  0  0  0
 28 27  1  0  0  0  0
 28 24  1  0  0  0  0
 29  2  1  0  0  0  0
 30 31  1  6  0  0  0
 30 38  1  0  0  0  0
 30 29  1  0  0  0  0
 33 32  1  0  0  0  0
 34 36  1  0  0  0  0
 34 33  1  0  0  0  0
 35 31  1  1  0  0  0
 35 37  1  0  0  0  0
 36 35  1  0  0  0  0
 37 32  1  0  0  0  0
 39 40  2  0  0  0  0
 40 41  1  0  0  0  0
 41 38  1  0  0  0  0
 42 49  1  1  0  0  0
 42 40  1  0  0  0  0
 43 46  1  0  0  0  0
 43 47  1  0  0  0  0
 45 42  1  6  0  0  0
 45 44  1  0  0  0  0
 46 45  1  0  0  0  0
 47 44  1  0  0  0  0
 49 48  1  0  0  0  0
 50 49  2  0  0  0  0
M  END
>  <MODEL>
7

>  <REMARK>
 VINA RESULT:      -8.2      3.433      9.397
  Name = 
  13 active torsions:
  status: ('A' for Active; 'I' for Inactive)
    1  A    between atoms: C_5  and  N_20
    2  A    between atoms: C_7  and  C_17
    3  A    between atoms: C_7  and  C_38
    4  A    between atoms: C_12  and  C_34
    5  A    between atoms: N_13  and  C_14
    6  A    between atoms: C_14  and  C_45
    7  A    between atoms: N_20  and  C_38
    8  A    between atoms: O_23  and  N_26
    9  A    between atoms: O_23  and  C_38
   10  A    between atoms: C_25  and  C_44
   11  A    between atoms: C_28  and  C_30
   12  A    between atoms: C_32  and  C_34
   13  A    between atoms: C_34  and  C_39
                            x       y       z     vdW  Elec       q    Type
                         _______ _______ _______ _____ _____    ______ ____

>  <TORSDO>
F 13

$$$$
=
 OpenBabel11062412513D

 50 55  0  0  1  0  0  0  0  0999 V2000
  183.0860  179.3690  143.8380 C   0  0  0  0  0  3  0  0  0  0  0  0
  183.7390  178.7750  142.7540 C   0  0  0  0  0  0  0  0  0  0  0  0
  183.6670  179.3710  145.0680 N   0  0  0  0  0  0  0  0  0  0  0  0
  185.5800  178.2010  144.2270 C   0  0  0  0  0  0  0  0  0  0  0  0
  184.9890  178.1980  142.9550 C   0  0  0  0  0  3  0  0  0  0  0  0
  184.8870  178.8060  145.2880 C   0  0  0  0  0  0  0  0  0  0  0  0
  185.4450  178.8380  146.5990 N   0  0  0  0  0  1  0  0  0  0  0  0
  189.8690  178.0940  142.4740 N   0  0  0  0  0  0  0  0  0  0  0  0
  190.2510  178.1860  141.1360 N   0  0  0  0  0  0  0  0  0  0  0  0
  189.3430  177.5970  140.4170 C   0  0  0  0  0  0  0  0  0  0  0  0
  186.9010  177.5790  144.4450 C   0  0  0  0  0  3  0  0  0  0  0  0
  188.6340  177.4020  142.5010 C   0  0  0  0  0  0  0  0  0  0  0  0
  188.2360  177.0870  141.1760 N   0  0  0  0  0  2  0  0  0  0  0  0
  187.7830  177.4790  143.4860 C   0  0  0  0  0  0  0  0  0  0  0  0
  189.0570  178.9960  138.3670 C   0  0  0  0  0  2  0  0  0  0  0  0
  187.9840  176.6020  137.1340 C   0  0  0  0  0  3  0  0  0  0  0  0
  188.3780  176.5710  138.4120 C   0  0  0  0  0  3  0  0  0  0  0  0
  188.4780  179.0220  136.9350 C   0  0  0  0  0  2  0  0  0  0  0  0
  189.3680  177.5890  138.9190 C   0  0  2  0  0  0  0  0  0  0  0  0
  188.5320  177.6640  136.2290 C   0  0  0  0  0  2  0  0  0  0  0  0
  190.6340  177.2260  138.4880 F   0  0  0  0  0  0  0  0  0  0  0  0
  190.5890  178.6960  143.5910 C   0  0  0  0  0  2  0  0  0  0  0  0
  192.0560  175.3780  144.4250 N   0  0  0  0  0  2  0  0  0  0  0  0
  191.5920  176.3740  143.4790 C   0  0  0  0  0  2  0  0  0  0  0  0
  191.9510  175.8220  145.7630 C   0  0  0  0  0  0  0  0  0  0  0  0
  192.3760  175.1300  146.7230 O   0  0  0  0  0  0  0  0  0  0  0  0
  191.2910  177.4550  145.9870 S   0  0  0  0  0  0  0  0  0  0  0  0
  191.5920  177.7230  144.2020 C   0  0  2  0  0  3  0  0  0  0  0  0
  183.1680  178.7590  141.4450 N   0  0  0  0  0  2  0  0  0  0  0  0
  183.7590  178.0750  140.3040 C   0  0  1  0  0  3  0  0  0  0  0  0
  183.0370  176.7450  140.0360 C   0  0  0  0  0  2  0  0  0  0  0  0
  182.6000  174.2490  137.2690 C   0  0  0  0  0  2  0  0  0  0  0  0
  181.7480  175.0480  136.2800 C   0  0  0  0  0  2  0  0  0  0  0  0
  181.2640  176.3750  136.8870 C   0  0  0  0  0  2  0  0  0  0  0  0
  182.7620  176.4250  138.5630 C   0  0  2  0  0  3  0  0  0  0  0  0
  181.3820  176.3670  138.2880 O   0  0  0  0  0  0  0  0  0  0  0  0
  183.5070  175.1610  138.0970 C   0  0  0  0  0  2  0  0  0  0  0  0
  183.7170  178.9040  139.1750 O   0  0  0  0  0  0  0  0  0  0  0  0
  181.6750  179.6830  137.4630 O   0  0  0  0  0  0  0  0  0  0  0  0
  181.7620  180.2290  138.5960 C   0  0  0  0  0  0  0  0  0  0  0  0
  182.8280  179.8830  139.4800 N   0  0  0  0  0  2  0  0  0  0  0  0
  180.7570  181.2540  139.0270 C   0  0  2  0  0  3  0  0  0  0  0  0
  179.4250  179.5900  141.8080 C   0  0  0  0  0  2  0  0  0  0  0  0
  179.5480  179.1090  139.5520 C   0  0  0  0  0  2  0  0  0  0  0  0
  179.4890  180.6250  139.6270 C   0  0  1  0  0  3  0  0  0  0  0  0
  179.3970  180.9300  141.1090 C   0  0  0  0  0  2  0  0  0  0  0  0
  179.9290  178.6090  140.8630 N   0  0  0  0  0  2  0  0  0  0  0  0
  179.1970  182.0840  137.1420 C   0  0  0  0  0  1  0  0  0  0  0  0
  180.4650  182.2240  137.9120 C   0  0  0  0  0  0  0  0  0  0  0  0
  181.2990  183.2240  137.6180 C   0  0  0  0  0  2  0  0  0  0  0  0
  1  3  1  0  0  0  0
  2  5  1  0  0  0  0
  2  1  2  0  0  0  0
  3  6  2  0  0  0  0
  4 11  1  0  0  0  0
  4  6  1  0  0  0  0
  5  4  2  0  0  0  0
  6  7  1  0  0  0  0
  8 12  1  0  0  0  0
  8 22  1  0  0  0  0
  9  8  1  0  0  0  0
 10  9  2  0  0  0  0
 10 13  1  0  0  0  0
 12 14  2  0  0  0  0
 13 12  1  0  0  0  0
 14 11  2  0  0  0  0
 15 19  1  0  0  0  0
 16 17  2  0  0  0  0
 17 19  1  0  0  0  0
 18 15  1  0  0  0  0
 19 21  1  6  0  0  0
 19 10  1  0  0  0  0
 20 18  1  0  0  0  0
 20 16  1  0  0  0  0
 23 25  1  0  0  0  0
 24 28  1  0  0  0  0
 24 23  1  0  0  0  0
 25 27  1  0  0  0  0
 25 26  2  0  0  0  0
 28 22  1  6  0  0  0
 28 27  1  0  0  0  0
 29  2  1  0  0  0  0
 30 31  1  6  0  0  0
 30 29  1  0  0  0  0
 32 37  1  0  0  0  0
 33 34  1  0  0  0  0
 33 32  1  0  0  0  0
 34 36  1  0  0  0  0
 35 31  1  1  0  0  0
 36 35  1  0  0  0  0
 37 35  1  0  0  0  0
 38 41  1  0  0  0  0
 38 30  1  0  0  0  0
 39 40  2  0  0  0  0
 40 42  1  0  0  0  0
 40 41  1  0  0  0  0
 42 49  1  6  0  0  0
 44 45  1  0  0  0  0
 44 47  1  0  0  0  0
 45 42  1  1  0  0  0
 45 46  1  0  0  0  0
 46 43  1  0  0  0  0
 47 43  1  0  0  0  0
 48 49  1  0  0  0  0
 50 49  2  0  0  0  0
M  END
>  <MODEL>
8

>  <REMARK>
 VINA RESULT:      -8.1      3.362      9.455
  Name = 
  13 active torsions:
  status: ('A' for Active; 'I' for Inactive)
    1  A    between atoms: C_5  and  N_20
    2  A    between atoms: C_7  and  C_17
    3  A    between atoms: C_7  and  C_38
    4  A    between atoms: C_12  and  C_34
    5  A    between atoms: N_13  and  C_14
    6  A    between atoms: C_14  and  C_45
    7  A    between atoms: N_20  and  C_38
    8  A    between atoms: O_23  and  N_26
    9  A    between atoms: O_23  and  C_38
   10  A    between atoms: C_25  and  C_44
   11  A    between atoms: C_28  and  C_30
   12  A    between atoms: C_32  and  C_34
   13  A    between atoms: C_34  and  C_39
                            x       y       z     vdW  Elec       q    Type
                         _______ _______ _______ _____ _____    ______ ____

>  <TORSDO>
F 13

$$$$
=
 OpenBabel11062412513D

 50 55  0  0  1  0  0  0  0  0999 V2000
  183.9990  175.4110  136.7030 C   0  0  0  0  0  3  0  0  0  0  0  0
  183.8570  176.8020  136.7140 C   0  0  0  0  0  0  0  0  0  0  0  0
  185.2330  174.8490  136.8130 N   0  0  0  0  0  0  0  0  0  0  0  0
  186.2630  177.0070  136.9580 C   0  0  0  0  0  0  0  0  0  0  0  0
  184.9940  177.5930  136.8480 C   0  0  0  0  0  3  0  0  0  0  0  0
  186.3580  175.6060  136.9390 C   0  0  0  0  0  0  0  0  0  0  0  0
  187.6240  174.9600  137.0510 N   0  0  0  0  0  1  0  0  0  0  0  0
  190.2090  177.3220  139.3660 N   0  0  0  0  0  0  0  0  0  0  0  0
  190.4290  176.9810  140.7010 N   0  0  0  0  0  0  0  0  0  0  0  0
  189.3490  177.2540  141.3690 C   0  0  0  0  0  0  0  0  0  0  0  0
  187.4710  177.8440  137.0890 C   0  0  0  0  0  3  0  0  0  0  0  0
  188.8860  177.8180  139.2820 C   0  0  0  0  0  0  0  0  0  0  0  0
  188.2750  177.7610  140.5620 N   0  0  0  0  0  2  0  0  0  0  0  0
  188.1930  177.8470  138.1780 C   0  0  0  0  0  0  0  0  0  0  0  0
  187.6970  177.0320  143.2310 C   0  0  0  0  0  2  0  0  0  0  0  0
  189.8300  177.9690  144.9570 C   0  0  0  0  0  3  0  0  0  0  0  0
  190.0450  177.8480  143.6420 C   0  0  0  0  0  3  0  0  0  0  0  0
  187.4530  177.3020  144.7320 C   0  0  0  0  0  2  0  0  0  0  0  0
  189.1820  176.9230  142.8210 C   0  0  2  0  0  0  0  0  0  0  0  0
  188.7180  177.1850  145.5870 C   0  0  0  0  0  2  0  0  0  0  0  0
  189.5970  175.6200  143.0400 F   0  0  0  0  0  0  0  0  0  0  0  0
  191.1590  177.1010  138.2820 C   0  0  0  0  0  2  0  0  0  0  0  0
  192.2920  173.8270  136.9190 N   0  0  0  0  0  2  0  0  0  0  0  0
  192.2250  174.8250  137.9680 C   0  0  0  0  0  2  0  0  0  0  0  0
  191.5460  174.1990  135.7780 C   0  0  0  0  0  0  0  0  0  0  0  0
  191.4180  173.4290  134.7930 O   0  0  0  0  0  0  0  0  0  0  0  0
  190.7140  175.7650  135.8750 S   0  0  0  0  0  0  0  0  0  0  0  0
  191.0080  175.7060  137.6800 C   0  0  2  0  0  3  0  0  0  0  0  0
  182.5790  177.4320  136.6090 N   0  0  0  0  0  2  0  0  0  0  0  0
  181.9060  178.1030  137.7120 C   0  0  1  0  0  3  0  0  0  0  0  0
  180.4760  178.5000  137.3130 C   0  0  0  0  0  2  0  0  0  0  0  0
  181.2830  182.0170  138.3400 C   0  0  0  0  0  2  0  0  0  0  0  0
  180.7410  182.8080  137.1470 C   0  0  0  0  0  2  0  0  0  0  0  0
  180.3220  181.8820  135.9940 C   0  0  0  0  0  2  0  0  0  0  0  0
  180.2070  180.0070  137.2290 C   0  0  2  0  0  3  0  0  0  0  0  0
  180.8790  180.5990  136.1420 O   0  0  0  0  0  0  0  0  0  0  0  0
  180.5010  180.7210  138.5610 C   0  0  0  0  0  2  0  0  0  0  0  0
  181.9000  177.2740  138.8420 O   0  0  0  0  0  0  0  0  0  0  0  0
  180.2260  177.4900  141.0470 O   0  0  0  0  0  0  0  0  0  0  0  0
  181.3020  178.1470  141.0300 C   0  0  0  0  0  0  0  0  0  0  0  0
  182.1600  178.0930  139.8910 N   0  0  0  0  0  2  0  0  0  0  0  0
  181.6890  179.0030  142.1990 C   0  0  2  0  0  3  0  0  0  0  0  0
  184.6480  179.6880  143.9450 C   0  0  0  0  0  2  0  0  0  0  0  0
  184.0980  178.2730  142.2040 C   0  0  0  0  0  2  0  0  0  0  0  0
  182.8280  178.3910  143.0290 C   0  0  1  0  0  3  0  0  0  0  0  0
  183.2020  179.3110  144.1740 C   0  0  0  0  0  2  0  0  0  0  0  0
  184.9720  179.3780  142.5640 N   0  0  0  0  0  2  0  0  0  0  0  0
  180.0600  178.4530  144.1280 C   0  0  0  0  0  1  0  0  0  0  0  0
  180.4820  179.3620  143.0260 C   0  0  0  0  0  0  0  0  0  0  0  0
  179.8010  180.4910  142.8170 C   0  0  0  0  0  2  0  0  0  0  0  0
  1  2  2  0  0  0  0
  1  3  1  0  0  0  0
  2  5  1  0  0  0  0
  3  6  2  0  0  0  0
  4 11  1  0  0  0  0
  5  4  2  0  0  0  0
  6  4  1  0  0  0  0
  6  7  1  0  0  0  0
  8  9  1  0  0  0  0
  9 10  2  0  0  0  0
 10 19  1  0  0  0  0
 11 14  2  0  0  0  0
 12  8  1  0  0  0  0
 12 13  1  0  0  0  0
 13 10  1  0  0  0  0
 14 12  2  0  0  0  0
 15 18  1  0  0  0  0
 16 20  1  0  0  0  0
 17 16  2  0  0  0  0
 18 20  1  0  0  0  0
 19 21  1  1  0  0  0
 19 15  1  0  0  0  0
 19 17  1  0  0  0  0
 22  8  1  0  0  0  0
 23 24  1  0  0  0  0
 25 27  1  0  0  0  0
 25 23  1  0  0  0  0
 26 25  2  0  0  0  0
 27 28  1  0  0  0  0
 28 24  1  0  0  0  0
 28 22  1  6  0  0  0
 29  2  1  0  0  0  0
 29 30  1  0  0  0  0
 30 31  1  6  0  0  0
 30 38  1  0  0  0  0
 32 37  1  0  0  0  0
 33 32  1  0  0  0  0
 34 36  1  0  0  0  0
 34 33  1  0  0  0  0
 35 31  1  1  0  0  0
 35 37  1  0  0  0  0
 36 35  1  0  0  0  0
 38 41  1  0  0  0  0
 40 39  2  0  0  0  0
 41 40  1  0  0  0  0
 42 40  1  6  0  0  0
 42 49  1  0  0  0  0
 43 46  1  0  0  0  0
 44 47  1  0  0  0  0
 44 45  1  0  0  0  0
 45 42  1  6  0  0  0
 45 46  1  0  0  0  0
 47 43  1  0  0  0  0
 49 48  1  0  0  0  0
 50 49  2  0  0  0  0
M  END
>  <MODEL>
9

>  <REMARK>
 VINA RESULT:      -8.1      3.477      9.200
  Name = 
  13 active torsions:
  status: ('A' for Active; 'I' for Inactive)
    1  A    between atoms: C_5  and  N_20
    2  A    between atoms: C_7  and  C_17
    3  A    between atoms: C_7  and  C_38
    4  A    between atoms: C_12  and  C_34
    5  A    between atoms: N_13  and  C_14
    6  A    between atoms: C_14  and  C_45
    7  A    between atoms: N_20  and  C_38
    8  A    between atoms: O_23  and  N_26
    9  A    between atoms: O_23  and  C_38
   10  A    between atoms: C_25  and  C_44
   11  A    between atoms: C_28  and  C_30
   12  A    between atoms: C_32  and  C_34
   13  A    between atoms: C_34  and  C_39
                            x       y       z     vdW  Elec       q    Type
                         _______ _______ _______ _____ _____    ______ ____

>  <TORSDO>
F 13

$$$$
