=
 OpenBabel11062416173D

 44 50  0  0  1  0  0  0  0  0999 V2000
  185.8400  178.4850  138.8750 C   0  0  0  0  0  0  0  0  0  0  0  0
  187.9140  177.7780  138.5390 C   0  0  0  0  0  0  0  0  0  0  0  0
  186.7180  178.7730  141.8550 N   0  0  0  0  0  0  0  0  0  0  0  0
  184.6630  178.9320  139.4560 C   0  0  0  0  0  0  0  0  0  0  0  0
  189.6460  177.1180  140.1770 C   0  0  0  0  0  2  0  0  0  0  0  0
  187.2440  177.8070  137.3360 C   0  0  0  0  0  3  0  0  0  0  0  0
  185.9790  178.2390  137.5490 N   0  0  0  0  0  0  0  0  0  0  0  0
  189.2550  177.3650  138.7870 N   0  0  0  0  0  2  0  0  0  0  0  0
  184.5150  179.1900  140.8220 C   0  0  0  0  0  3  0  0  0  0  0  0
  185.4040  179.1180  141.8980 C   0  0  0  0  0  0  0  0  0  0  0  0
  188.9840  178.1290  141.1390 C   0  0  0  0  0  2  0  0  0  0  0  0
  187.0880  178.2030  139.5360 C   0  0  0  0  0  0  0  0  0  0  0  0
  187.5140  178.3480  140.8460 C   0  0  0  0  0  0  0  0  0  0  0  0
  182.0430  177.9980  136.9050 O   0  0  0  0  0  0  0  0  0  0  0  0
  182.8340  177.8280  138.0770 C   0  0  2  0  0  3  0  0  0  0  0  0
  178.9310  182.3370  138.5660 C   0  0  0  0  0  2  0  0  0  0  0  0
  181.6390  180.7480  138.0200 C   0  0  2  0  0  3  0  0  0  0  0  0
  180.8940  183.0080  137.0320 C   0  0  1  0  0  3  0  0  0  0  0  0
  179.3920  182.6930  137.1470 C   0  0  0  0  0  2  0  0  0  0  0  0
  180.0510  176.6080  137.1300 C   0  0  0  0  0  1  0  0  0  0  0  0
  182.4820  180.1500  139.1430 C   0  0  0  0  0  2  0  0  0  0  0  0
  182.2850  176.9050  139.1740 C   0  0  0  0  0  1  0  0  0  0  0  0
  181.1050  184.4990  137.1840 C   0  0  0  0  0  1  0  0  0  0  0  0
  180.6330  178.0120  137.1180 C   0  0  1  0  0  3  0  0  0  0  0  0
  181.7760  182.2790  138.0510 C   0  0  0  0  0  2  0  0  0  0  0  0
  180.1360  178.8480  138.3010 C   0  0  0  0  0  2  0  0  0  0  0  0
  183.4700  179.1450  138.5600 C   0  0  1  0  0  3  0  0  0  0  0  0
  180.2320  180.2800  138.0280 N   0  0  1  0  0  0  0  0  0  0  0  0
  179.4480  180.9720  139.0560 C   0  0  0  0  0  2  0  0  0  0  0  0
  184.8420  179.5170  143.2180 C   0  0  0  0  0  2  0  0  0  0  0  0
  183.8370  178.6350  145.1540 C   0  0  0  0  0  2  0  0  0  0  0  0
  185.2290  178.9590  145.4490 C   0  0  2  0  0  3  0  0  0  0  0  0
  184.8750  178.3930  144.1370 N   0  0  0  0  0  0  0  0  0  0  0  0
  185.8340  177.8730  146.3260 C   0  0  0  0  0  2  0  0  0  0  0  0
  188.1500  177.7500  145.5190 C   0  0  0  0  0  3  0  0  0  0  0  0
  187.3060  178.0800  146.5130 C   0  0  0  0  0  0  0  0  0  0  0  0
  189.6340  177.9650  145.5770 C   0  0  1  0  0  3  0  0  0  0  0  0
  190.2630  176.7940  146.3080 C   0  0  0  0  0  1  0  0  0  0  0  0
  192.0450  177.0480  142.8450 C   0  0  0  0  0  1  0  0  0  0  0  0
  190.2150  178.0350  144.1720 C   0  0  2  0  0  3  0  0  0  0  0  0
  191.6550  177.5650  144.2130 C   0  0  2  0  0  3  0  0  0  0  0  0
  191.3480  179.0430  144.1110 C   0  0  0  0  0  2  0  0  0  0  0  0
  187.7740  178.7130  147.7930 C   0  0  0  0  0  2  0  0  0  0  0  0
  187.9750  177.6610  148.8680 C   0  0  0  0  0  1  0  0  0  0  0  0
  1  4  1  0  0  0  0
  1 12  1  0  0  0  0
  2  8  1  0  0  0  0
  2 12  1  0  0  0  0
  3 10  2  0  0  0  0
  4  9  2  0  0  0  0
  5 11  1  0  0  0  0
  6  7  1  0  0  0  0
  6  2  2  0  0  0  0
  7  1  2  0  0  0  0
  8  5  1  0  0  0  0
  9 10  1  0  0  0  0
 10 30  1  0  0  0  0
 12 13  2  0  0  0  0
 13 11  1  0  0  0  0
 13  3  1  0  0  0  0
 14 24  1  0  0  0  0
 14 15  1  0  0  0  0
 15 27  1  0  0  0  0
 15 22  1  1  0  0  0
 16 29  1  0  0  0  0
 17 28  1  0  0  0  0
 17 25  1  1  0  0  0
 17 21  1  0  0  0  0
 18 19  1  0  0  0  0
 18 23  1  1  0  0  0
 18 25  1  0  0  0  0
 19 16  1  0  0  0  0
 24 20  1  1  0  0  0
 24 26  1  0  0  0  0
 27 21  1  0  0  0  0
 27  4  1  1  0  0  0
 28 26  1  1  0  0  0
 28 29  1  0  0  0  0
 30 33  1  0  0  0  0
 31 32  1  0  0  0  0
 32 34  1  1  0  0  0
 33 31  1  0  0  0  0
 33 32  1  0  0  0  0
 34 36  1  0  0  0  0
 35 37  1  0  0  0  0
 35 36  2  0  0  0  0
 36 43  1  0  0  0  0
 37 38  1  1  0  0  0
 40 41  1  0  0  0  0
 40 37  1  1  0  0  0
 41 39  1  6  0  0  0
 42 40  1  0  0  0  0
 42 41  1  0  0  0  0
 43 44  1  0  0  0  0
M  END
>  <MODEL>
1

>  <REMARK>
 VINA RESULT:     -10.1      0.000      0.000
  Name = 
  8 active torsions:
  status: ('A' for Active; 'I' for Inactive)
    1  A    between atoms: C_7  and  C_38
    2  A    between atoms: C_13  and  C_18
    3  A    between atoms: C_17  and  C_25
    4  A    between atoms: C_17  and  N_37
    5  A    between atoms: C_18  and  C_19
    6  A    between atoms: C_22  and  C_44
    7  A    between atoms: C_26  and  C_35
    8  A    between atoms: C_26  and  C_44
                            x       y       z     vdW  Elec       q    Type
                         _______ _______ _______ _____ _____    ______ ____

>  <TORSDO>
F 8

$$$$
=
 OpenBabel11062416173D

 44 50  0  0  1  0  0  0  0  0999 V2000
  182.9610  178.6810  142.2770 C   0  0  0  0  0  0  0  0  0  0  0  0
  183.2250  178.9140  144.4650 C   0  0  0  0  0  0  0  0  0  0  0  0
  186.0750  178.5040  142.2020 N   0  0  0  0  0  0  0  0  0  0  0  0
  183.1860  178.5410  140.9150 C   0  0  0  0  0  0  0  0  0  0  0  0
  185.2760  179.3590  145.7740 C   0  0  0  0  0  2  0  0  0  0  0  0
  181.8800  178.9080  144.1680 C   0  0  0  0  0  3  0  0  0  0  0  0
  181.7270  178.7660  142.8300 N   0  0  0  0  0  0  0  0  0  0  0  0
  183.8410  179.0650  145.7410 N   0  0  0  0  0  2  0  0  0  0  0  0
  184.4570  178.4490  140.3390 C   0  0  0  0  0  3  0  0  0  0  0  0
  185.7420  178.4400  140.8850 C   0  0  0  0  0  0  0  0  0  0  0  0
  186.0330  178.6000  144.6620 C   0  0  0  0  0  2  0  0  0  0  0  0
  183.9480  178.7640  143.3210 C   0  0  0  0  0  0  0  0  0  0  0  0
  185.3300  178.6600  143.3210 C   0  0  0  0  0  0  0  0  0  0  0  0
  180.2010  179.9040  139.0500 O   0  0  0  0  0  0  0  0  0  0  0  0
  181.5520  179.8820  139.5030 C   0  0  2  0  0  3  0  0  0  0  0  0
  180.3370  175.4600  135.6580 C   0  0  0  0  0  2  0  0  0  0  0  0
  180.7580  177.0350  138.3970 C   0  0  2  0  0  3  0  0  0  0  0  0
  179.2910  174.9620  137.9640 C   0  0  1  0  0  3  0  0  0  0  0  0
  179.0520  175.2990  136.4820 C   0  0  0  0  0  2  0  0  0  0  0  0
  180.0950  181.3030  137.0550 C   0  0  0  0  0  1  0  0  0  0  0  0
  182.1370  177.4420  138.9080 C   0  0  0  0  0  2  0  0  0  0  0  0
  182.5880  180.6530  138.6740 C   0  0  0  0  0  1  0  0  0  0  0  0
  179.2740  173.4580  138.1430 C   0  0  0  0  0  1  0  0  0  0  0  0
  180.0320  179.8990  137.6350 C   0  0  1  0  0  3  0  0  0  0  0  0
  180.6010  175.5120  138.5380 C   0  0  0  0  0  2  0  0  0  0  0  0
  180.9090  178.9160  136.8520 C   0  0  0  0  0  2  0  0  0  0  0  0
  181.9870  178.4920  140.0030 C   0  0  1  0  0  3  0  0  0  0  0  0
  180.4650  177.5360  137.0330 N   0  0  1  0  0  0  0  0  0  0  0  0
  181.1390  176.7250  136.0130 C   0  0  0  0  0  2  0  0  0  0  0  0
  186.8520  178.2910  139.9030 C   0  0  0  0  0  2  0  0  0  0  0  0
  189.1370  178.6220  139.4510 C   0  0  0  0  0  2  0  0  0  0  0  0
  189.0070  177.7670  140.6260 C   0  0  2  0  0  3  0  0  0  0  0  0
  188.0690  178.8850  140.4300 N   0  0  0  0  0  0  0  0  0  0  0  0
  190.0520  178.1540  141.6620 C   0  0  0  0  0  2  0  0  0  0  0  0
  190.3060  177.8430  144.0840 C   0  0  0  0  0  3  0  0  0  0  0  0
  189.9220  177.3260  142.9030 C   0  0  0  0  0  0  0  0  0  0  0  0
  190.1710  177.1240  145.3940 C   0  0  1  0  0  3  0  0  0  0  0  0
  191.5470  177.0020  146.0220 C   0  0  0  0  0  1  0  0  0  0  0  0
  189.0030  178.3430  148.7510 C   0  0  0  0  0  1  0  0  0  0  0  0
  189.2680  177.9060  146.3380 C   0  0  2  0  0  3  0  0  0  0  0  0
  189.3550  177.2920  147.7210 C   0  0  2  0  0  3  0  0  0  0  0  0
  188.1440  177.0280  146.8540 C   0  0  0  0  0  2  0  0  0  0  0  0
  189.3030  175.9620  142.7810 C   0  0  0  0  0  2  0  0  0  0  0  0
  187.8960  175.9600  143.3490 C   0  0  0  0  0  1  0  0  0  0  0  0
  1  7  1  0  0  0  0
  1 12  1  0  0  0  0
  2  8  1  0  0  0  0
  3 13  2  0  0  0  0
  4  1  2  0  0  0  0
  6  2  1  0  0  0  0
  7  6  2  0  0  0  0
  8  5  1  0  0  0  0
  9 10  2  0  0  0  0
  9  4  1  0  0  0  0
 10  3  1  0  0  0  0
 11  5  1  0  0  0  0
 12  2  2  0  0  0  0
 13 12  1  0  0  0  0
 13 11  1  0  0  0  0
 14 15  1  0  0  0  0
 15 22  1  6  0  0  0
 15 27  1  0  0  0  0
 16 29  1  0  0  0  0
 16 19  1  0  0  0  0
 17 25  1  6  0  0  0
 17 21  1  0  0  0  0
 18 23  1  6  0  0  0
 18 25  1  0  0  0  0
 19 18  1  0  0  0  0
 21 27  1  0  0  0  0
 24 20  1  6  0  0  0
 24 14  1  0  0  0  0
 26 28  1  0  0  0  0
 26 24  1  0  0  0  0
 27  4  1  6  0  0  0
 28 29  1  6  0  0  0
 28 17  1  0  0  0  0
 30 33  1  0  0  0  0
 30 10  1  0  0  0  0
 31 33  1  0  0  0  0
 31 32  1  0  0  0  0
 32 34  1  1  0  0  0
 33 32  1  0  0  0  0
 34 36  1  0  0  0  0
 35 37  1  0  0  0  0
 36 35  2  0  0  0  0
 37 38  1  1  0  0  0
 40 37  1  6  0  0  0
 40 42  1  0  0  0  0
 40 41  1  0  0  0  0
 41 39  1  1  0  0  0
 42 41  1  0  0  0  0
 43 36  1  0  0  0  0
 43 44  1  0  0  0  0
M  END
>  <MODEL>
2

>  <REMARK>
 VINA RESULT:      -9.1      1.737      5.338
  Name = 
  8 active torsions:
  status: ('A' for Active; 'I' for Inactive)
    1  A    between atoms: C_7  and  C_38
    2  A    between atoms: C_13  and  C_18
    3  A    between atoms: C_17  and  C_25
    4  A    between atoms: C_17  and  N_37
    5  A    between atoms: C_18  and  C_19
    6  A    between atoms: C_22  and  C_44
    7  A    between atoms: C_26  and  C_35
    8  A    between atoms: C_26  and  C_44
                            x       y       z     vdW  Elec       q    Type
                         _______ _______ _______ _____ _____    ______ ____

>  <TORSDO>
F 8

$$$$
=
 OpenBabel11062416173D

 44 50  0  0  1  0  0  0  0  0999 V2000
  184.8580  178.1710  139.2460 C   0  0  0  0  0  0  0  0  0  0  0  0
  186.8660  177.8960  138.3470 C   0  0  0  0  0  0  0  0  0  0  0  0
  186.4290  178.9690  141.8220 N   0  0  0  0  0  0  0  0  0  0  0  0
  183.8150  178.4160  140.1280 C   0  0  0  0  0  0  0  0  0  0  0  0
  189.0870  177.8100  139.4310 C   0  0  0  0  0  2  0  0  0  0  0  0
  185.9030  177.6470  137.3940 C   0  0  0  0  0  3  0  0  0  0  0  0
  184.6800  177.8170  137.9500 N   0  0  0  0  0  0  0  0  0  0  0  0
  188.2810  177.8120  138.2080 N   0  0  0  0  0  2  0  0  0  0  0  0
  183.9930  178.7850  141.4650 C   0  0  0  0  0  3  0  0  0  0  0  0
  185.1340  179.0250  142.2340 C   0  0  0  0  0  0  0  0  0  0  0  0
  188.4950  178.7540  140.5000 C   0  0  0  0  0  2  0  0  0  0  0  0
  186.2690  178.2400  139.5230 C   0  0  0  0  0  0  0  0  0  0  0  0
  186.9930  178.6170  140.6430 C   0  0  0  0  0  0  0  0  0  0  0  0
  180.2560  179.4620  139.4360 O   0  0  0  0  0  0  0  0  0  0  0  0
  181.6720  179.6110  139.4620 C   0  0  2  0  0  3  0  0  0  0  0  0
  179.8650  175.4400  135.5690 C   0  0  0  0  0  2  0  0  0  0  0  0
  180.9240  176.7920  138.2540 C   0  0  2  0  0  3  0  0  0  0  0  0
  179.6590  174.5650  137.9880 C   0  0  1  0  0  3  0  0  0  0  0  0
  178.9310  175.0000  136.7040 C   0  0  0  0  0  2  0  0  0  0  0  0
  179.3640  181.0110  137.7760 C   0  0  0  0  0  1  0  0  0  0  0  0
  182.3340  177.3620  138.3870 C   0  0  0  0  0  2  0  0  0  0  0  0
  182.2970  180.6110  138.4810 C   0  0  0  0  0  1  0  0  0  0  0  0
  179.8810  173.0670  137.9530 C   0  0  0  0  0  1  0  0  0  0  0  0
  179.6550  179.5650  138.1470 C   0  0  1  0  0  3  0  0  0  0  0  0
  181.0050  175.2580  138.2210 C   0  0  0  0  0  2  0  0  0  0  0  0
  180.3570  178.8130  137.0120 C   0  0  0  0  0  2  0  0  0  0  0  0
  182.4070  178.2660  139.6130 C   0  0  1  0  0  3  0  0  0  0  0  0
  180.1630  177.3690  137.1210 N   0  0  1  0  0  0  0  0  0  0  0  0
  180.5780  176.7770  135.8450 C   0  0  0  0  0  2  0  0  0  0  0  0
  184.8800  179.4360  143.6430 C   0  0  0  0  0  2  0  0  0  0  0  0
  184.2300  178.5920  145.7400 C   0  0  0  0  0  2  0  0  0  0  0  0
  185.6720  178.8070  145.7440 C   0  0  2  0  0  3  0  0  0  0  0  0
  185.0150  178.2940  144.5300 N   0  0  0  0  0  0  0  0  0  0  0  0
  186.3610  177.6630  146.4730 C   0  0  0  0  0  2  0  0  0  0  0  0
  188.4990  177.5970  145.2680 C   0  0  0  0  0  3  0  0  0  0  0  0
  187.8510  177.8060  146.4280 C   0  0  0  0  0  0  0  0  0  0  0  0
  189.9810  177.7650  145.0970 C   0  0  1  0  0  3  0  0  0  0  0  0
  190.6550  176.4390  145.3930 C   0  0  0  0  0  1  0  0  0  0  0  0
  191.8140  177.5220  141.8260 C   0  0  0  0  0  1  0  0  0  0  0  0
  190.3070  178.1720  143.6670 C   0  0  2  0  0  3  0  0  0  0  0  0
  191.7030  177.6910  143.3260 C   0  0  2  0  0  3  0  0  0  0  0  0
  191.4660  179.1510  143.6400 C   0  0  0  0  0  2  0  0  0  0  0  0
  188.5570  178.2440  147.6810 C   0  0  0  0  0  2  0  0  0  0  0  0
  187.7740  177.8230  148.9100 C   0  0  0  0  0  1  0  0  0  0  0  0
  1 12  1  0  0  0  0
  1  4  1  0  0  0  0
  2 12  1  0  0  0  0
  3 10  2  0  0  0  0
  4  9  2  0  0  0  0
  5 11  1  0  0  0  0
  6  7  1  0  0  0  0
  6  2  2  0  0  0  0
  7  1  2  0  0  0  0
  8  2  1  0  0  0  0
  8  5  1  0  0  0  0
  9 10  1  0  0  0  0
 10 30  1  0  0  0  0
 11 13  1  0  0  0  0
 12 13  2  0  0  0  0
 13  3  1  0  0  0  0
 14 15  1  0  0  0  0
 15 22  1  6  0  0  0
 15 27  1  0  0  0  0
 16 29  1  0  0  0  0
 16 19  1  0  0  0  0
 17 25  1  6  0  0  0
 17 21  1  0  0  0  0
 18 23  1  6  0  0  0
 18 25  1  0  0  0  0
 19 18  1  0  0  0  0
 21 27  1  0  0  0  0
 24 20  1  6  0  0  0
 24 14  1  0  0  0  0
 26 28  1  0  0  0  0
 26 24  1  0  0  0  0
 27  4  1  6  0  0  0
 28 29  1  6  0  0  0
 28 17  1  0  0  0  0
 30 33  1  0  0  0  0
 31 32  1  0  0  0  0
 32 34  1  1  0  0  0
 33 31  1  0  0  0  0
 33 32  1  0  0  0  0
 35 36  2  0  0  0  0
 36 34  1  0  0  0  0
 36 43  1  0  0  0  0
 37 35  1  0  0  0  0
 37 38  1  6  0  0  0
 40 37  1  1  0  0  0
 41 39  1  6  0  0  0
 41 42  1  0  0  0  0
 41 40  1  0  0  0  0
 42 40  1  0  0  0  0
 43 44  1  0  0  0  0
M  END
>  <MODEL>
3

>  <REMARK>
 VINA RESULT:      -8.3      1.373      3.435
  Name = 
  8 active torsions:
  status: ('A' for Active; 'I' for Inactive)
    1  A    between atoms: C_7  and  C_38
    2  A    between atoms: C_13  and  C_18
    3  A    between atoms: C_17  and  C_25
    4  A    between atoms: C_17  and  N_37
    5  A    between atoms: C_18  and  C_19
    6  A    between atoms: C_22  and  C_44
    7  A    between atoms: C_26  and  C_35
    8  A    between atoms: C_26  and  C_44
                            x       y       z     vdW  Elec       q    Type
                         _______ _______ _______ _____ _____    ______ ____

>  <TORSDO>
F 8

$$$$
=
 OpenBabel11062416173D

 44 50  0  0  1  0  0  0  0  0999 V2000
  183.0320  177.9560  137.5080 C   0  0  0  0  0  0  0  0  0  0  0  0
  180.9340  178.6700  137.5460 C   0  0  0  0  0  0  0  0  0  0  0  0
  183.2250  179.2360  140.3460 N   0  0  0  0  0  0  0  0  0  0  0  0
  184.3570  177.6970  137.8260 C   0  0  0  0  0  0  0  0  0  0  0  0
  179.8250  180.2420  139.1010 C   0  0  0  0  0  2  0  0  0  0  0  0
  181.1590  177.9870  136.3710 C   0  0  0  0  0  3  0  0  0  0  0  0
  182.4430  177.5550  136.3550 N   0  0  0  0  0  0  0  0  0  0  0  0
  179.7360  179.3150  137.9700 N   0  0  0  0  0  2  0  0  0  0  0  0
  184.9690  178.1050  139.0150 C   0  0  0  0  0  3  0  0  0  0  0  0
  184.4930  178.7930  140.1340 C   0  0  0  0  0  0  0  0  0  0  0  0
  180.8220  179.7380  140.1680 C   0  0  0  0  0  2  0  0  0  0  0  0
  182.0680  178.6730  138.3010 C   0  0  0  0  0  0  0  0  0  0  0  0
  182.1160  179.2250  139.5710 C   0  0  0  0  0  0  0  0  0  0  0  0
  186.7890  177.2520  134.9740 O   0  0  0  0  0  0  0  0  0  0  0  0
  186.3190  177.7800  136.2110 C   0  0  2  0  0  3  0  0  0  0  0  0
  187.5860  171.9400  136.5330 C   0  0  0  0  0  2  0  0  0  0  0  0
  185.9400  174.6470  136.1840 C   0  0  2  0  0  3  0  0  0  0  0  0
  185.3810  172.3140  135.2460 C   0  0  1  0  0  3  0  0  0  0  0  0
  186.8510  171.8590  135.1890 C   0  0  0  0  0  2  0  0  0  0  0  0
  189.2160  177.4980  134.9210 C   0  0  0  0  0  1  0  0  0  0  0  0
  185.6260  175.5750  137.3550 C   0  0  0  0  0  2  0  0  0  0  0  0
  187.3670  178.3150  137.1960 C   0  0  0  0  0  1  0  0  0  0  0  0
  184.4960  171.1120  135.4960 C   0  0  0  0  0  1  0  0  0  0  0  0
  188.0310  176.5540  135.0420 C   0  0  1  0  0  3  0  0  0  0  0  0
  185.0850  173.3750  136.3100 C   0  0  0  0  0  2  0  0  0  0  0  0
  188.1950  175.5770  136.2110 C   0  0  0  0  0  2  0  0  0  0  0  0
  185.1870  176.9360  136.8250 C   0  0  1  0  0  3  0  0  0  0  0  0
  187.3880  174.3730  136.0240 N   0  0  1  0  0  0  0  0  0  0  0  0
  187.8530  173.3820  137.0010 C   0  0  0  0  0  2  0  0  0  0  0  0
  185.4860  179.0040  141.2240 C   0  0  0  0  0  2  0  0  0  0  0  0
  184.4630  178.4770  143.2760 C   0  0  0  0  0  2  0  0  0  0  0  0
  185.9080  178.5300  143.4680 C   0  0  2  0  0  3  0  0  0  0  0  0
  185.3590  177.9610  142.2260 N   0  0  0  0  0  0  0  0  0  0  0  0
  186.3450  177.4050  144.3940 C   0  0  0  0  0  2  0  0  0  0  0  0
  187.9600  177.6800  146.2230 C   0  0  0  0  0  3  0  0  0  0  0  0
  187.7390  177.6250  144.8980 C   0  0  0  0  0  0  0  0  0  0  0  0
  189.3190  177.8410  146.8380 C   0  0  1  0  0  3  0  0  0  0  0  0
  189.1500  178.1130  148.3210 C   0  0  0  0  0  1  0  0  0  0  0  0
  192.0380  175.3990  147.7100 C   0  0  0  0  0  1  0  0  0  0  0  0
  190.1360  176.5680  146.6630 C   0  0  2  0  0  3  0  0  0  0  0  0
  191.4840  176.7550  147.3300 C   0  0  2  0  0  3  0  0  0  0  0  0
  191.3710  176.8360  145.8240 C   0  0  0  0  0  2  0  0  0  0  0  0
  188.8500  177.7120  143.8890 C   0  0  0  0  0  2  0  0  0  0  0  0
  188.7860  176.5450  142.9210 C   0  0  0  0  0  1  0  0  0  0  0  0
  1  4  1  0  0  0  0
  1 12  1  0  0  0  0
  2  8  1  0  0  0  0
  2 12  1  0  0  0  0
  4  9  2  0  0  0  0
  5 11  1  0  0  0  0
  6  2  2  0  0  0  0
  7  6  1  0  0  0  0
  7  1  2  0  0  0  0
  8  5  1  0  0  0  0
  9 10  1  0  0  0  0
 10  3  2  0  0  0  0
 10 30  1  0  0  0  0
 12 13  2  0  0  0  0
 13 11  1  0  0  0  0
 13  3  1  0  0  0  0
 14 24  1  0  0  0  0
 14 15  1  0  0  0  0
 15 27  1  0  0  0  0
 15 22  1  1  0  0  0
 16 29  1  0  0  0  0
 17 25  1  1  0  0  0
 17 21  1  0  0  0  0
 18 23  1  1  0  0  0
 18 25  1  0  0  0  0
 19 18  1  0  0  0  0
 19 16  1  0  0  0  0
 24 20  1  1  0  0  0
 24 26  1  0  0  0  0
 27 21  1  0  0  0  0
 27  4  1  1  0  0  0
 28 17  1  0  0  0  0
 28 26  1  1  0  0  0
 28 29  1  0  0  0  0
 30 33  1  0  0  0  0
 31 32  1  0  0  0  0
 32 34  1  1  0  0  0
 33 31  1  0  0  0  0
 33 32  1  0  0  0  0
 34 36  1  0  0  0  0
 35 37  1  0  0  0  0
 36 35  2  0  0  0  0
 37 38  1  1  0  0  0
 40 37  1  1  0  0  0
 40 41  1  0  0  0  0
 41 39  1  6  0  0  0
 42 40  1  0  0  0  0
 42 41  1  0  0  0  0
 43 36  1  0  0  0  0
 44 43  1  0  0  0  0
M  END
>  <MODEL>
4

>  <REMARK>
 VINA RESULT:      -8.1      2.966      6.797
  Name = 
  8 active torsions:
  status: ('A' for Active; 'I' for Inactive)
    1  A    between atoms: C_7  and  C_38
    2  A    between atoms: C_13  and  C_18
    3  A    between atoms: C_17  and  C_25
    4  A    between atoms: C_17  and  N_37
    5  A    between atoms: C_18  and  C_19
    6  A    between atoms: C_22  and  C_44
    7  A    between atoms: C_26  and  C_35
    8  A    between atoms: C_26  and  C_44
                            x       y       z     vdW  Elec       q    Type
                         _______ _______ _______ _____ _____    ______ ____

>  <TORSDO>
F 8

$$$$
=
 OpenBabel11062416173D

 44 50  0  0  1  0  0  0  0  0999 V2000
  186.7990  177.6250  137.9980 C   0  0  0  0  0  0  0  0  0  0  0  0
  188.9580  177.1680  137.7900 C   0  0  0  0  0  0  0  0  0  0  0  0
  187.5510  178.5060  140.8950 N   0  0  0  0  0  0  0  0  0  0  0  0
  185.5570  177.9920  138.4950 C   0  0  0  0  0  0  0  0  0  0  0  0
  190.7200  177.0260  139.5200 C   0  0  0  0  0  2  0  0  0  0  0  0
  188.3230  176.9110  136.5950 C   0  0  0  0  0  3  0  0  0  0  0  0
  187.0050  177.1920  136.7310 N   0  0  0  0  0  0  0  0  0  0  0  0
  190.3360  176.9900  138.1070 N   0  0  0  0  0  2  0  0  0  0  0  0
  185.3400  178.4430  139.8000 C   0  0  0  0  0  3  0  0  0  0  0  0
  186.2010  178.6680  140.8760 C   0  0  0  0  0  0  0  0  0  0  0  0
  189.9010  178.0770  140.3020 C   0  0  0  0  0  2  0  0  0  0  0  0
  188.0560  177.6280  138.7010 C   0  0  0  0  0  0  0  0  0  0  0  0
  188.4230  178.0390  139.9720 C   0  0  0  0  0  0  0  0  0  0  0  0
  183.5090  176.6310  135.6310 O   0  0  0  0  0  0  0  0  0  0  0  0
  184.3140  176.5560  136.8050 C   0  0  2  0  0  3  0  0  0  0  0  0
  178.9310  178.9520  137.8520 C   0  0  0  0  0  2  0  0  0  0  0  0
  182.0440  178.7110  137.2120 C   0  0  2  0  0  3  0  0  0  0  0  0
  180.4430  180.6390  136.6170 C   0  0  1  0  0  3  0  0  0  0  0  0
  179.1960  179.7390  136.5610 C   0  0  0  0  0  2  0  0  0  0  0  0
  182.2470  174.5520  135.4460 C   0  0  0  0  0  1  0  0  0  0  0  0
  183.0680  178.2830  138.2600 C   0  0  0  0  0  2  0  0  0  0  0  0
  184.1940  175.2920  137.6660 C   0  0  0  0  0  1  0  0  0  0  0  0
  180.0370  182.0280  137.0610 C   0  0  0  0  0  1  0  0  0  0  0  0
  182.2150  176.0430  135.7410 C   0  0  1  0  0  3  0  0  0  0  0  0
  181.5530  180.1300  137.5410 C   0  0  0  0  0  2  0  0  0  0  0  0
  181.4350  176.3570  137.0220 C   0  0  0  0  0  2  0  0  0  0  0  0
  184.3710  177.8910  137.5710 C   0  0  1  0  0  3  0  0  0  0  0  0
  180.9450  177.7330  137.0310 N   0  0  1  0  0  0  0  0  0  0  0  0
  179.9580  177.8360  138.1120 C   0  0  0  0  0  2  0  0  0  0  0  0
  185.5550  179.1920  142.1120 C   0  0  0  0  0  2  0  0  0  0  0  0
  184.3600  178.4570  144.0000 C   0  0  0  0  0  2  0  0  0  0  0  0
  185.7010  178.8520  144.4150 C   0  0  2  0  0  3  0  0  0  0  0  0
  185.5100  178.1580  143.1300 N   0  0  0  0  0  0  0  0  0  0  0  0
  186.2290  177.8710  145.4510 C   0  0  0  0  0  2  0  0  0  0  0  0
  188.3040  177.4310  144.2160 C   0  0  0  0  0  3  0  0  0  0  0  0
  187.7210  177.7560  145.3830 C   0  0  0  0  0  0  0  0  0  0  0  0
  189.7900  177.3410  144.0210 C   0  0  1  0  0  3  0  0  0  0  0  0
  190.4030  178.6890  144.3500 C   0  0  0  0  0  1  0  0  0  0  0  0
  192.0170  176.1210  146.7900 C   0  0  0  0  0  1  0  0  0  0  0  0
  190.3850  176.2910  144.9490 C   0  0  2  0  0  3  0  0  0  0  0  0
  191.7160  176.7940  145.4680 C   0  0  2  0  0  3  0  0  0  0  0  0
  191.6800  175.7450  144.3790 C   0  0  0  0  0  2  0  0  0  0  0  0
  188.5110  178.0730  146.6210 C   0  0  0  0  0  2  0  0  0  0  0  0
  188.1490  177.1210  147.7460 C   0  0  0  0  0  1  0  0  0  0  0  0
  1  4  1  0  0  0  0
  1 12  1  0  0  0  0
  2  8  1  0  0  0  0
  2 12  1  0  0  0  0
  4  9  2  0  0  0  0
  5 11  1  0  0  0  0
  6  7  1  0  0  0  0
  6  2  2  0  0  0  0
  7  1  2  0  0  0  0
  8  5  1  0  0  0  0
  9 10  1  0  0  0  0
 10  3  2  0  0  0  0
 10 30  1  0  0  0  0
 12 13  2  0  0  0  0
 13 11  1  0  0  0  0
 13  3  1  0  0  0  0
 14 24  1  0  0  0  0
 14 15  1  0  0  0  0
 15 27  1  0  0  0  0
 15 22  1  1  0  0  0
 16 29  1  0  0  0  0
 17 25  1  1  0  0  0
 17 21  1  0  0  0  0
 18 23  1  1  0  0  0
 18 25  1  0  0  0  0
 19 18  1  0  0  0  0
 19 16  1  0  0  0  0
 24 20  1  1  0  0  0
 24 26  1  0  0  0  0
 27 21  1  0  0  0  0
 27  4  1  1  0  0  0
 28 26  1  1  0  0  0
 28 17  1  0  0  0  0
 28 29  1  0  0  0  0
 30 33  1  0  0  0  0
 31 32  1  0  0  0  0
 32 34  1  1  0  0  0
 33 31  1  0  0  0  0
 33 32  1  0  0  0  0
 35 36  2  0  0  0  0
 36 34  1  0  0  0  0
 36 43  1  0  0  0  0
 37 35  1  0  0  0  0
 37 38  1  1  0  0  0
 40 37  1  6  0  0  0
 40 41  1  0  0  0  0
 41 39  1  1  0  0  0
 42 40  1  0  0  0  0
 42 41  1  0  0  0  0
 43 44  1  0  0  0  0
M  END
>  <MODEL>
5

>  <REMARK>
 VINA RESULT:      -8.1      1.565      2.160
  Name = 
  8 active torsions:
  status: ('A' for Active; 'I' for Inactive)
    1  A    between atoms: C_7  and  C_38
    2  A    between atoms: C_13  and  C_18
    3  A    between atoms: C_17  and  C_25
    4  A    between atoms: C_17  and  N_37
    5  A    between atoms: C_18  and  C_19
    6  A    between atoms: C_22  and  C_44
    7  A    between atoms: C_26  and  C_35
    8  A    between atoms: C_26  and  C_44
                            x       y       z     vdW  Elec       q    Type
                         _______ _______ _______ _____ _____    ______ ____

>  <TORSDO>
F 8

$$$$
=
 OpenBabel11062416173D

 44 50  0  0  1  0  0  0  0  0999 V2000
  181.3750  177.4540  140.0080 C   0  0  0  0  0  0  0  0  0  0  0  0
  179.6800  177.9360  141.3510 C   0  0  0  0  0  0  0  0  0  0  0  0
  183.1390  178.7590  142.2260 N   0  0  0  0  0  0  0  0  0  0  0  0
  182.6380  177.3430  139.4430 C   0  0  0  0  0  0  0  0  0  0  0  0
  179.6090  179.3830  143.3550 C   0  0  0  0  0  2  0  0  0  0  0  0
  179.2040  177.2770  140.2390 C   0  0  0  0  0  3  0  0  0  0  0  0
  180.2460  176.9870  139.4230 N   0  0  0  0  0  0  0  0  0  0  0  0
  178.9340  178.4480  142.4530 N   0  0  0  0  0  2  0  0  0  0  0  0
  183.8070  177.8200  140.0430 C   0  0  0  0  0  3  0  0  0  0  0  0
  184.0500  178.4550  141.2630 C   0  0  0  0  0  0  0  0  0  0  0  0
  181.0890  178.9950  143.5690 C   0  0  0  0  0  2  0  0  0  0  0  0
  181.0330  178.0650  141.2660 C   0  0  0  0  0  0  0  0  0  0  0  0
  181.7940  178.6230  142.2800 C   0  0  0  0  0  0  0  0  0  0  0  0
  183.4010  177.0950  135.7550 O   0  0  0  0  0  0  0  0  0  0  0  0
  183.6530  177.4410  137.1140 C   0  0  2  0  0  3  0  0  0  0  0  0
  183.6150  171.5250  136.2110 C   0  0  0  0  0  2  0  0  0  0  0  0
  182.6220  174.4620  136.9510 C   0  0  2  0  0  3  0  0  0  0  0  0
  181.2110  172.4610  136.1540 C   0  0  1  0  0  3  0  0  0  0  0  0
  182.3650  171.8130  135.3690 C   0  0  0  0  0  2  0  0  0  0  0  0
  185.5440  176.9850  134.5940 C   0  0  0  0  0  1  0  0  0  0  0  0
  183.0690  175.1860  138.2190 C   0  0  0  0  0  2  0  0  0  0  0  0
  185.1160  177.6170  137.5400 C   0  0  0  0  0  1  0  0  0  0  0  0
  180.2860  171.3780  136.6680 C   0  0  0  0  0  1  0  0  0  0  0  0
  184.3580  176.2210  135.1610 C   0  0  1  0  0  3  0  0  0  0  0  0
  181.6550  173.3310  137.3340 C   0  0  0  0  0  2  0  0  0  0  0  0
  184.8010  175.0260  136.0100 C   0  0  0  0  0  2  0  0  0  0  0  0
  182.7520  176.6720  138.0980 C   0  0  1  0  0  3  0  0  0  0  0  0
  183.7530  174.0130  136.1040 N   0  0  1  0  0  0  0  0  0  0  0  0
  184.3700  172.7960  136.6420 C   0  0  0  0  0  2  0  0  0  0  0  0
  185.4770  178.7780  141.5420 C   0  0  0  0  0  2  0  0  0  0  0  0
  186.4260  178.7320  143.6940 C   0  0  0  0  0  2  0  0  0  0  0  0
  187.4150  178.2620  142.7310 C   0  0  2  0  0  3  0  0  0  0  0  0
  186.0010  177.8890  142.5630 N   0  0  0  0  0  0  0  0  0  0  0  0
  188.1860  177.0880  143.3170 C   0  0  0  0  0  2  0  0  0  0  0  0
  188.9760  177.0210  145.6410 C   0  0  0  0  0  3  0  0  0  0  0  0
  189.1140  177.5340  144.4050 C   0  0  0  0  0  0  0  0  0  0  0  0
  189.8810  177.3550  146.7900 C   0  0  1  0  0  3  0  0  0  0  0  0
  189.0260  177.7090  147.9920 C   0  0  0  0  0  1  0  0  0  0  0  0
  192.7590  175.6260  148.4770 C   0  0  0  0  0  1  0  0  0  0  0  0
  190.7540  176.1590  147.1440 C   0  0  2  0  0  3  0  0  0  0  0  0
  192.1190  176.6570  147.5730 C   0  0  2  0  0  3  0  0  0  0  0  0
  191.9340  176.0580  146.1960 C   0  0  0  0  0  2  0  0  0  0  0  0
  190.2100  178.4980  144.0480 C   0  0  0  0  0  2  0  0  0  0  0  0
  191.1870  177.8610  143.0770 C   0  0  0  0  0  1  0  0  0  0  0  0
  1 12  1  0  0  0  0
  2  8  1  0  0  0  0
  3 13  1  0  0  0  0
  4  1  1  0  0  0  0
  4  9  2  0  0  0  0
  5 11  1  0  0  0  0
  6  2  2  0  0  0  0
  7  1  2  0  0  0  0
  7  6  1  0  0  0  0
  8  5  1  0  0  0  0
  9 10  1  0  0  0  0
 10 30  1  0  0  0  0
 10  3  2  0  0  0  0
 12  2  1  0  0  0  0
 12 13  2  0  0  0  0
 13 11  1  0  0  0  0
 14 15  1  0  0  0  0
 15 22  1  1  0  0  0
 15 27  1  0  0  0  0
 16 29  1  0  0  0  0
 17 25  1  1  0  0  0
 17 21  1  0  0  0  0
 18 23  1  1  0  0  0
 18 25  1  0  0  0  0
 19 18  1  0  0  0  0
 19 16  1  0  0  0  0
 24 20  1  1  0  0  0
 24 14  1  0  0  0  0
 24 26  1  0  0  0  0
 27 21  1  0  0  0  0
 27  4  1  1  0  0  0
 28 26  1  1  0  0  0
 28 29  1  0  0  0  0
 28 17  1  0  0  0  0
 30 33  1  0  0  0  0
 32 34  1  1  0  0  0
 32 31  1  0  0  0  0
 33 32  1  0  0  0  0
 33 31  1  0  0  0  0
 34 36  1  0  0  0  0
 35 37  1  0  0  0  0
 36 35  2  0  0  0  0
 37 38  1  1  0  0  0
 40 37  1  6  0  0  0
 40 41  1  0  0  0  0
 41 39  1  1  0  0  0
 42 40  1  0  0  0  0
 42 41  1  0  0  0  0
 43 36  1  0  0  0  0
 44 43  1  0  0  0  0
M  END
>  <MODEL>
6

>  <REMARK>
 VINA RESULT:      -7.9      3.071      6.389
  Name = 
  8 active torsions:
  status: ('A' for Active; 'I' for Inactive)
    1  A    between atoms: C_7  and  C_38
    2  A    between atoms: C_13  and  C_18
    3  A    between atoms: C_17  and  C_25
    4  A    between atoms: C_17  and  N_37
    5  A    between atoms: C_18  and  C_19
    6  A    between atoms: C_22  and  C_44
    7  A    between atoms: C_26  and  C_35
    8  A    between atoms: C_26  and  C_44
                            x       y       z     vdW  Elec       q    Type
                         _______ _______ _______ _____ _____    ______ ____

>  <TORSDO>
F 8

$$$$
=
 OpenBabel11062416173D

 44 50  0  0  1  0  0  0  0  0999 V2000
  184.1870  178.6850  141.4530 C   0  0  0  0  0  0  0  0  0  0  0  0
  184.0650  178.7850  143.6640 C   0  0  0  0  0  0  0  0  0  0  0  0
  187.1950  178.0050  141.9300 N   0  0  0  0  0  0  0  0  0  0  0  0
  184.6420  178.5630  140.1480 C   0  0  0  0  0  0  0  0  0  0  0  0
  185.8750  178.8380  145.3490 C   0  0  0  0  0  2  0  0  0  0  0  0
  182.8150  179.0100  143.1290 C   0  0  0  0  0  3  0  0  0  0  0  0
  182.8990  178.9480  141.7790 N   0  0  0  0  0  0  0  0  0  0  0  0
  184.4440  178.7840  145.0380 N   0  0  0  0  0  2  0  0  0  0  0  0
  185.9700  178.2880  139.8060 C   0  0  0  0  0  3  0  0  0  0  0  0
  187.1120  178.0490  140.5730 C   0  0  0  0  0  0  0  0  0  0  0  0
  186.7040  178.0100  144.3420 C   0  0  0  0  0  2  0  0  0  0  0  0
  184.9600  178.5640  142.6610 C   0  0  0  0  0  0  0  0  0  0  0  0
  186.2850  178.2360  142.9040 C   0  0  0  0  0  0  0  0  0  0  0  0
  182.6920  177.6120  137.0600 O   0  0  0  0  0  0  0  0  0  0  0  0
  183.2380  177.4220  138.3610 C   0  0  2  0  0  3  0  0  0  0  0  0
  178.9390  181.5840  138.2530 C   0  0  0  0  0  2  0  0  0  0  0  0
  181.8300  180.2420  138.2050 C   0  0  2  0  0  3  0  0  0  0  0  0
  181.1090  182.5020  137.2010 C   0  0  1  0  0  3  0  0  0  0  0  0
  179.6480  182.0690  136.9820 C   0  0  0  0  0  2  0  0  0  0  0  0
  180.8250  176.0650  136.7900 C   0  0  0  0  0  1  0  0  0  0  0  0
  182.4750  179.6330  139.4470 C   0  0  0  0  0  2  0  0  0  0  0  0
  182.5590  176.3880  139.2700 C   0  0  0  0  0  1  0  0  0  0  0  0
  181.1530  183.9910  137.4690 C   0  0  0  0  0  1  0  0  0  0  0  0
  181.2730  177.5070  136.9730 C   0  0  1  0  0  3  0  0  0  0  0  0
  181.8230  181.7730  138.3430 C   0  0  0  0  0  2  0  0  0  0  0  0
  180.4730  178.2200  138.0670 C   0  0  0  0  0  2  0  0  0  0  0  0
  183.6450  178.7470  139.0340 C   0  0  1  0  0  3  0  0  0  0  0  0
  180.4980  179.6710  137.8950 N   0  0  1  0  0  0  0  0  0  0  0  0
  179.4620  180.2310  138.7690 C   0  0  0  0  0  2  0  0  0  0  0  0
  188.3520  177.7600  139.8000 C   0  0  0  0  0  2  0  0  0  0  0  0
  190.7000  177.8810  139.7320 C   0  0  0  0  0  2  0  0  0  0  0  0
  190.3000  177.1310  140.9170 C   0  0  2  0  0  3  0  0  0  0  0  0
  189.5090  178.2990  140.4920 N   0  0  0  0  0  0  0  0  0  0  0  0
  191.1860  177.5170  142.0930 C   0  0  0  0  0  2  0  0  0  0  0  0
  190.9360  177.4030  144.5320 C   0  0  0  0  0  3  0  0  0  0  0  0
  190.7780  176.7980  143.3420 C   0  0  0  0  0  0  0  0  0  0  0  0
  190.5130  176.7990  145.8390 C   0  0  1  0  0  3  0  0  0  0  0  0
  191.7190  176.7400  146.7570 C   0  0  0  0  0  1  0  0  0  0  0  0
  188.8130  178.4980  148.7270 C   0  0  0  0  0  1  0  0  0  0  0  0
  189.4380  177.6530  146.4960 C   0  0  2  0  0  3  0  0  0  0  0  0
  189.3740  177.3140  147.9710 C   0  0  2  0  0  3  0  0  0  0  0  0
  188.3150  176.7840  147.0300 C   0  0  0  0  0  2  0  0  0  0  0  0
  190.1460  175.4410  143.2020 C   0  0  0  0  0  2  0  0  0  0  0  0
  188.6330  175.5520  143.2190 C   0  0  0  0  0  1  0  0  0  0  0  0
  1  7  1  0  0  0  0
  1 12  1  0  0  0  0
  2  8  1  0  0  0  0
  3 13  2  0  0  0  0
  4  1  2  0  0  0  0
  6  2  1  0  0  0  0
  7  6  2  0  0  0  0
  8  5  1  0  0  0  0
  9  4  1  0  0  0  0
  9 10  2  0  0  0  0
 10  3  1  0  0  0  0
 11  5  1  0  0  0  0
 12 13  1  0  0  0  0
 12  2  2  0  0  0  0
 13 11  1  0  0  0  0
 14 15  1  0  0  0  0
 15 27  1  0  0  0  0
 15 22  1  1  0  0  0
 16 29  1  0  0  0  0
 17 25  1  1  0  0  0
 17 21  1  0  0  0  0
 18 23  1  1  0  0  0
 18 25  1  0  0  0  0
 19 18  1  0  0  0  0
 19 16  1  0  0  0  0
 24 20  1  1  0  0  0
 24 14  1  0  0  0  0
 24 26  1  0  0  0  0
 27 21  1  0  0  0  0
 27  4  1  1  0  0  0
 28 26  1  1  0  0  0
 28 17  1  0  0  0  0
 28 29  1  0  0  0  0
 30 33  1  0  0  0  0
 30 10  1  0  0  0  0
 31 33  1  0  0  0  0
 31 32  1  0  0  0  0
 32 34  1  1  0  0  0
 33 32  1  0  0  0  0
 34 36  1  0  0  0  0
 35 37  1  0  0  0  0
 36 35  2  0  0  0  0
 37 38  1  1  0  0  0
 40 37  1  6  0  0  0
 40 42  1  0  0  0  0
 40 41  1  0  0  0  0
 41 39  1  1  0  0  0
 42 41  1  0  0  0  0
 43 44  1  0  0  0  0
 43 36  1  0  0  0  0
M  END
>  <MODEL>
7

>  <REMARK>
 VINA RESULT:      -7.8      1.306      4.098
  Name = 
  8 active torsions:
  status: ('A' for Active; 'I' for Inactive)
    1  A    between atoms: C_7  and  C_38
    2  A    between atoms: C_13  and  C_18
    3  A    between atoms: C_17  and  C_25
    4  A    between atoms: C_17  and  N_37
    5  A    between atoms: C_18  and  C_19
    6  A    between atoms: C_22  and  C_44
    7  A    between atoms: C_26  and  C_35
    8  A    between atoms: C_26  and  C_44
                            x       y       z     vdW  Elec       q    Type
                         _______ _______ _______ _____ _____    ______ ____

>  <TORSDO>
F 8

$$$$
=
 OpenBabel11062416173D

 44 50  0  0  1  0  0  0  0  0999 V2000
  182.1150  178.3370  140.7520 C   0  0  0  0  0  0  0  0  0  0  0  0
  180.0480  178.2920  141.5520 C   0  0  0  0  0  0  0  0  0  0  0  0
  182.9450  178.9240  143.7020 N   0  0  0  0  0  0  0  0  0  0  0  0
  183.4900  178.4630  140.6210 C   0  0  0  0  0  0  0  0  0  0  0  0
  179.1870  179.0110  143.7560 C   0  0  0  0  0  2  0  0  0  0  0  0
  180.0190  178.0090  140.2040 C   0  0  0  0  0  3  0  0  0  0  0  0
  181.2850  178.0390  139.7230 N   0  0  0  0  0  0  0  0  0  0  0  0
  178.9470  178.3910  142.4510 N   0  0  0  0  0  2  0  0  0  0  0  0
  184.3510  178.7670  141.6800 C   0  0  0  0  0  3  0  0  0  0  0  0
  184.1320  178.9830  143.0420 C   0  0  0  0  0  0  0  0  0  0  0  0
  180.5780  178.6330  144.3140 C   0  0  0  0  0  2  0  0  0  0  0  0
  181.3340  178.4940  141.9510 C   0  0  0  0  0  0  0  0  0  0  0  0
  181.6760  178.7250  143.2740 C   0  0  0  0  0  0  0  0  0  0  0  0
  185.8800  179.0940  137.7680 O   0  0  0  0  0  0  0  0  0  0  0  0
  185.5070  178.8550  139.1220 C   0  0  2  0  0  3  0  0  0  0  0  0
  184.5410  174.1180  135.5960 C   0  0  0  0  0  2  0  0  0  0  0  0
  184.0270  176.8020  137.2360 C   0  0  2  0  0  3  0  0  0  0  0  0
  182.7660  175.9400  135.1630 C   0  0  1  0  0  3  0  0  0  0  0  0
  183.9700  175.1520  134.6160 C   0  0  0  0  0  2  0  0  0  0  0  0
  188.2240  178.4680  137.5090 C   0  0  0  0  0  1  0  0  0  0  0  0
  183.9500  176.8310  138.7610 C   0  0  0  0  0  2  0  0  0  0  0  0
  186.5690  178.2570  140.0550 C   0  0  0  0  0  1  0  0  0  0  0  0
  181.4850  175.2440  134.7530 C   0  0  0  0  0  1  0  0  0  0  0  0
  186.7720  178.1350  137.2040 C   0  0  1  0  0  3  0  0  0  0  0  0
  182.7640  176.1240  136.6830 C   0  0  0  0  0  2  0  0  0  0  0  0
  186.4500  176.6640  137.4850 C   0  0  0  0  0  2  0  0  0  0  0  0
  184.0880  178.2680  139.2520 C   0  0  1  0  0  3  0  0  0  0  0  0
  185.2880  176.2120  136.7240 N   0  0  1  0  0  0  0  0  0  0  0  0
  185.2590  174.7470  136.8030 C   0  0  0  0  0  2  0  0  0  0  0  0
  185.3530  179.2550  143.8500 C   0  0  0  0  0  2  0  0  0  0  0  0
  185.4120  178.3440  146.0190 C   0  0  0  0  0  2  0  0  0  0  0  0
  186.7800  178.5080  145.5370 C   0  0  2  0  0  3  0  0  0  0  0  0
  185.7260  178.0720  144.6050 N   0  0  0  0  0  0  0  0  0  0  0  0
  187.6190  177.3100  145.9550 C   0  0  0  0  0  2  0  0  0  0  0  0
  188.8870  176.6630  143.9550 C   0  0  0  0  0  3  0  0  0  0  0  0
  188.8930  177.2360  145.1710 C   0  0  0  0  0  0  0  0  0  0  0  0
  190.0910  176.5830  143.0630 C   0  0  1  0  0  3  0  0  0  0  0  0
  190.7320  175.2190  143.2360 C   0  0  0  0  0  1  0  0  0  0  0  0
  190.6940  176.7060  139.3560 C   0  0  0  0  0  1  0  0  0  0  0  0
  189.6840  176.7530  141.6050 C   0  0  2  0  0  3  0  0  0  0  0  0
  190.9080  177.1250  140.7940 C   0  0  2  0  0  3  0  0  0  0  0  0
  189.8920  178.1860  141.1540 C   0  0  0  0  0  2  0  0  0  0  0  0
  190.1220  177.8690  145.7600 C   0  0  0  0  0  2  0  0  0  0  0  0
  190.6310  177.0570  146.9360 C   0  0  0  0  0  1  0  0  0  0  0  0
  1 12  1  0  0  0  0
  2 12  1  0  0  0  0
  2  8  1  0  0  0  0
  4  1  1  0  0  0  0
  4  9  2  0  0  0  0
  5 11  1  0  0  0  0
  6  2  2  0  0  0  0
  7  6  1  0  0  0  0
  7  1  2  0  0  0  0
  8  5  1  0  0  0  0
  9 10  1  0  0  0  0
 10  3  2  0  0  0  0
 10 30  1  0  0  0  0
 12 13  2  0  0  0  0
 13  3  1  0  0  0  0
 13 11  1  0  0  0  0
 14 15  1  0  0  0  0
 15 27  1  0  0  0  0
 15 22  1  6  0  0  0
 16 29  1  0  0  0  0
 17 25  1  6  0  0  0
 17 21  1  0  0  0  0
 18 23  1  1  0  0  0
 18 25  1  0  0  0  0
 19 18  1  0  0  0  0
 19 16  1  0  0  0  0
 21 27  1  0  0  0  0
 24 26  1  0  0  0  0
 24 20  1  1  0  0  0
 24 14  1  0  0  0  0
 27  4  1  1  0  0  0
 28 29  1  1  0  0  0
 28 17  1  0  0  0  0
 28 26  1  0  0  0  0
 30 33  1  0  0  0  0
 32 34  1  1  0  0  0
 32 31  1  0  0  0  0
 33 32  1  0  0  0  0
 33 31  1  0  0  0  0
 35 36  2  0  0  0  0
 36 43  1  0  0  0  0
 36 34  1  0  0  0  0
 37 38  1  6  0  0  0
 37 35  1  0  0  0  0
 40 37  1  1  0  0  0
 41 39  1  6  0  0  0
 41 42  1  0  0  0  0
 41 40  1  0  0  0  0
 42 40  1  0  0  0  0
 43 44  1  0  0  0  0
M  END
>  <MODEL>
8

>  <REMARK>
 VINA RESULT:      -7.7      2.754      5.753
  Name = 
  8 active torsions:
  status: ('A' for Active; 'I' for Inactive)
    1  A    between atoms: C_7  and  C_38
    2  A    between atoms: C_13  and  C_18
    3  A    between atoms: C_17  and  C_25
    4  A    between atoms: C_17  and  N_37
    5  A    between atoms: C_18  and  C_19
    6  A    between atoms: C_22  and  C_44
    7  A    between atoms: C_26  and  C_35
    8  A    between atoms: C_26  and  C_44
                            x       y       z     vdW  Elec       q    Type
                         _______ _______ _______ _____ _____    ______ ____

>  <TORSDO>
F 8

$$$$
=
 OpenBabel11062416173D

 44 50  0  0  1  0  0  0  0  0999 V2000
  186.0170  178.3070  142.4960 C   0  0  0  0  0  0  0  0  0  0  0  0
  186.9310  177.7690  144.4420 C   0  0  0  0  0  0  0  0  0  0  0  0
  188.8790  177.8480  141.3420 N   0  0  0  0  0  0  0  0  0  0  0  0
  185.8150  178.6060  141.1560 C   0  0  0  0  0  0  0  0  0  0  0  0
  189.3150  177.5400  145.0630 C   0  0  0  0  0  2  0  0  0  0  0  0
  185.5850  178.0000  144.6210 C   0  0  0  0  0  3  0  0  0  0  0  0
  185.0340  178.3280  143.4290 N   0  0  0  0  0  0  0  0  0  0  0  0
  187.9010  177.4230  145.4280 N   0  0  0  0  0  2  0  0  0  0  0  0
  186.8240  178.5820  140.1900 C   0  0  0  0  0  3  0  0  0  0  0  0
  188.1820  178.2610  140.2510 C   0  0  0  0  0  0  0  0  0  0  0  0
  189.5560  177.1220  143.5950 C   0  0  0  0  0  2  0  0  0  0  0  0
  187.2550  177.9350  143.1300 C   0  0  0  0  0  0  0  0  0  0  0  0
  188.5300  177.6970  142.6410 C   0  0  0  0  0  0  0  0  0  0  0  0
  183.1800  180.0830  138.8930 O   0  0  0  0  0  0  0  0  0  0  0  0
  184.3230  179.2960  139.2160 C   0  0  2  0  0  3  0  0  0  0  0  0
  179.2730  177.0940  141.5530 C   0  0  0  0  0  2  0  0  0  0  0  0
  182.0090  178.7050  141.2800 C   0  0  2  0  0  3  0  0  0  0  0  0
  180.0310  179.1880  142.8570 C   0  0  1  0  0  3  0  0  0  0  0  0
  178.9840  178.5550  141.9230 C   0  0  0  0  0  2  0  0  0  0  0  0
  182.2550  179.2450  136.7960 C   0  0  0  0  0  1  0  0  0  0  0  0
  183.3700  178.0130  141.2410 C   0  0  0  0  0  2  0  0  0  0  0  0
  184.6810  178.1430  138.2690 C   0  0  0  0  0  1  0  0  0  0  0  0
  179.5860  179.0180  144.2940 C   0  0  0  0  0  1  0  0  0  0  0  0
  182.0960  179.3690  138.3030 C   0  0  1  0  0  3  0  0  0  0  0  0
  181.4440  178.6160  142.7070 C   0  0  0  0  0  2  0  0  0  0  0  0
  181.7350  178.0290  138.9530 C   0  0  0  0  0  2  0  0  0  0  0  0
  184.4230  178.9870  140.7220 C   0  0  1  0  0  3  0  0  0  0  0  0
  181.0720  178.2160  140.2410 N   0  0  1  0  0  0  0  0  0  0  0  0
  180.4850  176.9260  140.6190 C   0  0  0  0  0  2  0  0  0  0  0  0
  188.9150  178.3350  138.9560 C   0  0  0  0  0  2  0  0  0  0  0  0
  189.4600  177.0900  137.0350 C   0  0  0  0  0  2  0  0  0  0  0  0
  188.1730  176.6320  137.5460 C   0  0  2  0  0  3  0  0  0  0  0  0
  189.2420  176.9990  138.4900 N   0  0  0  0  0  0  0  0  0  0  0  0
  188.0870  175.1160  137.4380 C   0  0  0  0  0  2  0  0  0  0  0  0
  185.7970  174.2320  137.4460 C   0  0  0  0  0  3  0  0  0  0  0  0
  186.8380  174.6900  136.7290 C   0  0  0  0  0  0  0  0  0  0  0  0
  184.4810  173.8300  136.8470 C   0  0  1  0  0  3  0  0  0  0  0  0
  184.2200  172.3750  137.1880 C   0  0  0  0  0  1  0  0  0  0  0  0
  180.9190  174.5620  137.7920 C   0  0  0  0  0  1  0  0  0  0  0  0
  183.3550  174.6780  137.4200 C   0  0  2  0  0  3  0  0  0  0  0  0
  182.0380  174.2020  136.8390 C   0  0  2  0  0  3  0  0  0  0  0  0
  182.6730  175.4750  136.3230 C   0  0  0  0  0  2  0  0  0  0  0  0
  186.7810  174.8540  135.2360 C   0  0  0  0  0  2  0  0  0  0  0  0
  188.0670  174.3650  134.5950 C   0  0  0  0  0  1  0  0  0  0  0  0
  1 12  1  0  0  0  0
  1  7  1  0  0  0  0
  2  6  1  0  0  0  0
  2  8  1  0  0  0  0
  3 13  2  0  0  0  0
  4  1  2  0  0  0  0
  5  8  1  0  0  0  0
  7  6  2  0  0  0  0
  9 10  2  0  0  0  0
  9  4  1  0  0  0  0
 10  3  1  0  0  0  0
 11  5  1  0  0  0  0
 12  2  2  0  0  0  0
 13 12  1  0  0  0  0
 13 11  1  0  0  0  0
 14 15  1  0  0  0  0
 15 22  1  6  0  0  0
 15 27  1  0  0  0  0
 16 19  1  0  0  0  0
 17 21  1  1  0  0  0
 17 25  1  0  0  0  0
 18 23  1  1  0  0  0
 19 18  1  0  0  0  0
 24 20  1  6  0  0  0
 24 14  1  0  0  0  0
 24 26  1  0  0  0  0
 25 18  1  0  0  0  0
 27  4  1  6  0  0  0
 27 21  1  0  0  0  0
 28 26  1  6  0  0  0
 28 29  1  0  0  0  0
 28 17  1  0  0  0  0
 29 16  1  0  0  0  0
 30 10  1  0  0  0  0
 31 32  1  0  0  0  0
 31 33  1  0  0  0  0
 32 34  1  6  0  0  0
 32 33  1  0  0  0  0
 33 30  1  0  0  0  0
 36 34  1  0  0  0  0
 36 35  2  0  0  0  0
 37 38  1  1  0  0  0
 37 35  1  0  0  0  0
 40 37  1  6  0  0  0
 41 40  1  0  0  0  0
 41 39  1  1  0  0  0
 42 41  1  0  0  0  0
 42 40  1  0  0  0  0
 43 36  1  0  0  0  0
 44 43  1  0  0  0  0
M  END
>  <MODEL>
9

>  <REMARK>
 VINA RESULT:      -7.7      2.672      7.343
  Name = 
  8 active torsions:
  status: ('A' for Active; 'I' for Inactive)
    1  A    between atoms: C_7  and  C_38
    2  A    between atoms: C_13  and  C_18
    3  A    between atoms: C_17  and  C_25
    4  A    between atoms: C_17  and  N_37
    5  A    between atoms: C_18  and  C_19
    6  A    between atoms: C_22  and  C_44
    7  A    between atoms: C_26  and  C_35
    8  A    between atoms: C_26  and  C_44
                            x       y       z     vdW  Elec       q    Type
                         _______ _______ _______ _____ _____    ______ ____

>  <TORSDO>
F 8

$$$$
