=
 OpenBabel11062414433D

 27 28  0  0  1  0  0  0  0  0999 V2000
  188.9120  179.4020  138.1370 O   0  0  0  0  0  1  0  0  0  0  0  0
  190.2060  177.3900  140.4630 C   0  0  0  0  0  0  0  0  0  0  0  0
  190.7310  177.0940  143.0480 S   0  0  0  0  0  0  0  0  0  0  0  0
  188.1120  178.3400  140.1250 C   0  0  0  0  0  2  0  0  0  0  0  0
  189.1310  177.8110  141.0580 C   0  0  0  0  0  0  0  0  0  0  0  0
  188.7670  178.1590  138.7510 C   0  0  2  0  0  3  0  0  0  0  0  0
  189.1100  177.7910  142.5400 C   0  0  1  0  0  3  0  0  0  0  0  0
  191.3310  176.9560  141.3240 C   0  0  0  0  0  2  0  0  0  0  0  0
  190.1560  177.5300  138.9800 C   0  0  2  0  0  3  0  0  0  0  0  0
  190.2600  176.1660  138.2800 C   0  0  1  0  0  3  0  0  0  0  0  0
  185.3900  174.3240  134.8280 O   0  0  0  0  0  1  0  0  0  0  0  0
  188.2410  175.3710  136.9570 N   0  0  0  0  0  2  0  0  0  0  0  0
  186.2160  174.4580  135.8920 N   0  0  0  0  0  2  0  0  0  0  0  0
  189.4520  176.1370  137.0170 C   0  0  0  0  0  0  0  0  0  0  0  0
  187.3930  175.2560  135.8100 C   0  0  0  0  0  0  0  0  0  0  0  0
  187.6770  175.8480  134.7350 O   0  0  0  0  0  0  0  0  0  0  0  0
  189.8510  176.7950  136.0200 O   0  0  0  0  0  0  0  0  0  0  0  0
  191.7100  175.8230  137.9630 C   0  0  0  0  0  2  0  0  0  0  0  0
  191.8660  174.4390  137.8750 O   0  0  0  0  0  1  0  0  0  0  0  0
  187.9770  176.9000  143.0300 C   0  0  0  0  0  2  0  0  0  0  0  0
  187.7350  177.0890  144.4920 C   0  0  0  0  0  3  0  0  0  0  0  0
  186.5320  177.4450  144.9520 C   0  0  0  0  0  3  0  0  0  0  0  0
  187.5410  177.7160  147.2230 C   0  0  0  0  0  1  0  0  0  0  0  0
  186.2550  177.6390  146.4150 C   0  0  1  0  0  3  0  0  0  0  0  0
  185.7710  179.7740  147.3970 O   0  0  0  0  0  1  0  0  0  0  0  0
  185.3760  178.8230  146.6710 C   0  0  0  0  0  0  0  0  0  0  0  0
  184.1200  178.8820  146.0830 O   0  0  0  0  0  0  0  0  0  0  0  0
  2  5  2  0  0  0  0
  2  8  1  0  0  0  0
  4  5  1  0  0  0  0
  5  7  1  0  0  0  0
  6  1  1  1  0  0  0
  6  9  1  0  0  0  0
  6  4  1  0  0  0  0
  7 20  1  6  0  0  0
  7  3  1  0  0  0  0
  8  3  1  0  0  0  0
  9 10  1  6  0  0  0
  9  2  1  0  0  0  0
 10 18  1  6  0  0  0
 11 13  1  0  0  0  0
 12 14  1  0  0  0  0
 14 10  1  0  0  0  0
 15 13  1  0  0  0  0
 15 12  1  0  0  0  0
 16 15  2  0  0  0  0
 17 14  2  0  0  0  0
 19 18  1  0  0  0  0
 20 21  1  0  0  0  0
 21 22  2  0  0  0  0
 22 24  1  0  0  0  0
 24 26  1  0  0  0  0
 24 23  1  1  0  0  0
 26 25  1  0  0  0  0
 27 26  2  0  0  0  0
M  END
>  <MODEL>
1

>  <REMARK>
 VINA RESULT:      -7.6      0.000      0.000
  Name = 
  7 active torsions:
  status: ('A' for Active; 'I' for Inactive)
    1  A    between atoms: C_3  and  C_17
    2  A    between atoms: C_3  and  C_19
    3  A    between atoms: C_3  and  C_26
    4  A    between atoms: C_4  and  C_18
    5  A    between atoms: C_11  and  C_15
    6  A    between atoms: C_14  and  C_15
    7  A    between atoms: C_18  and  C_21
                            x       y       z     vdW  Elec       q    Type
                         _______ _______ _______ _____ _____    ______ ____

>  <TORSDO>
F 7

$$$$
=
 OpenBabel11062414433D

 27 28  0  0  1  0  0  0  0  0999 V2000
  188.3280  179.4290  137.5240 O   0  0  0  0  0  1  0  0  0  0  0  0
  190.1130  177.4840  139.5640 C   0  0  0  0  0  0  0  0  0  0  0  0
  191.0650  177.1920  142.0250 S   0  0  0  0  0  0  0  0  0  0  0  0
  187.9310  178.2850  139.5870 C   0  0  0  0  0  2  0  0  0  0  0  0
  189.1210  177.8180  140.3330 C   0  0  0  0  0  0  0  0  0  0  0  0
  188.3690  178.1700  138.1220 C   0  0  2  0  0  3  0  0  0  0  0  0
  189.3400  177.7770  141.7990 C   0  0  1  0  0  3  0  0  0  0  0  0
  191.3890  177.1200  140.2240 C   0  0  0  0  0  2  0  0  0  0  0  0
  189.8160  177.6400  138.1120 C   0  0  2  0  0  3  0  0  0  0  0  0
  189.9010  176.2960  137.3710 C   0  0  1  0  0  3  0  0  0  0  0  0
  196.0090  176.3960  136.0680 O   0  0  0  0  0  1  0  0  0  0  0  0
  192.3730  176.4280  136.8010 N   0  0  0  0  0  2  0  0  0  0  0  0
  194.7130  176.7830  136.1150 N   0  0  0  0  0  2  0  0  0  0  0  0
  191.2880  175.7290  137.4240 C   0  0  0  0  0  0  0  0  0  0  0  0
  193.7340  175.9840  136.7730 C   0  0  0  0  0  0  0  0  0  0  0  0
  194.0710  174.9010  137.3210 O   0  0  0  0  0  0  0  0  0  0  0  0
  191.4810  174.6390  138.0250 O   0  0  0  0  0  0  0  0  0  0  0  0
  188.9170  175.2880  137.9530 C   0  0  0  0  0  2  0  0  0  0  0  0
  188.3590  174.5190  136.9300 O   0  0  0  0  0  1  0  0  0  0  0  0
  188.3640  176.8010  142.4400 C   0  0  0  0  0  2  0  0  0  0  0  0
  188.1290  177.1370  143.8770 C   0  0  0  0  0  3  0  0  0  0  0  0
  186.8920  177.3040  144.3520 C   0  0  0  0  0  3  0  0  0  0  0  0
  187.9110  177.7890  146.5830 C   0  0  0  0  0  1  0  0  0  0  0  0
  186.6220  177.6390  145.7910 C   0  0  1  0  0  3  0  0  0  0  0  0
  185.1310  179.3170  144.9420 O   0  0  0  0  0  0  0  0  0  0  0  0
  185.7470  178.8450  145.9350 C   0  0  0  0  0  0  0  0  0  0  0  0
  185.5960  179.4360  147.1820 O   0  0  0  0  0  1  0  0  0  0  0  0
  2  8  1  0  0  0  0
  2  5  2  0  0  0  0
  4  5  1  0  0  0  0
  5  7  1  0  0  0  0
  6  1  1  1  0  0  0
  6  4  1  0  0  0  0
  7  3  1  0  0  0  0
  7 20  1  1  0  0  0
  8  3  1  0  0  0  0
  9 10  1  6  0  0  0
  9  6  1  0  0  0  0
  9  2  1  0  0  0  0
 10 14  1  0  0  0  0
 10 18  1  1  0  0  0
 11 13  1  0  0  0  0
 12 14  1  0  0  0  0
 13 15  1  0  0  0  0
 14 17  2  0  0  0  0
 15 12  1  0  0  0  0
 15 16  2  0  0  0  0
 19 18  1  0  0  0  0
 20 21  1  0  0  0  0
 21 22  2  0  0  0  0
 22 24  1  0  0  0  0
 24 26  1  0  0  0  0
 24 23  1  1  0  0  0
 25 26  2  0  0  0  0
 26 27  1  0  0  0  0
M  END
>  <MODEL>
2

>  <REMARK>
 VINA RESULT:      -7.4      2.111      3.664
  Name = 
  7 active torsions:
  status: ('A' for Active; 'I' for Inactive)
    1  A    between atoms: C_3  and  C_17
    2  A    between atoms: C_3  and  C_19
    3  A    between atoms: C_3  and  C_26
    4  A    between atoms: C_4  and  C_18
    5  A    between atoms: C_11  and  C_15
    6  A    between atoms: C_14  and  C_15
    7  A    between atoms: C_18  and  C_21
                            x       y       z     vdW  Elec       q    Type
                         _______ _______ _______ _____ _____    ______ ____

>  <TORSDO>
F 7

$$$$
=
 OpenBabel11062414433D

 27 28  0  0  1  0  0  0  0  0999 V2000
  188.7840  179.6620  137.7460 O   0  0  0  0  0  1  0  0  0  0  0  0
  190.2690  177.4300  139.7310 C   0  0  0  0  0  0  0  0  0  0  0  0
  191.0720  176.8980  142.2050 S   0  0  0  0  0  0  0  0  0  0  0  0
  188.1790  178.4460  139.7160 C   0  0  0  0  0  2  0  0  0  0  0  0
  189.2810  177.8180  140.4780 C   0  0  0  0  0  0  0  0  0  0  0  0
  188.6710  178.3740  138.2660 C   0  0  2  0  0  3  0  0  0  0  0  0
  189.4260  177.6690  141.9460 C   0  0  1  0  0  3  0  0  0  0  0  0
  191.4710  176.8990  140.4180 C   0  0  0  0  0  2  0  0  0  0  0  0
  190.0570  177.7000  138.2810 C   0  0  2  0  0  3  0  0  0  0  0  0
  190.0420  176.4000  137.4610 C   0  0  1  0  0  3  0  0  0  0  0  0
  196.1510  176.0550  136.2050 O   0  0  0  0  0  1  0  0  0  0  0  0
  192.5230  176.3540  136.9140 N   0  0  0  0  0  2  0  0  0  0  0  0
  194.8910  176.5460  136.2630 N   0  0  0  0  0  2  0  0  0  0  0  0
  191.3770  175.7170  137.4940 C   0  0  0  0  0  0  0  0  0  0  0  0
  193.8420  175.8000  136.8730 C   0  0  0  0  0  0  0  0  0  0  0  0
  194.0820  174.6660  137.3670 O   0  0  0  0  0  0  0  0  0  0  0  0
  191.4720  174.5850  138.0390 O   0  0  0  0  0  0  0  0  0  0  0  0
  188.9700  175.4450  137.9700 C   0  0  0  0  0  2  0  0  0  0  0  0
  188.2560  174.9100  136.8960 O   0  0  0  0  0  1  0  0  0  0  0  0
  188.3290  176.7610  142.4850 C   0  0  0  0  0  2  0  0  0  0  0  0
  187.7180  177.3290  143.7250 C   0  0  0  0  0  3  0  0  0  0  0  0
  188.4250  177.4390  144.8540 C   0  0  0  0  0  3  0  0  0  0  0  0
  186.3540  177.7200  146.2240 C   0  0  0  0  0  1  0  0  0  0  0  0
  187.8430  178.0080  146.1150 C   0  0  1  0  0  3  0  0  0  0  0  0
  188.3690  178.0850  148.4550 O   0  0  0  0  0  1  0  0  0  0  0  0
  188.5800  177.5480  147.3340 C   0  0  0  0  0  0  0  0  0  0  0  0
  189.4890  176.5040  147.2320 O   0  0  0  0  0  0  0  0  0  0  0  0
  2  8  1  0  0  0  0
  2  5  2  0  0  0  0
  4  5  1  0  0  0  0
  5  7  1  0  0  0  0
  6  1  1  1  0  0  0
  6  9  1  0  0  0  0
  6  4  1  0  0  0  0
  7  3  1  0  0  0  0
  7 20  1  6  0  0  0
  8  3  1  0  0  0  0
  9 10  1  6  0  0  0
  9  2  1  0  0  0  0
 10 14  1  0  0  0  0
 10 18  1  1  0  0  0
 11 13  1  0  0  0  0
 12 14  1  0  0  0  0
 13 15  1  0  0  0  0
 14 17  2  0  0  0  0
 15 12  1  0  0  0  0
 15 16  2  0  0  0  0
 19 18  1  0  0  0  0
 20 21  1  0  0  0  0
 21 22  2  0  0  0  0
 22 24  1  0  0  0  0
 24 23  1  1  0  0  0
 24 26  1  0  0  0  0
 26 25  1  0  0  0  0
 27 26  2  0  0  0  0
M  END
>  <MODEL>
3

>  <REMARK>
 VINA RESULT:      -7.2      2.379      3.960
  Name = 
  7 active torsions:
  status: ('A' for Active; 'I' for Inactive)
    1  A    between atoms: C_3  and  C_17
    2  A    between atoms: C_3  and  C_19
    3  A    between atoms: C_3  and  C_26
    4  A    between atoms: C_4  and  C_18
    5  A    between atoms: C_11  and  C_15
    6  A    between atoms: C_14  and  C_15
    7  A    between atoms: C_18  and  C_21
                            x       y       z     vdW  Elec       q    Type
                         _______ _______ _______ _____ _____    ______ ____

>  <TORSDO>
F 7

$$$$
=
 OpenBabel11062414433D

 27 28  0  0  1  0  0  0  0  0999 V2000
  188.4030  179.2960  137.8560 O   0  0  0  0  0  1  0  0  0  0  0  0
  190.1320  177.4060  139.9940 C   0  0  0  0  0  0  0  0  0  0  0  0
  191.0570  177.2010  142.4740 S   0  0  0  0  0  0  0  0  0  0  0  0
  187.9660  178.2490  139.9630 C   0  0  0  0  0  2  0  0  0  0  0  0
  189.1400  177.7920  140.7390 C   0  0  0  0  0  0  0  0  0  0  0  0
  188.4140  178.0640  138.5080 C   0  0  2  0  0  3  0  0  0  0  0  0
  189.3460  177.8090  142.2070 C   0  0  1  0  0  3  0  0  0  0  0  0
  191.3950  177.0460  140.6810 C   0  0  0  0  0  2  0  0  0  0  0  0
  189.8510  177.5060  138.5340 C   0  0  2  0  0  3  0  0  0  0  0  0
  189.9150  176.1300  137.8520 C   0  0  1  0  0  3  0  0  0  0  0  0
  184.6660  174.3010  135.0010 O   0  0  0  0  0  1  0  0  0  0  0  0
  187.7480  175.3480  136.7790 N   0  0  0  0  0  2  0  0  0  0  0  0
  185.5950  174.4620  135.9710 N   0  0  0  0  0  2  0  0  0  0  0  0
  188.9880  176.0610  136.6750 C   0  0  0  0  0  0  0  0  0  0  0  0
  186.7900  175.2000  135.7270 C   0  0  0  0  0  0  0  0  0  0  0  0
  186.9900  175.7130  134.5940 O   0  0  0  0  0  0  0  0  0  0  0  0
  189.3140  176.6380  135.6040 O   0  0  0  0  0  0  0  0  0  0  0  0
  191.3340  175.8100  137.3990 C   0  0  0  0  0  2  0  0  0  0  0  0
  191.7520  174.6000  137.9570 O   0  0  0  0  0  1  0  0  0  0  0  0
  188.3450  176.8800  142.8800 C   0  0  0  0  0  2  0  0  0  0  0  0
  187.7500  177.5150  144.0940 C   0  0  0  0  0  3  0  0  0  0  0  0
  188.3230  177.3830  145.2940 C   0  0  0  0  0  3  0  0  0  0  0  0
  186.2380  177.8760  146.5810 C   0  0  0  0  0  1  0  0  0  0  0  0
  187.7520  178.0110  146.5320 C   0  0  1  0  0  3  0  0  0  0  0  0
  187.9110  177.7540  148.9120 O   0  0  0  0  0  1  0  0  0  0  0  0
  188.3910  177.4830  147.7790 C   0  0  0  0  0  0  0  0  0  0  0  0
  189.5100  176.6680  147.6820 O   0  0  0  0  0  0  0  0  0  0  0  0
  2  8  1  0  0  0  0
  2  5  2  0  0  0  0
  4  5  1  0  0  0  0
  5  7  1  0  0  0  0
  6  1  1  6  0  0  0
  6  9  1  0  0  0  0
  6  4  1  0  0  0  0
  7  3  1  0  0  0  0
  7 20  1  1  0  0  0
  8  3  1  0  0  0  0
  9 10  1  1  0  0  0
  9  2  1  0  0  0  0
 10 18  1  6  0  0  0
 11 13  1  0  0  0  0
 14 12  1  0  0  0  0
 14 10  1  0  0  0  0
 15 13  1  0  0  0  0
 15 12  1  0  0  0  0
 16 15  2  0  0  0  0
 17 14  2  0  0  0  0
 18 19  1  0  0  0  0
 20 21  1  0  0  0  0
 21 22  2  0  0  0  0
 22 24  1  0  0  0  0
 24 23  1  1  0  0  0
 24 26  1  0  0  0  0
 26 25  1  0  0  0  0
 27 26  2  0  0  0  0
M  END
>  <MODEL>
4

>  <REMARK>
 VINA RESULT:      -7.0      1.301      1.655
  Name = 
  7 active torsions:
  status: ('A' for Active; 'I' for Inactive)
    1  A    between atoms: C_3  and  C_17
    2  A    between atoms: C_3  and  C_19
    3  A    between atoms: C_3  and  C_26
    4  A    between atoms: C_4  and  C_18
    5  A    between atoms: C_11  and  C_15
    6  A    between atoms: C_14  and  C_15
    7  A    between atoms: C_18  and  C_21
                            x       y       z     vdW  Elec       q    Type
                         _______ _______ _______ _____ _____    ______ ____

>  <TORSDO>
F 7

$$$$
=
 OpenBabel11062414433D

 27 28  0  0  1  0  0  0  0  0999 V2000
  189.0560  175.0060  143.0760 O   0  0  0  0  0  1  0  0  0  0  0  0
  187.7900  178.0300  142.4560 C   0  0  0  0  0  0  0  0  0  0  0  0
  185.6570  179.3790  141.6350 S   0  0  0  0  0  0  0  0  0  0  0  0
  187.1980  176.2850  143.8740 C   0  0  0  0  0  2  0  0  0  0  0  0
  186.7960  177.4560  143.0640 C   0  0  0  0  0  0  0  0  0  0  0  0
  188.7160  176.2220  143.6670 C   0  0  2  0  0  3  0  0  0  0  0  0
  185.4330  177.9760  142.7980 C   0  0  1  0  0  3  0  0  0  0  0  0
  187.4690  179.1370  141.5250 C   0  0  0  0  0  2  0  0  0  0  0  0
  189.1040  177.3790  142.7260 C   0  0  2  0  0  3  0  0  0  0  0  0
  190.0800  178.3430  143.4190 C   0  0  1  0  0  3  0  0  0  0  0  0
  192.6330  175.6110  148.4230 O   0  0  0  0  0  1  0  0  0  0  0  0
  191.1910  177.1950  145.3950 N   0  0  0  0  0  2  0  0  0  0  0  0
  192.4320  175.9650  147.1320 N   0  0  0  0  0  2  0  0  0  0  0  0
  190.1690  178.0660  144.8910 C   0  0  0  0  0  0  0  0  0  0  0  0
  191.3710  176.8450  146.7710 C   0  0  0  0  0  0  0  0  0  0  0  0
  190.6050  177.3030  147.6600 O   0  0  0  0  0  0  0  0  0  0  0  0
  189.3410  178.6100  145.6680 O   0  0  0  0  0  0  0  0  0  0  0  0
  191.4690  178.2530  142.8010 C   0  0  0  0  0  2  0  0  0  0  0  0
  191.4590  177.3600  141.7290 O   0  0  0  0  0  1  0  0  0  0  0  0
  184.8030  178.4640  144.0950 C   0  0  0  0  0  2  0  0  0  0  0  0
  183.5410  179.2180  143.8330 C   0  0  0  0  0  3  0  0  0  0  0  0
  182.4210  178.5840  143.4720 C   0  0  0  0  0  3  0  0  0  0  0  0
  180.8220  179.3680  141.7180 C   0  0  0  0  0  1  0  0  0  0  0  0
  181.1360  179.3110  143.2050 C   0  0  1  0  0  3  0  0  0  0  0  0
  179.8930  177.4990  144.1690 O   0  0  0  0  0  0  0  0  0  0  0  0
  179.9920  178.7420  143.9850 C   0  0  0  0  0  0  0  0  0  0  0  0
  179.0420  179.5950  144.5290 O   0  0  0  0  0  1  0  0  0  0  0  0
  2  9  1  0  0  0  0
  2  5  2  0  0  0  0
  3  7  1  0  0  0  0
  5  4  1  0  0  0  0
  6  1  1  6  0  0  0
  6  4  1  0  0  0  0
  7  5  1  0  0  0  0
  7 20  1  1  0  0  0
  8  3  1  0  0  0  0
  8  2  1  0  0  0  0
  9 10  1  1  0  0  0
  9  6  1  0  0  0  0
 10 18  1  6  0  0  0
 10 14  1  0  0  0  0
 12 15  1  0  0  0  0
 13 11  1  0  0  0  0
 14 12  1  0  0  0  0
 14 17  2  0  0  0  0
 15 13  1  0  0  0  0
 15 16  2  0  0  0  0
 19 18  1  0  0  0  0
 21 20  1  0  0  0  0
 22 21  2  0  0  0  0
 24 23  1  6  0  0  0
 24 22  1  0  0  0  0
 24 26  1  0  0  0  0
 26 25  2  0  0  0  0
 26 27  1  0  0  0  0
M  END
>  <MODEL>
5

>  <REMARK>
 VINA RESULT:      -6.8      5.155      7.537
  Name = 
  7 active torsions:
  status: ('A' for Active; 'I' for Inactive)
    1  A    between atoms: C_3  and  C_17
    2  A    between atoms: C_3  and  C_19
    3  A    between atoms: C_3  and  C_26
    4  A    between atoms: C_4  and  C_18
    5  A    between atoms: C_11  and  C_15
    6  A    between atoms: C_14  and  C_15
    7  A    between atoms: C_18  and  C_21
                            x       y       z     vdW  Elec       q    Type
                         _______ _______ _______ _____ _____    ______ ____

>  <TORSDO>
F 7

$$$$
=
 OpenBabel11062414433D

 27 28  0  0  1  0  0  0  0  0999 V2000
  192.0470  178.7470  143.9050 O   0  0  0  0  0  1  0  0  0  0  0  0
  189.4230  178.0220  141.9770 C   0  0  0  0  0  0  0  0  0  0  0  0
  188.3860  178.2020  139.5400 S   0  0  0  0  0  0  0  0  0  0  0  0
  191.6850  177.4930  141.9010 C   0  0  0  0  0  2  0  0  0  0  0  0
  190.4100  177.7260  141.1870 C   0  0  0  0  0  0  0  0  0  0  0  0
  191.3040  177.6950  143.3720 C   0  0  2  0  0  3  0  0  0  0  0  0
  190.1570  177.7540  139.7260 C   0  0  1  0  0  3  0  0  0  0  0  0
  188.1350  178.3920  141.3430 C   0  0  0  0  0  2  0  0  0  0  0  0
  189.8040  178.0460  143.4170 C   0  0  2  0  0  3  0  0  0  0  0  0
  189.0220  177.0000  144.2270 C   0  0  1  0  0  3  0  0  0  0  0  0
  183.3790  179.3730  145.4680 O   0  0  0  0  0  1  0  0  0  0  0  0
  186.6960  177.9350  144.6400 N   0  0  0  0  0  2  0  0  0  0  0  0
  184.3880  178.7850  144.7840 N   0  0  0  0  0  2  0  0  0  0  0  0
  188.0140  177.6480  145.1280 C   0  0  0  0  0  0  0  0  0  0  0  0
  185.6540  178.5590  145.3970 C   0  0  0  0  0  0  0  0  0  0  0  0
  185.8450  178.9090  146.5930 O   0  0  0  0  0  0  0  0  0  0  0  0
  188.3410  177.9280  146.3120 O   0  0  0  0  0  0  0  0  0  0  0  0
  188.3190  176.0100  143.3060 C   0  0  0  0  0  2  0  0  0  0  0  0
  189.2110  175.0170  142.8990 O   0  0  0  0  0  1  0  0  0  0  0  0
  190.4170  176.3780  139.1300 C   0  0  0  0  0  2  0  0  0  0  0  0
  191.6910  176.3580  138.3500 C   0  0  0  0  0  3  0  0  0  0  0  0
  192.2480  175.2060  137.9670 C   0  0  0  0  0  3  0  0  0  0  0  0
  193.9320  176.5290  136.6780 C   0  0  0  0  0  1  0  0  0  0  0  0
  193.5250  175.1520  137.1800 C   0  0  1  0  0  3  0  0  0  0  0  0
  194.8950  173.2770  137.7810 O   0  0  0  0  0  0  0  0  0  0  0  0
  194.6330  174.4980  137.9450 C   0  0  0  0  0  0  0  0  0  0  0  0
  195.3920  175.2530  138.8290 O   0  0  0  0  0  1  0  0  0  0  0  0
  2  9  1  0  0  0  0
  3  7  1  0  0  0  0
  3  8  1  0  0  0  0
  4  6  1  0  0  0  0
  5  4  1  0  0  0  0
  5  2  2  0  0  0  0
  6  9  1  0  0  0  0
  6  1  1  6  0  0  0
  7 20  1  1  0  0  0
  7  5  1  0  0  0  0
  8  2  1  0  0  0  0
  9 10  1  1  0  0  0
 10 18  1  6  0  0  0
 10 14  1  0  0  0  0
 12 14  1  0  0  0  0
 12 15  1  0  0  0  0
 13 15  1  0  0  0  0
 13 11  1  0  0  0  0
 14 17  2  0  0  0  0
 15 16  2  0  0  0  0
 19 18  1  0  0  0  0
 21 20  1  0  0  0  0
 22 21  2  0  0  0  0
 24 23  1  1  0  0  0
 24 26  1  0  0  0  0
 24 22  1  0  0  0  0
 25 26  2  0  0  0  0
 26 27  1  0  0  0  0
M  END
>  <MODEL>
6

>  <REMARK>
 VINA RESULT:      -6.8      4.167      8.746
  Name = 
  7 active torsions:
  status: ('A' for Active; 'I' for Inactive)
    1  A    between atoms: C_3  and  C_17
    2  A    between atoms: C_3  and  C_19
    3  A    between atoms: C_3  and  C_26
    4  A    between atoms: C_4  and  C_18
    5  A    between atoms: C_11  and  C_15
    6  A    between atoms: C_14  and  C_15
    7  A    between atoms: C_18  and  C_21
                            x       y       z     vdW  Elec       q    Type
                         _______ _______ _______ _____ _____    ______ ____

>  <TORSDO>
F 7

$$$$
=
 OpenBabel11062414433D

 27 28  0  0  1  0  0  0  0  0999 V2000
  183.6830  180.1500  144.0560 O   0  0  0  0  0  1  0  0  0  0  0  0
  185.5380  178.6280  141.7370 C   0  0  0  0  0  0  0  0  0  0  0  0
  188.0050  178.1420  140.8860 S   0  0  0  0  0  0  0  0  0  0  0  0
  185.3930  178.4760  144.0520 C   0  0  0  0  0  2  0  0  0  0  0  0
  186.2000  178.3480  142.8180 C   0  0  0  0  0  0  0  0  0  0  0  0
  184.0170  178.9040  143.5270 C   0  0  2  0  0  3  0  0  0  0  0  0
  187.6430  178.0390  142.6830 C   0  0  1  0  0  3  0  0  0  0  0  0
  186.2950  178.6450  140.4640 C   0  0  0  0  0  2  0  0  0  0  0  0
  184.1180  179.0040  141.9920 C   0  0  2  0  0  3  0  0  0  0  0  0
  183.1440  178.0270  141.3160 C   0  0  1  0  0  3  0  0  0  0  0  0
  179.0830  182.0930  138.8690 O   0  0  0  0  0  1  0  0  0  0  0  0
  181.5650  179.7130  140.2580 N   0  0  0  0  0  2  0  0  0  0  0  0
  180.2470  181.4430  139.1000 N   0  0  0  0  0  2  0  0  0  0  0  0
  181.7780  178.6290  141.1720 C   0  0  0  0  0  0  0  0  0  0  0  0
  180.3150  180.3760  140.0420 C   0  0  0  0  0  0  0  0  0  0  0  0
  179.2810  180.0280  140.6730 O   0  0  0  0  0  0  0  0  0  0  0  0
  180.8290  178.1650  141.8590 O   0  0  0  0  0  0  0  0  0  0  0  0
  183.6590  177.6030  139.9460 C   0  0  0  0  0  2  0  0  0  0  0  0
  182.8940  176.5430  139.4550 O   0  0  0  0  0  1  0  0  0  0  0  0
  187.9230  176.6330  143.1960 C   0  0  0  0  0  2  0  0  0  0  0  0
  188.4520  176.6640  144.5930 C   0  0  0  0  0  3  0  0  0  0  0  0
  189.4780  177.4530  144.9250 C   0  0  0  0  0  3  0  0  0  0  0  0
  189.0060  177.0560  147.3480 C   0  0  0  0  0  1  0  0  0  0  0  0
  190.0310  177.5090  146.3200 C   0  0  1  0  0  3  0  0  0  0  0  0
  191.9070  176.3070  145.4290 O   0  0  0  0  0  0  0  0  0  0  0  0
  191.3120  176.7450  146.4500 C   0  0  0  0  0  0  0  0  0  0  0  0
  191.8590  176.5370  147.7080 O   0  0  0  0  0  1  0  0  0  0  0  0
  2  9  1  0  0  0  0
  2  5  2  0  0  0  0
  3  7  1  0  0  0  0
  5  4  1  0  0  0  0
  6  4  1  0  0  0  0
  6  1  1  1  0  0  0
  7  5  1  0  0  0  0
  7 20  1  6  0  0  0
  8  3  1  0  0  0  0
  8  2  1  0  0  0  0
  9 10  1  6  0  0  0
  9  6  1  0  0  0  0
 10 18  1  6  0  0  0
 11 13  1  0  0  0  0
 12 14  1  0  0  0  0
 13 15  1  0  0  0  0
 14 10  1  0  0  0  0
 14 17  2  0  0  0  0
 15 12  1  0  0  0  0
 15 16  2  0  0  0  0
 19 18  1  0  0  0  0
 20 21  1  0  0  0  0
 21 22  2  0  0  0  0
 22 24  1  0  0  0  0
 24 26  1  0  0  0  0
 24 23  1  1  0  0  0
 25 26  2  0  0  0  0
 26 27  1  0  0  0  0
M  END
>  <MODEL>
7

>  <REMARK>
 VINA RESULT:      -6.8      5.147      7.133
  Name = 
  7 active torsions:
  status: ('A' for Active; 'I' for Inactive)
    1  A    between atoms: C_3  and  C_17
    2  A    between atoms: C_3  and  C_19
    3  A    between atoms: C_3  and  C_26
    4  A    between atoms: C_4  and  C_18
    5  A    between atoms: C_11  and  C_15
    6  A    between atoms: C_14  and  C_15
    7  A    between atoms: C_18  and  C_21
                            x       y       z     vdW  Elec       q    Type
                         _______ _______ _______ _____ _____    ______ ____

>  <TORSDO>
F 7

$$$$
=
 OpenBabel11062414433D

 27 28  0  0  1  0  0  0  0  0999 V2000
  184.5390  180.1230  139.4850 O   0  0  0  0  0  1  0  0  0  0  0  0
  187.3040  178.2630  139.6440 C   0  0  0  0  0  0  0  0  0  0  0  0
  189.5850  177.8460  140.9380 S   0  0  0  0  0  0  0  0  0  0  0  0
  185.5610  178.7040  141.1170 C   0  0  0  0  0  2  0  0  0  0  0  0
  186.9800  178.3480  140.8990 C   0  0  0  0  0  0  0  0  0  0  0  0
  185.0080  178.8270  139.6920 C   0  0  2  0  0  3  0  0  0  0  0  0
  188.0580  178.1750  141.9030 C   0  0  1  0  0  3  0  0  0  0  0  0
  188.7330  178.0310  139.3270 C   0  0  0  0  0  2  0  0  0  0  0  0
  186.1670  178.5350  138.7200 C   0  0  2  0  0  3  0  0  0  0  0  0
  185.8490  177.3140  137.8420 C   0  0  1  0  0  3  0  0  0  0  0  0
  180.2860  175.1630  139.6990 O   0  0  0  0  0  1  0  0  0  0  0  0
  183.6290  176.4080  138.6830 N   0  0  0  0  0  2  0  0  0  0  0  0
  181.6140  175.4250  139.7040 N   0  0  0  0  0  2  0  0  0  0  0  0
  184.3700  177.1240  137.6850 C   0  0  0  0  0  0  0  0  0  0  0  0
  182.2220  176.1520  138.6400 C   0  0  0  0  0  0  0  0  0  0  0  0
  181.5190  176.5610  137.6770 O   0  0  0  0  0  0  0  0  0  0  0  0
  183.7940  177.6050  136.6730 O   0  0  0  0  0  0  0  0  0  0  0  0
  186.4920  177.4470  136.4670 C   0  0  0  0  0  2  0  0  0  0  0  0
  187.6410  176.6580  136.3970 O   0  0  0  0  0  1  0  0  0  0  0  0
  187.7400  176.9910  142.8050 C   0  0  0  0  0  2  0  0  0  0  0  0
  187.6720  177.4070  144.2380 C   0  0  0  0  0  3  0  0  0  0  0  0
  186.5370  177.2990  144.9350 C   0  0  0  0  0  3  0  0  0  0  0  0
  187.7990  178.0460  146.9590 C   0  0  0  0  0  1  0  0  0  0  0  0
  186.4360  177.7040  146.3770 C   0  0  1  0  0  3  0  0  0  0  0  0
  185.7420  179.7960  147.3240 O   0  0  0  0  0  1  0  0  0  0  0  0
  185.4580  178.8180  146.5830 C   0  0  0  0  0  0  0  0  0  0  0  0
  184.2320  178.7810  145.9330 O   0  0  0  0  0  0  0  0  0  0  0  0
  2  5  2  0  0  0  0
  3  7  1  0  0  0  0
  5  4  1  0  0  0  0
  5  7  1  0  0  0  0
  6  1  1  6  0  0  0
  6  4  1  0  0  0  0
  7 20  1  1  0  0  0
  8  2  1  0  0  0  0
  8  3  1  0  0  0  0
  9 10  1  1  0  0  0
  9  2  1  0  0  0  0
  9  6  1  0  0  0  0
 10 18  1  6  0  0  0
 11 13  1  0  0  0  0
 14 10  1  0  0  0  0
 14 12  1  0  0  0  0
 15 12  1  0  0  0  0
 15 13  1  0  0  0  0
 16 15  2  0  0  0  0
 17 14  2  0  0  0  0
 19 18  1  0  0  0  0
 20 21  1  0  0  0  0
 21 22  2  0  0  0  0
 22 24  1  0  0  0  0
 24 26  1  0  0  0  0
 24 23  1  6  0  0  0
 26 25  1  0  0  0  0
 27 26  2  0  0  0  0
M  END
>  <MODEL>
8

>  <REMARK>
 VINA RESULT:      -6.7      3.210      4.014
  Name = 
  7 active torsions:
  status: ('A' for Active; 'I' for Inactive)
    1  A    between atoms: C_3  and  C_17
    2  A    between atoms: C_3  and  C_19
    3  A    between atoms: C_3  and  C_26
    4  A    between atoms: C_4  and  C_18
    5  A    between atoms: C_11  and  C_15
    6  A    between atoms: C_14  and  C_15
    7  A    between atoms: C_18  and  C_21
                            x       y       z     vdW  Elec       q    Type
                         _______ _______ _______ _____ _____    ______ ____

>  <TORSDO>
F 7

$$$$
=
 OpenBabel11062414433D

 27 28  0  0  1  0  0  0  0  0999 V2000
  191.6350  179.6760  143.2170 O   0  0  0  0  0  1  0  0  0  0  0  0
  191.5370  176.5920  144.4870 C   0  0  0  0  0  0  0  0  0  0  0  0
  192.0560  175.0870  146.6110 S   0  0  0  0  0  0  0  0  0  0  0  0
  190.5930  178.6260  145.0970 C   0  0  0  0  0  2  0  0  0  0  0  0
  191.1060  177.2950  145.4900 C   0  0  0  0  0  0  0  0  0  0  0  0
  190.7770  178.6380  143.5750 C   0  0  2  0  0  3  0  0  0  0  0  0
  191.2680  176.7280  146.8500 C   0  0  1  0  0  3  0  0  0  0  0  0
  192.1820  175.2950  144.7960 C   0  0  0  0  0  2  0  0  0  0  0  0
  191.4040  177.2880  143.1750 C   0  0  2  0  0  3  0  0  0  0  0  0
  190.4790  176.5180  142.2190 C   0  0  1  0  0  3  0  0  0  0  0  0
  185.2710  179.5610  140.5940 O   0  0  0  0  0  1  0  0  0  0  0  0
  188.4070  177.7860  141.4740 N   0  0  0  0  0  2  0  0  0  0  0  0
  186.5470  179.1110  140.5490 N   0  0  0  0  0  2  0  0  0  0  0  0
  189.0440  176.9090  142.4130 C   0  0  0  0  0  0  0  0  0  0  0  0
  187.0520  178.2390  141.5560 C   0  0  0  0  0  0  0  0  0  0  0  0
  186.3060  177.8770  142.5050 O   0  0  0  0  0  0  0  0  0  0  0  0
  188.4150  176.4550  143.4040 O   0  0  0  0  0  0  0  0  0  0  0  0
  190.8770  176.7520  140.7670 C   0  0  0  0  0  2  0  0  0  0  0  0
  192.0600  177.4910  140.7080 O   0  0  0  0  0  1  0  0  0  0  0  0
  189.9050  176.5670  147.5080 C   0  0  0  0  0  2  0  0  0  0  0  0
  188.8100  177.0390  146.6080 C   0  0  0  0  0  3  0  0  0  0  0  0
  187.7920  177.7640  147.0810 C   0  0  0  0  0  3  0  0  0  0  0  0
  186.0590  177.1250  145.3960 C   0  0  0  0  0  1  0  0  0  0  0  0
  186.6790  178.2560  146.2020 C   0  0  1  0  0  3  0  0  0  0  0  0
  184.4380  178.6380  146.9710 O   0  0  0  0  0  0  0  0  0  0  0  0
  185.6420  179.0110  146.9740 C   0  0  0  0  0  0  0  0  0  0  0  0
  186.0170  180.1210  147.7190 O   0  0  0  0  0  1  0  0  0  0  0  0
  2  8  1  0  0  0  0
  2  5  2  0  0  0  0
  3  7  1  0  0  0  0
  4  5  1  0  0  0  0
  5  7  1  0  0  0  0
  6  1  1  1  0  0  0
  6  4  1  0  0  0  0
  7 20  1  6  0  0  0
  8  3  1  0  0  0  0
  9 10  1  6  0  0  0
  9  6  1  0  0  0  0
  9  2  1  0  0  0  0
 10 18  1  6  0  0  0
 10 14  1  0  0  0  0
 12 15  1  0  0  0  0
 12 14  1  0  0  0  0
 13 11  1  0  0  0  0
 13 15  1  0  0  0  0
 14 17  2  0  0  0  0
 15 16  2  0  0  0  0
 19 18  1  0  0  0  0
 21 22  2  0  0  0  0
 21 20  1  0  0  0  0
 24 23  1  1  0  0  0
 24 26  1  0  0  0  0
 24 22  1  0  0  0  0
 25 26  2  0  0  0  0
 26 27  1  0  0  0  0
M  END
>  <MODEL>
9

>  <REMARK>
 VINA RESULT:      -6.7      3.698      4.842
  Name = 
  7 active torsions:
  status: ('A' for Active; 'I' for Inactive)
    1  A    between atoms: C_3  and  C_17
    2  A    between atoms: C_3  and  C_19
    3  A    between atoms: C_3  and  C_26
    4  A    between atoms: C_4  and  C_18
    5  A    between atoms: C_11  and  C_15
    6  A    between atoms: C_14  and  C_15
    7  A    between atoms: C_18  and  C_21
                            x       y       z     vdW  Elec       q    Type
                         _______ _______ _______ _____ _____    ______ ____

>  <TORSDO>
F 7

$$$$
