=
 OpenBabel11062417233D

 45 47  0  0  1  0  0  0  0  0999 V2000
  182.9620  178.1680  138.6630 N   0  0  0  0  0  1  0  0  0  0  0  0
  181.5960  178.5140  143.2610 N   0  0  0  0  0  1  0  0  0  0  0  0
  182.6150  178.6880  142.2800 C   0  0  0  0  0  0  0  0  0  0  0  0
  183.8750  179.1900  142.6370 C   0  0  0  0  0  0  0  0  0  0  0  0
  183.2900  178.5140  140.0040 C   0  0  0  0  0  0  0  0  0  0  0  0
  184.5660  178.9990  140.3180 C   0  0  0  0  0  0  0  0  0  0  0  0
  182.3560  178.3690  140.9830 N   0  0  0  0  0  0  0  0  0  0  0  0
  184.8500  179.3350  141.6490 C   0  0  0  0  0  3  0  0  0  0  0  0
  184.1990  179.5540  144.0470 C   0  0  0  0  0  2  0  0  0  0  0  0
  185.5870  179.2360  144.3340 N   0  0  0  0  0  2  0  0  0  0  0  0
  187.9540  177.3930  144.0010 C   0  0  1  0  0  3  0  0  0  0  0  0
  187.6190  178.1980  146.3580 C   0  0  1  0  0  3  0  0  0  0  0  0
  186.4800  176.9920  143.9110 C   0  0  0  0  0  2  0  0  0  0  0  0
  188.4560  177.3090  145.4430 C   0  0  0  0  0  2  0  0  0  0  0  0
  185.3610  178.6430  147.0810 O   0  0  0  0  0  1  0  0  0  0  0  0
  186.1340  177.8100  146.2690 C   0  0  1  0  0  3  0  0  0  0  0  0
  185.6190  177.8650  144.8250 C   0  0  1  0  0  3  0  0  0  0  0  0
  188.5030  177.9250  148.8680 C   0  0  0  0  0  3  0  0  0  0  0  0
  188.1050  178.0480  147.7350 C   0  0  0  0  0  0  0  0  0  0  0  0
  188.8140  176.5620  143.0500 C   0  0  0  0  0  2  0  0  0  0  0  0
  189.6550  177.4160  142.1060 C   0  0  2  0  0  3  0  0  0  0  0  0
  189.6140  176.8300  140.7080 C   0  0  0  0  0  1  0  0  0  0  0  0
  191.3710  177.4590  142.7000 P   0  0  0  0  0  0  0  0  0  0  0  0
  191.6250  178.8640  143.6070 O   0  0  0  0  0  1  0  0  0  0  0  0
  192.4230  177.4490  141.3760 O   0  0  0  0  0  0  0  0  0  0  0  0
  191.6420  176.2460  143.5620 O   0  0  0  0  0  1  0  0  0  0  0  0
  185.5250  179.1390  139.3100 O   0  0  0  0  0  0  0  0  0  0  0  0
  186.5770  178.2030  139.1190 C   0  0  0  0  0  2  0  0  0  0  0  0
  186.6770  177.8450  137.6490 C   0  0  0  0  0  2  0  0  0  0  0  0
  188.1080  175.8160  137.2260 C   0  0  0  0  0  0  0  0  0  0  0  0
  189.6600  173.8580  136.7210 C   0  0  0  0  0  0  0  0  0  0  0  0
  188.7230  173.0180  136.7470 O   0  0  0  0  0  0  0  0  0  0  0  0
  190.9920  173.3950  136.4620 N   0  0  0  0  0  2  0  0  0  0  0  0
  187.9720  177.2380  137.3730 N   0  0  0  0  0  0  0  0  0  0  0  0
  189.1110  178.1130  137.1480 C   0  0  0  0  0  1  0  0  0  0  0  0
  187.0980  175.0700  137.3610 O   0  0  0  0  0  0  0  0  0  0  0  0
  189.3920  175.2490  136.9320 N   0  0  0  0  0  2  0  0  0  0  0  0
  192.5300  175.0860  135.4930 C   0  0  0  0  0  3  0  0  0  0  0  0
  194.5640  175.6700  136.6680 C   0  0  0  0  0  3  0  0  0  0  0  0
  193.0590  174.0150  137.5950 C   0  0  0  0  0  3  0  0  0  0  0  0
  194.2390  174.7620  137.6780 C   0  0  0  0  0  0  0  0  0  0  0  0
  193.7090  175.8320  135.5740 C   0  0  0  0  0  0  0  0  0  0  0  0
  195.0660  174.6030  138.7390 F   0  0  0  0  0  0  0  0  0  0  0  0
  194.0200  176.7150  134.5950 F   0  0  0  0  0  0  0  0  0  0  0  0
  192.1990  174.1690  136.5020 C   0  0  0  0  0  0  0  0  0  0  0  0
  1  5  1  0  0  0  0
  3  4  1  0  0  0  0
  3  2  1  0  0  0  0
  4  9  1  0  0  0  0
  5  6  2  0  0  0  0
  5  7  1  0  0  0  0
  6  8  1  0  0  0  0
  7  3  2  0  0  0  0
  8  4  2  0  0  0  0
  9 10  1  0  0  0  0
 11 20  1  6  0  0  0
 11 14  1  0  0  0  0
 12 19  1  1  0  0  0
 13 11  1  0  0  0  0
 13 17  1  0  0  0  0
 14 12  1  0  0  0  0
 16 12  1  0  0  0  0
 16 15  1  1  0  0  0
 17 10  1  6  0  0  0
 17 16  1  0  0  0  0
 19 18  3  0  0  0  0
 21 22  1  6  0  0  0
 21 23  1  0  0  0  0
 21 20  1  0  0  0  0
 23 26  1  0  0  0  0
 23 24  1  0  0  0  0
 25 23  2  0  0  0  0
 27  6  1  0  0  0  0
 28 27  1  0  0  0  0
 29 28  1  0  0  0  0
 30 36  2  0  0  0  0
 30 34  1  0  0  0  0
 31 32  2  0  0  0  0
 31 37  1  0  0  0  0
 33 45  1  0  0  0  0
 33 31  1  0  0  0  0
 34 29  1  0  0  0  0
 35 34  1  0  0  0  0
 37 30  1  0  0  0  0
 38 42  2  0  0  0  0
 38 45  1  0  0  0  0
 39 41  2  0  0  0  0
 40 41  1  0  0  0  0
 41 43  1  0  0  0  0
 42 39  1  0  0  0  0
 44 42  1  0  0  0  0
 45 40  2  0  0  0  0
M  END
>  <MODEL>
1

>  <REMARK>
 VINA RESULT:      -8.3      0.000      0.000
  Name = 
  12 active torsions:
  status: ('A' for Active; 'I' for Inactive)
    1  A    between atoms: C_5  and  C_18
    2  A    between atoms: C_6  and  C_12
    3  A    between atoms: C_6  and  C_21
    4  A    between atoms: P_9  and  C_21
    5  A    between atoms: C_13  and  C_40
    6  A    between atoms: N_14  and  C_43
    7  A    between atoms: C_17  and  O_22
    8  A    between atoms: C_18  and  N_27
    9  A    between atoms: N_19  and  C_42
   10  A    between atoms: O_22  and  C_37
   11  A    between atoms: N_27  and  C_36
   12  A    between atoms: C_37  and  C_42
                            x       y       z     vdW  Elec       q    Type
                         _______ _______ _______ _____ _____    ______ ____

>  <TORSDO>
F 12

$$$$
=
 OpenBabel11062417233D

 45 47  0  0  1  0  0  0  0  0999 V2000
  191.6710  176.7080  146.4300 N   0  0  0  0  0  1  0  0  0  0  0  0
  187.6160  178.4600  148.3320 N   0  0  0  0  0  1  0  0  0  0  0  0
  188.2890  177.9060  147.2050 C   0  0  0  0  0  0  0  0  0  0  0  0
  187.6070  177.6950  145.9970 C   0  0  0  0  0  0  0  0  0  0  0  0
  190.2970  177.0410  146.2640 C   0  0  0  0  0  0  0  0  0  0  0  0
  189.6600  176.8270  145.0350 C   0  0  0  0  0  0  0  0  0  0  0  0
  189.6040  177.5730  147.3070 N   0  0  0  0  0  0  0  0  0  0  0  0
  188.3040  177.1610  144.9120 C   0  0  0  0  0  3  0  0  0  0  0  0
  186.1650  178.0430  145.8430 C   0  0  0  0  0  2  0  0  0  0  0  0
  185.7770  177.9410  144.4470 N   0  0  0  0  0  2  0  0  0  0  0  0
  184.5290  178.4890  141.7540 C   0  0  1  0  0  3  0  0  0  0  0  0
  182.8700  178.3900  143.6390 C   0  0  1  0  0  3  0  0  0  0  0  0
  185.4060  179.4550  142.5540 C   0  0  0  0  0  2  0  0  0  0  0  0
  183.0590  178.6350  142.1440 C   0  0  0  0  0  2  0  0  0  0  0  0
  183.6080  179.1050  145.8220 O   0  0  0  0  0  1  0  0  0  0  0  0
  183.7540  179.3480  144.4540 C   0  0  1  0  0  3  0  0  0  0  0  0
  185.2310  179.2340  144.0580 C   0  0  1  0  0  3  0  0  0  0  0  0
  180.2910  178.7520  144.2500 C   0  0  0  0  0  3  0  0  0  0  0  0
  181.4550  178.5880  143.9750 C   0  0  0  0  0  0  0  0  0  0  0  0
  184.7390  178.6660  140.2510 C   0  0  0  0  0  2  0  0  0  0  0  0
  183.6100  178.0710  139.4160 C   0  0  2  0  0  3  0  0  0  0  0  0
  184.1880  177.2730  138.2640 C   0  0  0  0  0  1  0  0  0  0  0  0
  182.5670  179.4100  138.7690 P   0  0  0  0  0  0  0  0  0  0  0  0
  183.4160  180.8710  138.8230 O   0  0  0  0  0  1  0  0  0  0  0  0
  181.1690  179.5380  139.7120 O   0  0  0  0  0  1  0  0  0  0  0  0
  182.1780  179.1060  137.3390 O   0  0  0  0  0  0  0  0  0  0  0  0
  190.3780  176.2870  143.9640 O   0  0  0  0  0  0  0  0  0  0  0  0
  191.4580  176.9720  143.3440 C   0  0  0  0  0  2  0  0  0  0  0  0
  190.9290  178.1680  142.5780 C   0  0  0  0  0  2  0  0  0  0  0  0
  191.2660  177.3760  140.2120 C   0  0  0  0  0  0  0  0  0  0  0  0
  191.4620  176.5070  137.8230 C   0  0  0  0  0  0  0  0  0  0  0  0
  192.7180  176.4550  137.8710 O   0  0  0  0  0  0  0  0  0  0  0  0
  190.8020  176.1150  136.6120 N   0  0  0  0  0  2  0  0  0  0  0  0
  190.3950  177.7400  141.2940 N   0  0  0  0  0  0  0  0  0  0  0  0
  188.9550  177.5900  141.1600 C   0  0  0  0  0  1  0  0  0  0  0  0
  192.5180  177.4490  140.3610 O   0  0  0  0  0  0  0  0  0  0  0  0
  190.7110  176.9360  138.9660 N   0  0  0  0  0  2  0  0  0  0  0  0
  188.8260  177.3730  135.7880 C   0  0  0  0  0  3  0  0  0  0  0  0
  186.6550  176.3060  135.7520 C   0  0  0  0  0  3  0  0  0  0  0  0
  188.5890  175.0950  136.5610 C   0  0  0  0  0  3  0  0  0  0  0  0
  187.2200  175.1420  136.2790 C   0  0  0  0  0  0  0  0  0  0  0  0
  187.4590  177.4220  135.5060 C   0  0  0  0  0  0  0  0  0  0  0  0
  186.4430  174.0590  136.5170 F   0  0  0  0  0  0  0  0  0  0  0  0
  186.9140  178.5500  134.9900 F   0  0  0  0  0  0  0  0  0  0  0  0
  189.4000  176.2090  136.3220 C   0  0  0  0  0  0  0  0  0  0  0  0
  3  7  1  0  0  0  0
  3  2  1  0  0  0  0
  4  3  2  0  0  0  0
  5  1  1  0  0  0  0
  5  7  2  0  0  0  0
  6  5  1  0  0  0  0
  8  6  2  0  0  0  0
  8  4  1  0  0  0  0
  9  4  1  0  0  0  0
 10  9  1  0  0  0  0
 11 20  1  6  0  0  0
 11 14  1  0  0  0  0
 11 13  1  0  0  0  0
 12 19  1  1  0  0  0
 12 16  1  0  0  0  0
 13 17  1  0  0  0  0
 14 12  1  0  0  0  0
 16 15  1  1  0  0  0
 17 10  1  6  0  0  0
 17 16  1  0  0  0  0
 19 18  3  0  0  0  0
 21 22  1  6  0  0  0
 21 20  1  0  0  0  0
 23 24  1  0  0  0  0
 23 21  1  0  0  0  0
 23 25  1  0  0  0  0
 26 23  2  0  0  0  0
 27  6  1  0  0  0  0
 28 27  1  0  0  0  0
 29 28  1  0  0  0  0
 30 36  2  0  0  0  0
 30 34  1  0  0  0  0
 31 32  2  0  0  0  0
 31 37  1  0  0  0  0
 33 31  1  0  0  0  0
 34 29  1  0  0  0  0
 35 34  1  0  0  0  0
 37 30  1  0  0  0  0
 38 45  1  0  0  0  0
 39 41  2  0  0  0  0
 41 43  1  0  0  0  0
 41 40  1  0  0  0  0
 42 39  1  0  0  0  0
 42 38  2  0  0  0  0
 44 42  1  0  0  0  0
 45 40  2  0  0  0  0
 45 33  1  0  0  0  0
M  END
>  <MODEL>
2

>  <REMARK>
 VINA RESULT:      -8.1      3.396      6.730
  Name = 
  12 active torsions:
  status: ('A' for Active; 'I' for Inactive)
    1  A    between atoms: C_5  and  C_18
    2  A    between atoms: C_6  and  C_12
    3  A    between atoms: C_6  and  C_21
    4  A    between atoms: P_9  and  C_21
    5  A    between atoms: C_13  and  C_40
    6  A    between atoms: N_14  and  C_43
    7  A    between atoms: C_17  and  O_22
    8  A    between atoms: C_18  and  N_27
    9  A    between atoms: N_19  and  C_42
   10  A    between atoms: O_22  and  C_37
   11  A    between atoms: N_27  and  C_36
   12  A    between atoms: C_37  and  C_42
                            x       y       z     vdW  Elec       q    Type
                         _______ _______ _______ _____ _____    ______ ____

>  <TORSDO>
F 12

$$$$
=
 OpenBabel11062417233D

 45 47  0  0  1  0  0  0  0  0999 V2000
  179.2320  178.3110  143.1150 N   0  0  0  0  0  1  0  0  0  0  0  0
  179.7120  176.9260  138.5340 N   0  0  0  0  0  1  0  0  0  0  0  0
  180.2960  177.5150  139.6930 C   0  0  0  0  0  0  0  0  0  0  0  0
  181.6290  177.9490  139.6810 C   0  0  0  0  0  0  0  0  0  0  0  0
  180.0560  178.2010  141.9590 C   0  0  0  0  0  0  0  0  0  0  0  0
  181.3790  178.6620  141.9870 C   0  0  0  0  0  0  0  0  0  0  0  0
  179.5510  177.6470  140.8240 N   0  0  0  0  0  0  0  0  0  0  0  0
  182.1620  178.5310  140.8330 C   0  0  0  0  0  3  0  0  0  0  0  0
  182.4820  177.8200  138.4630 C   0  0  0  0  0  2  0  0  0  0  0  0
  183.0700  176.4940  138.4100 N   0  0  0  0  0  2  0  0  0  0  0  0
  185.6670  175.5620  137.1840 C   0  0  1  0  0  3  0  0  0  0  0  0
  183.9440  173.7460  137.4130 C   0  0  1  0  0  3  0  0  0  0  0  0
  184.6360  176.4790  136.5220 C   0  0  0  0  0  2  0  0  0  0  0  0
  185.3450  174.0930  136.9130 C   0  0  0  0  0  2  0  0  0  0  0  0
  181.6220  174.3750  137.2410 O   0  0  0  0  0  1  0  0  0  0  0  0
  182.9010  174.6680  136.7620 C   0  0  1  0  0  3  0  0  0  0  0  0
  183.2220  176.1490  137.0020 C   0  0  1  0  0  3  0  0  0  0  0  0
  183.4270  171.1890  136.8210 C   0  0  0  0  0  3  0  0  0  0  0  0
  183.6610  172.3430  137.0880 C   0  0  0  0  0  0  0  0  0  0  0  0
  187.0880  175.9220  136.7520 C   0  0  0  0  0  2  0  0  0  0  0  0
  187.3010  177.4240  136.5950 C   0  0  2  0  0  3  0  0  0  0  0  0
  188.2210  177.6930  135.4200 C   0  0  0  0  0  1  0  0  0  0  0  0
  188.0400  178.0910  138.1150 P   0  0  0  0  0  0  0  0  0  0  0  0
  188.9610  179.4600  137.7480 O   0  0  0  0  0  0  0  0  0  0  0  0
  189.0340  176.9160  138.8170 O   0  0  0  0  0  1  0  0  0  0  0  0
  186.9460  178.4660  139.0900 O   0  0  0  0  0  1  0  0  0  0  0  0
  181.8910  179.2380  143.1540 O   0  0  0  0  0  0  0  0  0  0  0  0
  183.2850  179.3690  143.3950 C   0  0  0  0  0  2  0  0  0  0  0  0
  183.6260  178.7740  144.7470 C   0  0  0  0  0  2  0  0  0  0  0  0
  185.7340  178.3360  146.0530 C   0  0  0  0  0  0  0  0  0  0  0  0
  187.9210  177.8060  147.2500 C   0  0  0  0  0  0  0  0  0  0  0  0
  187.4060  177.9260  148.3920 O   0  0  0  0  0  0  0  0  0  0  0  0
  189.3130  177.4770  147.1540 N   0  0  0  0  0  2  0  0  0  0  0  0
  185.0410  178.4360  144.7990 N   0  0  0  0  0  0  0  0  0  0  0  0
  185.7170  178.1030  143.5560 C   0  0  0  0  0  1  0  0  0  0  0  0
  185.1190  178.5660  147.1310 O   0  0  0  0  0  0  0  0  0  0  0  0
  187.1220  177.9800  146.0730 N   0  0  0  0  0  2  0  0  0  0  0  0
  190.7800  176.2380  145.5810 C   0  0  0  0  0  3  0  0  0  0  0  0
  191.6090  177.3400  143.5920 C   0  0  0  0  0  3  0  0  0  0  0  0
  190.1850  178.5390  145.1410 C   0  0  0  0  0  3  0  0  0  0  0  0
  190.9360  178.5070  143.9610 C   0  0  0  0  0  0  0  0  0  0  0  0
  191.5310  176.2040  144.4020 C   0  0  0  0  0  0  0  0  0  0  0  0
  191.0090  179.6080  143.1770 F   0  0  0  0  0  0  0  0  0  0  0  0
  192.1790  175.0690  144.0450 F   0  0  0  0  0  0  0  0  0  0  0  0
  190.1050  177.4080  145.9600 C   0  0  0  0  0  0  0  0  0  0  0  0
  2  3  1  0  0  0  0
  3  7  1  0  0  0  0
  4  3  2  0  0  0  0
  4  8  1  0  0  0  0
  5  6  1  0  0  0  0
  5  1  1  0  0  0  0
  6 27  1  0  0  0  0
  7  5  2  0  0  0  0
  8  6  2  0  0  0  0
  9  4  1  0  0  0  0
 10  9  1  0  0  0  0
 11 20  1  6  0  0  0
 12 19  1  6  0  0  0
 13 17  1  0  0  0  0
 13 11  1  0  0  0  0
 14 11  1  0  0  0  0
 14 12  1  0  0  0  0
 16 17  1  0  0  0  0
 16 15  1  1  0  0  0
 16 12  1  0  0  0  0
 17 10  1  1  0  0  0
 18 19  3  0  0  0  0
 21 22  1  6  0  0  0
 21 20  1  0  0  0  0
 21 23  1  0  0  0  0
 23 25  1  0  0  0  0
 23 26  1  0  0  0  0
 24 23  2  0  0  0  0
 27 28  1  0  0  0  0
 28 29  1  0  0  0  0
 29 34  1  0  0  0  0
 30 37  1  0  0  0  0
 30 36  2  0  0  0  0
 31 32  2  0  0  0  0
 33 31  1  0  0  0  0
 34 30  1  0  0  0  0
 35 34  1  0  0  0  0
 37 31  1  0  0  0  0
 38 45  1  0  0  0  0
 39 41  2  0  0  0  0
 39 42  1  0  0  0  0
 40 45  2  0  0  0  0
 41 40  1  0  0  0  0
 42 38  2  0  0  0  0
 43 41  1  0  0  0  0
 44 42  1  0  0  0  0
 45 33  1  0  0  0  0
M  END
>  <MODEL>
3

>  <REMARK>
 VINA RESULT:      -8.0      4.074      8.300
  Name = 
  12 active torsions:
  status: ('A' for Active; 'I' for Inactive)
    1  A    between atoms: C_5  and  C_18
    2  A    between atoms: C_6  and  C_12
    3  A    between atoms: C_6  and  C_21
    4  A    between atoms: P_9  and  C_21
    5  A    between atoms: C_13  and  C_40
    6  A    between atoms: N_14  and  C_43
    7  A    between atoms: C_17  and  O_22
    8  A    between atoms: C_18  and  N_27
    9  A    between atoms: N_19  and  C_42
   10  A    between atoms: O_22  and  C_37
   11  A    between atoms: N_27  and  C_36
   12  A    between atoms: C_37  and  C_42
                            x       y       z     vdW  Elec       q    Type
                         _______ _______ _______ _____ _____    ______ ____

>  <TORSDO>
F 12

$$$$
=
 OpenBabel11062417233D

 45 47  0  0  1  0  0  0  0  0999 V2000
  187.3740  178.1090  147.5610 N   0  0  0  0  0  1  0  0  0  0  0  0
  191.2880  176.6920  145.1520 N   0  0  0  0  0  1  0  0  0  0  0  0
  189.8880  176.9560  145.1480 C   0  0  0  0  0  0  0  0  0  0  0  0
  189.1310  176.7840  143.9790 C   0  0  0  0  0  0  0  0  0  0  0  0
  187.9510  177.6560  146.3410 C   0  0  0  0  0  0  0  0  0  0  0  0
  187.1540  177.4840  145.2020 C   0  0  0  0  0  0  0  0  0  0  0  0
  189.2840  177.3880  146.2870 N   0  0  0  0  0  0  0  0  0  0  0  0
  187.7600  177.0430  144.0170 C   0  0  0  0  0  3  0  0  0  0  0  0
  189.7540  176.3160  142.7070 C   0  0  0  0  0  2  0  0  0  0  0  0
  188.8990  176.6540  141.5830 N   0  0  0  0  0  2  0  0  0  0  0  0
  190.7090  176.4740  139.1750 C   0  0  1  0  0  3  0  0  0  0  0  0
  188.4250  177.3880  138.6600 C   0  0  1  0  0  3  0  0  0  0  0  0
  190.8560  177.4540  140.3410 C   0  0  0  0  0  2  0  0  0  0  0  0
  189.8000  177.0500  138.0890 C   0  0  0  0  0  2  0  0  0  0  0  0
  187.3070  178.6500  140.3850 O   0  0  0  0  0  1  0  0  0  0  0  0
  188.5610  178.3640  139.8400 C   0  0  1  0  0  3  0  0  0  0  0  0
  189.4900  177.8140  140.9290 C   0  0  1  0  0  3  0  0  0  0  0  0
  186.9320  178.4690  136.7210 C   0  0  0  0  0  3  0  0  0  0  0  0
  187.6050  177.9810  137.5970 C   0  0  0  0  0  0  0  0  0  0  0  0
  192.0730  176.0670  138.6180 C   0  0  0  0  0  2  0  0  0  0  0  0
  192.0080  175.5900  137.1710 C   0  0  2  0  0  3  0  0  0  0  0  0
  191.3560  174.2230  137.1080 C   0  0  0  0  0  1  0  0  0  0  0  0
  193.6900  175.4960  136.4910 P   0  0  0  0  0  0  0  0  0  0  0  0
  194.3840  177.0370  136.4690 O   0  0  0  0  0  1  0  0  0  0  0  0
  193.6240  174.8880  134.9140 O   0  0  0  0  0  0  0  0  0  0  0  0
  194.5330  174.5750  137.3450 O   0  0  0  0  0  1  0  0  0  0  0  0
  185.7840  177.7540  145.2640 O   0  0  0  0  0  0  0  0  0  0  0  0
  185.2310  179.0010  144.8670 C   0  0  0  0  0  2  0  0  0  0  0  0
  183.7170  178.9250  144.9200 C   0  0  0  0  0  2  0  0  0  0  0  0
  181.7630  178.7300  143.3440 C   0  0  0  0  0  0  0  0  0  0  0  0
  179.8750  178.6050  141.6360 C   0  0  0  0  0  0  0  0  0  0  0  0
  178.9800  178.6000  142.5220 O   0  0  0  0  0  0  0  0  0  0  0  0
  179.4800  178.5400  140.2600 N   0  0  0  0  0  2  0  0  0  0  0  0
  183.1750  178.8590  143.5710 N   0  0  0  0  0  0  0  0  0  0  0  0
  184.0880  179.0270  142.4510 C   0  0  0  0  0  1  0  0  0  0  0  0
  180.9740  178.6480  144.3260 O   0  0  0  0  0  0  0  0  0  0  0  0
  181.2570  178.6900  142.0030 N   0  0  0  0  0  2  0  0  0  0  0  0
  180.4630  179.4480  138.1680 C   0  0  0  0  0  3  0  0  0  0  0  0
  182.0700  178.1300  136.9280 C   0  0  0  0  0  3  0  0  0  0  0  0
  181.0950  177.2550  138.9650 C   0  0  0  0  0  3  0  0  0  0  0  0
  181.9560  177.1070  137.8720 C   0  0  0  0  0  0  0  0  0  0  0  0
  181.3230  179.3020  137.0760 C   0  0  0  0  0  0  0  0  0  0  0  0
  182.6810  175.9710  137.7300 F   0  0  0  0  0  0  0  0  0  0  0  0
  181.4340  180.2980  136.1640 F   0  0  0  0  0  0  0  0  0  0  0  0
  180.3410  178.4220  139.1180 C   0  0  0  0  0  0  0  0  0  0  0  0
  3  2  1  0  0  0  0
  3  7  1  0  0  0  0
  4  8  1  0  0  0  0
  4  3  2  0  0  0  0
  5  1  1  0  0  0  0
  6 27  1  0  0  0  0
  6  5  1  0  0  0  0
  7  5  2  0  0  0  0
  8  6  2  0  0  0  0
  9  4  1  0  0  0  0
 10  9  1  0  0  0  0
 11 20  1  6  0  0  0
 11 13  1  0  0  0  0
 12 19  1  6  0  0  0
 12 16  1  0  0  0  0
 13 17  1  0  0  0  0
 14 12  1  0  0  0  0
 14 11  1  0  0  0  0
 16 15  1  1  0  0  0
 16 17  1  0  0  0  0
 17 10  1  6  0  0  0
 18 19  3  0  0  0  0
 21 22  1  1  0  0  0
 21 20  1  0  0  0  0
 23 21  1  0  0  0  0
 23 26  1  0  0  0  0
 24 23  1  0  0  0  0
 25 23  2  0  0  0  0
 28 29  1  0  0  0  0
 28 27  1  0  0  0  0
 30 34  1  0  0  0  0
 30 36  2  0  0  0  0
 31 37  1  0  0  0  0
 31 32  2  0  0  0  0
 33 31  1  0  0  0  0
 34 29  1  0  0  0  0
 35 34  1  0  0  0  0
 37 30  1  0  0  0  0
 38 45  1  0  0  0  0
 39 42  1  0  0  0  0
 39 41  2  0  0  0  0
 40 45  2  0  0  0  0
 41 40  1  0  0  0  0
 42 38  2  0  0  0  0
 43 41  1  0  0  0  0
 44 42  1  0  0  0  0
 45 33  1  0  0  0  0
M  END
>  <MODEL>
4

>  <REMARK>
 VINA RESULT:      -7.7      4.096      9.119
  Name = 
  12 active torsions:
  status: ('A' for Active; 'I' for Inactive)
    1  A    between atoms: C_5  and  C_18
    2  A    between atoms: C_6  and  C_12
    3  A    between atoms: C_6  and  C_21
    4  A    between atoms: P_9  and  C_21
    5  A    between atoms: C_13  and  C_40
    6  A    between atoms: N_14  and  C_43
    7  A    between atoms: C_17  and  O_22
    8  A    between atoms: C_18  and  N_27
    9  A    between atoms: N_19  and  C_42
   10  A    between atoms: O_22  and  C_37
   11  A    between atoms: N_27  and  C_36
   12  A    between atoms: C_37  and  C_42
                            x       y       z     vdW  Elec       q    Type
                         _______ _______ _______ _____ _____    ______ ____

>  <TORSDO>
F 12

$$$$
=
 OpenBabel11062417233D

 45 47  0  0  1  0  0  0  0  0999 V2000
  191.6660  176.9090  145.8500 N   0  0  0  0  0  1  0  0  0  0  0  0
  187.5600  177.7630  148.2040 N   0  0  0  0  0  1  0  0  0  0  0  0
  188.2360  177.5990  146.9610 C   0  0  0  0  0  0  0  0  0  0  0  0
  187.5360  177.6910  145.7480 C   0  0  0  0  0  0  0  0  0  0  0  0
  190.2690  177.1780  145.7970 C   0  0  0  0  0  0  0  0  0  0  0  0
  189.6130  177.2760  144.5630 C   0  0  0  0  0  0  0  0  0  0  0  0
  189.5720  177.3440  146.9540 N   0  0  0  0  0  0  0  0  0  0  0  0
  188.2360  177.5350  144.5500 C   0  0  0  0  0  3  0  0  0  0  0  0
  186.0710  177.9660  145.7110 C   0  0  0  0  0  2  0  0  0  0  0  0
  185.5810  177.8570  144.3480 N   0  0  0  0  0  2  0  0  0  0  0  0
  184.2910  178.4450  141.6830 C   0  0  1  0  0  3  0  0  0  0  0  0
  182.6710  178.3880  143.6030 C   0  0  1  0  0  3  0  0  0  0  0  0
  185.2110  179.3850  142.4660 C   0  0  0  0  0  2  0  0  0  0  0  0
  182.8340  178.6310  142.1050 C   0  0  0  0  0  2  0  0  0  0  0  0
  183.4750  179.0780  145.7700 O   0  0  0  0  0  1  0  0  0  0  0  0
  183.5980  179.3200  144.4000 C   0  0  1  0  0  3  0  0  0  0  0  0
  185.0630  179.1660  143.9730 C   0  0  1  0  0  3  0  0  0  0  0  0
  180.1160  178.8200  144.2700 C   0  0  0  0  0  3  0  0  0  0  0  0
  181.2690  178.6250  143.9690 C   0  0  0  0  0  0  0  0  0  0  0  0
  184.4740  178.6190  140.1760 C   0  0  0  0  0  2  0  0  0  0  0  0
  183.4650  177.8220  139.3560 C   0  0  2  0  0  3  0  0  0  0  0  0
  184.1880  177.0150  138.2950 C   0  0  0  0  0  1  0  0  0  0  0  0
  182.2950  178.9630  138.5650 P   0  0  0  0  0  0  0  0  0  0  0  0
  182.8320  180.5550  138.7560 O   0  0  0  0  0  1  0  0  0  0  0  0
  180.7730  178.7940  139.2840 O   0  0  0  0  0  1  0  0  0  0  0  0
  182.1870  178.6410  137.0910 O   0  0  0  0  0  0  0  0  0  0  0  0
  190.3350  177.1130  143.3760 O   0  0  0  0  0  0  0  0  0  0  0  0
  189.7410  176.6310  142.1790 C   0  0  0  0  0  2  0  0  0  0  0  0
  189.8320  177.6950  141.1030 C   0  0  0  0  0  2  0  0  0  0  0  0
  190.2170  176.7780  138.7890 C   0  0  0  0  0  0  0  0  0  0  0  0
  190.7520  175.9170  136.4500 C   0  0  0  0  0  0  0  0  0  0  0  0
  189.5410  175.8840  136.1100 O   0  0  0  0  0  0  0  0  0  0  0  0
  191.7450  175.5060  135.5010 N   0  0  0  0  0  2  0  0  0  0  0  0
  190.7280  177.2550  140.0430 N   0  0  0  0  0  0  0  0  0  0  0  0
  192.1610  177.4030  140.2450 C   0  0  0  0  0  1  0  0  0  0  0  0
  188.9700  176.7140  138.6030 O   0  0  0  0  0  0  0  0  0  0  0  0
  191.1250  176.3720  137.7570 N   0  0  0  0  0  2  0  0  0  0  0  0
  193.6930  174.2500  136.3930 C   0  0  0  0  0  3  0  0  0  0  0  0
  195.9240  175.1440  136.1160 C   0  0  0  0  0  3  0  0  0  0  0  0
  194.0140  176.3610  135.2600 C   0  0  0  0  0  3  0  0  0  0  0  0
  195.3950  176.2540  135.4530 C   0  0  0  0  0  0  0  0  0  0  0  0
  195.0720  174.1410  136.5870 C   0  0  0  0  0  0  0  0  0  0  0  0
  196.2200  177.2260  134.9950 F   0  0  0  0  0  0  0  0  0  0  0  0
  195.5830  173.0610  137.2260 F   0  0  0  0  0  0  0  0  0  0  0  0
  193.1540  175.3640  135.7310 C   0  0  0  0  0  0  0  0  0  0  0  0
  3  2  1  0  0  0  0
  4  3  2  0  0  0  0
  5  1  1  0  0  0  0
  5  7  2  0  0  0  0
  6  5  1  0  0  0  0
  7  3  1  0  0  0  0
  8  6  2  0  0  0  0
  8  4  1  0  0  0  0
  9  4  1  0  0  0  0
 10  9  1  0  0  0  0
 11 20  1  6  0  0  0
 11 14  1  0  0  0  0
 11 13  1  0  0  0  0
 12 19  1  1  0  0  0
 12 16  1  0  0  0  0
 13 17  1  0  0  0  0
 14 12  1  0  0  0  0
 16 15  1  1  0  0  0
 17 10  1  6  0  0  0
 17 16  1  0  0  0  0
 19 18  3  0  0  0  0
 21 22  1  6  0  0  0
 21 20  1  0  0  0  0
 23 24  1  0  0  0  0
 23 25  1  0  0  0  0
 23 21  1  0  0  0  0
 26 23  2  0  0  0  0
 27  6  1  0  0  0  0
 28 27  1  0  0  0  0
 29 28  1  0  0  0  0
 30 34  1  0  0  0  0
 31 37  1  0  0  0  0
 32 31  2  0  0  0  0
 33 45  1  0  0  0  0
 33 31  1  0  0  0  0
 34 35  1  0  0  0  0
 34 29  1  0  0  0  0
 36 30  2  0  0  0  0
 37 30  1  0  0  0  0
 38 42  1  0  0  0  0
 39 42  2  0  0  0  0
 40 41  2  0  0  0  0
 40 45  1  0  0  0  0
 41 39  1  0  0  0  0
 42 44  1  0  0  0  0
 43 41  1  0  0  0  0
 45 38  2  0  0  0  0
M  END
>  <MODEL>
5

>  <REMARK>
 VINA RESULT:      -7.7      2.854      6.040
  Name = 
  12 active torsions:
  status: ('A' for Active; 'I' for Inactive)
    1  A    between atoms: C_5  and  C_18
    2  A    between atoms: C_6  and  C_12
    3  A    between atoms: C_6  and  C_21
    4  A    between atoms: P_9  and  C_21
    5  A    between atoms: C_13  and  C_40
    6  A    between atoms: N_14  and  C_43
    7  A    between atoms: C_17  and  O_22
    8  A    between atoms: C_18  and  N_27
    9  A    between atoms: N_19  and  C_42
   10  A    between atoms: O_22  and  C_37
   11  A    between atoms: N_27  and  C_36
   12  A    between atoms: C_37  and  C_42
                            x       y       z     vdW  Elec       q    Type
                         _______ _______ _______ _____ _____    ______ ____

>  <TORSDO>
F 12

$$$$
=
 OpenBabel11062417233D

 45 47  0  0  1  0  0  0  0  0999 V2000
  190.4480  176.3210  136.9580 N   0  0  0  0  0  1  0  0  0  0  0  0
  191.9720  177.1280  141.4470 N   0  0  0  0  0  1  0  0  0  0  0  0
  190.9120  177.1780  140.4970 C   0  0  0  0  0  0  0  0  0  0  0  0
  189.6430  177.6500  140.8640 C   0  0  0  0  0  0  0  0  0  0  0  0
  190.1590  176.7800  138.2740 C   0  0  0  0  0  0  0  0  0  0  0  0
  188.8820  177.2570  138.5930 C   0  0  0  0  0  0  0  0  0  0  0  0
  191.1340  176.7550  139.2230 N   0  0  0  0  0  0  0  0  0  0  0  0
  188.6330  177.6940  139.9010 C   0  0  0  0  0  3  0  0  0  0  0  0
  189.3550  178.1210  142.2500 C   0  0  0  0  0  2  0  0  0  0  0  0
  187.9530  178.4790  142.3700 N   0  0  0  0  0  2  0  0  0  0  0  0
  187.9070  177.6790  145.2810 C   0  0  1  0  0  3  0  0  0  0  0  0
  185.7180  178.5870  144.4440 C   0  0  1  0  0  3  0  0  0  0  0  0
  187.9870  176.7260  144.0860 C   0  0  0  0  0  2  0  0  0  0  0  0
  186.4530  177.9850  145.6390 C   0  0  0  0  0  2  0  0  0  0  0  0
  185.1570  178.2050  142.1290 O   0  0  0  0  0  1  0  0  0  0  0  0
  185.8010  177.6430  143.2340 C   0  0  1  0  0  3  0  0  0  0  0  0
  187.2530  177.3050  142.8750 C   0  0  1  0  0  3  0  0  0  0  0  0
  183.1650  179.0060  145.1260 C   0  0  0  0  0  3  0  0  0  0  0  0
  184.3180  178.8180  144.8180 C   0  0  0  0  0  0  0  0  0  0  0  0
  188.6850  177.1340  146.4780 C   0  0  0  0  0  2  0  0  0  0  0  0
  190.0930  177.7090  146.5860 C   0  0  2  0  0  3  0  0  0  0  0  0
  190.5020  178.3210  145.2600 C   0  0  0  0  0  1  0  0  0  0  0  0
  191.2530  176.3840  147.0310 P   0  0  0  0  0  0  0  0  0  0  0  0
  190.3980  175.0570  147.6360 O   0  0  0  0  0  1  0  0  0  0  0  0
  192.3230  176.9490  148.2140 O   0  0  0  0  0  1  0  0  0  0  0  0
  192.0390  175.9640  145.8090 O   0  0  0  0  0  0  0  0  0  0  0  0
  187.8860  177.2880  137.6120 O   0  0  0  0  0  0  0  0  0  0  0  0
  186.7890  178.1910  137.6620 C   0  0  0  0  0  2  0  0  0  0  0  0
  185.5330  177.4920  137.1790 C   0  0  0  0  0  2  0  0  0  0  0  0
  183.3140  176.8580  138.1860 C   0  0  0  0  0  0  0  0  0  0  0  0
  181.1070  176.3010  139.3340 C   0  0  0  0  0  0  0  0  0  0  0  0
  180.9740  175.2180  138.7080 O   0  0  0  0  0  0  0  0  0  0  0  0
  180.0940  176.6820  140.2750 N   0  0  0  0  0  2  0  0  0  0  0  0
  184.4360  177.7490  138.1010 N   0  0  0  0  0  0  0  0  0  0  0  0
  184.5480  178.8800  139.0080 C   0  0  0  0  0  1  0  0  0  0  0  0
  183.2590  175.8440  137.4360 O   0  0  0  0  0  0  0  0  0  0  0  0
  182.2590  177.1260  139.1190 N   0  0  0  0  0  2  0  0  0  0  0  0
  179.8440  179.1510  140.3490 C   0  0  0  0  0  3  0  0  0  0  0  0
  179.8100  180.2900  142.4840 C   0  0  0  0  0  3  0  0  0  0  0  0
  180.0620  177.8830  142.3950 C   0  0  0  0  0  3  0  0  0  0  0  0
  179.9670  179.0650  143.1370 C   0  0  0  0  0  0  0  0  0  0  0  0
  179.7490  180.3330  141.0880 C   0  0  0  0  0  0  0  0  0  0  0  0
  180.0260  179.0220  144.4890 F   0  0  0  0  0  0  0  0  0  0  0  0
  179.5920  181.5190  140.4520 F   0  0  0  0  0  0  0  0  0  0  0  0
  180.0060  177.9180  140.9980 C   0  0  0  0  0  0  0  0  0  0  0  0
  1  5  1  0  0  0  0
  3  4  1  0  0  0  0
  3  2  1  0  0  0  0
  4  9  1  0  0  0  0
  5  6  2  0  0  0  0
  5  7  1  0  0  0  0
  6  8  1  0  0  0  0
  7  3  2  0  0  0  0
  8  4  2  0  0  0  0
  9 10  1  0  0  0  0
 11 14  1  0  0  0  0
 11 20  1  1  0  0  0
 12 19  1  1  0  0  0
 12 14  1  0  0  0  0
 13 11  1  0  0  0  0
 16 15  1  6  0  0  0
 16 12  1  0  0  0  0
 17 10  1  1  0  0  0
 17 16  1  0  0  0  0
 17 13  1  0  0  0  0
 19 18  3  0  0  0  0
 20 21  1  0  0  0  0
 21 22  1  6  0  0  0
 21 23  1  0  0  0  0
 23 24  1  0  0  0  0
 23 25  1  0  0  0  0
 26 23  2  0  0  0  0
 27 28  1  0  0  0  0
 27  6  1  0  0  0  0
 29 28  1  0  0  0  0
 29 34  1  0  0  0  0
 30 37  1  0  0  0  0
 31 33  1  0  0  0  0
 32 31  2  0  0  0  0
 33 45  1  0  0  0  0
 34 30  1  0  0  0  0
 34 35  1  0  0  0  0
 36 30  2  0  0  0  0
 37 31  1  0  0  0  0
 38 45  2  0  0  0  0
 38 42  1  0  0  0  0
 39 41  1  0  0  0  0
 40 41  2  0  0  0  0
 41 43  1  0  0  0  0
 42 39  2  0  0  0  0
 44 42  1  0  0  0  0
 45 40  1  0  0  0  0
M  END
>  <MODEL>
6

>  <REMARK>
 VINA RESULT:      -7.7      4.442      8.371
  Name = 
  12 active torsions:
  status: ('A' for Active; 'I' for Inactive)
    1  A    between atoms: C_5  and  C_18
    2  A    between atoms: C_6  and  C_12
    3  A    between atoms: C_6  and  C_21
    4  A    between atoms: P_9  and  C_21
    5  A    between atoms: C_13  and  C_40
    6  A    between atoms: N_14  and  C_43
    7  A    between atoms: C_17  and  O_22
    8  A    between atoms: C_18  and  N_27
    9  A    between atoms: N_19  and  C_42
   10  A    between atoms: O_22  and  C_37
   11  A    between atoms: N_27  and  C_36
   12  A    between atoms: C_37  and  C_42
                            x       y       z     vdW  Elec       q    Type
                         _______ _______ _______ _____ _____    ______ ____

>  <TORSDO>
F 12

$$$$
=
 OpenBabel11062417233D

 45 47  0  0  1  0  0  0  0  0999 V2000
  186.1230  177.9550  145.9270 N   0  0  0  0  0  1  0  0  0  0  0  0
  190.7700  177.2800  144.8900 N   0  0  0  0  0  1  0  0  0  0  0  0
  189.4340  177.4480  144.4260 C   0  0  0  0  0  0  0  0  0  0  0  0
  189.1480  177.4500  143.0530 C   0  0  0  0  0  0  0  0  0  0  0  0
  187.1340  177.7800  144.9410 C   0  0  0  0  0  0  0  0  0  0  0  0
  186.8010  177.7740  143.5800 C   0  0  0  0  0  0  0  0  0  0  0  0
  188.4280  177.6150  145.3270 N   0  0  0  0  0  0  0  0  0  0  0  0
  187.8250  177.6070  142.6370 C   0  0  0  0  0  3  0  0  0  0  0  0
  190.2210  177.2730  142.0310 C   0  0  0  0  0  2  0  0  0  0  0  0
  189.6460  176.7940  140.7870 N   0  0  0  0  0  2  0  0  0  0  0  0
  190.8210  175.6300  138.2610 C   0  0  1  0  0  3  0  0  0  0  0  0
  188.6140  176.7820  137.9170 C   0  0  1  0  0  3  0  0  0  0  0  0
  191.3530  176.8430  139.0270 C   0  0  0  0  0  2  0  0  0  0  0  0
  189.7680  176.0500  137.2360 C   0  0  0  0  0  2  0  0  0  0  0  0
  188.0890  178.6520  139.3470 O   0  0  0  0  0  1  0  0  0  0  0  0
  189.1380  177.9980  138.6970 C   0  0  1  0  0  3  0  0  0  0  0  0
  190.2150  177.5990  139.7140 C   0  0  1  0  0  3  0  0  0  0  0  0
  186.8660  177.5560  136.0450 C   0  0  0  0  0  3  0  0  0  0  0  0
  187.6550  177.2070  136.8900 C   0  0  0  0  0  0  0  0  0  0  0  0
  191.9580  174.8380  137.6180 C   0  0  0  0  0  2  0  0  0  0  0  0
  193.1710  175.7010  137.2830 C   0  0  2  0  0  3  0  0  0  0  0  0
  193.1990  175.9940  135.7960 C   0  0  0  0  0  1  0  0  0  0  0  0
  194.6870  174.8220  137.7610 P   0  0  0  0  0  0  0  0  0  0  0  0
  195.1340  175.2670  139.3300 O   0  0  0  0  0  1  0  0  0  0  0  0
  195.9310  175.2240  136.6870 O   0  0  0  0  0  0  0  0  0  0  0  0
  194.4470  173.3290  137.7090 O   0  0  0  0  0  1  0  0  0  0  0  0
  185.4690  177.9370  143.1890 O   0  0  0  0  0  0  0  0  0  0  0  0
  185.0960  178.6590  142.0230 C   0  0  0  0  0  2  0  0  0  0  0  0
  183.9670  177.9350  141.3160 C   0  0  0  0  0  2  0  0  0  0  0  0
  181.9420  179.3330  140.7840 C   0  0  0  0  0  0  0  0  0  0  0  0
  179.9860  180.8420  140.1550 C   0  0  0  0  0  0  0  0  0  0  0  0
  179.3570  180.5870  141.2150 O   0  0  0  0  0  0  0  0  0  0  0  0
  179.3950  181.7370  139.2030 N   0  0  0  0  0  2  0  0  0  0  0  0
  183.2530  178.8570  140.4450 N   0  0  0  0  0  0  0  0  0  0  0  0
  183.9390  179.3670  139.2690 C   0  0  0  0  0  1  0  0  0  0  0  0
  181.3810  178.9320  141.8420 O   0  0  0  0  0  0  0  0  0  0  0  0
  181.2730  180.2590  139.9180 N   0  0  0  0  0  2  0  0  0  0  0  0
  180.3730  183.3440  137.5830 C   0  0  0  0  0  3  0  0  0  0  0  0
  180.8840  182.6170  135.3320 C   0  0  0  0  0  3  0  0  0  0  0  0
  179.9210  181.0630  136.9200 C   0  0  0  0  0  3  0  0  0  0  0  0
  180.4120  181.3390  135.6400 C   0  0  0  0  0  0  0  0  0  0  0  0
  180.8640  183.6210  136.3040 C   0  0  0  0  0  0  0  0  0  0  0  0
  180.4310  180.3650  134.6990 F   0  0  0  0  0  0  0  0  0  0  0  0
  181.3250  184.8600  136.0090 F   0  0  0  0  0  0  0  0  0  0  0  0
  179.8940  182.0630  137.8980 C   0  0  0  0  0  0  0  0  0  0  0  0
  3  2  1  0  0  0  0
  3  7  1  0  0  0  0
  4  3  2  0  0  0  0
  5  7  2  0  0  0  0
  5  1  1  0  0  0  0
  6  5  1  0  0  0  0
  8  4  1  0  0  0  0
  8  6  2  0  0  0  0
  9  4  1  0  0  0  0
 10  9  1  0  0  0  0
 11 20  1  6  0  0  0
 11 13  1  0  0  0  0
 12 19  1  6  0  0  0
 12 16  1  0  0  0  0
 13 17  1  0  0  0  0
 14 12  1  0  0  0  0
 14 11  1  0  0  0  0
 16 15  1  1  0  0  0
 16 17  1  0  0  0  0
 17 10  1  1  0  0  0
 18 19  3  0  0  0  0
 21 22  1  6  0  0  0
 21 20  1  0  0  0  0
 21 23  1  0  0  0  0
 23 24  1  0  0  0  0
 25 23  2  0  0  0  0
 26 23  1  0  0  0  0
 27  6  1  0  0  0  0
 28 27  1  0  0  0  0
 29 28  1  0  0  0  0
 30 36  2  0  0  0  0
 31 32  2  0  0  0  0
 33 31  1  0  0  0  0
 34 30  1  0  0  0  0
 34 29  1  0  0  0  0
 35 34  1  0  0  0  0
 37 31  1  0  0  0  0
 37 30  1  0  0  0  0
 38 45  1  0  0  0  0
 39 41  2  0  0  0  0
 39 42  1  0  0  0  0
 40 45  2  0  0  0  0
 41 40  1  0  0  0  0
 42 38  2  0  0  0  0
 43 41  1  0  0  0  0
 44 42  1  0  0  0  0
 45 33  1  0  0  0  0
M  END
>  <MODEL>
7

>  <REMARK>
 VINA RESULT:      -7.6      4.767      9.626
  Name = 
  12 active torsions:
  status: ('A' for Active; 'I' for Inactive)
    1  A    between atoms: C_5  and  C_18
    2  A    between atoms: C_6  and  C_12
    3  A    between atoms: C_6  and  C_21
    4  A    between atoms: P_9  and  C_21
    5  A    between atoms: C_13  and  C_40
    6  A    between atoms: N_14  and  C_43
    7  A    between atoms: C_17  and  O_22
    8  A    between atoms: C_18  and  N_27
    9  A    between atoms: N_19  and  C_42
   10  A    between atoms: O_22  and  C_37
   11  A    between atoms: N_27  and  C_36
   12  A    between atoms: C_37  and  C_42
                            x       y       z     vdW  Elec       q    Type
                         _______ _______ _______ _____ _____    ______ ____

>  <TORSDO>
F 12

$$$$
=
 OpenBabel11062417233D

 45 47  0  0  1  0  0  0  0  0999 V2000
  181.4560  178.5910  138.8460 N   0  0  0  0  0  1  0  0  0  0  0  0
  184.3060  177.0740  135.2820 N   0  0  0  0  0  1  0  0  0  0  0  0
  184.1830  177.5600  136.6150 C   0  0  0  0  0  0  0  0  0  0  0  0
  185.3170  177.7390  137.4200 C   0  0  0  0  0  0  0  0  0  0  0  0
  182.7710  178.3120  138.3780 C   0  0  0  0  0  0  0  0  0  0  0  0
  183.8770  178.5200  139.2110 C   0  0  0  0  0  0  0  0  0  0  0  0
  182.9490  177.8450  137.1120 N   0  0  0  0  0  0  0  0  0  0  0  0
  185.1560  178.2270  138.7180 C   0  0  0  0  0  3  0  0  0  0  0  0
  186.6880  177.4350  136.9160 C   0  0  0  0  0  2  0  0  0  0  0  0
  186.9350  176.0050  136.9830 N   0  0  0  0  0  2  0  0  0  0  0  0
  189.6370  174.7290  137.4080 C   0  0  1  0  0  3  0  0  0  0  0  0
  187.9350  173.1850  136.3900 C   0  0  1  0  0  3  0  0  0  0  0  0
  189.3020  175.8060  136.3740 C   0  0  0  0  0  2  0  0  0  0  0  0
  189.3860  173.3320  136.8410 C   0  0  0  0  0  2  0  0  0  0  0  0
  186.2480  174.1580  134.9660 O   0  0  0  0  0  1  0  0  0  0  0  0
  187.5840  174.2690  135.3580 C   0  0  1  0  0  3  0  0  0  0  0  0
  187.8530  175.6780  135.9000 C   0  0  1  0  0  3  0  0  0  0  0  0
  187.6050  170.7490  135.3350 C   0  0  0  0  0  3  0  0  0  0  0  0
  187.7540  171.8490  135.8110 C   0  0  0  0  0  0  0  0  0  0  0  0
  191.0660  174.8840  137.9280 C   0  0  0  0  0  2  0  0  0  0  0  0
  191.5210  176.3380  137.9970 C   0  0  2  0  0  3  0  0  0  0  0  0
  193.0310  176.4100  137.8840 C   0  0  0  0  0  1  0  0  0  0  0  0
  190.9910  177.0610  139.5760 P   0  0  0  0  0  0  0  0  0  0  0  0
  189.8880  178.3110  139.2900 O   0  0  0  0  0  0  0  0  0  0  0  0
  192.3390  177.6780  140.3910 O   0  0  0  0  0  1  0  0  0  0  0  0
  190.3360  175.9970  140.4290 O   0  0  0  0  0  1  0  0  0  0  0  0
  183.6900  179.0070  140.5090 O   0  0  0  0  0  0  0  0  0  0  0  0
  183.7030  178.1630  141.6520 C   0  0  0  0  0  2  0  0  0  0  0  0
  183.9470  178.9960  142.8950 C   0  0  0  0  0  2  0  0  0  0  0  0
  185.3510  178.6250  144.9520 C   0  0  0  0  0  0  0  0  0  0  0  0
  186.8600  178.1450  146.9500 C   0  0  0  0  0  0  0  0  0  0  0  0
  185.9670  178.4410  147.7850 O   0  0  0  0  0  0  0  0  0  0  0  0
  188.1460  177.7340  147.4340 N   0  0  0  0  0  2  0  0  0  0  0  0
  185.1970  178.5950  143.5250 N   0  0  0  0  0  0  0  0  0  0  0  0
  186.2560  178.0650  142.6810 C   0  0  0  0  0  1  0  0  0  0  0  0
  184.4010  179.0280  145.6790 O   0  0  0  0  0  0  0  0  0  0  0  0
  186.5870  178.2030  145.5440 N   0  0  0  0  0  2  0  0  0  0  0  0
  190.3890  176.7090  147.1520 C   0  0  0  0  0  3  0  0  0  0  0  0
  191.5660  176.9580  145.0530 C   0  0  0  0  0  3  0  0  0  0  0  0
  189.3810  177.9600  145.3460 C   0  0  0  0  0  3  0  0  0  0  0  0
  190.5030  177.7090  144.5480 C   0  0  0  0  0  0  0  0  0  0  0  0
  191.5100  176.4570  146.3560 C   0  0  0  0  0  0  0  0  0  0  0  0
  190.5550  178.1940  143.2840 F   0  0  0  0  0  0  0  0  0  0  0  0
  192.5380  175.7240  146.8470 F   0  0  0  0  0  0  0  0  0  0  0  0
  189.3180  177.4660  146.6530 C   0  0  0  0  0  0  0  0  0  0  0  0
  2  3  1  0  0  0  0
  3  7  2  0  0  0  0
  3  4  1  0  0  0  0
  4  8  2  0  0  0  0
  5  1  1  0  0  0  0
  5  6  2  0  0  0  0
  6 27  1  0  0  0  0
  7  5  1  0  0  0  0
  8  6  1  0  0  0  0
  9 10  1  0  0  0  0
  9  4  1  0  0  0  0
 11 20  1  6  0  0  0
 12 19  1  6  0  0  0
 12 14  1  0  0  0  0
 13 11  1  0  0  0  0
 14 11  1  0  0  0  0
 16 15  1  1  0  0  0
 16 17  1  0  0  0  0
 16 12  1  0  0  0  0
 17 13  1  0  0  0  0
 17 10  1  1  0  0  0
 18 19  3  0  0  0  0
 20 21  1  0  0  0  0
 21 22  1  1  0  0  0
 21 23  1  0  0  0  0
 23 25  1  0  0  0  0
 23 26  1  0  0  0  0
 24 23  2  0  0  0  0
 27 28  1  0  0  0  0
 28 29  1  0  0  0  0
 29 34  1  0  0  0  0
 30 37  1  0  0  0  0
 30 36  2  0  0  0  0
 31 33  1  0  0  0  0
 31 32  2  0  0  0  0
 34 30  1  0  0  0  0
 35 34  1  0  0  0  0
 37 31  1  0  0  0  0
 39 42  1  0  0  0  0
 40 45  2  0  0  0  0
 41 39  2  0  0  0  0
 41 40  1  0  0  0  0
 42 44  1  0  0  0  0
 42 38  2  0  0  0  0
 43 41  1  0  0  0  0
 45 38  1  0  0  0  0
 45 33  1  0  0  0  0
M  END
>  <MODEL>
8

>  <REMARK>
 VINA RESULT:      -7.6      2.795      8.477
  Name = 
  12 active torsions:
  status: ('A' for Active; 'I' for Inactive)
    1  A    between atoms: C_5  and  C_18
    2  A    between atoms: C_6  and  C_12
    3  A    between atoms: C_6  and  C_21
    4  A    between atoms: P_9  and  C_21
    5  A    between atoms: C_13  and  C_40
    6  A    between atoms: N_14  and  C_43
    7  A    between atoms: C_17  and  O_22
    8  A    between atoms: C_18  and  N_27
    9  A    between atoms: N_19  and  C_42
   10  A    between atoms: O_22  and  C_37
   11  A    between atoms: N_27  and  C_36
   12  A    between atoms: C_37  and  C_42
                            x       y       z     vdW  Elec       q    Type
                         _______ _______ _______ _____ _____    ______ ____

>  <TORSDO>
F 12

$$$$
=
 OpenBabel11062417233D

 45 47  0  0  1  0  0  0  0  0999 V2000
  189.9760  173.8210  136.9360 N   0  0  0  0  0  1  0  0  0  0  0  0
  185.3420  174.8680  136.1880 N   0  0  0  0  0  1  0  0  0  0  0  0
  186.6290  175.2950  136.6260 C   0  0  0  0  0  0  0  0  0  0  0  0
  186.8310  176.6060  137.0820 C   0  0  0  0  0  0  0  0  0  0  0  0
  188.9210  174.7750  136.9970 C   0  0  0  0  0  0  0  0  0  0  0  0
  189.1650  176.0700  137.4740 C   0  0  0  0  0  0  0  0  0  0  0  0
  187.6720  174.4220  136.5910 N   0  0  0  0  0  0  0  0  0  0  0  0
  188.1040  176.9840  137.5130 C   0  0  0  0  0  3  0  0  0  0  0  0
  185.7150  177.5960  137.1330 C   0  0  0  0  0  2  0  0  0  0  0  0
  184.9750  177.4450  138.3730 N   0  0  0  0  0  2  0  0  0  0  0  0
  182.0080  177.2140  138.8770 C   0  0  1  0  0  3  0  0  0  0  0  0
  183.3070  178.0780  140.8470 C   0  0  1  0  0  3  0  0  0  0  0  0
  182.6900  178.2320  137.9600 C   0  0  0  0  0  2  0  0  0  0  0  0
  181.9190  177.7420  140.3090 C   0  0  0  0  0  2  0  0  0  0  0  0
  185.2890  179.3790  140.4010 O   0  0  0  0  0  1  0  0  0  0  0  0
  184.0060  179.0930  139.9290 C   0  0  1  0  0  3  0  0  0  0  0  0
  184.0830  178.5910  138.4810 C   0  0  1  0  0  3  0  0  0  0  0  0
  183.0520  179.0750  143.3170 C   0  0  0  0  0  3  0  0  0  0  0  0
  183.1680  178.6260  142.2020 C   0  0  0  0  0  0  0  0  0  0  0  0
  180.6390  176.8090  138.3340 C   0  0  0  0  0  2  0  0  0  0  0  0
  180.7230  176.0320  137.0240 C   0  0  2  0  0  3  0  0  0  0  0  0
  179.6340  176.5010  136.0780 C   0  0  0  0  0  1  0  0  0  0  0  0
  180.5190  174.2590  137.3600 P   0  0  0  0  0  0  0  0  0  0  0  0
  181.8480  173.4070  136.7540 O   0  0  0  0  0  1  0  0  0  0  0  0
  179.1080  173.7040  136.6100 O   0  0  0  0  0  0  0  0  0  0  0  0
  180.4120  174.0320  138.8520 O   0  0  0  0  0  1  0  0  0  0  0  0
  190.4500  176.4250  137.8970 O   0  0  0  0  0  0  0  0  0  0  0  0
  190.9070  176.2030  139.2240 C   0  0  0  0  0  2  0  0  0  0  0  0
  191.1380  177.5350  139.9110 C   0  0  0  0  0  2  0  0  0  0  0  0
  189.2750  177.6240  141.6020 C   0  0  0  0  0  0  0  0  0  0  0  0
  187.4810  177.6270  143.4130 C   0  0  0  0  0  0  0  0  0  0  0  0
  186.5450  177.7590  142.5830 O   0  0  0  0  0  0  0  0  0  0  0  0
  187.1590  177.5550  144.8090 N   0  0  0  0  0  2  0  0  0  0  0  0
  190.6680  177.4730  141.2870 N   0  0  0  0  0  0  0  0  0  0  0  0
  191.6280  177.1530  142.3310 C   0  0  0  0  0  1  0  0  0  0  0  0
  188.4420  177.8390  140.6790 O   0  0  0  0  0  0  0  0  0  0  0  0
  188.8390  177.5360  142.9650 N   0  0  0  0  0  2  0  0  0  0  0  0
  189.4180  177.1270  145.7460 C   0  0  0  0  0  3  0  0  0  0  0  0
  189.8300  177.5040  148.1010 C   0  0  0  0  0  3  0  0  0  0  0  0
  187.6300  177.9080  147.1740 C   0  0  0  0  0  3  0  0  0  0  0  0
  188.5010  177.8990  148.2680 C   0  0  0  0  0  0  0  0  0  0  0  0
  190.2900  177.1180  146.8380 C   0  0  0  0  0  0  0  0  0  0  0  0
  188.0550  178.2740  149.4910 F   0  0  0  0  0  0  0  0  0  0  0  0
  191.5800  176.7380  146.6720 F   0  0  0  0  0  0  0  0  0  0  0  0
  188.0800  177.5190  145.9080 C   0  0  0  0  0  0  0  0  0  0  0  0
  1  5  1  0  0  0  0
  2  3  1  0  0  0  0
  3  4  1  0  0  0  0
  4  9  1  0  0  0  0
  4  8  2  0  0  0  0
  5  6  2  0  0  0  0
  6  8  1  0  0  0  0
  6 27  1  0  0  0  0
  7  3  2  0  0  0  0
  7  5  1  0  0  0  0
  9 10  1  0  0  0  0
 11 20  1  6  0  0  0
 11 14  1  0  0  0  0
 12 19  1  1  0  0  0
 13 17  1  0  0  0  0
 13 11  1  0  0  0  0
 14 12  1  0  0  0  0
 16 15  1  1  0  0  0
 16 12  1  0  0  0  0
 17 10  1  1  0  0  0
 17 16  1  0  0  0  0
 19 18  3  0  0  0  0
 21 22  1  6  0  0  0
 21 23  1  0  0  0  0
 21 20  1  0  0  0  0
 23 26  1  0  0  0  0
 24 23  1  0  0  0  0
 25 23  2  0  0  0  0
 27 28  1  0  0  0  0
 28 29  1  0  0  0  0
 29 34  1  0  0  0  0
 30 37  1  0  0  0  0
 31 33  1  0  0  0  0
 32 31  2  0  0  0  0
 33 45  1  0  0  0  0
 34 30  1  0  0  0  0
 34 35  1  0  0  0  0
 36 30  2  0  0  0  0
 37 31  1  0  0  0  0
 38 45  2  0  0  0  0
 38 42  1  0  0  0  0
 39 41  1  0  0  0  0
 40 41  2  0  0  0  0
 41 43  1  0  0  0  0
 42 39  2  0  0  0  0
 44 42  1  0  0  0  0
 45 40  1  0  0  0  0
M  END
>  <MODEL>
9

>  <REMARK>
 VINA RESULT:      -7.5      4.177      8.991
  Name = 
  12 active torsions:
  status: ('A' for Active; 'I' for Inactive)
    1  A    between atoms: C_5  and  C_18
    2  A    between atoms: C_6  and  C_12
    3  A    between atoms: C_6  and  C_21
    4  A    between atoms: P_9  and  C_21
    5  A    between atoms: C_13  and  C_40
    6  A    between atoms: N_14  and  C_43
    7  A    between atoms: C_17  and  O_22
    8  A    between atoms: C_18  and  N_27
    9  A    between atoms: N_19  and  C_42
   10  A    between atoms: O_22  and  C_37
   11  A    between atoms: N_27  and  C_36
   12  A    between atoms: C_37  and  C_42
                            x       y       z     vdW  Elec       q    Type
                         _______ _______ _______ _____ _____    ______ ____

>  <TORSDO>
F 12

$$$$
