=
 OpenBabel11062414593D

 51 54  0  0  1  0  0  0  0  0999 V2000
  185.2670  178.4660  138.5600 C   0  0  2  0  0  3  0  0  0  0  0  0
  182.7530  179.0510  139.9460 C   0  0  0  0  0  2  0  0  0  0  0  0
  182.9260  179.0280  138.4150 C   0  0  1  0  0  3  0  0  0  0  0  0
  185.2310  178.6380  140.0930 C   0  0  0  0  0  2  0  0  0  0  0  0
  183.8630  178.3030  140.6770 C   0  0  1  0  0  3  0  0  0  0  0  0
  183.9770  178.1070  137.9370 N   0  0  0  0  0  0  0  0  0  0  0  0
  188.6890  177.1220  138.9270 C   0  0  0  0  0  0  0  0  0  0  0  0
  190.3820  177.0230  135.7920 C   0  0  0  0  0  3  0  0  0  0  0  0
  187.4360  177.4060  139.1400 N   0  0  0  0  0  0  0  0  0  0  0  0
  186.1250  177.9080  135.5940 C   0  0  0  0  0  1  0  0  0  0  0  0
  187.0460  178.1940  136.7660 C   0  0  1  0  0  3  0  0  0  0  0  0
  190.3530  176.7930  137.0920 O   0  0  0  0  0  0  0  0  0  0  0  0
  186.4410  177.6090  138.0650 C   0  0  2  0  0  3  0  0  0  0  0  0
  189.5580  176.9110  140.0450 N   0  0  0  0  0  2  0  0  0  0  0  0
  189.1790  177.1440  137.5440 C   0  0  0  0  0  0  0  0  0  0  0  0
  188.4020  177.6010  136.5270 C   0  0  0  0  0  0  0  0  0  0  0  0
  189.1640  177.5600  135.3760 C   0  0  0  0  0  3  0  0  0  0  0  0
  190.9790  176.6170  139.9180 C   0  0  0  0  0  2  0  0  0  0  0  0
  193.1680  177.4540  140.4210 O   0  0  0  0  0  1  0  0  0  0  0  0
  191.8130  177.6210  140.7040 C   0  0  2  0  0  3  0  0  0  0  0  0
  191.2070  178.6210  142.8610 C   0  0  0  0  0  2  0  0  0  0  0  0
  191.5450  177.5270  142.1810 C   0  0  0  0  0  0  0  0  0  0  0  0
  191.6490  176.2320  142.9140 C   0  0  0  0  0  1  0  0  0  0  0  0
  181.7040  178.7660  137.7900 O   0  0  0  0  0  0  0  0  0  0  0  0
  180.7390  179.0960  138.7410 C   0  0  0  0  0  1  0  0  0  0  0  0
  183.6200  176.7080  138.2010 C   0  0  0  0  0  2  0  0  0  0  0  0
  183.4040  175.9710  136.8920 C   0  0  0  0  0  2  0  0  0  0  0  0
  184.4640  174.0410  137.8060 O   0  0  0  0  0  0  0  0  0  0  0  0
  184.3290  174.8060  136.8140 C   0  0  0  0  0  0  0  0  0  0  0  0
  185.0660  174.5750  135.6140 N   0  0  0  0  0  2  0  0  0  0  0  0
  186.0740  173.5330  135.5040 C   0  0  0  0  0  2  0  0  0  0  0  0
  188.0020  173.3440  136.8900 O   0  0  0  0  0  1  0  0  0  0  0  0
  187.4440  174.0910  135.8530 C   0  0  0  0  0  2  0  0  0  0  0  0
  183.8220  178.6100  142.1630 C   0  0  0  0  0  2  0  0  0  0  0  0
  184.0630  180.6610  144.2270 C   0  0  0  0  0  1  0  0  0  0  0  0
  183.9270  178.0470  145.4920 C   0  0  0  0  0  1  0  0  0  0  0  0
  185.9290  177.4280  144.3540 O   0  0  0  0  0  0  0  0  0  0  0  0
  185.1960  179.6550  144.0080 C   0  0  1  0  0  3  0  0  0  0  0  0
  185.3030  178.5070  145.0140 C   0  0  1  0  0  0  0  0  0  0  0  0
  185.2170  178.9850  142.6650 C   0  0  1  0  0  3  0  0  0  0  0  0
  187.3080  177.8750  142.5900 F   0  0  0  0  0  0  0  0  0  0  0  0
  185.9870  177.7180  142.9710 C   0  0  1  0  0  3  0  0  0  0  0  0
  186.1340  178.9140  146.2160 C   0  0  0  0  0  0  0  0  0  0  0  0
  185.5980  179.5610  147.1570 O   0  0  0  0  0  0  0  0  0  0  0  0
  187.4900  178.5770  146.3340 O   0  0  0  0  0  0  0  0  0  0  0  0
  187.9660  177.2480  146.4930 C   0  0  1  0  0  3  0  0  0  0  0  0
  189.1380  177.0240  145.5980 C   0  0  0  0  0  0  0  0  0  0  0  0
  190.2770  177.4310  145.9490 O   0  0  0  0  0  1  0  0  0  0  0  0
  188.9750  176.3910  144.3700 O   0  0  0  0  0  0  0  0  0  0  0  0
  188.4220  178.3290  148.6920 C   0  0  0  0  0  1  0  0  0  0  0  0
  188.3490  177.0100  147.9450 C   0  0  0  0  0  2  0  0  0  0  0  0
  1  4  1  1  0  0  0
  2  5  1  0  0  0  0
  3 24  1  6  0  0  0
  3  2  1  0  0  0  0
  4  5  1  0  0  0  0
  5 34  1  1  0  0  0
  6 26  1  0  0  0  0
  6  3  1  0  0  0  0
  6  1  1  0  0  0  0
  7  9  2  0  0  0  0
  7 14  1  0  0  0  0
  8 12  1  0  0  0  0
 11 10  1  6  0  0  0
 11 13  1  0  0  0  0
 12 15  1  0  0  0  0
 13  1  1  0  0  0  0
 13  9  1  1  0  0  0
 15  7  1  0  0  0  0
 16 11  1  0  0  0  0
 16 15  2  0  0  0  0
 17  8  2  0  0  0  0
 17 16  1  0  0  0  0
 18 14  1  0  0  0  0
 18 20  1  0  0  0  0
 20 19  1  1  0  0  0
 20 22  1  0  0  0  0
 22 21  2  0  0  0  0
 22 23  1  0  0  0  0
 24 25  1  0  0  0  0
 27 26  1  0  0  0  0
 29 27  1  0  0  0  0
 29 28  2  0  0  0  0
 30 29  1  0  0  0  0
 31 30  1  0  0  0  0
 31 33  1  0  0  0  0
 33 32  1  0  0  0  0
 37 39  1  0  0  0  0
 38 35  1  1  0  0  0
 38 39  1  0  0  0  0
 39 36  1  1  0  0  0
 39 43  1  0  0  0  0
 40 34  1  1  0  0  0
 40 42  1  0  0  0  0
 40 38  1  0  0  0  0
 42 41  1  1  0  0  0
 42 37  1  0  0  0  0
 43 45  1  0  0  0  0
 43 44  2  0  0  0  0
 45 46  1  0  0  0  0
 46 51  1  1  0  0  0
 47 48  1  0  0  0  0
 47 46  1  0  0  0  0
 49 47  2  0  0  0  0
 51 50  1  0  0  0  0
M  END
>  <MODEL>
1

>  <REMARK>
 VINA RESULT:      -6.2      0.000      0.000
  Name = 
  17 active torsions:
  status: ('A' for Active; 'I' for Inactive)
    1  A    between atoms: C_4  and  C_30
    2  A    between atoms: C_6  and  C_42
    3  A    between atoms: C_10  and  C_20
    4  A    between atoms: C_10  and  O_46
    5  A    between atoms: C_11  and  N_44
    6  A    between atoms: C_11  and  C_48
    7  A    between atoms: C_13  and  O_15
    8  A    between atoms: C_19  and  C_43
    9  A    between atoms: C_19  and  N_45
   10  A    between atoms: C_22  and  C_37
   11  A    between atoms: N_23  and  C_24
   12  A    between atoms: C_24  and  C_41
   13  A    between atoms: C_25  and  C_37
   14  A    between atoms: C_30  and  O_46
   15  A    between atoms: C_30  and  C_50
   16  A    between atoms: C_31  and  C_41
   17  A    between atoms: C_34  and  C_43
                            x       y       z     vdW  Elec       q    Type
                         _______ _______ _______ _____ _____    ______ ____

>  <TORSDO>
F 17

$$$$
=
 OpenBabel11062414593D

 51 54  0  0  1  0  0  0  0  0999 V2000
  187.0640  178.4130  138.6360 C   0  0  2  0  0  3  0  0  0  0  0  0
  188.2140  176.6080  136.6340 C   0  0  0  0  0  2  0  0  0  0  0  0
  188.9880  177.7330  137.3490 C   0  0  1  0  0  3  0  0  0  0  0  0
  186.1700  177.4330  137.8490 C   0  0  0  0  0  2  0  0  0  0  0  0
  186.9410  176.2060  137.3720 C   0  0  1  0  0  3  0  0  0  0  0  0
  188.4930  178.0430  138.7050 N   0  0  0  0  0  0  0  0  0  0  0  0
  186.7180  177.9930  142.2910 C   0  0  0  0  0  0  0  0  0  0  0  0
  183.3550  178.5320  143.3400 C   0  0  0  0  0  3  0  0  0  0  0  0
  187.2180  178.1920  141.1040 N   0  0  0  0  0  0  0  0  0  0  0  0
  184.2250  179.6160  139.2160 C   0  0  0  0  0  1  0  0  0  0  0  0
  184.9520  178.5680  140.0400 C   0  0  1  0  0  3  0  0  0  0  0  0
  184.6160  178.2580  143.6170 O   0  0  0  0  0  0  0  0  0  0  0  0
  186.4770  178.8270  139.9920 C   0  0  2  0  0  3  0  0  0  0  0  0
  187.5380  177.4010  143.3030 N   0  0  0  0  0  2  0  0  0  0  0  0
  185.2950  178.2820  142.5000 C   0  0  0  0  0  0  0  0  0  0  0  0
  184.4760  178.5940  141.4610 C   0  0  0  0  0  0  0  0  0  0  0  0
  183.2010  178.7380  141.9700 C   0  0  0  0  0  3  0  0  0  0  0  0
  187.0690  177.1090  144.6520 C   0  0  0  0  0  2  0  0  0  0  0  0
  189.0410  176.9750  146.0080 O   0  0  0  0  0  1  0  0  0  0  0  0
  187.9520  177.7870  145.6920 C   0  0  2  0  0  3  0  0  0  0  0  0
  187.7400  178.0540  148.1210 C   0  0  0  0  0  2  0  0  0  0  0  0
  187.1720  178.1620  146.9220 C   0  0  0  0  0  0  0  0  0  0  0  0
  185.7660  178.6560  146.8360 C   0  0  0  0  0  1  0  0  0  0  0  0
  190.3560  177.4500  137.3630 O   0  0  0  0  0  0  0  0  0  0  0  0
  190.5650  176.6430  136.2460 C   0  0  0  0  0  1  0  0  0  0  0  0
  188.7170  176.9200  139.6230 C   0  0  0  0  0  2  0  0  0  0  0  0
  190.1720  176.4910  139.5750 C   0  0  0  0  0  2  0  0  0  0  0  0
  191.8000  177.8680  140.6400 O   0  0  0  0  0  0  0  0  0  0  0  0
  190.8880  177.0090  140.7740 C   0  0  0  0  0  0  0  0  0  0  0  0
  190.5410  176.5150  142.0670 N   0  0  0  0  0  2  0  0  0  0  0  0
  191.2750  176.8820  143.2670 C   0  0  0  0  0  2  0  0  0  0  0  0
  192.0040  175.9880  145.3500 O   0  0  0  0  0  1  0  0  0  0  0  0
  191.6630  175.6350  144.0450 C   0  0  0  0  0  2  0  0  0  0  0  0
  186.0690  175.3320  136.4900 C   0  0  0  0  0  2  0  0  0  0  0  0
  183.5830  174.7880  137.9210 C   0  0  0  0  0  1  0  0  0  0  0  0
  183.2990  173.9300  135.1590 C   0  0  0  0  0  1  0  0  0  0  0  0
  185.0870  172.3870  135.4880 O   0  0  0  0  0  0  0  0  0  0  0  0
  184.4370  173.6300  137.3980 C   0  0  1  0  0  3  0  0  0  0  0  0
  183.9530  172.9400  136.1210 C   0  0  1  0  0  0  0  0  0  0  0  0
  185.8770  173.9560  137.1310 C   0  0  1  0  0  3  0  0  0  0  0  0
  186.9030  171.8530  136.7650 F   0  0  0  0  0  0  0  0  0  0  0  0
  186.2470  172.8880  136.1230 C   0  0  1  0  0  3  0  0  0  0  0  0
  182.9660  171.8350  136.4410 C   0  0  0  0  0  0  0  0  0  0  0  0
  183.3820  170.7400  136.9110 O   0  0  0  0  0  0  0  0  0  0  0  0
  181.5850  171.9890  136.2530 O   0  0  0  0  0  0  0  0  0  0  0  0
  180.6260  171.8940  137.2990 C   0  0  1  0  0  3  0  0  0  0  0  0
  180.2010  173.2600  137.7160 C   0  0  0  0  0  0  0  0  0  0  0  0
  180.2010  174.1970  136.8750 O   0  0  0  0  0  0  0  0  0  0  0  0
  179.8280  173.5100  139.0320 O   0  0  0  0  0  1  0  0  0  0  0  0
  179.6680  170.5680  135.4170 C   0  0  0  0  0  1  0  0  0  0  0  0
  179.4310  171.0830  136.8250 C   0  0  0  0  0  2  0  0  0  0  0  0
  1  4  1  1  0  0  0
  1  6  1  0  0  0  0
  1 13  1  0  0  0  0
  2  3  1  0  0  0  0
  2  5  1  0  0  0  0
  3 24  1  1  0  0  0
  3  6  1  0  0  0  0
  5 34  1  6  0  0  0
  5  4  1  0  0  0  0
  6 26  1  0  0  0  0
  7 15  1  0  0  0  0
  7 14  1  0  0  0  0
  8 12  1  0  0  0  0
  9  7  2  0  0  0  0
 11 10  1  6  0  0  0
 11 16  1  0  0  0  0
 13 11  1  0  0  0  0
 13  9  1  1  0  0  0
 14 18  1  0  0  0  0
 15 12  1  0  0  0  0
 16 17  1  0  0  0  0
 16 15  2  0  0  0  0
 17  8  2  0  0  0  0
 18 20  1  0  0  0  0
 20 19  1  1  0  0  0
 20 22  1  0  0  0  0
 22 21  2  0  0  0  0
 23 22  1  0  0  0  0
 25 24  1  0  0  0  0
 27 26  1  0  0  0  0
 27 29  1  0  0  0  0
 28 29  2  0  0  0  0
 29 30  1  0  0  0  0
 30 31  1  0  0  0  0
 31 33  1  0  0  0  0
 33 32  1  0  0  0  0
 37 39  1  0  0  0  0
 37 42  1  0  0  0  0
 38 35  1  6  0  0  0
 39 36  1  6  0  0  0
 39 43  1  0  0  0  0
 39 38  1  0  0  0  0
 40 34  1  6  0  0  0
 40 38  1  0  0  0  0
 42 41  1  1  0  0  0
 42 40  1  0  0  0  0
 43 44  2  0  0  0  0
 45 43  1  0  0  0  0
 45 46  1  0  0  0  0
 46 51  1  6  0  0  0
 46 47  1  0  0  0  0
 47 49  1  0  0  0  0
 48 47  2  0  0  0  0
 50 51  1  0  0  0  0
M  END
>  <MODEL>
2

>  <REMARK>
 VINA RESULT:      -6.0      2.679      8.908
  Name = 
  17 active torsions:
  status: ('A' for Active; 'I' for Inactive)
    1  A    between atoms: C_4  and  C_30
    2  A    between atoms: C_6  and  C_42
    3  A    between atoms: C_10  and  C_20
    4  A    between atoms: C_10  and  O_46
    5  A    between atoms: C_11  and  N_44
    6  A    between atoms: C_11  and  C_48
    7  A    between atoms: C_13  and  O_15
    8  A    between atoms: C_19  and  C_43
    9  A    between atoms: C_19  and  N_45
   10  A    between atoms: C_22  and  C_37
   11  A    between atoms: N_23  and  C_24
   12  A    between atoms: C_24  and  C_41
   13  A    between atoms: C_25  and  C_37
   14  A    between atoms: C_30  and  O_46
   15  A    between atoms: C_30  and  C_50
   16  A    between atoms: C_31  and  C_41
   17  A    between atoms: C_34  and  C_43
                            x       y       z     vdW  Elec       q    Type
                         _______ _______ _______ _____ _____    ______ ____

>  <TORSDO>
F 17

$$$$
=
 OpenBabel11062414593D

 51 54  0  0  1  0  0  0  0  0999 V2000
  186.9510  178.5950  141.6010 C   0  0  2  0  0  3  0  0  0  0  0  0
  189.7290  178.1980  140.7580 C   0  0  0  0  0  2  0  0  0  0  0  0
  189.2990  178.7200  142.1420 C   0  0  1  0  0  3  0  0  0  0  0  0
  187.2900  178.2340  140.1390 C   0  0  0  0  0  2  0  0  0  0  0  0
  188.6060  177.4720  140.0250 C   0  0  1  0  0  3  0  0  0  0  0  0
  187.9820  178.2280  142.5940 N   0  0  0  0  0  0  0  0  0  0  0  0
  183.3910  177.9740  140.8340 C   0  0  0  0  0  0  0  0  0  0  0  0
  181.2810  179.1450  143.4580 C   0  0  0  0  0  3  0  0  0  0  0  0
  184.6910  177.9080  140.8360 N   0  0  0  0  0  0  0  0  0  0  0  0
  185.5390  179.1080  144.3550 C   0  0  0  0  0  1  0  0  0  0  0  0
  184.9150  179.2390  142.9780 C   0  0  1  0  0  3  0  0  0  0  0  0
  181.4420  178.5530  142.2890 O   0  0  0  0  0  0  0  0  0  0  0  0
  185.5310  178.1900  142.0200 C   0  0  2  0  0  3  0  0  0  0  0  0
  182.6760  177.6450  139.6390 N   0  0  0  0  0  2  0  0  0  0  0  0
  182.7220  178.4970  142.0320 C   0  0  0  0  0  0  0  0  0  0  0  0
  183.4310  179.0470  143.0530 C   0  0  0  0  0  0  0  0  0  0  0  0
  182.5210  179.5020  143.9870 C   0  0  0  0  0  3  0  0  0  0  0  0
  181.2250  177.7140  139.5220 C   0  0  0  0  0  2  0  0  0  0  0  0
  181.5550  178.5590  137.3020 O   0  0  0  0  0  1  0  0  0  0  0  0
  180.8150  178.7380  138.4710 C   0  0  2  0  0  3  0  0  0  0  0  0
  180.0910  180.5840  139.9160 C   0  0  0  0  0  2  0  0  0  0  0  0
  180.9390  180.1440  138.9880 C   0  0  0  0  0  0  0  0  0  0  0  0
  181.9950  181.0720  138.4860 C   0  0  0  0  0  1  0  0  0  0  0  0
  190.2890  178.4570  143.0920 O   0  0  0  0  0  0  0  0  0  0  0  0
  191.3050  177.8200  142.3810 C   0  0  0  0  0  1  0  0  0  0  0  0
  188.0080  176.7810  142.8360 C   0  0  0  0  0  2  0  0  0  0  0  0
  187.5760  176.4830  144.2600 C   0  0  0  0  0  2  0  0  0  0  0  0
  188.2670  178.1070  145.8610 O   0  0  0  0  0  0  0  0  0  0  0  0
  188.5590  177.0660  145.2150 C   0  0  0  0  0  0  0  0  0  0  0  0
  189.8320  176.4430  145.3800 N   0  0  0  0  0  2  0  0  0  0  0  0
  190.8840  177.0200  146.2010 C   0  0  0  0  0  2  0  0  0  0  0  0
  192.5420  176.3230  147.7620 O   0  0  0  0  0  1  0  0  0  0  0  0
  191.2360  176.0760  147.3390 C   0  0  0  0  0  2  0  0  0  0  0  0
  188.9760  177.2520  138.5700 C   0  0  0  0  0  2  0  0  0  0  0  0
  188.4420  174.8950  136.9310 C   0  0  0  0  0  1  0  0  0  0  0  0
  189.7690  176.9050  135.3050 C   0  0  0  0  0  1  0  0  0  0  0  0
  191.6530  176.7960  136.7630 O   0  0  0  0  0  0  0  0  0  0  0  0
  189.8850  175.2960  137.2530 C   0  0  1  0  0  3  0  0  0  0  0  0
  190.6680  175.9970  136.1420 C   0  0  1  0  0  0  0  0  0  0  0  0
  190.0590  176.1780  138.4550 C   0  0  1  0  0  3  0  0  0  0  0  0
  192.3960  176.2000  138.8380 F   0  0  0  0  0  0  0  0  0  0  0  0
  191.3840  176.8450  138.1500 C   0  0  1  0  0  3  0  0  0  0  0  0
  191.3390  174.9880  135.2300 C   0  0  0  0  0  0  0  0  0  0  0  0
  190.6390  174.1340  134.6190 O   0  0  0  0  0  0  0  0  0  0  0  0
  192.7250  174.9770  135.0200 O   0  0  0  0  0  0  0  0  0  0  0  0
  193.6220  174.1010  135.6890 C   0  0  1  0  0  3  0  0  0  0  0  0
  194.4740  174.8780  136.6330 C   0  0  0  0  0  0  0  0  0  0  0  0
  194.8050  176.0590  136.3460 O   0  0  0  0  0  0  0  0  0  0  0  0
  194.9240  174.3000  137.8150 O   0  0  0  0  0  1  0  0  0  0  0  0
  193.2880  171.6500  136.0020 C   0  0  0  0  0  1  0  0  0  0  0  0
  192.8360  173.0330  136.4330 C   0  0  0  0  0  2  0  0  0  0  0  0
  1  4  1  6  0  0  0
  1 13  1  0  0  0  0
  1  6  1  0  0  0  0
  2  3  1  0  0  0  0
  3  6  1  0  0  0  0
  3 24  1  1  0  0  0
  5 34  1  6  0  0  0
  5  4  1  0  0  0  0
  5  2  1  0  0  0  0
  6 26  1  0  0  0  0
  7  9  2  0  0  0  0
  7 15  1  0  0  0  0
  8 17  2  0  0  0  0
 11 16  1  0  0  0  0
 11 10  1  1  0  0  0
 12  8  1  0  0  0  0
 13  9  1  6  0  0  0
 13 11  1  0  0  0  0
 14  7  1  0  0  0  0
 15 12  1  0  0  0  0
 15 16  2  0  0  0  0
 16 17  1  0  0  0  0
 18 14  1  0  0  0  0
 20 19  1  6  0  0  0
 20 22  1  0  0  0  0
 20 18  1  0  0  0  0
 22 21  2  0  0  0  0
 23 22  1  0  0  0  0
 25 24  1  0  0  0  0
 26 27  1  0  0  0  0
 27 29  1  0  0  0  0
 29 30  1  0  0  0  0
 29 28  2  0  0  0  0
 30 31  1  0  0  0  0
 31 33  1  0  0  0  0
 33 32  1  0  0  0  0
 37 42  1  0  0  0  0
 38 35  1  6  0  0  0
 38 40  1  0  0  0  0
 39 36  1  6  0  0  0
 39 37  1  0  0  0  0
 39 38  1  0  0  0  0
 40 34  1  6  0  0  0
 42 40  1  0  0  0  0
 42 41  1  1  0  0  0
 43 39  1  0  0  0  0
 44 43  2  0  0  0  0
 45 43  1  0  0  0  0
 45 46  1  0  0  0  0
 46 51  1  1  0  0  0
 46 47  1  0  0  0  0
 47 49  1  0  0  0  0
 48 47  2  0  0  0  0
 50 51  1  0  0  0  0
M  END
>  <MODEL>
3

>  <REMARK>
 VINA RESULT:      -5.9      2.782      9.830
  Name = 
  17 active torsions:
  status: ('A' for Active; 'I' for Inactive)
    1  A    between atoms: C_4  and  C_30
    2  A    between atoms: C_6  and  C_42
    3  A    between atoms: C_10  and  C_20
    4  A    between atoms: C_10  and  O_46
    5  A    between atoms: C_11  and  N_44
    6  A    between atoms: C_11  and  C_48
    7  A    between atoms: C_13  and  O_15
    8  A    between atoms: C_19  and  C_43
    9  A    between atoms: C_19  and  N_45
   10  A    between atoms: C_22  and  C_37
   11  A    between atoms: N_23  and  C_24
   12  A    between atoms: C_24  and  C_41
   13  A    between atoms: C_25  and  C_37
   14  A    between atoms: C_30  and  O_46
   15  A    between atoms: C_30  and  C_50
   16  A    between atoms: C_31  and  C_41
   17  A    between atoms: C_34  and  C_43
                            x       y       z     vdW  Elec       q    Type
                         _______ _______ _______ _____ _____    ______ ____

>  <TORSDO>
F 17

$$$$
=
 OpenBabel11062414593D

 51 54  0  0  1  0  0  0  0  0999 V2000
  190.9240  174.8060  137.3720 C   0  0  2  0  0  3  0  0  0  0  0  0
  192.6810  176.7110  138.7410 C   0  0  0  0  0  2  0  0  0  0  0  0
  193.1060  175.8190  137.5580 C   0  0  1  0  0  3  0  0  0  0  0  0
  190.4610  175.5270  138.6550 C   0  0  0  0  0  2  0  0  0  0  0  0
  191.1670  176.8650  138.8510 C   0  0  1  0  0  3  0  0  0  0  0  0
  192.0100  175.4800  136.6290 N   0  0  0  0  0  0  0  0  0  0  0  0
  187.3920  173.8530  136.8580 C   0  0  0  0  0  0  0  0  0  0  0  0
  187.1090  171.1150  134.5940 C   0  0  0  0  0  3  0  0  0  0  0  0
  188.4670  174.5250  137.1550 N   0  0  0  0  0  0  0  0  0  0  0  0
  191.0640  172.9080  134.8770 C   0  0  0  0  0  1  0  0  0  0  0  0
  190.0020  172.9040  135.9620 C   0  0  1  0  0  3  0  0  0  0  0  0
  186.5550  172.0240  135.3750 O   0  0  0  0  0  0  0  0  0  0  0  0
  189.7680  174.3460  136.4740 C   0  0  2  0  0  3  0  0  0  0  0  0
  186.1770  174.1340  137.5590 N   0  0  0  0  0  2  0  0  0  0  0  0
  187.5070  172.7530  135.8930 C   0  0  0  0  0  0  0  0  0  0  0  0
  188.7180  172.3360  135.4390 C   0  0  0  0  0  0  0  0  0  0  0  0
  188.4960  171.2540  134.6090 C   0  0  0  0  0  3  0  0  0  0  0  0
  184.9270  173.4210  137.3260 C   0  0  0  0  0  2  0  0  0  0  0  0
  184.5750  175.3820  135.9920 O   0  0  0  0  0  1  0  0  0  0  0  0
  183.9240  174.3080  136.5990 C   0  0  2  0  0  3  0  0  0  0  0  0
  181.6220  174.2270  137.4420 C   0  0  0  0  0  2  0  0  0  0  0  0
  182.8310  174.7780  137.5190 C   0  0  0  0  0  0  0  0  0  0  0  0
  183.0650  175.8560  138.5240 C   0  0  0  0  0  1  0  0  0  0  0  0
  194.1840  176.3930  136.8790 O   0  0  0  0  0  0  0  0  0  0  0  0
  194.9590  175.3120  136.4620 C   0  0  0  0  0  1  0  0  0  0  0  0
  191.5220  176.6710  135.9230 C   0  0  0  0  0  2  0  0  0  0  0  0
  190.2600  176.3360  135.1480 C   0  0  0  0  0  2  0  0  0  0  0  0
  189.5150  178.4120  136.0530 O   0  0  0  0  0  0  0  0  0  0  0  0
  189.2180  177.3660  135.4170 C   0  0  0  0  0  0  0  0  0  0  0  0
  187.8840  177.1490  134.9590 N   0  0  0  0  0  2  0  0  0  0  0  0
  186.7900  178.0480  135.2860 C   0  0  0  0  0  2  0  0  0  0  0  0
  185.6430  177.9420  137.3700 O   0  0  0  0  0  1  0  0  0  0  0  0
  186.8180  178.3900  136.7670 C   0  0  0  0  0  2  0  0  0  0  0  0
  190.7900  177.4820  140.1850 C   0  0  0  0  0  2  0  0  0  0  0  0
  190.4360  175.7820  142.5330 C   0  0  0  0  0  1  0  0  0  0  0  0
  190.2150  178.5680  143.3310 C   0  0  0  0  0  1  0  0  0  0  0  0
  188.3360  178.8020  141.8810 O   0  0  0  0  0  0  0  0  0  0  0  0
  189.2690  176.6270  142.0130 C   0  0  1  0  0  3  0  0  0  0  0  0
  188.9500  177.9080  142.7860 C   0  0  1  0  0  0  0  0  0  0  0  0
  189.3730  177.0630  140.5810 C   0  0  1  0  0  3  0  0  0  0  0  0
  187.2330  177.9440  140.0750 F   0  0  0  0  0  0  0  0  0  0  0  0
  188.4780  178.2860  140.5720 C   0  0  1  0  0  3  0  0  0  0  0  0
  188.0030  177.6270  143.9360 C   0  0  0  0  0  0  0  0  0  0  0  0
  187.0170  176.8580  143.7620 O   0  0  0  0  0  0  0  0  0  0  0  0
  188.1920  178.1790  145.2110 O   0  0  0  0  0  0  0  0  0  0  0  0
  187.5930  177.6670  146.3940 C   0  0  1  0  0  3  0  0  0  0  0  0
  188.6430  177.4250  147.4240 C   0  0  0  0  0  0  0  0  0  0  0  0
  188.6060  178.0580  148.5130 O   0  0  0  0  0  1  0  0  0  0  0  0
  189.6730  176.5240  147.1810 O   0  0  0  0  0  0  0  0  0  0  0  0
  185.1770  178.2810  146.3930 C   0  0  0  0  0  1  0  0  0  0  0  0
  186.5550  178.6510  146.9100 C   0  0  0  0  0  2  0  0  0  0  0  0
  1  4  1  1  0  0  0
  2  5  1  0  0  0  0
  3 24  1  6  0  0  0
  3  2  1  0  0  0  0
  4  5  1  0  0  0  0
  5 34  1  1  0  0  0
  6  1  1  0  0  0  0
  6  3  1  0  0  0  0
  7  9  2  0  0  0  0
  7 14  1  0  0  0  0
  8 17  2  0  0  0  0
  8 12  1  0  0  0  0
 11 10  1  6  0  0  0
 11 13  1  0  0  0  0
 12 15  1  0  0  0  0
 13  9  1  1  0  0  0
 13  1  1  0  0  0  0
 15  7  1  0  0  0  0
 16 15  2  0  0  0  0
 16 11  1  0  0  0  0
 17 16  1  0  0  0  0
 18 14  1  0  0  0  0
 20 19  1  1  0  0  0
 20 18  1  0  0  0  0
 20 22  1  0  0  0  0
 21 22  2  0  0  0  0
 22 23  1  0  0  0  0
 25 24  1  0  0  0  0
 26  6  1  0  0  0  0
 27 29  1  0  0  0  0
 27 26  1  0  0  0  0
 29 28  2  0  0  0  0
 30 31  1  0  0  0  0
 30 29  1  0  0  0  0
 31 33  1  0  0  0  0
 33 32  1  0  0  0  0
 37 39  1  0  0  0  0
 38 35  1  1  0  0  0
 38 39  1  0  0  0  0
 39 36  1  1  0  0  0
 39 43  1  0  0  0  0
 40 34  1  1  0  0  0
 40 38  1  0  0  0  0
 42 41  1  1  0  0  0
 42 40  1  0  0  0  0
 42 37  1  0  0  0  0
 43 45  1  0  0  0  0
 44 43  2  0  0  0  0
 45 46  1  0  0  0  0
 46 51  1  1  0  0  0
 46 47  1  0  0  0  0
 47 48  1  0  0  0  0
 49 47  2  0  0  0  0
 50 51  1  0  0  0  0
M  END
>  <MODEL>
4

>  <REMARK>
 VINA RESULT:      -5.6      2.405      6.833
  Name = 
  17 active torsions:
  status: ('A' for Active; 'I' for Inactive)
    1  A    between atoms: C_4  and  C_30
    2  A    between atoms: C_6  and  C_42
    3  A    between atoms: C_10  and  C_20
    4  A    between atoms: C_10  and  O_46
    5  A    between atoms: C_11  and  N_44
    6  A    between atoms: C_11  and  C_48
    7  A    between atoms: C_13  and  O_15
    8  A    between atoms: C_19  and  C_43
    9  A    between atoms: C_19  and  N_45
   10  A    between atoms: C_22  and  C_37
   11  A    between atoms: N_23  and  C_24
   12  A    between atoms: C_24  and  C_41
   13  A    between atoms: C_25  and  C_37
   14  A    between atoms: C_30  and  O_46
   15  A    between atoms: C_30  and  C_50
   16  A    between atoms: C_31  and  C_41
   17  A    between atoms: C_34  and  C_43
                            x       y       z     vdW  Elec       q    Type
                         _______ _______ _______ _____ _____    ______ ____

>  <TORSDO>
F 17

$$$$
=
 OpenBabel11062414593D

 51 54  0  0  1  0  0  0  0  0999 V2000
  187.5670  178.7470  139.1200 C   0  0  2  0  0  3  0  0  0  0  0  0
  186.7920  177.8880  136.4280 C   0  0  0  0  0  2  0  0  0  0  0  0
  188.2170  178.3050  136.8400 C   0  0  1  0  0  3  0  0  0  0  0  0
  186.0840  178.5170  138.7600 C   0  0  0  0  0  2  0  0  0  0  0  0
  185.9180  177.5160  137.6210 C   0  0  1  0  0  3  0  0  0  0  0  0
  188.5400  178.0460  138.2570 N   0  0  0  0  0  0  0  0  0  0  0  0
  189.0950  176.9550  141.9670 C   0  0  0  0  0  0  0  0  0  0  0  0
  186.9510  176.9840  144.8140 C   0  0  0  0  0  3  0  0  0  0  0  0
  188.9330  177.6020  140.8490 N   0  0  0  0  0  0  0  0  0  0  0  0
  185.7450  179.5800  141.5360 C   0  0  0  0  0  1  0  0  0  0  0  0
  186.5700  178.3110  141.4170 C   0  0  1  0  0  3  0  0  0  0  0  0
  188.0890  176.6500  144.2340 O   0  0  0  0  0  0  0  0  0  0  0  0
  187.8650  178.5990  140.6190 C   0  0  2  0  0  3  0  0  0  0  0  0
  190.1860  176.0370  142.0910 N   0  0  0  0  0  2  0  0  0  0  0  0
  188.0780  177.1120  143.0130 C   0  0  0  0  0  0  0  0  0  0  0  0
  186.9190  177.7820  142.7750 C   0  0  0  0  0  0  0  0  0  0  0  0
  186.1510  177.6950  143.9200 C   0  0  0  0  0  3  0  0  0  0  0  0
  190.4400  175.2420  143.2850 C   0  0  0  0  0  2  0  0  0  0  0  0
  192.4140  174.4810  144.4130 O   0  0  0  0  0  1  0  0  0  0  0  0
  191.7760  175.6170  143.9130 C   0  0  2  0  0  3  0  0  0  0  0  0
  191.4890  177.9460  144.6280 C   0  0  0  0  0  2  0  0  0  0  0  0
  191.6140  176.6670  144.9770 C   0  0  0  0  0  0  0  0  0  0  0  0
  191.5900  176.3140  146.4270 C   0  0  0  0  0  1  0  0  0  0  0  0
  189.1610  177.7180  135.9930 O   0  0  0  0  0  0  0  0  0  0  0  0
  188.4730  177.4780  134.8040 C   0  0  0  0  0  1  0  0  0  0  0  0
  188.5750  176.6070  138.5420 C   0  0  0  0  0  2  0  0  0  0  0  0
  189.9460  176.0440  138.2130 C   0  0  0  0  0  2  0  0  0  0  0  0
  190.8210  174.1960  136.9880 O   0  0  0  0  0  0  0  0  0  0  0  0
  189.8020  174.8580  137.3230 C   0  0  0  0  0  0  0  0  0  0  0  0
  188.5090  174.4910  136.8470 N   0  0  0  0  0  2  0  0  0  0  0  0
  188.3050  173.4220  135.8830 C   0  0  0  0  0  2  0  0  0  0  0  0
  186.2860  174.6120  135.4590 O   0  0  0  0  0  1  0  0  0  0  0  0
  186.8360  173.3310  135.5040 C   0  0  0  0  0  2  0  0  0  0  0  0
  184.4630  177.4140  137.2030 C   0  0  0  0  0  2  0  0  0  0  0  0
  182.9860  179.6790  138.3050 C   0  0  0  0  0  1  0  0  0  0  0  0
  181.3040  178.2890  136.3850 C   0  0  0  0  0  1  0  0  0  0  0  0
  181.4330  176.3300  137.7390 O   0  0  0  0  0  0  0  0  0  0  0  0
  182.5280  178.2480  138.5980 C   0  0  1  0  0  3  0  0  0  0  0  0
  181.3220  177.7350  137.8090 C   0  0  1  0  0  0  0  0  0  0  0  0
  183.5730  177.1850  138.4260 C   0  0  1  0  0  3  0  0  0  0  0  0
  182.6030  175.2420  139.3700 F   0  0  0  0  0  0  0  0  0  0  0  0
  182.7200  175.9570  138.1910 C   0  0  1  0  0  3  0  0  0  0  0  0
  180.0240  178.1040  138.5000 C   0  0  0  0  0  0  0  0  0  0  0  0
  179.3450  179.0800  138.0770 O   0  0  0  0  0  0  0  0  0  0  0  0
  179.5280  177.3810  139.5940 O   0  0  0  0  0  0  0  0  0  0  0  0
  180.2630  177.1470  140.7890 C   0  0  1  0  0  3  0  0  0  0  0  0
  179.7660  178.0470  141.8680 C   0  0  0  0  0  0  0  0  0  0  0  0
  179.5540  177.5820  143.0190 O   0  0  0  0  0  1  0  0  0  0  0  0
  179.5130  179.3890  141.6060 O   0  0  0  0  0  0  0  0  0  0  0  0
  178.9390  175.0560  140.4920 C   0  0  0  0  0  1  0  0  0  0  0  0
  180.1220  175.6910  141.1990 C   0  0  0  0  0  2  0  0  0  0  0  0
  1  4  1  1  0  0  0
  1 13  1  0  0  0  0
  2  3  1  0  0  0  0
  2  5  1  0  0  0  0
  3 24  1  6  0  0  0
  3  6  1  0  0  0  0
  5 34  1  6  0  0  0
  5  4  1  0  0  0  0
  6 26  1  0  0  0  0
  6  1  1  0  0  0  0
  7 14  1  0  0  0  0
  7 15  1  0  0  0  0
  9  7  2  0  0  0  0
 11 10  1  1  0  0  0
 11 16  1  0  0  0  0
 12  8  1  0  0  0  0
 13  9  1  6  0  0  0
 13 11  1  0  0  0  0
 14 18  1  0  0  0  0
 15 12  1  0  0  0  0
 16 15  2  0  0  0  0
 16 17  1  0  0  0  0
 17  8  2  0  0  0  0
 18 20  1  0  0  0  0
 20 19  1  1  0  0  0
 20 22  1  0  0  0  0
 21 22  2  0  0  0  0
 22 23  1  0  0  0  0
 25 24  1  0  0  0  0
 27 26  1  0  0  0  0
 28 29  2  0  0  0  0
 29 27  1  0  0  0  0
 30 29  1  0  0  0  0
 31 30  1  0  0  0  0
 32 33  1  0  0  0  0
 33 31  1  0  0  0  0
 37 39  1  0  0  0  0
 37 42  1  0  0  0  0
 38 35  1  6  0  0  0
 39 36  1  6  0  0  0
 39 43  1  0  0  0  0
 39 38  1  0  0  0  0
 40 34  1  6  0  0  0
 40 38  1  0  0  0  0
 42 40  1  0  0  0  0
 42 41  1  1  0  0  0
 43 45  1  0  0  0  0
 44 43  2  0  0  0  0
 45 46  1  0  0  0  0
 46 51  1  1  0  0  0
 46 47  1  0  0  0  0
 47 48  1  0  0  0  0
 49 47  2  0  0  0  0
 50 51  1  0  0  0  0
M  END
>  <MODEL>
5

>  <REMARK>
 VINA RESULT:      -5.5      2.479      6.777
  Name = 
  17 active torsions:
  status: ('A' for Active; 'I' for Inactive)
    1  A    between atoms: C_4  and  C_30
    2  A    between atoms: C_6  and  C_42
    3  A    between atoms: C_10  and  C_20
    4  A    between atoms: C_10  and  O_46
    5  A    between atoms: C_11  and  N_44
    6  A    between atoms: C_11  and  C_48
    7  A    between atoms: C_13  and  O_15
    8  A    between atoms: C_19  and  C_43
    9  A    between atoms: C_19  and  N_45
   10  A    between atoms: C_22  and  C_37
   11  A    between atoms: N_23  and  C_24
   12  A    between atoms: C_24  and  C_41
   13  A    between atoms: C_25  and  C_37
   14  A    between atoms: C_30  and  O_46
   15  A    between atoms: C_30  and  C_50
   16  A    between atoms: C_31  and  C_41
   17  A    between atoms: C_34  and  C_43
                            x       y       z     vdW  Elec       q    Type
                         _______ _______ _______ _____ _____    ______ ____

>  <TORSDO>
F 17

$$$$
=
 OpenBabel11062414593D

 51 54  0  0  1  0  0  0  0  0999 V2000
  186.2840  178.6140  137.9360 C   0  0  2  0  0  3  0  0  0  0  0  0
  186.7360  176.8800  135.6170 C   0  0  0  0  0  2  0  0  0  0  0  0
  187.6200  178.0840  135.9980 C   0  0  1  0  0  3  0  0  0  0  0  0
  185.2480  177.5420  137.5360 C   0  0  0  0  0  2  0  0  0  0  0  0
  185.8850  176.3810  136.7810 C   0  0  1  0  0  3  0  0  0  0  0  0
  187.6570  178.3750  137.4450 N   0  0  0  0  0  0  0  0  0  0  0  0
  187.4110  178.2450  141.4350 C   0  0  0  0  0  0  0  0  0  0  0  0
  184.6750  178.4890  143.7060 C   0  0  0  0  0  3  0  0  0  0  0  0
  187.3950  178.4630  140.1510 N   0  0  0  0  0  0  0  0  0  0  0  0
  183.7860  179.5580  139.5820 C   0  0  0  0  0  1  0  0  0  0  0  0
  184.8690  178.6010  140.0460 C   0  0  1  0  0  3  0  0  0  0  0  0
  185.9660  178.3400  143.4720 O   0  0  0  0  0  0  0  0  0  0  0  0
  186.2270  179.0010  139.4200 C   0  0  2  0  0  3  0  0  0  0  0  0
  188.6090  177.7550  142.0450 N   0  0  0  0  0  2  0  0  0  0  0  0
  186.1570  178.4030  142.1810 C   0  0  0  0  0  0  0  0  0  0  0  0
  184.9770  178.6130  141.5410 C   0  0  0  0  0  0  0  0  0  0  0  0
  183.9870  178.6490  142.5040 C   0  0  0  0  0  3  0  0  0  0  0  0
  188.7250  177.4490  143.4650 C   0  0  0  0  0  2  0  0  0  0  0  0
  190.3550  179.1600  143.8680 O   0  0  0  0  0  1  0  0  0  0  0  0
  190.1170  177.7910  143.9810 C   0  0  2  0  0  3  0  0  0  0  0  0
  191.5330  175.7990  143.7630 C   0  0  0  0  0  2  0  0  0  0  0  0
  191.1800  176.9890  143.2820 C   0  0  0  0  0  0  0  0  0  0  0  0
  191.8590  177.4950  142.0530 C   0  0  0  0  0  1  0  0  0  0  0  0
  188.9090  177.9240  135.4820 O   0  0  0  0  0  0  0  0  0  0  0  0
  188.8090  176.8510  134.5980 C   0  0  0  0  0  1  0  0  0  0  0  0
  188.3160  177.2950  138.1890 C   0  0  0  0  0  2  0  0  0  0  0  0
  189.7460  177.6860  138.5160 C   0  0  0  0  0  2  0  0  0  0  0  0
  190.7360  175.6980  139.3790 O   0  0  0  0  0  0  0  0  0  0  0  0
  190.6310  176.4930  138.4080 C   0  0  0  0  0  0  0  0  0  0  0  0
  191.3620  176.2690  137.2030 N   0  0  0  0  0  2  0  0  0  0  0  0
  192.3340  175.1970  137.0670 C   0  0  0  0  0  2  0  0  0  0  0  0
  193.9500  176.9440  137.1560 O   0  0  0  0  0  1  0  0  0  0  0  0
  193.6420  175.7430  136.5180 C   0  0  0  0  0  2  0  0  0  0  0  0
  184.8240  175.4150  136.2870 C   0  0  0  0  0  2  0  0  0  0  0  0
  182.6060  176.4480  137.8800 C   0  0  0  0  0  1  0  0  0  0  0  0
  181.5490  174.7990  135.7340 C   0  0  0  0  0  1  0  0  0  0  0  0
  182.7350  172.9320  136.6270 O   0  0  0  0  0  0  0  0  0  0  0  0
  182.9050  174.9470  137.8640 C   0  0  1  0  0  3  0  0  0  0  0  0
  181.9920  174.0720  137.0030 C   0  0  1  0  0  0  0  0  0  0  0  0
  184.2960  174.5680  137.4460 C   0  0  1  0  0  3  0  0  0  0  0  0
  184.4610  172.2620  137.9620 F   0  0  0  0  0  0  0  0  0  0  0  0
  184.0910  173.1470  136.9650 C   0  0  1  0  0  3  0  0  0  0  0  0
  180.7640  173.6400  137.7800 C   0  0  0  0  0  0  0  0  0  0  0  0
  179.9560  172.8170  137.2670 O   0  0  0  0  0  0  0  0  0  0  0  0
  180.4950  174.1090  139.0740 O   0  0  0  0  0  0  0  0  0  0  0  0
  179.2510  174.6690  139.4720 C   0  0  1  0  0  3  0  0  0  0  0  0
  179.0850  174.5280  140.9460 C   0  0  0  0  0  0  0  0  0  0  0  0
  179.1050  175.5530  141.6780 O   0  0  0  0  0  1  0  0  0  0  0  0
  178.9350  173.2700  141.5200 O   0  0  0  0  0  0  0  0  0  0  0  0
  178.9310  176.2570  137.5760 C   0  0  0  0  0  1  0  0  0  0  0  0
  179.1960  176.1330  139.0660 C   0  0  0  0  0  2  0  0  0  0  0  0
  1  4  1  1  0  0  0
  1 13  1  0  0  0  0
  2  3  1  0  0  0  0
  2  5  1  0  0  0  0
  3 24  1  1  0  0  0
  3  6  1  0  0  0  0
  5 34  1  6  0  0  0
  5  4  1  0  0  0  0
  6  1  1  0  0  0  0
  6 26  1  0  0  0  0
  7 14  1  0  0  0  0
  7 15  1  0  0  0  0
  9  7  2  0  0  0  0
 11 10  1  1  0  0  0
 11 16  1  0  0  0  0
 12  8  1  0  0  0  0
 13 11  1  0  0  0  0
 13  9  1  1  0  0  0
 14 18  1  0  0  0  0
 15 12  1  0  0  0  0
 16 15  2  0  0  0  0
 16 17  1  0  0  0  0
 17  8  2  0  0  0  0
 18 20  1  0  0  0  0
 20 19  1  6  0  0  0
 22 21  2  0  0  0  0
 22 20  1  0  0  0  0
 23 22  1  0  0  0  0
 25 24  1  0  0  0  0
 26 27  1  0  0  0  0
 29 27  1  0  0  0  0
 29 28  2  0  0  0  0
 30 29  1  0  0  0  0
 31 30  1  0  0  0  0
 33 31  1  0  0  0  0
 33 32  1  0  0  0  0
 37 42  1  0  0  0  0
 37 39  1  0  0  0  0
 38 35  1  6  0  0  0
 39 36  1  6  0  0  0
 39 43  1  0  0  0  0
 39 38  1  0  0  0  0
 40 34  1  6  0  0  0
 40 38  1  0  0  0  0
 42 40  1  0  0  0  0
 42 41  1  1  0  0  0
 43 45  1  0  0  0  0
 44 43  2  0  0  0  0
 45 46  1  0  0  0  0
 46 51  1  1  0  0  0
 46 47  1  0  0  0  0
 47 49  2  0  0  0  0
 47 48  1  0  0  0  0
 50 51  1  0  0  0  0
M  END
>  <MODEL>
6

>  <REMARK>
 VINA RESULT:      -5.4      2.819      7.672
  Name = 
  17 active torsions:
  status: ('A' for Active; 'I' for Inactive)
    1  A    between atoms: C_4  and  C_30
    2  A    between atoms: C_6  and  C_42
    3  A    between atoms: C_10  and  C_20
    4  A    between atoms: C_10  and  O_46
    5  A    between atoms: C_11  and  N_44
    6  A    between atoms: C_11  and  C_48
    7  A    between atoms: C_13  and  O_15
    8  A    between atoms: C_19  and  C_43
    9  A    between atoms: C_19  and  N_45
   10  A    between atoms: C_22  and  C_37
   11  A    between atoms: N_23  and  C_24
   12  A    between atoms: C_24  and  C_41
   13  A    between atoms: C_25  and  C_37
   14  A    between atoms: C_30  and  O_46
   15  A    between atoms: C_30  and  C_50
   16  A    between atoms: C_31  and  C_41
   17  A    between atoms: C_34  and  C_43
                            x       y       z     vdW  Elec       q    Type
                         _______ _______ _______ _____ _____    ______ ____

>  <TORSDO>
F 17

$$$$
=
 OpenBabel11062414593D

 51 54  0  0  1  0  0  0  0  0999 V2000
  190.7140  175.3770  138.3570 C   0  0  2  0  0  3  0  0  0  0  0  0
  192.9710  176.4550  139.8830 C   0  0  0  0  0  2  0  0  0  0  0  0
  193.0950  175.4290  138.7400 C   0  0  1  0  0  3  0  0  0  0  0  0
  190.4770  176.2650  139.5970 C   0  0  0  0  0  2  0  0  0  0  0  0
  191.6450  177.2100  139.8580 C   0  0  1  0  0  3  0  0  0  0  0  0
  192.0360  175.5310  137.7160 N   0  0  0  0  0  0  0  0  0  0  0  0
  187.2580  176.2800  137.4120 C   0  0  0  0  0  0  0  0  0  0  0  0
  185.6960  173.6610  135.5680 C   0  0  0  0  0  3  0  0  0  0  0  0
  188.5060  176.3530  137.7790 N   0  0  0  0  0  0  0  0  0  0  0  0
  189.9710  173.1900  136.2330 C   0  0  0  0  0  1  0  0  0  0  0  0
  189.0070  173.9620  137.1150 C   0  0  1  0  0  3  0  0  0  0  0  0
  185.6660  174.8680  136.1010 O   0  0  0  0  0  0  0  0  0  0  0  0
  189.5480  175.3920  137.3590 C   0  0  2  0  0  3  0  0  0  0  0  0
  186.3400  177.2870  137.8510 N   0  0  0  0  0  2  0  0  0  0  0  0
  186.8270  175.0990  136.6560 C   0  0  0  0  0  0  0  0  0  0  0  0
  187.6530  174.0350  136.4760 C   0  0  0  0  0  0  0  0  0  0  0  0
  186.9390  173.0700  135.7930 C   0  0  0  0  0  3  0  0  0  0  0  0
  184.9210  177.2830  137.5230 C   0  0  0  0  0  2  0  0  0  0  0  0
  184.9770  179.3060  138.8070 O   0  0  0  0  0  1  0  0  0  0  0  0
  184.1550  178.2490  138.4170 C   0  0  2  0  0  3  0  0  0  0  0  0
  182.6410  176.6030  139.4250 C   0  0  0  0  0  2  0  0  0  0  0  0
  183.5590  177.5500  139.6070 C   0  0  0  0  0  0  0  0  0  0  0  0
  183.9690  177.8920  141.0010 C   0  0  0  0  0  1  0  0  0  0  0  0
  194.3650  175.4970  138.1600 O   0  0  0  0  0  0  0  0  0  0  0  0
  194.8790  174.2060  138.2770 C   0  0  0  0  0  1  0  0  0  0  0  0
  192.1320  176.7930  136.9730 C   0  0  0  0  0  2  0  0  0  0  0  0
  192.0780  176.5230  135.4800 C   0  0  0  0  0  2  0  0  0  0  0  0
  193.0950  174.4900  134.7670 O   0  0  0  0  0  0  0  0  0  0  0  0
  193.2520  175.7010  135.0750 C   0  0  0  0  0  0  0  0  0  0  0  0
  194.5490  176.2940  135.0530 N   0  0  0  0  0  2  0  0  0  0  0  0
  195.7550  175.5270  134.7860 C   0  0  0  0  0  2  0  0  0  0  0  0
  197.3460  175.9510  136.5060 O   0  0  0  0  0  1  0  0  0  0  0  0
  196.9820  176.3160  135.2100 C   0  0  0  0  0  2  0  0  0  0  0  0
  191.4420  177.9700  141.1550 C   0  0  0  0  0  2  0  0  0  0  0  0
  191.7460  179.1040  143.8290 C   0  0  0  0  0  1  0  0  0  0  0  0
  188.9210  178.6880  143.2860 C   0  0  0  0  0  1  0  0  0  0  0  0
  189.3410  176.3520  143.0550 O   0  0  0  0  0  0  0  0  0  0  0  0
  191.2110  177.6790  143.6550 C   0  0  1  0  0  3  0  0  0  0  0  0
  189.7020  177.4860  143.8150 C   0  0  1  0  0  0  0  0  0  0  0  0
  191.5420  177.0190  142.3490 C   0  0  1  0  0  3  0  0  0  0  0  0
  190.9220  174.7530  142.6580 F   0  0  0  0  0  0  0  0  0  0  0  0
  190.4410  175.9830  142.2460 C   0  0  1  0  0  3  0  0  0  0  0  0
  189.3340  177.2570  145.2680 C   0  0  0  0  0  0  0  0  0  0  0  0
  190.2460  177.1130  146.1290 O   0  0  0  0  0  0  0  0  0  0  0  0
  188.0020  177.2190  145.7040 O   0  0  0  0  0  0  0  0  0  0  0  0
  187.4510  178.1270  146.6490 C   0  0  1  0  0  3  0  0  0  0  0  0
  186.0670  178.4980  146.2400 C   0  0  0  0  0  0  0  0  0  0  0  0
  185.5890  178.0410  145.1680 O   0  0  0  0  0  0  0  0  0  0  0  0
  185.3100  179.3650  147.0210 O   0  0  0  0  0  1  0  0  0  0  0  0
  188.3850  178.2410  148.9580 C   0  0  0  0  0  1  0  0  0  0  0  0
  187.4480  177.4900  148.0290 C   0  0  0  0  0  2  0  0  0  0  0  0
  1  4  1  1  0  0  0
  3 24  1  6  0  0  0
  3  2  1  0  0  0  0
  4  5  1  0  0  0  0
  5  2  1  0  0  0  0
  5 34  1  1  0  0  0
  6  1  1  0  0  0  0
  6  3  1  0  0  0  0
  7  9  2  0  0  0  0
  7 14  1  0  0  0  0
  8 17  2  0  0  0  0
  8 12  1  0  0  0  0
 11 10  1  6  0  0  0
 11 13  1  0  0  0  0
 12 15  1  0  0  0  0
 13  9  1  1  0  0  0
 13  1  1  0  0  0  0
 15  7  1  0  0  0  0
 16 15  2  0  0  0  0
 16 11  1  0  0  0  0
 17 16  1  0  0  0  0
 18 14  1  0  0  0  0
 18 20  1  0  0  0  0
 20 19  1  1  0  0  0
 20 22  1  0  0  0  0
 21 22  2  0  0  0  0
 22 23  1  0  0  0  0
 24 25  1  0  0  0  0
 26  6  1  0  0  0  0
 27 26  1  0  0  0  0
 28 29  2  0  0  0  0
 29 27  1  0  0  0  0
 30 29  1  0  0  0  0
 31 30  1  0  0  0  0
 31 33  1  0  0  0  0
 33 32  1  0  0  0  0
 37 39  1  0  0  0  0
 38 39  1  0  0  0  0
 38 35  1  6  0  0  0
 39 36  1  6  0  0  0
 39 43  1  0  0  0  0
 40 34  1  6  0  0  0
 40 38  1  0  0  0  0
 42 40  1  0  0  0  0
 42 41  1  1  0  0  0
 42 37  1  0  0  0  0
 43 45  1  0  0  0  0
 43 44  2  0  0  0  0
 45 46  1  0  0  0  0
 46 51  1  1  0  0  0
 47 46  1  0  0  0  0
 47 49  1  0  0  0  0
 48 47  2  0  0  0  0
 51 50  1  0  0  0  0
M  END
>  <MODEL>
7

>  <REMARK>
 VINA RESULT:      -5.3      2.662      7.103
  Name = 
  17 active torsions:
  status: ('A' for Active; 'I' for Inactive)
    1  A    between atoms: C_4  and  C_30
    2  A    between atoms: C_6  and  C_42
    3  A    between atoms: C_10  and  C_20
    4  A    between atoms: C_10  and  O_46
    5  A    between atoms: C_11  and  N_44
    6  A    between atoms: C_11  and  C_48
    7  A    between atoms: C_13  and  O_15
    8  A    between atoms: C_19  and  C_43
    9  A    between atoms: C_19  and  N_45
   10  A    between atoms: C_22  and  C_37
   11  A    between atoms: N_23  and  C_24
   12  A    between atoms: C_24  and  C_41
   13  A    between atoms: C_25  and  C_37
   14  A    between atoms: C_30  and  O_46
   15  A    between atoms: C_30  and  C_50
   16  A    between atoms: C_31  and  C_41
   17  A    between atoms: C_34  and  C_43
                            x       y       z     vdW  Elec       q    Type
                         _______ _______ _______ _____ _____    ______ ____

>  <TORSDO>
F 17

$$$$
=
 OpenBabel11062414593D

 51 54  0  0  1  0  0  0  0  0999 V2000
  187.4130  177.0300  136.0240 C   0  0  2  0  0  3  0  0  0  0  0  0
  184.7810  175.8090  135.6160 C   0  0  0  0  0  2  0  0  0  0  0  0
  186.0900  175.3040  134.9790 C   0  0  1  0  0  3  0  0  0  0  0  0
  186.1350  177.7080  136.5620 C   0  0  0  0  0  2  0  0  0  0  0  0
  185.0200  176.7030  136.8290 C   0  0  1  0  0  3  0  0  0  0  0  0
  187.3000  175.5770  135.7810 N   0  0  0  0  0  0  0  0  0  0  0  0
  190.9730  176.5330  136.8780 C   0  0  0  0  0  0  0  0  0  0  0  0
  191.5610  177.0980  140.3480 C   0  0  0  0  0  3  0  0  0  0  0  0
  189.8730  176.7510  136.2170 N   0  0  0  0  0  0  0  0  0  0  0  0
  187.6250  178.2620  138.9020 C   0  0  0  0  0  1  0  0  0  0  0  0
  188.5150  177.1850  138.3090 C   0  0  1  0  0  3  0  0  0  0  0  0
  192.0020  176.7980  139.1400 O   0  0  0  0  0  0  0  0  0  0  0  0
  188.6850  177.4220  136.7880 C   0  0  2  0  0  3  0  0  0  0  0  0
  192.0750  175.9050  136.2130 N   0  0  0  0  0  2  0  0  0  0  0  0
  190.9910  176.8370  138.3130 C   0  0  0  0  0  0  0  0  0  0  0  0
  189.8570  177.1850  138.9760 C   0  0  0  0  0  0  0  0  0  0  0  0
  190.1880  177.3370  140.3080 C   0  0  0  0  0  3  0  0  0  0  0  0
  193.3380  175.5890  136.8680 C   0  0  0  0  0  2  0  0  0  0  0  0
  192.5910  173.3170  136.7020 O   0  0  0  0  0  1  0  0  0  0  0  0
  193.7200  174.1330  136.6340 C   0  0  2  0  0  3  0  0  0  0  0  0
  195.0720  174.4200  138.6610 C   0  0  0  0  0  2  0  0  0  0  0  0
  194.7840  173.6780  137.5930 C   0  0  0  0  0  0  0  0  0  0  0  0
  195.5360  172.4060  137.3810 C   0  0  0  0  0  1  0  0  0  0  0  0
  185.9880  173.9460  134.6670 O   0  0  0  0  0  0  0  0  0  0  0  0
  184.6490  173.6290  134.8870 C   0  0  0  0  0  1  0  0  0  0  0  0
  187.2880  174.8190  137.0380 C   0  0  0  0  0  2  0  0  0  0  0  0
  188.5630  174.0050  137.1660 C   0  0  0  0  0  2  0  0  0  0  0  0
  189.4250  173.4680  135.0110 O   0  0  0  0  0  0  0  0  0  0  0  0
  188.7090  173.1110  135.9840 C   0  0  0  0  0  0  0  0  0  0  0  0
  188.0240  171.8600  135.9620 N   0  0  0  0  0  2  0  0  0  0  0  0
  188.0220  170.9910  134.7960 C   0  0  0  0  0  2  0  0  0  0  0  0
  185.7760  170.2400  135.0410 O   0  0  0  0  0  1  0  0  0  0  0  0
  187.1000  169.8050  135.0290 C   0  0  0  0  0  2  0  0  0  0  0  0
  183.7400  177.4130  137.2270 C   0  0  0  0  0  2  0  0  0  0  0  0
  184.0140  179.6400  139.0950 C   0  0  0  0  0  1  0  0  0  0  0  0
  181.2680  179.5210  138.1520 C   0  0  0  0  0  1  0  0  0  0  0  0
  181.0700  177.3420  139.1000 O   0  0  0  0  0  0  0  0  0  0  0  0
  183.1410  178.4350  139.4590 C   0  0  1  0  0  3  0  0  0  0  0  0
  181.6280  178.6180  139.3310 C   0  0  1  0  0  0  0  0  0  0  0  0
  183.4370  177.1710  138.7070 C   0  0  1  0  0  3  0  0  0  0  0  0
  182.1990  175.5020  139.8450 F   0  0  0  0  0  0  0  0  0  0  0  0
  182.1190  176.4340  138.8250 C   0  0  1  0  0  3  0  0  0  0  0  0
  181.0420  179.2030  140.6000 C   0  0  0  0  0  0  0  0  0  0  0  0
  180.4280  180.3050  140.5560 O   0  0  0  0  0  0  0  0  0  0  0  0
  181.1370  178.5500  141.8370 O   0  0  0  0  0  0  0  0  0  0  0  0
  181.1260  179.2190  143.0910 C   0  0  1  0  0  3  0  0  0  0  0  0
  179.7780  179.0950  143.7150 C   0  0  0  0  0  0  0  0  0  0  0  0
  178.9840  180.0730  143.6840 O   0  0  0  0  0  0  0  0  0  0  0  0
  179.4020  177.9170  144.3500 O   0  0  0  0  0  1  0  0  0  0  0  0
  183.4780  179.4240  143.8910 C   0  0  0  0  0  1  0  0  0  0  0  0
  182.1920  178.6260  143.9980 C   0  0  0  0  0  2  0  0  0  0  0  0
  1  4  1  1  0  0  0
  1 13  1  0  0  0  0
  2  5  1  0  0  0  0
  3 24  1  1  0  0  0
  3  2  1  0  0  0  0
  3  6  1  0  0  0  0
  4  5  1  0  0  0  0
  5 34  1  6  0  0  0
  6  1  1  0  0  0  0
  6 26  1  0  0  0  0
  7 15  1  0  0  0  0
  9  7  2  0  0  0  0
 11 10  1  1  0  0  0
 11 16  1  0  0  0  0
 12  8  1  0  0  0  0
 13  9  1  6  0  0  0
 13 11  1  0  0  0  0
 14 18  1  0  0  0  0
 14  7  1  0  0  0  0
 15 16  2  0  0  0  0
 15 12  1  0  0  0  0
 16 17  1  0  0  0  0
 17  8  2  0  0  0  0
 20 19  1  1  0  0  0
 20 18  1  0  0  0  0
 20 22  1  0  0  0  0
 22 21  2  0  0  0  0
 23 22  1  0  0  0  0
 24 25  1  0  0  0  0
 26 27  1  0  0  0  0
 28 29  2  0  0  0  0
 29 27  1  0  0  0  0
 30 29  1  0  0  0  0
 31 33  1  0  0  0  0
 31 30  1  0  0  0  0
 33 32  1  0  0  0  0
 37 39  1  0  0  0  0
 38 35  1  6  0  0  0
 39 36  1  6  0  0  0
 39 38  1  0  0  0  0
 39 43  1  0  0  0  0
 40 34  1  6  0  0  0
 40 42  1  0  0  0  0
 40 38  1  0  0  0  0
 42 37  1  0  0  0  0
 42 41  1  1  0  0  0
 43 45  1  0  0  0  0
 44 43  2  0  0  0  0
 45 46  1  0  0  0  0
 46 47  1  0  0  0  0
 46 51  1  1  0  0  0
 47 49  1  0  0  0  0
 48 47  2  0  0  0  0
 50 51  1  0  0  0  0
M  END
>  <MODEL>
8

>  <REMARK>
 VINA RESULT:      -5.2      3.458      5.962
  Name = 
  17 active torsions:
  status: ('A' for Active; 'I' for Inactive)
    1  A    between atoms: C_4  and  C_30
    2  A    between atoms: C_6  and  C_42
    3  A    between atoms: C_10  and  C_20
    4  A    between atoms: C_10  and  O_46
    5  A    between atoms: C_11  and  N_44
    6  A    between atoms: C_11  and  C_48
    7  A    between atoms: C_13  and  O_15
    8  A    between atoms: C_19  and  C_43
    9  A    between atoms: C_19  and  N_45
   10  A    between atoms: C_22  and  C_37
   11  A    between atoms: N_23  and  C_24
   12  A    between atoms: C_24  and  C_41
   13  A    between atoms: C_25  and  C_37
   14  A    between atoms: C_30  and  O_46
   15  A    between atoms: C_30  and  C_50
   16  A    between atoms: C_31  and  C_41
   17  A    between atoms: C_34  and  C_43
                            x       y       z     vdW  Elec       q    Type
                         _______ _______ _______ _____ _____    ______ ____

>  <TORSDO>
F 17

$$$$
=
 OpenBabel11062414593D

 51 54  0  0  1  0  0  0  0  0999 V2000
  184.5300  178.5430  138.7120 C   0  0  2  0  0  3  0  0  0  0  0  0
  183.7850  178.9110  141.5210 C   0  0  0  0  0  2  0  0  0  0  0  0
  182.7840  178.8200  140.3530 C   0  0  1  0  0  3  0  0  0  0  0  0
  185.6060  178.7980  139.7880 C   0  0  0  0  0  2  0  0  0  0  0  0
  185.1560  178.3400  141.1710 C   0  0  1  0  0  3  0  0  0  0  0  0
  183.2510  178.0020  139.2160 N   0  0  0  0  0  0  0  0  0  0  0  0
  184.4820  175.6860  136.3690 C   0  0  0  0  0  0  0  0  0  0  0  0
  187.7840  174.7340  135.4240 C   0  0  0  0  0  3  0  0  0  0  0  0
  184.1290  176.7290  137.0650 N   0  0  0  0  0  0  0  0  0  0  0  0
  187.4720  178.4770  137.6220 C   0  0  0  0  0  1  0  0  0  0  0  0
  186.5090  177.3070  137.7050 C   0  0  1  0  0  3  0  0  0  0  0  0
  186.4750  174.5820  135.3420 O   0  0  0  0  0  0  0  0  0  0  0  0
  185.0600  177.8020  137.4760 C   0  0  2  0  0  3  0  0  0  0  0  0
  183.4890  174.7260  135.9960 N   0  0  0  0  0  2  0  0  0  0  0  0
  185.9100  175.4860  136.0980 C   0  0  0  0  0  0  0  0  0  0  0  0
  186.8570  176.2670  136.6830 C   0  0  0  0  0  0  0  0  0  0  0  0
  188.0890  175.7880  136.2850 C   0  0  0  0  0  3  0  0  0  0  0  0
  183.7820  173.5120  135.2450 C   0  0  0  0  0  2  0  0  0  0  0  0
  184.1020  172.5300  137.4080 O   0  0  0  0  0  1  0  0  0  0  0  0
  183.6200  172.2790  136.1230 C   0  0  2  0  0  3  0  0  0  0  0  0
  183.7870  169.8600  135.7510 C   0  0  0  0  0  2  0  0  0  0  0  0
  184.2810  171.0730  135.5150 C   0  0  0  0  0  0  0  0  0  0  0  0
  185.4880  171.1990  134.6460 C   0  0  0  0  0  1  0  0  0  0  0  0
  181.5390  178.3820  140.8110 O   0  0  0  0  0  0  0  0  0  0  0  0
  181.3430  179.0590  142.0140 C   0  0  0  0  0  1  0  0  0  0  0  0
  183.3740  176.5880  139.5920 C   0  0  0  0  0  2  0  0  0  0  0  0
  182.0160  176.0340  139.9820 C   0  0  0  0  0  2  0  0  0  0  0  0
  181.4120  174.4260  138.3300 O   0  0  0  0  0  0  0  0  0  0  0  0
  181.2800  175.6020  138.7610 C   0  0  0  0  0  0  0  0  0  0  0  0
  180.4400  176.5340  138.0830 N   0  0  0  0  0  2  0  0  0  0  0  0
  179.7860  176.2240  136.8220 C   0  0  0  0  0  2  0  0  0  0  0  0
  180.0690  177.2600  134.6970 O   0  0  0  0  0  1  0  0  0  0  0  0
  179.6160  177.4880  135.9950 C   0  0  0  0  0  2  0  0  0  0  0  0
  186.1770  178.7250  142.2250 C   0  0  0  0  0  2  0  0  0  0  0  0
  188.4910  177.1450  141.4050 C   0  0  0  0  0  1  0  0  0  0  0  0
  189.3440  179.1600  143.3180 C   0  0  0  0  0  1  0  0  0  0  0  0
  187.8970  178.1840  144.9430 O   0  0  0  0  0  0  0  0  0  0  0  0
  187.9880  177.0770  142.8500 C   0  0  1  0  0  3  0  0  0  0  0  0
  188.7850  177.8600  143.8940 C   0  0  1  0  0  0  0  0  0  0  0  0
  186.5640  177.5040  143.0600 C   0  0  1  0  0  3  0  0  0  0  0  0
  186.0740  176.8520  145.2840 F   0  0  0  0  0  0  0  0  0  0  0  0
  186.5790  177.8920  144.5240 C   0  0  1  0  0  3  0  0  0  0  0  0
  189.9290  177.0290  144.4400 C   0  0  0  0  0  0  0  0  0  0  0  0
  190.2940  175.9870  143.8280 O   0  0  0  0  0  0  0  0  0  0  0  0
  190.6220  177.3860  145.6060 O   0  0  0  0  0  0  0  0  0  0  0  0
  190.4280  176.7610  146.8670 C   0  0  1  0  0  3  0  0  0  0  0  0
  191.7450  176.3510  147.4330 C   0  0  0  0  0  0  0  0  0  0  0  0
  192.2620  177.0270  148.3620 O   0  0  0  0  0  1  0  0  0  0  0  0
  192.4160  175.2450  146.9250 O   0  0  0  0  0  0  0  0  0  0  0  0
  188.3100  177.2250  148.0970 C   0  0  0  0  0  1  0  0  0  0  0  0
  189.7160  177.7180  147.8090 C   0  0  0  0  0  2  0  0  0  0  0  0
  1  6  1  0  0  0  0
  1  4  1  1  0  0  0
  3 24  1  1  0  0  0
  3  2  1  0  0  0  0
  4  5  1  0  0  0  0
  5  2  1  0  0  0  0
  5 34  1  1  0  0  0
  6 26  1  0  0  0  0
  6  3  1  0  0  0  0
  7  9  2  0  0  0  0
  8 17  2  0  0  0  0
 11 10  1  6  0  0  0
 12  8  1  0  0  0  0
 12 15  1  0  0  0  0
 13  9  1  1  0  0  0
 13 11  1  0  0  0  0
 13  1  1  0  0  0  0
 14  7  1  0  0  0  0
 15  7  1  0  0  0  0
 15 16  2  0  0  0  0
 16 11  1  0  0  0  0
 17 16  1  0  0  0  0
 18 14  1  0  0  0  0
 18 20  1  0  0  0  0
 20 19  1  1  0  0  0
 22 21  2  0  0  0  0
 22 20  1  0  0  0  0
 23 22  1  0  0  0  0
 24 25  1  0  0  0  0
 26 27  1  0  0  0  0
 28 29  2  0  0  0  0
 29 27  1  0  0  0  0
 30 29  1  0  0  0  0
 31 30  1  0  0  0  0
 32 33  1  0  0  0  0
 33 31  1  0  0  0  0
 38 35  1  6  0  0  0
 38 40  1  0  0  0  0
 38 39  1  0  0  0  0
 39 36  1  6  0  0  0
 39 43  1  0  0  0  0
 39 37  1  0  0  0  0
 40 34  1  6  0  0  0
 40 42  1  0  0  0  0
 42 37  1  0  0  0  0
 42 41  1  1  0  0  0
 43 45  1  0  0  0  0
 44 43  2  0  0  0  0
 45 46  1  0  0  0  0
 46 47  1  0  0  0  0
 46 51  1  1  0  0  0
 47 48  1  0  0  0  0
 49 47  2  0  0  0  0
 51 50  1  0  0  0  0
M  END
>  <MODEL>
9

>  <REMARK>
 VINA RESULT:      -5.1      2.349      5.433
  Name = 
  17 active torsions:
  status: ('A' for Active; 'I' for Inactive)
    1  A    between atoms: C_4  and  C_30
    2  A    between atoms: C_6  and  C_42
    3  A    between atoms: C_10  and  C_20
    4  A    between atoms: C_10  and  O_46
    5  A    between atoms: C_11  and  N_44
    6  A    between atoms: C_11  and  C_48
    7  A    between atoms: C_13  and  O_15
    8  A    between atoms: C_19  and  C_43
    9  A    between atoms: C_19  and  N_45
   10  A    between atoms: C_22  and  C_37
   11  A    between atoms: N_23  and  C_24
   12  A    between atoms: C_24  and  C_41
   13  A    between atoms: C_25  and  C_37
   14  A    between atoms: C_30  and  O_46
   15  A    between atoms: C_30  and  C_50
   16  A    between atoms: C_31  and  C_41
   17  A    between atoms: C_34  and  C_43
                            x       y       z     vdW  Elec       q    Type
                         _______ _______ _______ _____ _____    ______ ____

>  <TORSDO>
F 17

$$$$
