=
 OpenBabel11062416473D

 28 32  0  0  0  0  0  0  0  0999 V2000
  188.4520  177.3290  144.0110 C   0  0  0  0  0  0  0  0  0  0  0  0
  190.6820  176.6320  144.7020 C   0  0  0  0  0  0  0  0  0  0  0  0
  186.8310  178.0110  145.7170 C   0  0  0  0  0  0  0  0  0  0  0  0
  186.1980  178.0300  143.3670 C   0  0  0  0  0  3  0  0  0  0  0  0
  189.9610  176.1360  142.4080 C   0  0  0  0  0  2  0  0  0  0  0  0
  187.7910  177.7950  146.7130 C   0  0  0  0  0  3  0  0  0  0  0  0
  190.9930  176.3280  143.3750 O   0  0  0  0  0  0  0  0  0  0  0  0
  184.6000  178.6970  145.0580 C   0  0  0  0  0  3  0  0  0  0  0  0
  187.1640  177.7880  144.3550 C   0  0  0  0  0  0  0  0  0  0  0  0
  190.0290  177.1620  147.3770 C   0  0  0  0  0  3  0  0  0  0  0  0
  185.5470  178.4660  146.0580 C   0  0  0  0  0  0  0  0  0  0  0  0
  191.3150  176.7280  147.0400 C   0  0  0  0  0  0  0  0  0  0  0  0
  189.0680  177.3490  146.3790 C   0  0  0  0  0  0  0  0  0  0  0  0
  191.6410  176.4610  145.7050 C   0  0  0  0  0  3  0  0  0  0  0  0
  184.9240  178.4860  143.7150 C   0  0  0  0  0  0  0  0  0  0  0  0
  189.3980  177.1020  145.0290 C   0  0  0  0  0  0  0  0  0  0  0  0
  188.8710  177.1930  142.5660 C   0  0  0  0  0  2  0  0  0  0  0  0
  192.2690  176.5550  148.0320 O   0  0  0  0  0  1  0  0  0  0  0  0
  185.2000  178.6920  147.3870 O   0  0  0  0  0  1  0  0  0  0  0  0
  183.9020  178.7230  142.6580 C   0  0  0  0  0  2  0  0  0  0  0  0
  184.3040  178.0160  141.3780 C   0  0  0  0  0  2  0  0  0  0  0  0
  184.7230  179.0410  140.3460 C   0  0  0  0  0  2  0  0  0  0  0  0
  184.7880  178.3850  138.9800 C   0  0  0  0  0  2  0  0  0  0  0  0
  186.6010  178.1230  137.2870 C   0  0  0  0  0  3  0  0  0  0  0  0
  187.9770  178.0110  137.3410 C   0  0  0  0  0  3  0  0  0  0  0  0
  188.3760  178.0840  138.6290 N   0  0  0  0  0  0  0  0  0  0  0  0
  186.1710  178.2710  138.5500 N   0  0  0  0  0  0  0  0  0  0  0  0
  187.2480  178.2390  139.3480 C   0  0  0  0  0  3  0  0  0  0  0  0
  1  9  2  0  0  0  0
  1 16  1  0  0  0  0
  2 16  2  0  0  0  0
  2 14  1  0  0  0  0
  3 11  1  0  0  0  0
  3  6  2  0  0  0  0
  4 15  2  0  0  0  0
  4  9  1  0  0  0  0
  5 17  1  0  0  0  0
  5  7  1  0  0  0  0
  7  2  1  0  0  0  0
  8 11  2  0  0  0  0
  9  3  1  0  0  0  0
 11 19  1  0  0  0  0
 12 10  1  0  0  0  0
 12 18  1  0  0  0  0
 13  6  1  0  0  0  0
 13 10  2  0  0  0  0
 14 12  2  0  0  0  0
 15  8  1  0  0  0  0
 16 13  1  0  0  0  0
 17  1  1  0  0  0  0
 20 15  1  0  0  0  0
 21 20  1  0  0  0  0
 22 21  1  0  0  0  0
 23 22  1  0  0  0  0
 24 25  2  0  0  0  0
 24 27  1  0  0  0  0
 25 26  1  0  0  0  0
 26 28  2  0  0  0  0
 27 23  1  0  0  0  0
 27 28  1  0  0  0  0
M  END
>  <MODEL>
1

>  <REMARK>
 VINA RESULT:     -10.5      0.000      0.000
  Name = 
  5 active torsions:
  status: ('A' for Active; 'I' for Inactive)
    1  A    between atoms: C_3  and  C_4
    2  A    between atoms: C_3  and  C_23
    3  A    between atoms: C_4  and  N_22
    4  A    between atoms: C_11  and  C_21
    5  A    between atoms: C_11  and  C_23
                            x       y       z     vdW  Elec       q    Type
                         _______ _______ _______ _____ _____    ______ ____

>  <TORSDO>
F 5

$$$$
=
 OpenBabel11062416473D

 28 32  0  0  0  0  0  0  0  0999 V2000
  188.4400  177.3020  144.0840 C   0  0  0  0  0  0  0  0  0  0  0  0
  190.6820  176.5920  144.7220 C   0  0  0  0  0  0  0  0  0  0  0  0
  186.8620  177.9870  145.8290 C   0  0  0  0  0  0  0  0  0  0  0  0
  186.1750  178.0150  143.4940 C   0  0  0  0  0  3  0  0  0  0  0  0
  189.9070  176.1060  142.4430 C   0  0  0  0  0  2  0  0  0  0  0  0
  187.8440  177.7630  146.8020 C   0  0  0  0  0  3  0  0  0  0  0  0
  190.9610  176.2910  143.3870 O   0  0  0  0  0  0  0  0  0  0  0  0
  184.6200  178.6850  145.2230 C   0  0  0  0  0  3  0  0  0  0  0  0
  187.1620  177.7660  144.4590 C   0  0  0  0  0  0  0  0  0  0  0  0
  190.0940  177.1180  147.4120 C   0  0  0  0  0  3  0  0  0  0  0  0
  185.5880  178.4460  146.2010 C   0  0  0  0  0  0  0  0  0  0  0  0
  191.3690  176.6790  147.0450 C   0  0  0  0  0  0  0  0  0  0  0  0
  189.1110  177.3120  146.4370 C   0  0  0  0  0  0  0  0  0  0  0  0
  191.6630  176.4150  145.7020 C   0  0  0  0  0  3  0  0  0  0  0  0
  184.9120  178.4760  143.8730 C   0  0  0  0  0  0  0  0  0  0  0  0
  189.4080  177.0670  145.0800 C   0  0  0  0  0  0  0  0  0  0  0  0
  188.8250  177.1690  142.6290 C   0  0  0  0  0  2  0  0  0  0  0  0
  192.3450  176.4990  148.0140 O   0  0  0  0  0  1  0  0  0  0  0  0
  185.2730  178.6700  147.5380 O   0  0  0  0  0  1  0  0  0  0  0  0
  183.8670  178.7210  142.8400 C   0  0  0  0  0  2  0  0  0  0  0  0
  184.3540  178.2460  141.4840 C   0  0  0  0  0  2  0  0  0  0  0  0
  183.3750  178.6830  140.4160 C   0  0  0  0  0  2  0  0  0  0  0  0
  181.9890  178.1770  140.7630 C   0  0  0  0  0  2  0  0  0  0  0  0
  180.6930  180.0970  139.8390 C   0  0  0  0  0  3  0  0  0  0  0  0
  179.8360  181.0410  140.3700 C   0  0  0  0  0  3  0  0  0  0  0  0
  179.6910  180.8120  141.6930 N   0  0  0  0  0  0  0  0  0  0  0  0
  181.0600  179.2910  140.8470 N   0  0  0  0  0  0  0  0  0  0  0  0
  180.4560  179.7360  141.9580 C   0  0  0  0  0  3  0  0  0  0  0  0
  1  9  2  0  0  0  0
  1 16  1  0  0  0  0
  2 16  2  0  0  0  0
  2 14  1  0  0  0  0
  3 11  1  0  0  0  0
  3  6  2  0  0  0  0
  4 15  2  0  0  0  0
  4  9  1  0  0  0  0
  5 17  1  0  0  0  0
  5  7  1  0  0  0  0
  7  2  1  0  0  0  0
  8 11  2  0  0  0  0
  9  3  1  0  0  0  0
 11 19  1  0  0  0  0
 12 10  1  0  0  0  0
 12 18  1  0  0  0  0
 13  6  1  0  0  0  0
 13 10  2  0  0  0  0
 14 12  2  0  0  0  0
 15  8  1  0  0  0  0
 16 13  1  0  0  0  0
 17  1  1  0  0  0  0
 20 15  1  0  0  0  0
 21 20  1  0  0  0  0
 22 23  1  0  0  0  0
 22 21  1  0  0  0  0
 23 27  1  0  0  0  0
 24 25  2  0  0  0  0
 24 27  1  0  0  0  0
 25 26  1  0  0  0  0
 26 28  2  0  0  0  0
 27 28  1  0  0  0  0
M  END
>  <MODEL>
2

>  <REMARK>
 VINA RESULT:     -10.4      2.402      3.397
  Name = 
  5 active torsions:
  status: ('A' for Active; 'I' for Inactive)
    1  A    between atoms: C_3  and  C_4
    2  A    between atoms: C_3  and  C_23
    3  A    between atoms: C_4  and  N_22
    4  A    between atoms: C_11  and  C_21
    5  A    between atoms: C_11  and  C_23
                            x       y       z     vdW  Elec       q    Type
                         _______ _______ _______ _____ _____    ______ ____

>  <TORSDO>
F 5

$$$$
=
 OpenBabel11062416473D

 28 32  0  0  0  0  0  0  0  0999 V2000
  188.4230  177.3180  144.0830 C   0  0  0  0  0  0  0  0  0  0  0  0
  190.6550  176.6190  144.7650 C   0  0  0  0  0  0  0  0  0  0  0  0
  186.8150  178.0180  145.7940 C   0  0  0  0  0  0  0  0  0  0  0  0
  186.1670  178.0200  143.4480 C   0  0  0  0  0  3  0  0  0  0  0  0
  189.9180  176.1070  142.4790 C   0  0  0  0  0  2  0  0  0  0  0  0
  187.7800  177.8060  146.7860 C   0  0  0  0  0  3  0  0  0  0  0  0
  190.9570  176.3040  143.4380 O   0  0  0  0  0  0  0  0  0  0  0  0
  184.5820  178.7060  145.1440 C   0  0  0  0  0  3  0  0  0  0  0  0
  187.1380  177.7830  144.4320 C   0  0  0  0  0  0  0  0  0  0  0  0
  190.0210  177.1710  147.4390 C   0  0  0  0  0  3  0  0  0  0  0  0
  185.5340  178.4790  146.1400 C   0  0  0  0  0  0  0  0  0  0  0  0
  191.3040  176.7300  147.0980 C   0  0  0  0  0  0  0  0  0  0  0  0
  189.0550  177.3540  146.4460 C   0  0  0  0  0  0  0  0  0  0  0  0
  191.6200  176.4530  145.7630 C   0  0  0  0  0  3  0  0  0  0  0  0
  184.8960  178.4840  143.8010 C   0  0  0  0  0  0  0  0  0  0  0  0
  189.3750  177.0950  145.0970 C   0  0  0  0  0  0  0  0  0  0  0  0
  188.8320  177.1700  142.6360 C   0  0  0  0  0  2  0  0  0  0  0  0
  192.2630  176.5620  148.0850 O   0  0  0  0  0  1  0  0  0  0  0  0
  185.1970  178.7160  147.4690 O   0  0  0  0  0  1  0  0  0  0  0  0
  183.8690  178.7150  142.7490 C   0  0  0  0  0  2  0  0  0  0  0  0
  184.3940  178.2630  141.3990 C   0  0  0  0  0  2  0  0  0  0  0  0
  183.2470  177.7410  140.5620 C   0  0  0  0  0  2  0  0  0  0  0  0
  182.0890  178.7170  140.6260 C   0  0  0  0  0  2  0  0  0  0  0  0
  180.2320  177.2940  139.7610 C   0  0  0  0  0  3  0  0  0  0  0  0
  179.0490  176.8100  140.2860 C   0  0  0  0  0  3  0  0  0  0  0  0
  178.9340  177.2170  141.5680 N   0  0  0  0  0  0  0  0  0  0  0  0
  180.8350  177.9920  140.7360 N   0  0  0  0  0  0  0  0  0  0  0  0
  180.0400  177.9440  141.8150 C   0  0  0  0  0  3  0  0  0  0  0  0
  1  9  2  0  0  0  0
  1 16  1  0  0  0  0
  2 16  2  0  0  0  0
  2 14  1  0  0  0  0
  3 11  1  0  0  0  0
  3  6  2  0  0  0  0
  4 15  2  0  0  0  0
  4  9  1  0  0  0  0
  5 17  1  0  0  0  0
  5  7  1  0  0  0  0
  7  2  1  0  0  0  0
  8 11  2  0  0  0  0
  9  3  1  0  0  0  0
 11 19  1  0  0  0  0
 12 10  1  0  0  0  0
 12 18  1  0  0  0  0
 13  6  1  0  0  0  0
 13 10  2  0  0  0  0
 14 12  2  0  0  0  0
 15  8  1  0  0  0  0
 16 13  1  0  0  0  0
 17  1  1  0  0  0  0
 20 15  1  0  0  0  0
 21 20  1  0  0  0  0
 22 23  1  0  0  0  0
 22 21  1  0  0  0  0
 23 27  1  0  0  0  0
 24 25  2  0  0  0  0
 24 27  1  0  0  0  0
 25 26  1  0  0  0  0
 26 28  2  0  0  0  0
 27 28  1  0  0  0  0
M  END
>  <MODEL>
3

>  <REMARK>
 VINA RESULT:     -10.3      2.465      3.492
  Name = 
  5 active torsions:
  status: ('A' for Active; 'I' for Inactive)
    1  A    between atoms: C_3  and  C_4
    2  A    between atoms: C_3  and  C_23
    3  A    between atoms: C_4  and  N_22
    4  A    between atoms: C_11  and  C_21
    5  A    between atoms: C_11  and  C_23
                            x       y       z     vdW  Elec       q    Type
                         _______ _______ _______ _____ _____    ______ ____

>  <TORSDO>
F 5

$$$$
=
 OpenBabel11062416473D

 28 32  0  0  0  0  0  0  0  0999 V2000
  188.4620  177.3080  144.0790 C   0  0  0  0  0  0  0  0  0  0  0  0
  190.6960  176.6230  144.7710 C   0  0  0  0  0  0  0  0  0  0  0  0
  186.8450  178.0030  145.7820 C   0  0  0  0  0  0  0  0  0  0  0  0
  186.2050  177.9970  143.4340 C   0  0  0  0  0  3  0  0  0  0  0  0
  189.9710  176.1020  142.4830 C   0  0  0  0  0  2  0  0  0  0  0  0
  187.8070  177.7980  146.7780 C   0  0  0  0  0  3  0  0  0  0  0  0
  191.0040  176.3070  143.4460 O   0  0  0  0  0  0  0  0  0  0  0  0
  184.6100  178.6770  145.1220 C   0  0  0  0  0  3  0  0  0  0  0  0
  187.1740  177.7670  144.4220 C   0  0  0  0  0  0  0  0  0  0  0  0
  190.0490  177.1770  147.4420 C   0  0  0  0  0  3  0  0  0  0  0  0
  185.5600  178.4580  146.1230 C   0  0  0  0  0  0  0  0  0  0  0  0
  191.3350  176.7430  147.1060 C   0  0  0  0  0  0  0  0  0  0  0  0
  189.0850  177.3520  146.4450 C   0  0  0  0  0  0  0  0  0  0  0  0
  191.6580  176.4640  145.7730 C   0  0  0  0  0  3  0  0  0  0  0  0
  184.9310  178.4540  143.7810 C   0  0  0  0  0  0  0  0  0  0  0  0
  189.4120  177.0920  145.0970 C   0  0  0  0  0  0  0  0  0  0  0  0
  188.8780  177.1590  142.6340 C   0  0  0  0  0  2  0  0  0  0  0  0
  192.2910  176.5820  148.0970 O   0  0  0  0  0  1  0  0  0  0  0  0
  185.2160  178.6960  147.4500 O   0  0  0  0  0  1  0  0  0  0  0  0
  183.9060  178.6780  142.7240 C   0  0  0  0  0  2  0  0  0  0  0  0
  182.5280  178.7860  143.3480 C   0  0  0  0  0  2  0  0  0  0  0  0
  181.5040  179.0510  142.2670 C   0  0  0  0  0  2  0  0  0  0  0  0
  182.0590  178.6100  140.9260 C   0  0  0  0  0  2  0  0  0  0  0  0
  180.5820  180.3530  139.9260 C   0  0  0  0  0  3  0  0  0  0  0  0
  180.5480  181.0270  138.7210 C   0  0  0  0  0  3  0  0  0  0  0  0
  181.5850  180.6220  137.9570 N   0  0  0  0  0  0  0  0  0  0  0  0
  181.6510  179.5420  139.8890 N   0  0  0  0  0  0  0  0  0  0  0  0
  182.2410  179.7080  138.6970 C   0  0  0  0  0  3  0  0  0  0  0  0
  1  9  2  0  0  0  0
  1 16  1  0  0  0  0
  2 16  2  0  0  0  0
  2 14  1  0  0  0  0
  3 11  1  0  0  0  0
  3  6  2  0  0  0  0
  4 15  2  0  0  0  0
  4  9  1  0  0  0  0
  5 17  1  0  0  0  0
  5  7  1  0  0  0  0
  7  2  1  0  0  0  0
  8 11  2  0  0  0  0
  9  3  1  0  0  0  0
 11 19  1  0  0  0  0
 12 10  1  0  0  0  0
 12 18  1  0  0  0  0
 13  6  1  0  0  0  0
 13 10  2  0  0  0  0
 14 12  2  0  0  0  0
 15  8  1  0  0  0  0
 16 13  1  0  0  0  0
 17  1  1  0  0  0  0
 20 21  1  0  0  0  0
 20 15  1  0  0  0  0
 22 21  1  0  0  0  0
 23 22  1  0  0  0  0
 25 24  2  0  0  0  0
 26 28  2  0  0  0  0
 26 25  1  0  0  0  0
 27 24  1  0  0  0  0
 27 23  1  0  0  0  0
 28 27  1  0  0  0  0
M  END
>  <MODEL>
4

>  <REMARK>
 VINA RESULT:     -10.2      2.374      2.999
  Name = 
  5 active torsions:
  status: ('A' for Active; 'I' for Inactive)
    1  A    between atoms: C_3  and  C_4
    2  A    between atoms: C_3  and  C_23
    3  A    between atoms: C_4  and  N_22
    4  A    between atoms: C_11  and  C_21
    5  A    between atoms: C_11  and  C_23
                            x       y       z     vdW  Elec       q    Type
                         _______ _______ _______ _____ _____    ______ ____

>  <TORSDO>
F 5

$$$$
=
 OpenBabel11062416473D

 28 32  0  0  0  0  0  0  0  0999 V2000
  187.9400  177.6140  144.6750 C   0  0  0  0  0  0  0  0  0  0  0  0
  189.0670  177.0920  146.7720 C   0  0  0  0  0  0  0  0  0  0  0  0
  189.2350  177.6290  142.5950 C   0  0  0  0  0  0  0  0  0  0  0  0
  186.8550  178.1400  142.5460 C   0  0  0  0  0  3  0  0  0  0  0  0
  186.8240  178.0880  146.8670 C   0  0  0  0  0  2  0  0  0  0  0  0
  190.3840  177.2660  143.3090 C   0  0  0  0  0  3  0  0  0  0  0  0
  187.8790  177.3350  147.4650 O   0  0  0  0  0  0  0  0  0  0  0  0
  188.1410  178.1590  140.4960 C   0  0  0  0  0  3  0  0  0  0  0  0
  188.0020  177.7950  143.2780 C   0  0  0  0  0  0  0  0  0  0  0  0
  191.4720  176.6860  145.3900 C   0  0  0  0  0  3  0  0  0  0  0  0
  189.2950  177.8130  141.2040 C   0  0  0  0  0  0  0  0  0  0  0  0
  191.4130  176.4840  146.7720 C   0  0  0  0  0  0  0  0  0  0  0  0
  190.3270  177.0770  144.6890 C   0  0  0  0  0  0  0  0  0  0  0  0
  190.2130  176.6880  147.4620 C   0  0  0  0  0  3  0  0  0  0  0  0
  186.9230  178.3160  141.1610 C   0  0  0  0  0  0  0  0  0  0  0  0
  189.1100  177.2640  145.3770 C   0  0  0  0  0  0  0  0  0  0  0  0
  186.6220  177.6700  145.4120 C   0  0  0  0  0  2  0  0  0  0  0  0
  192.5480  176.0850  147.4620 O   0  0  0  0  0  1  0  0  0  0  0  0
  190.4930  177.6550  140.5150 O   0  0  0  0  0  1  0  0  0  0  0  0
  185.7030  178.6970  140.3980 C   0  0  0  0  0  2  0  0  0  0  0  0
  184.5760  179.0380  141.3540 C   0  0  0  0  0  2  0  0  0  0  0  0
  183.4310  178.0700  141.1480 C   0  0  0  0  0  2  0  0  0  0  0  0
  182.1530  178.8450  140.8970 C   0  0  0  0  0  2  0  0  0  0  0  0
  181.4120  179.0260  143.2720 C   0  0  0  0  0  3  0  0  0  0  0  0
  180.3090  178.5980  143.9840 C   0  0  0  0  0  3  0  0  0  0  0  0
  179.4640  177.9560  143.1490 N   0  0  0  0  0  0  0  0  0  0  0  0
  181.2270  178.6450  141.9980 N   0  0  0  0  0  0  0  0  0  0  0  0
  180.0550  177.9960  141.9400 C   0  0  0  0  0  3  0  0  0  0  0  0
  1 16  1  0  0  0  0
  1 17  1  0  0  0  0
  2 14  1  0  0  0  0
  2  7  1  0  0  0  0
  3  9  1  0  0  0  0
  3  6  2  0  0  0  0
  4  9  1  0  0  0  0
  5  7  1  0  0  0  0
  6 13  1  0  0  0  0
  8 15  1  0  0  0  0
  8 11  2  0  0  0  0
  9  1  2  0  0  0  0
 10 12  1  0  0  0  0
 11  3  1  0  0  0  0
 12 18  1  0  0  0  0
 12 14  2  0  0  0  0
 13 16  1  0  0  0  0
 13 10  2  0  0  0  0
 15  4  2  0  0  0  0
 16  2  2  0  0  0  0
 17  5  1  0  0  0  0
 19 11  1  0  0  0  0
 20 15  1  0  0  0  0
 20 21  1  0  0  0  0
 22 21  1  0  0  0  0
 23 22  1  0  0  0  0
 23 27  1  0  0  0  0
 24 25  2  0  0  0  0
 26 25  1  0  0  0  0
 27 24  1  0  0  0  0
 28 27  1  0  0  0  0
 28 26  2  0  0  0  0
M  END
>  <MODEL>
5

>  <REMARK>
 VINA RESULT:      -9.4      2.565      4.929
  Name = 
  5 active torsions:
  status: ('A' for Active; 'I' for Inactive)
    1  A    between atoms: C_3  and  C_4
    2  A    between atoms: C_3  and  C_23
    3  A    between atoms: C_4  and  N_22
    4  A    between atoms: C_11  and  C_21
    5  A    between atoms: C_11  and  C_23
                            x       y       z     vdW  Elec       q    Type
                         _______ _______ _______ _____ _____    ______ ____

>  <TORSDO>
F 5

$$$$
=
 OpenBabel11062416473D

 28 32  0  0  0  0  0  0  0  0999 V2000
  186.6790  178.0320  143.4810 C   0  0  0  0  0  0  0  0  0  0  0  0
  184.5020  178.5770  142.5300 C   0  0  0  0  0  0  0  0  0  0  0  0
  186.9310  177.9500  145.9160 C   0  0  0  0  0  0  0  0  0  0  0  0
  188.8460  177.4980  144.4820 C   0  0  0  0  0  3  0  0  0  0  0  0
  186.4690  178.6450  141.0610 C   0  0  0  0  0  2  0  0  0  0  0  0
  185.5740  178.2570  146.0660 C   0  0  0  0  0  3  0  0  0  0  0  0
  185.0580  178.5400  141.2490 O   0  0  0  0  0  0  0  0  0  0  0  0
  189.0900  177.4240  146.8890 C   0  0  0  0  0  3  0  0  0  0  0  0
  187.4890  177.8260  144.6170 C   0  0  0  0  0  0  0  0  0  0  0  0
  183.4050  178.7310  145.1050 C   0  0  0  0  0  3  0  0  0  0  0  0
  187.7400  177.7470  147.0470 C   0  0  0  0  0  0  0  0  0  0  0  0
  182.5920  178.9160  143.9830 C   0  0  0  0  0  0  0  0  0  0  0  0
  184.7660  178.4530  144.9470 C   0  0  0  0  0  0  0  0  0  0  0  0
  183.1400  178.8400  142.6970 C   0  0  0  0  0  3  0  0  0  0  0  0
  189.6420  177.2930  145.6130 C   0  0  0  0  0  0  0  0  0  0  0  0
  185.3190  178.3560  143.6530 C   0  0  0  0  0  0  0  0  0  0  0  0
  187.2140  177.7940  142.0880 C   0  0  0  0  0  2  0  0  0  0  0  0
  181.2400  179.1790  144.1440 O   0  0  0  0  0  1  0  0  0  0  0  0
  187.2150  177.8630  148.3300 O   0  0  0  0  0  1  0  0  0  0  0  0
  191.0850  176.9610  145.4570 C   0  0  0  0  0  2  0  0  0  0  0  0
  191.7170  177.8590  144.4100 C   0  0  0  0  0  2  0  0  0  0  0  0
  191.7950  177.1190  143.0930 C   0  0  0  0  0  2  0  0  0  0  0  0
  191.0840  177.9210  142.0200 C   0  0  0  0  0  2  0  0  0  0  0  0
  190.5080  176.6800  139.9350 C   0  0  0  0  0  3  0  0  0  0  0  0
  191.2050  176.2930  138.8070 C   0  0  0  0  0  3  0  0  0  0  0  0
  192.4790  176.7290  138.9020 N   0  0  0  0  0  0  0  0  0  0  0  0
  191.3670  177.3590  140.7110 N   0  0  0  0  0  0  0  0  0  0  0  0
  192.5510  177.3750  140.0810 C   0  0  0  0  0  3  0  0  0  0  0  0
  1 16  2  0  0  0  0
  1  9  1  0  0  0  0
  2 14  2  0  0  0  0
  2 16  1  0  0  0  0
  3  6  1  0  0  0  0
  3 11  1  0  0  0  0
  4  9  1  0  0  0  0
  4 15  2  0  0  0  0
  5  7  1  0  0  0  0
  5 17  1  0  0  0  0
  7  2  1  0  0  0  0
  8 11  2  0  0  0  0
  9  3  2  0  0  0  0
 11 19  1  0  0  0  0
 12 18  1  0  0  0  0
 12 10  2  0  0  0  0
 13 10  1  0  0  0  0
 13  6  2  0  0  0  0
 14 12  1  0  0  0  0
 15  8  1  0  0  0  0
 16 13  1  0  0  0  0
 17  1  1  0  0  0  0
 20 15  1  0  0  0  0
 21 20  1  0  0  0  0
 22 21  1  0  0  0  0
 23 22  1  0  0  0  0
 24 27  1  0  0  0  0
 25 26  1  0  0  0  0
 25 24  2  0  0  0  0
 26 28  2  0  0  0  0
 27 23  1  0  0  0  0
 28 27  1  0  0  0  0
M  END
>  <MODEL>
6

>  <REMARK>
 VINA RESULT:      -9.4      2.548      5.884
  Name = 
  5 active torsions:
  status: ('A' for Active; 'I' for Inactive)
    1  A    between atoms: C_3  and  C_4
    2  A    between atoms: C_3  and  C_23
    3  A    between atoms: C_4  and  N_22
    4  A    between atoms: C_11  and  C_21
    5  A    between atoms: C_11  and  C_23
                            x       y       z     vdW  Elec       q    Type
                         _______ _______ _______ _____ _____    ______ ____

>  <TORSDO>
F 5

$$$$
=
 OpenBabel11062416473D

 28 32  0  0  0  0  0  0  0  0999 V2000
  187.1440  177.7990  143.7770 C   0  0  0  0  0  0  0  0  0  0  0  0
  188.7940  177.3900  145.5230 C   0  0  0  0  0  0  0  0  0  0  0  0
  184.9120  178.5920  144.4050 C   0  0  0  0  0  0  0  0  0  0  0  0
  185.4510  178.2170  142.0610 C   0  0  0  0  0  3  0  0  0  0  0  0
  189.2310  176.5090  143.2730 C   0  0  0  0  0  2  0  0  0  0  0  0
  185.2950  178.6000  145.7520 C   0  0  0  0  0  3  0  0  0  0  0  0
  189.6900  176.9220  144.5600 O   0  0  0  0  0  0  0  0  0  0  0  0
  183.2460  178.9950  142.6890 C   0  0  0  0  0  3  0  0  0  0  0  0
  185.8430  178.2000  143.4080 C   0  0  0  0  0  0  0  0  0  0  0  0
  186.9650  178.2500  147.4660 C   0  0  0  0  0  3  0  0  0  0  0  0
  183.6160  178.9880  144.0360 C   0  0  0  0  0  0  0  0  0  0  0  0
  188.2600  177.8750  147.8370 C   0  0  0  0  0  0  0  0  0  0  0  0
  186.5820  178.2130  146.1230 C   0  0  0  0  0  0  0  0  0  0  0  0
  189.1730  177.4440  146.8680 C   0  0  0  0  0  3  0  0  0  0  0  0
  184.1610  178.6170  141.7020 C   0  0  0  0  0  0  0  0  0  0  0  0
  187.5050  177.7990  145.1390 C   0  0  0  0  0  0  0  0  0  0  0  0
  188.1900  177.4880  142.7330 C   0  0  0  0  0  2  0  0  0  0  0  0
  188.6400  177.9250  149.1700 O   0  0  0  0  0  1  0  0  0  0  0  0
  182.6880  179.3770  144.9970 O   0  0  0  0  0  1  0  0  0  0  0  0
  183.7520  178.6150  140.2710 C   0  0  0  0  0  2  0  0  0  0  0  0
  184.9720  178.7430  139.3790 C   0  0  0  0  0  2  0  0  0  0  0  0
  184.6620  178.1680  138.0150 C   0  0  0  0  0  2  0  0  0  0  0  0
  185.7780  177.2300  137.5970 C   0  0  0  0  0  2  0  0  0  0  0  0
  187.9490  177.7780  138.6960 C   0  0  0  0  0  3  0  0  0  0  0  0
  188.9970  178.6320  138.4120 C   0  0  0  0  0  3  0  0  0  0  0  0
  188.7410  179.2770  137.2540 N   0  0  0  0  0  0  0  0  0  0  0  0
  187.0590  177.9070  137.6990 N   0  0  0  0  0  0  0  0  0  0  0  0
  187.5450  178.8160  136.8420 C   0  0  0  0  0  3  0  0  0  0  0  0
  1 16  1  0  0  0  0
  2 14  1  0  0  0  0
  3  6  2  0  0  0  0
  4  9  1  0  0  0  0
  5  7  1  0  0  0  0
  6 13  1  0  0  0  0
  7  2  1  0  0  0  0
  8 11  2  0  0  0  0
  9  1  2  0  0  0  0
  9  3  1  0  0  0  0
 10 12  1  0  0  0  0
 11  3  1  0  0  0  0
 11 19  1  0  0  0  0
 12 18  1  0  0  0  0
 13 10  2  0  0  0  0
 14 12  2  0  0  0  0
 15  4  2  0  0  0  0
 15  8  1  0  0  0  0
 16  2  2  0  0  0  0
 16 13  1  0  0  0  0
 17  5  1  0  0  0  0
 17  1  1  0  0  0  0
 20 15  1  0  0  0  0
 21 20  1  0  0  0  0
 22 21  1  0  0  0  0
 23 27  1  0  0  0  0
 23 22  1  0  0  0  0
 25 24  2  0  0  0  0
 26 25  1  0  0  0  0
 27 24  1  0  0  0  0
 28 26  2  0  0  0  0
 28 27  1  0  0  0  0
M  END
>  <MODEL>
7

>  <REMARK>
 VINA RESULT:      -9.3      1.577      2.396
  Name = 
  5 active torsions:
  status: ('A' for Active; 'I' for Inactive)
    1  A    between atoms: C_3  and  C_4
    2  A    between atoms: C_3  and  C_23
    3  A    between atoms: C_4  and  N_22
    4  A    between atoms: C_11  and  C_21
    5  A    between atoms: C_11  and  C_23
                            x       y       z     vdW  Elec       q    Type
                         _______ _______ _______ _____ _____    ______ ____

>  <TORSDO>
F 5

$$$$
=
 OpenBabel11062416473D

 28 32  0  0  0  0  0  0  0  0999 V2000
  185.6500  178.2730  142.9400 C   0  0  0  0  0  0  0  0  0  0  0  0
  183.8240  178.6420  141.3700 C   0  0  0  0  0  0  0  0  0  0  0  0
  185.2070  178.4250  145.3450 C   0  0  0  0  0  0  0  0  0  0  0  0
  187.4530  177.9180  144.5550 C   0  0  0  0  0  3  0  0  0  0  0  0
  186.1240  178.6520  140.5100 C   0  0  0  0  0  2  0  0  0  0  0  0
  183.8580  178.6910  145.0780 C   0  0  0  0  0  3  0  0  0  0  0  0
  184.7190  178.5100  140.3060 O   0  0  0  0  0  0  0  0  0  0  0  0
  187.0100  178.0750  146.9300 C   0  0  0  0  0  3  0  0  0  0  0  0
  186.1090  178.2040  144.2720 C   0  0  0  0  0  0  0  0  0  0  0  0
  182.0440  178.9900  143.5070 C   0  0  0  0  0  3  0  0  0  0  0  0
  185.6670  178.3580  146.6710 C   0  0  0  0  0  0  0  0  0  0  0  0
  181.5780  179.0380  142.1900 C   0  0  0  0  0  0  0  0  0  0  0  0
  183.3970  178.7520  143.7640 C   0  0  0  0  0  0  0  0  0  0  0  0
  182.4670  178.8660  141.1230 C   0  0  0  0  0  3  0  0  0  0  0  0
  187.9010  177.8490  145.8780 C   0  0  0  0  0  0  0  0  0  0  0  0
  184.2930  178.5570  142.6920 C   0  0  0  0  0  0  0  0  0  0  0  0
  186.5590  177.9290  141.7830 C   0  0  0  0  0  2  0  0  0  0  0  0
  180.2320  179.2620  141.9400 O   0  0  0  0  0  1  0  0  0  0  0  0
  184.7990  178.5710  147.7380 O   0  0  0  0  0  1  0  0  0  0  0  0
  189.3330  177.5610  146.1650 C   0  0  0  0  0  2  0  0  0  0  0  0
  190.2080  178.1030  145.0510 C   0  0  0  0  0  2  0  0  0  0  0  0
  191.5880  177.4930  145.1520 C   0  0  0  0  0  2  0  0  0  0  0  0
  191.6360  176.2140  144.3390 C   0  0  0  0  0  2  0  0  0  0  0  0
  191.7590  177.2260  142.0620 C   0  0  0  0  0  3  0  0  0  0  0  0
  190.9410  177.2240  140.9490 C   0  0  0  0  0  3  0  0  0  0  0  0
  189.8480  176.4740  141.2040 N   0  0  0  0  0  0  0  0  0  0  0  0
  191.1570  176.4650  142.9900 N   0  0  0  0  0  0  0  0  0  0  0  0
  190.0050  176.0250  142.4640 C   0  0  0  0  0  3  0  0  0  0  0  0
  1  9  1  0  0  0  0
  2 16  1  0  0  0  0
  3 11  1  0  0  0  0
  4 15  2  0  0  0  0
  5 17  1  0  0  0  0
  6  3  1  0  0  0  0
  7  5  1  0  0  0  0
  7  2  1  0  0  0  0
  9  4  1  0  0  0  0
  9  3  2  0  0  0  0
 10 13  1  0  0  0  0
 11  8  2  0  0  0  0
 11 19  1  0  0  0  0
 12 10  2  0  0  0  0
 13  6  2  0  0  0  0
 14  2  2  0  0  0  0
 14 12  1  0  0  0  0
 15 20  1  0  0  0  0
 15  8  1  0  0  0  0
 16  1  2  0  0  0  0
 16 13  1  0  0  0  0
 17  1  1  0  0  0  0
 18 12  1  0  0  0  0
 21 22  1  0  0  0  0
 21 20  1  0  0  0  0
 23 22  1  0  0  0  0
 24 27  1  0  0  0  0
 25 26  1  0  0  0  0
 25 24  2  0  0  0  0
 26 28  2  0  0  0  0
 27 23  1  0  0  0  0
 28 27  1  0  0  0  0
M  END
>  <MODEL>
8

>  <REMARK>
 VINA RESULT:      -9.3      2.694      6.509
  Name = 
  5 active torsions:
  status: ('A' for Active; 'I' for Inactive)
    1  A    between atoms: C_3  and  C_4
    2  A    between atoms: C_3  and  C_23
    3  A    between atoms: C_4  and  N_22
    4  A    between atoms: C_11  and  C_21
    5  A    between atoms: C_11  and  C_23
                            x       y       z     vdW  Elec       q    Type
                         _______ _______ _______ _____ _____    ______ ____

>  <TORSDO>
F 5

$$$$
=
 OpenBabel11062416473D

 28 32  0  0  0  0  0  0  0  0999 V2000
  187.5960  177.7710  145.0040 C   0  0  0  0  0  0  0  0  0  0  0  0
  188.9870  177.1890  146.9190 C   0  0  0  0  0  0  0  0  0  0  0  0
  188.6020  177.8250  142.7710 C   0  0  0  0  0  0  0  0  0  0  0  0
  186.2430  178.3560  143.0520 C   0  0  0  0  0  3  0  0  0  0  0  0
  186.7880  178.2010  147.3360 C   0  0  0  0  0  2  0  0  0  0  0  0
  189.8310  177.4350  143.3150 C   0  0  0  0  0  3  0  0  0  0  0  0
  187.9050  177.4250  147.7700 O   0  0  0  0  0  0  0  0  0  0  0  0
  187.2430  178.4140  140.8490 C   0  0  0  0  0  3  0  0  0  0  0  0
  187.4720  177.9850  143.6160 C   0  0  0  0  0  0  0  0  0  0  0  0
  191.1810  176.7970  145.2180 C   0  0  0  0  0  3  0  0  0  0  0  0
  188.4770  178.0420  141.3880 C   0  0  0  0  0  0  0  0  0  0  0  0
  191.3050  176.5610  146.5910 C   0  0  0  0  0  0  0  0  0  0  0  0
  189.9570  177.2130  144.6860 C   0  0  0  0  0  0  0  0  0  0  0  0
  190.2100  176.7590  147.4400 C   0  0  0  0  0  3  0  0  0  0  0  0
  186.1270  178.5650  141.6750 C   0  0  0  0  0  0  0  0  0  0  0  0
  188.8450  177.3940  145.5350 C   0  0  0  0  0  0  0  0  0  0  0  0
  186.3890  177.8190  145.9110 C   0  0  0  0  0  2  0  0  0  0  0  0
  192.5170  176.1360  147.1130 O   0  0  0  0  0  1  0  0  0  0  0  0
  189.5710  177.8910  140.5410 O   0  0  0  0  0  1  0  0  0  0  0  0
  184.8200  178.9750  141.0910 C   0  0  0  0  0  2  0  0  0  0  0  0
  183.7520  177.9550  141.4370 C   0  0  0  0  0  2  0  0  0  0  0  0
  182.4020  178.6370  141.4870 C   0  0  0  0  0  2  0  0  0  0  0  0
  181.6860  178.4380  140.1650 C   0  0  0  0  0  2  0  0  0  0  0  0
  182.2070  180.3750  138.6830 C   0  0  0  0  0  3  0  0  0  0  0  0
  181.5860  181.5740  138.3910 C   0  0  0  0  0  3  0  0  0  0  0  0
  180.4280  181.6520  139.0810 N   0  0  0  0  0  0  0  0  0  0  0  0
  181.4140  179.7250  139.5500 N   0  0  0  0  0  0  0  0  0  0  0  0
  180.3510  180.5070  139.7860 C   0  0  0  0  0  3  0  0  0  0  0  0
  1 16  1  0  0  0  0
  1 17  1  0  0  0  0
  2 14  1  0  0  0  0
  2  7  1  0  0  0  0
  3  6  2  0  0  0  0
  3  9  1  0  0  0  0
  4  9  1  0  0  0  0
  5  7  1  0  0  0  0
  6 13  1  0  0  0  0
  8 11  2  0  0  0  0
  8 15  1  0  0  0  0
  9  1  2  0  0  0  0
 10 12  1  0  0  0  0
 11  3  1  0  0  0  0
 12 18  1  0  0  0  0
 12 14  2  0  0  0  0
 13 10  2  0  0  0  0
 13 16  1  0  0  0  0
 15  4  2  0  0  0  0
 16  2  2  0  0  0  0
 17  5  1  0  0  0  0
 19 11  1  0  0  0  0
 20 21  1  0  0  0  0
 20 15  1  0  0  0  0
 21 22  1  0  0  0  0
 23 22  1  0  0  0  0
 24 27  1  0  0  0  0
 25 24  2  0  0  0  0
 25 26  1  0  0  0  0
 26 28  2  0  0  0  0
 27 28  1  0  0  0  0
 27 23  1  0  0  0  0
M  END
>  <MODEL>
9

>  <REMARK>
 VINA RESULT:      -9.1      2.492      4.337
  Name = 
  5 active torsions:
  status: ('A' for Active; 'I' for Inactive)
    1  A    between atoms: C_3  and  C_4
    2  A    between atoms: C_3  and  C_23
    3  A    between atoms: C_4  and  N_22
    4  A    between atoms: C_11  and  C_21
    5  A    between atoms: C_11  and  C_23
                            x       y       z     vdW  Elec       q    Type
                         _______ _______ _______ _____ _____    ______ ____

>  <TORSDO>
F 5

$$$$
