=
 OpenBabel11062413313D

 28 31  0  0  1  0  0  0  0  0999 V2000
  187.3950  177.7380  145.8820 C   0  0  0  0  0  0  0  0  0  0  0  0
  188.4010  177.7130  145.0640 C   0  0  0  0  0  0  0  0  0  0  0  0
  189.0710  177.7030  147.7710 C   0  0  0  0  0  2  0  0  0  0  0  0
  190.6370  177.1990  145.3280 O   0  0  0  0  0  0  0  0  0  0  0  0
  191.7660  177.6490  147.5990 O   0  0  0  0  0  1  0  0  0  0  0  0
  189.7180  176.3270  147.5430 C   0  0  2  0  0  3  0  0  0  0  0  0
  189.5820  177.6660  144.5320 C   0  0  0  0  0  0  0  0  0  0  0  0
  191.2500  176.3470  147.5470 C   0  0  1  0  0  3  0  0  0  0  0  0
  190.5050  176.0910  146.2360 C   0  0  2  0  0  3  0  0  0  0  0  0
  187.6860  177.7080  147.2850 N   0  0  0  0  0  2  0  0  0  0  0  0
  184.0770  179.5520  144.0720 C   0  0  0  0  0  2  0  0  0  0  0  0
  184.5670  178.2890  143.3810 C   0  0  1  0  0  3  0  0  0  0  0  0
  185.0980  178.6560  146.1440 C   0  0  0  0  0  0  0  0  0  0  0  0
  184.5850  178.4910  142.0020 O   0  0  0  0  0  1  0  0  0  0  0  0
  184.1060  179.3970  145.4900 O   0  0  0  0  0  0  0  0  0  0  0  0
  185.1660  178.6980  147.4010 O   0  0  0  0  0  0  0  0  0  0  0  0
  185.9900  177.7130  145.3720 C   0  0  1  0  0  3  0  0  0  0  0  0
  185.9790  178.0000  143.8700 C   0  0  0  0  0  2  0  0  0  0  0  0
  190.8140  178.9950  143.0220 O   0  0  0  0  0  0  0  0  0  0  0  0
  189.8430  178.2090  143.1910 C   0  0  0  0  0  0  0  0  0  0  0  0
  189.0010  177.8450  142.0860 N   0  0  0  0  0  2  0  0  0  0  0  0
  187.8150  178.3710  139.9960 C   0  0  0  0  0  2  0  0  0  0  0  0
  189.9730  177.3940  139.8980 C   0  0  0  0  0  0  0  0  0  0  0  0
  188.0060  177.7270  138.6210 C   0  0  1  0  0  3  0  0  0  0  0  0
  191.1030  177.0500  140.2080 O   0  0  0  0  0  0  0  0  0  0  0  0
  188.0990  178.7270  137.6530 O   0  0  0  0  0  1  0  0  0  0  0  0
  189.1550  178.3220  140.7120 C   0  0  2  0  0  3  0  0  0  0  0  0
  189.3090  176.9410  138.6560 C   0  0  0  0  0  2  0  0  0  0  0  0
  1 10  1  0  0  0  0
  2  1  2  0  0  0  0
  6  8  1  0  0  0  0
  6  3  1  6  0  0  0
  7  2  2  0  0  0  0
  7  4  1  0  0  0  0
  8  5  1  6  0  0  0
  9  4  1  6  0  0  0
  9  6  1  0  0  0  0
  9  8  1  0  0  0  0
 10  3  1  0  0  0  0
 11 15  1  0  0  0  0
 12 14  1  6  0  0  0
 12 18  1  0  0  0  0
 12 11  1  0  0  0  0
 13 16  2  0  0  0  0
 15 13  1  0  0  0  0
 17  1  1  1  0  0  0
 17 13  1  0  0  0  0
 18 17  1  0  0  0  0
 19 20  2  0  0  0  0
 20  7  1  0  0  0  0
 21 20  1  0  0  0  0
 22 27  1  0  0  0  0
 23 25  2  0  0  0  0
 23 27  1  0  0  0  0
 24 26  1  6  0  0  0
 24 28  1  0  0  0  0
 24 22  1  0  0  0  0
 27 21  1  1  0  0  0
 28 23  1  0  0  0  0
M  END
>  <MODEL>
1

>  <REMARK>
 VINA RESULT:      -9.0      0.000      0.000
  Name = 
  3 active torsions:
  status: ('A' for Active; 'I' for Inactive)
    1  A    between atoms: C_4  and  C_26
    2  A    between atoms: C_6  and  C_18
    3  A    between atoms: N_7  and  C_24
                            x       y       z     vdW  Elec       q    Type
                         _______ _______ _______ _____ _____    ______ ____

>  <TORSDO>
F 3

$$$$
=
 OpenBabel11062413313D

 28 31  0  0  1  0  0  0  0  0999 V2000
  187.4490  177.7740  144.1490 C   0  0  0  0  0  0  0  0  0  0  0  0
  187.8300  177.6490  142.9160 C   0  0  0  0  0  0  0  0  0  0  0  0
  189.8890  177.9830  144.7670 C   0  0  0  0  0  2  0  0  0  0  0  0
  189.8660  177.1790  141.9330 O   0  0  0  0  0  0  0  0  0  0  0  0
  192.0290  177.9160  143.1210 O   0  0  0  0  0  1  0  0  0  0  0  0
  190.3990  176.5910  144.3580 C   0  0  2  0  0  3  0  0  0  0  0  0
  188.5160  177.5390  141.8210 C   0  0  0  0  0  0  0  0  0  0  0  0
  191.6680  176.6160  143.5010 C   0  0  1  0  0  3  0  0  0  0  0  0
  190.3420  176.1940  142.8680 C   0  0  2  0  0  3  0  0  0  0  0  0
  188.4710  177.9230  145.1430 N   0  0  0  0  0  2  0  0  0  0  0  0
  183.6940  179.4880  144.8840 C   0  0  0  0  0  2  0  0  0  0  0  0
  183.7010  178.4040  143.8160 C   0  0  1  0  0  3  0  0  0  0  0  0
  185.7110  178.3950  145.8180 C   0  0  0  0  0  0  0  0  0  0  0  0
  182.9300  178.8170  142.7300 O   0  0  0  0  0  1  0  0  0  0  0  0
  184.5250  179.1190  145.9830 O   0  0  0  0  0  0  0  0  0  0  0  0
  186.4830  178.2500  146.8020 O   0  0  0  0  0  0  0  0  0  0  0  0
  186.0030  177.6810  144.5190 C   0  0  1  0  0  3  0  0  0  0  0  0
  185.1380  178.1930  143.3660 C   0  0  0  0  0  2  0  0  0  0  0  0
  187.0630  178.8050  140.4620 O   0  0  0  0  0  0  0  0  0  0  0  0
  187.9480  177.9100  140.5180 C   0  0  0  0  0  0  0  0  0  0  0  0
  188.4000  177.2580  139.3200 N   0  0  0  0  0  2  0  0  0  0  0  0
  187.9070  176.2750  137.1190 C   0  0  0  0  0  2  0  0  0  0  0  0
  188.8000  178.4690  137.2430 C   0  0  0  0  0  0  0  0  0  0  0  0
  188.5340  176.6330  135.7690 C   0  0  1  0  0  3  0  0  0  0  0  0
  189.1010  179.5730  137.6670 O   0  0  0  0  0  0  0  0  0  0  0  0
  187.5260  176.7860  134.8190 O   0  0  0  0  0  1  0  0  0  0  0  0
  187.9080  177.5350  137.9700 C   0  0  2  0  0  3  0  0  0  0  0  0
  189.2700  177.9550  135.9380 C   0  0  0  0  0  2  0  0  0  0  0  0
  1 10  1  0  0  0  0
  2  1  2  0  0  0  0
  3 10  1  0  0  0  0
  6  3  1  6  0  0  0
  7  4  1  0  0  0  0
  7  2  2  0  0  0  0
  8  5  1  6  0  0  0
  8  6  1  0  0  0  0
  9  4  1  6  0  0  0
  9  8  1  0  0  0  0
  9  6  1  0  0  0  0
 11 15  1  0  0  0  0
 12 14  1  6  0  0  0
 12 11  1  0  0  0  0
 13 15  1  0  0  0  0
 13 16  2  0  0  0  0
 17  1  1  6  0  0  0
 17 13  1  0  0  0  0
 18 12  1  0  0  0  0
 18 17  1  0  0  0  0
 19 20  2  0  0  0  0
 20  7  1  0  0  0  0
 21 20  1  0  0  0  0
 22 27  1  0  0  0  0
 23 25  2  0  0  0  0
 23 27  1  0  0  0  0
 24 26  1  6  0  0  0
 24 28  1  0  0  0  0
 24 22  1  0  0  0  0
 27 21  1  1  0  0  0
 28 23  1  0  0  0  0
M  END
>  <MODEL>
2

>  <REMARK>
 VINA RESULT:      -8.7      1.999      2.875
  Name = 
  3 active torsions:
  status: ('A' for Active; 'I' for Inactive)
    1  A    between atoms: C_4  and  C_26
    2  A    between atoms: C_6  and  C_18
    3  A    between atoms: N_7  and  C_24
                            x       y       z     vdW  Elec       q    Type
                         _______ _______ _______ _____ _____    ______ ____

>  <TORSDO>
F 3

$$$$
=
 OpenBabel11062413313D

 28 31  0  0  1  0  0  0  0  0999 V2000
  187.1990  178.0320  142.5310 C   0  0  0  0  0  0  0  0  0  0  0  0
  186.4180  178.2730  141.5250 C   0  0  0  0  0  0  0  0  0  0  0  0
  189.1370  178.6470  141.0330 C   0  0  0  0  0  2  0  0  0  0  0  0
  186.7910  178.5080  139.2580 O   0  0  0  0  0  0  0  0  0  0  0  0
  189.0550  179.4340  138.4510 O   0  0  0  0  0  1  0  0  0  0  0  0
  189.0370  177.5340  139.9770 C   0  0  2  0  0  3  0  0  0  0  0  0
  185.9280  178.5670  140.3610 C   0  0  0  0  0  0  0  0  0  0  0  0
  189.0870  178.0360  138.5310 C   0  0  1  0  0  3  0  0  0  0  0  0
  187.7770  177.4750  139.0870 C   0  0  2  0  0  3  0  0  0  0  0  0
  188.6090  178.1840  142.3220 N   0  0  0  0  0  2  0  0  0  0  0  0
  186.4030  178.4520  146.6260 C   0  0  0  0  0  2  0  0  0  0  0  0
  185.1800  178.1740  145.7650 C   0  0  1  0  0  3  0  0  0  0  0  0
  187.7350  177.3370  144.8590 C   0  0  0  0  0  0  0  0  0  0  0  0
  184.1350  179.0070  146.1610 O   0  0  0  0  0  1  0  0  0  0  0  0
  187.5090  177.6570  146.2030 O   0  0  0  0  0  0  0  0  0  0  0  0
  188.8160  176.7790  144.5340 O   0  0  0  0  0  0  0  0  0  0  0  0
  186.6480  177.5320  143.8280 C   0  0  1  0  0  3  0  0  0  0  0  0
  185.5440  178.4700  144.3180 C   0  0  0  0  0  2  0  0  0  0  0  0
  184.3450  180.0550  139.4420 O   0  0  0  0  0  0  0  0  0  0  0  0
  184.5590  179.0790  140.2100 C   0  0  0  0  0  0  0  0  0  0  0  0
  183.4750  178.4690  140.9300 N   0  0  0  0  0  2  0  0  0  0  0  0
  181.4530  178.9270  142.2550 C   0  0  0  0  0  2  0  0  0  0  0  0
  181.2450  177.9200  140.1180 C   0  0  0  0  0  0  0  0  0  0  0  0
  180.0950  178.2280  142.1660 C   0  0  1  0  0  3  0  0  0  0  0  0
  181.4880  177.5750  138.9730 O   0  0  0  0  0  0  0  0  0  0  0  0
  179.0840  179.1880  142.1320 O   0  0  0  0  0  1  0  0  0  0  0  0
  182.0760  178.8900  140.8680 C   0  0  2  0  0  3  0  0  0  0  0  0
  180.0710  177.4280  140.8710 C   0  0  0  0  0  2  0  0  0  0  0  0
  2  1  2  0  0  0  0
  3 10  1  0  0  0  0
  4  7  1  0  0  0  0
  6  3  1  1  0  0  0
  7  2  2  0  0  0  0
  8  5  1  1  0  0  0
  8  9  1  0  0  0  0
  8  6  1  0  0  0  0
  9  4  1  1  0  0  0
  9  6  1  0  0  0  0
 10  1  1  0  0  0  0
 12 14  1  1  0  0  0
 12 11  1  0  0  0  0
 13 15  1  0  0  0  0
 15 11  1  0  0  0  0
 16 13  2  0  0  0  0
 17  1  1  6  0  0  0
 17 18  1  0  0  0  0
 17 13  1  0  0  0  0
 18 12  1  0  0  0  0
 19 20  2  0  0  0  0
 20  7  1  0  0  0  0
 20 21  1  0  0  0  0
 23 27  1  0  0  0  0
 23 28  1  0  0  0  0
 24 26  1  6  0  0  0
 24 22  1  0  0  0  0
 25 23  2  0  0  0  0
 27 21  1  1  0  0  0
 27 22  1  0  0  0  0
 28 24  1  0  0  0  0
M  END
>  <MODEL>
3

>  <REMARK>
 VINA RESULT:      -8.3      2.890      6.652
  Name = 
  3 active torsions:
  status: ('A' for Active; 'I' for Inactive)
    1  A    between atoms: C_4  and  C_26
    2  A    between atoms: C_6  and  C_18
    3  A    between atoms: N_7  and  C_24
                            x       y       z     vdW  Elec       q    Type
                         _______ _______ _______ _____ _____    ______ ____

>  <TORSDO>
F 3

$$$$
=
 OpenBabel11062413313D

 28 31  0  0  1  0  0  0  0  0999 V2000
  187.5330  178.0580  140.4170 C   0  0  0  0  0  0  0  0  0  0  0  0
  188.4470  177.5290  141.1690 C   0  0  0  0  0  0  0  0  0  0  0  0
  188.6780  176.9690  138.4470 C   0  0  0  0  0  2  0  0  0  0  0  0
  190.5090  176.5900  140.7230 O   0  0  0  0  0  0  0  0  0  0  0  0
  190.8870  175.4150  138.4620 O   0  0  0  0  0  1  0  0  0  0  0  0
  190.0320  177.6970  138.4740 C   0  0  2  0  0  3  0  0  0  0  0  0
  189.4810  176.8950  141.6260 C   0  0  0  0  0  0  0  0  0  0  0  0
  191.2460  176.7680  138.3890 C   0  0  1  0  0  3  0  0  0  0  0  0
  190.9500  177.4990  139.6990 C   0  0  2  0  0  3  0  0  0  0  0  0
  187.6220  177.8210  139.0060 N   0  0  0  0  0  2  0  0  0  0  0  0
  183.7650  178.7090  142.1360 C   0  0  0  0  0  2  0  0  0  0  0  0
  184.9380  179.2130  142.9630 C   0  0  1  0  0  3  0  0  0  0  0  0
  185.2290  178.9580  140.1530 C   0  0  0  0  0  0  0  0  0  0  0  0
  184.7440  178.8690  144.3000 O   0  0  0  0  0  1  0  0  0  0  0  0
  183.9640  178.9920  140.7520 O   0  0  0  0  0  0  0  0  0  0  0  0
  185.3160  179.0500  138.9000 O   0  0  0  0  0  0  0  0  0  0  0  0
  186.4810  178.9480  140.9970 C   0  0  1  0  0  3  0  0  0  0  0  0
  186.2030  178.5450  142.4460 C   0  0  0  0  0  2  0  0  0  0  0  0
  190.0730  175.2770  143.2370 O   0  0  0  0  0  0  0  0  0  0  0  0
  189.5240  176.3880  143.0050 C   0  0  0  0  0  0  0  0  0  0  0  0
  188.9490  177.1530  144.0750 N   0  0  0  0  0  2  0  0  0  0  0  0
  187.7440  177.3780  146.2090 C   0  0  0  0  0  2  0  0  0  0  0  0
  190.1120  177.2530  146.2140 C   0  0  0  0  0  0  0  0  0  0  0  0
  188.2680  177.9520  147.5270 C   0  0  1  0  0  3  0  0  0  0  0  0
  191.2590  177.0140  145.8710 O   0  0  0  0  0  0  0  0  0  0  0  0
  187.9320  177.0910  148.5710 O   0  0  0  0  0  1  0  0  0  0  0  0
  188.9250  176.7530  145.4820 C   0  0  2  0  0  3  0  0  0  0  0  0
  189.7840  178.0440  147.4200 C   0  0  0  0  0  2  0  0  0  0  0  0
  1  2  2  0  0  0  0
  2  7  2  0  0  0  0
  3 10  1  0  0  0  0
  4  7  1  0  0  0  0
  6  3  1  1  0  0  0
  6  9  1  0  0  0  0
  7 20  1  0  0  0  0
  8  5  1  1  0  0  0
  8  6  1  0  0  0  0
  8  9  1  0  0  0  0
  9  4  1  1  0  0  0
 10  1  1  0  0  0  0
 11 12  1  0  0  0  0
 12 14  1  1  0  0  0
 13 15  1  0  0  0  0
 13 17  1  0  0  0  0
 15 11  1  0  0  0  0
 16 13  2  0  0  0  0
 17  1  1  6  0  0  0
 17 18  1  0  0  0  0
 18 12  1  0  0  0  0
 20 19  2  0  0  0  0
 20 21  1  0  0  0  0
 22 24  1  0  0  0  0
 23 28  1  0  0  0  0
 24 26  1  1  0  0  0
 25 23  2  0  0  0  0
 27 21  1  6  0  0  0
 27 22  1  0  0  0  0
 27 23  1  0  0  0  0
 28 24  1  0  0  0  0
M  END
>  <MODEL>
4

>  <REMARK>
 VINA RESULT:      -8.3      1.843      6.377
  Name = 
  3 active torsions:
  status: ('A' for Active; 'I' for Inactive)
    1  A    between atoms: C_4  and  C_26
    2  A    between atoms: C_6  and  C_18
    3  A    between atoms: N_7  and  C_24
                            x       y       z     vdW  Elec       q    Type
                         _______ _______ _______ _____ _____    ______ ____

>  <TORSDO>
F 3

$$$$
=
 OpenBabel11062413313D

 28 31  0  0  1  0  0  0  0  0999 V2000
  187.0440  178.3320  139.9460 C   0  0  0  0  0  0  0  0  0  0  0  0
  188.3270  178.1520  139.8850 C   0  0  0  0  0  0  0  0  0  0  0  0
  186.9180  177.4500  137.5820 C   0  0  0  0  0  2  0  0  0  0  0  0
  189.7900  177.8050  138.1320 O   0  0  0  0  0  0  0  0  0  0  0  0
  188.9480  176.5970  136.0190 O   0  0  0  0  0  1  0  0  0  0  0  0
  187.7150  178.5330  136.8380 C   0  0  2  0  0  3  0  0  0  0  0  0
  189.5380  177.8800  139.5090 C   0  0  0  0  0  0  0  0  0  0  0  0
  188.7920  177.9850  135.8970 C   0  0  1  0  0  3  0  0  0  0  0  0
  189.2110  178.7110  137.1760 C   0  0  2  0  0  3  0  0  0  0  0  0
  186.2770  178.0100  138.7780 N   0  0  0  0  0  2  0  0  0  0  0  0
  184.3030  178.2520  143.1170 C   0  0  0  0  0  2  0  0  0  0  0  0
  185.7550  178.4340  143.5350 C   0  0  1  0  0  3  0  0  0  0  0  0
  184.9470  179.2320  140.9350 C   0  0  0  0  0  0  0  0  0  0  0  0
  186.0270  177.6210  144.6330 O   0  0  0  0  0  1  0  0  0  0  0  0
  184.0110  179.0260  141.9550 O   0  0  0  0  0  0  0  0  0  0  0  0
  184.5740  179.7780  139.8630 O   0  0  0  0  0  0  0  0  0  0  0  0
  186.4100  178.9320  141.1600 C   0  0  1  0  0  3  0  0  0  0  0  0
  186.6380  178.0210  142.3670 C   0  0  0  0  0  2  0  0  0  0  0  0
  191.6960  177.1080  140.0630 O   0  0  0  0  0  0  0  0  0  0  0  0
  190.5820  177.5270  140.4800 C   0  0  0  0  0  0  0  0  0  0  0  0
  190.3370  177.6610  141.8880 N   0  0  0  0  0  2  0  0  0  0  0  0
  190.9450  176.0140  143.6120 C   0  0  0  0  0  2  0  0  0  0  0  0
  191.2430  178.3260  144.0500 C   0  0  0  0  0  0  0  0  0  0  0  0
  191.0260  176.2260  145.1260 C   0  0  1  0  0  3  0  0  0  0  0  0
  191.4010  179.5240  143.8820 O   0  0  0  0  0  0  0  0  0  0  0  0
  192.2190  175.6860  145.6030 O   0  0  0  0  0  1  0  0  0  0  0  0
  191.2920  177.3370  142.9480 C   0  0  2  0  0  3  0  0  0  0  0  0
  191.0140  177.7260  145.3830 C   0  0  0  0  0  2  0  0  0  0  0  0
  2  1  2  0  0  0  0
  3 10  1  0  0  0  0
  4  7  1  0  0  0  0
  6  9  1  0  0  0  0
  6  3  1  1  0  0  0
  7  2  2  0  0  0  0
  7 20  1  0  0  0  0
  8  5  1  1  0  0  0
  8  6  1  0  0  0  0
  8  9  1  0  0  0  0
  9  4  1  1  0  0  0
 10  1  1  0  0  0  0
 11 12  1  0  0  0  0
 12 14  1  1  0  0  0
 13 17  1  0  0  0  0
 13 15  1  0  0  0  0
 15 11  1  0  0  0  0
 16 13  2  0  0  0  0
 17  1  1  6  0  0  0
 17 18  1  0  0  0  0
 18 12  1  0  0  0  0
 19 20  2  0  0  0  0
 20 21  1  0  0  0  0
 22 24  1  0  0  0  0
 23 28  1  0  0  0  0
 24 28  1  0  0  0  0
 24 26  1  6  0  0  0
 25 23  2  0  0  0  0
 27 21  1  6  0  0  0
 27 22  1  0  0  0  0
 27 23  1  0  0  0  0
M  END
>  <MODEL>
5

>  <REMARK>
 VINA RESULT:      -8.1      2.238      6.691
  Name = 
  3 active torsions:
  status: ('A' for Active; 'I' for Inactive)
    1  A    between atoms: C_4  and  C_26
    2  A    between atoms: C_6  and  C_18
    3  A    between atoms: N_7  and  C_24
                            x       y       z     vdW  Elec       q    Type
                         _______ _______ _______ _____ _____    ______ ____

>  <TORSDO>
F 3

$$$$
=
 OpenBabel11062413313D

 28 31  0  0  1  0  0  0  0  0999 V2000
  187.6450  177.4470  144.1990 C   0  0  0  0  0  0  0  0  0  0  0  0
  187.1700  178.0450  143.1520 C   0  0  0  0  0  0  0  0  0  0  0  0
  185.3080  177.5030  145.1560 C   0  0  0  0  0  2  0  0  0  0  0  0
  185.2050  179.1870  142.7410 O   0  0  0  0  0  0  0  0  0  0  0  0
  183.0740  178.5140  144.0220 O   0  0  0  0  0  1  0  0  0  0  0  0
  185.0960  179.0200  145.2850 C   0  0  2  0  0  3  0  0  0  0  0  0
  186.4120  178.6400  142.2840 C   0  0  0  0  0  0  0  0  0  0  0  0
  183.7700  179.5210  144.7050 C   0  0  1  0  0  3  0  0  0  0  0  0
  185.0800  179.8740  143.9990 C   0  0  2  0  0  3  0  0  0  0  0  0
  186.7330  177.1690  145.2700 N   0  0  0  0  0  2  0  0  0  0  0  0
  191.5910  177.6370  142.7980 C   0  0  0  0  0  2  0  0  0  0  0  0
  191.3880  178.1830  144.2040 C   0  0  1  0  0  3  0  0  0  0  0  0
  189.5770  176.2500  143.1890 C   0  0  0  0  0  0  0  0  0  0  0  0
  192.0900  179.3790  144.3440 O   0  0  0  0  0  1  0  0  0  0  0  0
  190.8340  176.4440  142.6050 O   0  0  0  0  0  0  0  0  0  0  0  0
  188.8880  175.2530  142.8440 O   0  0  0  0  0  0  0  0  0  0  0  0
  189.1030  177.1400  144.3130 C   0  0  1  0  0  3  0  0  0  0  0  0
  189.9020  178.4420  144.4000 C   0  0  0  0  0  2  0  0  0  0  0  0
  185.8570  179.0030  140.0210 O   0  0  0  0  0  0  0  0  0  0  0  0
  186.7290  178.6270  140.8490 C   0  0  0  0  0  0  0  0  0  0  0  0
  188.0210  178.1930  140.3980 N   0  0  0  0  0  2  0  0  0  0  0  0
  187.4420  177.3760  138.1510 C   0  0  0  0  0  2  0  0  0  0  0  0
  189.7080  177.3580  138.8500 C   0  0  0  0  0  0  0  0  0  0  0  0
  188.2220  176.3870  137.2810 C   0  0  1  0  0  3  0  0  0  0  0  0
  190.7350  177.6280  139.4510 O   0  0  0  0  0  0  0  0  0  0  0  0
  188.3240  176.8930  135.9860 O   0  0  0  0  0  1  0  0  0  0  0  0
  188.4520  178.1300  139.0020 C   0  0  2  0  0  3  0  0  0  0  0  0
  189.6150  176.2480  137.8770 C   0  0  0  0  0  2  0  0  0  0  0  0
  1 10  1  0  0  0  0
  2  1  2  0  0  0  0
  3 10  1  0  0  0  0
  6  3  1  6  0  0  0
  7  4  1  0  0  0  0
  7  2  2  0  0  0  0
  8  5  1  6  0  0  0
  8  6  1  0  0  0  0
  9  4  1  6  0  0  0
  9  8  1  0  0  0  0
  9  6  1  0  0  0  0
 11 12  1  0  0  0  0
 12 14  1  6  0  0  0
 12 18  1  0  0  0  0
 13 17  1  0  0  0  0
 15 11  1  0  0  0  0
 15 13  1  0  0  0  0
 16 13  2  0  0  0  0
 17  1  1  6  0  0  0
 17 18  1  0  0  0  0
 19 20  2  0  0  0  0
 20  7  1  0  0  0  0
 21 20  1  0  0  0  0
 22 27  1  0  0  0  0
 23 27  1  0  0  0  0
 23 25  2  0  0  0  0
 24 26  1  6  0  0  0
 24 28  1  0  0  0  0
 24 22  1  0  0  0  0
 27 21  1  1  0  0  0
 28 23  1  0  0  0  0
M  END
>  <MODEL>
6

>  <REMARK>
 VINA RESULT:      -8.1      2.140      5.184
  Name = 
  3 active torsions:
  status: ('A' for Active; 'I' for Inactive)
    1  A    between atoms: C_4  and  C_26
    2  A    between atoms: C_6  and  C_18
    3  A    between atoms: N_7  and  C_24
                            x       y       z     vdW  Elec       q    Type
                         _______ _______ _______ _____ _____    ______ ____

>  <TORSDO>
F 3

$$$$
=
 OpenBabel11062413313D

 28 31  0  0  1  0  0  0  0  0999 V2000
  189.8970  177.5000  140.7970 C   0  0  0  0  0  0  0  0  0  0  0  0
  189.0860  177.6050  141.8040 C   0  0  0  0  0  0  0  0  0  0  0  0
  191.7540  177.1430  142.4720 C   0  0  0  0  0  2  0  0  0  0  0  0
  189.4110  177.9530  144.0630 O   0  0  0  0  0  0  0  0  0  0  0  0
  191.5710  177.0850  145.1660 O   0  0  0  0  0  1  0  0  0  0  0  0
  191.7450  178.5030  143.1910 C   0  0  2  0  0  3  0  0  0  0  0  0
  188.5580  177.6760  142.9860 C   0  0  0  0  0  0  0  0  0  0  0  0
  191.7330  178.4040  144.7190 C   0  0  1  0  0  3  0  0  0  0  0  0
  190.4870  178.9060  143.9890 C   0  0  2  0  0  3  0  0  0  0  0  0
  191.2840  177.2880  141.0880 N   0  0  0  0  0  2  0  0  0  0  0  0
  187.2270  176.6830  137.6700 C   0  0  0  0  0  2  0  0  0  0  0  0
  187.3510  178.1550  138.0330 C   0  0  1  0  0  3  0  0  0  0  0  0
  189.5050  176.3990  138.6020 C   0  0  0  0  0  0  0  0  0  0  0  0
  186.0830  178.7330  138.0680 O   0  0  0  0  0  1  0  0  0  0  0  0
  188.5040  176.0490  137.6860 O   0  0  0  0  0  0  0  0  0  0  0  0
  190.5430  175.6890  138.6760 O   0  0  0  0  0  0  0  0  0  0  0  0
  189.4090  177.6800  139.3960 C   0  0  1  0  0  3  0  0  0  0  0  0
  187.9900  178.2510  139.4100 C   0  0  0  0  0  2  0  0  0  0  0  0
  186.8560  176.3760  143.9730 O   0  0  0  0  0  0  0  0  0  0  0  0
  187.1460  177.3430  143.2190 C   0  0  0  0  0  0  0  0  0  0  0  0
  186.1080  178.1140  142.5940 N   0  0  0  0  0  2  0  0  0  0  0  0
  183.9090  178.3570  141.5180 C   0  0  0  0  0  2  0  0  0  0  0  0
  184.1010  178.6630  143.8620 C   0  0  0  0  0  0  0  0  0  0  0  0
  182.7050  179.1610  142.0140 C   0  0  1  0  0  3  0  0  0  0  0  0
  184.5200  178.5980  145.0060 O   0  0  0  0  0  0  0  0  0  0  0  0
  181.5560  178.3770  141.9200 O   0  0  0  0  0  1  0  0  0  0  0  0
  184.6730  177.8780  142.7430 C   0  0  2  0  0  3  0  0  0  0  0  0
  182.9540  179.5130  143.4740 C   0  0  0  0  0  2  0  0  0  0  0  0
  1 10  1  0  0  0  0
  1  2  2  0  0  0  0
  2  7  2  0  0  0  0
  6  3  1  6  0  0  0
  6  9  1  0  0  0  0
  6  8  1  0  0  0  0
  7 20  1  0  0  0  0
  7  4  1  0  0  0  0
  8  5  1  6  0  0  0
  9  4  1  6  0  0  0
  9  8  1  0  0  0  0
 10  3  1  0  0  0  0
 11 15  1  0  0  0  0
 11 12  1  0  0  0  0
 12 14  1  1  0  0  0
 12 18  1  0  0  0  0
 13 16  2  0  0  0  0
 13 17  1  0  0  0  0
 15 13  1  0  0  0  0
 17 18  1  0  0  0  0
 17  1  1  1  0  0  0
 20 19  2  0  0  0  0
 21 20  1  0  0  0  0
 22 24  1  0  0  0  0
 22 27  1  0  0  0  0
 23 25  2  0  0  0  0
 24 26  1  1  0  0  0
 24 28  1  0  0  0  0
 27 21  1  6  0  0  0
 27 23  1  0  0  0  0
 28 23  1  0  0  0  0
M  END
>  <MODEL>
7

>  <REMARK>
 VINA RESULT:      -7.8      2.373      6.107
  Name = 
  3 active torsions:
  status: ('A' for Active; 'I' for Inactive)
    1  A    between atoms: C_4  and  C_26
    2  A    between atoms: C_6  and  C_18
    3  A    between atoms: N_7  and  C_24
                            x       y       z     vdW  Elec       q    Type
                         _______ _______ _______ _____ _____    ______ ____

>  <TORSDO>
F 3

$$$$
=
 OpenBabel11062413313D

 28 31  0  0  1  0  0  0  0  0999 V2000
  190.6410  176.3110  137.7360 C   0  0  0  0  0  0  0  0  0  0  0  0
  189.8580  176.6970  138.6950 C   0  0  0  0  0  0  0  0  0  0  0  0
  189.3670  177.8740  136.2140 C   0  0  0  0  0  2  0  0  0  0  0  0
  187.8350  177.8090  138.7290 O   0  0  0  0  0  0  0  0  0  0  0  0
  187.2940  179.4850  136.8500 O   0  0  0  0  0  1  0  0  0  0  0  0
  187.9740  177.2220  136.2500 C   0  0  2  0  0  3  0  0  0  0  0  0
  188.9310  177.2580  139.4070 C   0  0  0  0  0  0  0  0  0  0  0  0
  186.8300  178.2030  136.5250 C   0  0  1  0  0  3  0  0  0  0  0  0
  187.2150  177.1790  137.5940 C   0  0  2  0  0  3  0  0  0  0  0  0
  190.4130  176.8670  136.4340 N   0  0  0  0  0  2  0  0  0  0  0  0
  193.7040  173.7730  136.4130 C   0  0  0  0  0  2  0  0  0  0  0  0
  194.0970  174.7060  137.5490 C   0  0  1  0  0  3  0  0  0  0  0  0
  191.3720  173.9900  137.2180 C   0  0  0  0  0  0  0  0  0  0  0  0
  195.3520  175.2530  137.2880 O   0  0  0  0  0  1  0  0  0  0  0  0
  192.3960  173.2450  136.6220 O   0  0  0  0  0  0  0  0  0  0  0  0
  190.1990  173.5300  137.2190 O   0  0  0  0  0  0  0  0  0  0  0  0
  191.6820  175.2640  137.9690 C   0  0  1  0  0  3  0  0  0  0  0  0
  193.0640  175.8200  137.6240 C   0  0  0  0  0  2  0  0  0  0  0  0
  188.6670  178.5020  141.3930 O   0  0  0  0  0  0  0  0  0  0  0  0
  189.0800  177.4390  140.8570 C   0  0  0  0  0  0  0  0  0  0  0  0
  189.6880  176.4110  141.6560 N   0  0  0  0  0  2  0  0  0  0  0  0
  188.5910  176.7530  143.8310 C   0  0  0  0  0  2  0  0  0  0  0  0
  190.7740  177.6090  143.4790 C   0  0  0  0  0  0  0  0  0  0  0  0
  188.8630  177.8560  144.8570 C   0  0  1  0  0  3  0  0  0  0  0  0
  191.8950  177.7670  143.0230 O   0  0  0  0  0  0  0  0  0  0  0  0
  188.9770  177.2870  146.1250 O   0  0  0  0  0  1  0  0  0  0  0  0
  189.8960  176.4770  143.1020 C   0  0  2  0  0  3  0  0  0  0  0  0
  190.1800  178.5190  144.4830 C   0  0  0  0  0  2  0  0  0  0  0  0
  1  2  2  0  0  0  0
  2  7  2  0  0  0  0
  3 10  1  0  0  0  0
  4  7  1  0  0  0  0
  6  3  1  1  0  0  0
  6  8  1  0  0  0  0
  6  9  1  0  0  0  0
  7 20  1  0  0  0  0
  8  5  1  1  0  0  0
  8  9  1  0  0  0  0
  9  4  1  1  0  0  0
 10  1  1  0  0  0  0
 11 15  1  0  0  0  0
 11 12  1  0  0  0  0
 12 14  1  6  0  0  0
 12 18  1  0  0  0  0
 13 16  2  0  0  0  0
 13 17  1  0  0  0  0
 15 13  1  0  0  0  0
 17  1  1  6  0  0  0
 18 17  1  0  0  0  0
 20 19  2  0  0  0  0
 20 21  1  0  0  0  0
 22 24  1  0  0  0  0
 23 28  1  0  0  0  0
 24 26  1  1  0  0  0
 25 23  2  0  0  0  0
 27 21  1  6  0  0  0
 27 23  1  0  0  0  0
 27 22  1  0  0  0  0
 28 24  1  0  0  0  0
M  END
>  <MODEL>
8

>  <REMARK>
 VINA RESULT:      -7.8      3.126      9.104
  Name = 
  3 active torsions:
  status: ('A' for Active; 'I' for Inactive)
    1  A    between atoms: C_4  and  C_26
    2  A    between atoms: C_6  and  C_18
    3  A    between atoms: N_7  and  C_24
                            x       y       z     vdW  Elec       q    Type
                         _______ _______ _______ _____ _____    ______ ____

>  <TORSDO>
F 3

$$$$
=
 OpenBabel11062413313D

 28 31  0  0  1  0  0  0  0  0999 V2000
  187.5040  177.7940  144.1860 C   0  0  0  0  0  0  0  0  0  0  0  0
  187.7680  177.8620  142.9190 C   0  0  0  0  0  0  0  0  0  0  0  0
  189.9930  177.9020  144.6000 C   0  0  0  0  0  2  0  0  0  0  0  0
  189.6990  177.5490  141.6900 O   0  0  0  0  0  0  0  0  0  0  0  0
  191.9730  178.0890  142.7720 O   0  0  0  0  0  1  0  0  0  0  0  0
  190.4420  176.5900  143.9350 C   0  0  2  0  0  3  0  0  0  0  0  0
  188.3500  177.9230  141.7610 C   0  0  0  0  0  0  0  0  0  0  0  0
  191.6280  176.7460  142.9780 C   0  0  1  0  0  3  0  0  0  0  0  0
  190.2420  176.4290  142.4130 C   0  0  2  0  0  3  0  0  0  0  0  0
  188.6150  177.7850  145.0920 N   0  0  0  0  0  2  0  0  0  0  0  0
  183.8180  179.3780  145.4050 C   0  0  0  0  0  2  0  0  0  0  0  0
  183.7380  178.4000  144.2420 C   0  0  1  0  0  3  0  0  0  0  0  0
  185.9160  178.2300  146.0510 C   0  0  0  0  0  0  0  0  0  0  0  0
  182.8730  178.9030  143.2720 O   0  0  0  0  0  1  0  0  0  0  0  0
  184.7450  178.9190  146.3870 O   0  0  0  0  0  0  0  0  0  0  0  0
  186.7730  178.0030  146.9470 O   0  0  0  0  0  0  0  0  0  0  0  0
  186.0970  177.6460  144.6700 C   0  0  1  0  0  3  0  0  0  0  0  0
  185.1320  178.2530  143.6510 C   0  0  0  0  0  2  0  0  0  0  0  0
  188.3590  179.0020  139.6640 O   0  0  0  0  0  0  0  0  0  0  0  0
  187.6710  178.4920  140.5890 C   0  0  0  0  0  0  0  0  0  0  0  0
  186.2380  178.4650  140.4990 N   0  0  0  0  0  2  0  0  0  0  0  0
  184.0430  179.3620  139.8420 C   0  0  0  0  0  2  0  0  0  0  0  0
  185.2470  177.9960  138.3230 C   0  0  0  0  0  0  0  0  0  0  0  0
  183.0700  178.7960  138.8040 C   0  0  1  0  0  3  0  0  0  0  0  0
  186.1670  177.4190  137.7640 O   0  0  0  0  0  0  0  0  0  0  0  0
  182.6280  179.8270  137.9760 O   0  0  0  0  0  1  0  0  0  0  0  0
  185.4500  179.0030  139.3900 C   0  0  2  0  0  3  0  0  0  0  0  0
  183.8280  177.7720  137.9710 C   0  0  0  0  0  2  0  0  0  0  0  0
  1 10  1  0  0  0  0
  2  1  2  0  0  0  0
  3 10  1  0  0  0  0
  4  7  1  0  0  0  0
  6  3  1  6  0  0  0
  7  2  2  0  0  0  0
  8  5  1  6  0  0  0
  8  6  1  0  0  0  0
  9  4  1  6  0  0  0
  9  8  1  0  0  0  0
  9  6  1  0  0  0  0
 11 15  1  0  0  0  0
 12 14  1  6  0  0  0
 12 11  1  0  0  0  0
 13 15  1  0  0  0  0
 13 16  2  0  0  0  0
 17  1  1  6  0  0  0
 17 13  1  0  0  0  0
 18 12  1  0  0  0  0
 18 17  1  0  0  0  0
 19 20  2  0  0  0  0
 20  7  1  0  0  0  0
 21 20  1  0  0  0  0
 23 27  1  0  0  0  0
 24 26  1  6  0  0  0
 24 22  1  0  0  0  0
 25 23  2  0  0  0  0
 27 22  1  0  0  0  0
 27 21  1  1  0  0  0
 28 23  1  0  0  0  0
 28 24  1  0  0  0  0
M  END
>  <MODEL>
9

>  <REMARK>
 VINA RESULT:      -7.8      2.373      3.537
  Name = 
  3 active torsions:
  status: ('A' for Active; 'I' for Inactive)
    1  A    between atoms: C_4  and  C_26
    2  A    between atoms: C_6  and  C_18
    3  A    between atoms: N_7  and  C_24
                            x       y       z     vdW  Elec       q    Type
                         _______ _______ _______ _____ _____    ______ ____

>  <TORSDO>
F 3

$$$$
