=
 OpenBabel11062414533D

 56 66  0  0  1  0  0  0  0  0999 V2000
  186.9650  177.4570  137.2730 C   0  0  2  0  0  3  0  0  0  0  0  0
  184.6070  172.9060  138.4630 C   0  0  0  0  0  2  0  0  0  0  0  0
  185.0510  176.9580  135.6930 C   0  0  1  0  0  3  0  0  0  0  0  0
  184.5550  178.0950  138.1100 C   0  0  0  0  0  2  0  0  0  0  0  0
  186.5580  178.7870  136.6600 C   0  0  0  0  0  2  0  0  0  0  0  0
  182.9140  175.4390  135.3310 C   0  0  2  0  0  0  0  0  0  0  0  0
  183.0380  177.7920  138.0010 C   0  0  1  0  0  0  0  0  0  0  0  0
  185.5030  177.7350  136.9330 C   0  0  1  0  0  0  0  0  0  0  0  0
  181.9920  175.2050  138.0460 O   0  0  0  0  0  1  0  0  0  0  0  0
  184.2170  175.7400  136.0890 C   0  0  2  0  0  0  0  0  0  0  0  0
  181.8520  176.5170  135.4160 C   0  0  2  0  0  3  0  0  0  0  0  0
  182.7440  176.2930  136.9860 P   0  0  0  0  0  0  0  0  0  0  0  0
  183.8930  171.9100  136.2000 C   0  0  0  0  0  2  0  0  0  0  0  0
  183.1550  173.1740  136.2910 N   0  0  0  0  0  0  0  0  0  0  0  0
  184.2300  173.6000  137.1770 C   0  0  2  0  0  0  0  0  0  0  0  0
  184.9820  172.2810  137.1420 C   0  0  1  0  0  0  0  0  0  0  0  0
  184.3920  177.8020  134.7940 O   0  0  0  0  0  1  0  0  0  0  0  0
  184.9920  174.7060  136.7230 O   0  0  0  0  0  0  0  0  0  0  0  0
  182.4560  174.0120  135.4020 C   0  0  0  0  0  0  0  0  0  0  0  0
  186.2560  172.5080  136.6140 O   0  0  0  0  0  1  0  0  0  0  0  0
  181.6130  173.5410  134.5940 O   0  0  0  0  0  0  0  0  0  0  0  0
  183.4730  176.9240  140.2780 O   0  0  0  0  0  0  0  0  0  0  0  0
  180.8100  177.9820  141.0680 C   0  0  0  0  0  2  0  0  0  0  0  0
  182.1550  178.3620  141.6720 C   0  0  0  0  0  2  0  0  0  0  0  0
  182.5420  177.5740  139.4480 C   0  0  1  0  0  0  0  0  0  0  0  0
  183.1950  178.2820  140.5650 C   0  0  2  0  0  3  0  0  0  0  0  0
  181.1060  177.2250  139.7890 C   0  0  0  0  0  2  0  0  0  0  0  0
  182.2880  178.8710  137.4170 O   0  0  0  0  0  0  0  0  0  0  0  0
  181.9070  180.0770  138.0180 C   0  0  0  0  0  0  0  0  0  0  0  0
  182.7270  180.7830  138.6610 O   0  0  0  0  0  0  0  0  0  0  0  0
  180.4720  180.4760  137.9780 C   0  0  0  0  0  2  0  0  0  0  0  0
  180.2120  181.6110  138.9500 C   0  0  0  0  0  1  0  0  0  0  0  0
  180.5360  175.9950  135.5600 O   0  0  0  0  0  0  0  0  0  0  0  0
  178.9550  177.5820  134.9940 O   0  0  0  0  0  0  0  0  0  0  0  0
  179.4540  176.8200  135.8650 C   0  0  0  0  0  0  0  0  0  0  0  0
  178.9320  176.8170  137.1490 O   0  0  0  0  0  1  0  0  0  0  0  0
  187.3040  177.6440  138.7450 C   0  0  0  0  0  2  0  0  0  0  0  0
  188.8030  177.8080  138.8980 C   0  0  0  0  0  2  0  0  0  0  0  0
  192.3480  176.1910  140.9430 O   0  0  0  0  0  1  0  0  0  0  0  0
  188.4410  176.4520  142.4270 O   0  0  0  0  0  0  0  0  0  0  0  0
  190.6570  177.8140  140.5850 C   0  0  0  0  0  2  0  0  0  0  0  0
  191.0260  176.5050  141.2770 C   0  0  2  0  0  3  0  0  0  0  0  0
  189.4800  176.1400  143.3130 C   0  0  0  0  0  2  0  0  0  0  0  0
  188.5930  179.0580  140.9320 O   0  0  0  0  0  0  0  0  0  0  0  0
  191.9290  175.9290  143.6040 C   0  0  0  0  0  1  0  0  0  0  0  0
  189.6160  179.4540  143.1250 C   0  0  0  0  0  1  0  0  0  0  0  0
  188.4330  178.9160  142.3350 C   0  0  2  0  0  3  0  0  0  0  0  0
  190.8420  176.6370  142.8070 C   0  0  1  0  0  3  0  0  0  0  0  0
  189.1520  177.8950  140.3680 C   0  0  1  0  0  3  0  0  0  0  0  0
  187.8100  177.6150  142.9010 C   0  0  1  0  0  3  0  0  0  0  0  0
  186.3420  177.5680  142.5190 C   0  0  0  0  0  2  0  0  0  0  0  0
  185.5830  178.7330  143.1360 C   0  0  0  0  0  2  0  0  0  0  0  0
  184.7990  178.3030  144.3710 C   0  0  0  0  0  2  0  0  0  0  0  0
  185.1690  179.1570  145.5750 C   0  0  0  0  0  3  0  0  0  0  0  0
  184.9540  178.3600  146.8470 C   0  0  0  0  0  2  0  0  0  0  0  0
  186.3490  178.5310  146.2830 C   0  0  0  0  0  2  0  0  0  0  0  0
  1 37  1  1  0  0  0
  3 17  1  6  0  0  0
  3 10  1  0  0  0  0
  3  8  1  0  0  0  0
  5  1  1  0  0  0  0
  6 19  1  6  0  0  0
  6 11  1  0  0  0  0
  6 10  1  0  0  0  0
  6 12  1  0  0  0  0
  7 28  1  6  0  0  0
  7  4  1  0  0  0  0
  7 25  1  0  0  0  0
  8  5  1  6  0  0  0
  8  1  1  0  0  0  0
  8  4  1  0  0  0  0
 10 18  1  1  0  0  0
 10 12  1  0  0  0  0
 11 33  1  1  0  0  0
 11 12  1  0  0  0  0
 12  7  1  0  0  0  0
 12  9  1  0  0  0  0
 13 14  1  0  0  0  0
 13 16  1  0  0  0  0
 14 15  1  0  0  0  0
 15  2  1  1  0  0  0
 16 20  1  6  0  0  0
 16 15  1  0  0  0  0
 16  2  1  0  0  0  0
 18 15  1  0  0  0  0
 19 14  1  0  0  0  0
 21 19  2  0  0  0  0
 22 26  1  0  0  0  0
 23 24  1  0  0  0  0
 25 27  1  1  0  0  0
 25 22  1  0  0  0  0
 25 26  1  0  0  0  0
 26 24  1  1  0  0  0
 27 23  1  0  0  0  0
 28 29  1  0  0  0  0
 29 30  2  0  0  0  0
 31 29  1  0  0  0  0
 31 32  1  0  0  0  0
 33 35  1  0  0  0  0
 34 35  2  0  0  0  0
 35 36  1  0  0  0  0
 37 38  1  0  0  0  0
 40 50  1  0  0  0  0
 40 43  1  0  0  0  0
 41 42  1  0  0  0  0
 42 39  1  1  0  0  0
 42 48  1  0  0  0  0
 44 47  1  0  0  0  0
 47 50  1  0  0  0  0
 47 46  1  1  0  0  0
 48 43  1  0  0  0  0
 48 45  1  1  0  0  0
 49 38  1  6  0  0  0
 49 41  1  0  0  0  0
 49 44  1  0  0  0  0
 50 51  1  6  0  0  0
 51 52  1  0  0  0  0
 52 53  1  0  0  0  0
 53 54  1  0  0  0  0
 54 56  1  0  0  0  0
 54 55  1  0  0  0  0
 56 55  1  0  0  0  0
M  END
>  <MODEL>
1

>  <REMARK>
 VINA RESULT:      -4.9      0.000      0.000
  Name = 
  13 active torsions:
  status: ('A' for Active; 'I' for Inactive)
    1  A    between atoms: C_1  and  C_48
    2  A    between atoms: O_6  and  C_14
    3  A    between atoms: O_6  and  C_16
    4  A    between atoms: C_11  and  C_16
    5  A    between atoms: C_12  and  C_55
    6  A    between atoms: C_12  and  C_56
    7  A    between atoms: C_14  and  C_21
    8  A    between atoms: O_15  and  C_24
    9  A    between atoms: O_15  and  C_47
   10  A    between atoms: C_23  and  C_48
   11  A    between atoms: C_23  and  C_50
   12  A    between atoms: C_27  and  C_36
   13  A    between atoms: C_36  and  C_56
                            x       y       z     vdW  Elec       q    Type
                         _______ _______ _______ _____ _____    ______ ____

>  <TORSDO>
F 13

$$$$
=
 OpenBabel11062414533D

 56 66  0  0  1  0  0  0  0  0999 V2000
  185.3590  177.1820  135.0850 C   0  0  2  0  0  3  0  0  0  0  0  0
  184.7810  172.9400  138.1440 C   0  0  0  0  0  2  0  0  0  0  0  0
  182.9780  176.3230  135.0480 C   0  0  1  0  0  3  0  0  0  0  0  0
  183.8080  177.9350  137.0710 C   0  0  0  0  0  2  0  0  0  0  0  0
  184.4920  178.3450  134.6300 C   0  0  0  0  0  2  0  0  0  0  0  0
  181.2610  174.7210  136.2680 C   0  0  2  0  0  0  0  0  0  0  0  0
  182.5660  177.5860  137.9310 C   0  0  1  0  0  0  0  0  0  0  0  0
  183.9460  177.3530  135.6380 C   0  0  1  0  0  0  0  0  0  0  0  0
  182.1120  175.0470  138.9970 O   0  0  0  0  0  1  0  0  0  0  0  0
  182.7040  175.2000  136.0480 C   0  0  2  0  0  0  0  0  0  0  0  0
  180.3030  175.7710  136.7920 C   0  0  2  0  0  3  0  0  0  0  0  0
  181.9560  175.9020  137.5410 P   0  0  0  0  0  0  0  0  0  0  0  0
  183.0450  171.4740  136.9370 C   0  0  0  0  0  2  0  0  0  0  0  0
  182.3250  172.7150  137.2440 N   0  0  0  0  0  0  0  0  0  0  0  0
  183.6410  173.3390  137.2410 C   0  0  2  0  0  0  0  0  0  0  0  0
  184.4120  172.0580  136.9780 C   0  0  1  0  0  0  0  0  0  0  0  0
  181.8110  176.9450  134.5940 O   0  0  0  0  0  1  0  0  0  0  0  0
  183.8380  174.3390  136.2550 O   0  0  0  0  0  0  0  0  0  0  0  0
  181.1320  173.3320  136.8220 C   0  0  0  0  0  0  0  0  0  0  0  0
  185.1040  172.1930  135.7710 O   0  0  0  0  0  1  0  0  0  0  0  0
  180.0540  172.6850  136.7570 O   0  0  0  0  0  0  0  0  0  0  0  0
  184.2390  177.0020  139.6580 O   0  0  0  0  0  0  0  0  0  0  0  0
  182.6380  178.5960  141.5890 C   0  0  0  0  0  2  0  0  0  0  0  0
  184.0920  178.8290  141.2030 C   0  0  0  0  0  2  0  0  0  0  0  0
  183.0280  177.6690  139.4020 C   0  0  1  0  0  0  0  0  0  0  0  0
  184.2540  178.4140  139.7480 C   0  0  2  0  0  3  0  0  0  0  0  0
  182.0700  177.6200  140.5770 C   0  0  0  0  0  2  0  0  0  0  0  0
  181.4740  178.5020  137.7410 O   0  0  0  0  0  0  0  0  0  0  0  0
  181.5220  179.9020  137.7070 C   0  0  0  0  0  0  0  0  0  0  0  0
  181.9860  180.5710  138.6670 O   0  0  0  0  0  0  0  0  0  0  0  0
  180.9130  180.6130  136.5480 C   0  0  0  0  0  2  0  0  0  0  0  0
  179.6270  179.9300  136.1250 C   0  0  0  0  0  1  0  0  0  0  0  0
  179.3970  175.2660  137.7670 O   0  0  0  0  0  0  0  0  0  0  0  0
  178.9320  177.2030  138.9370 O   0  0  0  0  0  0  0  0  0  0  0  0
  179.1360  175.9590  138.9480 C   0  0  0  0  0  0  0  0  0  0  0  0
  179.1190  175.2770  140.1540 O   0  0  0  0  0  1  0  0  0  0  0  0
  186.4520  177.6820  136.0180 C   0  0  0  0  0  2  0  0  0  0  0  0
  187.7330  177.8800  135.2310 C   0  0  0  0  0  2  0  0  0  0  0  0
  186.9130  173.5990  134.6310 O   0  0  0  0  0  1  0  0  0  0  0  0
  189.2430  175.3580  137.6350 O   0  0  0  0  0  0  0  0  0  0  0  0
  188.2990  175.5230  134.5940 C   0  0  0  0  0  2  0  0  0  0  0  0
  187.7450  174.3800  135.4410 C   0  0  2  0  0  3  0  0  0  0  0  0
  189.3030  173.9690  137.4600 C   0  0  0  0  0  2  0  0  0  0  0  0
  190.0000  177.1100  135.3100 O   0  0  0  0  0  0  0  0  0  0  0  0
  188.6190  172.0510  136.0530 C   0  0  0  0  0  1  0  0  0  0  0  0
  191.4180  175.1150  135.1670 C   0  0  0  0  0  1  0  0  0  0  0  0
  190.8790  176.2510  136.0220 C   0  0  2  0  0  3  0  0  0  0  0  0
  188.9040  173.5460  136.0380 C   0  0  1  0  0  3  0  0  0  0  0  0
  188.6600  176.7100  135.4770 C   0  0  1  0  0  3  0  0  0  0  0  0
  190.5440  175.8640  137.4840 C   0  0  1  0  0  3  0  0  0  0  0  0
  190.6980  177.0930  138.3630 C   0  0  0  0  0  2  0  0  0  0  0  0
  189.4810  177.2760  139.2570 C   0  0  0  0  0  2  0  0  0  0  0  0
  189.8810  177.5150  140.7100 C   0  0  0  0  0  2  0  0  0  0  0  0
  189.2150  176.5040  141.6310 C   0  0  0  0  0  3  0  0  0  0  0  0
  189.3930  176.9380  143.0730 C   0  0  0  0  0  2  0  0  0  0  0  0
  188.0760  177.1770  142.3640 C   0  0  0  0  0  2  0  0  0  0  0  0
  1  8  1  0  0  0  0
  1 37  1  1  0  0  0
  3 17  1  1  0  0  0
  3  8  1  0  0  0  0
  3 10  1  0  0  0  0
  4  7  1  0  0  0  0
  5  1  1  0  0  0  0
  6 11  1  0  0  0  0
  6 19  1  1  0  0  0
  6 12  1  0  0  0  0
  7 28  1  6  0  0  0
  7 25  1  0  0  0  0
  8  5  1  6  0  0  0
  8  4  1  0  0  0  0
 10 18  1  1  0  0  0
 10  6  1  0  0  0  0
 10 12  1  0  0  0  0
 11 12  1  0  0  0  0
 11 33  1  1  0  0  0
 12  7  1  0  0  0  0
 12  9  1  0  0  0  0
 13 16  1  0  0  0  0
 13 14  1  0  0  0  0
 15 14  1  0  0  0  0
 15  2  1  1  0  0  0
 16 20  1  6  0  0  0
 16 15  1  0  0  0  0
 16  2  1  0  0  0  0
 18 15  1  0  0  0  0
 19 14  1  0  0  0  0
 21 19  2  0  0  0  0
 22 26  1  0  0  0  0
 24 23  1  0  0  0  0
 25 22  1  0  0  0  0
 25 26  1  0  0  0  0
 25 27  1  1  0  0  0
 26 24  1  1  0  0  0
 27 23  1  0  0  0  0
 29 28  1  0  0  0  0
 29 30  2  0  0  0  0
 31 29  1  0  0  0  0
 32 31  1  0  0  0  0
 33 35  1  0  0  0  0
 34 35  2  0  0  0  0
 35 36  1  0  0  0  0
 38 37  1  0  0  0  0
 41 42  1  0  0  0  0
 41 49  1  0  0  0  0
 42 39  1  6  0  0  0
 42 48  1  0  0  0  0
 43 40  1  0  0  0  0
 44 49  1  0  0  0  0
 44 47  1  0  0  0  0
 47 46  1  6  0  0  0
 47 50  1  0  0  0  0
 48 45  1  1  0  0  0
 48 43  1  0  0  0  0
 49 38  1  6  0  0  0
 50 40  1  0  0  0  0
 50 51  1  1  0  0  0
 51 52  1  0  0  0  0
 52 53  1  0  0  0  0
 53 54  1  0  0  0  0
 54 56  1  0  0  0  0
 54 55  1  0  0  0  0
 56 55  1  0  0  0  0
M  END
>  <MODEL>
2

>  <REMARK>
 VINA RESULT:      -4.6      2.254      4.197
  Name = 
  13 active torsions:
  status: ('A' for Active; 'I' for Inactive)
    1  A    between atoms: C_1  and  C_48
    2  A    between atoms: O_6  and  C_14
    3  A    between atoms: O_6  and  C_16
    4  A    between atoms: C_11  and  C_16
    5  A    between atoms: C_12  and  C_55
    6  A    between atoms: C_12  and  C_56
    7  A    between atoms: C_14  and  C_21
    8  A    between atoms: O_15  and  C_24
    9  A    between atoms: O_15  and  C_47
   10  A    between atoms: C_23  and  C_48
   11  A    between atoms: C_23  and  C_50
   12  A    between atoms: C_27  and  C_36
   13  A    between atoms: C_36  and  C_56
                            x       y       z     vdW  Elec       q    Type
                         _______ _______ _______ _____ _____    ______ ____

>  <TORSDO>
F 13

$$$$
=
 OpenBabel11062414533D

 56 66  0  0  1  0  0  0  0  0999 V2000
  183.8220  175.8540  138.0860 C   0  0  2  0  0  3  0  0  0  0  0  0
  185.0900  179.6220  141.5320 C   0  0  0  0  0  2  0  0  0  0  0  0
  182.0360  176.1360  139.8580 C   0  0  1  0  0  3  0  0  0  0  0  0
  182.0850  177.7910  137.7030 C   0  0  0  0  0  2  0  0  0  0  0  0
  182.5450  175.2720  137.5020 C   0  0  0  0  0  2  0  0  0  0  0  0
  181.1590  177.7320  141.7780 C   0  0  2  0  0  0  0  0  0  0  0  0
  181.1040  178.7850  138.3770 C   0  0  1  0  0  0  0  0  0  0  0  0
  182.4670  176.4710  138.4260 C   0  0  1  0  0  0  0  0  0  0  0  0
  181.7700  180.2970  140.6270 O   0  0  0  0  0  1  0  0  0  0  0  0
  182.2610  177.3290  140.7850 C   0  0  2  0  0  0  0  0  0  0  0  0
  179.8410  178.1380  141.1520 C   0  0  2  0  0  3  0  0  0  0  0  0
  181.2750  178.7320  140.2020 P   0  0  0  0  0  0  0  0  0  0  0  0
  184.1540  178.8110  143.7870 C   0  0  0  0  0  2  0  0  0  0  0  0
  182.9710  178.9550  142.9320 N   0  0  0  0  0  0  0  0  0  0  0  0
  183.8950  178.7490  141.8240 C   0  0  2  0  0  0  0  0  0  0  0  0
  185.1410  178.6530  142.6860 C   0  0  1  0  0  0  0  0  0  0  0  0
  180.7180  175.6690  139.8800 O   0  0  0  0  0  1  0  0  0  0  0  0
  183.6530  177.5970  141.0350 O   0  0  0  0  0  0  0  0  0  0  0  0
  181.6320  178.5220  142.9640 C   0  0  0  0  0  0  0  0  0  0  0  0
  185.7170  177.3930  142.4970 O   0  0  0  0  0  1  0  0  0  0  0  0
  180.9350  178.6460  144.0040 O   0  0  0  0  0  0  0  0  0  0  0  0
  181.3310  180.3150  136.4450 O   0  0  0  0  0  0  0  0  0  0  0  0
  182.1300  182.4400  138.3650 C   0  0  0  0  0  2  0  0  0  0  0  0
  180.9440  182.4750  137.4100 C   0  0  0  0  0  2  0  0  0  0  0  0
  181.4770  180.1840  137.8380 C   0  0  1  0  0  0  0  0  0  0  0  0
  180.4340  181.0500  137.2560 C   0  0  2  0  0  3  0  0  0  0  0  0
  182.6250  181.0070  138.3890 C   0  0  0  0  0  2  0  0  0  0  0  0
  179.7270  178.5220  138.0580 O   0  0  0  0  0  0  0  0  0  0  0  0
  179.2140  177.5270  137.2150 C   0  0  0  0  0  0  0  0  0  0  0  0
  178.9320  176.3780  137.6440 O   0  0  0  0  0  0  0  0  0  0  0  0
  179.1010  177.8120  135.7570 C   0  0  0  0  0  2  0  0  0  0  0  0
  179.6670  176.6600  134.9480 C   0  0  0  0  0  1  0  0  0  0  0  0
  179.2310  179.2490  141.8020 O   0  0  0  0  0  0  0  0  0  0  0  0
  178.9300  180.6000  139.9520 O   0  0  0  0  0  0  0  0  0  0  0  0
  179.1520  180.4980  141.1890 C   0  0  0  0  0  0  0  0  0  0  0  0
  179.3380  181.6440  141.9450 O   0  0  0  0  0  1  0  0  0  0  0  0
  184.5900  176.6060  137.0090 C   0  0  0  0  0  2  0  0  0  0  0  0
  185.6460  177.4770  137.6610 C   0  0  0  0  0  2  0  0  0  0  0  0
  186.8550  173.7890  135.5880 O   0  0  0  0  0  1  0  0  0  0  0  0
  189.1570  176.1300  138.1880 O   0  0  0  0  0  0  0  0  0  0  0  0
  186.8880  176.1330  135.9490 C   0  0  0  0  0  2  0  0  0  0  0  0
  187.4720  174.7830  136.3560 C   0  0  2  0  0  3  0  0  0  0  0  0
  189.7930  175.1360  137.4330 C   0  0  0  0  0  2  0  0  0  0  0  0
  187.6870  178.3020  136.7140 O   0  0  0  0  0  0  0  0  0  0  0  0
  189.5420  173.4600  135.6290 C   0  0  0  0  0  1  0  0  0  0  0  0
  189.6080  177.6910  135.3170 C   0  0  0  0  0  1  0  0  0  0  0  0
  189.0910  178.0890  136.6910 C   0  0  2  0  0  3  0  0  0  0  0  0
  189.0070  174.7820  136.1610 C   0  0  1  0  0  3  0  0  0  0  0  0
  187.0060  177.1290  137.0940 C   0  0  1  0  0  3  0  0  0  0  0  0
  189.7670  177.3570  137.8770 C   0  0  1  0  0  3  0  0  0  0  0  0
  189.7140  178.2550  139.1000 C   0  0  0  0  0  2  0  0  0  0  0  0
  188.5580  177.8660  140.0100 C   0  0  0  0  0  2  0  0  0  0  0  0
  188.9210  178.0270  141.4820 C   0  0  0  0  0  2  0  0  0  0  0  0
  190.3700  177.6380  141.7310 C   0  0  0  0  0  3  0  0  0  0  0  0
  190.5970  177.4580  143.2200 C   0  0  0  0  0  2  0  0  0  0  0  0
  190.4140  176.2490  142.3260 C   0  0  0  0  0  2  0  0  0  0  0  0
  1 37  1  6  0  0  0
  1  8  1  0  0  0  0
  2 16  1  0  0  0  0
  3 17  1  6  0  0  0
  3 10  1  0  0  0  0
  4  7  1  0  0  0  0
  4  8  1  0  0  0  0
  5  1  1  0  0  0  0
  6 19  1  1  0  0  0
  7 28  1  6  0  0  0
  7 12  1  0  0  0  0
  8  5  1  6  0  0  0
  8  3  1  0  0  0  0
 10 18  1  1  0  0  0
 10  6  1  0  0  0  0
 11  6  1  0  0  0  0
 11 33  1  1  0  0  0
 12  9  1  0  0  0  0
 12 10  1  0  0  0  0
 12 11  1  0  0  0  0
 12  6  1  0  0  0  0
 14 19  1  0  0  0  0
 14 13  1  0  0  0  0
 15  2  1  6  0  0  0
 15 16  1  0  0  0  0
 15 14  1  0  0  0  0
 16 20  1  6  0  0  0
 16 13  1  0  0  0  0
 18 15  1  0  0  0  0
 19 21  2  0  0  0  0
 22 26  1  0  0  0  0
 22 25  1  0  0  0  0
 23 27  1  0  0  0  0
 24 23  1  0  0  0  0
 25  7  1  0  0  0  0
 25 27  1  1  0  0  0
 26 24  1  1  0  0  0
 26 25  1  0  0  0  0
 29 30  2  0  0  0  0
 29 28  1  0  0  0  0
 31 29  1  0  0  0  0
 32 31  1  0  0  0  0
 34 35  2  0  0  0  0
 35 33  1  0  0  0  0
 35 36  1  0  0  0  0
 37 38  1  0  0  0  0
 41 42  1  0  0  0  0
 41 49  1  0  0  0  0
 42 39  1  6  0  0  0
 43 40  1  0  0  0  0
 44 49  1  0  0  0  0
 47 46  1  6  0  0  0
 47 44  1  0  0  0  0
 47 50  1  0  0  0  0
 48 45  1  1  0  0  0
 48 42  1  0  0  0  0
 48 43  1  0  0  0  0
 49 38  1  6  0  0  0
 50 40  1  0  0  0  0
 50 51  1  1  0  0  0
 51 52  1  0  0  0  0
 52 53  1  0  0  0  0
 53 54  1  0  0  0  0
 54 56  1  0  0  0  0
 54 55  1  0  0  0  0
 56 55  1  0  0  0  0
M  END
>  <MODEL>
3

>  <REMARK>
 VINA RESULT:      -4.0      2.616      6.101
  Name = 
  13 active torsions:
  status: ('A' for Active; 'I' for Inactive)
    1  A    between atoms: C_1  and  C_48
    2  A    between atoms: O_6  and  C_14
    3  A    between atoms: O_6  and  C_16
    4  A    between atoms: C_11  and  C_16
    5  A    between atoms: C_12  and  C_55
    6  A    between atoms: C_12  and  C_56
    7  A    between atoms: C_14  and  C_21
    8  A    between atoms: O_15  and  C_24
    9  A    between atoms: O_15  and  C_47
   10  A    between atoms: C_23  and  C_48
   11  A    between atoms: C_23  and  C_50
   12  A    between atoms: C_27  and  C_36
   13  A    between atoms: C_36  and  C_56
                            x       y       z     vdW  Elec       q    Type
                         _______ _______ _______ _____ _____    ______ ____

>  <TORSDO>
F 13

$$$$
=
 OpenBabel11062414533D

 56 66  0  0  1  0  0  0  0  0999 V2000
  186.0530  179.0220  139.0400 C   0  0  2  0  0  3  0  0  0  0  0  0
  188.9700  175.9660  142.1770 C   0  0  0  0  0  2  0  0  0  0  0  0
  188.4670  178.9430  138.2820 C   0  0  1  0  0  3  0  0  0  0  0  0
  186.7560  176.9540  137.5750 C   0  0  0  0  0  2  0  0  0  0  0  0
  186.0550  179.4240  137.5740 C   0  0  0  0  0  2  0  0  0  0  0  0
  190.7580  177.6470  138.5630 C   0  0  2  0  0  0  0  0  0  0  0  0
  187.9240  176.0340  137.1330 C   0  0  1  0  0  0  0  0  0  0  0  0
  187.0520  178.3970  138.0690 C   0  0  1  0  0  0  0  0  0  0  0  0
  189.7840  174.9630  138.9170 O   0  0  0  0  0  1  0  0  0  0  0  0
  189.3280  177.9380  139.0470 C   0  0  2  0  0  0  0  0  0  0  0  0
  190.8640  177.0680  137.1670 C   0  0  2  0  0  3  0  0  0  0  0  0
  189.4440  176.4040  138.0900 P   0  0  0  0  0  0  0  0  0  0  0  0
  191.2820  177.0920  142.2490 C   0  0  0  0  0  2  0  0  0  0  0  0
  191.0910  176.7400  140.8380 N   0  0  0  0  0  0  0  0  0  0  0  0
  189.6670  176.8070  141.1370 C   0  0  2  0  0  0  0  0  0  0  0  0
  189.8410  177.1180  142.6130 C   0  0  1  0  0  0  0  0  0  0  0  0
  189.0350  179.3330  137.0650 O   0  0  0  0  0  1  0  0  0  0  0  0
  188.9410  177.7950  140.4250 O   0  0  0  0  0  0  0  0  0  0  0  0
  191.6810  177.0970  139.6110 C   0  0  0  0  0  0  0  0  0  0  0  0
  189.2530  178.3580  142.8800 O   0  0  0  0  0  1  0  0  0  0  0  0
  192.9320  177.1100  139.4710 O   0  0  0  0  0  0  0  0  0  0  0  0
  186.1790  174.5030  137.9910 O   0  0  0  0  0  0  0  0  0  0  0  0
  187.9010  172.2380  137.1310 C   0  0  0  0  0  2  0  0  0  0  0  0
  186.4820  172.5300  136.6640 C   0  0  0  0  0  2  0  0  0  0  0  0
  187.4520  174.5880  137.4000 C   0  0  1  0  0  0  0  0  0  0  0  0
  186.3000  174.0410  136.6590 C   0  0  2  0  0  3  0  0  0  0  0  0
  188.3850  173.4810  137.8530 C   0  0  0  0  0  2  0  0  0  0  0  0
  188.2440  176.1620  135.7370 O   0  0  0  0  0  0  0  0  0  0  0  0
  188.2040  177.3200  134.9480 C   0  0  0  0  0  0  0  0  0  0  0  0
  189.2560  177.9140  134.5940 O   0  0  0  0  0  0  0  0  0  0  0  0
  186.8800  177.9130  134.6120 C   0  0  0  0  0  2  0  0  0  0  0  0
  185.8090  176.8390  134.5940 C   0  0  0  0  0  1  0  0  0  0  0  0
  191.8540  176.0510  137.0570 O   0  0  0  0  0  0  0  0  0  0  0  0
  193.4190  174.9330  135.7770 O   0  0  0  0  0  1  0  0  0  0  0  0
  192.4790  175.7700  135.8430 C   0  0  0  0  0  0  0  0  0  0  0  0
  192.0750  176.4340  134.6960 O   0  0  0  0  0  0  0  0  0  0  0  0
  184.8470  178.1430  139.3370 C   0  0  0  0  0  2  0  0  0  0  0  0
  184.0950  178.7060  140.5270 C   0  0  0  0  0  2  0  0  0  0  0  0
  181.9430  181.1960  137.6070 O   0  0  0  0  0  1  0  0  0  0  0  0
  180.6010  179.9320  141.3670 O   0  0  0  0  0  0  0  0  0  0  0  0
  182.3410  179.1870  138.8030 C   0  0  0  0  0  2  0  0  0  0  0  0
  181.6540  180.5500  138.8140 C   0  0  2  0  0  3  0  0  0  0  0  0
  179.6810  180.5070  140.4810 C   0  0  0  0  0  2  0  0  0  0  0  0
  182.0540  177.4510  140.4850 O   0  0  0  0  0  0  0  0  0  0  0  0
  179.3020  181.3490  138.1840 C   0  0  0  0  0  1  0  0  0  0  0  0
  179.8200  177.3410  139.4810 C   0  0  0  0  0  1  0  0  0  0  0  0
  180.6600  177.5510  140.7320 C   0  0  2  0  0  3  0  0  0  0  0  0
  180.1290  180.3790  139.0170 C   0  0  1  0  0  3  0  0  0  0  0  0
  182.6120  178.7180  140.2260 C   0  0  1  0  0  3  0  0  0  0  0  0
  180.1350  178.6480  141.6920 C   0  0  1  0  0  3  0  0  0  0  0  0
  180.5720  178.3090  143.1060 C   0  0  0  0  0  2  0  0  0  0  0  0
  181.6530  179.2680  143.5840 C   0  0  0  0  0  2  0  0  0  0  0  0
  182.6650  178.5700  144.4870 C   0  0  0  0  0  2  0  0  0  0  0  0
  183.9600  179.3650  144.5690 C   0  0  0  0  0  3  0  0  0  0  0  0
  184.9300  178.6580  145.4960 C   0  0  0  0  0  2  0  0  0  0  0  0
  185.0860  178.5360  143.9940 C   0  0  0  0  0  2  0  0  0  0  0  0
  1 37  1  6  0  0  0
  2 16  1  0  0  0  0
  3 17  1  6  0  0  0
  3 10  1  0  0  0  0
  4  8  1  0  0  0  0
  5  1  1  0  0  0  0
  6 10  1  0  0  0  0
  6 19  1  1  0  0  0
  7 28  1  6  0  0  0
  7 25  1  0  0  0  0
  7  4  1  0  0  0  0
  7 12  1  0  0  0  0
  8  5  1  6  0  0  0
  8  3  1  0  0  0  0
  8  1  1  0  0  0  0
 10 18  1  1  0  0  0
 11 33  1  1  0  0  0
 11 12  1  0  0  0  0
 11  6  1  0  0  0  0
 12  6  1  0  0  0  0
 12  9  1  0  0  0  0
 12 10  1  0  0  0  0
 13 16  1  0  0  0  0
 14 15  1  0  0  0  0
 14 13  1  0  0  0  0
 15  2  1  6  0  0  0
 15 16  1  0  0  0  0
 16 20  1  1  0  0  0
 18 15  1  0  0  0  0
 19 14  1  0  0  0  0
 21 19  2  0  0  0  0
 23 27  1  0  0  0  0
 24 23  1  0  0  0  0
 25 27  1  1  0  0  0
 25 22  1  0  0  0  0
 26 24  1  1  0  0  0
 26 25  1  0  0  0  0
 26 22  1  0  0  0  0
 29 28  1  0  0  0  0
 30 29  2  0  0  0  0
 31 29  1  0  0  0  0
 32 31  1  0  0  0  0
 34 35  1  0  0  0  0
 35 33  1  0  0  0  0
 36 35  2  0  0  0  0
 37 38  1  0  0  0  0
 40 50  1  0  0  0  0
 41 42  1  0  0  0  0
 41 49  1  0  0  0  0
 42 39  1  6  0  0  0
 42 48  1  0  0  0  0
 43 40  1  0  0  0  0
 44 47  1  0  0  0  0
 47 46  1  6  0  0  0
 47 50  1  0  0  0  0
 48 45  1  6  0  0  0
 48 43  1  0  0  0  0
 49 44  1  0  0  0  0
 49 38  1  6  0  0  0
 50 51  1  1  0  0  0
 51 52  1  0  0  0  0
 52 53  1  0  0  0  0
 53 54  1  0  0  0  0
 54 55  1  0  0  0  0
 56 54  1  0  0  0  0
 56 55  1  0  0  0  0
M  END
>  <MODEL>
4

>  <REMARK>
 VINA RESULT:      -3.5      2.874      8.295
  Name = 
  13 active torsions:
  status: ('A' for Active; 'I' for Inactive)
    1  A    between atoms: C_1  and  C_48
    2  A    between atoms: O_6  and  C_14
    3  A    between atoms: O_6  and  C_16
    4  A    between atoms: C_11  and  C_16
    5  A    between atoms: C_12  and  C_55
    6  A    between atoms: C_12  and  C_56
    7  A    between atoms: C_14  and  C_21
    8  A    between atoms: O_15  and  C_24
    9  A    between atoms: O_15  and  C_47
   10  A    between atoms: C_23  and  C_48
   11  A    between atoms: C_23  and  C_50
   12  A    between atoms: C_27  and  C_36
   13  A    between atoms: C_36  and  C_56
                            x       y       z     vdW  Elec       q    Type
                         _______ _______ _______ _____ _____    ______ ____

>  <TORSDO>
F 13

$$$$
=
 OpenBabel11062414533D

 56 66  0  0  1  0  0  0  0  0999 V2000
  186.2890  178.4900  137.0160 C   0  0  2  0  0  3  0  0  0  0  0  0
  188.2610  176.3970  141.4220 C   0  0  0  0  0  2  0  0  0  0  0  0
  188.8190  178.4250  136.9660 C   0  0  1  0  0  3  0  0  0  0  0  0
  187.3900  176.2130  136.2980 C   0  0  0  0  0  2  0  0  0  0  0  0
  186.6900  178.5680  135.5510 C   0  0  0  0  0  2  0  0  0  0  0  0
  190.9570  177.3880  138.1310 C   0  0  2  0  0  0  0  0  0  0  0  0
  188.6440  175.3060  136.4010 C   0  0  1  0  0  0  0  0  0  0  0  0
  187.5230  177.7450  136.5130 C   0  0  1  0  0  0  0  0  0  0  0  0
  189.9520  174.7800  138.8100 O   0  0  0  0  0  1  0  0  0  0  0  0
  189.4470  177.6720  138.1380 C   0  0  2  0  0  0  0  0  0  0  0  0
  191.4500  176.5320  136.9820 C   0  0  2  0  0  3  0  0  0  0  0  0
  189.8380  175.9810  137.6190 P   0  0  0  0  0  0  0  0  0  0  0  0
  190.4520  177.6760  141.8500 C   0  0  0  0  0  2  0  0  0  0  0  0
  190.6610  177.0170  140.5560 N   0  0  0  0  0  0  0  0  0  0  0  0
  189.2090  177.0440  140.4430 C   0  0  2  0  0  0  0  0  0  0  0  0
  188.9660  177.6750  141.8020 C   0  0  1  0  0  0  0  0  0  0  0  0
  189.6960  178.5840  135.8870 O   0  0  0  0  0  1  0  0  0  0  0  0
  188.6970  177.8000  139.3590 O   0  0  0  0  0  0  0  0  0  0  0  0
  191.5620  177.1430  139.4820 C   0  0  0  0  0  0  0  0  0  0  0  0
  188.3140  178.8980  141.6150 O   0  0  0  0  0  1  0  0  0  0  0  0
  192.8030  177.2170  139.6820 O   0  0  0  0  0  0  0  0  0  0  0  0
  186.9900  173.9740  137.6720 O   0  0  0  0  0  0  0  0  0  0  0  0
  188.3600  171.5310  136.6760 C   0  0  0  0  0  2  0  0  0  0  0  0
  186.9020  171.9090  136.4570 C   0  0  0  0  0  2  0  0  0  0  0  0
  188.1320  173.9200  136.8540 C   0  0  1  0  0  0  0  0  0  0  0  0
  186.8260  173.4260  136.3770 C   0  0  2  0  0  3  0  0  0  0  0  0
  189.0550  172.7690  137.2060 C   0  0  0  0  0  2  0  0  0  0  0  0
  189.3350  175.1540  135.1490 O   0  0  0  0  0  0  0  0  0  0  0  0
  190.5320  174.4680  134.9060 C   0  0  0  0  0  0  0  0  0  0  0  0
  191.5950  175.0760  134.6140 O   0  0  0  0  0  0  0  0  0  0  0  0
  190.5160  172.9780  134.8950 C   0  0  0  0  0  2  0  0  0  0  0  0
  191.9290  172.4330  134.9690 C   0  0  0  0  0  1  0  0  0  0  0  0
  192.4430  175.5890  137.3720 O   0  0  0  0  0  0  0  0  0  0  0  0
  194.2350  176.8180  136.5870 O   0  0  0  0  0  0  0  0  0  0  0  0
  193.7650  175.7050  136.9470 C   0  0  0  0  0  0  0  0  0  0  0  0
  194.5700  174.5780  136.8990 O   0  0  0  0  0  1  0  0  0  0  0  0
  185.0570  177.6110  137.1720 C   0  0  0  0  0  2  0  0  0  0  0  0
  183.8280  178.3860  136.7410 C   0  0  0  0  0  2  0  0  0  0  0  0
  179.9470  180.4510  136.9360 O   0  0  0  0  0  1  0  0  0  0  0  0
  182.4320  179.3760  140.1310 O   0  0  0  0  0  0  0  0  0  0  0  0
  181.3780  178.5820  137.2290 C   0  0  0  0  0  2  0  0  0  0  0  0
  180.8510  179.8790  137.8380 C   0  0  2  0  0  3  0  0  0  0  0  0
  181.1260  179.8000  140.4050 C   0  0  0  0  0  2  0  0  0  0  0  0
  182.7950  176.9650  138.3700 O   0  0  0  0  0  0  0  0  0  0  0  0
  178.9320  180.4250  139.4450 C   0  0  0  0  0  1  0  0  0  0  0  0
  180.7350  176.5890  139.6460 C   0  0  0  0  0  1  0  0  0  0  0  0
  182.2080  176.9650  139.6630 C   0  0  2  0  0  3  0  0  0  0  0  0
  180.1860  179.5970  139.2070 C   0  0  1  0  0  3  0  0  0  0  0  0
  182.7510  178.2500  137.7960 C   0  0  1  0  0  3  0  0  0  0  0  0
  182.5830  178.0860  140.6660 C   0  0  1  0  0  3  0  0  0  0  0  0
  184.0270  177.8970  141.0930 C   0  0  0  0  0  2  0  0  0  0  0  0
  184.4200  178.9220  142.1460 C   0  0  0  0  0  2  0  0  0  0  0  0
  184.3070  178.3530  143.5560 C   0  0  0  0  0  2  0  0  0  0  0  0
  185.3250  178.9970  144.4860 C   0  0  0  0  0  3  0  0  0  0  0  0
  185.0010  178.6320  145.9220 C   0  0  0  0  0  2  0  0  0  0  0  0
  186.1120  177.9120  145.1860 C   0  0  0  0  0  2  0  0  0  0  0  0
  1 37  1  6  0  0  0
  2 16  1  0  0  0  0
  3 17  1  6  0  0  0
  3 10  1  0  0  0  0
  4  7  1  0  0  0  0
  4  8  1  0  0  0  0
  5  1  1  0  0  0  0
  6 10  1  0  0  0  0
  6 19  1  1  0  0  0
  7 28  1  6  0  0  0
  7 25  1  0  0  0  0
  7 12  1  0  0  0  0
  8  5  1  6  0  0  0
  8  3  1  0  0  0  0
  8  1  1  0  0  0  0
 10 18  1  1  0  0  0
 11 33  1  1  0  0  0
 11 12  1  0  0  0  0
 11  6  1  0  0  0  0
 12  6  1  0  0  0  0
 12 10  1  0  0  0  0
 12  9  1  0  0  0  0
 14 13  1  0  0  0  0
 15 14  1  0  0  0  0
 15  2  1  6  0  0  0
 15 16  1  0  0  0  0
 16 20  1  1  0  0  0
 16 13  1  0  0  0  0
 18 15  1  0  0  0  0
 19 21  2  0  0  0  0
 19 14  1  0  0  0  0
 23 27  1  0  0  0  0
 24 23  1  0  0  0  0
 25 27  1  1  0  0  0
 25 22  1  0  0  0  0
 26 24  1  1  0  0  0
 26 25  1  0  0  0  0
 26 22  1  0  0  0  0
 29 28  1  0  0  0  0
 30 29  2  0  0  0  0
 31 29  1  0  0  0  0
 31 32  1  0  0  0  0
 34 35  2  0  0  0  0
 35 33  1  0  0  0  0
 36 35  1  0  0  0  0
 38 37  1  0  0  0  0
 40 43  1  0  0  0  0
 40 50  1  0  0  0  0
 41 49  1  0  0  0  0
 41 42  1  0  0  0  0
 42 39  1  6  0  0  0
 42 48  1  0  0  0  0
 44 47  1  0  0  0  0
 47 46  1  6  0  0  0
 47 50  1  0  0  0  0
 48 45  1  1  0  0  0
 48 43  1  0  0  0  0
 49 38  1  6  0  0  0
 49 44  1  0  0  0  0
 50 51  1  6  0  0  0
 51 52  1  0  0  0  0
 52 53  1  0  0  0  0
 53 54  1  0  0  0  0
 54 56  1  0  0  0  0
 54 55  1  0  0  0  0
 56 55  1  0  0  0  0
M  END
>  <MODEL>
5

>  <REMARK>
 VINA RESULT:      -3.2      3.249      8.823
  Name = 
  13 active torsions:
  status: ('A' for Active; 'I' for Inactive)
    1  A    between atoms: C_1  and  C_48
    2  A    between atoms: O_6  and  C_14
    3  A    between atoms: O_6  and  C_16
    4  A    between atoms: C_11  and  C_16
    5  A    between atoms: C_12  and  C_55
    6  A    between atoms: C_12  and  C_56
    7  A    between atoms: C_14  and  C_21
    8  A    between atoms: O_15  and  C_24
    9  A    between atoms: O_15  and  C_47
   10  A    between atoms: C_23  and  C_48
   11  A    between atoms: C_23  and  C_50
   12  A    between atoms: C_27  and  C_36
   13  A    between atoms: C_36  and  C_56
                            x       y       z     vdW  Elec       q    Type
                         _______ _______ _______ _____ _____    ______ ____

>  <TORSDO>
F 13

$$$$
=
 OpenBabel11062414533D

 56 66  0  0  1  0  0  0  0  0999 V2000
  185.6620  178.6810  139.0950 C   0  0  2  0  0  3  0  0  0  0  0  0
  188.8780  175.8060  142.1080 C   0  0  0  0  0  2  0  0  0  0  0  0
  188.0700  178.8740  138.3380 C   0  0  1  0  0  3  0  0  0  0  0  0
  186.5640  176.7550  137.5480 C   0  0  0  0  0  2  0  0  0  0  0  0
  185.6190  179.1400  137.6470 C   0  0  0  0  0  2  0  0  0  0  0  0
  190.4790  177.8030  138.5680 C   0  0  2  0  0  0  0  0  0  0  0  0
  187.8160  175.9750  137.0700 C   0  0  1  0  0  0  0  0  0  0  0  0
  186.7150  178.1980  138.1010 C   0  0  1  0  0  0  0  0  0  0  0  0
  189.7790  175.0230  138.8110 O   0  0  0  0  0  1  0  0  0  0  0  0
  189.0290  177.9300  139.0610 C   0  0  2  0  0  0  0  0  0  0  0  0
  190.6380  177.2950  137.1490 C   0  0  2  0  0  3  0  0  0  0  0  0
  189.2940  176.4550  138.0430 P   0  0  0  0  0  0  0  0  0  0  0  0
  191.0670  177.1540  142.2290 C   0  0  0  0  0  2  0  0  0  0  0  0
  190.9080  176.8430  140.8040 N   0  0  0  0  0  0  0  0  0  0  0  0
  189.4850  176.7540  141.1040 C   0  0  2  0  0  0  0  0  0  0  0  0
  189.6310  177.0200  142.5920 C   0  0  1  0  0  0  0  0  0  0  0  0
  188.5920  179.3680  137.1380 O   0  0  0  0  0  1  0  0  0  0  0  0
  188.6620  177.6930  140.4320 O   0  0  0  0  0  0  0  0  0  0  0  0
  191.4550  177.3060  139.5930 C   0  0  0  0  0  0  0  0  0  0  0  0
  188.9230  178.1840  142.9090 O   0  0  0  0  0  1  0  0  0  0  0  0
  192.6980  177.4500  139.4560 O   0  0  0  0  0  0  0  0  0  0  0  0
  186.5220  174.2370  138.2660 O   0  0  0  0  0  0  0  0  0  0  0  0
  187.8420  172.2180  136.5300 C   0  0  0  0  0  2  0  0  0  0  0  0
  186.3460  172.4760  136.6500 C   0  0  0  0  0  2  0  0  0  0  0  0
  187.4920  174.4790  137.2770 C   0  0  1  0  0  0  0  0  0  0  0  0
  186.1560  173.9600  136.9280 C   0  0  2  0  0  3  0  0  0  0  0  0
  188.5390  173.3840  137.2010 C   0  0  0  0  0  2  0  0  0  0  0  0
  188.1170  176.1910  135.6800 O   0  0  0  0  0  0  0  0  0  0  0  0
  187.9050  177.3520  134.9250 C   0  0  0  0  0  0  0  0  0  0  0  0
  188.8550  178.1080  134.5940 O   0  0  0  0  0  0  0  0  0  0  0  0
  186.5070  177.7480  134.5980 C   0  0  0  0  0  2  0  0  0  0  0  0
  185.5980  176.5340  134.6040 C   0  0  0  0  0  1  0  0  0  0  0  0
  191.7240  176.3870  136.9990 O   0  0  0  0  0  0  0  0  0  0  0  0
  192.8370  174.8580  135.6720 O   0  0  0  0  0  1  0  0  0  0  0  0
  192.0510  175.8390  135.7600 C   0  0  0  0  0  0  0  0  0  0  0  0
  191.5190  176.3920  134.6060 O   0  0  0  0  0  0  0  0  0  0  0  0
  184.5500  177.6740  139.3550 C   0  0  0  0  0  2  0  0  0  0  0  0
  184.1150  177.7680  140.8040 C   0  0  0  0  0  2  0  0  0  0  0  0
  181.8290  178.8930  144.3910 O   0  0  0  0  0  1  0  0  0  0  0  0
  180.3500  177.2750  140.8220 O   0  0  0  0  0  0  0  0  0  0  0  0
  182.5380  179.1780  142.1460 C   0  0  0  0  0  2  0  0  0  0  0  0
  181.5480  178.4880  143.0810 C   0  0  2  0  0  3  0  0  0  0  0  0
  179.4430  177.7980  141.7520 C   0  0  0  0  0  2  0  0  0  0  0  0
  182.4580  179.1120  139.7140 O   0  0  0  0  0  0  0  0  0  0  0  0
  179.1770  179.0500  143.8710 C   0  0  0  0  0  1  0  0  0  0  0  0
  180.4650  180.4900  140.0930 C   0  0  0  0  0  1  0  0  0  0  0  0
  181.0600  179.2260  139.4920 C   0  0  2  0  0  3  0  0  0  0  0  0
  180.0960  178.8380  142.6770 C   0  0  1  0  0  3  0  0  0  0  0  0
  182.7250  178.3610  140.8750 C   0  0  1  0  0  3  0  0  0  0  0  0
  180.1670  177.9650  139.6120 C   0  0  1  0  0  3  0  0  0  0  0  0
  180.4850  177.0290  138.4600 C   0  0  0  0  0  2  0  0  0  0  0  0
  180.4870  175.5800  138.9220 C   0  0  0  0  0  2  0  0  0  0  0  0
  181.3100  174.6940  137.9930 C   0  0  0  0  0  2  0  0  0  0  0  0
  181.8940  175.5030  136.8450 C   0  0  0  0  0  3  0  0  0  0  0  0
  182.7550  174.6030  135.9790 C   0  0  0  0  0  2  0  0  0  0  0  0
  181.3530  174.9690  135.5380 C   0  0  0  0  0  2  0  0  0  0  0  0
  1 37  1  6  0  0  0
  2 16  1  0  0  0  0
  3 17  1  6  0  0  0
  3 10  1  0  0  0  0
  5  8  1  0  0  0  0
  5  1  1  0  0  0  0
  6 10  1  0  0  0  0
  6 19  1  1  0  0  0
  7 28  1  6  0  0  0
  7 25  1  0  0  0  0
  7  4  1  0  0  0  0
  7 12  1  0  0  0  0
  8  4  1  6  0  0  0
  8  3  1  0  0  0  0
  8  1  1  0  0  0  0
 10 18  1  1  0  0  0
 11 33  1  1  0  0  0
 11 12  1  0  0  0  0
 11  6  1  0  0  0  0
 12  6  1  0  0  0  0
 12  9  1  0  0  0  0
 12 10  1  0  0  0  0
 13 16  1  0  0  0  0
 14 15  1  0  0  0  0
 14 13  1  0  0  0  0
 15  2  1  6  0  0  0
 15 16  1  0  0  0  0
 16 20  1  1  0  0  0
 18 15  1  0  0  0  0
 19 14  1  0  0  0  0
 21 19  2  0  0  0  0
 23 24  1  0  0  0  0
 23 27  1  0  0  0  0
 25 27  1  6  0  0  0
 25 22  1  0  0  0  0
 26 24  1  1  0  0  0
 26 25  1  0  0  0  0
 26 22  1  0  0  0  0
 29 28  1  0  0  0  0
 30 29  2  0  0  0  0
 31 32  1  0  0  0  0
 31 29  1  0  0  0  0
 34 35  1  0  0  0  0
 35 33  1  0  0  0  0
 36 35  2  0  0  0  0
 37 38  1  0  0  0  0
 40 43  1  0  0  0  0
 41 42  1  0  0  0  0
 42 39  1  1  0  0  0
 43 48  1  0  0  0  0
 44 49  1  0  0  0  0
 47 50  1  0  0  0  0
 47 44  1  0  0  0  0
 47 46  1  1  0  0  0
 48 42  1  0  0  0  0
 48 45  1  1  0  0  0
 49 38  1  6  0  0  0
 49 41  1  0  0  0  0
 50 51  1  6  0  0  0
 50 40  1  0  0  0  0
 51 52  1  0  0  0  0
 53 52  1  0  0  0  0
 54 53  1  0  0  0  0
 55 54  1  0  0  0  0
 56 55  1  0  0  0  0
 56 54  1  0  0  0  0
M  END
>  <MODEL>
6

>  <REMARK>
 VINA RESULT:      -3.2      3.033      8.569
  Name = 
  13 active torsions:
  status: ('A' for Active; 'I' for Inactive)
    1  A    between atoms: C_1  and  C_48
    2  A    between atoms: O_6  and  C_14
    3  A    between atoms: O_6  and  C_16
    4  A    between atoms: C_11  and  C_16
    5  A    between atoms: C_12  and  C_55
    6  A    between atoms: C_12  and  C_56
    7  A    between atoms: C_14  and  C_21
    8  A    between atoms: O_15  and  C_24
    9  A    between atoms: O_15  and  C_47
   10  A    between atoms: C_23  and  C_48
   11  A    between atoms: C_23  and  C_50
   12  A    between atoms: C_27  and  C_36
   13  A    between atoms: C_36  and  C_56
                            x       y       z     vdW  Elec       q    Type
                         _______ _______ _______ _____ _____    ______ ____

>  <TORSDO>
F 13

$$$$
=
 OpenBabel11062414533D

 56 66  0  0  1  0  0  0  0  0999 V2000
  184.1710  175.9080  137.9800 C   0  0  2  0  0  3  0  0  0  0  0  0
  185.2670  179.7080  141.4510 C   0  0  0  0  0  2  0  0  0  0  0  0
  182.4050  176.0570  139.7880 C   0  0  1  0  0  3  0  0  0  0  0  0
  182.3090  177.7370  137.6530 C   0  0  0  0  0  2  0  0  0  0  0  0
  182.9210  175.2550  137.4120 C   0  0  0  0  0  2  0  0  0  0  0  0
  181.4670  177.5730  141.7440 C   0  0  2  0  0  0  0  0  0  0  0  0
  181.2820  178.6600  138.3580 C   0  0  1  0  0  0  0  0  0  0  0  0
  182.7870  176.4350  138.3530 C   0  0  1  0  0  0  0  0  0  0  0  0
  181.8950  180.1840  140.6140 O   0  0  0  0  0  1  0  0  0  0  0  0
  182.5730  177.2520  140.7260 C   0  0  2  0  0  0  0  0  0  0  0  0
  180.1140  177.9040  141.1470 C   0  0  2  0  0  3  0  0  0  0  0  0
  181.4900  178.5970  140.1790 P   0  0  0  0  0  0  0  0  0  0  0  0
  184.4260  178.8140  143.7120 C   0  0  0  0  0  2  0  0  0  0  0  0
  183.2210  178.8930  142.8800 N   0  0  0  0  0  0  0  0  0  0  0  0
  184.1340  178.7590  141.7530 C   0  0  2  0  0  0  0  0  0  0  0  0
  185.4000  178.7300  142.5910 C   0  0  1  0  0  0  0  0  0  0  0  0
  181.1190  175.5090  139.8280 O   0  0  0  0  0  1  0  0  0  0  0  0
  183.9500  177.6030  140.9540 O   0  0  0  0  0  0  0  0  0  0  0  0
  181.9120  178.3770  142.9310 C   0  0  0  0  0  0  0  0  0  0  0  0
  186.0500  177.5110  142.3760 O   0  0  0  0  0  1  0  0  0  0  0  0
  181.2280  178.4450  143.9850 O   0  0  0  0  0  0  0  0  0  0  0  0
  181.6460  180.1670  136.4290 O   0  0  0  0  0  0  0  0  0  0  0  0
  181.8000  182.4210  138.3610 C   0  0  0  0  0  2  0  0  0  0  0  0
  180.8100  182.2720  137.2140 C   0  0  0  0  0  2  0  0  0  0  0  0
  181.5570  180.0850  137.8300 C   0  0  1  0  0  0  0  0  0  0  0  0
  180.5290  180.7870  137.0370 C   0  0  2  0  0  3  0  0  0  0  0  0
  182.4680  181.0710  138.5350 C   0  0  0  0  0  2  0  0  0  0  0  0
  179.9180  178.3150  138.0610 O   0  0  0  0  0  0  0  0  0  0  0  0
  179.4520  177.2840  137.2340 C   0  0  0  0  0  0  0  0  0  0  0  0
  179.1290  176.1600  137.6980 O   0  0  0  0  0  0  0  0  0  0  0  0
  179.4400  177.4980  135.7600 C   0  0  0  0  0  2  0  0  0  0  0  0
  180.0760  176.3190  135.0490 C   0  0  0  0  0  1  0  0  0  0  0  0
  179.4490  178.9660  141.8220 O   0  0  0  0  0  0  0  0  0  0  0  0
  179.0300  180.2690  139.9610 O   0  0  0  0  0  0  0  0  0  0  0  0
  179.2260  180.1960  141.2040 C   0  0  0  0  0  0  0  0  0  0  0  0
  179.2380  181.3550  141.9620 O   0  0  0  0  0  1  0  0  0  0  0  0
  184.8700  176.7200  136.8990 C   0  0  0  0  0  2  0  0  0  0  0  0
  186.2300  177.1620  137.4040 C   0  0  0  0  0  2  0  0  0  0  0  0
  185.8350  173.4170  135.1290 O   0  0  0  0  0  1  0  0  0  0  0  0
  189.0730  174.6460  137.4830 O   0  0  0  0  0  0  0  0  0  0  0  0
  186.7310  175.5750  135.5300 C   0  0  0  0  0  2  0  0  0  0  0  0
  186.8390  174.0840  135.8390 C   0  0  2  0  0  3  0  0  0  0  0  0
  189.2340  173.5400  136.6390 C   0  0  0  0  0  2  0  0  0  0  0  0
  188.3200  177.2790  136.2380 O   0  0  0  0  0  0  0  0  0  0  0  0
  188.2200  172.1690  134.8450 C   0  0  0  0  0  1  0  0  0  0  0  0
  189.7450  176.1230  134.6110 C   0  0  0  0  0  1  0  0  0  0  0  0
  189.5470  176.5910  136.0440 C   0  0  2  0  0  3  0  0  0  0  0  0
  188.2450  173.5600  135.4630 C   0  0  1  0  0  3  0  0  0  0  0  0
  187.3120  176.3970  136.6730 C   0  0  1  0  0  3  0  0  0  0  0  0
  190.0410  175.6000  137.1270 C   0  0  1  0  0  3  0  0  0  0  0  0
  190.4360  176.3850  138.3660 C   0  0  0  0  0  2  0  0  0  0  0  0
  191.9140  176.7450  138.3320 C   0  0  0  0  0  2  0  0  0  0  0  0
  192.7640  175.5850  137.8250 C   0  0  0  0  0  2  0  0  0  0  0  0
  193.4060  175.9250  136.4880 C   0  0  0  0  0  3  0  0  0  0  0  0
  194.7580  175.2440  136.3890 C   0  0  0  0  0  2  0  0  0  0  0  0
  193.5570  174.6580  135.6750 C   0  0  0  0  0  2  0  0  0  0  0  0
  1 37  1  6  0  0  0
  1  8  1  0  0  0  0
  2 16  1  0  0  0  0
  3 17  1  6  0  0  0
  3 10  1  0  0  0  0
  4  8  1  0  0  0  0
  4  7  1  0  0  0  0
  5  1  1  0  0  0  0
  6 19  1  1  0  0  0
  7 28  1  6  0  0  0
  7 12  1  0  0  0  0
  8  5  1  6  0  0  0
  8  3  1  0  0  0  0
 10 18  1  1  0  0  0
 10  6  1  0  0  0  0
 11  6  1  0  0  0  0
 11 33  1  1  0  0  0
 12  9  1  0  0  0  0
 12 10  1  0  0  0  0
 12 11  1  0  0  0  0
 12  6  1  0  0  0  0
 14 19  1  0  0  0  0
 14 13  1  0  0  0  0
 15  2  1  6  0  0  0
 15 16  1  0  0  0  0
 15 14  1  0  0  0  0
 16 20  1  6  0  0  0
 16 13  1  0  0  0  0
 18 15  1  0  0  0  0
 19 21  2  0  0  0  0
 22 26  1  0  0  0  0
 22 25  1  0  0  0  0
 23 27  1  0  0  0  0
 24 23  1  0  0  0  0
 25  7  1  0  0  0  0
 25 27  1  1  0  0  0
 26 24  1  1  0  0  0
 26 25  1  0  0  0  0
 29 30  2  0  0  0  0
 29 28  1  0  0  0  0
 31 29  1  0  0  0  0
 32 31  1  0  0  0  0
 34 35  2  0  0  0  0
 35 33  1  0  0  0  0
 35 36  1  0  0  0  0
 37 38  1  0  0  0  0
 41 42  1  0  0  0  0
 41 49  1  0  0  0  0
 42 39  1  6  0  0  0
 43 40  1  0  0  0  0
 44 49  1  0  0  0  0
 47 46  1  6  0  0  0
 47 44  1  0  0  0  0
 47 50  1  0  0  0  0
 48 45  1  1  0  0  0
 48 42  1  0  0  0  0
 48 43  1  0  0  0  0
 49 38  1  6  0  0  0
 50 40  1  0  0  0  0
 50 51  1  1  0  0  0
 52 51  1  0  0  0  0
 53 52  1  0  0  0  0
 54 53  1  0  0  0  0
 55 54  1  0  0  0  0
 56 55  1  0  0  0  0
 56 54  1  0  0  0  0
M  END
>  <MODEL>
7

>  <REMARK>
 VINA RESULT:      -3.1      3.057      7.052
  Name = 
  13 active torsions:
  status: ('A' for Active; 'I' for Inactive)
    1  A    between atoms: C_1  and  C_48
    2  A    between atoms: O_6  and  C_14
    3  A    between atoms: O_6  and  C_16
    4  A    between atoms: C_11  and  C_16
    5  A    between atoms: C_12  and  C_55
    6  A    between atoms: C_12  and  C_56
    7  A    between atoms: C_14  and  C_21
    8  A    between atoms: O_15  and  C_24
    9  A    between atoms: O_15  and  C_47
   10  A    between atoms: C_23  and  C_48
   11  A    between atoms: C_23  and  C_50
   12  A    between atoms: C_27  and  C_36
   13  A    between atoms: C_36  and  C_56
                            x       y       z     vdW  Elec       q    Type
                         _______ _______ _______ _____ _____    ______ ____

>  <TORSDO>
F 13

$$$$
=
 OpenBabel11062414533D

 56 66  0  0  1  0  0  0  0  0999 V2000
  186.0690  178.8370  138.9740 C   0  0  2  0  0  3  0  0  0  0  0  0
  188.9670  175.8610  142.2040 C   0  0  0  0  0  2  0  0  0  0  0  0
  188.5200  178.8910  138.3430 C   0  0  1  0  0  3  0  0  0  0  0  0
  186.9480  176.8370  137.5110 C   0  0  0  0  0  2  0  0  0  0  0  0
  186.1260  179.2690  137.5180 C   0  0  0  0  0  2  0  0  0  0  0  0
  190.8540  177.7020  138.7190 C   0  0  2  0  0  0  0  0  0  0  0  0
  188.1800  175.9840  137.1130 C   0  0  1  0  0  0  0  0  0  0  0  0
  187.1460  178.2810  138.0460 C   0  0  1  0  0  0  0  0  0  0  0  0
  189.9970  174.9670  138.9730 O   0  0  0  0  0  1  0  0  0  0  0  0
  189.3880  177.9130  139.1330 C   0  0  2  0  0  0  0  0  0  0  0  0
  191.0600  177.1570  137.3200 C   0  0  2  0  0  3  0  0  0  0  0  0
  189.6290  176.4060  138.1560 P   0  0  0  0  0  0  0  0  0  0  0  0
  191.2140  177.0960  142.4170 C   0  0  0  0  0  2  0  0  0  0  0  0
  191.1140  176.7650  140.9920 N   0  0  0  0  0  0  0  0  0  0  0  0
  189.6750  176.7560  141.2170 C   0  0  2  0  0  0  0  0  0  0  0  0
  189.7570  177.0440  142.7050 C   0  0  1  0  0  0  0  0  0  0  0  0
  189.1290  179.3330  137.1640 O   0  0  0  0  0  1  0  0  0  0  0  0
  188.9380  177.7220  140.4860 O   0  0  0  0  0  0  0  0  0  0  0  0
  191.7480  177.1750  139.8040 C   0  0  0  0  0  0  0  0  0  0  0  0
  189.0950  178.2490  142.9640 O   0  0  0  0  0  1  0  0  0  0  0  0
  193.0020  177.2520  139.7310 O   0  0  0  0  0  0  0  0  0  0  0  0
  186.8390  174.3250  138.3690 O   0  0  0  0  0  0  0  0  0  0  0  0
  187.9220  172.2390  136.5500 C   0  0  0  0  0  2  0  0  0  0  0  0
  186.4560  172.5960  136.7540 C   0  0  0  0  0  2  0  0  0  0  0  0
  187.7680  174.5110  137.3290 C   0  0  1  0  0  0  0  0  0  0  0  0
  186.3830  174.0860  137.0510 C   0  0  2  0  0  3  0  0  0  0  0  0
  188.7330  173.3490  137.1890 C   0  0  0  0  0  2  0  0  0  0  0  0
  188.5650  176.1560  135.7390 O   0  0  0  0  0  0  0  0  0  0  0  0
  188.4250  177.3010  134.9440 C   0  0  0  0  0  0  0  0  0  0  0  0
  189.4200  177.9880  134.5940 O   0  0  0  0  0  0  0  0  0  0  0  0
  187.0540  177.7690  134.5950 C   0  0  0  0  0  2  0  0  0  0  0  0
  186.0770  176.6090  134.6230 C   0  0  0  0  0  1  0  0  0  0  0  0
  192.1030  176.1920  137.2440 O   0  0  0  0  0  0  0  0  0  0  0  0
  194.2570  176.6980  136.5800 O   0  0  0  0  0  1  0  0  0  0  0  0
  193.1070  176.2780  136.2810 C   0  0  0  0  0  0  0  0  0  0  0  0
  192.8330  175.9160  134.9720 O   0  0  0  0  0  0  0  0  0  0  0  0
  184.8940  177.8950  139.1920 C   0  0  0  0  0  2  0  0  0  0  0  0
  183.7070  178.3740  138.3790 C   0  0  0  0  0  2  0  0  0  0  0  0
  181.6130  174.5250  137.9840 O   0  0  0  0  0  1  0  0  0  0  0  0
  179.9110  178.3230  138.4570 O   0  0  0  0  0  0  0  0  0  0  0  0
  182.3630  176.4230  139.1930 C   0  0  0  0  0  2  0  0  0  0  0  0
  181.2760  175.8490  138.2870 C   0  0  2  0  0  3  0  0  0  0  0  0
  179.0940  177.1950  138.6000 C   0  0  0  0  0  2  0  0  0  0  0  0
  182.2800  178.5940  140.2910 O   0  0  0  0  0  0  0  0  0  0  0  0
  179.0180  174.7240  138.7300 C   0  0  0  0  0  1  0  0  0  0  0  0
  180.5230  177.4780  141.5860 C   0  0  0  0  0  1  0  0  0  0  0  0
  180.9170  178.6380  140.6860 C   0  0  2  0  0  3  0  0  0  0  0  0
  179.8960  175.9410  138.9810 C   0  0  1  0  0  3  0  0  0  0  0  0
  182.4250  177.9380  139.0530 C   0  0  1  0  0  3  0  0  0  0  0  0
  179.8400  179.0560  139.6530 C   0  0  1  0  0  3  0  0  0  0  0  0
  180.0120  180.5310  139.3360 C   0  0  0  0  0  2  0  0  0  0  0  0
  180.0390  180.7640  137.8330 C   0  0  0  0  0  2  0  0  0  0  0  0
  180.7700  182.0540  137.4760 C   0  0  0  0  0  2  0  0  0  0  0  0
  179.9510  182.8930  136.5060 C   0  0  0  0  0  3  0  0  0  0  0  0
  180.0210  184.3520  136.9150 C   0  0  0  0  0  2  0  0  0  0  0  0
  180.8720  183.8400  135.7710 C   0  0  0  0  0  2  0  0  0  0  0  0
  1 37  1  6  0  0  0
  2 16  1  0  0  0  0
  3 17  1  6  0  0  0
  3 10  1  0  0  0  0
  5  8  1  0  0  0  0
  5  1  1  0  0  0  0
  6 10  1  0  0  0  0
  6 19  1  1  0  0  0
  7 28  1  6  0  0  0
  7 25  1  0  0  0  0
  7  4  1  0  0  0  0
  7 12  1  0  0  0  0
  8  4  1  6  0  0  0
  8  3  1  0  0  0  0
  8  1  1  0  0  0  0
 10 18  1  1  0  0  0
 11 33  1  1  0  0  0
 11 12  1  0  0  0  0
 11  6  1  0  0  0  0
 12  6  1  0  0  0  0
 12  9  1  0  0  0  0
 12 10  1  0  0  0  0
 13 16  1  0  0  0  0
 14 15  1  0  0  0  0
 14 13  1  0  0  0  0
 15  2  1  6  0  0  0
 15 16  1  0  0  0  0
 16 20  1  1  0  0  0
 18 15  1  0  0  0  0
 19 14  1  0  0  0  0
 21 19  2  0  0  0  0
 23 24  1  0  0  0  0
 23 27  1  0  0  0  0
 25 27  1  6  0  0  0
 25 22  1  0  0  0  0
 26 24  1  1  0  0  0
 26 25  1  0  0  0  0
 26 22  1  0  0  0  0
 29 28  1  0  0  0  0
 30 29  2  0  0  0  0
 31 32  1  0  0  0  0
 31 29  1  0  0  0  0
 35 34  1  0  0  0  0
 35 33  1  0  0  0  0
 36 35  2  0  0  0  0
 38 37  1  0  0  0  0
 40 43  1  0  0  0  0
 40 50  1  0  0  0  0
 42 39  1  1  0  0  0
 42 48  1  0  0  0  0
 42 41  1  0  0  0  0
 43 48  1  0  0  0  0
 44 47  1  0  0  0  0
 47 46  1  6  0  0  0
 48 45  1  6  0  0  0
 49 38  1  1  0  0  0
 49 41  1  0  0  0  0
 49 44  1  0  0  0  0
 50 51  1  6  0  0  0
 50 47  1  0  0  0  0
 52 51  1  0  0  0  0
 53 52  1  0  0  0  0
 54 55  1  0  0  0  0
 54 53  1  0  0  0  0
 56 54  1  0  0  0  0
 56 55  1  0  0  0  0
M  END
>  <MODEL>
8

>  <REMARK>
 VINA RESULT:      -3.1      3.063      8.977
  Name = 
  13 active torsions:
  status: ('A' for Active; 'I' for Inactive)
    1  A    between atoms: C_1  and  C_48
    2  A    between atoms: O_6  and  C_14
    3  A    between atoms: O_6  and  C_16
    4  A    between atoms: C_11  and  C_16
    5  A    between atoms: C_12  and  C_55
    6  A    between atoms: C_12  and  C_56
    7  A    between atoms: C_14  and  C_21
    8  A    between atoms: O_15  and  C_24
    9  A    between atoms: O_15  and  C_47
   10  A    between atoms: C_23  and  C_48
   11  A    between atoms: C_23  and  C_50
   12  A    between atoms: C_27  and  C_36
   13  A    between atoms: C_36  and  C_56
                            x       y       z     vdW  Elec       q    Type
                         _______ _______ _______ _____ _____    ______ ____

>  <TORSDO>
F 13

$$$$
=
 OpenBabel11062414533D

 56 66  0  0  1  0  0  0  0  0999 V2000
  183.2480  178.6220  139.8340 C   0  0  2  0  0  3  0  0  0  0  0  0
  181.9760  179.4400  134.7940 C   0  0  0  0  0  2  0  0  0  0  0  0
  181.6290  176.8710  138.9850 C   0  0  1  0  0  3  0  0  0  0  0  0
  184.2890  176.6120  138.4960 C   0  0  0  0  0  2  0  0  0  0  0  0
  183.3890  177.4250  140.7590 C   0  0  0  0  0  2  0  0  0  0  0  0
  180.5480  175.8330  136.8030 C   0  0  2  0  0  0  0  0  0  0  0  0
  184.0400  175.5200  137.4230 C   0  0  1  0  0  0  0  0  0  0  0  0
  183.0930  177.2040  139.2890 C   0  0  1  0  0  0  0  0  0  0  0  0
  182.7730  176.0310  134.9900 O   0  0  0  0  0  1  0  0  0  0  0  0
  181.3550  176.9500  137.4830 C   0  0  2  0  0  0  0  0  0  0  0  0
  181.1630  174.4510  136.8800 C   0  0  2  0  0  3  0  0  0  0  0  0
  182.4070  175.7530  136.6220 P   0  0  0  0  0  0  0  0  0  0  0  0
  179.5190  178.7020  134.5940 C   0  0  0  0  0  2  0  0  0  0  0  0
  180.2340  177.4850  134.9910 N   0  0  0  0  0  0  0  0  0  0  0  0
  181.2160  178.3930  135.5700 C   0  0  2  0  0  0  0  0  0  0  0  0
  180.5210  179.6660  135.1210 C   0  0  1  0  0  0  0  0  0  0  0  0
  181.2780  175.6360  139.5380 O   0  0  0  0  0  1  0  0  0  0  0  0
  181.3820  178.2960  136.9740 O   0  0  0  0  0  0  0  0  0  0  0  0
  179.8880  176.2240  135.5130 C   0  0  0  0  0  0  0  0  0  0  0  0
  180.1820  180.4130  136.2530 O   0  0  0  0  0  1  0  0  0  0  0  0
  178.9520  175.5490  135.0100 O   0  0  0  0  0  0  0  0  0  0  0  0
  185.7080  176.9690  136.3080 O   0  0  0  0  0  0  0  0  0  0  0  0
  186.6390  174.5670  134.8260 C   0  0  0  0  0  2  0  0  0  0  0  0
  187.4710  175.4450  135.7510 C   0  0  0  0  0  2  0  0  0  0  0  0
  185.1780  175.6690  136.3900 C   0  0  1  0  0  0  0  0  0  0  0  0
  186.5500  175.9660  136.8430 C   0  0  2  0  0  3  0  0  0  0  0  0
  185.1900  174.9450  135.0570 C   0  0  0  0  0  2  0  0  0  0  0  0
  184.0780  174.1850  137.9580 O   0  0  0  0  0  0  0  0  0  0  0  0
  184.8900  173.1190  137.5510 C   0  0  0  0  0  0  0  0  0  0  0  0
  186.0690  172.9860  137.9730 O   0  0  0  0  0  0  0  0  0  0  0  0
  184.3750  172.1810  136.5140 C   0  0  0  0  0  2  0  0  0  0  0  0
  185.5210  171.6170  135.6960 C   0  0  0  0  0  1  0  0  0  0  0  0
  181.0220  173.7080  135.6730 O   0  0  0  0  0  0  0  0  0  0  0  0
  180.5010  171.7140  134.6300 O   0  0  0  0  0  0  0  0  0  0  0  0
  180.8020  172.3310  135.6870 C   0  0  0  0  0  0  0  0  0  0  0  0
  180.8950  171.6350  136.8810 O   0  0  0  0  0  1  0  0  0  0  0  0
  184.6130  179.2390  139.5690 C   0  0  0  0  0  2  0  0  0  0  0  0
  185.6050  178.1420  139.2390 C   0  0  0  0  0  2  0  0  0  0  0  0
  189.7570  177.0550  138.2680 O   0  0  0  0  0  1  0  0  0  0  0  0
  187.8550  176.8070  141.9910 O   0  0  0  0  0  0  0  0  0  0  0  0
  188.0950  178.4280  139.2570 C   0  0  0  0  0  2  0  0  0  0  0  0
  188.9760  177.1920  139.4210 C   0  0  2  0  0  3  0  0  0  0  0  0
  189.2460  176.6530  141.9330 C   0  0  0  0  0  2  0  0  0  0  0  0
  186.6740  179.3850  140.9870 O   0  0  0  0  0  0  0  0  0  0  0  0
  191.2620  176.7810  140.5020 C   0  0  0  0  0  1  0  0  0  0  0  0
  188.8500  179.9520  141.9650 C   0  0  0  0  0  1  0  0  0  0  0  0
  187.5130  179.2450  142.1240 C   0  0  2  0  0  3  0  0  0  0  0  0
  189.8520  177.3230  140.6900 C   0  0  1  0  0  3  0  0  0  0  0  0
  186.8370  178.2990  140.1040 C   0  0  1  0  0  3  0  0  0  0  0  0
  187.5800  177.8810  142.8550 C   0  0  1  0  0  3  0  0  0  0  0  0
  186.2520  177.6290  143.5450 C   0  0  0  0  0  2  0  0  0  0  0  0
  186.4640  177.1280  144.9650 C   0  0  0  0  0  2  0  0  0  0  0  0
  187.5770  177.8940  145.6720 C   0  0  0  0  0  2  0  0  0  0  0  0
  188.0890  177.1210  146.8780 C   0  0  0  0  0  3  0  0  0  0  0  0
  189.6000  177.2340  146.9470 C   0  0  0  0  0  2  0  0  0  0  0  0
  188.7310  178.0870  147.8480 C   0  0  0  0  0  2  0  0  0  0  0  0
  1 37  1  6  0  0  0
  1  5  1  0  0  0  0
  2 16  1  0  0  0  0
  3  8  1  0  0  0  0
  3 17  1  6  0  0  0
  6 19  1  6  0  0  0
  6 11  1  0  0  0  0
  6 10  1  0  0  0  0
  7 28  1  1  0  0  0
  7  4  1  0  0  0  0
  8  4  1  6  0  0  0
  8  1  1  0  0  0  0
  8  5  1  0  0  0  0
  9 12  1  0  0  0  0
 10 18  1  6  0  0  0
 10  3  1  0  0  0  0
 11 33  1  6  0  0  0
 12  6  1  0  0  0  0
 12 11  1  0  0  0  0
 12  7  1  0  0  0  0
 12 10  1  0  0  0  0
 13 14  1  0  0  0  0
 13 16  1  0  0  0  0
 14 19  1  0  0  0  0
 14 15  1  0  0  0  0
 15  2  1  6  0  0  0
 15 18  1  0  0  0  0
 16 15  1  0  0  0  0
 16 20  1  1  0  0  0
 21 19  2  0  0  0  0
 22 25  1  0  0  0  0
 22 26  1  0  0  0  0
 23 27  1  0  0  0  0
 23 24  1  0  0  0  0
 25 27  1  6  0  0  0
 25 26  1  0  0  0  0
 25  7  1  0  0  0  0
 26 24  1  6  0  0  0
 29 28  1  0  0  0  0
 29 30  2  0  0  0  0
 31 29  1  0  0  0  0
 32 31  1  0  0  0  0
 33 35  1  0  0  0  0
 34 35  2  0  0  0  0
 35 36  1  0  0  0  0
 38 37  1  0  0  0  0
 40 50  1  0  0  0  0
 41 42  1  0  0  0  0
 41 49  1  0  0  0  0
 42 39  1  6  0  0  0
 42 48  1  0  0  0  0
 43 40  1  0  0  0  0
 44 47  1  0  0  0  0
 47 46  1  6  0  0  0
 47 50  1  0  0  0  0
 48 45  1  6  0  0  0
 48 43  1  0  0  0  0
 49 38  1  6  0  0  0
 49 44  1  0  0  0  0
 50 51  1  6  0  0  0
 51 52  1  0  0  0  0
 52 53  1  0  0  0  0
 53 54  1  0  0  0  0
 54 55  1  0  0  0  0
 54 56  1  0  0  0  0
 55 56  1  0  0  0  0
M  END
>  <MODEL>
9

>  <REMARK>
 VINA RESULT:      -2.7      2.011      5.148
  Name = 
  13 active torsions:
  status: ('A' for Active; 'I' for Inactive)
    1  A    between atoms: C_1  and  C_48
    2  A    between atoms: O_6  and  C_14
    3  A    between atoms: O_6  and  C_16
    4  A    between atoms: C_11  and  C_16
    5  A    between atoms: C_12  and  C_55
    6  A    between atoms: C_12  and  C_56
    7  A    between atoms: C_14  and  C_21
    8  A    between atoms: O_15  and  C_24
    9  A    between atoms: O_15  and  C_47
   10  A    between atoms: C_23  and  C_48
   11  A    between atoms: C_23  and  C_50
   12  A    between atoms: C_27  and  C_36
   13  A    between atoms: C_36  and  C_56
                            x       y       z     vdW  Elec       q    Type
                         _______ _______ _______ _____ _____    ______ ____

>  <TORSDO>
F 13

$$$$
