=
 OpenBabel11062413453D

 35 38  0  0  1  0  0  0  0  0999 V2000
  185.6840  177.8950  145.6050 C   0  0  1  0  0  3  0  0  0  0  0  0
  186.9990  177.1340  145.8450 C   0  0  0  0  0  2  0  0  0  0  0  0
  185.4740  178.5140  140.9000 C   0  0  0  0  0  1  0  0  0  0  0  0
  186.5120  178.1790  143.2340 C   0  0  0  0  0  0  0  0  0  0  0  0
  186.5980  178.4020  141.8730 C   0  0  0  0  0  0  0  0  0  0  0  0
  185.7730  179.2910  146.2130 C   0  0  0  0  0  1  0  0  0  0  0  0
  185.3110  177.9030  144.1020 C   0  0  2  0  0  3  0  0  0  0  0  0
  187.9520  178.4510  141.5890 C   0  0  0  0  0  0  0  0  0  0  0  0
  187.8100  178.0540  143.6750 C   0  0  0  0  0  0  0  0  0  0  0  0
  188.1840  177.7660  145.0940 C   0  0  0  0  0  2  0  0  0  0  0  0
  188.6520  178.2400  142.6850 O   0  0  0  0  0  0  0  0  0  0  0  0
  184.2470  180.0300  143.9150 O   0  0  0  0  0  0  0  0  0  0  0  0
  184.1350  178.7810  143.7900 C   0  0  0  0  0  0  0  0  0  0  0  0
  182.9070  178.2060  143.3310 N   0  0  0  0  0  2  0  0  0  0  0  0
  180.6170  178.6380  144.0670 C   0  0  0  0  0  2  0  0  0  0  0  0
  181.3040  178.8020  141.6330 C   0  0  0  0  0  3  0  0  0  0  0  0
  181.7180  178.9980  143.0620 C   0  0  2  0  0  3  0  0  0  0  0  0
  179.6800  180.6550  141.7310 C   0  0  0  0  0  0  0  0  0  0  0  0
  179.3600  181.7000  141.1060 O   0  0  0  0  0  0  0  0  0  0  0  0
  180.4140  179.5910  141.0270 C   0  0  0  0  0  3  0  0  0  0  0  0
  179.2930  180.5090  143.1020 N   0  0  0  0  0  2  0  0  0  0  0  0
  179.2310  179.2020  143.7440 C   0  0  0  0  0  2  0  0  0  0  0  0
  188.5620  178.7240  140.2490 C   0  0  0  0  0  2  0  0  0  0  0  0
  190.9590  176.8760  140.3240 C   0  0  0  0  0  1  0  0  0  0  0  0
  188.7070  177.4560  139.3980 C   0  0  1  0  0  3  0  0  0  0  0  0
  190.2900  175.9390  138.0990 C   0  0  2  0  0  3  0  0  0  0  0  0
  189.3790  176.0890  136.8830 C   0  0  0  0  0  2  0  0  0  0  0  0
  187.8240  177.5480  138.1530 C   0  0  0  0  0  2  0  0  0  0  0  0
  187.9360  176.2780  137.3240 C   0  0  0  0  0  2  0  0  0  0  0  0
  190.1750  177.1490  139.0460 C   0  0  2  0  0  3  0  0  0  0  0  0
  192.4440  176.7280  137.4140 O   0  0  0  0  0  0  0  0  0  0  0  0
  191.7030  175.7330  137.6400 C   0  0  0  0  0  0  0  0  0  0  0  0
  191.4280  173.3970  136.8670 O   0  0  0  0  0  0  0  0  0  0  0  0
  192.2280  174.3760  137.4440 C   0  0  0  0  0  0  0  0  0  0  0  0
  193.4030  174.0900  137.7940 O   0  0  0  0  0  1  0  0  0  0  0  0
  1  2  1  0  0  0  0
  1  6  1  6  0  0  0
  3  5  1  0  0  0  0
  4  9  2  0  0  0  0
  4  7  1  0  0  0  0
  5  4  1  0  0  0  0
  7 13  1  1  0  0  0
  7  1  1  0  0  0  0
  8  5  2  0  0  0  0
  8 11  1  0  0  0  0
  9 10  1  0  0  0  0
 10  2  1  0  0  0  0
 11  9  1  0  0  0  0
 13 12  2  0  0  0  0
 14 13  1  0  0  0  0
 16 17  1  0  0  0  0
 17 14  1  1  0  0  0
 17 15  1  0  0  0  0
 18 21  1  0  0  0  0
 19 18  2  0  0  0  0
 20 16  2  0  0  0  0
 20 18  1  0  0  0  0
 21 22  1  0  0  0  0
 22 15  1  0  0  0  0
 23  8  1  0  0  0  0
 25 23  1  6  0  0  0
 26 32  1  6  0  0  0
 26 30  1  0  0  0  0
 27 29  1  0  0  0  0
 27 26  1  0  0  0  0
 28 25  1  0  0  0  0
 29 28  1  0  0  0  0
 30 25  1  0  0  0  0
 30 24  1  1  0  0  0
 31 32  2  0  0  0  0
 33 34  2  0  0  0  0
 34 32  1  0  0  0  0
 34 35  1  0  0  0  0
M  END
>  <MODEL>
1

>  <REMARK>
 VINA RESULT:      -8.4      0.000      0.000
  Name = 
  6 active torsions:
  status: ('A' for Active; 'I' for Inactive)
    1  A    between atoms: C_3  and  C_8
    2  A    between atoms: C_3  and  C_11
    3  A    between atoms: C_7  and  C_27
    4  A    between atoms: C_18  and  C_31
    5  A    between atoms: C_19  and  N_32
    6  A    between atoms: C_22  and  C_27
                            x       y       z     vdW  Elec       q    Type
                         _______ _______ _______ _____ _____    ______ ____

>  <TORSDO>
F 6

$$$$
=
 OpenBabel11062413453D

 35 38  0  0  1  0  0  0  0  0999 V2000
  190.1690  174.9290  135.9720 C   0  0  1  0  0  3  0  0  0  0  0  0
  188.6380  174.7730  135.9810 C   0  0  0  0  0  2  0  0  0  0  0  0
  191.2320  176.7700  140.2200 C   0  0  0  0  0  1  0  0  0  0  0  0
  189.8510  176.2340  138.1130 C   0  0  0  0  0  0  0  0  0  0  0  0
  190.0440  176.8660  139.3260 C   0  0  0  0  0  0  0  0  0  0  0  0
  190.5790  175.9760  134.9420 C   0  0  0  0  0  1  0  0  0  0  0  0
  190.7070  175.2240  137.3940 C   0  0  2  0  0  3  0  0  0  0  0  0
  188.8780  177.5740  139.5660 C   0  0  0  0  0  0  0  0  0  0  0  0
  188.5690  176.5530  137.7260 C   0  0  0  0  0  0  0  0  0  0  0  0
  187.9250  176.0450  136.4740 C   0  0  0  0  0  2  0  0  0  0  0  0
  188.0150  177.3680  138.5930 O   0  0  0  0  0  0  0  0  0  0  0  0
  192.5290  176.7600  137.2750 O   0  0  0  0  0  0  0  0  0  0  0  0
  192.1700  175.5610  137.4140 C   0  0  0  0  0  0  0  0  0  0  0  0
  193.1440  174.5320  137.6140 N   0  0  0  0  0  2  0  0  0  0  0  0
  195.1010  174.6680  136.1560 C   0  0  0  0  0  2  0  0  0  0  0  0
  195.2580  173.8570  138.5520 C   0  0  0  0  0  3  0  0  0  0  0  0
  194.5750  174.7850  137.5920 C   0  0  2  0  0  3  0  0  0  0  0  0
  197.3950  175.0770  138.3850 C   0  0  0  0  0  0  0  0  0  0  0  0
  198.2750  175.5990  139.1190 O   0  0  0  0  0  0  0  0  0  0  0  0
  196.5240  174.0280  138.9410 C   0  0  0  0  0  3  0  0  0  0  0  0
  197.2850  175.4880  137.0180 N   0  0  0  0  0  2  0  0  0  0  0  0
  196.6250  174.6550  136.0200 C   0  0  0  0  0  2  0  0  0  0  0  0
  188.6150  178.4690  140.7380 C   0  0  0  0  0  2  0  0  0  0  0  0
  185.6340  178.9920  140.7570 C   0  0  0  0  0  1  0  0  0  0  0  0
  187.6320  177.8520  141.7410 C   0  0  1  0  0  3  0  0  0  0  0  0
  185.5200  178.1880  143.1270 C   0  0  2  0  0  3  0  0  0  0  0  0
  186.3130  177.7890  144.3690 C   0  0  0  0  0  2  0  0  0  0  0  0
  188.3660  177.4380  143.0180 C   0  0  0  0  0  2  0  0  0  0  0  0
  187.4020  176.7930  144.0020 C   0  0  0  0  0  2  0  0  0  0  0  0
  186.4340  178.7750  142.0350 C   0  0  2  0  0  3  0  0  0  0  0  0
  184.7430  180.2730  144.0100 O   0  0  0  0  0  0  0  0  0  0  0  0
  184.4400  179.1540  143.5160 C   0  0  0  0  0  0  0  0  0  0  0  0
  182.5090  178.6550  142.0490 O   0  0  0  0  0  0  0  0  0  0  0  0
  183.0280  178.7990  143.3310 C   0  0  0  0  0  0  0  0  0  0  0  0
  182.2780  178.6220  144.3270 O   0  0  0  0  0  1  0  0  0  0  0  0
  1  6  1  6  0  0  0
  1  2  1  0  0  0  0
  1  7  1  0  0  0  0
  2 10  1  0  0  0  0
  4  5  1  0  0  0  0
  5  8  2  0  0  0  0
  5  3  1  0  0  0  0
  7 13  1  6  0  0  0
  7  4  1  0  0  0  0
  8 23  1  0  0  0  0
  9  4  2  0  0  0  0
  9 11  1  0  0  0  0
 10  9  1  0  0  0  0
 11  8  1  0  0  0  0
 12 13  2  0  0  0  0
 13 14  1  0  0  0  0
 15 17  1  0  0  0  0
 16 20  2  0  0  0  0
 17 14  1  6  0  0  0
 17 16  1  0  0  0  0
 18 20  1  0  0  0  0
 18 19  2  0  0  0  0
 21 18  1  0  0  0  0
 22 15  1  0  0  0  0
 22 21  1  0  0  0  0
 25 23  1  6  0  0  0
 25 30  1  0  0  0  0
 25 28  1  0  0  0  0
 26 32  1  1  0  0  0
 26 27  1  0  0  0  0
 28 29  1  0  0  0  0
 29 27  1  0  0  0  0
 30 24  1  6  0  0  0
 30 26  1  0  0  0  0
 32 31  2  0  0  0  0
 33 34  2  0  0  0  0
 34 32  1  0  0  0  0
 34 35  1  0  0  0  0
M  END
>  <MODEL>
2

>  <REMARK>
 VINA RESULT:      -8.4      4.087     11.435
  Name = 
  6 active torsions:
  status: ('A' for Active; 'I' for Inactive)
    1  A    between atoms: C_3  and  C_8
    2  A    between atoms: C_3  and  C_11
    3  A    between atoms: C_7  and  C_27
    4  A    between atoms: C_18  and  C_31
    5  A    between atoms: C_19  and  N_32
    6  A    between atoms: C_22  and  C_27
                            x       y       z     vdW  Elec       q    Type
                         _______ _______ _______ _____ _____    ______ ____

>  <TORSDO>
F 6

$$$$
=
 OpenBabel11062413453D

 35 38  0  0  1  0  0  0  0  0999 V2000
  189.8120  175.0610  136.1770 C   0  0  1  0  0  3  0  0  0  0  0  0
  191.1930  175.5340  136.6620 C   0  0  0  0  0  2  0  0  0  0  0  0
  186.7200  178.0420  138.2060 C   0  0  0  0  0  1  0  0  0  0  0  0
  188.8790  176.6750  137.8830 C   0  0  0  0  0  0  0  0  0  0  0  0
  188.0590  177.5220  138.6030 C   0  0  0  0  0  0  0  0  0  0  0  0
  189.5050  173.6800  136.7480 C   0  0  0  0  0  1  0  0  0  0  0  0
  188.7190  176.1120  136.4950 C   0  0  2  0  0  3  0  0  0  0  0  0
  188.7620  177.8310  139.7550 C   0  0  0  0  0  0  0  0  0  0  0  0
  190.0410  176.5700  138.6140 C   0  0  0  0  0  0  0  0  0  0  0  0
  191.2290  175.7700  138.1810 C   0  0  0  0  0  2  0  0  0  0  0  0
  189.9420  177.2470  139.7340 O   0  0  0  0  0  0  0  0  0  0  0  0
  186.7680  175.9660  135.1300 O   0  0  0  0  0  0  0  0  0  0  0  0
  187.3290  175.6250  136.2050 C   0  0  0  0  0  0  0  0  0  0  0  0
  186.6600  174.7620  137.1300 N   0  0  0  0  0  2  0  0  0  0  0  0
  184.3120  175.3100  137.5320 C   0  0  0  0  0  2  0  0  0  0  0  0
  185.1530  172.9200  137.5030 C   0  0  0  0  0  3  0  0  0  0  0  0
  185.2960  174.2990  136.9320 C   0  0  2  0  0  3  0  0  0  0  0  0
  182.9420  172.5950  136.4590 C   0  0  0  0  0  0  0  0  0  0  0  0
  182.3180  171.7680  135.7430 O   0  0  0  0  0  0  0  0  0  0  0  0
  184.1020  172.1380  137.2420 C   0  0  0  0  0  3  0  0  0  0  0  0
  182.4890  173.9520  136.5230 N   0  0  0  0  0  2  0  0  0  0  0  0
  182.8620  174.8300  137.6250 C   0  0  0  0  0  2  0  0  0  0  0  0
  188.2720  178.6820  140.8860 C   0  0  0  0  0  2  0  0  0  0  0  0
  185.3440  178.5410  141.6410 C   0  0  0  0  0  1  0  0  0  0  0  0
  187.7150  177.8520  142.0490 C   0  0  1  0  0  3  0  0  0  0  0  0
  185.9830  177.7000  143.9120 C   0  0  2  0  0  3  0  0  0  0  0  0
  187.1200  177.4660  144.9030 C   0  0  0  0  0  2  0  0  0  0  0  0
  188.8080  177.5910  143.0870 C   0  0  0  0  0  2  0  0  0  0  0  0
  188.2700  176.7380  144.2250 C   0  0  0  0  0  2  0  0  0  0  0  0
  186.4590  178.4870  142.6770 C   0  0  2  0  0  3  0  0  0  0  0  0
  183.7500  178.5570  144.0190 O   0  0  0  0  0  0  0  0  0  0  0  0
  184.8540  178.4000  144.6080 C   0  0  0  0  0  0  0  0  0  0  0  0
  184.5290  178.1930  147.0540 O   0  0  0  0  0  1  0  0  0  0  0  0
  185.0270  178.9110  145.9730 C   0  0  0  0  0  0  0  0  0  0  0  0
  185.6290  179.9980  146.1760 O   0  0  0  0  0  0  0  0  0  0  0  0
  1  7  1  0  0  0  0
  1  2  1  0  0  0  0
  1  6  1  1  0  0  0
  2 10  1  0  0  0  0
  3  5  1  0  0  0  0
  4  5  1  0  0  0  0
  4  9  2  0  0  0  0
  5  8  2  0  0  0  0
  7 13  1  1  0  0  0
  7  4  1  0  0  0  0
  8 23  1  0  0  0  0
  9 11  1  0  0  0  0
 10  9  1  0  0  0  0
 11  8  1  0  0  0  0
 12 13  2  0  0  0  0
 13 14  1  0  0  0  0
 15 22  1  0  0  0  0
 17 14  1  1  0  0  0
 17 16  1  0  0  0  0
 17 15  1  0  0  0  0
 18 21  1  0  0  0  0
 18 20  1  0  0  0  0
 19 18  2  0  0  0  0
 20 16  2  0  0  0  0
 21 22  1  0  0  0  0
 25 23  1  6  0  0  0
 25 30  1  0  0  0  0
 25 28  1  0  0  0  0
 26 32  1  1  0  0  0
 26 27  1  0  0  0  0
 28 29  1  0  0  0  0
 29 27  1  0  0  0  0
 30 24  1  6  0  0  0
 30 26  1  0  0  0  0
 31 32  2  0  0  0  0
 32 34  1  0  0  0  0
 34 35  2  0  0  0  0
 34 33  1  0  0  0  0
M  END
>  <MODEL>
3

>  <REMARK>
 VINA RESULT:      -8.0      3.582      8.479
  Name = 
  6 active torsions:
  status: ('A' for Active; 'I' for Inactive)
    1  A    between atoms: C_3  and  C_8
    2  A    between atoms: C_3  and  C_11
    3  A    between atoms: C_7  and  C_27
    4  A    between atoms: C_18  and  C_31
    5  A    between atoms: C_19  and  N_32
    6  A    between atoms: C_22  and  C_27
                            x       y       z     vdW  Elec       q    Type
                         _______ _______ _______ _____ _____    ______ ____

>  <TORSDO>
F 6

$$$$
=
 OpenBabel11062413453D

 35 38  0  0  1  0  0  0  0  0999 V2000
  188.5430  175.7150  135.8960 C   0  0  1  0  0  3  0  0  0  0  0  0
  189.8630  174.9240  135.9000 C   0  0  0  0  0  2  0  0  0  0  0  0
  189.1130  179.0500  139.2310 C   0  0  0  0  0  1  0  0  0  0  0  0
  189.4250  176.8100  137.9960 C   0  0  0  0  0  0  0  0  0  0  0  0
  189.6470  177.6700  139.0560 C   0  0  0  0  0  0  0  0  0  0  0  0
  187.4020  174.8250  136.3790 C   0  0  0  0  0  1  0  0  0  0  0  0
  188.6790  177.0290  136.7050 C   0  0  2  0  0  3  0  0  0  0  0  0
  190.5130  177.0000  139.9030 C   0  0  0  0  0  0  0  0  0  0  0  0
  190.2080  175.7060  138.2420 C   0  0  0  0  0  0  0  0  0  0  0  0
  190.3040  174.5300  137.3210 C   0  0  0  0  0  2  0  0  0  0  0  0
  190.8310  175.8290  139.3910 O   0  0  0  0  0  0  0  0  0  0  0  0
  187.0490  178.6470  136.0620 O   0  0  0  0  0  0  0  0  0  0  0  0
  187.3750  177.7500  136.8840 C   0  0  0  0  0  0  0  0  0  0  0  0
  186.5020  177.4040  137.9630 N   0  0  0  0  0  2  0  0  0  0  0  0
  185.2380  178.6300  139.6580 C   0  0  0  0  0  2  0  0  0  0  0  0
  184.1030  177.1830  137.9150 C   0  0  0  0  0  3  0  0  0  0  0  0
  185.2510  178.0990  138.2200 C   0  0  2  0  0  3  0  0  0  0  0  0
  182.4550  179.0120  138.0720 C   0  0  0  0  0  0  0  0  0  0  0  0
  181.5060  179.5220  137.4220 O   0  0  0  0  0  0  0  0  0  0  0  0
  182.8450  177.6180  137.8030 C   0  0  0  0  0  3  0  0  0  0  0  0
  183.1120  179.7850  139.0830 N   0  0  0  0  0  2  0  0  0  0  0  0
  183.8850  179.1540  140.1460 C   0  0  0  0  0  2  0  0  0  0  0  0
  191.0150  177.4960  141.2240 C   0  0  0  0  0  2  0  0  0  0  0  0
  191.4040  178.6530  143.9940 C   0  0  0  0  0  1  0  0  0  0  0  0
  189.8860  177.7160  142.2380 C   0  0  1  0  0  3  0  0  0  0  0  0
  189.2000  177.6890  144.6920 C   0  0  2  0  0  3  0  0  0  0  0  0
  188.0550  176.7470  144.3260 C   0  0  0  0  0  2  0  0  0  0  0  0
  188.7080  176.7910  141.9310 C   0  0  0  0  0  2  0  0  0  0  0  0
  187.5710  177.0300  142.9130 C   0  0  0  0  0  2  0  0  0  0  0  0
  190.3690  177.5770  143.6950 C   0  0  2  0  0  3  0  0  0  0  0  0
  190.7040  176.7480  146.3000 O   0  0  0  0  0  0  0  0  0  0  0  0
  189.6470  177.4040  146.0960 C   0  0  0  0  0  0  0  0  0  0  0  0
  187.4710  177.9460  147.1450 O   0  0  0  0  0  0  0  0  0  0  0  0
  188.8570  177.8830  147.2360 C   0  0  0  0  0  0  0  0  0  0  0  0
  189.4240  178.2360  148.3030 O   0  0  0  0  0  1  0  0  0  0  0  0
  1  2  1  0  0  0  0
  1  6  1  1  0  0  0
  1  7  1  0  0  0  0
  2 10  1  0  0  0  0
  4  9  2  0  0  0  0
  4  5  1  0  0  0  0
  5  3  1  0  0  0  0
  5  8  2  0  0  0  0
  7 13  1  1  0  0  0
  7  4  1  0  0  0  0
  8 23  1  0  0  0  0
  9 11  1  0  0  0  0
 10  9  1  0  0  0  0
 11  8  1  0  0  0  0
 12 13  2  0  0  0  0
 13 14  1  0  0  0  0
 15 22  1  0  0  0  0
 16 17  1  0  0  0  0
 17 14  1  1  0  0  0
 17 15  1  0  0  0  0
 18 21  1  0  0  0  0
 19 18  2  0  0  0  0
 20 16  2  0  0  0  0
 20 18  1  0  0  0  0
 21 22  1  0  0  0  0
 25 23  1  6  0  0  0
 25 30  1  0  0  0  0
 26 32  1  1  0  0  0
 27 26  1  0  0  0  0
 28 25  1  0  0  0  0
 28 29  1  0  0  0  0
 29 27  1  0  0  0  0
 30 24  1  1  0  0  0
 30 26  1  0  0  0  0
 32 31  2  0  0  0  0
 32 34  1  0  0  0  0
 33 34  2  0  0  0  0
 34 35  1  0  0  0  0
M  END
>  <MODEL>
4

>  <REMARK>
 VINA RESULT:      -8.0      3.138      7.189
  Name = 
  6 active torsions:
  status: ('A' for Active; 'I' for Inactive)
    1  A    between atoms: C_3  and  C_8
    2  A    between atoms: C_3  and  C_11
    3  A    between atoms: C_7  and  C_27
    4  A    between atoms: C_18  and  C_31
    5  A    between atoms: C_19  and  N_32
    6  A    between atoms: C_22  and  C_27
                            x       y       z     vdW  Elec       q    Type
                         _______ _______ _______ _____ _____    ______ ____

>  <TORSDO>
F 6

$$$$
=
 OpenBabel11062413453D

 35 38  0  0  1  0  0  0  0  0999 V2000
  190.1350  174.8330  136.7370 C   0  0  1  0  0  3  0  0  0  0  0  0
  188.6120  174.7340  136.9320 C   0  0  0  0  0  2  0  0  0  0  0  0
  191.6930  177.2350  140.5280 C   0  0  0  0  0  1  0  0  0  0  0  0
  190.0780  176.4460  138.6820 C   0  0  0  0  0  0  0  0  0  0  0  0
  190.4150  177.2410  139.7610 C   0  0  0  0  0  0  0  0  0  0  0  0
  190.4490  175.7060  135.5250 C   0  0  0  0  0  1  0  0  0  0  0  0
  190.8320  175.3140  138.0350 C   0  0  2  0  0  3  0  0  0  0  0  0
  189.2970  178.0160  140.0160 C   0  0  0  0  0  0  0  0  0  0  0  0
  188.7680  176.7490  138.3900 C   0  0  0  0  0  0  0  0  0  0  0  0
  187.9810  176.0870  137.3030 C   0  0  0  0  0  2  0  0  0  0  0  0
  188.3280  177.7010  139.1810 O   0  0  0  0  0  0  0  0  0  0  0  0
  192.6680  176.7800  137.6190 O   0  0  0  0  0  0  0  0  0  0  0  0
  192.2940  175.5990  137.8490 C   0  0  0  0  0  0  0  0  0  0  0  0
  193.2540  174.5430  137.9570 N   0  0  0  0  0  2  0  0  0  0  0  0
  195.0090  174.5280  136.2560 C   0  0  0  0  0  2  0  0  0  0  0  0
  195.4530  173.8510  138.6580 C   0  0  0  0  0  3  0  0  0  0  0  0
  194.6770  174.7450  137.7370 C   0  0  2  0  0  3  0  0  0  0  0  0
  197.5830  174.9850  138.1460 C   0  0  0  0  0  0  0  0  0  0  0  0
  198.5640  175.5170  138.7280 O   0  0  0  0  0  0  0  0  0  0  0  0
  196.7630  174.0010  138.8710 C   0  0  0  0  0  3  0  0  0  0  0  0
  197.3070  175.3200  136.7810 N   0  0  0  0  0  2  0  0  0  0  0  0
  196.5020  174.4530  135.9280 C   0  0  0  0  0  2  0  0  0  0  0  0
  189.1810  179.0800  141.0640 C   0  0  0  0  0  2  0  0  0  0  0  0
  190.8650  179.2800  143.5710 C   0  0  0  0  0  1  0  0  0  0  0  0
  188.7720  178.5180  142.4310 C   0  0  1  0  0  3  0  0  0  0  0  0
  189.5470  177.4110  144.5910 C   0  0  2  0  0  3  0  0  0  0  0  0
  188.5200  176.3060  144.3520 C   0  0  0  0  0  2  0  0  0  0  0  0
  187.7480  177.3950  142.2590 C   0  0  0  0  0  2  0  0  0  0  0  0
  187.3110  176.8590  143.6140 C   0  0  0  0  0  2  0  0  0  0  0  0
  189.9840  178.0740  143.2720 C   0  0  2  0  0  3  0  0  0  0  0  0
  191.6240  176.2270  144.7140 O   0  0  0  0  0  0  0  0  0  0  0  0
  190.7190  176.8460  145.3370 C   0  0  0  0  0  0  0  0  0  0  0  0
  189.6910  177.3440  147.5340 O   0  0  0  0  0  1  0  0  0  0  0  0
  190.8180  177.0060  146.7930 C   0  0  0  0  0  0  0  0  0  0  0  0
  191.9180  176.8370  147.3810 O   0  0  0  0  0  0  0  0  0  0  0  0
  1  6  1  6  0  0  0
  1  2  1  0  0  0  0
  1  7  1  0  0  0  0
  2 10  1  0  0  0  0
  4  5  1  0  0  0  0
  5  8  2  0  0  0  0
  5  3  1  0  0  0  0
  7 13  1  6  0  0  0
  7  4  1  0  0  0  0
  8 23  1  0  0  0  0
  9  4  2  0  0  0  0
  9 11  1  0  0  0  0
 10  9  1  0  0  0  0
 11  8  1  0  0  0  0
 12 13  2  0  0  0  0
 13 14  1  0  0  0  0
 15 17  1  0  0  0  0
 16 20  2  0  0  0  0
 17 14  1  6  0  0  0
 17 16  1  0  0  0  0
 18 19  2  0  0  0  0
 18 20  1  0  0  0  0
 21 18  1  0  0  0  0
 22 15  1  0  0  0  0
 22 21  1  0  0  0  0
 25 23  1  6  0  0  0
 25 30  1  0  0  0  0
 26 32  1  6  0  0  0
 27 26  1  0  0  0  0
 28 25  1  0  0  0  0
 28 29  1  0  0  0  0
 29 27  1  0  0  0  0
 30 24  1  1  0  0  0
 30 26  1  0  0  0  0
 31 32  2  0  0  0  0
 32 34  1  0  0  0  0
 34 35  2  0  0  0  0
 34 33  1  0  0  0  0
M  END
>  <MODEL>
5

>  <REMARK>
 VINA RESULT:      -7.8      5.333     11.017
  Name = 
  6 active torsions:
  status: ('A' for Active; 'I' for Inactive)
    1  A    between atoms: C_3  and  C_8
    2  A    between atoms: C_3  and  C_11
    3  A    between atoms: C_7  and  C_27
    4  A    between atoms: C_18  and  C_31
    5  A    between atoms: C_19  and  N_32
    6  A    between atoms: C_22  and  C_27
                            x       y       z     vdW  Elec       q    Type
                         _______ _______ _______ _____ _____    ______ ____

>  <TORSDO>
F 6

$$$$
=
 OpenBabel11062413453D

 35 38  0  0  1  0  0  0  0  0999 V2000
  190.3240  175.2640  136.2130 C   0  0  1  0  0  3  0  0  0  0  0  0
  191.6840  175.7130  136.7740 C   0  0  0  0  0  2  0  0  0  0  0  0
  187.1210  177.8930  138.5370 C   0  0  0  0  0  1  0  0  0  0  0  0
  189.3230  176.6340  138.0860 C   0  0  0  0  0  0  0  0  0  0  0  0
  188.4700  177.3660  138.8900 C   0  0  0  0  0  0  0  0  0  0  0  0
  190.0500  173.8160  136.6100 C   0  0  0  0  0  1  0  0  0  0  0  0
  189.1970  176.2380  136.6380 C   0  0  2  0  0  3  0  0  0  0  0  0
  189.1490  177.5530  140.0820 C   0  0  0  0  0  0  0  0  0  0  0  0
  190.4780  176.4730  138.8180 C   0  0  0  0  0  0  0  0  0  0  0  0
  191.6940  175.7640  138.3110 C   0  0  0  0  0  2  0  0  0  0  0  0
  190.3460  177.0080  140.0100 O   0  0  0  0  0  0  0  0  0  0  0  0
  187.3080  176.1290  135.1850 O   0  0  0  0  0  0  0  0  0  0  0  0
  187.8250  175.7520  136.2700 C   0  0  0  0  0  0  0  0  0  0  0  0
  187.1250  174.8500  137.1320 N   0  0  0  0  0  2  0  0  0  0  0  0
  184.7600  175.4420  137.3040 C   0  0  0  0  0  2  0  0  0  0  0  0
  185.5690  173.0490  137.5090 C   0  0  0  0  0  3  0  0  0  0  0  0
  185.7750  174.3840  136.8570 C   0  0  2  0  0  3  0  0  0  0  0  0
  183.4450  172.6680  136.3150 C   0  0  0  0  0  0  0  0  0  0  0  0
  182.8700  171.7970  135.6100 O   0  0  0  0  0  0  0  0  0  0  0  0
  184.5320  172.2590  137.2190 C   0  0  0  0  0  3  0  0  0  0  0  0
  183.0060  174.0300  136.2480 N   0  0  0  0  0  2  0  0  0  0  0  0
  183.3000  174.9810  137.3130 C   0  0  0  0  0  2  0  0  0  0  0  0
  188.6200  178.2470  141.2990 C   0  0  0  0  0  2  0  0  0  0  0  0
  187.1840  176.8730  143.5830 C   0  0  0  0  0  1  0  0  0  0  0  0
  189.2980  177.7720  142.5900 C   0  0  1  0  0  3  0  0  0  0  0  0
  189.0850  177.4520  145.1080 C   0  0  2  0  0  3  0  0  0  0  0  0
  190.3670  178.2620  145.2860 C   0  0  0  0  0  2  0  0  0  0  0  0
  190.5900  178.5550  142.8310 C   0  0  0  0  0  2  0  0  0  0  0  0
  191.2860  178.0630  144.0910 C   0  0  0  0  0  2  0  0  0  0  0  0
  188.3530  177.8240  143.8050 C   0  0  2  0  0  3  0  0  0  0  0  0
  187.1090  178.2610  146.1920 O   0  0  0  0  0  0  0  0  0  0  0  0
  188.2040  177.6470  146.3070 C   0  0  0  0  0  0  0  0  0  0  0  0
  187.9450  177.5420  148.7670 O   0  0  0  0  0  1  0  0  0  0  0  0
  188.6140  177.1320  147.6190 C   0  0  0  0  0  0  0  0  0  0  0  0
  189.5680  176.3170  147.7160 O   0  0  0  0  0  0  0  0  0  0  0  0
  1  6  1  1  0  0  0
  1  7  1  0  0  0  0
  1  2  1  0  0  0  0
  2 10  1  0  0  0  0
  3  5  1  0  0  0  0
  4  9  2  0  0  0  0
  4  5  1  0  0  0  0
  5  8  2  0  0  0  0
  7 13  1  1  0  0  0
  7  4  1  0  0  0  0
  8 23  1  0  0  0  0
  9 11  1  0  0  0  0
 10  9  1  0  0  0  0
 11  8  1  0  0  0  0
 12 13  2  0  0  0  0
 13 14  1  0  0  0  0
 15 22  1  0  0  0  0
 17 14  1  1  0  0  0
 17 15  1  0  0  0  0
 17 16  1  0  0  0  0
 18 20  1  0  0  0  0
 19 18  2  0  0  0  0
 20 16  2  0  0  0  0
 21 18  1  0  0  0  0
 21 22  1  0  0  0  0
 25 23  1  6  0  0  0
 25 28  1  0  0  0  0
 25 30  1  0  0  0  0
 26 27  1  0  0  0  0
 26 32  1  1  0  0  0
 28 29  1  0  0  0  0
 29 27  1  0  0  0  0
 30 24  1  6  0  0  0
 30 26  1  0  0  0  0
 31 32  2  0  0  0  0
 32 34  1  0  0  0  0
 34 35  2  0  0  0  0
 34 33  1  0  0  0  0
M  END
>  <MODEL>
6

>  <REMARK>
 VINA RESULT:      -7.8      4.513      8.417
  Name = 
  6 active torsions:
  status: ('A' for Active; 'I' for Inactive)
    1  A    between atoms: C_3  and  C_8
    2  A    between atoms: C_3  and  C_11
    3  A    between atoms: C_7  and  C_27
    4  A    between atoms: C_18  and  C_31
    5  A    between atoms: C_19  and  N_32
    6  A    between atoms: C_22  and  C_27
                            x       y       z     vdW  Elec       q    Type
                         _______ _______ _______ _____ _____    ______ ____

>  <TORSDO>
F 6

$$$$
=
 OpenBabel11062413453D

 35 38  0  0  1  0  0  0  0  0999 V2000
  190.9650  176.8700  143.1170 C   0  0  1  0  0  3  0  0  0  0  0  0
  190.5230  177.5720  144.4120 C   0  0  0  0  0  2  0  0  0  0  0  0
  188.0180  178.5140  139.7730 C   0  0  0  0  0  1  0  0  0  0  0  0
  188.8530  177.8280  142.1110 C   0  0  0  0  0  0  0  0  0  0  0  0
  187.8830  178.2810  141.2390 C   0  0  0  0  0  0  0  0  0  0  0  0
  190.6960  175.3720  143.2180 C   0  0  0  0  0  1  0  0  0  0  0  0
  190.3110  177.5270  141.8760 C   0  0  2  0  0  3  0  0  0  0  0  0
  186.7650  178.5240  142.0190 C   0  0  0  0  0  0  0  0  0  0  0  0
  188.2820  177.8770  143.3630 C   0  0  0  0  0  0  0  0  0  0  0  0
  189.0000  177.5050  144.6220 C   0  0  0  0  0  2  0  0  0  0  0  0
  187.0330  178.2740  143.2840 O   0  0  0  0  0  0  0  0  0  0  0  0
  189.7950  175.8300  140.2800 O   0  0  0  0  0  0  0  0  0  0  0  0
  190.5660  176.7720  140.6040 C   0  0  0  0  0  0  0  0  0  0  0  0
  191.6600  177.1360  139.7570 N   0  0  0  0  0  2  0  0  0  0  0  0
  193.4390  176.7130  138.1340 C   0  0  0  0  0  2  0  0  0  0  0  0
  190.9920  176.7530  137.4730 C   0  0  0  0  0  3  0  0  0  0  0  0
  191.9910  176.4130  138.5400 C   0  0  2  0  0  3  0  0  0  0  0  0
  191.7940  174.9520  135.9910 C   0  0  0  0  0  0  0  0  0  0  0  0
  191.3570  173.9810  135.3190 O   0  0  0  0  0  0  0  0  0  0  0  0
  190.8810  176.0530  136.3420 C   0  0  0  0  0  3  0  0  0  0  0  0
  193.1750  174.9830  136.3670 N   0  0  0  0  0  2  0  0  0  0  0  0
  193.8380  176.2270  136.7390 C   0  0  0  0  0  2  0  0  0  0  0  0
  185.4280  178.9840  141.5260 C   0  0  0  0  0  2  0  0  0  0  0  0
  182.8770  177.6450  140.5940 C   0  0  0  0  0  1  0  0  0  0  0  0
  184.2810  178.5610  142.4520 C   0  0  1  0  0  3  0  0  0  0  0  0
  181.7610  178.3100  142.7350 C   0  0  2  0  0  3  0  0  0  0  0  0
  181.8540  179.1520  144.0050 C   0  0  0  0  0  2  0  0  0  0  0  0
  184.3120  179.3790  143.7440 C   0  0  0  0  0  2  0  0  0  0  0  0
  183.1990  178.9400  144.6820 C   0  0  0  0  0  2  0  0  0  0  0  0
  182.9070  178.6280  141.7570 C   0  0  2  0  0  3  0  0  0  0  0  0
  179.5690  177.5900  142.0960 O   0  0  0  0  0  0  0  0  0  0  0  0
  180.4200  178.5200  142.0970 C   0  0  0  0  0  0  0  0  0  0  0  0
  179.6800  180.8780  142.2490 O   0  0  0  0  0  1  0  0  0  0  0  0
  180.0920  179.8050  141.4670 C   0  0  0  0  0  0  0  0  0  0  0  0
  180.1830  179.9460  140.2190 O   0  0  0  0  0  0  0  0  0  0  0  0
  1  6  1  1  0  0  0
  1  2  1  0  0  0  0
  2 10  1  0  0  0  0
  3  5  1  0  0  0  0
  4  9  2  0  0  0  0
  5  8  2  0  0  0  0
  5  4  1  0  0  0  0
  7 13  1  6  0  0  0
  7  4  1  0  0  0  0
  7  1  1  0  0  0  0
  8 11  1  0  0  0  0
  9 10  1  0  0  0  0
 11  9  1  0  0  0  0
 12 13  2  0  0  0  0
 14 13  1  0  0  0  0
 15 17  1  0  0  0  0
 16 17  1  0  0  0  0
 17 14  1  1  0  0  0
 18 20  1  0  0  0  0
 18 21  1  0  0  0  0
 19 18  2  0  0  0  0
 20 16  2  0  0  0  0
 21 22  1  0  0  0  0
 22 15  1  0  0  0  0
 23  8  1  0  0  0  0
 25 23  1  6  0  0  0
 25 28  1  0  0  0  0
 26 32  1  6  0  0  0
 26 27  1  0  0  0  0
 27 29  1  0  0  0  0
 28 29  1  0  0  0  0
 30 24  1  6  0  0  0
 30 25  1  0  0  0  0
 30 26  1  0  0  0  0
 31 32  2  0  0  0  0
 34 32  1  0  0  0  0
 34 33  1  0  0  0  0
 35 34  2  0  0  0  0
M  END
>  <MODEL>
7

>  <REMARK>
 VINA RESULT:      -7.7      3.266      9.906
  Name = 
  6 active torsions:
  status: ('A' for Active; 'I' for Inactive)
    1  A    between atoms: C_3  and  C_8
    2  A    between atoms: C_3  and  C_11
    3  A    between atoms: C_7  and  C_27
    4  A    between atoms: C_18  and  C_31
    5  A    between atoms: C_19  and  N_32
    6  A    between atoms: C_22  and  C_27
                            x       y       z     vdW  Elec       q    Type
                         _______ _______ _______ _____ _____    ______ ____

>  <TORSDO>
F 6

$$$$
=
 OpenBabel11062413453D

 35 38  0  0  1  0  0  0  0  0999 V2000
  186.3720  177.4540  144.4920 C   0  0  1  0  0  3  0  0  0  0  0  0
  187.6930  176.6690  144.5650 C   0  0  0  0  0  2  0  0  0  0  0  0
  185.9420  178.6880  139.9240 C   0  0  0  0  0  1  0  0  0  0  0  0
  187.0870  178.0490  142.1420 C   0  0  0  0  0  0  0  0  0  0  0  0
  187.1100  178.4490  140.8190 C   0  0  0  0  0  0  0  0  0  0  0  0
  186.4980  178.7580  145.2720 C   0  0  0  0  0  1  0  0  0  0  0  0
  185.9280  177.6600  143.0220 C   0  0  2  0  0  3  0  0  0  0  0  0
  188.4490  178.5360  140.4790 C   0  0  0  0  0  0  0  0  0  0  0  0
  188.4040  177.8670  142.4990 C   0  0  0  0  0  0  0  0  0  0  0  0
  188.8450  177.3950  143.8490 C   0  0  0  0  0  2  0  0  0  0  0  0
  189.1990  178.1830  141.5030 O   0  0  0  0  0  0  0  0  0  0  0  0
  184.8640  179.7900  143.1810 O   0  0  0  0  0  0  0  0  0  0  0  0
  184.7430  178.5710  142.8850 C   0  0  0  0  0  0  0  0  0  0  0  0
  183.4960  178.0640  142.4000 N   0  0  0  0  0  2  0  0  0  0  0  0
  181.4930  178.7950  143.5950 C   0  0  0  0  0  2  0  0  0  0  0  0
  181.5190  178.4660  141.0820 C   0  0  0  0  0  3  0  0  0  0  0  0
  182.2990  178.8820  142.2930 C   0  0  2  0  0  3  0  0  0  0  0  0
  180.0290  180.4250  141.2280 C   0  0  0  0  0  0  0  0  0  0  0  0
  179.5840  181.3620  140.5150 O   0  0  0  0  0  0  0  0  0  0  0  0
  180.5220  179.1990  140.5810 C   0  0  0  0  0  3  0  0  0  0  0  0
  180.0130  180.5580  142.6540 N   0  0  0  0  0  2  0  0  0  0  0  0
  180.0870  179.3960  143.5310 C   0  0  0  0  0  2  0  0  0  0  0  0
  188.9970  178.9840  139.1590 C   0  0  0  0  0  2  0  0  0  0  0  0
  187.5610  178.2820  136.5880 C   0  0  0  0  0  1  0  0  0  0  0  0
  189.3730  177.8090  138.2480 C   0  0  1  0  0  3  0  0  0  0  0  0
  188.5340  175.9760  136.6890 C   0  0  2  0  0  3  0  0  0  0  0  0
  189.2940  174.9570  137.5350 C   0  0  0  0  0  2  0  0  0  0  0  0
  190.1310  176.7430  139.0410 C   0  0  0  0  0  2  0  0  0  0  0  0
  190.5380  175.5920  138.1350 C   0  0  0  0  0  2  0  0  0  0  0  0
  188.1540  177.2230  137.5090 C   0  0  2  0  0  3  0  0  0  0  0  0
  187.2450  175.1620  134.8440 O   0  0  0  0  0  0  0  0  0  0  0  0
  187.3230  175.3220  136.0920 C   0  0  0  0  0  0  0  0  0  0  0  0
  185.1570  175.7190  137.2220 O   0  0  0  0  0  0  0  0  0  0  0  0
  186.2240  174.8700  136.9530 C   0  0  0  0  0  0  0  0  0  0  0  0
  186.2370  173.7140  137.4510 O   0  0  0  0  0  1  0  0  0  0  0  0
  1  2  1  0  0  0  0
  1  6  1  6  0  0  0
  3  5  1  0  0  0  0
  4  9  2  0  0  0  0
  4  7  1  0  0  0  0
  5  4  1  0  0  0  0
  7 13  1  1  0  0  0
  7  1  1  0  0  0  0
  8  5  2  0  0  0  0
  8 11  1  0  0  0  0
  9 10  1  0  0  0  0
 10  2  1  0  0  0  0
 11  9  1  0  0  0  0
 13 12  2  0  0  0  0
 14 13  1  0  0  0  0
 16 17  1  0  0  0  0
 17 14  1  1  0  0  0
 17 15  1  0  0  0  0
 18 21  1  0  0  0  0
 19 18  2  0  0  0  0
 20 16  2  0  0  0  0
 20 18  1  0  0  0  0
 21 22  1  0  0  0  0
 22 15  1  0  0  0  0
 23  8  1  0  0  0  0
 25 28  1  0  0  0  0
 25 23  1  1  0  0  0
 26 32  1  1  0  0  0
 26 30  1  0  0  0  0
 26 27  1  0  0  0  0
 27 29  1  0  0  0  0
 29 28  1  0  0  0  0
 30 24  1  6  0  0  0
 30 25  1  0  0  0  0
 31 32  2  0  0  0  0
 32 34  1  0  0  0  0
 34 33  2  0  0  0  0
 34 35  1  0  0  0  0
M  END
>  <MODEL>
8

>  <REMARK>
 VINA RESULT:      -7.6      1.992      2.813
  Name = 
  6 active torsions:
  status: ('A' for Active; 'I' for Inactive)
    1  A    between atoms: C_3  and  C_8
    2  A    between atoms: C_3  and  C_11
    3  A    between atoms: C_7  and  C_27
    4  A    between atoms: C_18  and  C_31
    5  A    between atoms: C_19  and  N_32
    6  A    between atoms: C_22  and  C_27
                            x       y       z     vdW  Elec       q    Type
                         _______ _______ _______ _____ _____    ______ ____

>  <TORSDO>
F 6

$$$$
=
 OpenBabel11062413453D

 35 38  0  0  1  0  0  0  0  0999 V2000
  186.3160  178.5820  144.8500 C   0  0  1  0  0  3  0  0  0  0  0  0
  185.1880  179.3110  145.6000 C   0  0  0  0  0  2  0  0  0  0  0  0
  185.0160  178.7050  140.2820 C   0  0  0  0  0  1  0  0  0  0  0  0
  184.7770  178.6820  142.8470 C   0  0  0  0  0  0  0  0  0  0  0  0
  184.2590  178.6760  141.5660 C   0  0  0  0  0  0  0  0  0  0  0  0
  186.3360  177.1080  145.2440 C   0  0  0  0  0  1  0  0  0  0  0  0
  186.2020  178.8050  143.3210 C   0  0  2  0  0  3  0  0  0  0  0  0
  182.8830  178.6880  141.7200 C   0  0  0  0  0  0  0  0  0  0  0  0
  183.6900  178.7520  143.6880 C   0  0  0  0  0  0  0  0  0  0  0  0
  183.7930  178.8180  145.1800 C   0  0  0  0  0  2  0  0  0  0  0  0
  182.5720  178.7320  142.9990 O   0  0  0  0  0  0  0  0  0  0  0  0
  187.3470  176.7670  142.8450 O   0  0  0  0  0  0  0  0  0  0  0  0
  187.1680  177.9730  142.5290 C   0  0  0  0  0  0  0  0  0  0  0  0
  187.8590  178.5390  141.4110 N   0  0  0  0  0  2  0  0  0  0  0  0
  190.1790  177.7710  141.3900 C   0  0  0  0  0  2  0  0  0  0  0  0
  188.9480  178.4010  139.2660 C   0  0  0  0  0  3  0  0  0  0  0  0
  188.8440  177.8010  140.6360 C   0  0  2  0  0  3  0  0  0  0  0  0
  190.2960  176.5170  138.4210 C   0  0  0  0  0  0  0  0  0  0  0  0
  190.3280  175.6980  137.4650 O   0  0  0  0  0  0  0  0  0  0  0  0
  189.5690  177.7860  138.2560 C   0  0  0  0  0  3  0  0  0  0  0  0
  190.9960  176.2120  139.6320 N   0  0  0  0  0  2  0  0  0  0  0  0
  191.3710  177.2540  140.5810 C   0  0  0  0  0  2  0  0  0  0  0  0
  181.8710  178.6350  140.6180 C   0  0  0  0  0  2  0  0  0  0  0  0
  182.8460  176.3060  138.9470 C   0  0  0  0  0  1  0  0  0  0  0  0
  181.1660  177.2760  140.5280 C   0  0  1  0  0  3  0  0  0  0  0  0
  180.5590  175.2910  139.0520 C   0  0  2  0  0  3  0  0  0  0  0  0
  179.0950  175.5000  139.4310 C   0  0  0  0  0  2  0  0  0  0  0  0
  179.6870  177.4200  140.8890 C   0  0  0  0  0  2  0  0  0  0  0  0
  178.9910  176.0690  140.8370 C   0  0  0  0  0  2  0  0  0  0  0  0
  181.3660  176.5980  139.1600 C   0  0  2  0  0  3  0  0  0  0  0  0
  180.3120  175.4120  136.6730 O   0  0  0  0  0  0  0  0  0  0  0  0
  180.6350  174.7100  137.6700 C   0  0  0  0  0  0  0  0  0  0  0  0
  180.3340  172.2740  137.9920 O   0  0  0  0  0  1  0  0  0  0  0  0
  181.0800  173.3260  137.4720 C   0  0  0  0  0  0  0  0  0  0  0  0
  182.1340  173.0800  136.8290 O   0  0  0  0  0  0  0  0  0  0  0  0
  1  6  1  6  0  0  0
  1  2  1  0  0  0  0
  3  5  1  0  0  0  0
  4  7  1  0  0  0  0
  4  9  2  0  0  0  0
  5  8  2  0  0  0  0
  5  4  1  0  0  0  0
  7 13  1  6  0  0  0
  7  1  1  0  0  0  0
  8 11  1  0  0  0  0
  9 10  1  0  0  0  0
 10  2  1  0  0  0  0
 11  9  1  0  0  0  0
 13 12  2  0  0  0  0
 14 13  1  0  0  0  0
 16 17  1  0  0  0  0
 17 15  1  0  0  0  0
 17 14  1  1  0  0  0
 18 21  1  0  0  0  0
 19 18  2  0  0  0  0
 20 18  1  0  0  0  0
 20 16  2  0  0  0  0
 21 22  1  0  0  0  0
 22 15  1  0  0  0  0
 23  8  1  0  0  0  0
 25 23  1  6  0  0  0
 25 28  1  0  0  0  0
 26 32  1  6  0  0  0
 26 30  1  0  0  0  0
 26 27  1  0  0  0  0
 27 29  1  0  0  0  0
 29 28  1  0  0  0  0
 30 24  1  1  0  0  0
 30 25  1  0  0  0  0
 31 32  2  0  0  0  0
 34 32  1  0  0  0  0
 34 33  1  0  0  0  0
 35 34  2  0  0  0  0
M  END
>  <MODEL>
9

>  <REMARK>
 VINA RESULT:      -7.5      4.009      8.318
  Name = 
  6 active torsions:
  status: ('A' for Active; 'I' for Inactive)
    1  A    between atoms: C_3  and  C_8
    2  A    between atoms: C_3  and  C_11
    3  A    between atoms: C_7  and  C_27
    4  A    between atoms: C_18  and  C_31
    5  A    between atoms: C_19  and  N_32
    6  A    between atoms: C_22  and  C_27
                            x       y       z     vdW  Elec       q    Type
                         _______ _______ _______ _____ _____    ______ ____

>  <TORSDO>
F 6

$$$$
