=
 OpenBabel11062416583D

 62 66  0  0  1  0  0  0  0  0999 V2000
  183.2300  177.5340  137.6100 C   0  0  2  0  0  3  0  0  0  0  0  0
  184.7130  177.8720  137.4290 C   0  0  0  0  0  2  0  0  0  0  0  0
  184.7630  177.2330  135.1340 O   0  0  0  0  0  1  0  0  0  0  0  0
  185.3760  177.0050  136.3660 C   0  0  1  0  0  3  0  0  0  0  0  0
  186.8520  177.3540  136.2770 C   0  0  0  0  0  2  0  0  0  0  0  0
  187.4440  176.9090  134.9420 C   0  0  1  0  0  3  0  0  0  0  0  0
  188.7110  177.6810  134.5970 C   0  0  0  0  0  1  0  0  0  0  0  0
  187.6850  175.3970  134.8740 C   0  0  2  0  0  3  0  0  0  0  0  0
  186.5090  174.7020  134.5980 O   0  0  0  0  0  1  0  0  0  0  0  0
  188.4400  174.7840  136.0610 C   0  0  0  0  0  2  0  0  0  0  0  0
  189.8380  174.4720  135.7440 N   0  0  0  0  0  0  0  0  0  0  0  0
  195.2820  175.7780  136.4780 O   0  0  0  0  0  0  0  0  0  0  0  0
  189.4550  177.6950  138.5740 N   0  0  0  0  0  2  0  0  0  0  0  0
  193.9670  175.5220  136.9020 C   0  0  1  0  0  3  0  0  0  0  0  0
  190.4270  176.7380  138.3130 C   0  0  1  0  0  0  0  0  0  0  0  0
  192.9590  176.1470  135.9240 C   0  0  1  0  0  3  0  0  0  0  0  0
  192.6860  173.4970  136.4970 O   0  0  0  0  0  0  0  0  0  0  0  0
  190.9440  177.1820  140.7810 O   0  0  0  0  0  0  0  0  0  0  0  0
  189.8950  175.3740  138.0090 C   0  0  0  0  0  2  0  0  0  0  0  0
  195.9810  172.8640  137.4250 C   0  0  0  0  0  1  0  0  0  0  0  0
  191.6490  173.7970  137.3820 C   0  0  0  0  0  2  0  0  0  0  0  0
  193.0370  175.5800  134.6510 O   0  0  0  0  0  1  0  0  0  0  0  0
  195.7010  174.6590  135.8130 N   0  0  0  0  0  2  0  0  0  0  0  0
  191.4350  177.1960  137.4680 O   0  0  0  0  0  0  0  0  0  0  0  0
  190.7410  174.9230  136.8390 C   0  0  1  0  0  0  0  0  0  0  0  0
  191.5100  176.2300  136.4460 C   0  0  2  0  0  3  0  0  0  0  0  0
  190.4610  177.1840  139.6180 C   0  0  0  0  0  0  0  0  0  0  0  0
  193.8340  174.0200  137.1020 C   0  0  1  0  0  3  0  0  0  0  0  0
  195.0510  173.5010  136.4120 C   0  0  2  0  0  3  0  0  0  0  0  0
  188.7780  172.3660  136.3680 C   0  0  0  0  0  1  0  0  0  0  0  0
  189.8900  173.0230  135.5780 C   0  0  0  0  0  2  0  0  0  0  0  0
  182.4870  178.6840  138.2980 C   0  0  2  0  0  3  0  0  0  0  0  0
  181.7040  179.5410  137.3050 C   0  0  0  0  0  2  0  0  0  0  0  0
  181.3470  180.7620  137.8800 O   0  0  0  0  0  0  0  0  0  0  0  0
  180.8380  181.5050  136.8170 C   0  0  0  0  0  2  0  0  0  0  0  0
  180.0730  182.6380  137.3340 N   0  0  0  0  0  2  0  0  0  0  0  0
  179.9860  185.0140  137.7780 C   0  0  0  0  0  1  0  0  0  0  0  0
  180.7880  183.9030  137.1320 C   0  0  0  0  0  0  0  0  0  0  0  0
  180.9310  184.2230  135.6510 C   0  0  0  0  0  1  0  0  0  0  0  0
  182.1610  183.8700  137.7880 C   0  0  0  0  0  1  0  0  0  0  0  0
  183.4270  179.5170  139.0370 N   0  0  0  0  0  2  0  0  0  0  0  0
  183.1660  179.3230  140.4040 N   0  0  0  0  0  2  0  0  0  0  0  0
  183.8990  177.2780  141.1830 F   0  0  0  0  0  0  0  0  0  0  0  0
  184.2880  178.5910  140.9910 C   0  0  0  0  0  0  0  0  0  0  0  0
  185.3550  178.6040  140.1080 F   0  0  0  0  0  0  0  0  0  0  0  0
  183.5560  179.3110  143.1660 O   0  0  0  0  0  1  0  0  0  0  0  0
  184.6850  179.2170  142.3440 C   0  0  1  0  0  3  0  0  0  0  0  0
  185.8380  178.4930  143.0740 C   0  0  2  0  0  0  0  0  0  0  0  0
  185.4990  177.1400  143.2040 O   0  0  0  0  0  1  0  0  0  0  0  0
  186.0320  179.0900  144.3450 O   0  0  0  0  0  0  0  0  0  0  0  0
  185.4080  178.3110  145.3360 C   0  0  0  0  0  1  0  0  0  0  0  0
  188.2010  178.0470  142.8810 F   0  0  0  0  0  0  0  0  0  0  0  0
  187.1090  178.5810  142.2190 C   0  0  0  0  0  2  0  0  0  0  0  0
  183.0870  176.3380  138.3260 O   0  0  0  0  0  0  0  0  0  0  0  0
  179.6600  175.7440  139.7310 C   0  0  0  0  0  2  0  0  0  0  0  0
  180.0960  174.1140  137.8480 C   0  0  0  0  0  2  0  0  0  0  0  0
  181.4240  174.7840  137.4610 C   0  0  2  0  0  0  0  0  0  0  0  0
  181.1870  175.8980  139.7230 C   0  0  0  0  0  2  0  0  0  0  0  0
  182.4380  173.8570  137.6350 F   0  0  0  0  0  0  0  0  0  0  0  0
  181.7170  176.0500  138.2980 C   0  0  1  0  0  3  0  0  0  0  0  0
  179.1040  175.1090  138.4490 C   0  0  0  0  0  2  0  0  0  0  0  0
  181.3630  175.1670  135.9930 C   0  0  0  0  0  1  0  0  0  0  0  0
  1  2  1  1  0  0  0
  1 32  1  0  0  0  0
  1 54  1  0  0  0  0
  4  3  1  6  0  0  0
  4  2  1  0  0  0  0
  5  4  1  0  0  0  0
  6  7  1  1  0  0  0
  6  5  1  0  0  0  0
  8  9  1  1  0  0  0
  8  6  1  0  0  0  0
  8 10  1  0  0  0  0
 11 10  1  0  0  0  0
 13 27  1  0  0  0  0
 14 12  1  6  0  0  0
 14 28  1  0  0  0  0
 15 19  1  6  0  0  0
 15 13  1  0  0  0  0
 15 27  1  0  0  0  0
 16 22  1  6  0  0  0
 16 26  1  0  0  0  0
 16 14  1  0  0  0  0
 17 21  1  0  0  0  0
 23 29  1  0  0  0  0
 23 12  1  0  0  0  0
 24 15  1  0  0  0  0
 25 11  1  6  0  0  0
 25 21  1  0  0  0  0
 25 19  1  0  0  0  0
 26 25  1  0  0  0  0
 26 24  1  1  0  0  0
 27 18  2  0  0  0  0
 28 17  1  6  0  0  0
 29 28  1  0  0  0  0
 29 20  1  1  0  0  0
 31 11  1  0  0  0  0
 31 30  1  0  0  0  0
 32 33  1  6  0  0  0
 32 41  1  0  0  0  0
 33 34  1  0  0  0  0
 35 36  1  0  0  0  0
 35 34  1  0  0  0  0
 38 36  1  0  0  0  0
 38 37  1  0  0  0  0
 38 40  1  0  0  0  0
 39 38  1  0  0  0  0
 41 42  1  0  0  0  0
 42 44  1  0  0  0  0
 44 43  1  0  0  0  0
 44 47  1  0  0  0  0
 45 44  1  0  0  0  0
 47 48  1  0  0  0  0
 47 46  1  1  0  0  0
 48 49  1  1  0  0  0
 48 50  1  0  0  0  0
 50 51  1  0  0  0  0
 53 52  1  0  0  0  0
 53 48  1  0  0  0  0
 56 61  1  0  0  0  0
 57 62  1  6  0  0  0
 57 59  1  0  0  0  0
 57 56  1  0  0  0  0
 57 60  1  0  0  0  0
 58 55  1  0  0  0  0
 60 54  1  1  0  0  0
 60 58  1  0  0  0  0
 61 55  1  0  0  0  0
M  END
>  <MODEL>
1

>  <REMARK>
 VINA RESULT:      -4.8      0.000      0.000
  Name = 
  24 active torsions:
  status: ('A' for Active; 'I' for Inactive)
    1  A    between atoms: O_5  and  C_34
    2  A    between atoms: O_5  and  C_60
    3  A    between atoms: O_7  and  C_39
    4  A    between atoms: O_7  and  C_41
    5  A    between atoms: C_10  and  C_36
    6  A    between atoms: C_10  and  C_45
    7  A    between atoms: C_11  and  C_32
    8  A    between atoms: N_18  and  N_19
    9  A    between atoms: N_18  and  C_22
   10  A    between atoms: N_19  and  C_46
   11  A    between atoms: C_21  and  C_22
   12  A    between atoms: C_21  and  C_32
   13  A    between atoms: O_28  and  C_32
   14  A    between atoms: C_33  and  N_62
   15  A    between atoms: C_34  and  N_62
   16  A    between atoms: C_35  and  C_45
   17  A    between atoms: C_35  and  C_54
   18  A    between atoms: C_36  and  C_40
   19  A    between atoms: C_40  and  N_47
   20  A    between atoms: C_41  and  C_46
   21  A    between atoms: C_41  and  C_54
   22  A    between atoms: C_46  and  C_60
   23  A    between atoms: N_47  and  C_49
   24  A    between atoms: N_47  and  C_50
                            x       y       z     vdW  Elec       q    Type
                         _______ _______ _______ _____ _____    ______ ____

>  <TORSDO>
F 24

$$$$
=
 OpenBabel11062416583D

 62 66  0  0  1  0  0  0  0  0999 V2000
  189.2650  176.0530  136.7530 C   0  0  2  0  0  3  0  0  0  0  0  0
  187.9760  176.7860  136.3670 C   0  0  0  0  0  2  0  0  0  0  0  0
  186.6370  175.2430  137.5930 O   0  0  0  0  0  1  0  0  0  0  0  0
  186.7690  175.8570  136.3470 C   0  0  1  0  0  3  0  0  0  0  0  0
  185.5170  176.6610  136.0380 C   0  0  0  0  0  2  0  0  0  0  0  0
  184.5650  175.8750  135.1400 C   0  0  1  0  0  3  0  0  0  0  0  0
  185.0660  174.4600  134.8830 C   0  0  0  0  0  1  0  0  0  0  0  0
  183.1260  175.8640  135.6660 C   0  0  2  0  0  3  0  0  0  0  0  0
  182.2150  175.5370  134.6630 O   0  0  0  0  0  1  0  0  0  0  0  0
  182.6870  177.1100  136.4460 C   0  0  0  0  0  2  0  0  0  0  0  0
  181.9770  176.7820  137.6870 N   0  0  0  0  0  0  0  0  0  0  0  0
  185.2560  179.8690  141.0940 O   0  0  0  0  0  0  0  0  0  0  0  0
  180.3720  180.7020  136.9110 N   0  0  0  0  0  2  0  0  0  0  0  0
  184.0380  179.4790  140.5100 C   0  0  1  0  0  3  0  0  0  0  0  0
  180.9830  180.0970  138.0030 C   0  0  1  0  0  0  0  0  0  0  0  0
  184.2350  179.1710  139.0170 C   0  0  1  0  0  3  0  0  0  0  0  0
  183.0590  177.2560  140.5560 O   0  0  0  0  0  0  0  0  0  0  0  0
  179.6150  181.8770  139.2340 O   0  0  0  0  0  0  0  0  0  0  0  0
  180.5600  178.6850  138.2510 C   0  0  0  0  0  2  0  0  0  0  0  0
  184.3760  178.2300  143.6280 C   0  0  0  0  0  1  0  0  0  0  0  0
  181.8070  177.6330  140.0670 C   0  0  0  0  0  2  0  0  0  0  0  0
  185.0900  178.0870  138.8100 O   0  0  0  0  0  1  0  0  0  0  0  0
  185.7650  178.7580  141.7060 N   0  0  0  0  0  2  0  0  0  0  0  0
  182.3520  180.3390  138.0700 O   0  0  0  0  0  0  0  0  0  0  0  0
  181.8620  177.9810  138.5630 C   0  0  1  0  0  0  0  0  0  0  0  0
  182.9350  179.0630  138.1960 C   0  0  2  0  0  3  0  0  0  0  0  0
  180.1510  181.1350  138.3700 C   0  0  0  0  0  0  0  0  0  0  0  0
  183.4760  178.3360  141.3410 C   0  0  1  0  0  3  0  0  0  0  0  0
  184.6530  177.9380  142.1670 C   0  0  2  0  0  3  0  0  0  0  0  0
  180.2200  175.1580  138.1640 C   0  0  0  0  0  1  0  0  0  0  0  0
  180.6630  176.3010  137.2740 C   0  0  0  0  0  2  0  0  0  0  0  0
  189.9480  176.7370  137.9430 C   0  0  2  0  0  3  0  0  0  0  0  0
  191.0250  175.8570  138.5730 C   0  0  0  0  0  2  0  0  0  0  0  0
  192.2360  176.5470  138.6640 O   0  0  0  0  0  0  0  0  0  0  0  0
  193.1320  175.7620  137.9400 C   0  0  0  0  0  2  0  0  0  0  0  0
  194.3830  175.6360  138.6850 N   0  0  0  0  0  2  0  0  0  0  0  0
  196.4550  174.4290  139.0000 C   0  0  0  0  0  1  0  0  0  0  0  0
  195.2560  174.6160  138.0930 C   0  0  0  0  0  0  0  0  0  0  0  0
  195.7620  175.0520  136.7250 C   0  0  0  0  0  1  0  0  0  0  0  0
  194.5400  173.2770  137.9770 C   0  0  0  0  0  1  0  0  0  0  0  0
  188.9570  177.1030  138.9460 N   0  0  0  0  0  2  0  0  0  0  0  0
  189.5520  178.0600  139.7860 N   0  0  0  0  0  2  0  0  0  0  0  0
  188.8230  178.8680  141.8200 F   0  0  0  0  0  0  0  0  0  0  0  0
  189.2400  177.7190  141.1720 C   0  0  0  0  0  0  0  0  0  0  0  0
  188.1990  176.8050  141.1960 F   0  0  0  0  0  0  0  0  0  0  0  0
  191.5810  177.9950  141.6500 O   0  0  0  0  0  1  0  0  0  0  0  0
  190.4890  177.1510  141.8770 C   0  0  1  0  0  3  0  0  0  0  0  0
  190.3080  176.8820  143.3880 C   0  0  2  0  0  0  0  0  0  0  0  0
  189.3390  175.8840  143.5470 O   0  0  0  0  0  1  0  0  0  0  0  0
  189.9110  178.0820  144.0310 O   0  0  0  0  0  0  0  0  0  0  0  0
  188.9210  177.8000  144.9900 C   0  0  0  0  0  1  0  0  0  0  0  0
  191.4230  175.6820  145.1590 F   0  0  0  0  0  0  0  0  0  0  0  0
  191.6280  176.3530  143.9670 C   0  0  0  0  0  2  0  0  0  0  0  0
  190.1280  175.9720  135.6510 O   0  0  0  0  0  0  0  0  0  0  0  0
  188.3800  172.7200  134.9850 C   0  0  0  0  0  2  0  0  0  0  0  0
  190.8020  172.2760  135.5600 C   0  0  0  0  0  2  0  0  0  0  0  0
  191.1640  173.7700  135.5650 C   0  0  2  0  0  0  0  0  0  0  0  0
  188.6520  174.0810  135.6410 C   0  0  0  0  0  2  0  0  0  0  0  0
  191.5930  174.1020  136.8400 F   0  0  0  0  0  0  0  0  0  0  0  0
  189.9760  174.6710  135.1570 C   0  0  1  0  0  3  0  0  0  0  0  0
  189.6580  171.9640  134.5960 C   0  0  0  0  0  2  0  0  0  0  0  0
  192.3090  173.9930  134.5940 C   0  0  0  0  0  1  0  0  0  0  0  0
  1  2  1  6  0  0  0
  1 32  1  0  0  0  0
  4  2  1  0  0  0  0
  4  3  1  1  0  0  0
  5  4  1  0  0  0  0
  6  7  1  1  0  0  0
  6  8  1  0  0  0  0
  6  5  1  0  0  0  0
  8  9  1  6  0  0  0
  8 10  1  0  0  0  0
 10 11  1  0  0  0  0
 12 23  1  0  0  0  0
 13 15  1  0  0  0  0
 13 27  1  0  0  0  0
 14 12  1  1  0  0  0
 14 28  1  0  0  0  0
 15 24  1  0  0  0  0
 15 19  1  1  0  0  0
 15 27  1  0  0  0  0
 16 22  1  1  0  0  0
 16 14  1  0  0  0  0
 19 25  1  0  0  0  0
 21 17  1  0  0  0  0
 23 29  1  0  0  0  0
 25 11  1  6  0  0  0
 25 21  1  0  0  0  0
 26 24  1  1  0  0  0
 26 25  1  0  0  0  0
 26 16  1  0  0  0  0
 27 18  2  0  0  0  0
 28 17  1  6  0  0  0
 28 29  1  0  0  0  0
 29 20  1  1  0  0  0
 31 11  1  0  0  0  0
 31 30  1  0  0  0  0
 32 33  1  1  0  0  0
 32 41  1  0  0  0  0
 33 34  1  0  0  0  0
 35 34  1  0  0  0  0
 35 36  1  0  0  0  0
 38 36  1  0  0  0  0
 38 37  1  0  0  0  0
 39 38  1  0  0  0  0
 40 38  1  0  0  0  0
 41 42  1  0  0  0  0
 42 44  1  0  0  0  0
 44 45  1  0  0  0  0
 44 43  1  0  0  0  0
 44 47  1  0  0  0  0
 47 46  1  1  0  0  0
 47 48  1  0  0  0  0
 48 49  1  1  0  0  0
 48 53  1  0  0  0  0
 48 50  1  0  0  0  0
 50 51  1  0  0  0  0
 53 52  1  0  0  0  0
 54  1  1  0  0  0  0
 55 58  1  0  0  0  0
 56 57  1  0  0  0  0
 57 62  1  6  0  0  0
 57 59  1  0  0  0  0
 60 57  1  0  0  0  0
 60 58  1  0  0  0  0
 60 54  1  1  0  0  0
 61 55  1  0  0  0  0
 61 56  1  0  0  0  0
M  END
>  <MODEL>
2

>  <REMARK>
 VINA RESULT:      -4.8      2.490      9.729
  Name = 
  24 active torsions:
  status: ('A' for Active; 'I' for Inactive)
    1  A    between atoms: O_5  and  C_34
    2  A    between atoms: O_5  and  C_60
    3  A    between atoms: O_7  and  C_39
    4  A    between atoms: O_7  and  C_41
    5  A    between atoms: C_10  and  C_36
    6  A    between atoms: C_10  and  C_45
    7  A    between atoms: C_11  and  C_32
    8  A    between atoms: N_18  and  N_19
    9  A    between atoms: N_18  and  C_22
   10  A    between atoms: N_19  and  C_46
   11  A    between atoms: C_21  and  C_22
   12  A    between atoms: C_21  and  C_32
   13  A    between atoms: O_28  and  C_32
   14  A    between atoms: C_33  and  N_62
   15  A    between atoms: C_34  and  N_62
   16  A    between atoms: C_35  and  C_45
   17  A    between atoms: C_35  and  C_54
   18  A    between atoms: C_36  and  C_40
   19  A    between atoms: C_40  and  N_47
   20  A    between atoms: C_41  and  C_46
   21  A    between atoms: C_41  and  C_54
   22  A    between atoms: C_46  and  C_60
   23  A    between atoms: N_47  and  C_49
   24  A    between atoms: N_47  and  C_50
                            x       y       z     vdW  Elec       q    Type
                         _______ _______ _______ _____ _____    ______ ____

>  <TORSDO>
F 24

$$$$
=
 OpenBabel11062416583D

 62 66  0  0  1  0  0  0  0  0999 V2000
  183.7150  177.4330  138.0600 C   0  0  2  0  0  3  0  0  0  0  0  0
  185.2400  177.5530  138.1410 C   0  0  0  0  0  2  0  0  0  0  0  0
  185.6140  178.6010  136.0340 O   0  0  0  0  0  1  0  0  0  0  0  0
  185.8990  177.4510  136.7720 C   0  0  1  0  0  3  0  0  0  0  0  0
  187.4030  177.3140  136.9440 C   0  0  0  0  0  2  0  0  0  0  0  0
  188.0990  177.1440  135.5960 C   0  0  1  0  0  3  0  0  0  0  0  0
  189.3560  177.9970  135.4950 C   0  0  0  0  0  1  0  0  0  0  0  0
  188.3990  175.6780  135.2630 C   0  0  2  0  0  3  0  0  0  0  0  0
  187.2840  175.0340  134.7290 O   0  0  0  0  0  1  0  0  0  0  0  0
  189.0460  174.8550  136.3850 C   0  0  0  0  0  2  0  0  0  0  0  0
  190.3910  174.3830  136.0380 N   0  0  0  0  0  0  0  0  0  0  0  0
  195.8830  175.6670  136.3200 O   0  0  0  0  0  0  0  0  0  0  0  0
  190.2580  177.5930  138.9050 N   0  0  0  0  0  2  0  0  0  0  0  0
  194.6070  175.4130  136.8510 C   0  0  1  0  0  3  0  0  0  0  0  0
  191.2020  176.6340  138.5590 C   0  0  1  0  0  0  0  0  0  0  0  0
  193.5230  176.0470  135.9650 C   0  0  1  0  0  3  0  0  0  0  0  0
  193.2890  173.3950  136.5450 O   0  0  0  0  0  0  0  0  0  0  0  0
  191.9250  177.0650  140.9770 O   0  0  0  0  0  0  0  0  0  0  0  0
  190.6410  175.2740  138.2940 C   0  0  0  0  0  2  0  0  0  0  0  0
  196.6470  172.7460  137.1930 C   0  0  0  0  0  1  0  0  0  0  0  0
  192.3300  173.6930  137.5160 C   0  0  0  0  0  2  0  0  0  0  0  0
  193.4920  175.4850  134.6870 O   0  0  0  0  0  1  0  0  0  0  0  0
  196.2400  174.5500  135.6180 N   0  0  0  0  0  2  0  0  0  0  0  0
  192.1370  177.0930  137.6350 O   0  0  0  0  0  0  0  0  0  0  0  0
  191.3850  174.8250  137.0560 C   0  0  1  0  0  0  0  0  0  0  0  0
  192.1230  176.1320  136.6050 C   0  0  2  0  0  3  0  0  0  0  0  0
  191.3460  177.0740  139.8590 C   0  0  0  0  0  0  0  0  0  0  0  0
  194.4850  173.9110  137.0550 C   0  0  1  0  0  3  0  0  0  0  0  0
  195.6390  173.3910  136.2640 C   0  0  2  0  0  3  0  0  0  0  0  0
  189.9010  172.4760  134.5970 C   0  0  0  0  0  1  0  0  0  0  0  0
  190.2970  172.9270  135.9880 C   0  0  0  0  0  2  0  0  0  0  0  0
  183.0350  178.5270  138.8910 C   0  0  2  0  0  3  0  0  0  0  0  0
  183.1630  178.2730  140.3920 C   0  0  0  0  0  2  0  0  0  0  0  0
  184.2340  178.9930  140.9250 O   0  0  0  0  0  0  0  0  0  0  0  0
  184.6890  178.2010  141.9780 C   0  0  0  0  0  2  0  0  0  0  0  0
  183.9030  178.4870  143.1770 N   0  0  0  0  0  2  0  0  0  0  0  0
  183.9550  178.7500  145.5810 C   0  0  0  0  0  1  0  0  0  0  0  0
  184.7650  178.8560  144.3060 C   0  0  0  0  0  0  0  0  0  0  0  0
  185.2570  180.2910  144.1750 C   0  0  0  0  0  1  0  0  0  0  0  0
  185.9540  177.9110  144.4230 C   0  0  0  0  0  1  0  0  0  0  0  0
  181.6280  178.6320  138.5250 N   0  0  0  0  0  2  0  0  0  0  0  0
  181.3170  180.0010  138.4720 N   0  0  0  0  0  2  0  0  0  0  0  0
  180.2540  179.0390  136.6640 F   0  0  0  0  0  0  0  0  0  0  0  0
  180.3830  180.2220  137.3690 C   0  0  0  0  0  0  0  0  0  0  0  0
  179.1410  180.5600  137.8810 F   0  0  0  0  0  0  0  0  0  0  0  0
  180.8640  180.8820  135.1070 O   0  0  0  0  0  1  0  0  0  0  0  0
  180.9130  181.3270  136.4330 C   0  0  1  0  0  3  0  0  0  0  0  0
  180.2020  182.6910  136.5800 C   0  0  2  0  0  0  0  0  0  0  0  0
  178.9310  182.5930  136.0010 O   0  0  0  0  0  1  0  0  0  0  0  0
  180.9760  183.6920  135.9390 O   0  0  0  0  0  0  0  0  0  0  0  0
  181.4890  184.5820  136.8990 C   0  0  0  0  0  1  0  0  0  0  0  0
  178.9340  183.8380  138.2820 F   0  0  0  0  0  0  0  0  0  0  0  0
  180.0170  183.0040  138.0720 C   0  0  0  0  0  2  0  0  0  0  0  0
  183.3050  176.1560  138.4690 O   0  0  0  0  0  0  0  0  0  0  0  0
  180.7170  174.8440  136.0910 C   0  0  0  0  0  2  0  0  0  0  0  0
  182.6580  173.2280  136.2050 C   0  0  0  0  0  2  0  0  0  0  0  0
  183.5060  174.1740  137.0700 C   0  0  2  0  0  0  0  0  0  0  0  0
  181.3010  175.3720  137.4080 C   0  0  0  0  0  2  0  0  0  0  0  0
  183.7490  173.5450  138.2800 F   0  0  0  0  0  0  0  0  0  0  0  0
  182.8170  175.5360  137.3120 C   0  0  1  0  0  3  0  0  0  0  0  0
  181.7050  173.9890  135.2850 C   0  0  0  0  0  2  0  0  0  0  0  0
  184.8330  174.4090  136.3720 C   0  0  0  0  0  1  0  0  0  0  0  0
  1  2  1  1  0  0  0
  1 54  1  0  0  0  0
  1 32  1  0  0  0  0
  4  3  1  6  0  0  0
  4  5  1  0  0  0  0
  4  2  1  0  0  0  0
  6  7  1  1  0  0  0
  6  5  1  0  0  0  0
  8  9  1  1  0  0  0
  8  6  1  0  0  0  0
  8 10  1  0  0  0  0
 11 10  1  0  0  0  0
 13 27  1  0  0  0  0
 14 12  1  6  0  0  0
 14 28  1  0  0  0  0
 15 19  1  6  0  0  0
 15 13  1  0  0  0  0
 15 27  1  0  0  0  0
 16 22  1  6  0  0  0
 16 26  1  0  0  0  0
 16 14  1  0  0  0  0
 17 21  1  0  0  0  0
 23 29  1  0  0  0  0
 23 12  1  0  0  0  0
 24 15  1  0  0  0  0
 25 11  1  6  0  0  0
 25 21  1  0  0  0  0
 25 19  1  0  0  0  0
 26 25  1  0  0  0  0
 26 24  1  1  0  0  0
 27 18  2  0  0  0  0
 28 17  1  6  0  0  0
 29 28  1  0  0  0  0
 29 20  1  1  0  0  0
 30 31  1  0  0  0  0
 31 11  1  0  0  0  0
 32 33  1  1  0  0  0
 33 34  1  0  0  0  0
 34 35  1  0  0  0  0
 35 36  1  0  0  0  0
 36 38  1  0  0  0  0
 38 40  1  0  0  0  0
 38 37  1  0  0  0  0
 39 38  1  0  0  0  0
 41 32  1  0  0  0  0
 42 41  1  0  0  0  0
 43 44  1  0  0  0  0
 44 45  1  0  0  0  0
 44 42  1  0  0  0  0
 47 46  1  6  0  0  0
 47 48  1  0  0  0  0
 47 44  1  0  0  0  0
 48 49  1  6  0  0  0
 48 53  1  0  0  0  0
 50 48  1  0  0  0  0
 50 51  1  0  0  0  0
 53 52  1  0  0  0  0
 55 58  1  0  0  0  0
 56 57  1  0  0  0  0
 57 62  1  6  0  0  0
 57 60  1  0  0  0  0
 57 59  1  0  0  0  0
 60 58  1  0  0  0  0
 60 54  1  1  0  0  0
 61 55  1  0  0  0  0
 61 56  1  0  0  0  0
M  END
>  <MODEL>
3

>  <REMARK>
 VINA RESULT:      -4.4      2.101      5.082
  Name = 
  24 active torsions:
  status: ('A' for Active; 'I' for Inactive)
    1  A    between atoms: O_5  and  C_34
    2  A    between atoms: O_5  and  C_60
    3  A    between atoms: O_7  and  C_39
    4  A    between atoms: O_7  and  C_41
    5  A    between atoms: C_10  and  C_36
    6  A    between atoms: C_10  and  C_45
    7  A    between atoms: C_11  and  C_32
    8  A    between atoms: N_18  and  N_19
    9  A    between atoms: N_18  and  C_22
   10  A    between atoms: N_19  and  C_46
   11  A    between atoms: C_21  and  C_22
   12  A    between atoms: C_21  and  C_32
   13  A    between atoms: O_28  and  C_32
   14  A    between atoms: C_33  and  N_62
   15  A    between atoms: C_34  and  N_62
   16  A    between atoms: C_35  and  C_45
   17  A    between atoms: C_35  and  C_54
   18  A    between atoms: C_36  and  C_40
   19  A    between atoms: C_40  and  N_47
   20  A    between atoms: C_41  and  C_46
   21  A    between atoms: C_41  and  C_54
   22  A    between atoms: C_46  and  C_60
   23  A    between atoms: N_47  and  C_49
   24  A    between atoms: N_47  and  C_50
                            x       y       z     vdW  Elec       q    Type
                         _______ _______ _______ _____ _____    ______ ____

>  <TORSDO>
F 24

$$$$
=
 OpenBabel11062416583D

 62 66  0  0  1  0  0  0  0  0999 V2000
  184.0200  177.4100  137.8310 C   0  0  2  0  0  3  0  0  0  0  0  0
  183.5330  177.1230  139.2550 C   0  0  0  0  0  2  0  0  0  0  0  0
  182.4010  178.0590  141.1310 O   0  0  0  0  0  1  0  0  0  0  0  0
  183.1390  178.3940  139.9950 C   0  0  1  0  0  3  0  0  0  0  0  0
  184.3930  179.1510  140.4050 C   0  0  0  0  0  2  0  0  0  0  0  0
  185.4140  178.2170  141.0500 C   0  0  1  0  0  3  0  0  0  0  0  0
  186.7900  178.3530  140.4120 C   0  0  0  0  0  1  0  0  0  0  0  0
  185.4930  178.3830  142.5710 C   0  0  2  0  0  3  0  0  0  0  0  0
  184.6180  179.3690  143.0260 O   0  0  0  0  0  1  0  0  0  0  0  0
  186.9010  178.5630  143.1540 C   0  0  0  0  0  2  0  0  0  0  0  0
  187.1820  177.6340  144.2540 N   0  0  0  0  0  0  0  0  0  0  0  0
  191.6760  178.1230  140.8710 O   0  0  0  0  0  0  0  0  0  0  0  0
  190.3330  177.5550  147.1880 N   0  0  0  0  0  2  0  0  0  0  0  0
  190.9430  177.5860  141.9430 C   0  0  1  0  0  3  0  0  0  0  0  0
  190.2310  177.1700  145.8570 C   0  0  1  0  0  0  0  0  0  0  0  0
  190.1740  178.6980  142.6750 C   0  0  1  0  0  3  0  0  0  0  0  0
  188.7560  176.5350  141.8170 O   0  0  0  0  0  0  0  0  0  0  0  0
  192.1140  175.5990  146.5930 O   0  0  0  0  0  0  0  0  0  0  0  0
  188.9440  176.4980  145.4990 C   0  0  0  0  0  2  0  0  0  0  0  0
  190.8970  175.5400  139.2590 C   0  0  0  0  0  1  0  0  0  0  0  0
  188.7630  176.0170  143.1130 C   0  0  0  0  0  2  0  0  0  0  0  0
  189.2160  179.3020  141.8590 O   0  0  0  0  0  1  0  0  0  0  0  0
  190.9250  177.9190  139.7470 N   0  0  0  0  0  2  0  0  0  0  0  0
  190.6710  178.1460  144.9680 O   0  0  0  0  0  0  0  0  0  0  0  0
  188.5800  177.1260  144.1730 C   0  0  1  0  0  0  0  0  0  0  0  0
  189.6100  178.3010  144.0540 C   0  0  2  0  0  3  0  0  0  0  0  0
  191.2040  176.4670  146.5380 C   0  0  0  0  0  0  0  0  0  0  0  0
  190.0870  176.4560  141.3930 C   0  0  1  0  0  3  0  0  0  0  0  0
  190.1650  176.6890  139.9210 C   0  0  2  0  0  3  0  0  0  0  0  0
  185.5370  178.2370  145.9520 C   0  0  0  0  0  1  0  0  0  0  0  0
  186.9670  178.3990  145.4790 C   0  0  0  0  0  2  0  0  0  0  0  0
  182.8390  177.6930  136.8950 C   0  0  2  0  0  3  0  0  0  0  0  0
  181.4980  177.6270  137.6250 C   0  0  0  0  0  2  0  0  0  0  0  0
  180.6120  178.5790  137.1150 O   0  0  0  0  0  0  0  0  0  0  0  0
  180.3480  179.4150  138.1990 C   0  0  0  0  0  2  0  0  0  0  0  0
  179.4120  180.4610  137.7930 N   0  0  0  0  0  2  0  0  0  0  0  0
  181.2040  182.0310  138.2080 C   0  0  0  0  0  1  0  0  0  0  0  0
  179.7340  181.7440  138.4280 C   0  0  0  0  0  0  0  0  0  0  0  0
  179.4830  181.6910  139.9290 C   0  0  0  0  0  1  0  0  0  0  0  0
  178.9340  182.8810  137.8090 C   0  0  0  0  0  1  0  0  0  0  0  0
  182.8450  176.7520  135.7830 N   0  0  0  0  0  2  0  0  0  0  0  0
  181.7060  175.9410  135.9210 N   0  0  0  0  0  2  0  0  0  0  0  0
  183.4080  174.4550  135.4560 F   0  0  0  0  0  0  0  0  0  0  0  0
  182.1350  174.5460  135.9900 C   0  0  0  0  0  0  0  0  0  0  0  0
  182.1920  174.1500  137.3170 F   0  0  0  0  0  0  0  0  0  0  0  0
  181.8770  172.5680  134.6470 O   0  0  0  0  0  1  0  0  0  0  0  0
  181.1710  173.6490  135.1870 C   0  0  1  0  0  3  0  0  0  0  0  0
  179.9380  173.1590  135.9790 C   0  0  2  0  0  0  0  0  0  0  0  0
  179.1700  172.3420  135.1410 O   0  0  0  0  0  1  0  0  0  0  0  0
  179.1900  174.2810  136.4180 O   0  0  0  0  0  0  0  0  0  0  0  0
  178.9470  174.1780  137.7990 C   0  0  0  0  0  1  0  0  0  0  0  0
  180.3880  170.9580  136.8600 F   0  0  0  0  0  0  0  0  0  0  0  0
  180.4080  172.3070  137.1660 C   0  0  0  0  0  2  0  0  0  0  0  0
  184.7970  176.3430  137.3580 O   0  0  0  0  0  0  0  0  0  0  0  0
  187.5080  178.8930  136.8930 C   0  0  0  0  0  2  0  0  0  0  0  0
  188.2350  176.6930  135.8830 C   0  0  0  0  0  2  0  0  0  0  0  0
  187.0100  175.9400  136.4260 C   0  0  2  0  0  0  0  0  0  0  0  0
  186.1060  178.2750  136.8040 C   0  0  0  0  0  2  0  0  0  0  0  0
  186.2880  175.4600  135.3460 F   0  0  0  0  0  0  0  0  0  0  0  0
  186.1070  176.8330  137.3080 C   0  0  1  0  0  3  0  0  0  0  0  0
  188.6380  177.8610  136.7810 C   0  0  0  0  0  2  0  0  0  0  0  0
  187.4930  174.7610  137.2500 C   0  0  0  0  0  1  0  0  0  0  0  0
  1  2  1  1  0  0  0
  2  4  1  0  0  0  0
  4  5  1  0  0  0  0
  4  3  1  1  0  0  0
  5  6  1  0  0  0  0
  6  7  1  6  0  0  0
  6  8  1  0  0  0  0
  8  9  1  6  0  0  0
  8 10  1  0  0  0  0
 10 11  1  0  0  0  0
 11 31  1  0  0  0  0
 14 12  1  6  0  0  0
 14 16  1  0  0  0  0
 15 19  1  6  0  0  0
 15 27  1  0  0  0  0
 15 13  1  0  0  0  0
 16 22  1  6  0  0  0
 16 26  1  0  0  0  0
 17 21  1  0  0  0  0
 21 25  1  0  0  0  0
 23 29  1  0  0  0  0
 23 12  1  0  0  0  0
 24 15  1  0  0  0  0
 25 11  1  1  0  0  0
 25 19  1  0  0  0  0
 26 25  1  0  0  0  0
 26 24  1  1  0  0  0
 27 18  2  0  0  0  0
 27 13  1  0  0  0  0
 28 17  1  1  0  0  0
 28 14  1  0  0  0  0
 29 20  1  6  0  0  0
 29 28  1  0  0  0  0
 31 30  1  0  0  0  0
 32 33  1  1  0  0  0
 32  1  1  0  0  0  0
 34 33  1  0  0  0  0
 34 35  1  0  0  0  0
 36 35  1  0  0  0  0
 36 38  1  0  0  0  0
 37 38  1  0  0  0  0
 38 39  1  0  0  0  0
 40 38  1  0  0  0  0
 41 42  1  0  0  0  0
 41 32  1  0  0  0  0
 42 44  1  0  0  0  0
 43 44  1  0  0  0  0
 44 45  1  0  0  0  0
 47 46  1  1  0  0  0
 47 48  1  0  0  0  0
 47 44  1  0  0  0  0
 48 49  1  6  0  0  0
 48 50  1  0  0  0  0
 48 53  1  0  0  0  0
 50 51  1  0  0  0  0
 52 53  1  0  0  0  0
 54  1  1  0  0  0  0
 56 57  1  0  0  0  0
 56 61  1  0  0  0  0
 57 62  1  1  0  0  0
 57 60  1  0  0  0  0
 58 55  1  0  0  0  0
 58 60  1  0  0  0  0
 59 57  1  0  0  0  0
 60 54  1  6  0  0  0
 61 55  1  0  0  0  0
M  END
>  <MODEL>
4

>  <REMARK>
 VINA RESULT:      -4.2      3.287      7.362
  Name = 
  24 active torsions:
  status: ('A' for Active; 'I' for Inactive)
    1  A    between atoms: O_5  and  C_34
    2  A    between atoms: O_5  and  C_60
    3  A    between atoms: O_7  and  C_39
    4  A    between atoms: O_7  and  C_41
    5  A    between atoms: C_10  and  C_36
    6  A    between atoms: C_10  and  C_45
    7  A    between atoms: C_11  and  C_32
    8  A    between atoms: N_18  and  N_19
    9  A    between atoms: N_18  and  C_22
   10  A    between atoms: N_19  and  C_46
   11  A    between atoms: C_21  and  C_22
   12  A    between atoms: C_21  and  C_32
   13  A    between atoms: O_28  and  C_32
   14  A    between atoms: C_33  and  N_62
   15  A    between atoms: C_34  and  N_62
   16  A    between atoms: C_35  and  C_45
   17  A    between atoms: C_35  and  C_54
   18  A    between atoms: C_36  and  C_40
   19  A    between atoms: C_40  and  N_47
   20  A    between atoms: C_41  and  C_46
   21  A    between atoms: C_41  and  C_54
   22  A    between atoms: C_46  and  C_60
   23  A    between atoms: N_47  and  C_49
   24  A    between atoms: N_47  and  C_50
                            x       y       z     vdW  Elec       q    Type
                         _______ _______ _______ _____ _____    ______ ____

>  <TORSDO>
F 24

$$$$
=
 OpenBabel11062416583D

 62 66  0  0  1  0  0  0  0  0999 V2000
  182.6400  177.5520  139.4590 C   0  0  2  0  0  3  0  0  0  0  0  0
  182.7930  177.8300  140.9580 C   0  0  0  0  0  2  0  0  0  0  0  0
  184.1120  179.7170  141.5730 O   0  0  0  0  0  1  0  0  0  0  0  0
  184.1810  178.3490  141.3090 C   0  0  1  0  0  3  0  0  0  0  0  0
  184.6990  177.6170  142.5370 C   0  0  0  0  0  2  0  0  0  0  0  0
  185.1380  178.5990  143.6190 C   0  0  1  0  0  3  0  0  0  0  0  0
  183.9590  179.3650  144.2040 C   0  0  0  0  0  1  0  0  0  0  0  0
  185.9650  177.9330  144.7250 C   0  0  2  0  0  3  0  0  0  0  0  0
  185.3160  177.9900  145.9570 O   0  0  0  0  0  1  0  0  0  0  0  0
  187.4280  178.3860  144.8330 C   0  0  0  0  0  2  0  0  0  0  0  0
  188.1520  177.7110  145.9160 N   0  0  0  0  0  0  0  0  0  0  0  0
  191.6840  178.1590  141.5330 O   0  0  0  0  0  0  0  0  0  0  0  0
  191.8680  176.7190  147.8510 N   0  0  0  0  0  2  0  0  0  0  0  0
  191.1570  177.5520  142.6860 C   0  0  1  0  0  3  0  0  0  0  0  0
  191.3750  176.5810  146.5600 C   0  0  1  0  0  0  0  0  0  0  0  0
  190.7980  178.6170  143.7340 C   0  0  1  0  0  3  0  0  0  0  0  0
  188.8600  176.8380  143.0230 O   0  0  0  0  0  0  0  0  0  0  0  0
  193.0810  174.6710  146.5520 O   0  0  0  0  0  0  0  0  0  0  0  0
  189.9430  176.1560  146.4810 C   0  0  0  0  0  2  0  0  0  0  0  0
  190.0960  176.0120  139.8760 C   0  0  0  0  0  1  0  0  0  0  0  0
  189.0980  176.1130  144.1920 C   0  0  0  0  0  2  0  0  0  0  0  0
  189.7860  179.4720  143.2920 O   0  0  0  0  0  1  0  0  0  0  0  0
  190.6540  178.2500  140.6380 N   0  0  0  0  0  2  0  0  0  0  0  0
  191.7430  177.6250  145.7170 O   0  0  0  0  0  0  0  0  0  0  0  0
  189.3770  177.0420  145.3940 C   0  0  1  0  0  0  0  0  0  0  0  0
  190.5320  178.0720  145.1520 C   0  0  2  0  0  3  0  0  0  0  0  0
  192.3490  175.6500  146.8560 C   0  0  0  0  0  0  0  0  0  0  0  0
  190.0100  176.6550  142.2490 C   0  0  1  0  0  3  0  0  0  0  0  0
  189.7600  177.1200  140.8530 C   0  0  2  0  0  3  0  0  0  0  0  0
  187.5770  178.6680  148.0840 C   0  0  0  0  0  1  0  0  0  0  0  0
  188.4880  178.7560  146.8770 C   0  0  0  0  0  2  0  0  0  0  0  0
  183.2610  178.6800  138.6280 C   0  0  2  0  0  3  0  0  0  0  0  0
  182.2200  179.6990  138.1680 C   0  0  0  0  0  2  0  0  0  0  0  0
  182.6050  180.9930  138.5220 O   0  0  0  0  0  0  0  0  0  0  0  0
  181.4240  181.7300  138.4610 C   0  0  0  0  0  2  0  0  0  0  0  0
  181.0870  181.9970  137.0640 N   0  0  0  0  0  2  0  0  0  0  0  0
  179.4720  183.1300  135.6650 C   0  0  0  0  0  1  0  0  0  0  0  0
  180.3000  183.2280  136.9290 C   0  0  0  0  0  0  0  0  0  0  0  0
  181.2030  184.4470  136.8090 C   0  0  0  0  0  1  0  0  0  0  0  0
  179.3470  183.4040  138.1040 C   0  0  0  0  0  1  0  0  0  0  0  0
  183.9560  178.1260  137.4730 N   0  0  0  0  0  2  0  0  0  0  0  0
  185.0580  177.4030  137.9600 N   0  0  0  0  0  2  0  0  0  0  0  0
  185.6160  177.6660  135.7370 F   0  0  0  0  0  0  0  0  0  0  0  0
  185.7730  176.8250  136.8240 C   0  0  0  0  0  0  0  0  0  0  0  0
  187.1230  176.7480  137.1240 F   0  0  0  0  0  0  0  0  0  0  0  0
  184.3990  175.5170  135.3450 O   0  0  0  0  0  1  0  0  0  0  0  0
  185.2030  175.4310  136.4870 C   0  0  1  0  0  3  0  0  0  0  0  0
  186.2660  174.3220  136.3280 C   0  0  2  0  0  0  0  0  0  0  0  0
  186.6310  173.8720  137.6030 O   0  0  0  0  0  1  0  0  0  0  0  0
  187.3880  174.8480  135.6370 O   0  0  0  0  0  0  0  0  0  0  0  0
  187.7540  173.9750  134.5960 C   0  0  0  0  0  1  0  0  0  0  0  0
  184.9770  172.2860  136.4230 F   0  0  0  0  0  0  0  0  0  0  0  0
  185.6510  173.1390  135.5690 C   0  0  0  0  0  2  0  0  0  0  0  0
  181.2890  177.3680  139.1340 O   0  0  0  0  0  0  0  0  0  0  0  0
  181.1170  174.5130  136.7060 C   0  0  0  0  0  2  0  0  0  0  0  0
  179.4940  174.1090  138.6030 C   0  0  0  0  0  2  0  0  0  0  0  0
  179.9930  175.3240  139.4020 C   0  0  2  0  0  0  0  0  0  0  0  0
  181.0670  175.9650  137.2000 C   0  0  0  0  0  2  0  0  0  0  0  0
  178.9350  176.2080  139.5420 F   0  0  0  0  0  0  0  0  0  0  0  0
  181.1860  176.0330  138.7220 C   0  0  1  0  0  3  0  0  0  0  0  0
  180.5950  173.5010  137.7350 C   0  0  0  0  0  2  0  0  0  0  0  0
  180.4190  174.8550  140.7810 C   0  0  0  0  0  1  0  0  0  0  0  0
  1  2  1  1  0  0  0
  2  4  1  0  0  0  0
  4  3  1  1  0  0  0
  4  5  1  0  0  0  0
  5  6  1  0  0  0  0
  6  7  1  1  0  0  0
  6  8  1  0  0  0  0
  8 10  1  0  0  0  0
  8  9  1  1  0  0  0
 10 11  1  0  0  0  0
 11 31  1  0  0  0  0
 14 12  1  6  0  0  0
 14 16  1  0  0  0  0
 15 19  1  6  0  0  0
 15 27  1  0  0  0  0
 15 13  1  0  0  0  0
 16 22  1  6  0  0  0
 16 26  1  0  0  0  0
 17 21  1  0  0  0  0
 18 27  2  0  0  0  0
 21 25  1  0  0  0  0
 23 29  1  0  0  0  0
 23 12  1  0  0  0  0
 24 15  1  0  0  0  0
 25 11  1  1  0  0  0
 25 19  1  0  0  0  0
 26 25  1  0  0  0  0
 26 24  1  6  0  0  0
 27 13  1  0  0  0  0
 28 14  1  0  0  0  0
 28 17  1  1  0  0  0
 29 20  1  6  0  0  0
 29 28  1  0  0  0  0
 31 30  1  0  0  0  0
 32 33  1  6  0  0  0
 32  1  1  0  0  0  0
 33 34  1  0  0  0  0
 35 34  1  0  0  0  0
 36 35  1  0  0  0  0
 37 38  1  0  0  0  0
 38 36  1  0  0  0  0
 38 40  1  0  0  0  0
 39 38  1  0  0  0  0
 41 42  1  0  0  0  0
 41 32  1  0  0  0  0
 43 44  1  0  0  0  0
 44 45  1  0  0  0  0
 44 42  1  0  0  0  0
 47 46  1  6  0  0  0
 47 44  1  0  0  0  0
 48 47  1  0  0  0  0
 48 49  1  1  0  0  0
 50 48  1  0  0  0  0
 51 50  1  0  0  0  0
 53 48  1  0  0  0  0
 53 52  1  0  0  0  0
 54  1  1  0  0  0  0
 55 58  1  0  0  0  0
 55 61  1  0  0  0  0
 56 57  1  0  0  0  0
 57 59  1  0  0  0  0
 57 62  1  1  0  0  0
 58 60  1  0  0  0  0
 60 54  1  1  0  0  0
 60 57  1  0  0  0  0
 61 56  1  0  0  0  0
M  END
>  <MODEL>
5

>  <REMARK>
 VINA RESULT:      -4.2      3.248      7.114
  Name = 
  24 active torsions:
  status: ('A' for Active; 'I' for Inactive)
    1  A    between atoms: O_5  and  C_34
    2  A    between atoms: O_5  and  C_60
    3  A    between atoms: O_7  and  C_39
    4  A    between atoms: O_7  and  C_41
    5  A    between atoms: C_10  and  C_36
    6  A    between atoms: C_10  and  C_45
    7  A    between atoms: C_11  and  C_32
    8  A    between atoms: N_18  and  N_19
    9  A    between atoms: N_18  and  C_22
   10  A    between atoms: N_19  and  C_46
   11  A    between atoms: C_21  and  C_22
   12  A    between atoms: C_21  and  C_32
   13  A    between atoms: O_28  and  C_32
   14  A    between atoms: C_33  and  N_62
   15  A    between atoms: C_34  and  N_62
   16  A    between atoms: C_35  and  C_45
   17  A    between atoms: C_35  and  C_54
   18  A    between atoms: C_36  and  C_40
   19  A    between atoms: C_40  and  N_47
   20  A    between atoms: C_41  and  C_46
   21  A    between atoms: C_41  and  C_54
   22  A    between atoms: C_46  and  C_60
   23  A    between atoms: N_47  and  C_49
   24  A    between atoms: N_47  and  C_50
                            x       y       z     vdW  Elec       q    Type
                         _______ _______ _______ _____ _____    ______ ____

>  <TORSDO>
F 24

$$$$
=
 OpenBabel11062416583D

 62 66  0  0  1  0  0  0  0  0999 V2000
  183.8030  178.3110  138.6600 C   0  0  2  0  0  3  0  0  0  0  0  0
  184.6930  178.9750  139.7160 C   0  0  0  0  0  2  0  0  0  0  0  0
  183.4030  177.5140  141.0880 O   0  0  0  0  0  1  0  0  0  0  0  0
  184.2890  178.5920  141.1330 C   0  0  1  0  0  3  0  0  0  0  0  0
  185.5270  178.2020  141.9240 C   0  0  0  0  0  2  0  0  0  0  0  0
  185.6170  178.9870  143.2300 C   0  0  1  0  0  3  0  0  0  0  0  0
  184.2820  179.6140  143.6080 C   0  0  0  0  0  1  0  0  0  0  0  0
  186.1820  178.1540  144.3860 C   0  0  2  0  0  3  0  0  0  0  0  0
  185.2790  178.0660  145.4440 O   0  0  0  0  0  1  0  0  0  0  0  0
  187.5860  178.5440  144.8700 C   0  0  0  0  0  2  0  0  0  0  0  0
  188.1040  177.6350  145.8970 N   0  0  0  0  0  0  0  0  0  0  0  0
  191.8880  178.2450  141.7510 O   0  0  0  0  0  0  0  0  0  0  0  0
  191.7330  176.8650  148.0840 N   0  0  0  0  0  2  0  0  0  0  0  0
  191.3210  177.6180  142.8730 C   0  0  1  0  0  3  0  0  0  0  0  0
  191.3350  176.6900  146.7640 C   0  0  1  0  0  0  0  0  0  0  0  0
  190.8350  178.6690  143.8840 C   0  0  1  0  0  3  0  0  0  0  0  0
  189.0480  176.7810  143.0670 O   0  0  0  0  0  0  0  0  0  0  0  0
  193.1390  174.8780  146.8890 O   0  0  0  0  0  0  0  0  0  0  0  0
  189.9370  176.1860  146.5970 C   0  0  0  0  0  2  0  0  0  0  0  0
  190.5330  176.0000  140.0170 C   0  0  0  0  0  1  0  0  0  0  0  0
  189.2480  176.0790  144.2580 C   0  0  0  0  0  2  0  0  0  0  0  0
  189.8100  179.4630  143.3670 O   0  0  0  0  0  1  0  0  0  0  0  0
  190.9170  178.2710  140.7890 N   0  0  0  0  0  2  0  0  0  0  0  0
  191.7000  177.7470  145.9360 O   0  0  0  0  0  0  0  0  0  0  0  0
  189.3960  177.0310  145.4650 C   0  0  1  0  0  0  0  0  0  0  0  0
  190.5070  178.1220  145.2880 C   0  0  2  0  0  3  0  0  0  0  0  0
  192.3370  175.8160  147.1340 C   0  0  0  0  0  0  0  0  0  0  0  0
  190.2560  176.6550  142.3720 C   0  0  1  0  0  3  0  0  0  0  0  0
  190.0730  177.0960  140.9580 C   0  0  2  0  0  3  0  0  0  0  0  0
  187.7620  177.7080  148.3120 C   0  0  0  0  0  1  0  0  0  0  0  0
  188.2760  178.4510  147.0950 C   0  0  0  0  0  2  0  0  0  0  0  0
  184.5700  177.2180  137.9070 C   0  0  2  0  0  3  0  0  0  0  0  0
  185.6270  177.7990  136.9690 C   0  0  0  0  0  2  0  0  0  0  0  0
  185.1750  177.7830  135.6470 O   0  0  0  0  0  0  0  0  0  0  0  0
  186.1290  177.0260  134.9690 C   0  0  0  0  0  2  0  0  0  0  0  0
  187.4040  177.0970  135.6800 N   0  0  0  0  0  2  0  0  0  0  0  0
  189.2570  175.9080  136.6810 C   0  0  0  0  0  1  0  0  0  0  0  0
  187.9630  175.7590  135.9100 C   0  0  0  0  0  0  0  0  0  0  0  0
  188.2740  175.0600  134.5940 C   0  0  0  0  0  1  0  0  0  0  0  0
  187.0160  174.9030  136.7400 C   0  0  0  0  0  1  0  0  0  0  0  0
  183.6430  176.3840  137.1540 N   0  0  0  0  0  2  0  0  0  0  0  0
  182.9790  175.5630  138.0810 N   0  0  0  0  0  2  0  0  0  0  0  0
  182.0160  175.0720  136.0420 F   0  0  0  0  0  0  0  0  0  0  0  0
  181.8520  174.9200  137.4080 C   0  0  0  0  0  0  0  0  0  0  0  0
  181.8570  173.5660  137.6980 F   0  0  0  0  0  0  0  0  0  0  0  0
  179.4830  175.1090  137.0330 O   0  0  0  0  0  1  0  0  0  0  0  0
  180.5240  175.5740  137.8450 C   0  0  1  0  0  3  0  0  0  0  0  0
  180.1790  175.3910  139.3390 C   0  0  2  0  0  0  0  0  0  0  0  0
  181.3270  175.6590  140.0950 O   0  0  0  0  0  1  0  0  0  0  0  0
  179.7290  174.0640  139.5550 O   0  0  0  0  0  0  0  0  0  0  0  0
  179.2170  173.9430  140.8600 C   0  0  0  0  0  1  0  0  0  0  0  0
  179.4190  177.0380  140.9300 F   0  0  0  0  0  0  0  0  0  0  0  0
  179.1040  176.4120  139.7370 C   0  0  0  0  0  2  0  0  0  0  0  0
  183.2940  179.2730  137.7770 O   0  0  0  0  0  0  0  0  0  0  0  0
  179.9220  178.5340  136.3090 C   0  0  0  0  0  2  0  0  0  0  0  0
  179.7090  180.3710  138.0340 C   0  0  0  0  0  2  0  0  0  0  0  0
  181.1710  180.2320  138.4870 C   0  0  2  0  0  0  0  0  0  0  0  0
  181.4090  178.9140  136.3380 C   0  0  0  0  0  2  0  0  0  0  0  0
  181.8150  181.4320  138.2310 F   0  0  0  0  0  0  0  0  0  0  0  0
  181.9080  179.0760  137.7730 C   0  0  1  0  0  3  0  0  0  0  0  0
  179.1370  179.0490  137.5240 C   0  0  0  0  0  2  0  0  0  0  0  0
  181.1920  179.9810  139.9840 C   0  0  0  0  0  1  0  0  0  0  0  0
  1  2  1  1  0  0  0
  2  4  1  0  0  0  0
  4  3  1  6  0  0  0
  4  5  1  0  0  0  0
  5  6  1  0  0  0  0
  6  7  1  1  0  0  0
  6  8  1  0  0  0  0
  8 10  1  0  0  0  0
  8  9  1  1  0  0  0
 10 11  1  0  0  0  0
 11 31  1  0  0  0  0
 14 12  1  6  0  0  0
 14 16  1  0  0  0  0
 15 19  1  6  0  0  0
 15 27  1  0  0  0  0
 15 13  1  0  0  0  0
 16 22  1  6  0  0  0
 16 26  1  0  0  0  0
 17 21  1  0  0  0  0
 18 27  2  0  0  0  0
 21 25  1  0  0  0  0
 23 29  1  0  0  0  0
 23 12  1  0  0  0  0
 24 15  1  0  0  0  0
 25 11  1  1  0  0  0
 25 19  1  0  0  0  0
 26 25  1  0  0  0  0
 26 24  1  6  0  0  0
 27 13  1  0  0  0  0
 28 14  1  0  0  0  0
 28 17  1  1  0  0  0
 29 20  1  6  0  0  0
 29 28  1  0  0  0  0
 31 30  1  0  0  0  0
 32 33  1  6  0  0  0
 32  1  1  0  0  0  0
 34 33  1  0  0  0  0
 35 34  1  0  0  0  0
 35 36  1  0  0  0  0
 36 38  1  0  0  0  0
 38 37  1  0  0  0  0
 38 40  1  0  0  0  0
 39 38  1  0  0  0  0
 41 32  1  0  0  0  0
 41 42  1  0  0  0  0
 43 44  1  0  0  0  0
 44 45  1  0  0  0  0
 44 47  1  0  0  0  0
 44 42  1  0  0  0  0
 47 46  1  6  0  0  0
 47 48  1  0  0  0  0
 48 50  1  0  0  0  0
 48 53  1  0  0  0  0
 48 49  1  1  0  0  0
 50 51  1  0  0  0  0
 53 52  1  0  0  0  0
 54  1  1  0  0  0  0
 55 58  1  0  0  0  0
 55 61  1  0  0  0  0
 56 57  1  0  0  0  0
 57 62  1  1  0  0  0
 58 60  1  0  0  0  0
 59 57  1  0  0  0  0
 60 54  1  6  0  0  0
 60 57  1  0  0  0  0
 61 56  1  0  0  0  0
M  END
>  <MODEL>
6

>  <REMARK>
 VINA RESULT:      -3.9      3.600      7.931
  Name = 
  24 active torsions:
  status: ('A' for Active; 'I' for Inactive)
    1  A    between atoms: O_5  and  C_34
    2  A    between atoms: O_5  and  C_60
    3  A    between atoms: O_7  and  C_39
    4  A    between atoms: O_7  and  C_41
    5  A    between atoms: C_10  and  C_36
    6  A    between atoms: C_10  and  C_45
    7  A    between atoms: C_11  and  C_32
    8  A    between atoms: N_18  and  N_19
    9  A    between atoms: N_18  and  C_22
   10  A    between atoms: N_19  and  C_46
   11  A    between atoms: C_21  and  C_22
   12  A    between atoms: C_21  and  C_32
   13  A    between atoms: O_28  and  C_32
   14  A    between atoms: C_33  and  N_62
   15  A    between atoms: C_34  and  N_62
   16  A    between atoms: C_35  and  C_45
   17  A    between atoms: C_35  and  C_54
   18  A    between atoms: C_36  and  C_40
   19  A    between atoms: C_40  and  N_47
   20  A    between atoms: C_41  and  C_46
   21  A    between atoms: C_41  and  C_54
   22  A    between atoms: C_46  and  C_60
   23  A    between atoms: N_47  and  C_49
   24  A    between atoms: N_47  and  C_50
                            x       y       z     vdW  Elec       q    Type
                         _______ _______ _______ _____ _____    ______ ____

>  <TORSDO>
F 24

$$$$
=
 OpenBabel11062416583D

 62 66  0  0  1  0  0  0  0  0999 V2000
  188.3180  175.3680  136.3980 C   0  0  2  0  0  3  0  0  0  0  0  0
  186.9390  175.9880  136.1570 C   0  0  0  0  0  2  0  0  0  0  0  0
  186.2770  174.5860  137.9670 O   0  0  0  0  0  1  0  0  0  0  0  0
  185.8200  175.1640  136.7820 C   0  0  1  0  0  3  0  0  0  0  0  0
  184.6320  176.0660  137.0770 C   0  0  0  0  0  2  0  0  0  0  0  0
  183.3130  175.3380  136.8320 C   0  0  1  0  0  3  0  0  0  0  0  0
  183.5020  173.8280  136.7650 C   0  0  0  0  0  1  0  0  0  0  0  0
  182.2300  175.7130  137.8490 C   0  0  2  0  0  3  0  0  0  0  0  0
  180.9500  175.5460  137.3210 O   0  0  0  0  0  1  0  0  0  0  0  0
  182.3900  177.0800  138.5260 C   0  0  0  0  0  2  0  0  0  0  0  0
  181.5220  178.1080  137.9410 N   0  0  0  0  0  0  0  0  0  0  0  0
  178.9310  183.1220  138.1030 O   0  0  0  0  0  0  0  0  0  0  0  0
  179.9810  178.0190  141.9610 N   0  0  0  0  0  2  0  0  0  0  0  0
  179.7420  182.0920  138.6090 C   0  0  1  0  0  3  0  0  0  0  0  0
  180.3890  179.0260  141.0960 C   0  0  1  0  0  0  0  0  0  0  0  0
  179.1440  180.7200  138.2590 C   0  0  1  0  0  3  0  0  0  0  0  0
  181.7390  181.1810  137.5690 O   0  0  0  0  0  0  0  0  0  0  0  0
  180.8090  180.2090  143.3270 O   0  0  0  0  0  0  0  0  0  0  0  0
  181.6160  178.7090  140.3020 C   0  0  0  0  0  2  0  0  0  0  0  0
  181.5880  184.6560  137.4190 C   0  0  0  0  0  1  0  0  0  0  0  0
  182.1630  180.4460  138.6770 C   0  0  0  0  0  2  0  0  0  0  0  0
  179.1080  180.4960  136.8820 O   0  0  0  0  0  1  0  0  0  0  0  0
  179.4990  183.5190  136.9250 N   0  0  0  0  0  2  0  0  0  0  0  0
  179.3380  179.5960  140.3820 O   0  0  0  0  0  0  0  0  0  0  0  0
  181.2730  179.2060  138.9160 C   0  0  1  0  0  0  0  0  0  0  0  0
  179.7440  179.5300  139.0350 C   0  0  2  0  0  3  0  0  0  0  0  0
  180.5060  179.3880  142.4220 C   0  0  0  0  0  0  0  0  0  0  0  0
  181.1560  182.3330  138.1070 C   0  0  1  0  0  3  0  0  0  0  0  0
  180.9400  183.3420  137.0280 C   0  0  2  0  0  3  0  0  0  0  0  0
  181.3860  178.3900  135.5210 C   0  0  0  0  0  1  0  0  0  0  0  0
  182.2300  178.5970  136.7620 C   0  0  0  0  0  2  0  0  0  0  0  0
  189.1980  176.2990  137.2390 C   0  0  2  0  0  3  0  0  0  0  0  0
  190.3350  175.5490  137.9310 C   0  0  0  0  0  2  0  0  0  0  0  0
  191.5700  176.1120  137.6030 O   0  0  0  0  0  0  0  0  0  0  0  0
  192.4400  175.0240  137.5550 C   0  0  0  0  0  2  0  0  0  0  0  0
  192.7610  174.7160  136.1630 N   0  0  0  0  0  2  0  0  0  0  0  0
  194.4510  173.7000  134.7630 C   0  0  0  0  0  1  0  0  0  0  0  0
  194.2090  174.5920  135.9620 C   0  0  0  0  0  0  0  0  0  0  0  0
  194.8780  173.9510  137.1710 C   0  0  0  0  0  1  0  0  0  0  0  0
  194.8440  175.9460  135.6780 C   0  0  0  0  0  1  0  0  0  0  0  0
  188.3870  176.9940  138.2300 N   0  0  0  0  0  2  0  0  0  0  0  0
  189.2520  177.8230  138.9640 N   0  0  0  0  0  2  0  0  0  0  0  0
  188.7700  179.0320  140.8690 F   0  0  0  0  0  0  0  0  0  0  0  0
  188.8820  177.7450  140.3760 C   0  0  0  0  0  0  0  0  0  0  0  0
  187.6480  177.1260  140.4930 F   0  0  0  0  0  0  0  0  0  0  0  0
  191.2050  177.5880  140.9790 O   0  0  0  0  0  1  0  0  0  0  0  0
  189.9610  176.9790  141.1700 C   0  0  1  0  0  3  0  0  0  0  0  0
  189.6560  176.8140  142.6760 C   0  0  2  0  0  0  0  0  0  0  0  0
  188.6210  175.8810  142.8180 O   0  0  0  0  0  1  0  0  0  0  0  0
  189.2820  178.0710  143.2160 O   0  0  0  0  0  0  0  0  0  0  0  0
  188.3590  177.8820  144.2610 C   0  0  0  0  0  1  0  0  0  0  0  0
  190.9340  174.8720  143.3190 F   0  0  0  0  0  0  0  0  0  0  0  0
  190.8970  176.2530  143.3830 C   0  0  0  0  0  2  0  0  0  0  0  0
  188.9320  175.0570  135.1760 O   0  0  0  0  0  0  0  0  0  0  0  0
  186.4650  172.2840  134.6350 C   0  0  0  0  0  2  0  0  0  0  0  0
  188.5170  171.3750  135.7980 C   0  0  0  0  0  2  0  0  0  0  0  0
  189.2880  172.6970  135.6580 C   0  0  2  0  0  0  0  0  0  0  0  0
  186.9990  173.6380  135.1210 C   0  0  0  0  0  2  0  0  0  0  0  0
  189.5660  173.1680  136.9310 F   0  0  0  0  0  0  0  0  0  0  0  0
  188.5000  173.7630  134.8630 C   0  0  1  0  0  3  0  0  0  0  0  0
  187.5180  171.1680  134.6610 C   0  0  0  0  0  2  0  0  0  0  0  0
  190.5990  172.4200  134.9450 C   0  0  0  0  0  1  0  0  0  0  0  0
  1  2  1  6  0  0  0
  1 32  1  0  0  0  0
  2  4  1  0  0  0  0
  4  5  1  0  0  0  0
  4  3  1  1  0  0  0
  6  7  1  1  0  0  0
  6  5  1  0  0  0  0
  6  8  1  0  0  0  0
  8  9  1  6  0  0  0
  8 10  1  0  0  0  0
 11 10  1  0  0  0  0
 13 27  1  0  0  0  0
 14 12  1  6  0  0  0
 15 19  1  6  0  0  0
 15 13  1  0  0  0  0
 15 27  1  0  0  0  0
 16 22  1  6  0  0  0
 16 14  1  0  0  0  0
 16 26  1  0  0  0  0
 17 21  1  0  0  0  0
 21 25  1  0  0  0  0
 23 29  1  0  0  0  0
 23 12  1  0  0  0  0
 24 15  1  0  0  0  0
 25 11  1  6  0  0  0
 25 26  1  0  0  0  0
 25 19  1  0  0  0  0
 26 24  1  1  0  0  0
 27 18  2  0  0  0  0
 28 17  1  6  0  0  0
 28 14  1  0  0  0  0
 29 20  1  1  0  0  0
 29 28  1  0  0  0  0
 30 31  1  0  0  0  0
 31 11  1  0  0  0  0
 32 33  1  1  0  0  0
 32 41  1  0  0  0  0
 34 33  1  0  0  0  0
 35 34  1  0  0  0  0
 36 35  1  0  0  0  0
 37 38  1  0  0  0  0
 38 36  1  0  0  0  0
 38 39  1  0  0  0  0
 40 38  1  0  0  0  0
 41 42  1  0  0  0  0
 42 44  1  0  0  0  0
 44 45  1  0  0  0  0
 44 43  1  0  0  0  0
 44 47  1  0  0  0  0
 47 46  1  1  0  0  0
 47 48  1  0  0  0  0
 48 49  1  1  0  0  0
 48 50  1  0  0  0  0
 48 53  1  0  0  0  0
 50 51  1  0  0  0  0
 52 53  1  0  0  0  0
 54  1  1  0  0  0  0
 55 61  1  0  0  0  0
 55 58  1  0  0  0  0
 57 62  1  6  0  0  0
 57 56  1  0  0  0  0
 57 59  1  0  0  0  0
 60 58  1  0  0  0  0
 60 54  1  1  0  0  0
 60 57  1  0  0  0  0
 61 56  1  0  0  0  0
M  END
>  <MODEL>
7

>  <REMARK>
 VINA RESULT:      -3.7      2.405     10.494
  Name = 
  24 active torsions:
  status: ('A' for Active; 'I' for Inactive)
    1  A    between atoms: O_5  and  C_34
    2  A    between atoms: O_5  and  C_60
    3  A    between atoms: O_7  and  C_39
    4  A    between atoms: O_7  and  C_41
    5  A    between atoms: C_10  and  C_36
    6  A    between atoms: C_10  and  C_45
    7  A    between atoms: C_11  and  C_32
    8  A    between atoms: N_18  and  N_19
    9  A    between atoms: N_18  and  C_22
   10  A    between atoms: N_19  and  C_46
   11  A    between atoms: C_21  and  C_22
   12  A    between atoms: C_21  and  C_32
   13  A    between atoms: O_28  and  C_32
   14  A    between atoms: C_33  and  N_62
   15  A    between atoms: C_34  and  N_62
   16  A    between atoms: C_35  and  C_45
   17  A    between atoms: C_35  and  C_54
   18  A    between atoms: C_36  and  C_40
   19  A    between atoms: C_40  and  N_47
   20  A    between atoms: C_41  and  C_46
   21  A    between atoms: C_41  and  C_54
   22  A    between atoms: C_46  and  C_60
   23  A    between atoms: N_47  and  C_49
   24  A    between atoms: N_47  and  C_50
                            x       y       z     vdW  Elec       q    Type
                         _______ _______ _______ _____ _____    ______ ____

>  <TORSDO>
F 24

$$$$
=
 OpenBabel11062416583D

 62 66  0  0  1  0  0  0  0  0999 V2000
  183.8520  177.7170  138.6740 C   0  0  2  0  0  3  0  0  0  0  0  0
  185.3420  177.4440  138.4500 C   0  0  0  0  0  2  0  0  0  0  0  0
  185.0940  178.2320  136.2150 O   0  0  0  0  0  1  0  0  0  0  0  0
  185.6710  177.2180  136.9800 C   0  0  1  0  0  3  0  0  0  0  0  0
  187.1790  177.2310  136.7910 C   0  0  0  0  0  2  0  0  0  0  0  0
  187.5550  176.9780  135.3330 C   0  0  1  0  0  3  0  0  0  0  0  0
  188.7470  177.8210  134.8990 C   0  0  0  0  0  1  0  0  0  0  0  0
  187.7890  175.4940  135.0300 C   0  0  2  0  0  3  0  0  0  0  0  0
  186.6140  174.8590  134.6320 O   0  0  0  0  0  1  0  0  0  0  0  0
  188.5250  174.6960  136.1150 C   0  0  0  0  0  2  0  0  0  0  0  0
  189.9170  174.4020  135.7580 N   0  0  0  0  0  0  0  0  0  0  0  0
  195.3570  175.7600  136.4240 O   0  0  0  0  0  0  0  0  0  0  0  0
  189.5550  177.4690  138.7590 N   0  0  0  0  0  2  0  0  0  0  0  0
  194.0570  175.4610  136.8660 C   0  0  1  0  0  3  0  0  0  0  0  0
  190.5360  176.5440  138.4250 C   0  0  1  0  0  0  0  0  0  0  0  0
  193.0150  176.1180  135.9480 C   0  0  1  0  0  3  0  0  0  0  0  0
  192.7980  173.4390  136.3890 O   0  0  0  0  0  0  0  0  0  0  0  0
  191.1080  176.8700  140.8990 O   0  0  0  0  0  0  0  0  0  0  0  0
  190.0170  175.1880  138.0640 C   0  0  0  0  0  2  0  0  0  0  0  0
  196.1250  172.8140  137.2030 C   0  0  0  0  0  1  0  0  0  0  0  0
  191.7790  173.6750  137.3140 C   0  0  0  0  0  2  0  0  0  0  0  0
  193.0700  175.6180  134.6450 O   0  0  0  0  0  1  0  0  0  0  0  0
  195.7750  174.6840  135.6930 N   0  0  0  0  0  2  0  0  0  0  0  0
  191.5140  177.0610  137.5800 O   0  0  0  0  0  0  0  0  0  0  0  0
  190.8400  174.8120  136.8530 C   0  0  1  0  0  0  0  0  0  0  0  0
  191.5790  176.1500  136.5080 C   0  0  2  0  0  3  0  0  0  0  0  0
  190.5960  176.9230  139.7500 C   0  0  0  0  0  0  0  0  0  0  0  0
  193.9520  173.9490  136.9930 C   0  0  1  0  0  3  0  0  0  0  0  0
  195.1600  173.4860  136.2470 C   0  0  2  0  0  3  0  0  0  0  0  0
  188.7550  172.2910  136.1400 C   0  0  0  0  0  1  0  0  0  0  0  0
  189.9700  172.9610  135.5320 C   0  0  0  0  0  2  0  0  0  0  0  0
  183.6490  178.9560  139.5540 C   0  0  2  0  0  3  0  0  0  0  0  0
  184.8130  179.1750  140.5190 C   0  0  0  0  0  2  0  0  0  0  0  0
  184.8300  178.1860  141.5040 O   0  0  0  0  0  0  0  0  0  0  0  0
  186.0850  178.3140  142.0960 C   0  0  0  0  0  2  0  0  0  0  0  0
  185.9390  178.3370  143.5500 N   0  0  0  0  0  2  0  0  0  0  0  0
  186.6810  177.3960  145.6510 C   0  0  0  0  0  1  0  0  0  0  0  0
  187.0640  177.6650  144.2110 C   0  0  0  0  0  0  0  0  0  0  0  0
  188.3070  178.5430  144.2090 C   0  0  0  0  0  1  0  0  0  0  0  0
  187.3740  176.3290  143.5480 C   0  0  0  0  0  1  0  0  0  0  0  0
  182.4020  178.8420  140.2990 N   0  0  0  0  0  2  0  0  0  0  0  0
  181.8260  180.1240  140.3400 N   0  0  0  0  0  2  0  0  0  0  0  0
  179.9120  178.8890  140.7070 F   0  0  0  0  0  0  0  0  0  0  0  0
  180.4000  180.0010  140.0450 C   0  0  0  0  0  0  0  0  0  0  0  0
  179.7350  181.1180  140.5240 F   0  0  0  0  0  0  0  0  0  0  0  0
  178.9670  179.1800  138.2960 O   0  0  0  0  0  1  0  0  0  0  0  0
  180.1810  179.8370  138.5260 C   0  0  1  0  0  3  0  0  0  0  0  0
  180.2550  181.1530  137.7200 C   0  0  2  0  0  0  0  0  0  0  0  0
  179.1190  181.9170  138.0150 O   0  0  0  0  0  1  0  0  0  0  0  0
  180.3150  180.8480  136.3360 O   0  0  0  0  0  0  0  0  0  0  0  0
  179.0360  180.9810  135.7650 C   0  0  0  0  0  1  0  0  0  0  0  0
  181.3610  183.2920  137.8610 F   0  0  0  0  0  0  0  0  0  0  0  0
  181.4880  181.9490  138.1670 C   0  0  0  0  0  2  0  0  0  0  0  0
  183.2290  176.5920  139.2330 O   0  0  0  0  0  0  0  0  0  0  0  0
  181.1720  176.7770  136.1010 C   0  0  0  0  0  2  0  0  0  0  0  0
  179.8150  175.7000  137.9420 C   0  0  0  0  0  2  0  0  0  0  0  0
  181.0080  175.6480  138.9100 C   0  0  2  0  0  0  0  0  0  0  0  0
  182.0390  177.2760  137.2660 C   0  0  0  0  0  2  0  0  0  0  0  0
  180.6970  176.4220  140.0160 F   0  0  0  0  0  0  0  0  0  0  0  0
  182.3190  176.1530  138.2640 C   0  0  1  0  0  3  0  0  0  0  0  0
  180.2530  175.6080  136.4820 C   0  0  0  0  0  2  0  0  0  0  0  0
  181.2030  174.2120  139.3610 C   0  0  0  0  0  1  0  0  0  0  0  0
  1  2  1  1  0  0  0
  1 54  1  0  0  0  0
  1 32  1  0  0  0  0
  4  3  1  6  0  0  0
  4  2  1  0  0  0  0
  5  4  1  0  0  0  0
  6  7  1  1  0  0  0
  6  5  1  0  0  0  0
  8  9  1  1  0  0  0
  8  6  1  0  0  0  0
  8 10  1  0  0  0  0
 11 10  1  0  0  0  0
 13 27  1  0  0  0  0
 14 12  1  6  0  0  0
 14 28  1  0  0  0  0
 15 19  1  6  0  0  0
 15 13  1  0  0  0  0
 15 27  1  0  0  0  0
 16 22  1  6  0  0  0
 16 26  1  0  0  0  0
 16 14  1  0  0  0  0
 17 21  1  0  0  0  0
 23 29  1  0  0  0  0
 23 12  1  0  0  0  0
 24 15  1  0  0  0  0
 25 11  1  6  0  0  0
 25 21  1  0  0  0  0
 25 19  1  0  0  0  0
 26 25  1  0  0  0  0
 26 24  1  1  0  0  0
 27 18  2  0  0  0  0
 28 17  1  6  0  0  0
 29 28  1  0  0  0  0
 29 20  1  1  0  0  0
 31 11  1  0  0  0  0
 31 30  1  0  0  0  0
 32 41  1  0  0  0  0
 32 33  1  1  0  0  0
 33 34  1  0  0  0  0
 34 35  1  0  0  0  0
 35 36  1  0  0  0  0
 36 38  1  0  0  0  0
 38 37  1  0  0  0  0
 39 38  1  0  0  0  0
 40 38  1  0  0  0  0
 41 42  1  0  0  0  0
 44 42  1  0  0  0  0
 44 45  1  0  0  0  0
 44 43  1  0  0  0  0
 47 46  1  1  0  0  0
 47 44  1  0  0  0  0
 48 49  1  1  0  0  0
 48 53  1  0  0  0  0
 48 47  1  0  0  0  0
 50 48  1  0  0  0  0
 51 50  1  0  0  0  0
 52 53  1  0  0  0  0
 55 61  1  0  0  0  0
 55 58  1  0  0  0  0
 56 57  1  0  0  0  0
 57 62  1  1  0  0  0
 57 59  1  0  0  0  0
 58 60  1  0  0  0  0
 60 57  1  0  0  0  0
 60 54  1  1  0  0  0
 61 56  1  0  0  0  0
M  END
>  <MODEL>
8

>  <REMARK>
 VINA RESULT:      -3.7      1.958      5.034
  Name = 
  24 active torsions:
  status: ('A' for Active; 'I' for Inactive)
    1  A    between atoms: O_5  and  C_34
    2  A    between atoms: O_5  and  C_60
    3  A    between atoms: O_7  and  C_39
    4  A    between atoms: O_7  and  C_41
    5  A    between atoms: C_10  and  C_36
    6  A    between atoms: C_10  and  C_45
    7  A    between atoms: C_11  and  C_32
    8  A    between atoms: N_18  and  N_19
    9  A    between atoms: N_18  and  C_22
   10  A    between atoms: N_19  and  C_46
   11  A    between atoms: C_21  and  C_22
   12  A    between atoms: C_21  and  C_32
   13  A    between atoms: O_28  and  C_32
   14  A    between atoms: C_33  and  N_62
   15  A    between atoms: C_34  and  N_62
   16  A    between atoms: C_35  and  C_45
   17  A    between atoms: C_35  and  C_54
   18  A    between atoms: C_36  and  C_40
   19  A    between atoms: C_40  and  N_47
   20  A    between atoms: C_41  and  C_46
   21  A    between atoms: C_41  and  C_54
   22  A    between atoms: C_46  and  C_60
   23  A    between atoms: N_47  and  C_49
   24  A    between atoms: N_47  and  C_50
                            x       y       z     vdW  Elec       q    Type
                         _______ _______ _______ _____ _____    ______ ____

>  <TORSDO>
F 24

$$$$
=
 OpenBabel11062416583D

 62 66  0  0  1  0  0  0  0  0999 V2000
  184.0750  178.4700  139.2390 C   0  0  2  0  0  3  0  0  0  0  0  0
  185.0230  179.0510  140.2940 C   0  0  0  0  0  2  0  0  0  0  0  0
  183.6410  177.6840  141.6730 O   0  0  0  0  0  1  0  0  0  0  0  0
  184.5810  178.7140  141.7120 C   0  0  1  0  0  3  0  0  0  0  0  0
  185.7870  178.2740  142.5260 C   0  0  0  0  0  2  0  0  0  0  0  0
  185.8660  179.0310  143.8490 C   0  0  1  0  0  3  0  0  0  0  0  0
  184.6250  179.8810  144.0910 C   0  0  0  0  0  1  0  0  0  0  0  0
  186.1460  178.1130  145.0440 C   0  0  2  0  0  3  0  0  0  0  0  0
  185.1040  178.1420  145.9690 O   0  0  0  0  0  1  0  0  0  0  0  0
  187.5110  178.2920  145.7210 C   0  0  0  0  0  2  0  0  0  0  0  0
  187.9900  177.0650  146.3670 N   0  0  0  0  0  0  0  0  0  0  0  0
  191.4680  178.4190  142.1290 O   0  0  0  0  0  0  0  0  0  0  0  0
  191.7660  176.9290  148.4320 N   0  0  0  0  0  2  0  0  0  0  0  0
  191.0590  177.6810  143.2540 C   0  0  1  0  0  3  0  0  0  0  0  0
  191.3640  176.7060  147.1210 C   0  0  1  0  0  0  0  0  0  0  0  0
  190.4240  178.6100  144.3010 C   0  0  1  0  0  3  0  0  0  0  0  0
  188.9820  176.4440  143.4930 O   0  0  0  0  0  0  0  0  0  0  0  0
  193.4690  175.2490  147.1550 O   0  0  0  0  0  0  0  0  0  0  0  0
  190.0750  175.9610  146.9820 C   0  0  0  0  0  2  0  0  0  0  0  0
  190.4860  175.9960  140.3860 C   0  0  0  0  0  1  0  0  0  0  0  0
  189.3430  175.7690  144.6610 C   0  0  0  0  0  2  0  0  0  0  0  0
  189.2560  179.2140  143.8300 O   0  0  0  0  0  1  0  0  0  0  0  0
  190.4780  178.2850  141.1970 N   0  0  0  0  0  2  0  0  0  0  0  0
  191.5050  177.8260  146.3060 O   0  0  0  0  0  0  0  0  0  0  0  0
  189.3550  176.7120  145.8850 C   0  0  1  0  0  0  0  0  0  0  0  0
  190.2440  177.9890  145.7000 C   0  0  2  0  0  3  0  0  0  0  0  0
  192.5180  176.0230  147.4430 C   0  0  0  0  0  0  0  0  0  0  0  0
  190.1700  176.5500  142.7610 C   0  0  1  0  0  3  0  0  0  0  0  0
  189.8660  176.9740  141.3630 C   0  0  2  0  0  3  0  0  0  0  0  0
  187.7650  178.8260  148.0400 C   0  0  0  0  0  1  0  0  0  0  0  0
  187.9900  177.3470  147.7980 C   0  0  0  0  0  2  0  0  0  0  0  0
  184.8210  177.5150  138.3000 C   0  0  2  0  0  3  0  0  0  0  0  0
  186.1560  178.0930  137.8330 C   0  0  0  0  0  2  0  0  0  0  0  0
  186.3740  177.8050  136.4840 O   0  0  0  0  0  0  0  0  0  0  0  0
  187.7050  177.3930  136.4340 C   0  0  0  0  0  2  0  0  0  0  0  0
  187.8130  176.0250  136.9370 N   0  0  0  0  0  2  0  0  0  0  0  0
  188.5110  174.9670  134.8770 C   0  0  0  0  0  1  0  0  0  0  0  0
  188.9190  175.3050  136.2950 C   0  0  0  0  0  0  0  0  0  0  0  0
  189.2220  174.0030  137.0230 C   0  0  0  0  0  1  0  0  0  0  0  0
  190.1740  176.1660  136.2330 C   0  0  0  0  0  1  0  0  0  0  0  0
  183.9890  177.1960  137.1470 N   0  0  0  0  0  2  0  0  0  0  0  0
  183.6340  175.8410  137.2570 N   0  0  0  0  0  2  0  0  0  0  0  0
  183.2640  176.2380  135.0140 F   0  0  0  0  0  0  0  0  0  0  0  0
  183.6240  175.2540  135.9180 C   0  0  0  0  0  0  0  0  0  0  0  0
  184.8990  174.8170  135.5990 F   0  0  0  0  0  0  0  0  0  0  0  0
  183.0010  173.0780  136.7300 O   0  0  0  0  0  1  0  0  0  0  0  0
  182.6100  174.0930  135.8500 C   0  0  1  0  0  3  0  0  0  0  0  0
  181.1430  174.5040  136.1030 C   0  0  2  0  0  0  0  0  0  0  0  0
  180.3170  173.4210  135.7750 O   0  0  0  0  0  1  0  0  0  0  0  0
  180.8330  175.6360  135.3070 O   0  0  0  0  0  0  0  0  0  0  0  0
  179.6400  175.4060  134.5990 C   0  0  0  0  0  1  0  0  0  0  0  0
  179.6950  175.3190  137.8520 F   0  0  0  0  0  0  0  0  0  0  0  0
  180.9540  174.8060  137.5960 C   0  0  0  0  0  2  0  0  0  0  0  0
  183.4520  179.5010  138.5230 O   0  0  0  0  0  0  0  0  0  0  0  0
  180.2770  178.2830  140.1070 C   0  0  0  0  0  2  0  0  0  0  0  0
  179.7340  180.0170  138.3490 C   0  0  0  0  0  2  0  0  0  0  0  0
  181.2130  180.3630  138.1100 C   0  0  2  0  0  0  0  0  0  0  0  0
  181.6210  178.2040  139.3680 C   0  0  0  0  0  2  0  0  0  0  0  0
  181.5160  180.0600  136.7930 F   0  0  0  0  0  0  0  0  0  0  0  0
  182.1630  179.5980  139.0600 C   0  0  1  0  0  3  0  0  0  0  0  0
  179.4760  179.5510  139.7810 C   0  0  0  0  0  2  0  0  0  0  0  0
  181.4010  181.8550  138.3210 C   0  0  0  0  0  1  0  0  0  0  0  0
  1  2  1  1  0  0  0
  2  4  1  0  0  0  0
  4  3  1  6  0  0  0
  4  5  1  0  0  0  0
  5  6  1  0  0  0  0
  6  7  1  1  0  0  0
  6  8  1  0  0  0  0
  8 10  1  0  0  0  0
  8  9  1  1  0  0  0
 10 11  1  0  0  0  0
 11 31  1  0  0  0  0
 14 12  1  6  0  0  0
 14 16  1  0  0  0  0
 15 19  1  6  0  0  0
 15 27  1  0  0  0  0
 15 13  1  0  0  0  0
 16 22  1  6  0  0  0
 16 26  1  0  0  0  0
 17 21  1  0  0  0  0
 18 27  2  0  0  0  0
 21 25  1  0  0  0  0
 23 29  1  0  0  0  0
 23 12  1  0  0  0  0
 24 15  1  0  0  0  0
 25 11  1  1  0  0  0
 25 19  1  0  0  0  0
 26 25  1  0  0  0  0
 26 24  1  6  0  0  0
 27 13  1  0  0  0  0
 28 14  1  0  0  0  0
 28 17  1  1  0  0  0
 29 20  1  6  0  0  0
 29 28  1  0  0  0  0
 31 30  1  0  0  0  0
 32 33  1  6  0  0  0
 32  1  1  0  0  0  0
 34 33  1  0  0  0  0
 35 34  1  0  0  0  0
 35 36  1  0  0  0  0
 37 38  1  0  0  0  0
 38 36  1  0  0  0  0
 38 39  1  0  0  0  0
 40 38  1  0  0  0  0
 41 42  1  0  0  0  0
 41 32  1  0  0  0  0
 43 44  1  0  0  0  0
 44 42  1  0  0  0  0
 45 44  1  0  0  0  0
 47 44  1  0  0  0  0
 47 48  1  0  0  0  0
 47 46  1  1  0  0  0
 48 49  1  6  0  0  0
 48 53  1  0  0  0  0
 50 48  1  0  0  0  0
 51 50  1  0  0  0  0
 53 52  1  0  0  0  0
 54  1  1  0  0  0  0
 56 61  1  0  0  0  0
 57 62  1  1  0  0  0
 57 56  1  0  0  0  0
 57 60  1  0  0  0  0
 58 55  1  0  0  0  0
 59 57  1  0  0  0  0
 60 54  1  6  0  0  0
 60 58  1  0  0  0  0
 61 55  1  0  0  0  0
M  END
>  <MODEL>
9

>  <REMARK>
 VINA RESULT:      -3.7      3.549      8.497
  Name = 
  24 active torsions:
  status: ('A' for Active; 'I' for Inactive)
    1  A    between atoms: O_5  and  C_34
    2  A    between atoms: O_5  and  C_60
    3  A    between atoms: O_7  and  C_39
    4  A    between atoms: O_7  and  C_41
    5  A    between atoms: C_10  and  C_36
    6  A    between atoms: C_10  and  C_45
    7  A    between atoms: C_11  and  C_32
    8  A    between atoms: N_18  and  N_19
    9  A    between atoms: N_18  and  C_22
   10  A    between atoms: N_19  and  C_46
   11  A    between atoms: C_21  and  C_22
   12  A    between atoms: C_21  and  C_32
   13  A    between atoms: O_28  and  C_32
   14  A    between atoms: C_33  and  N_62
   15  A    between atoms: C_34  and  N_62
   16  A    between atoms: C_35  and  C_45
   17  A    between atoms: C_35  and  C_54
   18  A    between atoms: C_36  and  C_40
   19  A    between atoms: C_40  and  N_47
   20  A    between atoms: C_41  and  C_46
   21  A    between atoms: C_41  and  C_54
   22  A    between atoms: C_46  and  C_60
   23  A    between atoms: N_47  and  C_49
   24  A    between atoms: N_47  and  C_50
                            x       y       z     vdW  Elec       q    Type
                         _______ _______ _______ _____ _____    ______ ____

>  <TORSDO>
F 24

$$$$
