=
 OpenBabel11062416133D

 44 50  0  0  1  0  0  0  0  0999 V2000
  181.5060  177.6750  140.1170 C   0  0  2  0  0  3  0  0  0  0  0  0
  179.6170  177.1600  138.7950 O   0  0  0  0  0  0  0  0  0  0  0  0
  181.6350  176.9630  137.6000 C   0  0  0  0  0  2  0  0  0  0  0  0
  183.0060  177.3700  140.1900 C   0  0  0  0  0  2  0  0  0  0  0  0
  182.9630  176.4330  137.9290 N   0  0  0  0  0  0  0  0  0  0  0  0
  183.6630  177.3650  138.8110 C   0  0  0  0  0  2  0  0  0  0  0  0
  180.8340  177.2490  138.8370 C   0  0  0  0  0  0  0  0  0  0  0  0
  181.2010  180.0150  139.6850 N   0  0  0  0  0  2  0  0  0  0  0  0
  180.7500  179.3920  141.9000 N   0  0  0  0  0  2  0  0  0  0  0  0
  181.1410  179.0670  140.5580 C   0  0  0  0  0  0  0  0  0  0  0  0
  180.6370  178.4440  142.9980 C   0  0  0  0  0  2  0  0  0  0  0  0
  181.6010  178.8040  144.1200 C   0  0  0  0  0  2  0  0  0  0  0  0
  182.8660  179.4580  143.5860 C   0  0  0  0  0  2  0  0  0  0  0  0
  183.9880  178.4400  143.4550 C   0  0  1  0  0  3  0  0  0  0  0  0
  185.1430  179.0350  142.6780 C   0  0  0  0  0  2  0  0  0  0  0  0
  185.2070  178.9590  144.1900 C   0  0  2  0  0  3  0  0  0  0  0  0
  187.6130  177.3870  146.4920 C   0  0  0  0  0  2  0  0  0  0  0  0
  188.4180  177.4280  145.2030 C   0  0  2  0  0  0  0  0  0  0  0  0
  190.3500  177.9700  143.6430 C   0  0  2  0  0  3  0  0  0  0  0  0
  189.7540  178.1640  145.0610 C   0  0  2  0  0  3  0  0  0  0  0  0
  187.9260  177.4180  142.8080 C   0  0  2  0  0  3  0  0  0  0  0  0
  190.6520  177.6980  146.0060 F   0  0  0  0  0  0  0  0  0  0  0  0
  187.4860  177.9540  144.1560 C   0  0  1  0  0  0  0  0  0  0  0  0
  188.0120  176.5400  144.0420 C   0  0  2  0  0  3  0  0  0  0  0  0
  186.1680  177.7570  146.1430 C   0  0  0  0  0  2  0  0  0  0  0  0
  191.3710  178.8930  143.4210 O   0  0  0  0  0  1  0  0  0  0  0  0
  189.2930  178.0780  142.5060 C   0  0  0  0  0  2  0  0  0  0  0  0
  186.0610  177.7800  144.6230 C   0  0  1  0  0  3  0  0  0  0  0  0
  183.7740  176.2510  136.7150 C   0  0  2  0  0  3  0  0  0  0  0  0
  184.9980  172.8630  137.7240 C   0  0  0  0  0  2  0  0  0  0  0  0
  184.5210  171.9800  136.5730 C   0  0  0  0  0  2  0  0  0  0  0  0
  184.1900  174.0800  137.7900 N   0  0  0  0  0  2  0  0  0  0  0  0
  183.9060  174.0770  135.3510 C   0  0  0  0  0  2  0  0  0  0  0  0
  184.4180  174.8560  136.5720 C   0  0  1  0  0  3  0  0  0  0  0  0
  184.6390  172.7420  135.2570 C   0  0  0  0  0  2  0  0  0  0  0  0
  184.7530  177.4060  136.5030 C   0  0  0  0  0  2  0  0  0  0  0  0
  186.1260  176.9310  136.5940 N   0  0  0  0  0  2  0  0  0  0  0  0
  186.7870  178.5680  138.1210 O   0  0  0  0  0  0  0  0  0  0  0  0
  187.1020  177.5510  137.4410 C   0  0  0  0  0  0  0  0  0  0  0  0
  188.4430  175.5110  137.0920 C   0  0  0  0  0  1  0  0  0  0  0  0
  188.4890  176.9670  137.5250 C   0  0  0  0  0  0  0  0  0  0  0  0
  189.4560  177.7110  136.6120 C   0  0  0  0  0  1  0  0  0  0  0  0
  190.2610  177.6090  139.0360 O   0  0  0  0  0  1  0  0  0  0  0  0
  188.9750  177.0650  138.9690 C   0  0  0  0  0  2  0  0  0  0  0  0
  1  4  1  0  0  0  0
  1 10  1  6  0  0  0
  2  7  2  0  0  0  0
  3  5  1  0  0  0  0
  3  7  1  0  0  0  0
  5  6  1  0  0  0  0
  6  4  1  0  0  0  0
  7  1  1  0  0  0  0
  8 10  2  0  0  0  0
  9 11  1  0  0  0  0
 10  9  1  0  0  0  0
 11 12  1  0  0  0  0
 13 12  1  0  0  0  0
 14 13  1  1  0  0  0
 14 16  1  0  0  0  0
 15 14  1  0  0  0  0
 16 15  1  6  0  0  0
 16 28  1  0  0  0  0
 18 17  1  1  0  0  0
 19 26  1  6  0  0  0
 19 20  1  0  0  0  0
 20 18  1  0  0  0  0
 20 22  1  1  0  0  0
 21 27  1  1  0  0  0
 21 24  1  0  0  0  0
 21 23  1  0  0  0  0
 23 28  1  0  0  0  0
 23 18  1  0  0  0  0
 24 23  1  0  0  0  0
 24 18  1  0  0  0  0
 25 17  1  0  0  0  0
 27 19  1  0  0  0  0
 28 25  1  0  0  0  0
 29  5  1  0  0  0  0
 30 32  1  0  0  0  0
 31 30  1  0  0  0  0
 33 34  1  0  0  0  0
 34 29  1  0  0  0  0
 34 32  1  0  0  0  0
 35 33  1  0  0  0  0
 35 31  1  0  0  0  0
 36 37  1  0  0  0  0
 36 29  1  0  0  0  0
 37 39  1  0  0  0  0
 39 41  1  0  0  0  0
 39 38  2  0  0  0  0
 40 41  1  0  0  0  0
 41 44  1  0  0  0  0
 42 41  1  0  0  0  0
 44 43  1  0  0  0  0
M  END
>  <MODEL>
1

>  <REMARK>
 VINA RESULT:      -8.6      0.000      0.000
  Name = 
  12 active torsions:
  status: ('A' for Active; 'I' for Inactive)
    1  A    between atoms: C_5  and  C_21
    2  A    between atoms: C_10  and  N_11
    3  A    between atoms: C_10  and  C_20
    4  A    between atoms: C_13  and  C_39
    5  A    between atoms: C_14  and  C_32
    6  A    between atoms: C_14  and  C_39
    7  A    between atoms: N_19  and  C_32
    8  A    between atoms: C_20  and  C_27
    9  A    between atoms: C_20  and  N_30
   10  A    between atoms: C_26  and  C_34
   11  A    between atoms: C_26  and  C_43
   12  A    between atoms: C_36  and  C_42
                            x       y       z     vdW  Elec       q    Type
                         _______ _______ _______ _____ _____    ______ ____

>  <TORSDO>
F 12

$$$$
=
 OpenBabel11062416133D

 44 50  0  0  1  0  0  0  0  0999 V2000
  182.0310  177.7540  140.9810 C   0  0  2  0  0  3  0  0  0  0  0  0
  180.1410  176.4500  140.4270 O   0  0  0  0  0  0  0  0  0  0  0  0
  181.6710  176.6230  138.6470 C   0  0  0  0  0  2  0  0  0  0  0  0
  183.4980  177.9270  140.5740 C   0  0  0  0  0  2  0  0  0  0  0  0
  183.1360  176.5860  138.5590 N   0  0  0  0  0  0  0  0  0  0  0  0
  183.6930  177.8410  139.0620 C   0  0  0  0  0  2  0  0  0  0  0  0
  181.2100  176.9010  140.0490 C   0  0  0  0  0  0  0  0  0  0  0  0
  180.7540  179.7200  140.4690 N   0  0  0  0  0  2  0  0  0  0  0  0
  181.3520  179.5380  142.7290 N   0  0  0  0  0  2  0  0  0  0  0  0
  181.3520  179.0350  141.3850 C   0  0  0  0  0  0  0  0  0  0  0  0
  181.9810  178.8920  143.8710 C   0  0  0  0  0  2  0  0  0  0  0  0
  183.4320  179.3310  144.0060 C   0  0  0  0  0  2  0  0  0  0  0  0
  184.3500  178.1550  144.3040 C   0  0  0  0  0  2  0  0  0  0  0  0
  185.8020  178.6030  144.3540 C   0  0  1  0  0  3  0  0  0  0  0  0
  186.4730  178.0560  145.5970 C   0  0  0  0  0  2  0  0  0  0  0  0
  186.6930  177.3810  144.2580 C   0  0  2  0  0  3  0  0  0  0  0  0
  189.7350  176.6430  142.3190 C   0  0  0  0  0  2  0  0  0  0  0  0
  190.3180  176.9000  143.6990 C   0  0  2  0  0  0  0  0  0  0  0  0
  191.6330  176.4500  145.8270 C   0  0  2  0  0  3  0  0  0  0  0  0
  191.1340  175.8650  144.4800 C   0  0  2  0  0  3  0  0  0  0  0  0
  189.6940  178.2090  145.6680 C   0  0  2  0  0  3  0  0  0  0  0  0
  192.2200  175.4540  143.7260 F   0  0  0  0  0  0  0  0  0  0  0  0
  189.1660  177.3240  144.5560 C   0  0  1  0  0  0  0  0  0  0  0  0
  190.2840  178.3040  144.2730 C   0  0  2  0  0  3  0  0  0  0  0  0
  188.2630  177.0640  142.3550 C   0  0  0  0  0  2  0  0  0  0  0  0
  192.0780  175.4240  146.6600 O   0  0  0  0  0  1  0  0  0  0  0  0
  190.5610  177.2980  146.5700 C   0  0  0  0  0  2  0  0  0  0  0  0
  188.0340  177.7930  143.6740 C   0  0  1  0  0  3  0  0  0  0  0  0
  183.5760  176.4120  137.1660 C   0  0  2  0  0  3  0  0  0  0  0  0
  184.8820  172.9370  137.6290 C   0  0  0  0  0  2  0  0  0  0  0  0
  183.8810  172.0970  136.8400 C   0  0  0  0  0  2  0  0  0  0  0  0
  184.2760  174.2120  138.0100 N   0  0  0  0  0  2  0  0  0  0  0  0
  182.9330  174.2380  135.9550 C   0  0  0  0  0  2  0  0  0  0  0  0
  183.9890  174.9720  136.7940 C   0  0  1  0  0  3  0  0  0  0  0  0
  183.4500  172.8520  135.5860 C   0  0  0  0  0  2  0  0  0  0  0  0
  184.5970  177.4720  136.7530 C   0  0  0  0  0  2  0  0  0  0  0  0
  185.9340  176.8970  136.7040 N   0  0  0  0  0  2  0  0  0  0  0  0
  186.8900  178.5330  138.0670 O   0  0  0  0  0  0  0  0  0  0  0  0
  187.0470  177.4710  137.4020 C   0  0  0  0  0  0  0  0  0  0  0  0
  189.2160  177.3940  136.2290 C   0  0  0  0  0  1  0  0  0  0  0  0
  188.3880  176.7850  137.3490 C   0  0  0  0  0  0  0  0  0  0  0  0
  189.1480  176.9590  138.6580 C   0  0  0  0  0  1  0  0  0  0  0  0
  188.7920  174.8960  135.8970 O   0  0  0  0  0  1  0  0  0  0  0  0
  188.1680  175.2980  137.0820 C   0  0  0  0  0  2  0  0  0  0  0  0
  1 10  1  6  0  0  0
  3  7  1  0  0  0  0
  4  1  1  0  0  0  0
  5  3  1  0  0  0  0
  5  6  1  0  0  0  0
  6  4  1  0  0  0  0
  7  2  2  0  0  0  0
  7  1  1  0  0  0  0
  8 10  2  0  0  0  0
  9 11  1  0  0  0  0
 10  9  1  0  0  0  0
 11 12  1  0  0  0  0
 12 13  1  0  0  0  0
 14 13  1  1  0  0  0
 14 15  1  0  0  0  0
 16 14  1  0  0  0  0
 16 15  1  1  0  0  0
 17 25  1  0  0  0  0
 18 17  1  6  0  0  0
 18 24  1  0  0  0  0
 18 20  1  0  0  0  0
 18 23  1  0  0  0  0
 19 27  1  0  0  0  0
 19 26  1  1  0  0  0
 20 22  1  6  0  0  0
 20 19  1  0  0  0  0
 21 27  1  1  0  0  0
 23 21  1  0  0  0  0
 24 23  1  0  0  0  0
 24 21  1  0  0  0  0
 25 28  1  0  0  0  0
 28 16  1  0  0  0  0
 28 23  1  0  0  0  0
 29  5  1  0  0  0  0
 30 32  1  0  0  0  0
 31 30  1  0  0  0  0
 33 34  1  0  0  0  0
 34 29  1  0  0  0  0
 34 32  1  0  0  0  0
 35 33  1  0  0  0  0
 35 31  1  0  0  0  0
 36 29  1  0  0  0  0
 37 36  1  0  0  0  0
 37 39  1  0  0  0  0
 39 38  2  0  0  0  0
 40 41  1  0  0  0  0
 41 39  1  0  0  0  0
 41 42  1  0  0  0  0
 43 44  1  0  0  0  0
 44 41  1  0  0  0  0
M  END
>  <MODEL>
2

>  <REMARK>
 VINA RESULT:      -8.2      1.480      2.287
  Name = 
  12 active torsions:
  status: ('A' for Active; 'I' for Inactive)
    1  A    between atoms: C_5  and  C_21
    2  A    between atoms: C_10  and  N_11
    3  A    between atoms: C_10  and  C_20
    4  A    between atoms: C_13  and  C_39
    5  A    between atoms: C_14  and  C_32
    6  A    between atoms: C_14  and  C_39
    7  A    between atoms: N_19  and  C_32
    8  A    between atoms: C_20  and  C_27
    9  A    between atoms: C_20  and  N_30
   10  A    between atoms: C_26  and  C_34
   11  A    between atoms: C_26  and  C_43
   12  A    between atoms: C_36  and  C_42
                            x       y       z     vdW  Elec       q    Type
                         _______ _______ _______ _____ _____    ______ ____

>  <TORSDO>
F 12

$$$$
=
 OpenBabel11062416133D

 44 50  0  0  1  0  0  0  0  0999 V2000
  189.3080  178.0270  143.9530 C   0  0  2  0  0  3  0  0  0  0  0  0
  191.4280  179.0670  143.9430 O   0  0  0  0  0  0  0  0  0  0  0  0
  190.8600  178.1580  141.8480 C   0  0  0  0  0  2  0  0  0  0  0  0
  188.1760  177.6600  142.9870 C   0  0  0  0  0  2  0  0  0  0  0  0
  189.6200  178.1100  141.0640 N   0  0  0  0  0  0  0  0  0  0  0  0
  188.7000  177.1370  141.6520 C   0  0  0  0  0  2  0  0  0  0  0  0
  190.5870  178.4690  143.2910 C   0  0  0  0  0  0  0  0  0  0  0  0
  190.4070  176.1140  144.8980 N   0  0  0  0  0  2  0  0  0  0  0  0
  188.7560  177.0400  146.2810 N   0  0  0  0  0  2  0  0  0  0  0  0
  189.5140  177.0310  145.0630 C   0  0  0  0  0  0  0  0  0  0  0  0
  187.7140  177.9980  146.6190 C   0  0  0  0  0  2  0  0  0  0  0  0
  186.3760  177.5650  146.0380 C   0  0  0  0  0  2  0  0  0  0  0  0
  185.6420  178.7280  145.3860 C   0  0  0  0  0  2  0  0  0  0  0  0
  184.7060  178.2320  144.2950 C   0  0  1  0  0  3  0  0  0  0  0  0
  183.5820  179.2250  144.0840 C   0  0  0  0  0  2  0  0  0  0  0  0
  184.7590  179.1990  143.1300 C   0  0  2  0  0  3  0  0  0  0  0  0
  184.6830  178.9240  139.4590 C   0  0  0  0  0  2  0  0  0  0  0  0
  183.1990  179.0000  139.7820 C   0  0  2  0  0  0  0  0  0  0  0  0
  180.8090  179.8590  139.7110 C   0  0  2  0  0  3  0  0  0  0  0  0
  182.2700  180.0940  139.2470 C   0  0  2  0  0  3  0  0  0  0  0  0
  181.7690  178.4110  141.6750 C   0  0  2  0  0  3  0  0  0  0  0  0
  182.3160  180.1180  137.8640 F   0  0  0  0  0  0  0  0  0  0  0  0
  183.1070  179.0010  141.2760 C   0  0  1  0  0  0  0  0  0  0  0  0
  182.5330  177.8390  140.4960 C   0  0  2  0  0  3  0  0  0  0  0  0
  185.4330  178.7370  140.7810 C   0  0  0  0  0  2  0  0  0  0  0  0
  180.0500  181.0110  139.5050 O   0  0  0  0  0  1  0  0  0  0  0  0
  180.6930  179.4170  141.1970 C   0  0  0  0  0  2  0  0  0  0  0  0
  184.3900  178.4570  141.8560 C   0  0  1  0  0  3  0  0  0  0  0  0
  189.8900  177.7070  139.6750 C   0  0  2  0  0  3  0  0  0  0  0  0
  187.8570  179.0700  136.8460 C   0  0  0  0  0  2  0  0  0  0  0  0
  187.3030  177.8050  136.1950 C   0  0  0  0  0  2  0  0  0  0  0  0
  189.0630  178.7520  137.6100 N   0  0  0  0  0  2  0  0  0  0  0  0
  188.1830  176.5270  138.1600 C   0  0  0  0  0  2  0  0  0  0  0  0
  188.6950  177.8650  138.7120 C   0  0  1  0  0  3  0  0  0  0  0  0
  186.9690  176.7760  137.2710 C   0  0  0  0  0  2  0  0  0  0  0  0
  190.5660  176.3370  139.5990 C   0  0  0  0  0  2  0  0  0  0  0  0
  191.5310  176.3070  138.5090 N   0  0  0  0  0  2  0  0  0  0  0  0
  190.9260  174.1720  137.7850 O   0  0  0  0  0  0  0  0  0  0  0  0
  191.6540  175.1910  137.6180 C   0  0  0  0  0  0  0  0  0  0  0  0
  193.1870  173.8650  136.2120 C   0  0  0  0  0  1  0  0  0  0  0  0
  192.6380  175.2570  136.4790 C   0  0  0  0  0  0  0  0  0  0  0  0
  191.9710  175.7640  135.2050 C   0  0  0  0  0  1  0  0  0  0  0  0
  194.9980  175.5240  136.9190 O   0  0  0  0  0  1  0  0  0  0  0  0
  193.7750  176.1990  136.8680 C   0  0  0  0  0  2  0  0  0  0  0  0
  1 10  1  6  0  0  0
  3  7  1  0  0  0  0
  4  1  1  0  0  0  0
  5  6  1  0  0  0  0
  5  3  1  0  0  0  0
  6  4  1  0  0  0  0
  7  2  2  0  0  0  0
  7  1  1  0  0  0  0
  8 10  2  0  0  0  0
  9 11  1  0  0  0  0
 10  9  1  0  0  0  0
 12 11  1  0  0  0  0
 13 12  1  0  0  0  0
 14 13  1  1  0  0  0
 15 14  1  0  0  0  0
 16 15  1  1  0  0  0
 16 14  1  0  0  0  0
 17 25  1  0  0  0  0
 18 17  1  6  0  0  0
 18 24  1  0  0  0  0
 18 23  1  0  0  0  0
 19 26  1  1  0  0  0
 19 27  1  0  0  0  0
 20 22  1  6  0  0  0
 20 19  1  0  0  0  0
 20 18  1  0  0  0  0
 21 27  1  6  0  0  0
 23 21  1  0  0  0  0
 23 28  1  0  0  0  0
 24 23  1  0  0  0  0
 24 21  1  0  0  0  0
 25 28  1  0  0  0  0
 28 16  1  0  0  0  0
 29  5  1  0  0  0  0
 30 32  1  0  0  0  0
 31 30  1  0  0  0  0
 31 35  1  0  0  0  0
 32 34  1  0  0  0  0
 33 34  1  0  0  0  0
 34 29  1  0  0  0  0
 35 33  1  0  0  0  0
 36 29  1  0  0  0  0
 37 36  1  0  0  0  0
 39 38  2  0  0  0  0
 39 37  1  0  0  0  0
 40 41  1  0  0  0  0
 41 44  1  0  0  0  0
 41 39  1  0  0  0  0
 42 41  1  0  0  0  0
 44 43  1  0  0  0  0
M  END
>  <MODEL>
3

>  <REMARK>
 VINA RESULT:      -8.2      3.793      7.368
  Name = 
  12 active torsions:
  status: ('A' for Active; 'I' for Inactive)
    1  A    between atoms: C_5  and  C_21
    2  A    between atoms: C_10  and  N_11
    3  A    between atoms: C_10  and  C_20
    4  A    between atoms: C_13  and  C_39
    5  A    between atoms: C_14  and  C_32
    6  A    between atoms: C_14  and  C_39
    7  A    between atoms: N_19  and  C_32
    8  A    between atoms: C_20  and  C_27
    9  A    between atoms: C_20  and  N_30
   10  A    between atoms: C_26  and  C_34
   11  A    between atoms: C_26  and  C_43
   12  A    between atoms: C_36  and  C_42
                            x       y       z     vdW  Elec       q    Type
                         _______ _______ _______ _____ _____    ______ ____

>  <TORSDO>
F 12

$$$$
=
 OpenBabel11062416133D

 44 50  0  0  1  0  0  0  0  0999 V2000
  179.6450  178.6810  141.9650 C   0  0  2  0  0  3  0  0  0  0  0  0
  179.7350  181.0040  141.5460 O   0  0  0  0  0  0  0  0  0  0  0  0
  181.2430  179.7870  140.2090 C   0  0  0  0  0  2  0  0  0  0  0  0
  179.9400  177.3490  141.2660 C   0  0  0  0  0  2  0  0  0  0  0  0
  181.1600  178.5100  139.4900 N   0  0  0  0  0  0  0  0  0  0  0  0
  181.2240  177.4010  140.4410 C   0  0  0  0  0  2  0  0  0  0  0  0
  180.1690  179.9010  141.2530 C   0  0  0  0  0  0  0  0  0  0  0  0
  178.9310  178.5670  144.2530 N   0  0  0  0  0  2  0  0  0  0  0  0
  181.2490  178.7980  143.9920 N   0  0  0  0  0  2  0  0  0  0  0  0
  179.9300  178.6740  143.4430 C   0  0  0  0  0  0  0  0  0  0  0  0
  182.4760  178.9310  143.2200 C   0  0  0  0  0  2  0  0  0  0  0  0
  183.6330  179.3490  144.1150 C   0  0  0  0  0  2  0  0  0  0  0  0
  184.4900  178.1590  144.5190 C   0  0  0  0  0  2  0  0  0  0  0  0
  185.9600  178.5430  144.5650 C   0  0  1  0  0  3  0  0  0  0  0  0
  186.6410  177.8580  145.7310 C   0  0  0  0  0  2  0  0  0  0  0  0
  186.7970  177.3020  144.3310 C   0  0  2  0  0  3  0  0  0  0  0  0
  189.8350  176.5660  142.3850 C   0  0  0  0  0  2  0  0  0  0  0  0
  190.4200  176.8180  143.7650 C   0  0  2  0  0  0  0  0  0  0  0  0
  191.7380  176.3610  145.8900 C   0  0  2  0  0  3  0  0  0  0  0  0
  191.2360  175.7800  144.5420 C   0  0  2  0  0  3  0  0  0  0  0  0
  189.8010  178.1220  145.7380 C   0  0  2  0  0  3  0  0  0  0  0  0
  192.3210  175.3690  143.7850 F   0  0  0  0  0  0  0  0  0  0  0  0
  189.2700  177.2410  144.6240 C   0  0  1  0  0  0  0  0  0  0  0  0
  190.3890  178.2200  144.3430 C   0  0  2  0  0  3  0  0  0  0  0  0
  188.3630  176.9890  142.4250 C   0  0  0  0  0  2  0  0  0  0  0  0
  192.1830  175.3320  146.7190 O   0  0  0  0  0  1  0  0  0  0  0  0
  190.6680  177.2070  146.6370 C   0  0  0  0  0  2  0  0  0  0  0  0
  188.1380  177.7140  143.7460 C   0  0  1  0  0  3  0  0  0  0  0  0
  182.2750  178.3670  138.5400 C   0  0  2  0  0  3  0  0  0  0  0  0
  180.8190  176.8280  135.4580 C   0  0  0  0  0  2  0  0  0  0  0  0
  180.0330  177.9860  134.8460 C   0  0  0  0  0  2  0  0  0  0  0  0
  181.0130  177.0550  136.8880 N   0  0  0  0  0  2  0  0  0  0  0  0
  181.1180  179.4820  136.5350 C   0  0  0  0  0  2  0  0  0  0  0  0
  181.8520  178.2400  137.0610 C   0  0  1  0  0  3  0  0  0  0  0  0
  180.7930  179.2920  135.0570 C   0  0  0  0  0  2  0  0  0  0  0  0
  183.2740  177.3000  138.9890 C   0  0  0  0  0  2  0  0  0  0  0  0
  184.2750  177.0760  137.9550 N   0  0  0  0  0  2  0  0  0  0  0  0
  185.7030  178.7610  138.7120 O   0  0  0  0  0  0  0  0  0  0  0  0
  185.4880  177.8360  137.8780 C   0  0  0  0  0  0  0  0  0  0  0  0
  185.8040  177.4340  135.4650 C   0  0  0  0  0  1  0  0  0  0  0  0
  186.5020  177.5070  136.8130 C   0  0  0  0  0  0  0  0  0  0  0  0
  187.5870  178.5750  136.7370 C   0  0  0  0  0  1  0  0  0  0  0  0
  188.2580  176.3120  137.9640 O   0  0  0  0  0  1  0  0  0  0  0  0
  187.1380  176.1590  137.1430 C   0  0  0  0  0  2  0  0  0  0  0  0
  1 10  1  1  0  0  0
  3  7  1  0  0  0  0
  4  1  1  0  0  0  0
  5  3  1  0  0  0  0
  5  6  1  0  0  0  0
  6  4  1  0  0  0  0
  7  2  2  0  0  0  0
  7  1  1  0  0  0  0
 10  9  1  0  0  0  0
 10  8  2  0  0  0  0
 11  9  1  0  0  0  0
 11 12  1  0  0  0  0
 12 13  1  0  0  0  0
 14 13  1  1  0  0  0
 14 15  1  0  0  0  0
 16 14  1  0  0  0  0
 16 15  1  1  0  0  0
 17 25  1  0  0  0  0
 18 17  1  6  0  0  0
 18 24  1  0  0  0  0
 18 20  1  0  0  0  0
 18 23  1  0  0  0  0
 19 27  1  0  0  0  0
 19 26  1  1  0  0  0
 20 22  1  6  0  0  0
 20 19  1  0  0  0  0
 21 27  1  1  0  0  0
 23 21  1  0  0  0  0
 24 23  1  0  0  0  0
 24 21  1  0  0  0  0
 25 28  1  0  0  0  0
 28 16  1  0  0  0  0
 28 23  1  0  0  0  0
 29 36  1  0  0  0  0
 29  5  1  0  0  0  0
 30 32  1  0  0  0  0
 31 35  1  0  0  0  0
 31 30  1  0  0  0  0
 32 34  1  0  0  0  0
 33 34  1  0  0  0  0
 34 29  1  0  0  0  0
 35 33  1  0  0  0  0
 37 36  1  0  0  0  0
 39 37  1  0  0  0  0
 39 38  2  0  0  0  0
 40 41  1  0  0  0  0
 41 44  1  0  0  0  0
 41 39  1  0  0  0  0
 42 41  1  0  0  0  0
 44 43  1  0  0  0  0
M  END
>  <MODEL>
4

>  <REMARK>
 VINA RESULT:      -8.0      2.289      3.745
  Name = 
  12 active torsions:
  status: ('A' for Active; 'I' for Inactive)
    1  A    between atoms: C_5  and  C_21
    2  A    between atoms: C_10  and  N_11
    3  A    between atoms: C_10  and  C_20
    4  A    between atoms: C_13  and  C_39
    5  A    between atoms: C_14  and  C_32
    6  A    between atoms: C_14  and  C_39
    7  A    between atoms: N_19  and  C_32
    8  A    between atoms: C_20  and  C_27
    9  A    between atoms: C_20  and  N_30
   10  A    between atoms: C_26  and  C_34
   11  A    between atoms: C_26  and  C_43
   12  A    between atoms: C_36  and  C_42
                            x       y       z     vdW  Elec       q    Type
                         _______ _______ _______ _____ _____    ______ ____

>  <TORSDO>
F 12

$$$$
=
 OpenBabel11062416133D

 44 50  0  0  1  0  0  0  0  0999 V2000
  184.8310  178.9970  140.2460 C   0  0  2  0  0  3  0  0  0  0  0  0
  186.5470  179.1120  141.8650 O   0  0  0  0  0  0  0  0  0  0  0  0
  187.3030  178.2500  139.8090 C   0  0  0  0  0  2  0  0  0  0  0  0
  184.6510  178.9880  138.7240 C   0  0  0  0  0  2  0  0  0  0  0  0
  187.0460  178.5970  138.4060 N   0  0  0  0  0  0  0  0  0  0  0  0
  185.7110  178.1420  138.0210 C   0  0  0  0  0  2  0  0  0  0  0  0
  186.2510  178.8170  140.7180 C   0  0  0  0  0  0  0  0  0  0  0  0
  183.2280  177.2130  140.3290 N   0  0  0  0  0  2  0  0  0  0  0  0
  183.5170  178.3270  142.3720 N   0  0  0  0  0  2  0  0  0  0  0  0
  183.8350  178.1440  140.9860 C   0  0  0  0  0  0  0  0  0  0  0  0
  184.1060  179.3290  143.2480 C   0  0  0  0  0  2  0  0  0  0  0  0
  183.6560  179.1170  144.6860 C   0  0  0  0  0  2  0  0  0  0  0  0
  184.5130  178.0800  145.3970 C   0  0  0  0  0  2  0  0  0  0  0  0
  185.9860  178.4450  145.3100 C   0  0  1  0  0  3  0  0  0  0  0  0
  186.7500  177.8010  146.4480 C   0  0  0  0  0  2  0  0  0  0  0  0
  186.7880  177.1830  145.0650 C   0  0  2  0  0  3  0  0  0  0  0  0
  189.6740  176.3090  142.9510 C   0  0  0  0  0  2  0  0  0  0  0  0
  190.3590  176.6430  144.2670 C   0  0  2  0  0  0  0  0  0  0  0  0
  191.8290  176.3130  146.3130 C   0  0  2  0  0  3  0  0  0  0  0  0
  191.2300  175.6520  145.0450 C   0  0  2  0  0  3  0  0  0  0  0  0
  189.8880  178.0730  146.1940 C   0  0  2  0  0  3  0  0  0  0  0  0
  192.2550  175.1890  144.2380 F   0  0  0  0  0  0  0  0  0  0  0  0
  189.2760  177.1270  145.1800 C   0  0  1  0  0  0  0  0  0  0  0  0
  190.3720  178.0790  144.7560 C   0  0  2  0  0  3  0  0  0  0  0  0
  188.2090  176.7420  143.0730 C   0  0  0  0  0  2  0  0  0  0  0  0
  192.3340  175.3360  147.1710 O   0  0  0  0  0  1  0  0  0  0  0  0
  190.8180  177.2110  147.0820 C   0  0  0  0  0  2  0  0  0  0  0  0
  188.0820  177.5490  144.3590 C   0  0  1  0  0  3  0  0  0  0  0  0
  188.0260  177.9530  137.5160 C   0  0  2  0  0  3  0  0  0  0  0  0
  187.4870  175.6680  134.6050 C   0  0  0  0  0  2  0  0  0  0  0  0
  187.6030  174.2840  135.2410 C   0  0  0  0  0  2  0  0  0  0  0  0
  188.1730  176.6580  135.4320 N   0  0  0  0  0  2  0  0  0  0  0  0
  187.5960  175.4200  137.4720 C   0  0  0  0  0  2  0  0  0  0  0  0
  187.4800  176.7520  136.7160 C   0  0  1  0  0  3  0  0  0  0  0  0
  186.9800  174.3050  136.6340 C   0  0  0  0  0  2  0  0  0  0  0  0
  189.3470  177.6680  138.2330 C   0  0  0  0  0  2  0  0  0  0  0  0
  190.3230  177.1230  137.3000 N   0  0  0  0  0  2  0  0  0  0  0  0
  190.9480  175.3600  138.6950 O   0  0  0  0  0  0  0  0  0  0  0  0
  191.0890  175.9450  137.5850 C   0  0  0  0  0  0  0  0  0  0  0  0
  191.9130  173.8960  136.4880 C   0  0  0  0  0  1  0  0  0  0  0  0
  192.0390  175.4090  136.5450 C   0  0  0  0  0  0  0  0  0  0  0  0
  191.7190  175.9720  135.1650 C   0  0  0  0  0  1  0  0  0  0  0  0
  194.0120  176.7020  136.0220 O   0  0  0  0  0  1  0  0  0  0  0  0
  193.4630  175.7980  136.9360 C   0  0  0  0  0  2  0  0  0  0  0  0
  1  7  1  0  0  0  0
  1 10  1  1  0  0  0
  3  7  1  0  0  0  0
  4  1  1  0  0  0  0
  5  3  1  0  0  0  0
  6  5  1  0  0  0  0
  6  4  1  0  0  0  0
  7  2  2  0  0  0  0
  8 10  2  0  0  0  0
  9 11  1  0  0  0  0
 10  9  1  0  0  0  0
 11 12  1  0  0  0  0
 12 13  1  0  0  0  0
 14 13  1  1  0  0  0
 14 15  1  0  0  0  0
 16 14  1  0  0  0  0
 16 15  1  1  0  0  0
 17 25  1  0  0  0  0
 18 17  1  6  0  0  0
 18 24  1  0  0  0  0
 18 20  1  0  0  0  0
 18 23  1  0  0  0  0
 19 27  1  0  0  0  0
 19 26  1  1  0  0  0
 20 22  1  6  0  0  0
 20 19  1  0  0  0  0
 21 27  1  1  0  0  0
 23 21  1  0  0  0  0
 24 23  1  0  0  0  0
 24 21  1  0  0  0  0
 25 28  1  0  0  0  0
 28 16  1  0  0  0  0
 28 23  1  0  0  0  0
 29 36  1  0  0  0  0
 29  5  1  0  0  0  0
 30 31  1  0  0  0  0
 30 32  1  0  0  0  0
 31 35  1  0  0  0  0
 32 34  1  0  0  0  0
 34 33  1  0  0  0  0
 34 29  1  0  0  0  0
 35 33  1  0  0  0  0
 37 39  1  0  0  0  0
 37 36  1  0  0  0  0
 39 38  2  0  0  0  0
 40 41  1  0  0  0  0
 41 44  1  0  0  0  0
 41 39  1  0  0  0  0
 42 41  1  0  0  0  0
 43 44  1  0  0  0  0
M  END
>  <MODEL>
5

>  <REMARK>
 VINA RESULT:      -7.8      2.690      4.095
  Name = 
  12 active torsions:
  status: ('A' for Active; 'I' for Inactive)
    1  A    between atoms: C_5  and  C_21
    2  A    between atoms: C_10  and  N_11
    3  A    between atoms: C_10  and  C_20
    4  A    between atoms: C_13  and  C_39
    5  A    between atoms: C_14  and  C_32
    6  A    between atoms: C_14  and  C_39
    7  A    between atoms: N_19  and  C_32
    8  A    between atoms: C_20  and  C_27
    9  A    between atoms: C_20  and  N_30
   10  A    between atoms: C_26  and  C_34
   11  A    between atoms: C_26  and  C_43
   12  A    between atoms: C_36  and  C_42
                            x       y       z     vdW  Elec       q    Type
                         _______ _______ _______ _____ _____    ______ ____

>  <TORSDO>
F 12

$$$$
=
 OpenBabel11062416133D

 44 50  0  0  1  0  0  0  0  0999 V2000
  186.8190  176.8020  137.7940 C   0  0  2  0  0  3  0  0  0  0  0  0
  186.8180  174.5860  136.9770 O   0  0  0  0  0  0  0  0  0  0  0  0
  188.9450  175.5880  136.8630 C   0  0  0  0  0  2  0  0  0  0  0  0
  187.7790  177.8270  138.4070 C   0  0  0  0  0  2  0  0  0  0  0  0
  189.7060  176.4610  137.7650 N   0  0  0  0  0  0  0  0  0  0  0  0
  189.1490  177.8130  137.7320 C   0  0  0  0  0  2  0  0  0  0  0  0
  187.4830  175.5840  137.2050 C   0  0  0  0  0  0  0  0  0  0  0  0
  186.0750  177.6560  135.6780 N   0  0  0  0  0  2  0  0  0  0  0  0
  184.4420  177.7310  137.3590 N   0  0  0  0  0  2  0  0  0  0  0  0
  185.7640  177.4050  136.9050 C   0  0  0  0  0  0  0  0  0  0  0  0
  183.9370  177.5170  138.7070 C   0  0  0  0  0  2  0  0  0  0  0  0
  183.4740  178.8290  139.3220 C   0  0  0  0  0  2  0  0  0  0  0  0
  184.4970  179.3820  140.3030 C   0  0  0  0  0  2  0  0  0  0  0  0
  184.8110  178.3640  141.3880 C   0  0  1  0  0  3  0  0  0  0  0  0
  186.2910  178.3800  141.7050 C   0  0  0  0  0  2  0  0  0  0  0  0
  185.3150  179.0970  142.6140 C   0  0  2  0  0  3  0  0  0  0  0  0
  184.5520  178.7780  146.2030 C   0  0  0  0  0  2  0  0  0  0  0  0
  185.9130  178.1040  146.1270 C   0  0  2  0  0  0  0  0  0  0  0  0
  188.3550  177.6500  146.6630 C   0  0  2  0  0  3  0  0  0  0  0  0
  187.1390  178.5800  146.9130 C   0  0  2  0  0  3  0  0  0  0  0  0
  187.1990  176.9010  144.4320 C   0  0  2  0  0  3  0  0  0  0  0  0
  186.8500  178.6070  148.2670 F   0  0  0  0  0  0  0  0  0  0  0  0
  186.2740  178.0760  144.6750 C   0  0  1  0  0  0  0  0  0  0  0  0
  186.0460  176.7740  145.4090 C   0  0  2  0  0  3  0  0  0  0  0  0
  184.0710  179.0060  144.7660 C   0  0  0  0  0  2  0  0  0  0  0  0
  189.5260  178.2650  147.1050 O   0  0  0  0  0  1  0  0  0  0  0  0
  188.5170  177.2270  145.1750 C   0  0  0  0  0  2  0  0  0  0  0  0
  185.0260  178.2550  143.8460 C   0  0  1  0  0  3  0  0  0  0  0  0
  191.1180  176.5350  137.3600 C   0  0  2  0  0  3  0  0  0  0  0  0
  193.1590  174.8010  134.7480 C   0  0  0  0  0  2  0  0  0  0  0  0
  193.3530  173.4090  135.3470 C   0  0  0  0  0  2  0  0  0  0  0  0
  192.8600  175.7640  135.8060 N   0  0  0  0  0  2  0  0  0  0  0  0
  191.6870  174.0420  137.1040 C   0  0  0  0  0  2  0  0  0  0  0  0
  191.5780  175.4080  136.4110 C   0  0  1  0  0  3  0  0  0  0  0  0
  192.0860  172.9830  136.0820 C   0  0  0  0  0  2  0  0  0  0  0  0
  192.0460  176.7500  138.5570 C   0  0  0  0  0  2  0  0  0  0  0  0
  191.2830  176.7400  139.7970 N   0  0  0  0  0  2  0  0  0  0  0  0
  192.9150  177.8670  141.0270 O   0  0  0  0  0  0  0  0  0  0  0  0
  191.7700  177.3350  141.0070 C   0  0  0  0  0  0  0  0  0  0  0  0
  189.6270  178.1160  141.9460 C   0  0  0  0  0  1  0  0  0  0  0  0
  190.8980  177.3350  142.2360 C   0  0  0  0  0  0  0  0  0  0  0  0
  190.5120  175.9160  142.6370 C   0  0  0  0  0  1  0  0  0  0  0  0
  191.2360  179.3120  143.5840 O   0  0  0  0  0  1  0  0  0  0  0  0
  191.6640  177.9960  143.3800 C   0  0  0  0  0  2  0  0  0  0  0  0
  1 10  1  6  0  0  0
  1  4  1  0  0  0  0
  2  7  2  0  0  0  0
  3  7  1  0  0  0  0
  3  5  1  0  0  0  0
  6  5  1  0  0  0  0
  6  4  1  0  0  0  0
  7  1  1  0  0  0  0
  8 10  2  0  0  0  0
  9 11  1  0  0  0  0
 10  9  1  0  0  0  0
 11 12  1  0  0  0  0
 12 13  1  0  0  0  0
 14 13  1  6  0  0  0
 14 15  1  0  0  0  0
 14 16  1  0  0  0  0
 16 15  1  6  0  0  0
 16 28  1  0  0  0  0
 18 17  1  1  0  0  0
 18 20  1  0  0  0  0
 19 20  1  0  0  0  0
 19 26  1  6  0  0  0
 20 22  1  1  0  0  0
 21 23  1  0  0  0  0
 21 27  1  1  0  0  0
 21 24  1  0  0  0  0
 23 24  1  0  0  0  0
 23 18  1  0  0  0  0
 24 18  1  0  0  0  0
 25 17  1  0  0  0  0
 27 19  1  0  0  0  0
 28 23  1  0  0  0  0
 28 25  1  0  0  0  0
 29  5  1  0  0  0  0
 29 36  1  0  0  0  0
 30 31  1  0  0  0  0
 30 32  1  0  0  0  0
 31 35  1  0  0  0  0
 32 34  1  0  0  0  0
 34 33  1  0  0  0  0
 34 29  1  0  0  0  0
 35 33  1  0  0  0  0
 36 37  1  0  0  0  0
 37 39  1  0  0  0  0
 39 38  2  0  0  0  0
 39 41  1  0  0  0  0
 40 41  1  0  0  0  0
 41 42  1  0  0  0  0
 41 44  1  0  0  0  0
 44 43  1  0  0  0  0
M  END
>  <MODEL>
6

>  <REMARK>
 VINA RESULT:      -7.6      2.829      5.664
  Name = 
  12 active torsions:
  status: ('A' for Active; 'I' for Inactive)
    1  A    between atoms: C_5  and  C_21
    2  A    between atoms: C_10  and  N_11
    3  A    between atoms: C_10  and  C_20
    4  A    between atoms: C_13  and  C_39
    5  A    between atoms: C_14  and  C_32
    6  A    between atoms: C_14  and  C_39
    7  A    between atoms: N_19  and  C_32
    8  A    between atoms: C_20  and  C_27
    9  A    between atoms: C_20  and  N_30
   10  A    between atoms: C_26  and  C_34
   11  A    between atoms: C_26  and  C_43
   12  A    between atoms: C_36  and  C_42
                            x       y       z     vdW  Elec       q    Type
                         _______ _______ _______ _____ _____    ______ ____

>  <TORSDO>
F 12

$$$$
=
 OpenBabel11062416133D

 44 50  0  0  1  0  0  0  0  0999 V2000
  190.2740  177.4450  144.1610 C   0  0  2  0  0  3  0  0  0  0  0  0
  191.6230  179.3660  143.9000 O   0  0  0  0  0  0  0  0  0  0  0  0
  191.1700  178.2980  141.8520 C   0  0  0  0  0  2  0  0  0  0  0  0
  189.2870  176.5860  143.3620 C   0  0  0  0  0  2  0  0  0  0  0  0
  189.9740  177.6690  141.2780 N   0  0  0  0  0  0  0  0  0  0  0  0
  189.7390  176.3760  141.9190 C   0  0  0  0  0  2  0  0  0  0  0  0
  191.0530  178.4410  143.3420 C   0  0  0  0  0  0  0  0  0  0  0  0
  192.0530  175.9120  144.6540 N   0  0  0  0  0  2  0  0  0  0  0  0
  190.9260  176.7010  146.5520 N   0  0  0  0  0  2  0  0  0  0  0  0
  191.1190  176.6640  145.1310 C   0  0  0  0  0  0  0  0  0  0  0  0
  189.9200  177.4910  147.2470 C   0  0  0  0  0  2  0  0  0  0  0  0
  188.6380  176.6900  147.4260 C   0  0  0  0  0  2  0  0  0  0  0  0
  187.4530  177.5890  147.7450 C   0  0  0  0  0  2  0  0  0  0  0  0
  187.0160  178.3640  146.5120 C   0  0  1  0  0  3  0  0  0  0  0  0
  186.8730  177.4260  145.3320 C   0  0  0  0  0  2  0  0  0  0  0  0
  185.6430  177.8790  146.0920 C   0  0  2  0  0  3  0  0  0  0  0  0
  182.6700  179.2660  144.4200 C   0  0  0  0  0  2  0  0  0  0  0  0
  183.6460  179.1710  143.2590 C   0  0  2  0  0  0  0  0  0  0  0  0
  184.5440  178.4960  140.9790 C   0  0  2  0  0  3  0  0  0  0  0  0
  183.3850  178.3410  141.9980 C   0  0  2  0  0  3  0  0  0  0  0  0
  186.0750  179.2240  142.9800 C   0  0  2  0  0  3  0  0  0  0  0  0
  182.1970  178.7380  141.4090 F   0  0  0  0  0  0  0  0  0  0  0  0
  184.9430  178.7170  143.8530 C   0  0  1  0  0  0  0  0  0  0  0  0
  184.8530  180.0900  143.2230 C   0  0  2  0  0  3  0  0  0  0  0  0
  183.4580  179.0020  145.7070 C   0  0  0  0  0  2  0  0  0  0  0  0
  184.4620  177.5020  140.0040 O   0  0  0  0  0  1  0  0  0  0  0  0
  185.9540  178.4680  141.6340 C   0  0  0  0  0  2  0  0  0  0  0  0
  184.9360  178.9920  145.3360 C   0  0  1  0  0  3  0  0  0  0  0  0
  190.1410  177.4430  139.8330 C   0  0  2  0  0  3  0  0  0  0  0  0
  188.2970  179.3780  137.2160 C   0  0  0  0  0  2  0  0  0  0  0  0
  187.4370  178.3040  136.5520 C   0  0  0  0  0  2  0  0  0  0  0  0
  189.4450  178.7610  137.8780 N   0  0  0  0  0  2  0  0  0  0  0  0
  188.1270  176.7550  138.3930 C   0  0  0  0  0  2  0  0  0  0  0  0
  188.9550  177.9140  138.9650 C   0  0  1  0  0  3  0  0  0  0  0  0
  186.9470  177.3140  137.6030 C   0  0  0  0  0  2  0  0  0  0  0  0
  190.6000  176.0160  139.5270 C   0  0  0  0  0  2  0  0  0  0  0  0
  191.6300  176.0250  138.4980 N   0  0  0  0  0  2  0  0  0  0  0  0
  191.0010  173.9680  137.5910 O   0  0  0  0  0  0  0  0  0  0  0  0
  191.7710  174.9680  137.5400 C   0  0  0  0  0  0  0  0  0  0  0  0
  193.2130  173.6790  136.0090 C   0  0  0  0  0  1  0  0  0  0  0  0
  192.8260  175.0750  136.4690 C   0  0  0  0  0  0  0  0  0  0  0  0
  192.3100  175.8540  135.2650 C   0  0  0  0  0  1  0  0  0  0  0  0
  194.6690  176.5920  136.0940 O   0  0  0  0  0  1  0  0  0  0  0  0
  194.0450  175.7870  137.0510 C   0  0  0  0  0  2  0  0  0  0  0  0
  1 10  1  6  0  0  0
  3  7  1  0  0  0  0
  4  1  1  0  0  0  0
  5  3  1  0  0  0  0
  5  6  1  0  0  0  0
  6  4  1  0  0  0  0
  7  2  2  0  0  0  0
  7  1  1  0  0  0  0
  8 10  2  0  0  0  0
  9 11  1  0  0  0  0
 10  9  1  0  0  0  0
 11 12  1  0  0  0  0
 12 13  1  0  0  0  0
 14 13  1  1  0  0  0
 15 14  1  0  0  0  0
 16 15  1  6  0  0  0
 16 14  1  0  0  0  0
 17 25  1  0  0  0  0
 18 23  1  0  0  0  0
 18 17  1  1  0  0  0
 19 26  1  6  0  0  0
 19 27  1  0  0  0  0
 19 20  1  0  0  0  0
 20 22  1  6  0  0  0
 20 18  1  0  0  0  0
 21 27  1  6  0  0  0
 21 24  1  0  0  0  0
 21 23  1  0  0  0  0
 23 28  1  0  0  0  0
 24 18  1  0  0  0  0
 24 23  1  0  0  0  0
 28 25  1  0  0  0  0
 28 16  1  0  0  0  0
 29  5  1  0  0  0  0
 30 32  1  0  0  0  0
 31 30  1  0  0  0  0
 31 35  1  0  0  0  0
 32 34  1  0  0  0  0
 33 34  1  0  0  0  0
 34 29  1  0  0  0  0
 35 33  1  0  0  0  0
 36 29  1  0  0  0  0
 37 36  1  0  0  0  0
 39 38  2  0  0  0  0
 39 37  1  0  0  0  0
 40 41  1  0  0  0  0
 41 44  1  0  0  0  0
 41 39  1  0  0  0  0
 42 41  1  0  0  0  0
 43 44  1  0  0  0  0
M  END
>  <MODEL>
7

>  <REMARK>
 VINA RESULT:      -7.5      3.904      7.194
  Name = 
  12 active torsions:
  status: ('A' for Active; 'I' for Inactive)
    1  A    between atoms: C_5  and  C_21
    2  A    between atoms: C_10  and  N_11
    3  A    between atoms: C_10  and  C_20
    4  A    between atoms: C_13  and  C_39
    5  A    between atoms: C_14  and  C_32
    6  A    between atoms: C_14  and  C_39
    7  A    between atoms: N_19  and  C_32
    8  A    between atoms: C_20  and  C_27
    9  A    between atoms: C_20  and  N_30
   10  A    between atoms: C_26  and  C_34
   11  A    between atoms: C_26  and  C_43
   12  A    between atoms: C_36  and  C_42
                            x       y       z     vdW  Elec       q    Type
                         _______ _______ _______ _____ _____    ______ ____

>  <TORSDO>
F 12

$$$$
=
 OpenBabel11062416133D

 44 50  0  0  1  0  0  0  0  0999 V2000
  187.5890  177.4520  138.4090 C   0  0  2  0  0  3  0  0  0  0  0  0
  186.2660  178.6900  139.9230 O   0  0  0  0  0  0  0  0  0  0  0  0
  185.1480  178.2520  137.8990 C   0  0  0  0  0  2  0  0  0  0  0  0
  187.4300  176.4960  137.2210 C   0  0  0  0  0  2  0  0  0  0  0  0
  185.0620  177.0810  137.0190 N   0  0  0  0  0  0  0  0  0  0  0  0
  186.3120  176.9290  136.2750 C   0  0  0  0  0  2  0  0  0  0  0  0
  186.3260  178.1600  138.8250 C   0  0  0  0  0  0  0  0  0  0  0  0
  188.7150  179.3740  137.5180 N   0  0  0  0  0  2  0  0  0  0  0  0
  190.0040  178.1370  139.0370 N   0  0  0  0  0  2  0  0  0  0  0  0
  188.7870  178.3580  138.3100 C   0  0  0  0  0  0  0  0  0  0  0  0
  190.2470  177.0400  139.9620 C   0  0  0  0  0  2  0  0  0  0  0  0
  191.6340  177.1540  140.5770 C   0  0  0  0  0  2  0  0  0  0  0  0
  191.5690  177.5780  142.0370 C   0  0  0  0  0  2  0  0  0  0  0  0
  190.5260  176.7680  142.7890 C   0  0  1  0  0  3  0  0  0  0  0  0
  190.8660  176.7240  144.2640 C   0  0  0  0  0  2  0  0  0  0  0  0
  189.8060  177.6810  143.7600 C   0  0  2  0  0  3  0  0  0  0  0  0
  186.1380  177.8730  143.4940 C   0  0  0  0  0  2  0  0  0  0  0  0
  186.3320  177.9680  144.9990 C   0  0  2  0  0  0  0  0  0  0  0  0
  186.1560  178.9280  147.3450 C   0  0  2  0  0  3  0  0  0  0  0  0
  185.8610  179.1590  145.8400 C   0  0  2  0  0  3  0  0  0  0  0  0
  187.9960  177.2070  146.6200 C   0  0  2  0  0  3  0  0  0  0  0  0
  184.5020  179.3540  145.6610 F   0  0  0  0  0  0  0  0  0  0  0  0
  187.7990  177.7860  145.2330 C   0  0  1  0  0  0  0  0  0  0  0  0
  186.8270  176.7560  145.7640 C   0  0  2  0  0  3  0  0  0  0  0  0
  187.4880  177.4900  142.8790 C   0  0  0  0  0  2  0  0  0  0  0  0
  186.0320  180.1270  148.0470 O   0  0  0  0  0  1  0  0  0  0  0  0
  187.5560  178.3080  147.6150 C   0  0  0  0  0  2  0  0  0  0  0  0
  188.4190  177.1210  144.0280 C   0  0  1  0  0  3  0  0  0  0  0  0
  183.9650  177.2290  136.0490 C   0  0  2  0  0  3  0  0  0  0  0  0
  180.6870  179.0280  136.1640 C   0  0  0  0  0  2  0  0  0  0  0  0
  179.8050  178.0630  136.9530 C   0  0  0  0  0  2  0  0  0  0  0  0
  181.8090  178.3060  135.5660 N   0  0  0  0  0  2  0  0  0  0  0  0
  181.8720  176.7460  137.4600 C   0  0  0  0  0  2  0  0  0  0  0  0
  182.6520  177.7840  136.6400 C   0  0  1  0  0  3  0  0  0  0  0  0
  180.6270  177.3970  138.0520 C   0  0  0  0  0  2  0  0  0  0  0  0
  183.7770  175.9690  135.2030 C   0  0  0  0  0  2  0  0  0  0  0  0
  184.2990  174.8050  135.9040 N   0  0  0  0  0  2  0  0  0  0  0  0
  182.3820  173.5160  135.5770 O   0  0  0  0  0  0  0  0  0  0  0  0
  183.5520  173.5900  136.0460 C   0  0  0  0  0  0  0  0  0  0  0  0
  184.9760  172.8970  137.9370 C   0  0  0  0  0  1  0  0  0  0  0  0
  184.1830  172.4080  136.7360 C   0  0  0  0  0  0  0  0  0  0  0  0
  183.1240  171.4260  137.2240 C   0  0  0  0  0  1  0  0  0  0  0  0
  186.4550  171.9650  136.0450 O   0  0  0  0  0  1  0  0  0  0  0  0
  185.1130  171.7050  135.7510 C   0  0  0  0  0  2  0  0  0  0  0  0
  1 10  1  6  0  0  0
  1  7  1  0  0  0  0
  3  7  1  0  0  0  0
  4  1  1  0  0  0  0
  5  3  1  0  0  0  0
  6  5  1  0  0  0  0
  6  4  1  0  0  0  0
  7  2  2  0  0  0  0
  8 10  2  0  0  0  0
  9 11  1  0  0  0  0
 10  9  1  0  0  0  0
 11 12  1  0  0  0  0
 12 13  1  0  0  0  0
 14 13  1  6  0  0  0
 14 16  1  0  0  0  0
 14 15  1  0  0  0  0
 16 28  1  0  0  0  0
 16 15  1  1  0  0  0
 18 17  1  6  0  0  0
 18 23  1  0  0  0  0
 18 24  1  0  0  0  0
 18 20  1  0  0  0  0
 19 27  1  0  0  0  0
 19 26  1  1  0  0  0
 20 22  1  1  0  0  0
 20 19  1  0  0  0  0
 21 27  1  1  0  0  0
 23 24  1  0  0  0  0
 23 21  1  0  0  0  0
 24 21  1  0  0  0  0
 25 17  1  0  0  0  0
 25 28  1  0  0  0  0
 28 23  1  0  0  0  0
 29 34  1  0  0  0  0
 29  5  1  0  0  0  0
 30 31  1  0  0  0  0
 31 35  1  0  0  0  0
 32 30  1  0  0  0  0
 32 34  1  0  0  0  0
 33 35  1  0  0  0  0
 34 33  1  0  0  0  0
 36 37  1  0  0  0  0
 36 29  1  0  0  0  0
 37 39  1  0  0  0  0
 38 39  2  0  0  0  0
 39 41  1  0  0  0  0
 41 42  1  0  0  0  0
 41 40  1  0  0  0  0
 44 43  1  0  0  0  0
 44 41  1  0  0  0  0
M  END
>  <MODEL>
8

>  <REMARK>
 VINA RESULT:      -7.5      2.743      6.036
  Name = 
  12 active torsions:
  status: ('A' for Active; 'I' for Inactive)
    1  A    between atoms: C_5  and  C_21
    2  A    between atoms: C_10  and  N_11
    3  A    between atoms: C_10  and  C_20
    4  A    between atoms: C_13  and  C_39
    5  A    between atoms: C_14  and  C_32
    6  A    between atoms: C_14  and  C_39
    7  A    between atoms: N_19  and  C_32
    8  A    between atoms: C_20  and  C_27
    9  A    between atoms: C_20  and  N_30
   10  A    between atoms: C_26  and  C_34
   11  A    between atoms: C_26  and  C_43
   12  A    between atoms: C_36  and  C_42
                            x       y       z     vdW  Elec       q    Type
                         _______ _______ _______ _____ _____    ______ ____

>  <TORSDO>
F 12

$$$$
=
 OpenBabel11062416133D

 44 50  0  0  1  0  0  0  0  0999 V2000
  189.9440  177.1440  142.9870 C   0  0  2  0  0  3  0  0  0  0  0  0
  187.8970  177.7200  141.9590 O   0  0  0  0  0  0  0  0  0  0  0  0
  189.7030  177.7440  140.4490 C   0  0  0  0  0  2  0  0  0  0  0  0
  191.3140  176.5570  142.6290 C   0  0  0  0  0  2  0  0  0  0  0  0
  190.8660  176.8730  140.2440 N   0  0  0  0  0  0  0  0  0  0  0  0
  191.8470  177.0980  141.3050 C   0  0  0  0  0  2  0  0  0  0  0  0
  189.0950  177.5380  141.8070 C   0  0  0  0  0  0  0  0  0  0  0  0
  190.9560  179.0370  144.0590 N   0  0  0  0  0  2  0  0  0  0  0  0
  189.0220  178.2600  145.1330 N   0  0  0  0  0  2  0  0  0  0  0  0
  189.9880  178.1840  144.0750 C   0  0  0  0  0  0  0  0  0  0  0  0
  187.8790  177.3740  145.2970 C   0  0  0  0  0  2  0  0  0  0  0  0
  186.8050  178.0350  146.1480 C   0  0  0  0  0  2  0  0  0  0  0  0
  185.9510  178.9940  145.3320 C   0  0  0  0  0  2  0  0  0  0  0  0
  184.8370  178.2490  144.6140 C   0  0  1  0  0  3  0  0  0  0  0  0
  183.5000  178.8900  144.9210 C   0  0  0  0  0  2  0  0  0  0  0  0
  184.1950  179.1810  143.6070 C   0  0  2  0  0  3  0  0  0  0  0  0
  183.7260  178.4180  140.0350 C   0  0  0  0  0  2  0  0  0  0  0  0
  182.3170  178.8200  140.4410 C   0  0  2  0  0  0  0  0  0  0  0  0
  180.1230  180.1020  140.3980 C   0  0  2  0  0  3  0  0  0  0  0  0
  181.5520  179.9870  139.8080 C   0  0  2  0  0  3  0  0  0  0  0  0
  180.9890  178.7850  142.4940 C   0  0  2  0  0  3  0  0  0  0  0  0
  181.4720  179.8090  138.4370 F   0  0  0  0  0  0  0  0  0  0  0  0
  182.3670  179.0470  141.9200 C   0  0  1  0  0  0  0  0  0  0  0  0
  181.5240  177.9190  141.3680 C   0  0  2  0  0  3  0  0  0  0  0  0
  184.5510  178.2770  141.3180 C   0  0  0  0  0  2  0  0  0  0  0  0
  179.5670  181.3380  140.0690 O   0  0  0  0  0  1  0  0  0  0  0  0
  180.0710  179.9010  141.9400 C   0  0  0  0  0  2  0  0  0  0  0  0
  183.5810  178.3540  142.4900 C   0  0  1  0  0  3  0  0  0  0  0  0
  191.5130  177.1530  138.9520 C   0  0  2  0  0  3  0  0  0  0  0  0
  190.1110  174.2520  137.0520 C   0  0  0  0  0  2  0  0  0  0  0  0
  188.9690  174.8900  136.2640 C   0  0  0  0  0  2  0  0  0  0  0  0
  190.4320  175.0700  138.2200 N   0  0  0  0  0  2  0  0  0  0  0  0
  189.8370  177.1180  137.0050 C   0  0  0  0  0  2  0  0  0  0  0  0
  190.9400  176.3610  137.7580 C   0  0  1  0  0  3  0  0  0  0  0  0
  189.3750  176.2890  135.8110 C   0  0  0  0  0  2  0  0  0  0  0  0
  193.0380  177.0990  139.0530 C   0  0  0  0  0  2  0  0  0  0  0  0
  193.5770  176.1530  138.0860 N   0  0  0  0  0  2  0  0  0  0  0  0
  195.1800  175.2890  139.5460 O   0  0  0  0  0  0  0  0  0  0  0  0
  194.6490  175.2550  138.4010 C   0  0  0  0  0  0  0  0  0  0  0  0
  193.9140  173.5090  136.8210 C   0  0  0  0  0  1  0  0  0  0  0  0
  195.1150  174.2650  137.3640 C   0  0  0  0  0  0  0  0  0  0  0  0
  195.8070  174.9690  136.2030 C   0  0  0  0  0  1  0  0  0  0  0  0
  195.4100  172.2790  138.7080 O   0  0  0  0  0  1  0  0  0  0  0  0
  196.0890  173.2900  138.0210 C   0  0  0  0  0  2  0  0  0  0  0  0
  1 10  1  1  0  0  0
  3  7  1  0  0  0  0
  4  1  1  0  0  0  0
  5  3  1  0  0  0  0
  5  6  1  0  0  0  0
  6  4  1  0  0  0  0
  7  2  2  0  0  0  0
  7  1  1  0  0  0  0
  8 10  2  0  0  0  0
  9 11  1  0  0  0  0
 10  9  1  0  0  0  0
 11 12  1  0  0  0  0
 13 12  1  0  0  0  0
 14 15  1  0  0  0  0
 14 13  1  1  0  0  0
 16 14  1  0  0  0  0
 16 15  1  1  0  0  0
 17 25  1  0  0  0  0
 18 17  1  6  0  0  0
 18 24  1  0  0  0  0
 18 23  1  0  0  0  0
 19 26  1  1  0  0  0
 19 27  1  0  0  0  0
 20 22  1  6  0  0  0
 20 19  1  0  0  0  0
 20 18  1  0  0  0  0
 21 27  1  6  0  0  0
 23 28  1  0  0  0  0
 23 21  1  0  0  0  0
 24 23  1  0  0  0  0
 24 21  1  0  0  0  0
 25 28  1  0  0  0  0
 28 16  1  0  0  0  0
 29 36  1  0  0  0  0
 29  5  1  0  0  0  0
 30 32  1  0  0  0  0
 31 30  1  0  0  0  0
 33 34  1  0  0  0  0
 34 32  1  0  0  0  0
 34 29  1  0  0  0  0
 35 31  1  0  0  0  0
 35 33  1  0  0  0  0
 37 39  1  0  0  0  0
 37 36  1  0  0  0  0
 39 38  2  0  0  0  0
 40 41  1  0  0  0  0
 41 44  1  0  0  0  0
 41 39  1  0  0  0  0
 42 41  1  0  0  0  0
 44 43  1  0  0  0  0
M  END
>  <MODEL>
9

>  <REMARK>
 VINA RESULT:      -7.5      4.407      7.765
  Name = 
  12 active torsions:
  status: ('A' for Active; 'I' for Inactive)
    1  A    between atoms: C_5  and  C_21
    2  A    between atoms: C_10  and  N_11
    3  A    between atoms: C_10  and  C_20
    4  A    between atoms: C_13  and  C_39
    5  A    between atoms: C_14  and  C_32
    6  A    between atoms: C_14  and  C_39
    7  A    between atoms: N_19  and  C_32
    8  A    between atoms: C_20  and  C_27
    9  A    between atoms: C_20  and  N_30
   10  A    between atoms: C_26  and  C_34
   11  A    between atoms: C_26  and  C_43
   12  A    between atoms: C_36  and  C_42
                            x       y       z     vdW  Elec       q    Type
                         _______ _______ _______ _____ _____    ______ ____

>  <TORSDO>
F 12

$$$$
