=
 OpenBabel11062415163D

 41 46  0  0  1  0  0  0  0  0999 V2000
  185.8430  177.3640  142.8010 C   0  0  0  0  0  2  0  0  0  0  0  0
  185.1860  178.5990  142.2210 C   0  0  0  0  0  2  0  0  0  0  0  0
  183.6710  178.4600  142.2420 C   0  0  2  0  0  3  0  0  0  0  0  0
  180.6180  176.3810  139.3260 F   0  0  0  0  0  0  0  0  0  0  0  0
  181.1300  177.5100  141.7880 O   0  0  0  0  0  1  0  0  0  0  0  0
  183.0000  178.8020  140.8910 C   0  0  2  0  0  3  0  0  0  0  0  0
  184.5370  180.1150  139.5900 O   0  0  0  0  0  1  0  0  0  0  0  0
  182.3090  177.4730  138.2830 O   0  0  0  0  0  0  0  0  0  0  0  0
  181.8510  176.9710  139.5340 C   0  0  0  0  0  0  0  0  0  0  0  0
  183.0660  178.6780  138.3540 C   0  0  2  0  0  3  0  0  0  0  0  0
  184.8840  177.8760  139.6670 O   0  0  0  0  0  1  0  0  0  0  0  0
  181.6860  178.0460  140.6230 C   0  0  1  0  0  3  0  0  0  0  0  0
  183.9050  178.8720  139.6360 C   0  0  0  0  0  0  0  0  0  0  0  0
  182.7220  175.9880  139.9700 F   0  0  0  0  0  0  0  0  0  0  0  0
  182.2400  179.8690  137.9630 C   0  0  0  0  0  0  0  0  0  0  0  0
  181.3610  179.7730  136.8930 O   0  0  0  0  0  0  0  0  0  0  0  0
  182.3490  180.9590  138.5830 O   0  0  0  0  0  1  0  0  0  0  0  0
  181.5470  180.1800  143.1650 O   0  0  0  0  0  0  0  0  0  0  0  0
  184.0580  180.4650  144.2560 O   0  0  0  0  0  1  0  0  0  0  0  0
  182.9370  179.3520  143.6540 P   0  0  0  0  0  0  0  0  0  0  0  0
  182.5810  178.3700  144.7470 O   0  0  0  0  0  1  0  0  0  0  0  0
  187.2350  177.7290  143.2990 C   0  0  1  0  0  3  0  0  0  0  0  0
  187.6460  176.8350  144.4620 C   0  0  2  0  0  3  0  0  0  0  0  0
  185.6240  179.7420  147.7440 O   0  0  0  0  0  0  0  0  0  0  0  0
  188.2860  177.3330  147.1050 C   0  0  1  0  0  0  0  0  0  0  0  0
  185.8370  178.2170  145.9190 C   0  0  0  0  0  2  0  0  0  0  0  0
  189.6310  177.2620  147.4910 O   0  0  0  0  0  0  0  0  0  0  0  0
  186.3340  178.9270  147.1800 C   0  0  0  0  0  0  0  0  0  0  0  0
  187.7550  178.6610  147.6920 C   0  0  0  0  0  2  0  0  0  0  0  0
  189.3940  177.0610  146.1280 C   0  0  2  0  0  3  0  0  0  0  0  0
  186.7470  177.0040  145.6450 C   0  0  2  0  0  3  0  0  0  0  0  0
  188.1280  177.6880  145.6260 C   0  0  2  0  0  0  0  0  0  0  0  0
  188.2940  177.7180  142.1880 C   0  0  2  0  0  3  0  0  0  0  0  0
  191.7300  177.4280  143.4520 N   0  0  0  0  0  0  0  0  0  0  0  0
  191.5100  178.7200  143.6500 N   0  0  0  0  0  2  0  0  0  0  0  0
  190.6260  176.9120  142.8950 C   0  0  0  0  0  0  0  0  0  0  0  0
  190.2690  179.0400  143.2210 C   0  0  0  0  0  3  0  0  0  0  0  0
  189.6840  177.8920  142.7210 C   0  0  0  0  0  0  0  0  0  0  0  0
  190.4750  175.5380  142.5560 N   0  0  0  0  0  1  0  0  0  0  0  0
  187.9950  178.6280  141.0260 C   0  0  0  0  0  3  0  0  0  0  0  0
  188.5430  178.4810  139.9440 O   0  0  0  0  0  0  0  0  0  0  0  0
  2  1  1  0  0  0  0
  3  2  1  6  0  0  0
  3 20  1  0  0  0  0
  4  9  1  0  0  0  0
  6  3  1  1  0  0  0
  7 13  1  0  0  0  0
  8 10  1  0  0  0  0
  8  9  1  0  0  0  0
  9 14  1  0  0  0  0
  9 12  1  0  0  0  0
 10 15  1  1  0  0  0
 10 13  1  0  0  0  0
 12  6  1  0  0  0  0
 12  5  1  1  0  0  0
 13 11  1  0  0  0  0
 13  6  1  0  0  0  0
 15 17  1  0  0  0  0
 16 15  2  0  0  0  0
 18 20  2  0  0  0  0
 20 19  1  0  0  0  0
 20 21  1  0  0  0  0
 22  1  1  6  0  0  0
 23 22  1  6  0  0  0
 23 32  1  0  0  0  0
 23 31  1  0  0  0  0
 25 27  1  0  0  0  0
 25 29  1  6  0  0  0
 26 28  1  0  0  0  0
 28 29  1  0  0  0  0
 28 24  2  0  0  0  0
 30 25  1  0  0  0  0
 30 27  1  1  0  0  0
 31 26  1  6  0  0  0
 32 31  1  0  0  0  0
 32 30  1  0  0  0  0
 32 25  1  0  0  0  0
 33 38  1  0  0  0  0
 33 22  1  0  0  0  0
 34 35  1  0  0  0  0
 36 34  2  0  0  0  0
 37 35  1  0  0  0  0
 38 36  1  0  0  0  0
 38 37  2  0  0  0  0
 39 36  1  0  0  0  0
 40 33  1  0  0  0  0
 41 40  2  0  0  0  0
M  END
>  <MODEL>
1

>  <REMARK>
 VINA RESULT:      -7.7      0.000      0.000
  Name = 
  10 active torsions:
  status: ('A' for Active; 'I' for Inactive)
    1  A    between atoms: C_2  and  C_35
    2  A    between atoms: C_5  and  C_9
    3  A    between atoms: C_5  and  C_14
    4  A    between atoms: C_6  and  C_29
    5  A    between atoms: C_9  and  C_35
    6  A    between atoms: C_12  and  C_14
    7  A    between atoms: C_14  and  P_24
    8  A    between atoms: C_19  and  C_23
    9  A    between atoms: C_23  and  C_33
   10  A    between atoms: C_23  and  C_35
                            x       y       z     vdW  Elec       q    Type
                         _______ _______ _______ _____ _____    ______ ____

>  <TORSDO>
F 10

$$$$
=
 OpenBabel11062415163D

 41 46  0  0  1  0  0  0  0  0999 V2000
  187.8480  177.2650  142.3390 C   0  0  0  0  0  2  0  0  0  0  0  0
  187.8430  178.2400  141.1810 C   0  0  0  0  0  2  0  0  0  0  0  0
  186.6800  177.9530  140.2420 C   0  0  2  0  0  3  0  0  0  0  0  0
  185.9130  175.4220  136.3500 F   0  0  0  0  0  0  0  0  0  0  0  0
  184.8980  176.9630  138.3970 O   0  0  0  0  0  1  0  0  0  0  0  0
  187.0540  178.0570  138.7450 C   0  0  2  0  0  3  0  0  0  0  0  0
  189.2100  179.1050  138.5710 O   0  0  0  0  0  1  0  0  0  0  0  0
  188.0000  176.2960  136.4970 O   0  0  0  0  0  0  0  0  0  0  0  0
  186.8020  176.0270  137.2190 C   0  0  0  0  0  0  0  0  0  0  0  0
  188.6830  177.4870  136.8800 C   0  0  2  0  0  3  0  0  0  0  0  0
  189.1600  176.9110  139.1410 O   0  0  0  0  0  1  0  0  0  0  0  0
  186.1210  177.2790  137.7990 C   0  0  1  0  0  3  0  0  0  0  0  0
  188.5460  177.8960  138.3630 C   0  0  0  0  0  0  0  0  0  0  0  0
  187.0800  175.1280  138.2330 F   0  0  0  0  0  0  0  0  0  0  0  0
  188.4360  178.5980  135.9010 C   0  0  0  0  0  0  0  0  0  0  0  0
  187.6830  179.6970  136.2850 O   0  0  0  0  0  1  0  0  0  0  0  0
  188.8900  178.5340  134.7280 O   0  0  0  0  0  0  0  0  0  0  0  0
  184.7370  179.9050  139.3830 O   0  0  0  0  0  0  0  0  0  0  0  0
  185.5670  179.9190  142.0090 O   0  0  0  0  0  1  0  0  0  0  0  0
  185.2060  178.9310  140.6840 P   0  0  0  0  0  0  0  0  0  0  0  0
  184.0710  178.0040  141.0550 O   0  0  0  0  0  1  0  0  0  0  0  0
  188.4540  177.9450  143.5580 C   0  0  1  0  0  3  0  0  0  0  0  0
  188.1650  177.1460  144.8230 C   0  0  2  0  0  3  0  0  0  0  0  0
  183.9540  179.3820  145.5810 O   0  0  0  0  0  0  0  0  0  0  0  0
  186.7880  177.7120  147.1530 C   0  0  1  0  0  0  0  0  0  0  0  0
  185.6160  178.0060  144.5590 C   0  0  0  0  0  2  0  0  0  0  0  0
  187.5240  177.9600  148.3200 O   0  0  0  0  0  0  0  0  0  0  0  0
  185.0040  178.7800  145.7280 C   0  0  0  0  0  0  0  0  0  0  0  0
  185.7500  178.8540  147.0660 C   0  0  0  0  0  2  0  0  0  0  0  0
  188.2900  177.7440  147.1700 C   0  0  2  0  0  3  0  0  0  0  0  0
  186.7000  177.0590  145.1100 C   0  0  2  0  0  3  0  0  0  0  0  0
  187.5770  178.0580  145.8890 C   0  0  2  0  0  0  0  0  0  0  0  0
  189.9560  178.2250  143.4080 C   0  0  2  0  0  3  0  0  0  0  0  0
  191.8550  175.1510  144.0700 N   0  0  0  0  0  0  0  0  0  0  0  0
  191.9780  175.7660  145.2380 N   0  0  0  0  0  2  0  0  0  0  0  0
  191.1370  175.9510  143.2680 C   0  0  0  0  0  0  0  0  0  0  0  0
  191.3440  176.9580  145.1930 C   0  0  0  0  0  3  0  0  0  0  0  0
  190.8020  177.1040  143.9290 C   0  0  0  0  0  0  0  0  0  0  0  0
  190.7770  175.6190  141.9330 N   0  0  0  0  0  1  0  0  0  0  0  0
  190.3960  179.5740  143.9120 C   0  0  0  0  0  3  0  0  0  0  0  0
  191.5790  179.8660  143.9990 O   0  0  0  0  0  0  0  0  0  0  0  0
  2  1  1  0  0  0  0
  3 20  1  0  0  0  0
  3  2  1  1  0  0  0
  4  9  1  0  0  0  0
  6  3  1  1  0  0  0
  8 10  1  0  0  0  0
  8  9  1  0  0  0  0
  9 12  1  0  0  0  0
  9 14  1  0  0  0  0
 10 15  1  6  0  0  0
 10 13  1  0  0  0  0
 12  5  1  1  0  0  0
 12  6  1  0  0  0  0
 13  7  1  0  0  0  0
 13  6  1  0  0  0  0
 13 11  1  0  0  0  0
 15 16  1  0  0  0  0
 17 15  2  0  0  0  0
 18 20  2  0  0  0  0
 20 21  1  0  0  0  0
 20 19  1  0  0  0  0
 22  1  1  6  0  0  0
 23 22  1  6  0  0  0
 23 31  1  0  0  0  0
 23 32  1  0  0  0  0
 24 28  2  0  0  0  0
 25 29  1  1  0  0  0
 25 30  1  0  0  0  0
 25 27  1  0  0  0  0
 26 28  1  0  0  0  0
 28 29  1  0  0  0  0
 30 27  1  1  0  0  0
 31 26  1  6  0  0  0
 31 32  1  0  0  0  0
 32 25  1  0  0  0  0
 32 30  1  0  0  0  0
 33 22  1  0  0  0  0
 33 40  1  0  0  0  0
 33 38  1  0  0  0  0
 34 35  1  0  0  0  0
 36 38  1  0  0  0  0
 36 34  2  0  0  0  0
 37 35  1  0  0  0  0
 38 37  2  0  0  0  0
 39 36  1  0  0  0  0
 40 41  2  0  0  0  0
M  END
>  <MODEL>
2

>  <REMARK>
 VINA RESULT:      -7.3      2.726      3.992
  Name = 
  10 active torsions:
  status: ('A' for Active; 'I' for Inactive)
    1  A    between atoms: C_2  and  C_35
    2  A    between atoms: C_5  and  C_9
    3  A    between atoms: C_5  and  C_14
    4  A    between atoms: C_6  and  C_29
    5  A    between atoms: C_9  and  C_35
    6  A    between atoms: C_12  and  C_14
    7  A    between atoms: C_14  and  P_24
    8  A    between atoms: C_19  and  C_23
    9  A    between atoms: C_23  and  C_33
   10  A    between atoms: C_23  and  C_35
                            x       y       z     vdW  Elec       q    Type
                         _______ _______ _______ _____ _____    ______ ____

>  <TORSDO>
F 10

$$$$
=
 OpenBabel11062415163D

 41 46  0  0  1  0  0  0  0  0999 V2000
  189.6950  176.3870  141.5050 C   0  0  0  0  0  2  0  0  0  0  0  0
  190.4900  177.1060  140.4360 C   0  0  0  0  0  2  0  0  0  0  0  0
  189.7970  176.9960  139.0860 C   0  0  2  0  0  3  0  0  0  0  0  0
  189.9420  174.1460  135.3440 F   0  0  0  0  0  0  0  0  0  0  0  0
  188.7260  176.2330  136.6700 O   0  0  0  0  0  1  0  0  0  0  0  0
  190.7700  176.7360  137.9110 C   0  0  2  0  0  3  0  0  0  0  0  0
  193.0150  177.1050  138.6860 O   0  0  0  0  0  1  0  0  0  0  0  0
  191.9390  174.4250  136.3820 O   0  0  0  0  0  0  0  0  0  0  0  0
  190.5330  174.6230  136.4990 C   0  0  0  0  0  0  0  0  0  0  0  0
  192.7450  175.4290  136.9910 C   0  0  2  0  0  3  0  0  0  0  0  0
  192.0290  175.1410  139.2440 O   0  0  0  0  0  1  0  0  0  0  0  0
  190.1170  176.0940  136.6730 C   0  0  1  0  0  3  0  0  0  0  0  0
  192.1460  176.1080  138.2420 C   0  0  0  0  0  0  0  0  0  0  0  0
  190.0600  173.8700  137.5590 F   0  0  0  0  0  0  0  0  0  0  0  0
  193.2990  176.3810  135.9700 C   0  0  0  0  0  0  0  0  0  0  0  0
  192.7220  176.4490  134.7100 O   0  0  0  0  0  0  0  0  0  0  0  0
  194.2940  177.1040  136.2380 O   0  0  0  0  0  1  0  0  0  0  0  0
  187.1180  177.8520  138.4420 O   0  0  0  0  0  1  0  0  0  0  0  0
  189.2470  179.3080  137.4800 O   0  0  0  0  0  0  0  0  0  0  0  0
  188.6770  178.4050  138.7910 P   0  0  0  0  0  0  0  0  0  0  0  0
  188.6370  179.2890  140.0170 O   0  0  0  0  0  1  0  0  0  0  0  0
  189.7900  177.1710  142.8060 C   0  0  1  0  0  3  0  0  0  0  0  0
  188.9050  176.5470  143.8790 C   0  0  2  0  0  3  0  0  0  0  0  0
  185.0870  179.2400  142.6620 O   0  0  0  0  0  0  0  0  0  0  0  0
  186.7830  177.4940  145.3770 C   0  0  1  0  0  0  0  0  0  0  0  0
  186.8260  177.6090  142.5180 C   0  0  0  0  0  2  0  0  0  0  0  0
  187.0020  177.7990  146.7270 O   0  0  0  0  0  0  0  0  0  0  0  0
  185.8960  178.5620  143.2730 C   0  0  0  0  0  0  0  0  0  0  0  0
  186.0320  178.7120  144.7930 C   0  0  0  0  0  2  0  0  0  0  0  0
  188.1360  177.3870  146.0210 C   0  0  2  0  0  3  0  0  0  0  0  0
  187.4540  176.6310  143.5300 C   0  0  2  0  0  3  0  0  0  0  0  0
  188.0580  177.6230  144.5420 C   0  0  2  0  0  0  0  0  0  0  0  0
  191.2320  177.3420  143.3030 C   0  0  2  0  0  3  0  0  0  0  0  0
  192.2050  175.2560  146.1650 N   0  0  0  0  0  0  0  0  0  0  0  0
  192.3520  174.3870  145.1740 N   0  0  0  0  0  0  0  0  0  0  0  0
  191.7750  176.4070  145.6310 C   0  0  2  0  0  3  0  0  0  0  0  0
  192.0170  174.9740  144.0040 C   0  0  0  0  0  3  0  0  0  0  0  0
  191.6320  176.2740  144.2750 C   0  0  0  0  0  0  0  0  0  0  0  0
  191.5250  177.5880  146.3850 N   0  0  0  0  0  1  0  0  0  0  0  0
  191.5700  178.7280  143.7840 C   0  0  0  0  0  3  0  0  0  0  0  0
  190.7380  179.6230  143.7830 O   0  0  0  0  0  0  0  0  0  0  0  0
  2  1  1  0  0  0  0
  3  2  1  1  0  0  0
  4  9  1  0  0  0  0
  6 13  1  0  0  0  0
  6  3  1  1  0  0  0
  8  9  1  0  0  0  0
  8 10  1  0  0  0  0
  9 12  1  0  0  0  0
  9 14  1  0  0  0  0
 10 15  1  6  0  0  0
 10 13  1  0  0  0  0
 12  5  1  1  0  0  0
 12  6  1  0  0  0  0
 13  7  1  0  0  0  0
 13 11  1  0  0  0  0
 15 17  1  0  0  0  0
 16 15  2  0  0  0  0
 18 20  1  0  0  0  0
 19 20  2  0  0  0  0
 20  3  1  0  0  0  0
 20 21  1  0  0  0  0
 22  1  1  6  0  0  0
 22 33  1  0  0  0  0
 23 22  1  6  0  0  0
 23 32  1  0  0  0  0
 24 28  2  0  0  0  0
 25 29  1  1  0  0  0
 25 30  1  0  0  0  0
 25 27  1  0  0  0  0
 26 28  1  0  0  0  0
 28 29  1  0  0  0  0
 30 27  1  1  0  0  0
 31 26  1  6  0  0  0
 31 23  1  0  0  0  0
 31 32  1  0  0  0  0
 32 25  1  0  0  0  0
 32 30  1  0  0  0  0
 33 40  1  0  0  0  0
 33 38  1  0  0  0  0
 35 34  2  0  0  0  0
 36 34  1  0  0  0  0
 36 39  1  0  0  0  0
 37 38  2  0  0  0  0
 37 35  1  0  0  0  0
 38 36  1  0  0  0  0
 41 40  2  0  0  0  0
M  END
>  <MODEL>
3

>  <REMARK>
 VINA RESULT:      -7.2      4.249      6.947
  Name = 
  10 active torsions:
  status: ('A' for Active; 'I' for Inactive)
    1  A    between atoms: C_2  and  C_35
    2  A    between atoms: C_5  and  C_9
    3  A    between atoms: C_5  and  C_14
    4  A    between atoms: C_6  and  C_29
    5  A    between atoms: C_9  and  C_35
    6  A    between atoms: C_12  and  C_14
    7  A    between atoms: C_14  and  P_24
    8  A    between atoms: C_19  and  C_23
    9  A    between atoms: C_23  and  C_33
   10  A    between atoms: C_23  and  C_35
                            x       y       z     vdW  Elec       q    Type
                         _______ _______ _______ _____ _____    ______ ____

>  <TORSDO>
F 10

$$$$
=
 OpenBabel11062415163D

 41 46  0  0  1  0  0  0  0  0999 V2000
  188.0420  177.3780  139.8810 C   0  0  0  0  0  2  0  0  0  0  0  0
  189.3710  177.1710  139.1870 C   0  0  0  0  0  2  0  0  0  0  0  0
  189.1640  176.8750  137.7090 C   0  0  2  0  0  3  0  0  0  0  0  0
  190.2370  172.8760  135.4710 F   0  0  0  0  0  0  0  0  0  0  0  0
  188.7710  175.2090  135.5570 O   0  0  0  0  0  1  0  0  0  0  0  0
  190.4120  176.2770  137.0180 C   0  0  2  0  0  3  0  0  0  0  0  0
  192.3700  177.0660  138.1670 O   0  0  0  0  0  1  0  0  0  0  0  0
  191.8820  173.6600  136.8210 O   0  0  0  0  0  0  0  0  0  0  0  0
  190.5040  173.7840  136.4800 C   0  0  0  0  0  0  0  0  0  0  0  0
  192.5210  174.8730  137.2060 C   0  0  2  0  0  3  0  0  0  0  0  0
  191.2080  175.3730  139.1290 O   0  0  0  0  0  1  0  0  0  0  0  0
  190.1020  175.1820  135.9800 C   0  0  1  0  0  3  0  0  0  0  0  0
  191.6250  175.9150  137.9100 C   0  0  0  0  0  0  0  0  0  0  0  0
  189.7360  173.4350  137.5760 F   0  0  0  0  0  0  0  0  0  0  0  0
  193.3630  175.4250  136.0920 C   0  0  0  0  0  0  0  0  0  0  0  0
  194.5540  176.0730  136.3880 O   0  0  0  0  0  1  0  0  0  0  0  0
  192.9910  175.3230  134.8940 O   0  0  0  0  0  0  0  0  0  0  0  0
  189.0210  178.3390  135.2270 O   0  0  0  0  0  0  0  0  0  0  0  0
  188.9780  179.7350  137.6000 O   0  0  0  0  0  1  0  0  0  0  0  0
  188.4770  178.3160  136.8280 P   0  0  0  0  0  0  0  0  0  0  0  0
  186.9670  178.2530  136.8470 O   0  0  0  0  0  1  0  0  0  0  0  0
  188.2900  177.6690  141.3550 C   0  0  1  0  0  3  0  0  0  0  0  0
  189.5970  178.4310  141.5440 C   0  0  2  0  0  3  0  0  0  0  0  0
  191.5980  174.8700  144.1170 O   0  0  0  0  0  0  0  0  0  0  0  0
  191.4980  178.4700  143.5510 C   0  0  1  0  0  0  0  0  0  0  0  0
  190.6600  176.0530  142.2680 C   0  0  0  0  0  2  0  0  0  0  0  0
  191.5430  179.5800  144.4050 O   0  0  0  0  0  0  0  0  0  0  0  0
  191.3090  175.9580  143.6500 C   0  0  0  0  0  0  0  0  0  0  0  0
  191.5330  177.2320  144.4750 C   0  0  0  0  0  2  0  0  0  0  0  0
  190.5150  179.6030  143.4580 C   0  0  2  0  0  3  0  0  0  0  0  0
  190.7530  177.5120  141.7800 C   0  0  2  0  0  3  0  0  0  0  0  0
  190.1020  178.2480  142.9670 C   0  0  2  0  0  0  0  0  0  0  0  0
  187.1200  178.3960  142.0310 C   0  0  2  0  0  3  0  0  0  0  0  0
  185.9870  177.6550  145.4470 N   0  0  0  0  0  0  0  0  0  0  0  0
  186.9000  176.7080  145.2860 N   0  0  0  0  0  2  0  0  0  0  0  0
  185.9370  178.3630  144.3090 C   0  0  0  0  0  0  0  0  0  0  0  0
  187.4390  176.8010  144.0500 C   0  0  0  0  0  3  0  0  0  0  0  0
  186.8260  177.8560  143.3980 C   0  0  0  0  0  0  0  0  0  0  0  0
  185.0840  179.4850  144.1090 N   0  0  0  0  0  1  0  0  0  0  0  0
  185.8870  178.5320  141.1780 C   0  0  0  0  0  3  0  0  0  0  0  0
  185.5180  179.6200  140.7620 O   0  0  0  0  0  0  0  0  0  0  0  0
  2  1  1  0  0  0  0
  3  2  1  1  0  0  0
  4  9  1  0  0  0  0
  6  3  1  1  0  0  0
  6 13  1  0  0  0  0
  8 10  1  0  0  0  0
  9  8  1  0  0  0  0
  9 14  1  0  0  0  0
 10 15  1  6  0  0  0
 10 13  1  0  0  0  0
 12  5  1  1  0  0  0
 12  9  1  0  0  0  0
 12  6  1  0  0  0  0
 13  7  1  0  0  0  0
 13 11  1  0  0  0  0
 15 16  1  0  0  0  0
 17 15  2  0  0  0  0
 18 20  2  0  0  0  0
 20 21  1  0  0  0  0
 20 19  1  0  0  0  0
 20  3  1  0  0  0  0
 22  1  1  6  0  0  0
 22 33  1  0  0  0  0
 23 22  1  1  0  0  0
 23 31  1  0  0  0  0
 23 32  1  0  0  0  0
 25 27  1  0  0  0  0
 25 29  1  1  0  0  0
 26 28  1  0  0  0  0
 28 24  2  0  0  0  0
 28 29  1  0  0  0  0
 30 25  1  0  0  0  0
 30 27  1  1  0  0  0
 31 26  1  1  0  0  0
 31 32  1  0  0  0  0
 32 30  1  0  0  0  0
 32 25  1  0  0  0  0
 33 38  1  0  0  0  0
 35 34  1  0  0  0  0
 36 34  2  0  0  0  0
 37 35  1  0  0  0  0
 38 37  2  0  0  0  0
 38 36  1  0  0  0  0
 39 36  1  0  0  0  0
 40 33  1  0  0  0  0
 41 40  2  0  0  0  0
M  END
>  <MODEL>
4

>  <REMARK>
 VINA RESULT:      -6.9      4.727      7.625
  Name = 
  10 active torsions:
  status: ('A' for Active; 'I' for Inactive)
    1  A    between atoms: C_2  and  C_35
    2  A    between atoms: C_5  and  C_9
    3  A    between atoms: C_5  and  C_14
    4  A    between atoms: C_6  and  C_29
    5  A    between atoms: C_9  and  C_35
    6  A    between atoms: C_12  and  C_14
    7  A    between atoms: C_14  and  P_24
    8  A    between atoms: C_19  and  C_23
    9  A    between atoms: C_23  and  C_33
   10  A    between atoms: C_23  and  C_35
                            x       y       z     vdW  Elec       q    Type
                         _______ _______ _______ _____ _____    ______ ____

>  <TORSDO>
F 10

$$$$
=
 OpenBabel11062415163D

 41 46  0  0  1  0  0  0  0  0999 V2000
  185.9920  177.7400  136.9420 C   0  0  0  0  0  2  0  0  0  0  0  0
  184.8090  177.2680  137.7600 C   0  0  0  0  0  2  0  0  0  0  0  0
  183.5880  178.1350  137.4870 C   0  0  2  0  0  3  0  0  0  0  0  0
  184.4920  179.7510  141.8130 F   0  0  0  0  0  0  0  0  0  0  0  0
  184.4610  180.1900  139.0920 O   0  0  0  0  0  1  0  0  0  0  0  0
  182.7660  178.4630  138.7560 C   0  0  2  0  0  3  0  0  0  0  0  0
  180.9100  176.9420  138.8730 O   0  0  0  0  0  1  0  0  0  0  0  0
  182.9300  178.1100  141.7380 O   0  0  0  0  0  0  0  0  0  0  0  0
  183.9460  178.7780  140.9970 C   0  0  0  0  0  0  0  0  0  0  0  0
  181.8090  177.6740  140.9730 C   0  0  2  0  0  3  0  0  0  0  0  0
  182.9380  176.1620  139.5200 O   0  0  0  0  0  1  0  0  0  0  0  0
  183.4440  179.4610  139.7130 C   0  0  1  0  0  3  0  0  0  0  0  0
  182.1040  177.2830  139.5090 C   0  0  0  0  0  0  0  0  0  0  0  0
  184.9470  177.8730  140.6900 F   0  0  0  0  0  0  0  0  0  0  0  0
  180.6350  178.5930  141.1500 C   0  0  0  0  0  0  0  0  0  0  0  0
  179.3490  178.0730  141.1410 O   0  0  0  0  0  0  0  0  0  0  0  0
  180.8040  179.8330  141.2870 O   0  0  0  0  0  1  0  0  0  0  0  0
  183.3510  177.6890  134.6460 O   0  0  0  0  0  0  0  0  0  0  0  0
  181.0800  178.2470  136.1000 O   0  0  0  0  0  1  0  0  0  0  0  0
  182.5750  177.4570  136.1310 P   0  0  0  0  0  0  0  0  0  0  0  0
  182.3470  175.9790  136.3550 O   0  0  0  0  0  1  0  0  0  0  0  0
  187.2030  176.8810  137.2800 C   0  0  1  0  0  3  0  0  0  0  0  0
  187.5410  175.9440  136.1260 C   0  0  2  0  0  3  0  0  0  0  0  0
  184.9320  172.3220  137.9650 O   0  0  0  0  0  0  0  0  0  0  0  0
  187.8270  173.2010  135.9300 C   0  0  1  0  0  0  0  0  0  0  0  0
  185.4730  174.4350  136.9920 C   0  0  0  0  0  2  0  0  0  0  0  0
  189.1190  172.6710  135.8160 O   0  0  0  0  0  0  0  0  0  0  0  0
  185.7630  172.9780  137.3610 C   0  0  0  0  0  0  0  0  0  0  0  0
  187.1300  172.3670  137.0290 C   0  0  0  0  0  2  0  0  0  0  0  0
  189.0590  174.0590  135.9750 C   0  0  2  0  0  3  0  0  0  0  0  0
  186.5000  174.8890  135.9360 C   0  0  2  0  0  3  0  0  0  0  0  0
  187.8170  174.5460  136.6580 C   0  0  2  0  0  0  0  0  0  0  0  0
  188.4260  177.7050  137.7050 C   0  0  2  0  0  3  0  0  0  0  0  0
  189.5110  177.0030  141.1440 N   0  0  0  0  0  0  0  0  0  0  0  0
  188.5170  177.8500  141.3740 N   0  0  0  0  0  2  0  0  0  0  0  0
  189.6160  176.8570  139.8160 C   0  0  0  0  0  0  0  0  0  0  0  0
  187.9820  178.2510  140.2000 C   0  0  0  0  0  3  0  0  0  0  0  0
  188.6800  177.6300  139.1800 C   0  0  0  0  0  0  0  0  0  0  0  0
  190.5620  176.0020  139.1840 N   0  0  0  0  0  1  0  0  0  0  0  0
  188.4490  179.1140  137.1770 C   0  0  0  0  0  3  0  0  0  0  0  0
  189.2540  179.9360  137.5900 O   0  0  0  0  0  0  0  0  0  0  0  0
  1  2  1  0  0  0  0
  3  2  1  1  0  0  0
  6  3  1  6  0  0  0
  6 13  1  0  0  0  0
  6 12  1  0  0  0  0
  7 13  1  0  0  0  0
  9  8  1  0  0  0  0
  9  4  1  0  0  0  0
 10 15  1  6  0  0  0
 10  8  1  0  0  0  0
 12  5  1  6  0  0  0
 12  9  1  0  0  0  0
 13 11  1  0  0  0  0
 13 10  1  0  0  0  0
 14  9  1  0  0  0  0
 15 17  1  0  0  0  0
 16 15  2  0  0  0  0
 18 20  2  0  0  0  0
 19 20  1  0  0  0  0
 20 21  1  0  0  0  0
 20  3  1  0  0  0  0
 22  1  1  6  0  0  0
 22 33  1  0  0  0  0
 23 32  1  0  0  0  0
 23 22  1  1  0  0  0
 25 30  1  0  0  0  0
 25 32  1  0  0  0  0
 25 29  1  1  0  0  0
 26 28  1  0  0  0  0
 27 25  1  0  0  0  0
 28 24  2  0  0  0  0
 29 28  1  0  0  0  0
 30 27  1  1  0  0  0
 30 32  1  0  0  0  0
 31 23  1  0  0  0  0
 31 32  1  0  0  0  0
 31 26  1  1  0  0  0
 33 38  1  0  0  0  0
 34 35  1  0  0  0  0
 36 34  2  0  0  0  0
 37 35  1  0  0  0  0
 38 36  1  0  0  0  0
 38 37  2  0  0  0  0
 39 36  1  0  0  0  0
 40 41  2  0  0  0  0
 40 33  1  0  0  0  0
M  END
>  <MODEL>
5

>  <REMARK>
 VINA RESULT:      -6.6      4.038      6.867
  Name = 
  10 active torsions:
  status: ('A' for Active; 'I' for Inactive)
    1  A    between atoms: C_2  and  C_35
    2  A    between atoms: C_5  and  C_9
    3  A    between atoms: C_5  and  C_14
    4  A    between atoms: C_6  and  C_29
    5  A    between atoms: C_9  and  C_35
    6  A    between atoms: C_12  and  C_14
    7  A    between atoms: C_14  and  P_24
    8  A    between atoms: C_19  and  C_23
    9  A    between atoms: C_23  and  C_33
   10  A    between atoms: C_23  and  C_35
                            x       y       z     vdW  Elec       q    Type
                         _______ _______ _______ _____ _____    ______ ____

>  <TORSDO>
F 10

$$$$
=
 OpenBabel11062415163D

 41 46  0  0  1  0  0  0  0  0999 V2000
  186.0950  177.8680  137.2740 C   0  0  0  0  0  2  0  0  0  0  0  0
  184.9160  177.2080  137.9580 C   0  0  0  0  0  2  0  0  0  0  0  0
  183.6260  177.5030  137.2070 C   0  0  2  0  0  3  0  0  0  0  0  0
  180.9830  181.0660  138.7760 F   0  0  0  0  0  0  0  0  0  0  0  0
  181.8590  179.5370  136.6570 O   0  0  0  0  0  1  0  0  0  0  0  0
  182.3960  177.6640  138.1320 C   0  0  2  0  0  3  0  0  0  0  0  0
  182.4970  175.9710  139.8350 O   0  0  0  0  0  1  0  0  0  0  0  0
  181.4100  179.4680  140.3270 O   0  0  0  0  0  0  0  0  0  0  0  0
  181.7760  179.9660  139.0440 C   0  0  0  0  0  0  0  0  0  0  0  0
  181.4900  178.0540  140.4730 C   0  0  2  0  0  3  0  0  0  0  0  0
  183.8260  177.7900  140.0930 O   0  0  0  0  0  1  0  0  0  0  0  0
  181.5900  178.9560  137.8990 C   0  0  1  0  0  3  0  0  0  0  0  0
  182.5810  177.3500  139.6370 C   0  0  0  0  0  0  0  0  0  0  0  0
  183.0920  180.3940  139.0870 F   0  0  0  0  0  0  0  0  0  0  0  0
  180.1330  177.4160  140.3920 C   0  0  0  0  0  0  0  0  0  0  0  0
  179.2350  177.8340  139.4200 O   0  0  0  0  0  0  0  0  0  0  0  0
  179.7940  176.5190  141.2080 O   0  0  0  0  0  1  0  0  0  0  0  0
  181.7520  176.3930  135.3150 O   0  0  0  0  0  1  0  0  0  0  0  0
  183.6700  174.7480  136.4100 O   0  0  0  0  0  1  0  0  0  0  0  0
  183.3540  176.3130  135.8520 P   0  0  0  0  0  0  0  0  0  0  0  0
  184.2870  176.6250  134.7050 O   0  0  0  0  0  0  0  0  0  0  0  0
  187.2980  176.9400  137.3520 C   0  0  1  0  0  3  0  0  0  0  0  0
  187.6200  176.3530  135.9830 C   0  0  2  0  0  3  0  0  0  0  0  0
  187.7330  171.8280  137.6620 O   0  0  0  0  0  0  0  0  0  0  0  0
  189.0410  174.1300  135.1560 C   0  0  1  0  0  0  0  0  0  0  0  0
  186.8920  173.9740  137.0380 C   0  0  0  0  0  2  0  0  0  0  0  0
  190.3110  174.3210  134.5950 O   0  0  0  0  0  0  0  0  0  0  0  0
  187.9180  172.8400  137.0070 C   0  0  0  0  0  0  0  0  0  0  0  0
  189.2140  173.0080  136.2040 C   0  0  0  0  0  2  0  0  0  0  0  0
  189.6820  175.4850  135.0470 C   0  0  2  0  0  3  0  0  0  0  0  0
  187.1790  174.9300  135.8630 C   0  0  2  0  0  3  0  0  0  0  0  0
  188.6620  175.2540  136.1210 C   0  0  2  0  0  0  0  0  0  0  0  0
  188.5330  177.6040  137.9770 C   0  0  2  0  0  3  0  0  0  0  0  0
  188.7770  177.6400  141.6430 N   0  0  0  0  0  0  0  0  0  0  0  0
  187.6140  178.2530  141.4730 N   0  0  0  0  0  2  0  0  0  0  0  0
  189.2580  177.3460  140.4260 C   0  0  0  0  0  0  0  0  0  0  0  0
  187.3430  178.3570  140.1540 C   0  0  0  0  0  3  0  0  0  0  0  0
  188.3940  177.7880  139.4580 C   0  0  0  0  0  0  0  0  0  0  0  0
  190.4840  176.6600  140.2020 N   0  0  0  0  0  1  0  0  0  0  0  0
  189.0000  178.8500  137.2740 C   0  0  0  0  0  3  0  0  0  0  0  0
  189.0540  179.9250  137.8520 O   0  0  0  0  0  0  0  0  0  0  0  0
  1  2  1  0  0  0  0
  3  2  1  1  0  0  0
  4  9  1  0  0  0  0
  6  3  1  1  0  0  0
  6 13  1  0  0  0  0
  8 10  1  0  0  0  0
  9 14  1  0  0  0  0
  9  8  1  0  0  0  0
 10 15  1  6  0  0  0
 12  5  1  6  0  0  0
 12  6  1  0  0  0  0
 12  9  1  0  0  0  0
 13  7  1  0  0  0  0
 13 11  1  0  0  0  0
 13 10  1  0  0  0  0
 15 17  1  0  0  0  0
 16 15  2  0  0  0  0
 18 20  1  0  0  0  0
 20 19  1  0  0  0  0
 20  3  1  0  0  0  0
 21 20  2  0  0  0  0
 22  1  1  6  0  0  0
 22 33  1  0  0  0  0
 23 32  1  0  0  0  0
 23 22  1  1  0  0  0
 25 32  1  0  0  0  0
 25 29  1  1  0  0  0
 27 25  1  0  0  0  0
 28 26  1  0  0  0  0
 28 24  2  0  0  0  0
 29 28  1  0  0  0  0
 30 27  1  1  0  0  0
 30 25  1  0  0  0  0
 30 32  1  0  0  0  0
 31 23  1  0  0  0  0
 31 32  1  0  0  0  0
 31 26  1  1  0  0  0
 33 38  1  0  0  0  0
 35 34  1  0  0  0  0
 36 34  2  0  0  0  0
 37 35  1  0  0  0  0
 38 37  2  0  0  0  0
 38 36  1  0  0  0  0
 39 36  1  0  0  0  0
 40 41  2  0  0  0  0
 40 33  1  0  0  0  0
M  END
>  <MODEL>
6

>  <REMARK>
 VINA RESULT:      -6.6      4.310      7.131
  Name = 
  10 active torsions:
  status: ('A' for Active; 'I' for Inactive)
    1  A    between atoms: C_2  and  C_35
    2  A    between atoms: C_5  and  C_9
    3  A    between atoms: C_5  and  C_14
    4  A    between atoms: C_6  and  C_29
    5  A    between atoms: C_9  and  C_35
    6  A    between atoms: C_12  and  C_14
    7  A    between atoms: C_14  and  P_24
    8  A    between atoms: C_19  and  C_23
    9  A    between atoms: C_23  and  C_33
   10  A    between atoms: C_23  and  C_35
                            x       y       z     vdW  Elec       q    Type
                         _______ _______ _______ _____ _____    ______ ____

>  <TORSDO>
F 10

$$$$
=
 OpenBabel11062415163D

 41 46  0  0  1  0  0  0  0  0999 V2000
  184.8470  177.2260  135.6750 C   0  0  0  0  0  2  0  0  0  0  0  0
  185.6460  175.9540  135.4850 C   0  0  0  0  0  2  0  0  0  0  0  0
  185.9980  175.3350  136.8290 C   0  0  2  0  0  3  0  0  0  0  0  0
  188.9220  178.9320  137.6380 F   0  0  0  0  0  0  0  0  0  0  0  0
  186.6850  177.5010  138.3770 O   0  0  0  0  0  1  0  0  0  0  0  0
  187.4850  175.5050  137.2180 C   0  0  2  0  0  3  0  0  0  0  0  0
  188.7370  173.6970  136.2480 O   0  0  0  0  0  1  0  0  0  0  0  0
  189.8550  177.2100  136.4960 O   0  0  0  0  0  0  0  0  0  0  0  0
  188.6270  177.7720  136.9470 C   0  0  0  0  0  0  0  0  0  0  0  0
  189.8960  175.7860  136.4670 C   0  0  2  0  0  3  0  0  0  0  0  0
  188.1560  175.4130  134.8840 O   0  0  0  0  0  1  0  0  0  0  0  0
  187.8200  176.8540  137.8810 C   0  0  1  0  0  3  0  0  0  0  0  0
  188.5540  175.0790  136.1810 C   0  0  0  0  0  0  0  0  0  0  0  0
  187.8600  178.1180  135.8480 F   0  0  0  0  0  0  0  0  0  0  0  0
  190.6540  175.2360  137.6410 C   0  0  0  0  0  0  0  0  0  0  0  0
  190.7250  175.9690  138.8160 O   0  0  0  0  0  1  0  0  0  0  0  0
  191.2420  174.1260  137.5630 O   0  0  0  0  0  0  0  0  0  0  0  0
  186.4260  172.7190  137.9690 O   0  0  0  0  0  1  0  0  0  0  0  0
  185.4450  172.9080  135.4030 O   0  0  0  0  0  0  0  0  0  0  0  0
  185.4190  173.6090  136.9430 P   0  0  0  0  0  0  0  0  0  0  0  0
  184.0040  173.5800  137.4730 O   0  0  0  0  0  1  0  0  0  0  0  0
  183.6340  176.9250  136.5440 C   0  0  1  0  0  3  0  0  0  0  0  0
  183.5710  177.8760  137.7340 C   0  0  2  0  0  3  0  0  0  0  0  0
  180.5380  175.0240  140.1790 O   0  0  0  0  0  0  0  0  0  0  0  0
  181.6120  178.4590  139.5950 C   0  0  1  0  0  0  0  0  0  0  0  0
  182.5260  175.7930  139.1040 C   0  0  0  0  0  2  0  0  0  0  0  0
  180.9250  179.6750  139.4820 O   0  0  0  0  0  0  0  0  0  0  0  0
  181.1520  175.9860  139.7490 C   0  0  0  0  0  0  0  0  0  0  0  0
  180.5210  177.3820  139.7910 C   0  0  0  0  0  2  0  0  0  0  0  0
  181.8550  179.4240  138.4690 C   0  0  2  0  0  3  0  0  0  0  0  0
  183.2190  177.1660  139.0020 C   0  0  2  0  0  3  0  0  0  0  0  0
  182.1420  177.9690  138.2480 C   0  0  2  0  0  0  0  0  0  0  0  0
  182.3150  176.9260  135.7600 C   0  0  2  0  0  3  0  0  0  0  0  0
  180.7050  173.6510  135.3400 N   0  0  0  0  0  0  0  0  0  0  0  0
  181.7880  173.4840  134.5940 N   0  0  0  0  0  0  0  0  0  0  0  0
  180.7460  174.8970  135.8350 C   0  0  2  0  0  3  0  0  0  0  0  0
  182.5260  174.6160  134.6040 C   0  0  0  0  0  3  0  0  0  0  0  0
  181.8690  175.5440  135.3910 C   0  0  0  0  0  0  0  0  0  0  0  0
  179.7600  175.4370  136.7070 N   0  0  0  0  0  1  0  0  0  0  0  0
  182.2750  177.8840  134.5990 C   0  0  0  0  0  3  0  0  0  0  0  0
  181.7600  178.9870  134.7020 O   0  0  0  0  0  0  0  0  0  0  0  0
  2  1  1  0  0  0  0
  3  2  1  6  0  0  0
  3 20  1  0  0  0  0
  6  3  1  6  0  0  0
  6 12  1  0  0  0  0
  8  9  1  0  0  0  0
  9  4  1  0  0  0  0
  9 12  1  0  0  0  0
 10  8  1  0  0  0  0
 10 15  1  1  0  0  0
 11 13  1  0  0  0  0
 12  5  1  6  0  0  0
 13  7  1  0  0  0  0
 13 10  1  0  0  0  0
 13  6  1  0  0  0  0
 14  9  1  0  0  0  0
 15 16  1  0  0  0  0
 17 15  2  0  0  0  0
 19 20  2  0  0  0  0
 20 21  1  0  0  0  0
 20 18  1  0  0  0  0
 22  1  1  6  0  0  0
 23 22  1  6  0  0  0
 23 32  1  0  0  0  0
 23 31  1  0  0  0  0
 25 29  1  6  0  0  0
 26 28  1  0  0  0  0
 27 25  1  0  0  0  0
 28 29  1  0  0  0  0
 28 24  2  0  0  0  0
 30 27  1  6  0  0  0
 30 25  1  0  0  0  0
 31 26  1  6  0  0  0
 32 30  1  0  0  0  0
 32 31  1  0  0  0  0
 32 25  1  0  0  0  0
 33 22  1  0  0  0  0
 34 36  1  0  0  0  0
 35 37  1  0  0  0  0
 35 34  2  0  0  0  0
 36 39  1  0  0  0  0
 37 38  2  0  0  0  0
 38 33  1  0  0  0  0
 38 36  1  0  0  0  0
 40 41  2  0  0  0  0
 40 33  1  0  0  0  0
M  END
>  <MODEL>
7

>  <REMARK>
 VINA RESULT:      -6.5      6.635      9.486
  Name = 
  10 active torsions:
  status: ('A' for Active; 'I' for Inactive)
    1  A    between atoms: C_2  and  C_35
    2  A    between atoms: C_5  and  C_9
    3  A    between atoms: C_5  and  C_14
    4  A    between atoms: C_6  and  C_29
    5  A    between atoms: C_9  and  C_35
    6  A    between atoms: C_12  and  C_14
    7  A    between atoms: C_14  and  P_24
    8  A    between atoms: C_19  and  C_23
    9  A    between atoms: C_23  and  C_33
   10  A    between atoms: C_23  and  C_35
                            x       y       z     vdW  Elec       q    Type
                         _______ _______ _______ _____ _____    ______ ____

>  <TORSDO>
F 10

$$$$
=
 OpenBabel11062415163D

 41 46  0  0  1  0  0  0  0  0999 V2000
  187.1760  177.7590  141.2930 C   0  0  0  0  0  2  0  0  0  0  0  0
  186.1220  178.6290  140.6430 C   0  0  0  0  0  2  0  0  0  0  0  0
  184.7340  178.2510  141.1360 C   0  0  2  0  0  3  0  0  0  0  0  0
  181.9640  175.7560  138.2630 F   0  0  0  0  0  0  0  0  0  0  0  0
  182.7280  176.3930  140.8330 O   0  0  0  0  0  1  0  0  0  0  0  0
  183.6110  178.5560  140.1160 C   0  0  2  0  0  3  0  0  0  0  0  0
  184.0720  180.6800  139.0900 O   0  0  0  0  0  1  0  0  0  0  0  0
  182.7210  177.7000  137.3740 O   0  0  0  0  0  0  0  0  0  0  0  0
  182.8850  176.7720  138.4420 C   0  0  0  0  0  0  0  0  0  0  0  0
  182.9530  179.0630  137.7150 C   0  0  2  0  0  3  0  0  0  0  0  0
  185.2430  178.8870  138.3460 O   0  0  0  0  0  1  0  0  0  0  0  0
  182.6630  177.3740  139.8400 C   0  0  1  0  0  3  0  0  0  0  0  0
  184.0000  179.3120  138.8230 C   0  0  0  0  0  0  0  0  0  0  0  0
  184.1490  176.2150  138.3630 F   0  0  0  0  0  0  0  0  0  0  0  0
  181.6630  179.8100  137.8980 C   0  0  0  0  0  0  0  0  0  0  0  0
  180.5830  179.1780  138.4970 O   0  0  0  0  0  1  0  0  0  0  0  0
  181.5440  180.9970  137.4950 O   0  0  0  0  0  0  0  0  0  0  0  0
  184.9140  177.8510  143.9880 O   0  0  0  0  0  1  0  0  0  0  0  0
  182.7410  179.2010  142.9680 O   0  0  0  0  0  1  0  0  0  0  0  0
  184.4030  178.9340  142.7940 P   0  0  0  0  0  0  0  0  0  0  0  0
  185.1320  180.2480  142.9580 O   0  0  0  0  0  0  0  0  0  0  0  0
  188.5410  178.1250  140.7290 C   0  0  1  0  0  3  0  0  0  0  0  0
  189.6360  177.2790  141.3670 C   0  0  2  0  0  3  0  0  0  0  0  0
  187.6590  177.5740  145.7620 O   0  0  0  0  0  0  0  0  0  0  0  0
  190.7680  177.2270  143.8890 C   0  0  1  0  0  0  0  0  0  0  0  0
  187.9470  177.0080  143.4600 C   0  0  0  0  0  2  0  0  0  0  0  0
  192.0540  177.7570  144.0550 O   0  0  0  0  0  0  0  0  0  0  0  0
  188.4430  177.4610  144.8350 C   0  0  0  0  0  0  0  0  0  0  0  0
  189.9170  177.8380  145.0260 C   0  0  0  0  0  2  0  0  0  0  0  0
  191.5250  177.8770  142.7660 C   0  0  2  0  0  3  0  0  0  0  0  0
  189.1640  176.5940  142.6100 C   0  0  2  0  0  3  0  0  0  0  0  0
  190.0260  177.8670  142.7150 C   0  0  2  0  0  0  0  0  0  0  0  0
  188.6010  178.0480  139.1970 C   0  0  2  0  0  3  0  0  0  0  0  0
  189.8090  174.8970  137.7460 N   0  0  0  0  0  0  0  0  0  0  0  0
  190.8860  175.2820  138.4160 N   0  0  0  0  0  2  0  0  0  0  0  0
  188.8680  175.8360  137.9240 C   0  0  0  0  0  0  0  0  0  0  0  0
  190.6440  176.4640  139.0250 C   0  0  0  0  0  3  0  0  0  0  0  0
  189.3520  176.8450  138.7130 C   0  0  0  0  0  0  0  0  0  0  0  0
  187.5580  175.7610  137.3730 N   0  0  0  0  0  1  0  0  0  0  0  0
  189.0350  179.3210  138.5210 C   0  0  0  0  0  3  0  0  0  0  0  0
  188.9210  179.4710  137.3140 O   0  0  0  0  0  0  0  0  0  0  0  0
  2  1  1  0  0  0  0
  3  2  1  6  0  0  0
  3 20  1  0  0  0  0
  4  9  1  0  0  0  0
  6  3  1  6  0  0  0
  8 10  1  0  0  0  0
  8  9  1  0  0  0  0
  9 12  1  0  0  0  0
 10 15  1  1  0  0  0
 10 13  1  0  0  0  0
 11 13  1  0  0  0  0
 12  6  1  0  0  0  0
 12  5  1  1  0  0  0
 13  7  1  0  0  0  0
 13  6  1  0  0  0  0
 14  9  1  0  0  0  0
 15 16  1  0  0  0  0
 17 15  2  0  0  0  0
 20 21  2  0  0  0  0
 20 19  1  0  0  0  0
 20 18  1  0  0  0  0
 22  1  1  1  0  0  0
 23 22  1  6  0  0  0
 23 31  1  0  0  0  0
 23 32  1  0  0  0  0
 25 27  1  0  0  0  0
 25 29  1  1  0  0  0
 26 28  1  0  0  0  0
 28 29  1  0  0  0  0
 28 24  2  0  0  0  0
 30 25  1  0  0  0  0
 30 27  1  1  0  0  0
 31 32  1  0  0  0  0
 31 26  1  6  0  0  0
 32 30  1  0  0  0  0
 32 25  1  0  0  0  0
 33 22  1  0  0  0  0
 34 36  2  0  0  0  0
 34 35  1  0  0  0  0
 35 37  1  0  0  0  0
 36 38  1  0  0  0  0
 38 37  2  0  0  0  0
 38 33  1  0  0  0  0
 39 36  1  0  0  0  0
 40 33  1  0  0  0  0
 41 40  2  0  0  0  0
M  END
>  <MODEL>
8

>  <REMARK>
 VINA RESULT:      -6.4      2.350      3.282
  Name = 
  10 active torsions:
  status: ('A' for Active; 'I' for Inactive)
    1  A    between atoms: C_2  and  C_35
    2  A    between atoms: C_5  and  C_9
    3  A    between atoms: C_5  and  C_14
    4  A    between atoms: C_6  and  C_29
    5  A    between atoms: C_9  and  C_35
    6  A    between atoms: C_12  and  C_14
    7  A    between atoms: C_14  and  P_24
    8  A    between atoms: C_19  and  C_23
    9  A    between atoms: C_23  and  C_33
   10  A    between atoms: C_23  and  C_35
                            x       y       z     vdW  Elec       q    Type
                         _______ _______ _______ _____ _____    ______ ____

>  <TORSDO>
F 10

$$$$
=
 OpenBabel11062415163D

 41 46  0  0  1  0  0  0  0  0999 V2000
  185.2240  178.4650  138.5350 C   0  0  0  0  0  2  0  0  0  0  0  0
  185.1490  177.5570  137.3250 C   0  0  0  0  0  2  0  0  0  0  0  0
  185.9340  176.2760  137.5660 C   0  0  2  0  0  3  0  0  0  0  0  0
  189.9530  178.6330  138.2280 F   0  0  0  0  0  0  0  0  0  0  0  0
  188.0730  176.8630  139.1920 O   0  0  0  0  0  1  0  0  0  0  0  0
  187.3450  176.2870  136.9320 C   0  0  2  0  0  3  0  0  0  0  0  0
  187.1340  175.7660  134.5950 O   0  0  0  0  0  1  0  0  0  0  0  0
  189.4390  178.2590  136.0520 O   0  0  0  0  0  0  0  0  0  0  0  0
  188.9350  178.2320  137.3840 C   0  0  0  0  0  0  0  0  0  0  0  0
  188.9230  177.2500  135.1890 C   0  0  2  0  0  3  0  0  0  0  0  0
  186.6260  177.8790  135.2420 O   0  0  0  0  0  1  0  0  0  0  0  0
  188.4500  176.8470  137.8470 C   0  0  1  0  0  3  0  0  0  0  0  0
  187.4750  176.7940  135.4750 C   0  0  0  0  0  0  0  0  0  0  0  0
  187.9070  179.1530  137.4930 F   0  0  0  0  0  0  0  0  0  0  0  0
  189.9060  176.1300  135.0050 C   0  0  0  0  0  0  0  0  0  0  0  0
  189.4570  174.8830  134.5940 O   0  0  0  0  0  0  0  0  0  0  0  0
  191.1300  176.3040  135.2400 O   0  0  0  0  0  1  0  0  0  0  0  0
  185.9850  173.4990  136.7850 O   0  0  0  0  0  1  0  0  0  0  0  0
  184.0290  175.1370  135.7490 O   0  0  0  0  0  0  0  0  0  0  0  0
  184.9590  174.8000  137.1210 P   0  0  0  0  0  0  0  0  0  0  0  0
  184.0380  174.4350  138.2630 O   0  0  0  0  0  1  0  0  0  0  0  0
  184.2370  177.9750  139.5840 C   0  0  1  0  0  3  0  0  0  0  0  0
  184.0700  179.0070  140.6940 C   0  0  2  0  0  3  0  0  0  0  0  0
  187.8900  177.3640  143.1470 O   0  0  0  0  0  0  0  0  0  0  0  0
  184.6380  178.9930  143.4000 C   0  0  1  0  0  0  0  0  0  0  0  0
  186.5970  178.3700  141.4100 C   0  0  0  0  0  2  0  0  0  0  0  0
  183.5740  178.8800  144.3040 O   0  0  0  0  0  0  0  0  0  0  0  0
  186.8270  177.8750  142.8390 C   0  0  0  0  0  0  0  0  0  0  0  0
  185.6910  177.9610  143.8660 C   0  0  0  0  0  2  0  0  0  0  0  0
  183.2140  178.8160  142.9550 C   0  0  2  0  0  3  0  0  0  0  0  0
  185.3580  179.2860  141.3990 C   0  0  2  0  0  3  0  0  0  0  0  0
  184.3150  178.3560  142.0470 C   0  0  2  0  0  0  0  0  0  0  0  0
  182.8800  177.5690  138.9930 C   0  0  2  0  0  3  0  0  0  0  0  0
  181.0300  180.2030  137.2230 N   0  0  0  0  0  0  0  0  0  0  0  0
  181.0170  180.6880  138.4570 N   0  0  0  0  0  2  0  0  0  0  0  0
  181.6770  179.0300  137.2590 C   0  0  0  0  0  0  0  0  0  0  0  0
  181.6510  179.8320  139.2880 C   0  0  0  0  0  3  0  0  0  0  0  0
  182.0770  178.7510  138.5390 C   0  0  0  0  0  0  0  0  0  0  0  0
  181.9140  178.2190  136.1140 N   0  0  0  0  0  1  0  0  0  0  0  0
  182.0850  176.6130  139.8420 C   0  0  0  0  0  3  0  0  0  0  0  0
  181.2090  175.9110  139.3610 O   0  0  0  0  0  0  0  0  0  0  0  0
  2  1  1  0  0  0  0
  3  2  1  6  0  0  0
  6  3  1  1  0  0  0
  6 12  1  0  0  0  0
  7 13  1  0  0  0  0
  8  9  1  0  0  0  0
  9 14  1  0  0  0  0
  9 12  1  0  0  0  0
  9  4  1  0  0  0  0
 10 15  1  1  0  0  0
 10 13  1  0  0  0  0
 10  8  1  0  0  0  0
 11 13  1  0  0  0  0
 12  5  1  1  0  0  0
 13  6  1  0  0  0  0
 15 17  1  0  0  0  0
 16 15  2  0  0  0  0
 18 20  1  0  0  0  0
 19 20  2  0  0  0  0
 20  3  1  0  0  0  0
 20 21  1  0  0  0  0
 22  1  1  6  0  0  0
 23 22  1  6  0  0  0
 23 31  1  0  0  0  0
 23 32  1  0  0  0  0
 25 29  1  1  0  0  0
 25 27  1  0  0  0  0
 26 28  1  0  0  0  0
 28 24  2  0  0  0  0
 28 29  1  0  0  0  0
 30 25  1  0  0  0  0
 30 27  1  1  0  0  0
 31 26  1  6  0  0  0
 31 32  1  0  0  0  0
 32 30  1  0  0  0  0
 32 25  1  0  0  0  0
 33 22  1  0  0  0  0
 33 40  1  0  0  0  0
 34 36  2  0  0  0  0
 34 35  1  0  0  0  0
 35 37  1  0  0  0  0
 36 38  1  0  0  0  0
 38 33  1  0  0  0  0
 38 37  2  0  0  0  0
 39 36  1  0  0  0  0
 41 40  2  0  0  0  0
M  END
>  <MODEL>
9

>  <REMARK>
 VINA RESULT:      -6.4      4.940      7.695
  Name = 
  10 active torsions:
  status: ('A' for Active; 'I' for Inactive)
    1  A    between atoms: C_2  and  C_35
    2  A    between atoms: C_5  and  C_9
    3  A    between atoms: C_5  and  C_14
    4  A    between atoms: C_6  and  C_29
    5  A    between atoms: C_9  and  C_35
    6  A    between atoms: C_12  and  C_14
    7  A    between atoms: C_14  and  P_24
    8  A    between atoms: C_19  and  C_23
    9  A    between atoms: C_23  and  C_33
   10  A    between atoms: C_23  and  C_35
                            x       y       z     vdW  Elec       q    Type
                         _______ _______ _______ _____ _____    ______ ____

>  <TORSDO>
F 10

$$$$
