=
 OpenBabel11062416023D

 36 39  0  0  1  0  0  0  0  0999 V2000
  183.1780  178.8450  139.5180 C   0  0  1  0  0  3  0  0  0  0  0  0
  185.3970  178.5220  143.9120 N   0  0  0  0  0  2  0  0  0  0  0  0
  186.6390  178.5020  143.2530 N   0  0  0  0  0  0  0  0  0  0  0  0
  181.7970  178.7700  141.6750 C   0  0  0  0  0  0  0  0  0  0  0  0
  184.1760  178.5950  143.1700 C   0  0  0  0  0  0  0  0  0  0  0  0
  185.5300  178.6380  141.1570 N   0  0  0  0  0  2  0  0  0  0  0  0
  182.9450  178.5990  143.8200 C   0  0  0  0  0  3  0  0  0  0  0  0
  184.2380  178.6760  141.7790 C   0  0  0  0  0  0  0  0  0  0  0  0
  181.7590  178.6800  143.0910 C   0  0  0  0  0  0  0  0  0  0  0  0
  186.7200  178.5550  141.9540 C   0  0  0  0  0  0  0  0  0  0  0  0
  183.0590  178.7740  141.0180 C   0  0  0  0  0  0  0  0  0  0  0  0
  188.0520  178.4900  141.2950 C   0  0  0  0  0  1  0  0  0  0  0  0
  180.4840  178.6720  143.8680 C   0  0  0  0  0  1  0  0  0  0  0  0
  180.5340  178.8940  140.8470 C   0  0  1  0  0  3  0  0  0  0  0  0
  179.8620  177.5640  140.4830 C   0  0  1  0  0  3  0  0  0  0  0  0
  179.0970  177.6750  138.8790 Cl  0  0  0  0  0  0  0  0  0  0  0  0
  180.8030  176.5530  140.4500 F   0  0  0  0  0  0  0  0  0  0  0  0
  179.5700  179.9590  141.3770 C   0  0  0  0  0  2  0  0  0  0  0  0
  179.9440  181.2330  140.9540 O   0  0  0  0  0  1  0  0  0  0  0  0
  183.4900  180.1690  139.0940 O   0  0  0  0  0  0  0  0  0  0  0  0
  182.5350  181.0320  138.5540 C   0  0  0  0  0  0  0  0  0  0  0  0
  182.6860  182.2740  138.6790 O   0  0  0  0  0  0  0  0  0  0  0  0
  181.3570  180.5170  137.7970 C   0  0  0  0  0  1  0  0  0  0  0  0
  184.1960  177.8300  138.9960 C   0  0  0  0  0  2  0  0  0  0  0  0
  183.5770  176.8420  134.8880 C   0  0  0  0  0  3  0  0  0  0  0  0
  185.1030  177.3890  136.6390 C   0  0  0  0  0  0  0  0  0  0  0  0
  184.0190  177.5620  137.5340 C   0  0  0  0  0  0  0  0  0  0  0  0
  182.4860  177.0310  135.7370 C   0  0  0  0  0  3  0  0  0  0  0  0
  184.8440  177.0200  135.3510 N   0  0  0  0  0  0  0  0  0  0  0  0
  182.7140  177.3840  137.0650 C   0  0  0  0  0  3  0  0  0  0  0  0
  187.1170  178.7910  136.9410 N   0  0  0  0  0  0  0  0  0  0  0  0
  186.5140  177.5740  137.0470 C   0  0  0  0  0  0  0  0  0  0  0  0
  188.6060  176.6450  137.8420 C   0  0  0  0  0  3  0  0  0  0  0  0
  187.2620  176.4750  137.4930 C   0  0  0  0  0  3  0  0  0  0  0  0
  189.1970  177.9040  137.7320 C   0  0  0  0  0  3  0  0  0  0  0  0
  188.4280  178.9770  137.2720 C   0  0  0  0  0  3  0  0  0  0  0  0
  1 24  1  1  0  0  0
  1 11  1  0  0  0  0
  3  2  1  0  0  0  0
  4  9  1  0  0  0  0
  5  7  1  0  0  0  0
  5  2  1  0  0  0  0
  6  8  1  0  0  0  0
  6 10  1  0  0  0  0
  8  5  2  0  0  0  0
  9  7  2  0  0  0  0
  9 13  1  0  0  0  0
 10  3  2  0  0  0  0
 11  4  2  0  0  0  0
 11  8  1  0  0  0  0
 12 10  1  0  0  0  0
 14 18  1  1  0  0  0
 14  4  1  0  0  0  0
 15 16  1  6  0  0  0
 15 14  1  0  0  0  0
 17 15  1  0  0  0  0
 19 18  1  0  0  0  0
 20  1  1  0  0  0  0
 21 22  2  0  0  0  0
 21 20  1  0  0  0  0
 23 21  1  0  0  0  0
 25 29  2  0  0  0  0
 25 28  1  0  0  0  0
 26 32  1  0  0  0  0
 26 27  2  0  0  0  0
 27 24  1  0  0  0  0
 28 30  2  0  0  0  0
 29 26  1  0  0  0  0
 30 27  1  0  0  0  0
 31 32  2  0  0  0  0
 31 36  1  0  0  0  0
 32 34  1  0  0  0  0
 34 33  2  0  0  0  0
 35 33  1  0  0  0  0
 36 35  2  0  0  0  0
M  END
>  <MODEL>
1

>  <REMARK>
 VINA RESULT:      -6.4      0.000      0.000
  Name = 
  9 active torsions:
  status: ('A' for Active; 'I' for Inactive)
    1  A    between atoms: C_2  and  C_31
    2  A    between atoms: C_3  and  O_6
    3  A    between atoms: C_4  and  C_31
    4  A    between atoms: O_6  and  C_22
    5  A    between atoms: C_7  and  C_10
    6  A    between atoms: C_11  and  C_33
    7  A    between atoms: C_13  and  C_31
    8  A    between atoms: C_22  and  C_28
    9  A    between atoms: C_22  and  C_33
                            x       y       z     vdW  Elec       q    Type
                         _______ _______ _______ _____ _____    ______ ____

>  <TORSDO>
F 9

$$$$
=
 OpenBabel11062416023D

 36 39  0  0  1  0  0  0  0  0999 V2000
  184.0630  178.4060  139.5450 C   0  0  1  0  0  3  0  0  0  0  0  0
  186.4640  177.0660  135.4500 N   0  0  0  0  0  2  0  0  0  0  0  0
  187.5820  177.7920  135.9000 N   0  0  0  0  0  0  0  0  0  0  0  0
  182.9170  176.9450  137.7800 C   0  0  0  0  0  0  0  0  0  0  0  0
  185.2590  177.0250  136.2200 C   0  0  0  0  0  0  0  0  0  0  0  0
  186.3830  178.4300  137.8490 N   0  0  0  0  0  2  0  0  0  0  0  0
  184.1470  176.3210  135.7680 C   0  0  0  0  0  3  0  0  0  0  0  0
  185.2200  177.6950  137.4430 C   0  0  0  0  0  0  0  0  0  0  0  0
  182.9790  176.2770  136.5290 C   0  0  0  0  0  0  0  0  0  0  0  0
  187.5600  178.4410  137.0280 C   0  0  0  0  0  0  0  0  0  0  0  0
  184.0600  177.6560  138.2390 C   0  0  0  0  0  0  0  0  0  0  0  0
  188.7500  179.2300  137.4490 C   0  0  0  0  0  1  0  0  0  0  0  0
  181.8320  175.5040  135.9660 C   0  0  0  0  0  1  0  0  0  0  0  0
  181.6800  176.8950  138.6530 C   0  0  1  0  0  3  0  0  0  0  0  0
  180.4370  177.5710  138.0600 C   0  0  1  0  0  3  0  0  0  0  0  0
  179.5420  178.4430  139.3280 Cl  0  0  0  0  0  0  0  0  0  0  0  0
  180.8130  178.4790  137.0870 F   0  0  0  0  0  0  0  0  0  0  0  0
  181.4160  175.5070  139.2430 C   0  0  0  0  0  2  0  0  0  0  0  0
  180.1100  175.0910  138.9900 O   0  0  0  0  0  1  0  0  0  0  0  0
  182.9770  179.3260  139.6080 O   0  0  0  0  0  0  0  0  0  0  0  0
  182.9780  180.5410  138.9210 C   0  0  0  0  0  0  0  0  0  0  0  0
  184.0730  181.0930  138.6480 O   0  0  0  0  0  0  0  0  0  0  0  0
  181.7090  181.1830  138.4690 C   0  0  0  0  0  1  0  0  0  0  0  0
  184.0580  177.4440  140.7330 C   0  0  0  0  0  2  0  0  0  0  0  0
  183.6370  179.7080  144.3300 C   0  0  0  0  0  3  0  0  0  0  0  0
  185.0710  178.5510  142.8130 C   0  0  0  0  0  0  0  0  0  0  0  0
  183.9480  178.1680  142.0390 C   0  0  0  0  0  0  0  0  0  0  0  0
  182.5080  179.3250  143.6050 C   0  0  0  0  0  3  0  0  0  0  0  0
  184.8770  179.3210  143.9230 N   0  0  0  0  0  0  0  0  0  0  0  0
  182.6700  178.5600  142.4530 C   0  0  0  0  0  3  0  0  0  0  0  0
  187.0760  178.7170  141.3760 N   0  0  0  0  0  0  0  0  0  0  0  0
  186.4560  178.1670  142.4570 C   0  0  0  0  0  0  0  0  0  0  0  0
  188.4140  176.7920  142.8390 C   0  0  0  0  0  3  0  0  0  0  0  0
  187.1200  177.1820  143.2010 C   0  0  0  0  0  3  0  0  0  0  0  0
  189.0300  177.3790  141.7320 C   0  0  0  0  0  3  0  0  0  0  0  0
  188.3360  178.3480  141.0030 C   0  0  0  0  0  3  0  0  0  0  0  0
  1 20  1  0  0  0  0
  1 24  1  1  0  0  0
  2  3  1  0  0  0  0
  2  5  1  0  0  0  0
  3 10  2  0  0  0  0
  4 11  1  0  0  0  0
  4 14  1  0  0  0  0
  5  8  1  0  0  0  0
  7  5  2  0  0  0  0
  7  9  1  0  0  0  0
  8  6  1  0  0  0  0
  8 11  2  0  0  0  0
  9  4  2  0  0  0  0
 10 12  1  0  0  0  0
 10  6  1  0  0  0  0
 11  1  1  0  0  0  0
 13  9  1  0  0  0  0
 14 18  1  6  0  0  0
 15 17  1  6  0  0  0
 15 14  1  0  0  0  0
 15 16  1  0  0  0  0
 19 18  1  0  0  0  0
 21 20  1  0  0  0  0
 22 21  2  0  0  0  0
 23 21  1  0  0  0  0
 24 27  1  0  0  0  0
 26 29  2  0  0  0  0
 27 30  2  0  0  0  0
 27 26  1  0  0  0  0
 28 25  2  0  0  0  0
 29 25  1  0  0  0  0
 30 28  1  0  0  0  0
 31 32  1  0  0  0  0
 32 26  1  0  0  0  0
 32 34  2  0  0  0  0
 33 34  1  0  0  0  0
 35 33  2  0  0  0  0
 36 31  2  0  0  0  0
 36 35  1  0  0  0  0
M  END
>  <MODEL>
2

>  <REMARK>
 VINA RESULT:      -6.1      1.788      5.440
  Name = 
  9 active torsions:
  status: ('A' for Active; 'I' for Inactive)
    1  A    between atoms: C_2  and  C_31
    2  A    between atoms: C_3  and  O_6
    3  A    between atoms: C_4  and  C_31
    4  A    between atoms: O_6  and  C_22
    5  A    between atoms: C_7  and  C_10
    6  A    between atoms: C_11  and  C_33
    7  A    between atoms: C_13  and  C_31
    8  A    between atoms: C_22  and  C_28
    9  A    between atoms: C_22  and  C_33
                            x       y       z     vdW  Elec       q    Type
                         _______ _______ _______ _____ _____    ______ ____

>  <TORSDO>
F 9

$$$$
=
 OpenBabel11062416023D

 36 39  0  0  1  0  0  0  0  0999 V2000
  190.0220  176.9550  137.8150 C   0  0  1  0  0  3  0  0  0  0  0  0
  187.7620  172.9100  136.1240 N   0  0  0  0  0  2  0  0  0  0  0  0
  186.5240  173.5080  136.4270 N   0  0  0  0  0  0  0  0  0  0  0  0
  191.3830  174.9740  136.9300 C   0  0  0  0  0  0  0  0  0  0  0  0
  188.9900  173.5900  136.4000 C   0  0  0  0  0  0  0  0  0  0  0  0
  187.6530  175.4290  137.2500 N   0  0  0  0  0  2  0  0  0  0  0  0
  190.2150  172.9940  136.1160 C   0  0  0  0  0  3  0  0  0  0  0  0
  188.9400  174.8720  136.9490 C   0  0  0  0  0  0  0  0  0  0  0  0
  191.4080  173.6660  136.3780 C   0  0  0  0  0  0  0  0  0  0  0  0
  186.4560  174.6940  136.9590 C   0  0  0  0  0  0  0  0  0  0  0  0
  190.1270  175.5800  137.2100 C   0  0  0  0  0  0  0  0  0  0  0  0
  185.1280  175.2730  137.3010 C   0  0  0  0  0  1  0  0  0  0  0  0
  192.6760  172.9500  136.0490 C   0  0  0  0  0  1  0  0  0  0  0  0
  192.6540  175.7530  137.1990 C   0  0  1  0  0  3  0  0  0  0  0  0
  193.5050  175.2290  138.3630 C   0  0  1  0  0  3  0  0  0  0  0  0
  194.9670  174.4220  137.7470 Cl  0  0  0  0  0  0  0  0  0  0  0  0
  193.8930  176.2790  139.1750 F   0  0  0  0  0  0  0  0  0  0  0  0
  193.4530  176.0580  135.9280 C   0  0  0  0  0  2  0  0  0  0  0  0
  194.3960  177.0590  136.1540 O   0  0  0  0  0  1  0  0  0  0  0  0
  189.6400  177.9160  136.8350 O   0  0  0  0  0  0  0  0  0  0  0  0
  188.6680  178.8900  137.0710 C   0  0  0  0  0  0  0  0  0  0  0  0
  188.9730  179.9180  137.7260 O   0  0  0  0  0  0  0  0  0  0  0  0
  187.2830  178.7570  136.5310 C   0  0  0  0  0  1  0  0  0  0  0  0
  189.0700  176.9600  139.0120 C   0  0  0  0  0  2  0  0  0  0  0  0
  191.1160  177.9150  142.6360 C   0  0  0  0  0  3  0  0  0  0  0  0
  189.0700  177.8680  141.4110 C   0  0  0  0  0  0  0  0  0  0  0  0
  189.7590  177.3810  140.2730 C   0  0  0  0  0  0  0  0  0  0  0  0
  191.8300  177.4620  141.5260 C   0  0  0  0  0  3  0  0  0  0  0  0
  189.7710  178.1030  142.5580 N   0  0  0  0  0  0  0  0  0  0  0  0
  191.1430  177.1880  140.3460 C   0  0  0  0  0  3  0  0  0  0  0  0
  186.9830  178.6060  140.3100 N   0  0  0  0  0  0  0  0  0  0  0  0
  187.6100  178.1150  141.4160 C   0  0  0  0  0  0  0  0  0  0  0  0
  185.4970  178.1730  142.5990 C   0  0  0  0  0  3  0  0  0  0  0  0
  186.8690  177.9010  142.5860 C   0  0  0  0  0  3  0  0  0  0  0  0
  184.8770  178.6660  141.4500 C   0  0  0  0  0  3  0  0  0  0  0  0
  185.6460  178.8820  140.3030 C   0  0  0  0  0  3  0  0  0  0  0  0
  1 24  1  1  0  0  0
  2  5  1  0  0  0  0
  2  3  1  0  0  0  0
  3 10  2  0  0  0  0
  4 14  1  0  0  0  0
  4 11  1  0  0  0  0
  5  8  1  0  0  0  0
  7  9  1  0  0  0  0
  7  5  2  0  0  0  0
  8 11  2  0  0  0  0
  8  6  1  0  0  0  0
  9  4  2  0  0  0  0
 10  6  1  0  0  0  0
 10 12  1  0  0  0  0
 11  1  1  0  0  0  0
 13  9  1  0  0  0  0
 14 18  1  6  0  0  0
 14 15  1  0  0  0  0
 15 16  1  6  0  0  0
 15 17  1  0  0  0  0
 18 19  1  0  0  0  0
 20 21  1  0  0  0  0
 20  1  1  0  0  0  0
 21 22  2  0  0  0  0
 23 21  1  0  0  0  0
 24 27  1  0  0  0  0
 26 32  1  0  0  0  0
 26 29  2  0  0  0  0
 27 30  2  0  0  0  0
 27 26  1  0  0  0  0
 28 25  2  0  0  0  0
 29 25  1  0  0  0  0
 30 28  1  0  0  0  0
 31 32  1  0  0  0  0
 32 34  2  0  0  0  0
 34 33  1  0  0  0  0
 35 33  2  0  0  0  0
 36 31  2  0  0  0  0
 36 35  1  0  0  0  0
M  END
>  <MODEL>
3

>  <REMARK>
 VINA RESULT:      -6.1      5.158      9.645
  Name = 
  9 active torsions:
  status: ('A' for Active; 'I' for Inactive)
    1  A    between atoms: C_2  and  C_31
    2  A    between atoms: C_3  and  O_6
    3  A    between atoms: C_4  and  C_31
    4  A    between atoms: O_6  and  C_22
    5  A    between atoms: C_7  and  C_10
    6  A    between atoms: C_11  and  C_33
    7  A    between atoms: C_13  and  C_31
    8  A    between atoms: C_22  and  C_28
    9  A    between atoms: C_22  and  C_33
                            x       y       z     vdW  Elec       q    Type
                         _______ _______ _______ _____ _____    ______ ____

>  <TORSDO>
F 9

$$$$
=
 OpenBabel11062416023D

 36 39  0  0  1  0  0  0  0  0999 V2000
  183.4440  178.7260  139.6170 C   0  0  1  0  0  3  0  0  0  0  0  0
  186.8480  176.7350  136.6540 N   0  0  0  0  0  2  0  0  0  0  0  0
  187.8480  177.2920  137.4730 N   0  0  0  0  0  0  0  0  0  0  0  0
  182.7490  177.3630  137.5620 C   0  0  0  0  0  0  0  0  0  0  0  0
  185.4630  176.9470  136.9430 C   0  0  0  0  0  0  0  0  0  0  0  0
  186.1760  178.2500  138.8620 N   0  0  0  0  0  2  0  0  0  0  0  0
  184.4730  176.4110  136.1250 C   0  0  0  0  0  3  0  0  0  0  0  0
  185.1180  177.6940  138.0700 C   0  0  0  0  0  0  0  0  0  0  0  0
  183.1250  176.6130  136.4180 C   0  0  0  0  0  0  0  0  0  0  0  0
  187.5480  178.0100  138.5170 C   0  0  0  0  0  0  0  0  0  0  0  0
  183.7660  177.9020  138.3980 C   0  0  0  0  0  0  0  0  0  0  0  0
  188.6350  178.6150  139.3340 C   0  0  0  0  0  1  0  0  0  0  0  0
  182.1300  176.0060  135.4840 C   0  0  0  0  0  1  0  0  0  0  0  0
  181.2960  177.5790  137.9360 C   0  0  1  0  0  3  0  0  0  0  0  0
  180.4600  178.3270  136.8900 C   0  0  1  0  0  3  0  0  0  0  0  0
  179.0830  179.1440  137.6670 Cl  0  0  0  0  0  0  0  0  0  0  0  0
  181.2360  179.2820  136.2600 F   0  0  0  0  0  0  0  0  0  0  0  0
  180.6250  176.3190  138.4890 C   0  0  0  0  0  2  0  0  0  0  0  0
  180.0630  176.5560  139.7430 O   0  0  0  0  0  1  0  0  0  0  0  0
  182.3890  179.6460  139.3480 O   0  0  0  0  0  0  0  0  0  0  0  0
  182.6140  180.9140  138.8100 C   0  0  0  0  0  0  0  0  0  0  0  0
  183.7940  181.3190  138.6580 O   0  0  0  0  0  0  0  0  0  0  0  0
  181.4850  181.7880  138.3740 C   0  0  0  0  0  1  0  0  0  0  0  0
  183.1230  177.8350  140.8170 C   0  0  0  0  0  2  0  0  0  0  0  0
  185.1750  178.9170  144.4020 C   0  0  0  0  0  3  0  0  0  0  0  0
  183.1290  178.8350  143.1790 C   0  0  0  0  0  0  0  0  0  0  0  0
  183.8150  178.3000  142.0610 C   0  0  0  0  0  0  0  0  0  0  0  0
  185.8860  178.4170  143.3100 C   0  0  0  0  0  3  0  0  0  0  0  0
  183.8320  179.1100  144.3150 N   0  0  0  0  0  0  0  0  0  0  0  0
  185.1970  178.1010  142.1420 C   0  0  0  0  0  3  0  0  0  0  0  0
  181.1270  180.0050  142.3200 N   0  0  0  0  0  0  0  0  0  0  0  0
  181.6710  179.0920  143.1730 C   0  0  0  0  0  0  0  0  0  0  0  0
  179.4700  178.7100  144.1130 C   0  0  0  0  0  3  0  0  0  0  0  0
  180.8430  178.4360  144.0950 C   0  0  0  0  0  3  0  0  0  0  0  0
  178.9380  179.6420  143.2220 C   0  0  0  0  0  3  0  0  0  0  0  0
  179.7920  180.2890  142.3250 C   0  0  0  0  0  3  0  0  0  0  0  0
  1 24  1  1  0  0  0
  2  5  1  0  0  0  0
  2  3  1  0  0  0  0
  3 10  2  0  0  0  0
  4 14  1  0  0  0  0
  4 11  1  0  0  0  0
  5  8  1  0  0  0  0
  7  9  1  0  0  0  0
  7  5  2  0  0  0  0
  8 11  2  0  0  0  0
  8  6  1  0  0  0  0
  9  4  2  0  0  0  0
 10  6  1  0  0  0  0
 10 12  1  0  0  0  0
 11  1  1  0  0  0  0
 13  9  1  0  0  0  0
 14 18  1  6  0  0  0
 15 17  1  1  0  0  0
 15 16  1  0  0  0  0
 15 14  1  0  0  0  0
 18 19  1  0  0  0  0
 20  1  1  0  0  0  0
 21 20  1  0  0  0  0
 22 21  2  0  0  0  0
 23 21  1  0  0  0  0
 24 27  1  0  0  0  0
 26 29  2  0  0  0  0
 27 30  2  0  0  0  0
 27 26  1  0  0  0  0
 28 25  2  0  0  0  0
 29 25  1  0  0  0  0
 30 28  1  0  0  0  0
 31 36  2  0  0  0  0
 31 32  1  0  0  0  0
 32 26  1  0  0  0  0
 32 34  2  0  0  0  0
 34 33  1  0  0  0  0
 35 33  2  0  0  0  0
 36 35  1  0  0  0  0
M  END
>  <MODEL>
4

>  <REMARK>
 VINA RESULT:      -6.0      1.958      6.352
  Name = 
  9 active torsions:
  status: ('A' for Active; 'I' for Inactive)
    1  A    between atoms: C_2  and  C_31
    2  A    between atoms: C_3  and  O_6
    3  A    between atoms: C_4  and  C_31
    4  A    between atoms: O_6  and  C_22
    5  A    between atoms: C_7  and  C_10
    6  A    between atoms: C_11  and  C_33
    7  A    between atoms: C_13  and  C_31
    8  A    between atoms: C_22  and  C_28
    9  A    between atoms: C_22  and  C_33
                            x       y       z     vdW  Elec       q    Type
                         _______ _______ _______ _____ _____    ______ ____

>  <TORSDO>
F 9

$$$$
=
 OpenBabel11062416023D

 36 39  0  0  1  0  0  0  0  0999 V2000
  182.3470  177.2600  139.5580 C   0  0  1  0  0  3  0  0  0  0  0  0
  183.8290  175.7810  135.0910 N   0  0  0  0  0  2  0  0  0  0  0  0
  184.5270  174.7240  135.7030 N   0  0  0  0  0  0  0  0  0  0  0  0
  181.6510  178.5520  137.4590 C   0  0  0  0  0  0  0  0  0  0  0  0
  183.0990  176.7280  135.8780 C   0  0  0  0  0  0  0  0  0  0  0  0
  183.8080  175.4820  137.8360 N   0  0  0  0  0  2  0  0  0  0  0  0
  182.4210  177.7840  135.2760 C   0  0  0  0  0  3  0  0  0  0  0  0
  183.0670  176.5680  137.2630 C   0  0  0  0  0  0  0  0  0  0  0  0
  181.7030  178.6970  136.0470 C   0  0  0  0  0  0  0  0  0  0  0  0
  184.5290  174.5690  136.9950 C   0  0  0  0  0  0  0  0  0  0  0  0
  182.3400  177.4660  138.0660 C   0  0  0  0  0  0  0  0  0  0  0  0
  185.3140  173.4620  137.6050 C   0  0  0  0  0  1  0  0  0  0  0  0
  181.0100  179.8020  135.3200 C   0  0  0  0  0  1  0  0  0  0  0  0
  180.8560  179.5020  138.3310 C   0  0  1  0  0  3  0  0  0  0  0  0
  181.2370  180.9810  138.1980 C   0  0  1  0  0  3  0  0  0  0  0  0
  180.0810  182.0020  139.0870 Cl  0  0  0  0  0  0  0  0  0  0  0  0
  182.4990  181.1920  138.7210 F   0  0  0  0  0  0  0  0  0  0  0  0
  179.3480  179.2370  138.2890 C   0  0  0  0  0  2  0  0  0  0  0  0
  179.0770  177.9190  137.9260 O   0  0  0  0  0  1  0  0  0  0  0  0
  182.0600  175.9030  139.8870 O   0  0  0  0  0  0  0  0  0  0  0  0
  180.7730  175.3670  139.8170 C   0  0  0  0  0  0  0  0  0  0  0  0
  180.5350  174.4420  138.9990 O   0  0  0  0  0  0  0  0  0  0  0  0
  179.6820  175.8370  140.7190 C   0  0  0  0  0  1  0  0  0  0  0  0
  183.6680  177.7230  140.1730 C   0  0  0  0  0  2  0  0  0  0  0  0
  183.0280  179.4260  144.0360 C   0  0  0  0  0  3  0  0  0  0  0  0
  184.5650  178.5880  142.4140 C   0  0  0  0  0  0  0  0  0  0  0  0
  183.4850  178.2470  141.5630 C   0  0  0  0  0  0  0  0  0  0  0  0
  181.9410  179.0780  143.2330 C   0  0  0  0  0  3  0  0  0  0  0  0
  184.2980  179.1810  143.6150 N   0  0  0  0  0  0  0  0  0  0  0  0
  182.1760  178.4950  141.9910 C   0  0  0  0  0  3  0  0  0  0  0  0
  186.5000  178.8650  140.9000 N   0  0  0  0  0  0  0  0  0  0  0  0
  185.9790  178.3470  142.0470 C   0  0  0  0  0  0  0  0  0  0  0  0
  188.1040  177.2680  142.4850 C   0  0  0  0  0  3  0  0  0  0  0  0
  186.7790  177.5260  142.8550 C   0  0  0  0  0  3  0  0  0  0  0  0
  188.6150  177.8190  141.3090 C   0  0  0  0  0  3  0  0  0  0  0  0
  187.7870  178.6210  140.5200 C   0  0  0  0  0  3  0  0  0  0  0  0
  1 20  1  0  0  0  0
  1 24  1  6  0  0  0
  2  3  1  0  0  0  0
  2  5  1  0  0  0  0
  3 10  2  0  0  0  0
  4 11  1  0  0  0  0
  4 14  1  0  0  0  0
  5  8  1  0  0  0  0
  7  5  2  0  0  0  0
  7  9  1  0  0  0  0
  8  6  1  0  0  0  0
  8 11  2  0  0  0  0
  9  4  2  0  0  0  0
 10 12  1  0  0  0  0
 10  6  1  0  0  0  0
 11  1  1  0  0  0  0
 13  9  1  0  0  0  0
 14 18  1  6  0  0  0
 15 14  1  0  0  0  0
 15 17  1  1  0  0  0
 15 16  1  0  0  0  0
 19 18  1  0  0  0  0
 21 20  1  0  0  0  0
 21 23  1  0  0  0  0
 22 21  2  0  0  0  0
 24 27  1  0  0  0  0
 26 29  2  0  0  0  0
 27 30  2  0  0  0  0
 27 26  1  0  0  0  0
 28 25  2  0  0  0  0
 29 25  1  0  0  0  0
 30 28  1  0  0  0  0
 31 32  1  0  0  0  0
 32 26  1  0  0  0  0
 32 34  2  0  0  0  0
 33 34  1  0  0  0  0
 35 33  2  0  0  0  0
 36 31  2  0  0  0  0
 36 35  1  0  0  0  0
M  END
>  <MODEL>
5

>  <REMARK>
 VINA RESULT:      -5.6      2.610      5.955
  Name = 
  9 active torsions:
  status: ('A' for Active; 'I' for Inactive)
    1  A    between atoms: C_2  and  C_31
    2  A    between atoms: C_3  and  O_6
    3  A    between atoms: C_4  and  C_31
    4  A    between atoms: O_6  and  C_22
    5  A    between atoms: C_7  and  C_10
    6  A    between atoms: C_11  and  C_33
    7  A    between atoms: C_13  and  C_31
    8  A    between atoms: C_22  and  C_28
    9  A    between atoms: C_22  and  C_33
                            x       y       z     vdW  Elec       q    Type
                         _______ _______ _______ _____ _____    ______ ____

>  <TORSDO>
F 9

$$$$
=
 OpenBabel11062416023D

 36 39  0  0  1  0  0  0  0  0999 V2000
  189.3370  177.4690  140.6760 C   0  0  1  0  0  3  0  0  0  0  0  0
  185.2070  178.6600  143.0970 N   0  0  0  0  0  2  0  0  0  0  0  0
  184.6130  178.9910  141.8650 N   0  0  0  0  0  0  0  0  0  0  0  0
  189.2200  177.2770  143.2280 C   0  0  0  0  0  0  0  0  0  0  0  0
  186.5620  178.2020  143.1560 C   0  0  0  0  0  0  0  0  0  0  0  0
  186.6280  178.4260  140.7410 N   0  0  0  0  0  2  0  0  0  0  0  0
  187.1560  177.8900  144.3750 C   0  0  0  0  0  3  0  0  0  0  0  0
  187.2760  178.0620  141.9670 C   0  0  0  0  0  0  0  0  0  0  0  0
  188.4740  177.4350  144.4250 C   0  0  0  0  0  0  0  0  0  0  0  0
  185.2690  178.8880  140.7450 C   0  0  0  0  0  0  0  0  0  0  0  0
  188.6020  177.5920  141.9850 C   0  0  0  0  0  0  0  0  0  0  0  0
  184.6170  179.2870  139.4690 C   0  0  0  0  0  1  0  0  0  0  0  0
  189.0340  177.1290  145.7750 C   0  0  0  0  0  1  0  0  0  0  0  0
  190.6410  176.7540  143.2340 C   0  0  1  0  0  3  0  0  0  0  0  0
  191.6690  177.6730  143.9050 C   0  0  1  0  0  3  0  0  0  0  0  0
  191.1610  179.3740  143.7700 Cl  0  0  0  0  0  0  0  0  0  0  0  0
  191.7820  177.3560  145.2460 F   0  0  0  0  0  0  0  0  0  0  0  0
  190.7400  175.2870  143.6600 C   0  0  0  0  0  2  0  0  0  0  0  0
  192.0540  174.9390  143.9690 O   0  0  0  0  0  1  0  0  0  0  0  0
  190.5950  176.8260  140.8550 O   0  0  0  0  0  0  0  0  0  0  0  0
  191.7040  177.1010  140.0520 C   0  0  0  0  0  0  0  0  0  0  0  0
  192.5950  177.8780  140.4790 O   0  0  0  0  0  0  0  0  0  0  0  0
  191.8770  176.4630  138.7150 C   0  0  0  0  0  1  0  0  0  0  0  0
  188.4820  176.7570  139.6280 C   0  0  0  0  0  2  0  0  0  0  0  0
  188.7310  178.6770  135.8220 C   0  0  0  0  0  3  0  0  0  0  0  0
  188.3370  176.6810  137.0680 C   0  0  0  0  0  0  0  0  0  0  0  0
  188.6330  177.3700  138.2700 C   0  0  0  0  0  0  0  0  0  0  0  0
  189.0540  179.3780  136.9850 C   0  0  0  0  0  3  0  0  0  0  0  0
  188.3810  177.3640  135.8870 N   0  0  0  0  0  0  0  0  0  0  0  0
  188.9960  178.7200  138.2100 C   0  0  0  0  0  3  0  0  0  0  0  0
  186.6660  174.8650  137.2180 N   0  0  0  0  0  0  0  0  0  0  0  0
  187.9610  175.2500  137.0390 C   0  0  0  0  0  0  0  0  0  0  0  0
  188.5990  172.9160  136.8990 C   0  0  0  0  0  3  0  0  0  0  0  0
  188.9520  174.2700  136.8870 C   0  0  0  0  0  3  0  0  0  0  0  0
  187.2630  172.5510  137.0740 C   0  0  0  0  0  3  0  0  0  0  0  0
  186.3010  173.5510  137.2370 C   0  0  0  0  0  3  0  0  0  0  0  0
  1 24  1  6  0  0  0
  1 20  1  0  0  0  0
  1 11  1  0  0  0  0
  2  5  1  0  0  0  0
  3  2  1  0  0  0  0
  4 14  1  0  0  0  0
  4  9  1  0  0  0  0
  5  7  1  0  0  0  0
  6 10  1  0  0  0  0
  6  8  1  0  0  0  0
  7  9  2  0  0  0  0
  8 11  1  0  0  0  0
  8  5  2  0  0  0  0
  9 13  1  0  0  0  0
 10  3  2  0  0  0  0
 11  4  2  0  0  0  0
 12 10  1  0  0  0  0
 14 18  1  1  0  0  0
 14 15  1  0  0  0  0
 15 16  1  1  0  0  0
 15 17  1  0  0  0  0
 18 19  1  0  0  0  0
 21 22  2  0  0  0  0
 21 20  1  0  0  0  0
 23 21  1  0  0  0  0
 25 29  2  0  0  0  0
 25 28  1  0  0  0  0
 26 27  2  0  0  0  0
 27 24  1  0  0  0  0
 28 30  2  0  0  0  0
 29 26  1  0  0  0  0
 30 27  1  0  0  0  0
 31 36  1  0  0  0  0
 32 26  1  0  0  0  0
 32 31  2  0  0  0  0
 33 35  1  0  0  0  0
 34 33  2  0  0  0  0
 34 32  1  0  0  0  0
 35 36  2  0  0  0  0
M  END
>  <MODEL>
6

>  <REMARK>
 VINA RESULT:      -5.6      5.035      7.394
  Name = 
  9 active torsions:
  status: ('A' for Active; 'I' for Inactive)
    1  A    between atoms: C_2  and  C_31
    2  A    between atoms: C_3  and  O_6
    3  A    between atoms: C_4  and  C_31
    4  A    between atoms: O_6  and  C_22
    5  A    between atoms: C_7  and  C_10
    6  A    between atoms: C_11  and  C_33
    7  A    between atoms: C_13  and  C_31
    8  A    between atoms: C_22  and  C_28
    9  A    between atoms: C_22  and  C_33
                            x       y       z     vdW  Elec       q    Type
                         _______ _______ _______ _____ _____    ______ ____

>  <TORSDO>
F 9

$$$$
=
 OpenBabel11062416023D

 36 39  0  0  1  0  0  0  0  0999 V2000
  182.7600  178.4630  138.7700 C   0  0  1  0  0  3  0  0  0  0  0  0
  179.2540  176.3920  141.5560 N   0  0  0  0  0  2  0  0  0  0  0  0
  179.3050  177.5130  142.4040 N   0  0  0  0  0  0  0  0  0  0  0  0
  181.8010  176.1650  138.1660 C   0  0  0  0  0  0  0  0  0  0  0  0
  180.1140  176.2980  140.4160 C   0  0  0  0  0  0  0  0  0  0  0  0
  181.0060  178.4650  141.0470 N   0  0  0  0  0  2  0  0  0  0  0  0
  180.0770  175.1830  139.5840 C   0  0  0  0  0  3  0  0  0  0  0  0
  180.9850  177.3530  140.1420 C   0  0  0  0  0  0  0  0  0  0  0  0
  180.9100  175.1020  138.4690 C   0  0  0  0  0  0  0  0  0  0  0  0
  180.1260  178.4990  142.1800 C   0  0  0  0  0  0  0  0  0  0  0  0
  181.8270  177.3050  139.0160 C   0  0  0  0  0  0  0  0  0  0  0  0
  180.1760  179.6470  143.1250 C   0  0  0  0  0  1  0  0  0  0  0  0
  180.8090  173.8680  137.6350 C   0  0  0  0  0  1  0  0  0  0  0  0
  182.6990  176.1330  136.9460 C   0  0  1  0  0  3  0  0  0  0  0  0
  183.8170  175.0840  136.9890 C   0  0  1  0  0  3  0  0  0  0  0  0
  185.2690  175.6920  136.1580 Cl  0  0  0  0  0  0  0  0  0  0  0  0
  184.1500  174.8030  138.3010 F   0  0  0  0  0  0  0  0  0  0  0  0
  181.9220  176.1670  135.6270 C   0  0  0  0  0  2  0  0  0  0  0  0
  182.2840  175.1040  134.8010 O   0  0  0  0  0  1  0  0  0  0  0  0
  182.0390  179.6180  138.3490 O   0  0  0  0  0  0  0  0  0  0  0  0
  181.1310  179.5950  137.2890 C   0  0  0  0  0  0  0  0  0  0  0  0
  181.5550  179.4210  136.1190 O   0  0  0  0  0  0  0  0  0  0  0  0
  179.6630  179.7350  137.5170 C   0  0  0  0  0  1  0  0  0  0  0  0
  183.6190  178.7500  140.0020 C   0  0  0  0  0  2  0  0  0  0  0  0
  187.7450  178.2520  139.0200 C   0  0  0  0  0  3  0  0  0  0  0  0
  186.0800  178.5680  140.6990 C   0  0  0  0  0  0  0  0  0  0  0  0
  185.0820  178.6550  139.6980 C   0  0  0  0  0  0  0  0  0  0  0  0
  186.7900  178.3610  138.0070 C   0  0  0  0  0  3  0  0  0  0  0  0
  187.3750  178.3540  140.3250 N   0  0  0  0  0  0  0  0  0  0  0  0
  185.4560  178.5540  138.3540 C   0  0  0  0  0  3  0  0  0  0  0  0
  184.8810  179.6020  142.5980 N   0  0  0  0  0  0  0  0  0  0  0  0
  185.7750  178.6800  142.1440 C   0  0  0  0  0  0  0  0  0  0  0  0
  186.1930  178.0070  144.4340 C   0  0  0  0  0  3  0  0  0  0  0  0
  186.4550  177.8720  143.0660 C   0  0  0  0  0  3  0  0  0  0  0  0
  185.2650  178.9530  144.8710 C   0  0  0  0  0  3  0  0  0  0  0  0
  184.6140  179.7530  143.9280 C   0  0  0  0  0  3  0  0  0  0  0  0
  1 11  1  0  0  0  0
  1 24  1  1  0  0  0
  2  3  1  0  0  0  0
  4  9  2  0  0  0  0
  4 11  1  0  0  0  0
  5  2  1  0  0  0  0
  6 10  1  0  0  0  0
  7  5  2  0  0  0  0
  8  5  1  0  0  0  0
  8  6  1  0  0  0  0
  9  7  1  0  0  0  0
 10  3  2  0  0  0  0
 10 12  1  0  0  0  0
 11  8  2  0  0  0  0
 13  9  1  0  0  0  0
 14 18  1  6  0  0  0
 14 15  1  0  0  0  0
 14  4  1  0  0  0  0
 15 16  1  6  0  0  0
 15 17  1  0  0  0  0
 19 18  1  0  0  0  0
 20  1  1  0  0  0  0
 21 23  1  0  0  0  0
 21 20  1  0  0  0  0
 22 21  2  0  0  0  0
 25 29  1  0  0  0  0
 26 32  1  0  0  0  0
 27 24  1  0  0  0  0
 27 26  1  0  0  0  0
 28 30  1  0  0  0  0
 28 25  2  0  0  0  0
 29 26  2  0  0  0  0
 30 27  2  0  0  0  0
 31 36  1  0  0  0  0
 32 31  2  0  0  0  0
 32 34  1  0  0  0  0
 33 35  1  0  0  0  0
 34 33  2  0  0  0  0
 36 35  2  0  0  0  0
M  END
>  <MODEL>
7

>  <REMARK>
 VINA RESULT:      -5.6      3.041      5.635
  Name = 
  9 active torsions:
  status: ('A' for Active; 'I' for Inactive)
    1  A    between atoms: C_2  and  C_31
    2  A    between atoms: C_3  and  O_6
    3  A    between atoms: C_4  and  C_31
    4  A    between atoms: O_6  and  C_22
    5  A    between atoms: C_7  and  C_10
    6  A    between atoms: C_11  and  C_33
    7  A    between atoms: C_13  and  C_31
    8  A    between atoms: C_22  and  C_28
    9  A    between atoms: C_22  and  C_33
                            x       y       z     vdW  Elec       q    Type
                         _______ _______ _______ _____ _____    ______ ____

>  <TORSDO>
F 9

$$$$
=
 OpenBabel11062416023D

 36 39  0  0  1  0  0  0  0  0999 V2000
  184.0270  178.5730  139.6390 C   0  0  1  0  0  3  0  0  0  0  0  0
  184.9940  178.3800  144.4720 N   0  0  0  0  0  2  0  0  0  0  0  0
  186.3410  178.1160  144.1650 N   0  0  0  0  0  0  0  0  0  0  0  0
  182.1580  178.9140  141.3580 C   0  0  0  0  0  0  0  0  0  0  0  0
  184.0260  178.5520  143.4330 C   0  0  0  0  0  0  0  0  0  0  0  0
  185.8280  178.1970  141.8470 N   0  0  0  0  0  2  0  0  0  0  0  0
  182.6900  178.7980  143.7360 C   0  0  0  0  0  3  0  0  0  0  0  0
  184.4470  178.4820  142.1050 C   0  0  0  0  0  0  0  0  0  0  0  0
  181.7530  178.9750  142.7170 C   0  0  0  0  0  0  0  0  0  0  0  0
  186.7510  178.0250  142.9320 C   0  0  0  0  0  0  0  0  0  0  0  0
  183.5270  178.6710  141.0570 C   0  0  0  0  0  0  0  0  0  0  0  0
  188.1760  177.7040  142.6500 C   0  0  0  0  0  1  0  0  0  0  0  0
  180.3420  179.2270  143.1320 C   0  0  0  0  0  1  0  0  0  0  0  0
  181.1800  179.1340  140.2220 C   0  0  1  0  0  3  0  0  0  0  0  0
  180.0290  178.1230  140.1510 C   0  0  1  0  0  3  0  0  0  0  0  0
  178.9670  178.4910  138.7700 Cl  0  0  0  0  0  0  0  0  0  0  0  0
  180.5310  176.8460  139.9870 F   0  0  0  0  0  0  0  0  0  0  0  0
  180.7420  180.5940  140.0800 C   0  0  0  0  0  2  0  0  0  0  0  0
  181.4890  181.2530  139.1050 O   0  0  0  0  0  1  0  0  0  0  0  0
  185.3900  178.9780  139.5500 O   0  0  0  0  0  0  0  0  0  0  0  0
  186.2290  178.5780  138.5080 C   0  0  0  0  0  0  0  0  0  0  0  0
  186.0130  179.0050  137.3460 O   0  0  0  0  0  0  0  0  0  0  0  0
  187.4010  177.6860  138.7480 C   0  0  0  0  0  1  0  0  0  0  0  0
  183.8170  177.1670  139.0760 C   0  0  0  0  0  2  0  0  0  0  0  0
  181.9460  177.2360  135.2380 C   0  0  0  0  0  3  0  0  0  0  0  0
  183.4960  176.1960  136.7240 C   0  0  0  0  0  0  0  0  0  0  0  0
  183.2430  177.1980  137.6930 C   0  0  0  0  0  0  0  0  0  0  0  0
  181.6940  178.2530  136.1600 C   0  0  0  0  0  3  0  0  0  0  0  0
  182.8250  176.2420  135.5360 N   0  0  0  0  0  0  0  0  0  0  0  0
  182.3420  178.2250  137.3920 C   0  0  0  0  0  3  0  0  0  0  0  0
  184.0230  173.9060  137.4910 N   0  0  0  0  0  0  0  0  0  0  0  0
  184.4460  175.0840  136.9530 C   0  0  0  0  0  0  0  0  0  0  0  0
  186.7090  174.2200  136.9250 C   0  0  0  0  0  3  0  0  0  0  0  0
  185.8080  175.2600  136.6710 C   0  0  0  0  0  3  0  0  0  0  0  0
  186.2480  173.0210  137.4680 C   0  0  0  0  0  3  0  0  0  0  0  0
  184.8870  172.8820  137.7500 C   0  0  0  0  0  3  0  0  0  0  0  0
  1 24  1  1  0  0  0
  1 11  1  0  0  0  0
  3  2  1  0  0  0  0
  4  9  1  0  0  0  0
  5  7  1  0  0  0  0
  5  2  1  0  0  0  0
  6  8  1  0  0  0  0
  6 10  1  0  0  0  0
  8  5  2  0  0  0  0
  9 13  1  0  0  0  0
  9  7  2  0  0  0  0
 10  3  2  0  0  0  0
 11  4  2  0  0  0  0
 11  8  1  0  0  0  0
 12 10  1  0  0  0  0
 14 18  1  1  0  0  0
 14  4  1  0  0  0  0
 15 16  1  6  0  0  0
 15 14  1  0  0  0  0
 17 15  1  0  0  0  0
 19 18  1  0  0  0  0
 20  1  1  0  0  0  0
 21 23  1  0  0  0  0
 21 20  1  0  0  0  0
 22 21  2  0  0  0  0
 25 29  2  0  0  0  0
 25 28  1  0  0  0  0
 26 32  1  0  0  0  0
 26 27  2  0  0  0  0
 27 24  1  0  0  0  0
 28 30  2  0  0  0  0
 29 26  1  0  0  0  0
 30 27  1  0  0  0  0
 31 36  1  0  0  0  0
 32 31  2  0  0  0  0
 33 35  1  0  0  0  0
 34 33  2  0  0  0  0
 34 32  1  0  0  0  0
 35 36  2  0  0  0  0
M  END
>  <MODEL>
8

>  <REMARK>
 VINA RESULT:      -5.5      1.779      2.749
  Name = 
  9 active torsions:
  status: ('A' for Active; 'I' for Inactive)
    1  A    between atoms: C_2  and  C_31
    2  A    between atoms: C_3  and  O_6
    3  A    between atoms: C_4  and  C_31
    4  A    between atoms: O_6  and  C_22
    5  A    between atoms: C_7  and  C_10
    6  A    between atoms: C_11  and  C_33
    7  A    between atoms: C_13  and  C_31
    8  A    between atoms: C_22  and  C_28
    9  A    between atoms: C_22  and  C_33
                            x       y       z     vdW  Elec       q    Type
                         _______ _______ _______ _____ _____    ______ ____

>  <TORSDO>
F 9

$$$$
=
 OpenBabel11062416023D

 36 39  0  0  1  0  0  0  0  0999 V2000
  182.2280  177.6430  140.1330 C   0  0  1  0  0  3  0  0  0  0  0  0
  180.0460  180.9370  137.1800 N   0  0  0  0  0  2  0  0  0  0  0  0
  179.4330  181.5050  138.3120 N   0  0  0  0  0  0  0  0  0  0  0  0
  182.6120  177.5810  137.6000 C   0  0  0  0  0  0  0  0  0  0  0  0
  180.9050  179.8000  137.3060 C   0  0  0  0  0  0  0  0  0  0  0  0
  180.4880  179.8880  139.6950 N   0  0  0  0  0  2  0  0  0  0  0  0
  181.4990  179.2270  136.1860 C   0  0  0  0  0  3  0  0  0  0  0  0
  181.1490  179.2800  138.5770 C   0  0  0  0  0  0  0  0  0  0  0  0
  182.3440  178.1250  136.3170 C   0  0  0  0  0  0  0  0  0  0  0  0
  179.6300  181.0220  139.5050 C   0  0  0  0  0  0  0  0  0  0  0  0
  182.0070  178.1770  138.7420 C   0  0  0  0  0  0  0  0  0  0  0  0
  178.9310  181.6270  140.6710 C   0  0  0  0  0  1  0  0  0  0  0  0
  182.9330  177.5700  135.0630 C   0  0  0  0  0  1  0  0  0  0  0  0
  183.5490  176.4060  137.7910 C   0  0  1  0  0  3  0  0  0  0  0  0
  183.1220  175.1130  137.0850 C   0  0  1  0  0  3  0  0  0  0  0  0
  184.1330  173.7500  137.6240 Cl  0  0  0  0  0  0  0  0  0  0  0  0
  181.8040  174.8240  137.3840 F   0  0  0  0  0  0  0  0  0  0  0  0
  185.0220  176.7730  137.5900 C   0  0  0  0  0  2  0  0  0  0  0  0
  185.2420  178.1270  137.8330 O   0  0  0  0  0  1  0  0  0  0  0  0
  181.9450  176.2480  140.1950 O   0  0  0  0  0  0  0  0  0  0  0  0
  180.6480  175.7470  140.3210 C   0  0  0  0  0  0  0  0  0  0  0  0
  180.4030  174.5730  139.9450 O   0  0  0  0  0  0  0  0  0  0  0  0
  179.5540  176.5590  140.9290 C   0  0  0  0  0  1  0  0  0  0  0  0
  183.6420  177.9550  140.6250 C   0  0  0  0  0  2  0  0  0  0  0  0
  183.5620  179.3470  144.6610 C   0  0  0  0  0  3  0  0  0  0  0  0
  184.8450  178.5850  142.8010 C   0  0  0  0  0  0  0  0  0  0  0  0
  183.6550  178.3660  142.0650 C   0  0  0  0  0  0  0  0  0  0  0  0
  182.3690  179.1170  143.9740 C   0  0  0  0  0  3  0  0  0  0  0  0
  184.7570  179.0830  144.0680 N   0  0  0  0  0  0  0  0  0  0  0  0
  182.4220  178.6330  142.6700 C   0  0  0  0  0  3  0  0  0  0  0  0
  186.5520  178.8060  141.0250 N   0  0  0  0  0  0  0  0  0  0  0  0
  186.1900  178.3140  142.2440 C   0  0  0  0  0  0  0  0  0  0  0  0
  188.3400  177.2060  142.3980 C   0  0  0  0  0  3  0  0  0  0  0  0
  187.0840  177.4930  142.9450 C   0  0  0  0  0  3  0  0  0  0  0  0
  188.6890  177.7310  141.1530 C   0  0  0  0  0  3  0  0  0  0  0  0
  187.7700  178.5350  140.4730 C   0  0  0  0  0  3  0  0  0  0  0  0
  1 20  1  0  0  0  0
  1 24  1  6  0  0  0
  2  5  1  0  0  0  0
  2  3  1  0  0  0  0
  3 10  2  0  0  0  0
  4 14  1  0  0  0  0
  4 11  1  0  0  0  0
  5  8  1  0  0  0  0
  7  9  1  0  0  0  0
  7  5  2  0  0  0  0
  8 11  2  0  0  0  0
  8  6  1  0  0  0  0
  9  4  2  0  0  0  0
 10  6  1  0  0  0  0
 10 12  1  0  0  0  0
 11  1  1  0  0  0  0
 13  9  1  0  0  0  0
 14 18  1  6  0  0  0
 15 17  1  1  0  0  0
 15 16  1  0  0  0  0
 15 14  1  0  0  0  0
 18 19  1  0  0  0  0
 20 21  1  0  0  0  0
 21 23  1  0  0  0  0
 22 21  2  0  0  0  0
 24 27  1  0  0  0  0
 26 29  2  0  0  0  0
 27 30  2  0  0  0  0
 27 26  1  0  0  0  0
 28 25  2  0  0  0  0
 29 25  1  0  0  0  0
 30 28  1  0  0  0  0
 31 32  1  0  0  0  0
 32 26  1  0  0  0  0
 32 34  2  0  0  0  0
 33 34  1  0  0  0  0
 35 33  2  0  0  0  0
 36 31  2  0  0  0  0
 36 35  1  0  0  0  0
M  END
>  <MODEL>
9

>  <REMARK>
 VINA RESULT:      -5.5      2.890      6.381
  Name = 
  9 active torsions:
  status: ('A' for Active; 'I' for Inactive)
    1  A    between atoms: C_2  and  C_31
    2  A    between atoms: C_3  and  O_6
    3  A    between atoms: C_4  and  C_31
    4  A    between atoms: O_6  and  C_22
    5  A    between atoms: C_7  and  C_10
    6  A    between atoms: C_11  and  C_33
    7  A    between atoms: C_13  and  C_31
    8  A    between atoms: C_22  and  C_28
    9  A    between atoms: C_22  and  C_33
                            x       y       z     vdW  Elec       q    Type
                         _______ _______ _______ _____ _____    ______ ____

>  <TORSDO>
F 9

$$$$
