=
 OpenBabel11062412103D

 54 60  0  0  1  0  0  0  0  0999 V2000
  185.9790  178.4800  142.2740 C   0  0  0  0  0  0  0  0  0  0  0  0
  181.1140  179.4040  142.4270 N   0  0  0  0  0  2  0  0  0  0  0  0
  181.6810  178.9320  141.1700 C   0  0  0  0  0  2  0  0  0  0  0  0
  186.9620  177.8510  141.9090 O   0  0  0  0  0  0  0  0  0  0  0  0
  183.1600  179.0200  143.6490 C   0  0  0  0  0  3  0  0  0  0  0  0
  183.3440  179.3840  139.6350 C   0  0  2  0  0  3  0  0  0  0  0  0
  184.4590  178.5230  140.2760 C   0  0  2  0  0  3  0  0  0  0  0  0
  185.5200  178.4320  143.7140 C   0  0  1  0  0  3  0  0  0  0  0  0
  182.4770  179.9470  140.6070 O   0  0  0  0  0  0  0  0  0  0  0  0
  181.7210  178.6530  143.5230 C   0  0  0  0  0  2  0  0  0  0  0  0
  185.2500  179.3520  141.2870 C   0  0  0  0  0  2  0  0  0  0  0  0
  184.0740  178.0680  143.7650 C   0  0  0  0  0  3  0  0  0  0  0  0
  185.4320  177.9800  139.2430 C   0  0  0  0  0  1  0  0  0  0  0  0
  181.9710  177.4060  138.7920 C   0  0  0  0  0  2  0  0  0  0  0  0
  180.5000  181.0300  136.3980 C   0  0  0  0  0  2  0  0  0  0  0  0
  180.2930  182.6610  138.1710 O   0  0  0  0  0  1  0  0  0  0  0  0
  179.6040  181.6580  137.4880 C   0  0  2  0  0  3  0  0  0  0  0  0
  180.2240  178.7080  137.8520 C   0  0  2  0  0  3  0  0  0  0  0  0
  182.6040  178.7560  138.4230 C   0  0  1  0  0  3  0  0  0  0  0  0
  180.4680  177.6000  138.8400 C   0  0  1  0  0  3  0  0  0  0  0  0
  181.4280  179.6350  138.0150 C   0  0  1  0  0  3  0  0  0  0  0  0
  178.9520  180.6410  138.4630 C   0  0  1  0  0  3  0  0  0  0  0  0
  181.6890  180.4080  136.8640 O   0  0  0  0  0  0  0  0  0  0  0  0
  178.9300  179.3010  137.9910 O   0  0  0  0  0  0  0  0  0  0  0  0
  179.4670  180.7180  139.7640 O   0  0  0  0  0  0  0  0  0  0  0  0
  178.9330  181.8940  140.2910 C   0  0  0  0  0  1  0  0  0  0  0  0
  179.8030  176.3800  138.4080 N   0  0  0  0  0  2  0  0  0  0  0  0
  181.6720  173.1070  135.8450 C   0  0  0  0  0  2  0  0  0  0  0  0
  179.3420  172.5500  135.0400 C   0  0  0  0  0  2  0  0  0  0  0  0
  182.1880  173.6450  137.1760 C   0  0  2  0  0  3  0  0  0  0  0  0
  180.6730  175.7260  137.4450 C   0  0  1  0  0  3  0  0  0  0  0  0
  179.0250  174.0380  134.8890 C   0  0  0  0  0  2  0  0  0  0  0  0
  180.4320  172.2500  136.0630 C   0  0  0  0  0  2  0  0  0  0  0  0
  181.1080  174.3640  137.9980 C   0  0  0  0  0  2  0  0  0  0  0  0
  183.2910  174.4760  136.9670 O   0  0  0  0  0  1  0  0  0  0  0  0
  179.9560  175.6280  136.0990 C   0  0  0  0  0  2  0  0  0  0  0  0
  178.9310  174.6770  136.1320 O   0  0  0  0  0  0  0  0  0  0  0  0
  186.3200  177.4440  144.5540 C   0  0  0  0  0  2  0  0  0  0  0  0
  187.9300  177.5960  148.3970 C   0  0  0  0  0  2  0  0  0  0  0  0
  188.7960  177.8880  147.3350 O   0  0  0  0  0  0  0  0  0  0  0  0
  188.2490  177.2290  146.2250 C   0  0  1  0  0  3  0  0  0  0  0  0
  186.7720  179.2300  146.1640 O   0  0  0  0  0  0  0  0  0  0  0  0
  187.3490  178.1860  145.4020 C   0  0  2  0  0  3  0  0  0  0  0  0
  186.8250  178.6400  148.4940 C   0  0  0  0  0  2  0  0  0  0  0  0
  186.0040  178.6780  147.2080 C   0  0  0  0  0  2  0  0  0  0  0  0
  189.9330  175.7720  143.1560 C   0  0  0  0  0  2  0  0  0  0  0  0
  189.3590  176.4660  145.4740 C   0  0  2  0  0  3  0  0  0  0  0  0
  190.4590  177.2920  144.9310 C   0  0  2  0  0  0  0  0  0  0  0  0
  190.8010  176.4710  142.0890 C   0  0  0  0  0  2  0  0  0  0  0  0
  189.3690  176.7740  144.0490 N   0  0  1  0  0  0  0  0  0  0  0  0
  191.6600  176.5630  144.8930 O   0  0  0  0  0  1  0  0  0  0  0  0
  190.5830  177.9970  141.9930 C   0  0  0  0  0  2  0  0  0  0  0  0
  191.2940  178.7900  143.1070 C   0  0  0  0  0  2  0  0  0  0  0  0
  190.5990  178.7400  144.4820 C   0  0  0  0  0  2  0  0  0  0  0  0
  1  8  1  0  0  0  0
  2 10  1  0  0  0  0
  3  2  1  0  0  0  0
  4  1  2  0  0  0  0
  5 12  2  0  0  0  0
  6  7  1  0  0  0  0
  6  9  1  1  0  0  0
  7 13  1  6  0  0  0
  7 11  1  0  0  0  0
  8 12  1  0  0  0  0
  8 38  1  1  0  0  0
  9  3  1  0  0  0  0
 10  5  1  0  0  0  0
 11  1  1  0  0  0  0
 14 20  1  0  0  0  0
 15 23  1  0  0  0  0
 15 17  1  0  0  0  0
 17 16  1  1  0  0  0
 17 22  1  0  0  0  0
 18 24  1  1  0  0  0
 18 21  1  0  0  0  0
 18 20  1  0  0  0  0
 19 14  1  1  0  0  0
 19  6  1  0  0  0  0
 20 27  1  6  0  0  0
 21 23  1  6  0  0  0
 21 19  1  0  0  0  0
 22 25  1  1  0  0  0
 24 22  1  0  0  0  0
 25 26  1  0  0  0  0
 28 33  1  0  0  0  0
 28 30  1  0  0  0  0
 29 33  1  0  0  0  0
 30 35  1  6  0  0  0
 30 34  1  0  0  0  0
 31 34  1  0  0  0  0
 31 27  1  1  0  0  0
 32 29  1  0  0  0  0
 32 37  1  0  0  0  0
 36 37  1  0  0  0  0
 36 31  1  0  0  0  0
 39 44  1  0  0  0  0
 40 39  1  0  0  0  0
 41 40  1  1  0  0  0
 42 45  1  0  0  0  0
 43 38  1  1  0  0  0
 43 42  1  0  0  0  0
 43 41  1  0  0  0  0
 45 44  1  0  0  0  0
 47 41  1  1  0  0  0
 48 51  1  6  0  0  0
 48 47  1  0  0  0  0
 49 46  1  0  0  0  0
 50 46  1  6  0  0  0
 50 48  1  0  0  0  0
 50 47  1  0  0  0  0
 52 49  1  0  0  0  0
 52 53  1  0  0  0  0
 53 54  1  0  0  0  0
 54 48  1  0  0  0  0
M  END
>  <MODEL>
1

>  <REMARK>
 VINA RESULT:      -6.8      0.000      0.000
  Name = 
  7 active torsions:
  status: ('A' for Active; 'I' for Inactive)
    1  A    between atoms: N_9  and  C_16
    2  A    between atoms: N_9  and  C_34
    3  A    between atoms: C_14  and  C_19
    4  A    between atoms: C_18  and  C_32
    5  A    between atoms: C_21  and  C_31
    6  A    between atoms: O_29  and  C_47
    7  A    between atoms: C_31  and  C_36
                            x       y       z     vdW  Elec       q    Type
                         _______ _______ _______ _____ _____    ______ ____

>  <TORSDO>
F 7

$$$$
=
 OpenBabel11062412103D

 54 60  0  0  1  0  0  0  0  0999 V2000
  183.2500  178.5070  142.6120 C   0  0  0  0  0  0  0  0  0  0  0  0
  184.7400  177.6840  137.9590 N   0  0  0  0  0  2  0  0  0  0  0  0
  183.3200  177.9230  138.1900 C   0  0  0  0  0  2  0  0  0  0  0  0
  182.5550  179.0510  143.4570 O   0  0  0  0  0  0  0  0  0  0  0  0
  185.3420  178.2480  140.2270 C   0  0  0  0  0  3  0  0  0  0  0  0
  181.5280  177.1920  139.4450 C   0  0  2  0  0  3  0  0  0  0  0  0
  181.7210  178.1380  140.6550 C   0  0  2  0  0  3  0  0  0  0  0  0
  184.7290  178.8090  142.5140 C   0  0  1  0  0  3  0  0  0  0  0  0
  182.7630  176.8170  138.8570 O   0  0  0  0  0  0  0  0  0  0  0  0
  185.5090  178.6050  138.7900 C   0  0  0  0  0  2  0  0  0  0  0  0
  182.6350  177.4860  141.6920 C   0  0  0  0  0  2  0  0  0  0  0  0
  185.0680  179.1940  141.1130 C   0  0  0  0  0  3  0  0  0  0  0  0
  180.4050  178.4820  141.3320 C   0  0  0  0  0  1  0  0  0  0  0  0
  180.7740  178.9660  137.7730 C   0  0  0  0  0  2  0  0  0  0  0  0
  179.2380  174.9790  136.1080 C   0  0  0  0  0  2  0  0  0  0  0  0
  181.2000  173.6000  136.4150 O   0  0  0  0  0  1  0  0  0  0  0  0
  180.5700  174.4640  135.5200 C   0  0  2  0  0  3  0  0  0  0  0  0
  180.4170  177.4630  135.9710 C   0  0  2  0  0  3  0  0  0  0  0  0
  180.4430  177.6110  138.4150 C   0  0  1  0  0  3  0  0  0  0  0  0
  181.1810  178.7080  136.3350 C   0  0  1  0  0  3  0  0  0  0  0  0
  180.4210  176.6270  137.2510 C   0  0  1  0  0  3  0  0  0  0  0  0
  181.5320  175.5730  135.0160 C   0  0  1  0  0  3  0  0  0  0  0  0
  179.3450  175.7160  137.3170 O   0  0  0  0  0  0  0  0  0  0  0  0
  180.9150  176.8320  134.7890 O   0  0  0  0  0  0  0  0  0  0  0  0
  182.6840  175.7010  135.8030 O   0  0  0  0  0  0  0  0  0  0  0  0
  183.7400  175.7200  134.8920 C   0  0  0  0  0  1  0  0  0  0  0  0
  180.7610  179.8210  135.4990 N   0  0  0  0  0  2  0  0  0  0  0  0
  180.3300  183.8340  137.6200 C   0  0  0  0  0  2  0  0  0  0  0  0
  180.3480  184.9240  135.3400 C   0  0  0  0  0  2  0  0  0  0  0  0
  181.0090  182.5760  138.1530 C   0  0  2  0  0  3  0  0  0  0  0  0
  180.2410  180.8560  136.3790 C   0  0  1  0  0  3  0  0  0  0  0  0
  179.4110  183.8420  134.8020 C   0  0  0  0  0  2  0  0  0  0  0  0
  181.1820  184.4800  136.5360 C   0  0  0  0  0  2  0  0  0  0  0  0
  181.4100  181.5890  137.0470 C   0  0  0  0  0  2  0  0  0  0  0  0
  180.1990  181.9550  139.1060 O   0  0  0  0  0  1  0  0  0  0  0  0
  179.3230  181.7830  135.5840 C   0  0  0  0  0  2  0  0  0  0  0  0
  180.0500  182.6000  134.7110 O   0  0  0  0  0  0  0  0  0  0  0  0
  185.1670  179.9180  143.4630 C   0  0  0  0  0  2  0  0  0  0  0  0
  185.4640  176.7980  146.2120 C   0  0  0  0  0  2  0  0  0  0  0  0
  186.6600  177.2590  145.6450 O   0  0  0  0  0  0  0  0  0  0  0  0
  186.2880  177.8220  144.4160 C   0  0  1  0  0  3  0  0  0  0  0  0
  185.6900  179.7660  145.8480 O   0  0  0  0  0  0  0  0  0  0  0  0
  186.0750  179.3520  144.5510 C   0  0  2  0  0  3  0  0  0  0  0  0
  184.8160  177.8840  147.0610 C   0  0  0  0  0  2  0  0  0  0  0  0
  184.4970  179.1120  146.2130 C   0  0  0  0  0  2  0  0  0  0  0  0
  189.1210  178.1730  141.9190 C   0  0  0  0  0  2  0  0  0  0  0  0
  187.2400  177.3260  143.3080 C   0  0  2  0  0  3  0  0  0  0  0  0
  188.5300  176.7650  143.7650 C   0  0  2  0  0  0  0  0  0  0  0  0
  190.6440  178.1000  142.1490 C   0  0  0  0  0  2  0  0  0  0  0  0
  188.4390  178.1490  143.2060 N   0  0  1  0  0  0  0  0  0  0  0  0
  188.9940  175.7850  142.8710 O   0  0  0  0  0  1  0  0  0  0  0  0
  191.0820  178.3800  143.6030 C   0  0  0  0  0  2  0  0  0  0  0  0
  190.8710  177.1800  144.5490 C   0  0  0  0  0  2  0  0  0  0  0  0
  189.4130  176.9530  144.9910 C   0  0  0  0  0  2  0  0  0  0  0  0
  1  4  2  0  0  0  0
  2  3  1  0  0  0  0
  2 10  1  0  0  0  0
  3  9  1  0  0  0  0
  5 12  2  0  0  0  0
  6  9  1  6  0  0  0
  6  7  1  0  0  0  0
  7 13  1  1  0  0  0
  7 11  1  0  0  0  0
  8  1  1  0  0  0  0
  8 38  1  1  0  0  0
 10  5  1  0  0  0  0
 11  1  1  0  0  0  0
 12  8  1  0  0  0  0
 15 23  1  0  0  0  0
 17 15  1  0  0  0  0
 17 16  1  1  0  0  0
 18 24  1  6  0  0  0
 18 20  1  0  0  0  0
 18 21  1  0  0  0  0
 19 14  1  6  0  0  0
 19  6  1  0  0  0  0
 20 27  1  6  0  0  0
 20 14  1  0  0  0  0
 21 23  1  1  0  0  0
 21 19  1  0  0  0  0
 22 17  1  0  0  0  0
 22 25  1  1  0  0  0
 24 22  1  0  0  0  0
 26 25  1  0  0  0  0
 28 30  1  0  0  0  0
 29 33  1  0  0  0  0
 30 35  1  1  0  0  0
 31 27  1  6  0  0  0
 31 34  1  0  0  0  0
 32 29  1  0  0  0  0
 33 28  1  0  0  0  0
 34 30  1  0  0  0  0
 36 31  1  0  0  0  0
 37 32  1  0  0  0  0
 37 36  1  0  0  0  0
 39 44  1  0  0  0  0
 40 39  1  0  0  0  0
 41 43  1  0  0  0  0
 41 40  1  1  0  0  0
 42 45  1  0  0  0  0
 43 38  1  6  0  0  0
 43 42  1  0  0  0  0
 45 44  1  0  0  0  0
 46 49  1  0  0  0  0
 47 48  1  0  0  0  0
 47 41  1  1  0  0  0
 48 51  1  6  0  0  0
 48 54  1  0  0  0  0
 49 52  1  0  0  0  0
 50 46  1  6  0  0  0
 50 47  1  0  0  0  0
 50 48  1  0  0  0  0
 52 53  1  0  0  0  0
 53 54  1  0  0  0  0
M  END
>  <MODEL>
2

>  <REMARK>
 VINA RESULT:      -6.1      2.080      5.524
  Name = 
  7 active torsions:
  status: ('A' for Active; 'I' for Inactive)
    1  A    between atoms: N_9  and  C_16
    2  A    between atoms: N_9  and  C_34
    3  A    between atoms: C_14  and  C_19
    4  A    between atoms: C_18  and  C_32
    5  A    between atoms: C_21  and  C_31
    6  A    between atoms: O_29  and  C_47
    7  A    between atoms: C_31  and  C_36
                            x       y       z     vdW  Elec       q    Type
                         _______ _______ _______ _____ _____    ______ ____

>  <TORSDO>
F 7

$$$$
=
 OpenBabel11062412103D

 54 60  0  0  1  0  0  0  0  0999 V2000
  183.4560  177.5470  139.0120 C   0  0  0  0  0  0  0  0  0  0  0  0
  185.9410  176.1910  134.9460 N   0  0  0  0  0  2  0  0  0  0  0  0
  186.7070  176.7050  136.0750 C   0  0  0  0  0  2  0  0  0  0  0  0
  183.3130  177.6560  140.2210 O   0  0  0  0  0  0  0  0  0  0  0  0
  183.8830  176.1100  136.2040 C   0  0  0  0  0  3  0  0  0  0  0  0
  186.8550  178.5060  137.5100 C   0  0  2  0  0  3  0  0  0  0  0  0
  185.8960  177.9790  138.6050 C   0  0  2  0  0  3  0  0  0  0  0  0
  182.5980  176.5900  138.2140 C   0  0  1  0  0  3  0  0  0  0  0  0
  186.4670  178.0850  136.2120 O   0  0  0  0  0  0  0  0  0  0  0  0
  184.8930  175.3110  135.4540 C   0  0  0  0  0  2  0  0  0  0  0  0
  184.4620  178.4150  138.3030 C   0  0  0  0  0  2  0  0  0  0  0  0
  183.4720  175.7010  137.3960 C   0  0  0  0  0  3  0  0  0  0  0  0
  186.2650  178.4900  139.9870 C   0  0  0  0  0  1  0  0  0  0  0  0
  188.6390  178.0910  139.2860 C   0  0  0  0  0  2  0  0  0  0  0  0
  190.2970  176.2520  135.4260 C   0  0  0  0  0  2  0  0  0  0  0  0
  188.3350  175.0880  134.6260 O   0  0  0  0  0  1  0  0  0  0  0  0
  189.4650  174.9510  135.4320 C   0  0  2  0  0  3  0  0  0  0  0  0
  189.7360  176.3380  138.1200 C   0  0  2  0  0  3  0  0  0  0  0  0
  188.3730  178.3460  137.7950 C   0  0  1  0  0  3  0  0  0  0  0  0
  189.0720  176.6450  139.4350 C   0  0  1  0  0  3  0  0  0  0  0  0
  188.9090  177.1060  137.0880 C   0  0  1  0  0  3  0  0  0  0  0  0
  189.1040  174.4150  136.8440 C   0  0  1  0  0  3  0  0  0  0  0  0
  189.6330  177.4080  135.9150 O   0  0  0  0  0  0  0  0  0  0  0  0
  189.9030  174.9360  137.8960 O   0  0  0  0  0  0  0  0  0  0  0  0
  187.7380  174.5170  137.1380 O   0  0  0  0  0  0  0  0  0  0  0  0
  187.2970  173.2000  137.2570 C   0  0  0  0  0  1  0  0  0  0  0  0
  190.0300  176.5310  140.5240 N   0  0  0  0  0  2  0  0  0  0  0  0
  189.0020  177.6560  144.8200 C   0  0  0  0  0  2  0  0  0  0  0  0
  191.4540  177.3820  145.3690 C   0  0  0  0  0  2  0  0  0  0  0  0
  188.1010  176.9550  143.8090 C   0  0  2  0  0  3  0  0  0  0  0  0
  189.4980  177.2750  141.6540 C   0  0  1  0  0  3  0  0  0  0  0  0
  191.8360  178.1200  144.0860 C   0  0  0  0  0  2  0  0  0  0  0  0
  190.0870  176.7080  145.3120 C   0  0  0  0  0  2  0  0  0  0  0  0
  188.8770  176.2970  142.6590 C   0  0  0  0  0  2  0  0  0  0  0  0
  187.1410  177.8430  143.3180 O   0  0  0  0  0  1  0  0  0  0  0  0
  190.6040  178.1380  142.2580 C   0  0  0  0  0  2  0  0  0  0  0  0
  191.5440  177.3620  142.9450 O   0  0  0  0  0  0  0  0  0  0  0  0
  181.6920  175.7390  139.0940 C   0  0  0  0  0  2  0  0  0  0  0  0
  179.2210  178.9260  140.1510 C   0  0  0  0  0  2  0  0  0  0  0  0
  178.9360  178.2770  138.9420 O   0  0  0  0  0  0  0  0  0  0  0  0
  180.1520  177.7070  138.5380 C   0  0  1  0  0  3  0  0  0  0  0  0
  179.5000  175.9400  140.1620 O   0  0  0  0  0  0  0  0  0  0  0  0
  180.2510  176.2300  138.9980 C   0  0  2  0  0  3  0  0  0  0  0  0
  179.0150  177.9840  141.3300 C   0  0  0  0  0  2  0  0  0  0  0  0
  179.9310  176.7690  141.2160 C   0  0  0  0  0  2  0  0  0  0  0  0
  179.2290  179.0620  135.1180 C   0  0  0  0  0  2  0  0  0  0  0  0
  180.3970  178.0110  137.0450 C   0  0  2  0  0  3  0  0  0  0  0  0
  180.9690  179.3410  136.7410 C   0  0  2  0  0  0  0  0  0  0  0  0
  179.2690  180.5130  134.5950 C   0  0  0  0  0  2  0  0  0  0  0  0
  179.5130  179.0580  136.5460 N   0  0  1  0  0  0  0  0  0  0  0  0
  181.7520  179.2930  135.5740 O   0  0  0  0  0  1  0  0  0  0  0  0
  179.2330  181.5890  135.7020 C   0  0  0  0  0  2  0  0  0  0  0  0
  180.5900  181.7920  136.4050 C   0  0  0  0  0  2  0  0  0  0  0  0
  180.9610  180.7000  137.4260 C   0  0  0  0  0  2  0  0  0  0  0  0
  1  4  2  0  0  0  0
  2 10  1  0  0  0  0
  2  3  1  0  0  0  0
  3  9  1  0  0  0  0
  5 12  2  0  0  0  0
  6  9  1  6  0  0  0
  6 19  1  0  0  0  0
  6  7  1  0  0  0  0
  7 13  1  1  0  0  0
  8  1  1  0  0  0  0
  8 38  1  1  0  0  0
 10  5  1  0  0  0  0
 11  7  1  0  0  0  0
 11  1  1  0  0  0  0
 12  8  1  0  0  0  0
 14 20  1  0  0  0  0
 15 17  1  0  0  0  0
 15 23  1  0  0  0  0
 17 16  1  6  0  0  0
 17 22  1  0  0  0  0
 18 24  1  6  0  0  0
 18 20  1  0  0  0  0
 19 14  1  1  0  0  0
 20 27  1  1  0  0  0
 21 23  1  6  0  0  0
 21 19  1  0  0  0  0
 21 18  1  0  0  0  0
 22 25  1  1  0  0  0
 22 24  1  0  0  0  0
 25 26  1  0  0  0  0
 28 33  1  0  0  0  0
 30 35  1  6  0  0  0
 30 28  1  0  0  0  0
 31 27  1  6  0  0  0
 31 36  1  0  0  0  0
 31 34  1  0  0  0  0
 32 29  1  0  0  0  0
 33 29  1  0  0  0  0
 34 30  1  0  0  0  0
 36 37  1  0  0  0  0
 37 32  1  0  0  0  0
 39 44  1  0  0  0  0
 40 39  1  0  0  0  0
 41 40  1  6  0  0  0
 41 43  1  0  0  0  0
 42 45  1  0  0  0  0
 43 38  1  1  0  0  0
 43 42  1  0  0  0  0
 45 44  1  0  0  0  0
 47 41  1  1  0  0  0
 48 51  1  6  0  0  0
 48 47  1  0  0  0  0
 48 54  1  0  0  0  0
 49 46  1  0  0  0  0
 49 52  1  0  0  0  0
 50 46  1  6  0  0  0
 50 48  1  0  0  0  0
 50 47  1  0  0  0  0
 52 53  1  0  0  0  0
 53 54  1  0  0  0  0
M  END
>  <MODEL>
3

>  <REMARK>
 VINA RESULT:      -6.1      3.267     10.526
  Name = 
  7 active torsions:
  status: ('A' for Active; 'I' for Inactive)
    1  A    between atoms: N_9  and  C_16
    2  A    between atoms: N_9  and  C_34
    3  A    between atoms: C_14  and  C_19
    4  A    between atoms: C_18  and  C_32
    5  A    between atoms: C_21  and  C_31
    6  A    between atoms: O_29  and  C_47
    7  A    between atoms: C_31  and  C_36
                            x       y       z     vdW  Elec       q    Type
                         _______ _______ _______ _____ _____    ______ ____

>  <TORSDO>
F 7

$$$$
=
 OpenBabel11062412103D

 54 60  0  0  1  0  0  0  0  0999 V2000
  184.6680  178.6370  141.8480 C   0  0  0  0  0  0  0  0  0  0  0  0
  186.5040  178.1390  137.2720 N   0  0  0  0  0  2  0  0  0  0  0  0
  187.2590  177.5640  138.3780 C   0  0  0  0  0  2  0  0  0  0  0  0
  184.4450  178.2480  142.9840 O   0  0  0  0  0  0  0  0  0  0  0  0
  184.6030  178.6600  138.6650 C   0  0  0  0  0  3  0  0  0  0  0  0
  188.1900  178.0930  140.4220 C   0  0  2  0  0  3  0  0  0  0  0  0
  186.9590  177.7650  141.3030 C   0  0  2  0  0  3  0  0  0  0  0  0
  183.5430  178.8050  140.8510 C   0  0  1  0  0  3  0  0  0  0  0  0
  187.8180  178.5990  139.1510 O   0  0  0  0  0  0  0  0  0  0  0  0
  185.0840  177.8780  137.4920 C   0  0  0  0  0  2  0  0  0  0  0  0
  186.0750  179.0030  141.4530 C   0  0  0  0  0  2  0  0  0  0  0  0
  183.8720  178.0660  139.5980 C   0  0  0  0  0  3  0  0  0  0  0  0
  187.3550  177.2930  142.6920 C   0  0  0  0  0  1  0  0  0  0  0  0
  190.4070  177.3900  139.3720 C   0  0  0  0  0  2  0  0  0  0  0  0
  190.4420  175.6310  143.6070 C   0  0  0  0  0  2  0  0  0  0  0  0
  189.6390  177.5300  144.8690 O   0  0  0  0  0  1  0  0  0  0  0  0
  190.7940  176.9230  144.3740 C   0  0  2  0  0  3  0  0  0  0  0  0
  191.5080  176.9250  141.4220 C   0  0  2  0  0  3  0  0  0  0  0  0
  189.3010  177.0080  140.3670 C   0  0  1  0  0  3  0  0  0  0  0  0
  191.6410  177.7550  140.1750 C   0  0  1  0  0  3  0  0  0  0  0  0
  190.0070  176.9150  141.7140 C   0  0  1  0  0  3  0  0  0  0  0  0
  191.6810  177.9270  143.5890 C   0  0  1  0  0  3  0  0  0  0  0  0
  189.6000  175.7980  142.4750 O   0  0  0  0  0  0  0  0  0  0  0  0
  192.3650  177.3670  142.4780 O   0  0  0  0  0  0  0  0  0  0  0  0
  191.0010  179.1000  143.2340 O   0  0  0  0  0  0  0  0  0  0  0  0
  191.3060  180.0100  144.2460 C   0  0  0  0  0  1  0  0  0  0  0  0
  192.8350  177.3710  139.4370 N   0  0  0  0  0  2  0  0  0  0  0  0
  192.4950  174.1620  136.2180 C   0  0  0  0  0  2  0  0  0  0  0  0
  194.9110  174.6320  135.6400 C   0  0  0  0  0  2  0  0  0  0  0  0
  191.3820  175.0610  136.7460 C   0  0  2  0  0  3  0  0  0  0  0  0
  192.5650  176.0900  138.8050 C   0  0  1  0  0  3  0  0  0  0  0  0
  195.2680  174.6850  137.1260 C   0  0  0  0  0  2  0  0  0  0  0  0
  193.4520  174.9610  135.3430 C   0  0  0  0  0  2  0  0  0  0  0  0
  191.9030  176.3260  137.4420 C   0  0  0  0  0  2  0  0  0  0  0  0
  190.5380  174.3380  137.5930 O   0  0  0  0  0  1  0  0  0  0  0  0
  193.8620  175.2870  138.7130 C   0  0  0  0  0  2  0  0  0  0  0  0
  194.7270  175.8160  137.7490 O   0  0  0  0  0  0  0  0  0  0  0  0
  182.2030  178.3180  141.3890 C   0  0  0  0  0  2  0  0  0  0  0  0
  181.1860  179.5740  137.5470 C   0  0  0  0  0  2  0  0  0  0  0  0
  180.1620  179.0180  138.3230 O   0  0  0  0  0  0  0  0  0  0  0  0
  180.8120  178.1840  139.2440 C   0  0  1  0  0  3  0  0  0  0  0  0
  181.1760  180.3290  140.4490 O   0  0  0  0  0  0  0  0  0  0  0  0
  181.0600  178.9250  140.5830 C   0  0  2  0  0  3  0  0  0  0  0  0
  181.6860  180.8750  138.1640 C   0  0  0  0  0  2  0  0  0  0  0  0
  182.2330  180.6290  139.5670 C   0  0  0  0  0  2  0  0  0  0  0  0
  178.9310  175.2340  137.7820 C   0  0  0  0  0  2  0  0  0  0  0  0
  180.0990  176.8180  139.3020 C   0  0  2  0  0  3  0  0  0  0  0  0
  180.9410  175.6350  139.0210 C   0  0  2  0  0  0  0  0  0  0  0  0
  179.4690  174.0190  136.9990 C   0  0  0  0  0  2  0  0  0  0  0  0
  180.0110  176.1890  137.9890 N   0  0  1  0  0  0  0  0  0  0  0  0
  180.4680  174.5080  139.7140 O   0  0  0  0  0  1  0  0  0  0  0  0
  180.8450  174.2490  136.3340 C   0  0  0  0  0  2  0  0  0  0  0  0
  182.0260  174.1520  137.3200 C   0  0  0  0  0  2  0  0  0  0  0  0
  182.2150  175.3840  138.2270 C   0  0  0  0  0  2  0  0  0  0  0  0
  1  4  2  0  0  0  0
  2 10  1  0  0  0  0
  2  3  1  0  0  0  0
  3  9  1  0  0  0  0
  5 12  2  0  0  0  0
  6  9  1  6  0  0  0
  6  7  1  0  0  0  0
  7 11  1  0  0  0  0
  7 13  1  1  0  0  0
  8 38  1  1  0  0  0
  8  1  1  0  0  0  0
 10  5  1  0  0  0  0
 11  1  1  0  0  0  0
 12  8  1  0  0  0  0
 14 20  1  0  0  0  0
 15 17  1  0  0  0  0
 17 16  1  6  0  0  0
 18 21  1  0  0  0  0
 18 24  1  1  0  0  0
 19 14  1  6  0  0  0
 19  6  1  0  0  0  0
 19 21  1  0  0  0  0
 20 27  1  6  0  0  0
 20 18  1  0  0  0  0
 21 23  1  6  0  0  0
 22 25  1  6  0  0  0
 22 17  1  0  0  0  0
 23 15  1  0  0  0  0
 24 22  1  0  0  0  0
 25 26  1  0  0  0  0
 28 30  1  0  0  0  0
 29 32  1  0  0  0  0
 30 34  1  0  0  0  0
 30 35  1  1  0  0  0
 31 27  1  6  0  0  0
 32 37  1  0  0  0  0
 33 29  1  0  0  0  0
 33 28  1  0  0  0  0
 34 31  1  0  0  0  0
 36 31  1  0  0  0  0
 37 36  1  0  0  0  0
 39 44  1  0  0  0  0
 39 40  1  0  0  0  0
 41 40  1  6  0  0  0
 41 43  1  0  0  0  0
 42 43  1  0  0  0  0
 43 38  1  6  0  0  0
 44 45  1  0  0  0  0
 45 42  1  0  0  0  0
 47 41  1  6  0  0  0
 48 47  1  0  0  0  0
 48 51  1  1  0  0  0
 49 46  1  0  0  0  0
 50 46  1  1  0  0  0
 50 48  1  0  0  0  0
 50 47  1  0  0  0  0
 52 49  1  0  0  0  0
 52 53  1  0  0  0  0
 53 54  1  0  0  0  0
 54 48  1  0  0  0  0
M  END
>  <MODEL>
4

>  <REMARK>
 VINA RESULT:      -6.1      3.404     10.576
  Name = 
  7 active torsions:
  status: ('A' for Active; 'I' for Inactive)
    1  A    between atoms: N_9  and  C_16
    2  A    between atoms: N_9  and  C_34
    3  A    between atoms: C_14  and  C_19
    4  A    between atoms: C_18  and  C_32
    5  A    between atoms: C_21  and  C_31
    6  A    between atoms: O_29  and  C_47
    7  A    between atoms: C_31  and  C_36
                            x       y       z     vdW  Elec       q    Type
                         _______ _______ _______ _____ _____    ______ ____

>  <TORSDO>
F 7

$$$$
=
 OpenBabel11062412103D

 54 60  0  0  1  0  0  0  0  0999 V2000
  187.5840  177.5660  140.8870 C   0  0  0  0  0  0  0  0  0  0  0  0
  192.2710  177.4450  142.4890 N   0  0  0  0  0  2  0  0  0  0  0  0
  192.0420  177.5700  141.0550 C   0  0  0  0  0  2  0  0  0  0  0  0
  186.6910  177.9540  140.1480 O   0  0  0  0  0  0  0  0  0  0  0  0
  189.9360  177.7420  143.0240 C   0  0  0  0  0  3  0  0  0  0  0  0
  190.9320  176.5790  139.2910 C   0  0  2  0  0  3  0  0  0  0  0  0
  189.6050  177.3680  139.4100 C   0  0  2  0  0  3  0  0  0  0  0  0
  187.6100  177.9630  142.3460 C   0  0  1  0  0  3  0  0  0  0  0  0
  191.5360  176.3560  140.5550 O   0  0  0  0  0  0  0  0  0  0  0  0
  191.3110  178.2920  143.1900 C   0  0  0  0  0  2  0  0  0  0  0  0
  188.6420  176.6400  140.3470 C   0  0  0  0  0  2  0  0  0  0  0  0
  188.9410  178.5470  142.6810 C   0  0  0  0  0  3  0  0  0  0  0  0
  188.9190  177.5440  138.0660 C   0  0  0  0  0  1  0  0  0  0  0  0
  193.3460  176.5530  138.4650 C   0  0  0  0  0  2  0  0  0  0  0  0
  190.7590  176.8590  134.6910 C   0  0  0  0  0  2  0  0  0  0  0  0
  189.0730  175.2000  135.1890 O   0  0  0  0  0  1  0  0  0  0  0  0
  190.3280  175.3790  134.6050 C   0  0  2  0  0  3  0  0  0  0  0  0
  192.8310  175.9140  136.2380 C   0  0  2  0  0  3  0  0  0  0  0  0
  191.9230  177.0650  138.1980 C   0  0  1  0  0  3  0  0  0  0  0  0
  193.6570  175.4950  137.4240 C   0  0  1  0  0  3  0  0  0  0  0  0
  191.5440  176.4690  136.8480 C   0  0  1  0  0  3  0  0  0  0  0  0
  191.3670  174.3640  135.1510 C   0  0  1  0  0  3  0  0  0  0  0  0
  190.8850  177.3870  136.0030 O   0  0  0  0  0  0  0  0  0  0  0  0
  192.6880  174.8750  135.2660 O   0  0  0  0  0  0  0  0  0  0  0  0
  190.9550  173.7360  136.3340 O   0  0  0  0  0  0  0  0  0  0  0  0
  191.7530  172.5970  136.4320 C   0  0  0  0  0  1  0  0  0  0  0  0
  195.0730  175.5340  137.0940 N   0  0  0  0  0  2  0  0  0  0  0  0
  197.3000  171.5610  137.2870 C   0  0  0  0  0  2  0  0  0  0  0  0
  199.1750  172.6670  136.0030 C   0  0  0  0  0  2  0  0  0  0  0  0
  195.7900  171.7720  137.2680 C   0  0  2  0  0  3  0  0  0  0  0  0
  195.6820  174.3310  137.6390 C   0  0  1  0  0  3  0  0  0  0  0  0
  199.0500  173.9180  136.8740 C   0  0  0  0  0  2  0  0  0  0  0  0
  197.8940  171.8450  135.9140 C   0  0  0  0  0  2  0  0  0  0  0  0
  195.3770  173.1450  136.7170 C   0  0  0  0  0  2  0  0  0  0  0  0
  195.2560  171.5660  138.5420 O   0  0  0  0  0  1  0  0  0  0  0  0
  197.1780  174.5680  137.8400 C   0  0  0  0  0  2  0  0  0  0  0  0
  197.8600  174.6110  136.6190 O   0  0  0  0  0  0  0  0  0  0  0  0
  186.5150  178.9610  142.7030 C   0  0  0  0  0  2  0  0  0  0  0  0
  182.6870  179.5640  144.2380 C   0  0  0  0  0  2  0  0  0  0  0  0
  182.8230  178.5900  143.2410 O   0  0  0  0  0  0  0  0  0  0  0  0
  183.9620  178.9670  142.5140 C   0  0  1  0  0  3  0  0  0  0  0  0
  185.1440  177.8520  144.3980 O   0  0  0  0  0  0  0  0  0  0  0  0
  185.2200  178.2270  143.0350 C   0  0  2  0  0  3  0  0  0  0  0  0
  183.4520  179.1630  145.4920 C   0  0  0  0  0  2  0  0  0  0  0  0
  184.9390  179.0000  145.1880 C   0  0  0  0  0  2  0  0  0  0  0  0
  183.3160  177.1870  139.2290 C   0  0  0  0  0  2  0  0  0  0  0  0
  183.6620  178.8950  141.0030 C   0  0  2  0  0  3  0  0  0  0  0  0
  182.2340  178.8010  140.6300 C   0  0  2  0  0  0  0  0  0  0  0  0
  182.0170  176.5410  138.7030 C   0  0  0  0  0  2  0  0  0  0  0  0
  183.1220  177.5980  140.6120 N   0  0  1  0  0  0  0  0  0  0  0  0
  182.0040  179.3970  139.3780 O   0  0  0  0  0  1  0  0  0  0  0  0
  181.0020  176.1640  139.8050 C   0  0  0  0  0  2  0  0  0  0  0  0
  180.2010  177.3690  140.3390 C   0  0  0  0  0  2  0  0  0  0  0  0
  180.9740  178.2820  141.3090 C   0  0  0  0  0  2  0  0  0  0  0  0
  1  8  1  0  0  0  0
  2 10  1  0  0  0  0
  3  2  1  0  0  0  0
  4  1  2  0  0  0  0
  5 10  1  0  0  0  0
  6  7  1  0  0  0  0
  6  9  1  1  0  0  0
  7 13  1  6  0  0  0
  7 11  1  0  0  0  0
  8 12  1  0  0  0  0
  8 38  1  6  0  0  0
  9  3  1  0  0  0  0
 11  1  1  0  0  0  0
 12  5  2  0  0  0  0
 15 23  1  0  0  0  0
 17 15  1  0  0  0  0
 17 22  1  0  0  0  0
 17 16  1  1  0  0  0
 18 24  1  6  0  0  0
 18 21  1  0  0  0  0
 18 20  1  0  0  0  0
 19 14  1  1  0  0  0
 19  6  1  0  0  0  0
 20 27  1  6  0  0  0
 20 14  1  0  0  0  0
 21 23  1  6  0  0  0
 21 19  1  0  0  0  0
 22 24  1  0  0  0  0
 22 25  1  1  0  0  0
 25 26  1  0  0  0  0
 29 32  1  0  0  0  0
 30 28  1  0  0  0  0
 30 35  1  1  0  0  0
 31 27  1  6  0  0  0
 31 36  1  0  0  0  0
 33 29  1  0  0  0  0
 33 28  1  0  0  0  0
 34 30  1  0  0  0  0
 34 31  1  0  0  0  0
 37 32  1  0  0  0  0
 37 36  1  0  0  0  0
 39 44  1  0  0  0  0
 40 39  1  0  0  0  0
 41 43  1  0  0  0  0
 41 40  1  1  0  0  0
 42 45  1  0  0  0  0
 43 38  1  1  0  0  0
 43 42  1  0  0  0  0
 45 44  1  0  0  0  0
 47 41  1  1  0  0  0
 48 51  1  6  0  0  0
 48 47  1  0  0  0  0
 48 54  1  0  0  0  0
 49 46  1  0  0  0  0
 49 52  1  0  0  0  0
 50 46  1  6  0  0  0
 50 48  1  0  0  0  0
 50 47  1  0  0  0  0
 52 53  1  0  0  0  0
 53 54  1  0  0  0  0
M  END
>  <MODEL>
5

>  <REMARK>
 VINA RESULT:      -6.0      5.518     11.183
  Name = 
  7 active torsions:
  status: ('A' for Active; 'I' for Inactive)
    1  A    between atoms: N_9  and  C_16
    2  A    between atoms: N_9  and  C_34
    3  A    between atoms: C_14  and  C_19
    4  A    between atoms: C_18  and  C_32
    5  A    between atoms: C_21  and  C_31
    6  A    between atoms: O_29  and  C_47
    7  A    between atoms: C_31  and  C_36
                            x       y       z     vdW  Elec       q    Type
                         _______ _______ _______ _____ _____    ______ ____

>  <TORSDO>
F 7

$$$$
=
 OpenBabel11062412103D

 54 60  0  0  1  0  0  0  0  0999 V2000
  183.8160  177.4170  138.7880 C   0  0  0  0  0  0  0  0  0  0  0  0
  186.4490  176.0420  134.8230 N   0  0  0  0  0  2  0  0  0  0  0  0
  187.1680  176.6070  135.9580 C   0  0  0  0  0  2  0  0  0  0  0  0
  183.6380  177.5510  139.9900 O   0  0  0  0  0  0  0  0  0  0  0  0
  184.3620  175.9260  136.0290 C   0  0  0  0  0  3  0  0  0  0  0  0
  187.2220  178.4460  137.3500 C   0  0  2  0  0  3  0  0  0  0  0  0
  186.2510  177.9170  138.4340 C   0  0  2  0  0  3  0  0  0  0  0  0
  183.0100  176.4140  137.9930 C   0  0  1  0  0  3  0  0  0  0  0  0
  186.8810  177.9820  136.0540 O   0  0  0  0  0  0  0  0  0  0  0  0
  185.4160  175.1410  135.3260 C   0  0  0  0  0  2  0  0  0  0  0  0
  184.8130  178.2990  138.0840 C   0  0  0  0  0  2  0  0  0  0  0  0
  183.9320  175.5330  137.2200 C   0  0  0  0  0  3  0  0  0  0  0  0
  186.5680  178.4720  139.8110 C   0  0  0  0  0  1  0  0  0  0  0  0
  188.9730  178.1800  139.1870 C   0  0  0  0  0  2  0  0  0  0  0  0
  190.7660  176.1640  135.4790 C   0  0  0  0  0  2  0  0  0  0  0  0
  188.8510  174.9060  134.7050 O   0  0  0  0  0  1  0  0  0  0  0  0
  189.9650  174.8450  135.5430 C   0  0  2  0  0  3  0  0  0  0  0  0
  190.1390  176.3920  138.1500 C   0  0  2  0  0  3  0  0  0  0  0  0
  188.7360  178.3420  137.6780 C   0  0  1  0  0  3  0  0  0  0  0  0
  189.4370  176.7570  139.4300 C   0  0  1  0  0  3  0  0  0  0  0  0
  189.3190  177.0770  137.0570 C   0  0  1  0  0  3  0  0  0  0  0  0
  189.5840  174.3820  136.9750 C   0  0  1  0  0  3  0  0  0  0  0  0
  190.0630  177.3290  135.8850 O   0  0  0  0  0  0  0  0  0  0  0  0
  190.3450  174.9840  138.0120 O   0  0  0  0  0  0  0  0  0  0  0  0
  188.2090  174.4670  137.2330 O   0  0  0  0  0  0  0  0  0  0  0  0
  187.7610  173.1470  137.2220 C   0  0  0  0  0  1  0  0  0  0  0  0
  190.3710  176.7300  140.5450 N   0  0  0  0  0  2  0  0  0  0  0  0
  188.9530  177.6240  144.7840 C   0  0  0  0  0  2  0  0  0  0  0  0
  191.3410  177.2970  145.5410 C   0  0  0  0  0  2  0  0  0  0  0  0
  188.1460  176.9890  143.6550 C   0  0  2  0  0  3  0  0  0  0  0  0
  189.7390  177.4150  141.6610 C   0  0  1  0  0  3  0  0  0  0  0  0
  191.8440  178.1020  144.3430 C   0  0  0  0  0  2  0  0  0  0  0  0
  189.9840  176.6400  145.3200 C   0  0  0  0  0  2  0  0  0  0  0  0
  189.0240  176.3890  142.5470 C   0  0  0  0  0  2  0  0  0  0  0  0
  187.2400  177.9120  143.1290 O   0  0  0  0  0  1  0  0  0  0  0  0
  190.7880  178.2340  142.4130 C   0  0  0  0  0  2  0  0  0  0  0  0
  191.6560  177.4120  143.1390 O   0  0  0  0  0  0  0  0  0  0  0  0
  182.1070  175.5560  138.8710 C   0  0  0  0  0  2  0  0  0  0  0  0
  179.5320  178.1600  136.8810 C   0  0  0  0  0  2  0  0  0  0  0  0
  179.2660  176.7900  136.7600 O   0  0  0  0  0  0  0  0  0  0  0  0
  180.4990  176.1580  136.9720 C   0  0  1  0  0  3  0  0  0  0  0  0
  179.9130  176.5200  139.3630 O   0  0  0  0  0  0  0  0  0  0  0  0
  180.6500  175.7240  138.4520 C   0  0  2  0  0  3  0  0  0  0  0  0
  179.3610  178.6170  138.3250 C   0  0  0  0  0  2  0  0  0  0  0  0
  180.3190  177.8630  139.2440 C   0  0  0  0  0  2  0  0  0  0  0  0
  181.9410  172.9380  135.5820 C   0  0  0  0  0  2  0  0  0  0  0  0
  180.7290  175.0890  135.8850 C   0  0  2  0  0  3  0  0  0  0  0  0
  179.7900  173.9460  135.8910 C   0  0  2  0  0  0  0  0  0  0  0  0
  181.4620  171.4850  135.7780 C   0  0  0  0  0  2  0  0  0  0  0  0
  181.1710  173.8190  136.4490 N   0  0  1  0  0  0  0  0  0  0  0  0
  179.6160  173.4340  134.5940 O   0  0  0  0  0  1  0  0  0  0  0  0
  180.5960  171.2650  137.0370 C   0  0  0  0  0  2  0  0  0  0  0  0
  179.1370  171.7350  136.8670 C   0  0  0  0  0  2  0  0  0  0  0  0
  178.9340  173.2600  136.9470 C   0  0  0  0  0  2  0  0  0  0  0  0
  1  4  2  0  0  0  0
  2 10  1  0  0  0  0
  2  3  1  0  0  0  0
  3  9  1  0  0  0  0
  5 12  2  0  0  0  0
  6  9  1  6  0  0  0
  6 19  1  0  0  0  0
  6  7  1  0  0  0  0
  7 13  1  1  0  0  0
  8  1  1  0  0  0  0
  8 38  1  1  0  0  0
 10  5  1  0  0  0  0
 11  7  1  0  0  0  0
 11  1  1  0  0  0  0
 12  8  1  0  0  0  0
 14 20  1  0  0  0  0
 15 17  1  0  0  0  0
 15 23  1  0  0  0  0
 17 16  1  6  0  0  0
 17 22  1  0  0  0  0
 18 24  1  6  0  0  0
 18 20  1  0  0  0  0
 19 14  1  1  0  0  0
 20 27  1  1  0  0  0
 21 23  1  6  0  0  0
 21 19  1  0  0  0  0
 21 18  1  0  0  0  0
 22 25  1  1  0  0  0
 22 24  1  0  0  0  0
 26 25  1  0  0  0  0
 28 33  1  0  0  0  0
 30 35  1  6  0  0  0
 30 28  1  0  0  0  0
 31 27  1  6  0  0  0
 31 36  1  0  0  0  0
 31 34  1  0  0  0  0
 32 29  1  0  0  0  0
 33 29  1  0  0  0  0
 34 30  1  0  0  0  0
 36 37  1  0  0  0  0
 37 32  1  0  0  0  0
 39 44  1  0  0  0  0
 40 39  1  0  0  0  0
 41 40  1  1  0  0  0
 41 43  1  0  0  0  0
 43 38  1  1  0  0  0
 43 42  1  0  0  0  0
 44 45  1  0  0  0  0
 45 42  1  0  0  0  0
 46 49  1  0  0  0  0
 47 48  1  0  0  0  0
 47 50  1  0  0  0  0
 47 41  1  1  0  0  0
 48 51  1  6  0  0  0
 48 50  1  0  0  0  0
 48 54  1  0  0  0  0
 49 52  1  0  0  0  0
 50 46  1  6  0  0  0
 53 54  1  0  0  0  0
 53 52  1  0  0  0  0
M  END
>  <MODEL>
6

>  <REMARK>
 VINA RESULT:      -5.9      3.347     10.939
  Name = 
  7 active torsions:
  status: ('A' for Active; 'I' for Inactive)
    1  A    between atoms: N_9  and  C_16
    2  A    between atoms: N_9  and  C_34
    3  A    between atoms: C_14  and  C_19
    4  A    between atoms: C_18  and  C_32
    5  A    between atoms: C_21  and  C_31
    6  A    between atoms: O_29  and  C_47
    7  A    between atoms: C_31  and  C_36
                            x       y       z     vdW  Elec       q    Type
                         _______ _______ _______ _____ _____    ______ ____

>  <TORSDO>
F 7

$$$$
=
 OpenBabel11062412103D

 54 60  0  0  1  0  0  0  0  0999 V2000
  183.5920  177.8180  136.6410 C   0  0  0  0  0  0  0  0  0  0  0  0
  185.0110  178.7190  141.3020 N   0  0  0  0  0  2  0  0  0  0  0  0
  186.0320  178.7320  140.2620 C   0  0  0  0  0  2  0  0  0  0  0  0
  183.6430  177.9840  135.4310 O   0  0  0  0  0  0  0  0  0  0  0  0
  183.2020  178.5590  139.7120 C   0  0  0  0  0  3  0  0  0  0  0  0
  186.9050  177.4610  138.5450 C   0  0  2  0  0  3  0  0  0  0  0  0
  185.9760  177.9690  137.4160 C   0  0  2  0  0  3  0  0  0  0  0  0
  182.3890  178.2750  137.4360 C   0  0  1  0  0  3  0  0  0  0  0  0
  186.2470  177.4200  139.8010 O   0  0  0  0  0  0  0  0  0  0  0  0
  183.8160  179.3840  140.7910 C   0  0  0  0  0  2  0  0  0  0  0  0
  184.7190  177.1030  137.3380 C   0  0  0  0  0  2  0  0  0  0  0  0
  182.8380  179.1300  138.5730 C   0  0  0  0  0  3  0  0  0  0  0  0
  186.6540  177.9440  136.0580 C   0  0  0  0  0  1  0  0  0  0  0  0
  188.8990  178.0520  140.0240 C   0  0  0  0  0  2  0  0  0  0  0  0
  190.6600  177.1570  135.8850 C   0  0  0  0  0  2  0  0  0  0  0  0
  189.4450  175.1430  135.3260 O   0  0  0  0  0  1  0  0  0  0  0  0
  190.5980  175.6160  135.9530 C   0  0  2  0  0  3  0  0  0  0  0  0
  190.5360  177.0420  138.6330 C   0  0  2  0  0  3  0  0  0  0  0  0
  188.3240  178.0900  138.6000 C   0  0  1  0  0  3  0  0  0  0  0  0
  190.0110  177.0200  140.0430 C   0  0  1  0  0  3  0  0  0  0  0  0
  189.2950  177.2600  137.7680 C   0  0  1  0  0  3  0  0  0  0  0  0
  190.7650  175.0180  137.3760 C   0  0  1  0  0  3  0  0  0  0  0  0
  189.5900  177.8430  136.5170 O   0  0  0  0  0  0  0  0  0  0  0  0
  191.3450  175.9040  138.3240 O   0  0  0  0  0  0  0  0  0  0  0  0
  189.5910  174.4350  137.8700 O   0  0  0  0  0  0  0  0  0  0  0  0
  189.4990  173.2070  137.2170 C   0  0  0  0  0  1  0  0  0  0  0  0
  191.0480  177.4360  140.9750 N   0  0  0  0  0  2  0  0  0  0  0  0
  190.3020  176.5650  145.3870 C   0  0  0  0  0  2  0  0  0  0  0  0
  188.2580  178.0430  145.2270 C   0  0  0  0  0  2  0  0  0  0  0  0
  191.6470  176.6070  144.6690 C   0  0  2  0  0  3  0  0  0  0  0  0
  190.8490  176.6930  142.2090 C   0  0  1  0  0  3  0  0  0  0  0  0
  187.8870  177.4060  143.8880 C   0  0  0  0  0  2  0  0  0  0  0  0
  189.7450  177.9730  145.5550 C   0  0  0  0  0  2  0  0  0  0  0  0
  191.6050  177.3880  143.3480 C   0  0  0  0  0  2  0  0  0  0  0  0
  192.1280  175.3120  144.4670 O   0  0  0  0  0  1  0  0  0  0  0  0
  189.3510  176.5510  142.4790 C   0  0  0  0  0  2  0  0  0  0  0  0
  188.7840  177.7670  142.8750 O   0  0  0  0  0  0  0  0  0  0  0  0
  181.3830  179.0460  136.5900 C   0  0  0  0  0  2  0  0  0  0  0  0
  179.5040  178.2090  140.2160 C   0  0  0  0  0  2  0  0  0  0  0  0
  178.9770  179.2630  139.4580 O   0  0  0  0  0  0  0  0  0  0  0  0
  180.0450  179.7140  138.6680 C   0  0  1  0  0  3  0  0  0  0  0  0
  179.4000  177.7740  137.2500 O   0  0  0  0  0  0  0  0  0  0  0  0
  180.0170  179.0480  137.2680 C   0  0  2  0  0  3  0  0  0  0  0  0
  179.3420  176.8840  139.4820 C   0  0  0  0  0  2  0  0  0  0  0  0
  180.0730  176.9170  138.1420 C   0  0  0  0  0  2  0  0  0  0  0  0
  181.4880  183.1110  137.7960 C   0  0  0  0  0  2  0  0  0  0  0  0
  180.1220  181.2530  138.7280 C   0  0  2  0  0  3  0  0  0  0  0  0
  179.3790  181.9800  137.6750 C   0  0  2  0  0  0  0  0  0  0  0  0
  181.2780  183.9700  136.5320 C   0  0  0  0  0  2  0  0  0  0  0  0
  180.8630  181.8100  137.6020 N   0  0  1  0  0  0  0  0  0  0  0  0
  178.9410  183.2300  138.1450 O   0  0  0  0  0  1  0  0  0  0  0  0
  180.8110  183.1750  135.2930 C   0  0  0  0  0  2  0  0  0  0  0  0
  179.3100  182.8240  135.3190 C   0  0  0  0  0  2  0  0  0  0  0  0
  178.9330  181.6600  136.2550 C   0  0  0  0  0  2  0  0  0  0  0  0
  1 11  1  0  0  0  0
  1  8  1  0  0  0  0
  3  2  1  0  0  0  0
  4  1  2  0  0  0  0
  5 10  1  0  0  0  0
  6 19  1  0  0  0  0
  6  9  1  1  0  0  0
  7 13  1  6  0  0  0
  7  6  1  0  0  0  0
  8 38  1  6  0  0  0
  8 12  1  0  0  0  0
  9  3  1  0  0  0  0
 10  2  1  0  0  0  0
 11  7  1  0  0  0  0
 12  5  2  0  0  0  0
 14 20  1  0  0  0  0
 15 17  1  0  0  0  0
 15 23  1  0  0  0  0
 17 16  1  1  0  0  0
 17 22  1  0  0  0  0
 18 24  1  6  0  0  0
 18 20  1  0  0  0  0
 19 14  1  1  0  0  0
 20 27  1  1  0  0  0
 21 23  1  6  0  0  0
 21 19  1  0  0  0  0
 21 18  1  0  0  0  0
 22 25  1  1  0  0  0
 22 24  1  0  0  0  0
 26 25  1  0  0  0  0
 28 33  1  0  0  0  0
 29 33  1  0  0  0  0
 30 35  1  6  0  0  0
 30 28  1  0  0  0  0
 31 27  1  6  0  0  0
 31 36  1  0  0  0  0
 31 34  1  0  0  0  0
 32 29  1  0  0  0  0
 34 30  1  0  0  0  0
 36 37  1  0  0  0  0
 37 32  1  0  0  0  0
 40 39  1  0  0  0  0
 41 40  1  6  0  0  0
 42 43  1  0  0  0  0
 42 45  1  0  0  0  0
 43 38  1  1  0  0  0
 43 41  1  0  0  0  0
 44 39  1  0  0  0  0
 45 44  1  0  0  0  0
 47 41  1  6  0  0  0
 48 51  1  1  0  0  0
 48 47  1  0  0  0  0
 49 46  1  0  0  0  0
 50 48  1  0  0  0  0
 50 46  1  1  0  0  0
 50 47  1  0  0  0  0
 52 53  1  0  0  0  0
 52 49  1  0  0  0  0
 53 54  1  0  0  0  0
 54 48  1  0  0  0  0
M  END
>  <MODEL>
7

>  <REMARK>
 VINA RESULT:      -5.6      3.076     10.809
  Name = 
  7 active torsions:
  status: ('A' for Active; 'I' for Inactive)
    1  A    between atoms: N_9  and  C_16
    2  A    between atoms: N_9  and  C_34
    3  A    between atoms: C_14  and  C_19
    4  A    between atoms: C_18  and  C_32
    5  A    between atoms: C_21  and  C_31
    6  A    between atoms: O_29  and  C_47
    7  A    between atoms: C_31  and  C_36
                            x       y       z     vdW  Elec       q    Type
                         _______ _______ _______ _____ _____    ______ ____

>  <TORSDO>
F 7

$$$$
=
 OpenBabel11062412103D

 54 60  0  0  1  0  0  0  0  0999 V2000
  183.5590  177.5530  135.8020 C   0  0  0  0  0  0  0  0  0  0  0  0
  184.5430  178.9610  140.4490 N   0  0  0  0  0  2  0  0  0  0  0  0
  185.6660  178.7890  139.5350 C   0  0  0  0  0  2  0  0  0  0  0  0
  183.7460  177.5620  134.5940 O   0  0  0  0  0  0  0  0  0  0  0  0
  182.9030  178.6970  138.6990 C   0  0  0  0  0  3  0  0  0  0  0  0
  186.6260  177.2660  138.0920 C   0  0  2  0  0  3  0  0  0  0  0  0
  185.8540  177.6760  136.8130 C   0  0  2  0  0  3  0  0  0  0  0  0
  182.3130  178.1700  136.3980 C   0  0  1  0  0  3  0  0  0  0  0  0
  185.8400  177.4190  139.2620 O   0  0  0  0  0  0  0  0  0  0  0  0
  183.4540  179.6180  139.7330 C   0  0  0  0  0  2  0  0  0  0  0  0
  184.5580  176.8740  136.7010 C   0  0  0  0  0  2  0  0  0  0  0  0
  182.6970  179.1380  137.4660 C   0  0  0  0  0  3  0  0  0  0  0  0
  186.6670  177.4430  135.5510 C   0  0  0  0  0  1  0  0  0  0  0  0
  188.5440  177.7960  139.6880 C   0  0  0  0  0  2  0  0  0  0  0  0
  190.5300  176.6840  135.7070 C   0  0  0  0  0  2  0  0  0  0  0  0
  189.2480  174.7210  135.1190 O   0  0  0  0  0  1  0  0  0  0  0  0
  190.3800  175.1510  135.8120 C   0  0  2  0  0  3  0  0  0  0  0  0
  190.2150  176.6600  138.4420 C   0  0  2  0  0  3  0  0  0  0  0  0
  188.0700  177.8210  138.2270 C   0  0  1  0  0  3  0  0  0  0  0  0
  189.5950  176.7090  139.8120 C   0  0  1  0  0  3  0  0  0  0  0  0
  189.0490  176.9170  137.4870 C   0  0  1  0  0  3  0  0  0  0  0  0
  190.4180  174.5900  137.2590 C   0  0  1  0  0  3  0  0  0  0  0  0
  189.4590  177.4450  136.2450 O   0  0  0  0  0  0  0  0  0  0  0  0
  190.9790  175.4720  138.2210 O   0  0  0  0  0  0  0  0  0  0  0  0
  189.1830  174.0850  137.6860 O   0  0  0  0  0  0  0  0  0  0  0  0
  189.0880  172.8250  137.0960 C   0  0  0  0  0  1  0  0  0  0  0  0
  190.5870  177.0980  140.8030 N   0  0  0  0  0  2  0  0  0  0  0  0
  188.8930  177.4420  145.0200 C   0  0  0  0  0  2  0  0  0  0  0  0
  191.2380  177.0650  145.8820 C   0  0  0  0  0  2  0  0  0  0  0  0
  188.1720  176.9360  143.7750 C   0  0  2  0  0  3  0  0  0  0  0  0
  189.8720  177.6310  141.9510 C   0  0  1  0  0  3  0  0  0  0  0  0
  191.7930  178.0190  144.8240 C   0  0  0  0  0  2  0  0  0  0  0  0
  189.9130  176.4170  145.4970 C   0  0  0  0  0  2  0  0  0  0  0  0
  189.1290  176.4910  142.6590 C   0  0  0  0  0  2  0  0  0  0  0  0
  187.2770  177.9010  143.3080 O   0  0  0  0  0  1  0  0  0  0  0  0
  190.8530  178.3680  142.8620 C   0  0  0  0  0  2  0  0  0  0  0  0
  191.6950  177.4780  143.5360 O   0  0  0  0  0  0  0  0  0  0  0  0
  181.4530  178.8800  135.3580 C   0  0  0  0  0  2  0  0  0  0  0  0
  179.5330  180.1060  138.8490 C   0  0  0  0  0  2  0  0  0  0  0  0
  178.9680  180.5200  137.6360 O   0  0  0  0  0  0  0  0  0  0  0  0
  180.0270  180.5150  136.7180 C   0  0  1  0  0  3  0  0  0  0  0  0
  179.5290  178.0790  136.6390 O   0  0  0  0  0  0  0  0  0  0  0  0
  180.0720  179.1790  135.9330 C   0  0  2  0  0  3  0  0  0  0  0  0
  179.4640  178.5910  138.9870 C   0  0  0  0  0  2  0  0  0  0  0  0
  180.2260  177.9110  137.8520 C   0  0  0  0  0  2  0  0  0  0  0  0
  178.9690  184.0790  135.9720 C   0  0  0  0  0  2  0  0  0  0  0  0
  180.0160  181.8250  135.9040 C   0  0  2  0  0  3  0  0  0  0  0  0
  180.9980  182.8520  136.3160 C   0  0  2  0  0  0  0  0  0  0  0  0
  179.4810  185.4010  136.5800 C   0  0  0  0  0  2  0  0  0  0  0  0
  179.5550  182.9590  136.6950 N   0  0  1  0  0  0  0  0  0  0  0  0
  181.3900  183.6370  135.2180 O   0  0  0  0  0  1  0  0  0  0  0  0
  180.1560  185.2470  137.9610 C   0  0  0  0  0  2  0  0  0  0  0  0
  181.6000  184.7110  137.8810 C   0  0  0  0  0  2  0  0  0  0  0  0
  181.7150  183.1980  137.6130 C   0  0  0  0  0  2  0  0  0  0  0  0
  1  8  1  0  0  0  0
  1 11  1  0  0  0  0
  3  2  1  0  0  0  0
  4  1  2  0  0  0  0
  5 10  1  0  0  0  0
  6 19  1  0  0  0  0
  6  9  1  1  0  0  0
  7 13  1  6  0  0  0
  7  6  1  0  0  0  0
  8 38  1  6  0  0  0
  8 12  1  0  0  0  0
  9  3  1  0  0  0  0
 10  2  1  0  0  0  0
 11  7  1  0  0  0  0
 12  5  2  0  0  0  0
 14 20  1  0  0  0  0
 15 17  1  0  0  0  0
 15 23  1  0  0  0  0
 17 16  1  1  0  0  0
 17 22  1  0  0  0  0
 18 24  1  6  0  0  0
 18 20  1  0  0  0  0
 19 14  1  1  0  0  0
 20 27  1  1  0  0  0
 21 23  1  6  0  0  0
 21 19  1  0  0  0  0
 21 18  1  0  0  0  0
 22 25  1  1  0  0  0
 22 24  1  0  0  0  0
 26 25  1  0  0  0  0
 28 33  1  0  0  0  0
 30 35  1  6  0  0  0
 30 28  1  0  0  0  0
 31 27  1  6  0  0  0
 31 34  1  0  0  0  0
 31 36  1  0  0  0  0
 32 29  1  0  0  0  0
 33 29  1  0  0  0  0
 34 30  1  0  0  0  0
 36 37  1  0  0  0  0
 37 32  1  0  0  0  0
 39 44  1  0  0  0  0
 40 39  1  0  0  0  0
 41 40  1  6  0  0  0
 42 45  1  0  0  0  0
 43 38  1  1  0  0  0
 43 42  1  0  0  0  0
 43 41  1  0  0  0  0
 45 44  1  0  0  0  0
 46 49  1  0  0  0  0
 47 48  1  0  0  0  0
 47 50  1  0  0  0  0
 47 41  1  1  0  0  0
 48 51  1  6  0  0  0
 48 50  1  0  0  0  0
 48 54  1  0  0  0  0
 49 52  1  0  0  0  0
 50 46  1  6  0  0  0
 53 52  1  0  0  0  0
 54 53  1  0  0  0  0
M  END
>  <MODEL>
8

>  <REMARK>
 VINA RESULT:      -5.6      3.360     11.119
  Name = 
  7 active torsions:
  status: ('A' for Active; 'I' for Inactive)
    1  A    between atoms: N_9  and  C_16
    2  A    between atoms: N_9  and  C_34
    3  A    between atoms: C_14  and  C_19
    4  A    between atoms: C_18  and  C_32
    5  A    between atoms: C_21  and  C_31
    6  A    between atoms: O_29  and  C_47
    7  A    between atoms: C_31  and  C_36
                            x       y       z     vdW  Elec       q    Type
                         _______ _______ _______ _____ _____    ______ ____

>  <TORSDO>
F 7

$$$$
=
 OpenBabel11062412103D

 54 60  0  0  1  0  0  0  0  0999 V2000
  184.7950  178.1300  139.7250 C   0  0  0  0  0  0  0  0  0  0  0  0
  188.7730  177.9490  142.6740 N   0  0  0  0  0  2  0  0  0  0  0  0
  188.9900  178.1340  141.2450 C   0  0  0  0  0  2  0  0  0  0  0  0
  184.1640  178.5470  138.7650 O   0  0  0  0  0  0  0  0  0  0  0  0
  186.3820  178.2190  142.4830 C   0  0  0  0  0  3  0  0  0  0  0  0
  188.4840  177.2170  139.1890 C   0  0  2  0  0  3  0  0  0  0  0  0
  187.1730  177.9980  138.9290 C   0  0  2  0  0  3  0  0  0  0  0  0
  184.3700  178.4650  141.1370 C   0  0  1  0  0  3  0  0  0  0  0  0
  188.6780  176.9410  140.5670 O   0  0  0  0  0  0  0  0  0  0  0  0
  187.6330  178.7650  143.0820 C   0  0  0  0  0  2  0  0  0  0  0  0
  185.9810  177.2290  139.4970 C   0  0  0  0  0  2  0  0  0  0  0  0
  185.5270  179.0360  141.8850 C   0  0  0  0  0  3  0  0  0  0  0  0
  186.9260  178.2290  137.4480 C   0  0  0  0  0  1  0  0  0  0  0  0
  191.0340  177.3190  139.2020 C   0  0  0  0  0  2  0  0  0  0  0  0
  189.8210  177.4600  134.7810 C   0  0  0  0  0  2  0  0  0  0  0  0
  188.1500  175.7130  134.7370 O   0  0  0  0  0  1  0  0  0  0  0  0
  189.5160  175.9580  134.5940 C   0  0  2  0  0  3  0  0  0  0  0  0
  191.3130  176.6390  136.9450 C   0  0  2  0  0  3  0  0  0  0  0  0
  189.7540  177.7500  138.4700 C   0  0  1  0  0  3  0  0  0  0  0  0
  191.7230  176.2730  138.3460 C   0  0  1  0  0  3  0  0  0  0  0  0
  189.8710  177.1260  137.0850 C   0  0  1  0  0  3  0  0  0  0  0  0
  190.3680  175.0040  135.4750 C   0  0  1  0  0  3  0  0  0  0  0  0
  189.4810  178.0010  136.0490 O   0  0  0  0  0  0  0  0  0  0  0  0
  191.5490  175.5880  136.0050 O   0  0  0  0  0  0  0  0  0  0  0  0
  189.6210  174.3620  136.4720 O   0  0  0  0  0  0  0  0  0  0  0  0
  189.5730  173.0250  136.0780 C   0  0  0  0  0  1  0  0  0  0  0  0
  193.1640  176.3880  138.4980 N   0  0  0  0  0  2  0  0  0  0  0  0
  196.2320  173.9380  136.1820 C   0  0  0  0  0  2  0  0  0  0  0  0
  197.8770  174.4380  138.0340 C   0  0  0  0  0  2  0  0  0  0  0  0
  195.0700  174.7420  135.6080 C   0  0  2  0  0  3  0  0  0  0  0  0
  193.7700  175.2780  137.7810 C   0  0  1  0  0  3  0  0  0  0  0  0
  196.7980  174.1680  139.0830 C   0  0  0  0  0  2  0  0  0  0  0  0
  197.3290  174.8700  136.6790 C   0  0  0  0  0  2  0  0  0  0  0  0
  194.5430  175.8160  136.5710 C   0  0  0  0  0  2  0  0  0  0  0  0
  194.0430  173.8870  135.2050 O   0  0  0  0  0  1  0  0  0  0  0  0
  194.6410  174.4690  138.7410 C   0  0  0  0  0  2  0  0  0  0  0  0
  195.8100  175.1600  139.0790 O   0  0  0  0  0  0  0  0  0  0  0  0
  183.2040  179.4460  141.1830 C   0  0  0  0  0  2  0  0  0  0  0  0
  179.4330  179.7850  142.9260 C   0  0  0  0  0  2  0  0  0  0  0  0
  179.5130  179.0710  141.7240 O   0  0  0  0  0  0  0  0  0  0  0  0
  180.6490  179.5740  141.0750 C   0  0  1  0  0  3  0  0  0  0  0  0
  181.8280  178.0090  142.6070 O   0  0  0  0  0  0  0  0  0  0  0  0
  181.8900  178.6930  141.3690 C   0  0  2  0  0  3  0  0  0  0  0  0
  180.2080  179.0740  144.0280 C   0  0  0  0  0  2  0  0  0  0  0  0
  181.6810  178.9430  143.6510 C   0  0  0  0  0  2  0  0  0  0  0  0
  181.4030  179.7780  137.3640 C   0  0  0  0  0  2  0  0  0  0  0  0
  180.3160  179.8720  139.5980 C   0  0  2  0  0  3  0  0  0  0  0  0
  179.8030  178.7310  138.8080 C   0  0  2  0  0  0  0  0  0  0  0  0
  181.4110  178.6580  136.3030 C   0  0  0  0  0  2  0  0  0  0  0  0
  181.2220  179.1880  138.6830 N   0  0  1  0  0  0  0  0  0  0  0  0
  178.9370  179.1750  137.7930 O   0  0  0  0  0  1  0  0  0  0  0  0
  181.5910  177.2360  136.8790 C   0  0  0  0  0  2  0  0  0  0  0  0
  180.3020  176.6580  137.4960 C   0  0  0  0  0  2  0  0  0  0  0  0
  179.9410  177.2170  138.8860 C   0  0  0  0  0  2  0  0  0  0  0  0
  1  8  1  0  0  0  0
  2 10  1  0  0  0  0
  3  2  1  0  0  0  0
  4  1  2  0  0  0  0
  5 10  1  0  0  0  0
  6  9  1  1  0  0  0
  7 13  1  6  0  0  0
  7  6  1  0  0  0  0
  7 11  1  0  0  0  0
  8 38  1  6  0  0  0
  8 12  1  0  0  0  0
  9  3  1  0  0  0  0
 11  1  1  0  0  0  0
 12  5  2  0  0  0  0
 15 23  1  0  0  0  0
 17 16  1  1  0  0  0
 17 15  1  0  0  0  0
 17 22  1  0  0  0  0
 18 24  1  6  0  0  0
 18 21  1  0  0  0  0
 18 20  1  0  0  0  0
 19  6  1  0  0  0  0
 19 14  1  1  0  0  0
 20 27  1  6  0  0  0
 20 14  1  0  0  0  0
 21 23  1  6  0  0  0
 21 19  1  0  0  0  0
 22 24  1  0  0  0  0
 22 25  1  1  0  0  0
 26 25  1  0  0  0  0
 28 33  1  0  0  0  0
 29 32  1  0  0  0  0
 30 35  1  1  0  0  0
 30 28  1  0  0  0  0
 30 34  1  0  0  0  0
 31 27  1  1  0  0  0
 31 36  1  0  0  0  0
 33 29  1  0  0  0  0
 34 31  1  0  0  0  0
 36 37  1  0  0  0  0
 37 32  1  0  0  0  0
 39 44  1  0  0  0  0
 40 39  1  0  0  0  0
 41 43  1  0  0  0  0
 41 40  1  6  0  0  0
 42 45  1  0  0  0  0
 43 38  1  1  0  0  0
 43 42  1  0  0  0  0
 45 44  1  0  0  0  0
 47 41  1  1  0  0  0
 48 51  1  6  0  0  0
 48 54  1  0  0  0  0
 48 47  1  0  0  0  0
 49 52  1  0  0  0  0
 49 46  1  0  0  0  0
 50 46  1  6  0  0  0
 50 48  1  0  0  0  0
 50 47  1  0  0  0  0
 52 53  1  0  0  0  0
 53 54  1  0  0  0  0
M  END
>  <MODEL>
9

>  <REMARK>
 VINA RESULT:      -5.2      4.663     10.747
  Name = 
  7 active torsions:
  status: ('A' for Active; 'I' for Inactive)
    1  A    between atoms: N_9  and  C_16
    2  A    between atoms: N_9  and  C_34
    3  A    between atoms: C_14  and  C_19
    4  A    between atoms: C_18  and  C_32
    5  A    between atoms: C_21  and  C_31
    6  A    between atoms: O_29  and  C_47
    7  A    between atoms: C_31  and  C_36
                            x       y       z     vdW  Elec       q    Type
                         _______ _______ _______ _____ _____    ______ ____

>  <TORSDO>
F 7

$$$$
