=
 OpenBabel11062417003D

 26 28  0  0  1  0  0  0  0  0999 V2000
  186.5890  178.3820  145.2630 C   0  0  2  0  0  3  0  0  0  0  0  0
  184.1910  178.7250  142.3070 C   0  0  0  0  0  0  0  0  0  0  0  0
  182.9360  178.8390  144.3890 C   0  0  0  0  0  3  0  0  0  0  0  0
  185.3700  178.5800  143.0540 C   0  0  0  0  0  3  0  0  0  0  0  0
  182.9640  178.8550  142.9910 C   0  0  0  0  0  0  0  0  0  0  0  0
  184.1170  178.6920  145.1180 C   0  0  0  0  0  3  0  0  0  0  0  0
  181.7660  179.0120  142.3040 O   0  0  0  0  0  1  0  0  0  0  0  0
  185.3410  178.5710  144.4550 C   0  0  0  0  0  0  0  0  0  0  0  0
  184.9000  179.6570  140.2380 O   0  0  0  0  0  1  0  0  0  0  0  0
  184.2790  178.7330  140.8310 C   0  0  0  0  0  0  0  0  0  0  0  0
  183.6910  177.7280  140.0720 O   0  0  0  0  0  0  0  0  0  0  0  0
  187.5430  176.6110  143.7210 C   0  0  0  0  0  3  0  0  0  0  0  0
  188.5990  176.0900  142.9670 C   0  0  0  0  0  3  0  0  0  0  0  0
  189.9960  177.9520  143.6490 C   0  0  0  0  0  0  0  0  0  0  0  0
  187.7110  177.7930  144.4530 C   0  0  0  0  0  0  0  0  0  0  0  0
  188.9380  178.4630  144.4060 C   0  0  0  0  0  3  0  0  0  0  0  0
  189.8280  176.7580  142.9260 C   0  0  0  0  0  0  0  0  0  0  0  0
  191.5140  178.8370  143.6250 Cl  0  0  0  0  0  0  0  0  0  0  0  0
  190.9720  176.7740  140.8600 O   0  0  0  0  0  1  0  0  0  0  0  0
  190.9380  176.1750  142.1190 C   0  0  0  0  0  2  0  0  0  0  0  0
  186.2960  177.6170  146.5540 C   0  0  0  0  0  2  0  0  0  0  0  0
  186.4470  179.4810  147.9850 O   0  0  0  0  0  0  0  0  0  0  0  0
  186.8240  178.3440  147.7530 C   0  0  0  0  0  0  0  0  0  0  0  0
  187.8850  177.7210  148.6070 C   0  0  0  0  0  3  0  0  0  0  0  0
  188.7810  176.8370  147.7560 C   0  0  0  0  0  2  0  0  0  0  0  0
  189.2600  178.2090  148.1770 C   0  0  0  0  0  2  0  0  0  0  0  0
  1 21  1  1  0  0  0
  2  5  2  0  0  0  0
  2  4  1  0  0  0  0
  3  6  2  0  0  0  0
  4  8  2  0  0  0  0
  5  3  1  0  0  0  0
  7  5  1  0  0  0  0
  8  6  1  0  0  0  0
  8  1  1  0  0  0  0
  9 10  1  0  0  0  0
 10  2  1  0  0  0  0
 11 10  2  0  0  0  0
 12 15  1  0  0  0  0
 13 12  2  0  0  0  0
 14 16  1  0  0  0  0
 15  1  1  0  0  0  0
 16 15  2  0  0  0  0
 17 13  1  0  0  0  0
 17 14  2  0  0  0  0
 18 14  1  0  0  0  0
 19 20  1  0  0  0  0
 20 17  1  0  0  0  0
 21 23  1  0  0  0  0
 23 22  2  0  0  0  0
 23 24  1  0  0  0  0
 25 26  1  0  0  0  0
 25 24  1  0  0  0  0
 26 24  1  0  0  0  0
M  END
>  <MODEL>
1

>  <REMARK>
 VINA RESULT:      -8.4      0.000      0.000
  Name = 
  7 active torsions:
  status: ('A' for Active; 'I' for Inactive)
    1  A    between atoms: C_2  and  C_9
    2  A    between atoms: C_4  and  C_14
    3  A    between atoms: C_8  and  C_14
    4  A    between atoms: C_8  and  C_26
    5  A    between atoms: C_18  and  C_26
    6  A    between atoms: C_20  and  C_26
    7  A    between atoms: C_22  and  C_25
                            x       y       z     vdW  Elec       q    Type
                         _______ _______ _______ _____ _____    ______ ____

>  <TORSDO>
F 7

$$$$
=
 OpenBabel11062417003D

 26 28  0  0  1  0  0  0  0  0999 V2000
  189.6200  176.7990  143.8350 C   0  0  2  0  0  3  0  0  0  0  0  0
  190.2690  176.9960  140.0750 C   0  0  0  0  0  0  0  0  0  0  0  0
  188.5490  178.6040  140.6880 C   0  0  0  0  0  3  0  0  0  0  0  0
  190.3580  176.6140  141.4220 C   0  0  0  0  0  3  0  0  0  0  0  0
  189.3500  178.0040  139.7120 C   0  0  0  0  0  0  0  0  0  0  0  0
  188.6480  178.2130  142.0240 C   0  0  0  0  0  3  0  0  0  0  0  0
  189.2260  178.4290  138.3950 O   0  0  0  0  0  1  0  0  0  0  0  0
  189.5580  177.2220  142.4000 C   0  0  0  0  0  0  0  0  0  0  0  0
  192.2970  176.7690  138.8560 O   0  0  0  0  0  1  0  0  0  0  0  0
  191.1390  176.3250  139.0840 C   0  0  0  0  0  0  0  0  0  0  0  0
  190.7050  175.1980  138.3970 O   0  0  0  0  0  0  0  0  0  0  0  0
  187.1170  177.1350  144.0430 C   0  0  0  0  0  3  0  0  0  0  0  0
  185.9940  177.5140  144.7860 C   0  0  0  0  0  3  0  0  0  0  0  0
  187.4240  178.0160  146.6800 C   0  0  0  0  0  0  0  0  0  0  0  0
  188.3970  177.2100  144.6070 C   0  0  0  0  0  0  0  0  0  0  0  0
  188.5430  177.6430  145.9290 C   0  0  0  0  0  3  0  0  0  0  0  0
  186.1420  177.9530  146.1060 C   0  0  0  0  0  0  0  0  0  0  0  0
  187.6660  178.5500  148.3370 Cl  0  0  0  0  0  0  0  0  0  0  0  0
  184.0270  179.0000  146.0230 O   0  0  0  0  0  1  0  0  0  0  0  0
  184.9270  178.3560  146.8710 C   0  0  0  0  0  2  0  0  0  0  0  0
  190.9330  177.2430  144.4820 C   0  0  0  0  0  2  0  0  0  0  0  0
  191.9420  175.1360  144.1810 O   0  0  0  0  0  0  0  0  0  0  0  0
  191.7420  176.0690  144.9430 C   0  0  0  0  0  0  0  0  0  0  0  0
  192.2180  175.9890  146.3610 C   0  0  0  0  0  3  0  0  0  0  0  0
  191.3390  176.8510  147.2510 C   0  0  0  0  0  2  0  0  0  0  0  0
  191.1540  175.3500  147.2380 C   0  0  0  0  0  2  0  0  0  0  0  0
  1 21  1  1  0  0  0
  1 15  1  0  0  0  0
  2  4  1  0  0  0  0
  3  6  2  0  0  0  0
  4  8  2  0  0  0  0
  5  2  2  0  0  0  0
  5  3  1  0  0  0  0
  6  8  1  0  0  0  0
  7  5  1  0  0  0  0
  8  1  1  0  0  0  0
  9 10  1  0  0  0  0
 10  2  1  0  0  0  0
 11 10  2  0  0  0  0
 12 15  2  0  0  0  0
 12 13  1  0  0  0  0
 13 17  2  0  0  0  0
 14 18  1  0  0  0  0
 15 16  1  0  0  0  0
 16 14  2  0  0  0  0
 17 14  1  0  0  0  0
 17 20  1  0  0  0  0
 19 20  1  0  0  0  0
 21 23  1  0  0  0  0
 22 23  2  0  0  0  0
 23 24  1  0  0  0  0
 24 26  1  0  0  0  0
 24 25  1  0  0  0  0
 26 25  1  0  0  0  0
M  END
>  <MODEL>
2

>  <REMARK>
 VINA RESULT:      -8.1      2.899      5.894
  Name = 
  7 active torsions:
  status: ('A' for Active; 'I' for Inactive)
    1  A    between atoms: C_2  and  C_9
    2  A    between atoms: C_4  and  C_14
    3  A    between atoms: C_8  and  C_14
    4  A    between atoms: C_8  and  C_26
    5  A    between atoms: C_18  and  C_26
    6  A    between atoms: C_20  and  C_26
    7  A    between atoms: C_22  and  C_25
                            x       y       z     vdW  Elec       q    Type
                         _______ _______ _______ _____ _____    ______ ____

>  <TORSDO>
F 7

$$$$
=
 OpenBabel11062417003D

 26 28  0  0  1  0  0  0  0  0999 V2000
  188.1030  177.2440  144.7470 C   0  0  2  0  0  3  0  0  0  0  0  0
  188.8800  177.6640  141.0300 C   0  0  0  0  0  0  0  0  0  0  0  0
  190.4900  176.1370  142.0290 C   0  0  0  0  0  3  0  0  0  0  0  0
  188.2580  177.7890  142.2810 C   0  0  0  0  0  3  0  0  0  0  0  0
  190.0090  176.8260  140.9110 C   0  0  0  0  0  0  0  0  0  0  0  0
  189.8620  176.2730  143.2680 C   0  0  0  0  0  3  0  0  0  0  0  0
  190.6600  176.6570  139.6950 O   0  0  0  0  0  1  0  0  0  0  0  0
  188.7380  177.0920  143.3990 C   0  0  0  0  0  0  0  0  0  0  0  0
  187.0840  178.4740  139.6990 O   0  0  0  0  0  1  0  0  0  0  0  0
  188.3310  178.4190  139.8820 C   0  0  0  0  0  0  0  0  0  0  0  0
  189.1690  179.0830  138.9940 O   0  0  0  0  0  0  0  0  0  0  0  0
  186.0910  178.3900  145.7780 C   0  0  0  0  0  3  0  0  0  0  0  0
  184.8000  178.9170  145.6720 C   0  0  0  0  0  3  0  0  0  0  0  0
  184.7510  178.3080  143.3240 C   0  0  0  0  0  0  0  0  0  0  0  0
  186.7120  177.8070  144.6650 C   0  0  0  0  0  0  0  0  0  0  0  0
  186.0390  177.7770  143.4400 C   0  0  0  0  0  3  0  0  0  0  0  0
  184.1250  178.8800  144.4470 C   0  0  0  0  0  0  0  0  0  0  0  0
  183.9540  178.2450  141.7600 Cl  0  0  0  0  0  0  0  0  0  0  0  0
  181.8140  178.4060  144.3500 O   0  0  0  0  0  1  0  0  0  0  0  0
  182.7470  179.4430  144.3670 C   0  0  0  0  0  2  0  0  0  0  0  0
  189.0210  178.0100  145.7020 C   0  0  0  0  0  2  0  0  0  0  0  0
  188.6730  176.4950  147.4710 O   0  0  0  0  0  0  0  0  0  0  0  0
  189.4860  177.1410  146.8300 C   0  0  0  0  0  0  0  0  0  0  0  0
  190.9270  177.1410  147.2390 C   0  0  0  0  0  3  0  0  0  0  0  0
  191.4110  175.7140  147.4280 C   0  0  0  0  0  2  0  0  0  0  0  0
  191.7780  176.4720  146.1720 C   0  0  0  0  0  2  0  0  0  0  0  0
  1 21  1  1  0  0  0
  2  4  1  0  0  0  0
  3  6  2  0  0  0  0
  4  8  2  0  0  0  0
  5  2  2  0  0  0  0
  5  3  1  0  0  0  0
  6  8  1  0  0  0  0
  7  5  1  0  0  0  0
  8  1  1  0  0  0  0
  9 10  1  0  0  0  0
 10  2  1  0  0  0  0
 11 10  2  0  0  0  0
 13 12  1  0  0  0  0
 14 16  2  0  0  0  0
 14 17  1  0  0  0  0
 15  1  1  0  0  0  0
 15 12  2  0  0  0  0
 16 15  1  0  0  0  0
 17 13  2  0  0  0  0
 18 14  1  0  0  0  0
 19 20  1  0  0  0  0
 20 17  1  0  0  0  0
 21 23  1  0  0  0  0
 23 24  1  0  0  0  0
 23 22  2  0  0  0  0
 24 25  1  0  0  0  0
 26 24  1  0  0  0  0
 26 25  1  0  0  0  0
M  END
>  <MODEL>
3

>  <REMARK>
 VINA RESULT:      -8.0      2.485      5.534
  Name = 
  7 active torsions:
  status: ('A' for Active; 'I' for Inactive)
    1  A    between atoms: C_2  and  C_9
    2  A    between atoms: C_4  and  C_14
    3  A    between atoms: C_8  and  C_14
    4  A    between atoms: C_8  and  C_26
    5  A    between atoms: C_18  and  C_26
    6  A    between atoms: C_20  and  C_26
    7  A    between atoms: C_22  and  C_25
                            x       y       z     vdW  Elec       q    Type
                         _______ _______ _______ _____ _____    ______ ____

>  <TORSDO>
F 7

$$$$
=
 OpenBabel11062417003D

 26 28  0  0  1  0  0  0  0  0999 V2000
  186.9400  177.7170  143.4150 C   0  0  2  0  0  3  0  0  0  0  0  0
  189.2330  177.3470  146.4480 C   0  0  0  0  0  0  0  0  0  0  0  0
  187.0550  178.1550  147.1710 C   0  0  0  0  0  3  0  0  0  0  0  0
  188.7600  177.3240  145.1270 C   0  0  0  0  0  3  0  0  0  0  0  0
  188.3630  177.7690  147.4760 C   0  0  0  0  0  0  0  0  0  0  0  0
  186.5980  178.1280  145.8510 C   0  0  0  0  0  3  0  0  0  0  0  0
  188.7740  177.8030  148.8030 O   0  0  0  0  0  1  0  0  0  0  0  0
  187.4450  177.7050  144.8250 C   0  0  0  0  0  0  0  0  0  0  0  0
  190.8700  176.0360  147.5680 O   0  0  0  0  0  1  0  0  0  0  0  0
  190.6270  176.9320  146.7140 C   0  0  0  0  0  0  0  0  0  0  0  0
  191.6900  177.5070  146.0280 O   0  0  0  0  0  0  0  0  0  0  0  0
  189.0330  176.5100  142.6500 C   0  0  0  0  0  3  0  0  0  0  0  0
  190.0310  176.2820  141.6970 C   0  0  0  0  0  3  0  0  0  0  0  0
  189.0130  177.9360  140.2430 C   0  0  0  0  0  0  0  0  0  0  0  0
  188.0310  177.4600  142.4130 C   0  0  0  0  0  0  0  0  0  0  0  0
  188.0230  178.1640  141.2040 C   0  0  0  0  0  3  0  0  0  0  0  0
  190.0250  176.9910  140.4910 C   0  0  0  0  0  0  0  0  0  0  0  0
  188.9500  178.8470  138.7420 Cl  0  0  0  0  0  0  0  0  0  0  0  0
  190.8060  175.5840  138.7620 O   0  0  0  0  0  1  0  0  0  0  0  0
  191.1050  176.7320  139.4970 C   0  0  0  0  0  2  0  0  0  0  0  0
  186.1330  178.9860  143.1320 C   0  0  0  0  0  2  0  0  0  0  0  0
  184.3270  177.8190  142.1700 O   0  0  0  0  0  0  0  0  0  0  0  0
  184.6760  178.6820  142.9610 C   0  0  0  0  0  0  0  0  0  0  0  0
  183.6440  179.4980  143.6770 C   0  0  0  0  0  3  0  0  0  0  0  0
  182.4030  178.6590  143.9270 C   0  0  0  0  0  2  0  0  0  0  0  0
  183.3770  178.9170  145.0560 C   0  0  0  0  0  2  0  0  0  0  0  0
  1 21  1  6  0  0  0
  1  8  1  0  0  0  0
  2 10  1  0  0  0  0
  2  5  1  0  0  0  0
  3  5  2  0  0  0  0
  4  2  2  0  0  0  0
  5  7  1  0  0  0  0
  6  3  1  0  0  0  0
  8  4  1  0  0  0  0
  8  6  2  0  0  0  0
 10  9  1  0  0  0  0
 11 10  2  0  0  0  0
 13 12  2  0  0  0  0
 14 17  2  0  0  0  0
 14 16  1  0  0  0  0
 15 12  1  0  0  0  0
 15  1  1  0  0  0  0
 16 15  2  0  0  0  0
 17 13  1  0  0  0  0
 18 14  1  0  0  0  0
 19 20  1  0  0  0  0
 20 17  1  0  0  0  0
 22 23  2  0  0  0  0
 23 21  1  0  0  0  0
 23 24  1  0  0  0  0
 24 25  1  0  0  0  0
 24 26  1  0  0  0  0
 25 26  1  0  0  0  0
M  END
>  <MODEL>
4

>  <REMARK>
 VINA RESULT:      -7.9      2.463      5.693
  Name = 
  7 active torsions:
  status: ('A' for Active; 'I' for Inactive)
    1  A    between atoms: C_2  and  C_9
    2  A    between atoms: C_4  and  C_14
    3  A    between atoms: C_8  and  C_14
    4  A    between atoms: C_8  and  C_26
    5  A    between atoms: C_18  and  C_26
    6  A    between atoms: C_20  and  C_26
    7  A    between atoms: C_22  and  C_25
                            x       y       z     vdW  Elec       q    Type
                         _______ _______ _______ _____ _____    ______ ____

>  <TORSDO>
F 7

$$$$
=
 OpenBabel11062417003D

 26 28  0  0  1  0  0  0  0  0999 V2000
  188.4560  177.3900  143.1210 C   0  0  2  0  0  3  0  0  0  0  0  0
  185.4510  178.4450  145.2320 C   0  0  0  0  0  0  0  0  0  0  0  0
  184.8160  178.3940  142.8840 C   0  0  0  0  0  3  0  0  0  0  0  0
  186.7420  178.0340  144.8670 C   0  0  0  0  0  3  0  0  0  0  0  0
  184.4820  178.6250  144.2210 C   0  0  0  0  0  0  0  0  0  0  0  0
  186.1050  177.9860  142.5360 C   0  0  0  0  0  3  0  0  0  0  0  0
  183.1860  179.0220  144.5250 O   0  0  0  0  0  1  0  0  0  0  0  0
  187.0720  177.7960  143.5260 C   0  0  0  0  0  0  0  0  0  0  0  0
  184.3900  177.8920  147.2870 O   0  0  0  0  0  0  0  0  0  0  0  0
  185.1540  178.6780  146.6620 C   0  0  0  0  0  0  0  0  0  0  0  0
  185.7120  179.7530  147.3440 O   0  0  0  0  0  1  0  0  0  0  0  0
  190.6320  176.5990  144.1540 C   0  0  0  0  0  3  0  0  0  0  0  0
  191.4490  176.3950  145.2700 C   0  0  0  0  0  3  0  0  0  0  0  0
  189.7180  177.3170  146.6990 C   0  0  0  0  0  0  0  0  0  0  0  0
  189.3510  177.1480  144.3050 C   0  0  0  0  0  0  0  0  0  0  0  0
  188.9050  177.5120  145.5790 C   0  0  0  0  0  3  0  0  0  0  0  0
  190.9980  176.7530  146.5450 C   0  0  0  0  0  0  0  0  0  0  0  0
  189.1070  177.7940  148.2750 Cl  0  0  0  0  0  0  0  0  0  0  0  0
  192.6750  175.3860  147.4920 O   0  0  0  0  0  1  0  0  0  0  0  0
  191.8890  176.5160  147.7170 C   0  0  0  0  0  2  0  0  0  0  0  0
  189.0380  178.3700  142.1010 C   0  0  0  0  0  2  0  0  0  0  0  0
  188.4700  177.8920  139.8650 O   0  0  0  0  0  0  0  0  0  0  0  0
  189.2640  177.7090  140.7750 C   0  0  0  0  0  0  0  0  0  0  0  0
  190.3980  176.7470  140.5930 C   0  0  0  0  0  3  0  0  0  0  0  0
  191.0110  176.9260  139.2140 C   0  0  0  0  0  2  0  0  0  0  0  0
  191.7070  177.5020  140.4270 C   0  0  0  0  0  2  0  0  0  0  0  0
  1 21  1  6  0  0  0
  1  8  1  0  0  0  0
  1 15  1  0  0  0  0
  2 10  1  0  0  0  0
  3  5  1  0  0  0  0
  4  2  1  0  0  0  0
  5  7  1  0  0  0  0
  5  2  2  0  0  0  0
  6  3  2  0  0  0  0
  6  8  1  0  0  0  0
  8  4  2  0  0  0  0
 10  9  2  0  0  0  0
 10 11  1  0  0  0  0
 12 15  2  0  0  0  0
 12 13  1  0  0  0  0
 13 17  2  0  0  0  0
 14 18  1  0  0  0  0
 15 16  1  0  0  0  0
 16 14  2  0  0  0  0
 17 14  1  0  0  0  0
 17 20  1  0  0  0  0
 19 20  1  0  0  0  0
 22 23  2  0  0  0  0
 23 21  1  0  0  0  0
 24 23  1  0  0  0  0
 25 26  1  0  0  0  0
 25 24  1  0  0  0  0
 26 24  1  0  0  0  0
M  END
>  <MODEL>
5

>  <REMARK>
 VINA RESULT:      -7.8      2.540      5.335
  Name = 
  7 active torsions:
  status: ('A' for Active; 'I' for Inactive)
    1  A    between atoms: C_2  and  C_9
    2  A    between atoms: C_4  and  C_14
    3  A    between atoms: C_8  and  C_14
    4  A    between atoms: C_8  and  C_26
    5  A    between atoms: C_18  and  C_26
    6  A    between atoms: C_20  and  C_26
    7  A    between atoms: C_22  and  C_25
                            x       y       z     vdW  Elec       q    Type
                         _______ _______ _______ _____ _____    ______ ____

>  <TORSDO>
F 7

$$$$
=
 OpenBabel11062417003D

 26 28  0  0  1  0  0  0  0  0999 V2000
  186.5520  178.4140  144.9000 C   0  0  2  0  0  3  0  0  0  0  0  0
  183.1770  178.7870  143.1470 C   0  0  0  0  0  0  0  0  0  0  0  0
  184.9040  178.3330  141.4950 C   0  0  0  0  0  3  0  0  0  0  0  0
  184.1540  178.7190  144.1520 C   0  0  0  0  0  3  0  0  0  0  0  0
  183.5650  178.5900  141.8050 C   0  0  0  0  0  0  0  0  0  0  0  0
  185.8650  178.2690  142.5050 C   0  0  0  0  0  3  0  0  0  0  0  0
  182.6390  178.6360  140.7700 O   0  0  0  0  0  1  0  0  0  0  0  0
  185.4940  178.4540  143.8390 C   0  0  0  0  0  0  0  0  0  0  0  0
  181.2100  180.1220  143.1400 O   0  0  0  0  0  0  0  0  0  0  0  0
  181.7760  179.0660  143.5320 C   0  0  0  0  0  0  0  0  0  0  0  0
  181.0580  178.1740  144.3210 O   0  0  0  0  0  1  0  0  0  0  0  0
  187.9000  176.5160  143.8970 C   0  0  0  0  0  3  0  0  0  0  0  0
  189.1090  175.9930  143.4290 C   0  0  0  0  0  3  0  0  0  0  0  0
  190.2080  178.0950  143.9380 C   0  0  0  0  0  0  0  0  0  0  0  0
  187.8410  177.8220  144.4010 C   0  0  0  0  0  0  0  0  0  0  0  0
  188.9970  178.6080  144.4110 C   0  0  0  0  0  3  0  0  0  0  0  0
  190.2670  176.7790  143.4450 C   0  0  0  0  0  0  0  0  0  0  0  0
  191.6280  179.1290  143.9720 Cl  0  0  0  0  0  0  0  0  0  0  0  0
  192.0560  175.3050  143.8930 O   0  0  0  0  0  1  0  0  0  0  0  0
  191.5430  176.1920  142.9460 C   0  0  0  0  0  2  0  0  0  0  0  0
  186.0250  177.7530  146.1750 C   0  0  0  0  0  2  0  0  0  0  0  0
  186.0620  179.6740  147.5370 O   0  0  0  0  0  0  0  0  0  0  0  0
  186.4310  178.5180  147.3970 C   0  0  0  0  0  0  0  0  0  0  0  0
  187.3700  177.9090  148.3920 C   0  0  0  0  0  3  0  0  0  0  0  0
  188.3040  176.9350  147.6940 C   0  0  0  0  0  2  0  0  0  0  0  0
  188.8020  178.3100  148.0790 C   0  0  0  0  0  2  0  0  0  0  0  0
  1 21  1  1  0  0  0
  2 10  1  0  0  0  0
  2  4  1  0  0  0  0
  3  5  1  0  0  0  0
  3  6  2  0  0  0  0
  5  2  2  0  0  0  0
  6  8  1  0  0  0  0
  7  5  1  0  0  0  0
  8  4  2  0  0  0  0
  8  1  1  0  0  0  0
  9 10  2  0  0  0  0
 10 11  1  0  0  0  0
 12 15  1  0  0  0  0
 13 17  1  0  0  0  0
 13 12  2  0  0  0  0
 14 18  1  0  0  0  0
 14 16  1  0  0  0  0
 15 16  2  0  0  0  0
 15  1  1  0  0  0  0
 17 14  2  0  0  0  0
 20 17  1  0  0  0  0
 20 19  1  0  0  0  0
 21 23  1  0  0  0  0
 23 22  2  0  0  0  0
 23 24  1  0  0  0  0
 25 26  1  0  0  0  0
 25 24  1  0  0  0  0
 26 24  1  0  0  0  0
M  END
>  <MODEL>
6

>  <REMARK>
 VINA RESULT:      -7.8      1.133      2.063
  Name = 
  7 active torsions:
  status: ('A' for Active; 'I' for Inactive)
    1  A    between atoms: C_2  and  C_9
    2  A    between atoms: C_4  and  C_14
    3  A    between atoms: C_8  and  C_14
    4  A    between atoms: C_8  and  C_26
    5  A    between atoms: C_18  and  C_26
    6  A    between atoms: C_20  and  C_26
    7  A    between atoms: C_22  and  C_25
                            x       y       z     vdW  Elec       q    Type
                         _______ _______ _______ _____ _____    ______ ____

>  <TORSDO>
F 7

$$$$
=
 OpenBabel11062417003D

 26 28  0  0  1  0  0  0  0  0999 V2000
  188.6010  177.7320  143.1000 C   0  0  2  0  0  3  0  0  0  0  0  0
  189.6610  177.4800  146.7630 C   0  0  0  0  0  0  0  0  0  0  0  0
  191.4650  176.6820  145.3390 C   0  0  0  0  0  3  0  0  0  0  0  0
  188.9010  177.7440  145.6120 C   0  0  0  0  0  3  0  0  0  0  0  0
  190.9570  176.9430  146.6150 C   0  0  0  0  0  0  0  0  0  0  0  0
  190.6970  176.9480  144.2030 C   0  0  0  0  0  3  0  0  0  0  0  0
  191.7580  176.6720  147.7180 O   0  0  0  0  0  1  0  0  0  0  0  0
  189.4150  177.4870  144.3340 C   0  0  0  0  0  0  0  0  0  0  0  0
  189.6090  178.6280  148.8440 O   0  0  0  0  0  1  0  0  0  0  0  0
  189.0720  177.7730  148.0880 C   0  0  0  0  0  0  0  0  0  0  0  0
  187.9220  177.1240  148.5210 O   0  0  0  0  0  0  0  0  0  0  0  0
  186.2480  178.3660  142.4040 C   0  0  0  0  0  3  0  0  0  0  0  0
  184.9180  178.6580  142.7240 C   0  0  0  0  0  3  0  0  0  0  0  0
  185.4120  178.3120  145.0730 C   0  0  0  0  0  0  0  0  0  0  0  0
  187.1680  178.0610  143.4160 C   0  0  0  0  0  0  0  0  0  0  0  0
  186.7410  178.0280  144.7470 C   0  0  0  0  0  3  0  0  0  0  0  0
  184.4940  178.6310  144.0560 C   0  0  0  0  0  0  0  0  0  0  0  0
  184.9310  178.2520  146.7620 Cl  0  0  0  0  0  0  0  0  0  0  0  0
  182.3300  179.0030  143.1860 O   0  0  0  0  0  1  0  0  0  0  0  0
  183.0710  178.9540  144.3660 C   0  0  0  0  0  2  0  0  0  0  0  0
  188.7620  176.5850  142.1010 C   0  0  0  0  0  2  0  0  0  0  0  0
  190.4900  176.4490  140.5050 O   0  0  0  0  0  0  0  0  0  0  0  0
  189.4790  177.0330  140.8640 C   0  0  0  0  0  0  0  0  0  0  0  0
  189.0220  178.2540  140.1260 C   0  0  0  0  0  3  0  0  0  0  0  0
  189.4170  178.1520  138.6620 C   0  0  0  0  0  2  0  0  0  0  0  0
  187.9880  177.8780  139.0760 C   0  0  0  0  0  2  0  0  0  0  0  0
  1 21  1  6  0  0  0
  1 15  1  0  0  0  0
  1  8  1  0  0  0  0
  2 10  1  0  0  0  0
  3  5  2  0  0  0  0
  4  2  2  0  0  0  0
  5  2  1  0  0  0  0
  5  7  1  0  0  0  0
  6  8  2  0  0  0  0
  6  3  1  0  0  0  0
  8  4  1  0  0  0  0
 10 11  2  0  0  0  0
 10  9  1  0  0  0  0
 12 13  2  0  0  0  0
 12 15  1  0  0  0  0
 13 17  1  0  0  0  0
 14 18  1  0  0  0  0
 15 16  2  0  0  0  0
 16 14  1  0  0  0  0
 17 20  1  0  0  0  0
 17 14  2  0  0  0  0
 19 20  1  0  0  0  0
 22 23  2  0  0  0  0
 23 21  1  0  0  0  0
 24 23  1  0  0  0  0
 25 26  1  0  0  0  0
 25 24  1  0  0  0  0
 26 24  1  0  0  0  0
M  END
>  <MODEL>
7

>  <REMARK>
 VINA RESULT:      -7.7      2.701      7.371
  Name = 
  7 active torsions:
  status: ('A' for Active; 'I' for Inactive)
    1  A    between atoms: C_2  and  C_9
    2  A    between atoms: C_4  and  C_14
    3  A    between atoms: C_8  and  C_14
    4  A    between atoms: C_8  and  C_26
    5  A    between atoms: C_18  and  C_26
    6  A    between atoms: C_20  and  C_26
    7  A    between atoms: C_22  and  C_25
                            x       y       z     vdW  Elec       q    Type
                         _______ _______ _______ _____ _____    ______ ____

>  <TORSDO>
F 7

$$$$
=
 OpenBabel11062417003D

 26 28  0  0  1  0  0  0  0  0999 V2000
  188.9850  177.1970  144.4040 C   0  0  2  0  0  3  0  0  0  0  0  0
  189.7780  177.4920  140.6780 C   0  0  0  0  0  0  0  0  0  0  0  0
  191.8380  177.1270  141.9200 C   0  0  0  0  0  3  0  0  0  0  0  0
  189.0670  177.4380  141.8870 C   0  0  0  0  0  3  0  0  0  0  0  0
  191.1800  177.3340  140.7040 C   0  0  0  0  0  0  0  0  0  0  0  0
  191.1180  177.0770  143.1150 C   0  0  0  0  0  3  0  0  0  0  0  0
  191.9340  177.3700  139.5380 O   0  0  0  0  0  1  0  0  0  0  0  0
  189.7290  177.2230  143.1040 C   0  0  0  0  0  0  0  0  0  0  0  0
  188.6010  176.7350  138.7560 O   0  0  0  0  0  0  0  0  0  0  0  0
  189.0310  177.7170  139.4210 C   0  0  0  0  0  0  0  0  0  0  0  0
  188.7830  179.0030  138.9550 O   0  0  0  0  0  1  0  0  0  0  0  0
  186.9690  177.8160  142.9970 C   0  0  0  0  0  3  0  0  0  0  0  0
  185.6380  178.2290  142.8880 C   0  0  0  0  0  3  0  0  0  0  0  0
  185.4640  178.2870  145.3070 C   0  0  0  0  0  0  0  0  0  0  0  0
  187.5590  177.6510  144.2570 C   0  0  0  0  0  0  0  0  0  0  0  0
  186.7980  177.8810  145.4080 C   0  0  0  0  0  3  0  0  0  0  0  0
  184.8790  178.4640  144.0400 C   0  0  0  0  0  0  0  0  0  0  0  0
  184.5550  178.5590  146.7860 Cl  0  0  0  0  0  0  0  0  0  0  0  0
  183.0190  178.6450  142.5980 O   0  0  0  0  0  1  0  0  0  0  0  0
  183.4650  178.9110  143.8920 C   0  0  0  0  0  2  0  0  0  0  0  0
  189.7580  177.9420  145.4930 C   0  0  0  0  0  2  0  0  0  0  0  0
  189.4120  176.5250  147.3420 O   0  0  0  0  0  0  0  0  0  0  0  0
  190.2240  177.0100  146.5700 C   0  0  0  0  0  0  0  0  0  0  0  0
  191.6860  176.7530  146.7670 C   0  0  0  0  0  3  0  0  0  0  0  0
  191.8820  175.5850  147.7190 C   0  0  0  0  0  2  0  0  0  0  0  0
  192.0560  175.3790  146.2300 C   0  0  0  0  0  2  0  0  0  0  0  0
  1 21  1  1  0  0  0
  2  5  2  0  0  0  0
  2  4  1  0  0  0  0
  3  6  2  0  0  0  0
  4  8  2  0  0  0  0
  5  3  1  0  0  0  0
  7  5  1  0  0  0  0
  8  6  1  0  0  0  0
  8  1  1  0  0  0  0
  9 10  2  0  0  0  0
 10  2  1  0  0  0  0
 11 10  1  0  0  0  0
 12 15  1  0  0  0  0
 13 12  2  0  0  0  0
 13 17  1  0  0  0  0
 14 16  1  0  0  0  0
 14 18  1  0  0  0  0
 15  1  1  0  0  0  0
 15 16  2  0  0  0  0
 17 14  2  0  0  0  0
 19 20  1  0  0  0  0
 20 17  1  0  0  0  0
 21 23  1  0  0  0  0
 23 24  1  0  0  0  0
 23 22  2  0  0  0  0
 24 25  1  0  0  0  0
 26 24  1  0  0  0  0
 26 25  1  0  0  0  0
M  END
>  <MODEL>
8

>  <REMARK>
 VINA RESULT:      -7.7      2.633      5.744
  Name = 
  7 active torsions:
  status: ('A' for Active; 'I' for Inactive)
    1  A    between atoms: C_2  and  C_9
    2  A    between atoms: C_4  and  C_14
    3  A    between atoms: C_8  and  C_14
    4  A    between atoms: C_8  and  C_26
    5  A    between atoms: C_18  and  C_26
    6  A    between atoms: C_20  and  C_26
    7  A    between atoms: C_22  and  C_25
                            x       y       z     vdW  Elec       q    Type
                         _______ _______ _______ _____ _____    ______ ____

>  <TORSDO>
F 7

$$$$
=
 OpenBabel11062417003D

 26 28  0  0  1  0  0  0  0  0999 V2000
  188.0040  177.9540  143.1520 C   0  0  2  0  0  3  0  0  0  0  0  0
  188.8970  178.0870  139.4390 C   0  0  0  0  0  0  0  0  0  0  0  0
  190.5170  176.7040  140.6150 C   0  0  0  0  0  3  0  0  0  0  0  0
  188.2280  178.2950  140.6550 C   0  0  0  0  0  3  0  0  0  0  0  0
  190.0550  177.2800  139.4290 C   0  0  0  0  0  0  0  0  0  0  0  0
  189.8410  176.9210  141.8180 C   0  0  0  0  0  3  0  0  0  0  0  0
  190.7520  177.0310  138.2530 O   0  0  0  0  0  1  0  0  0  0  0  0
  188.6900  177.7100  141.8420 C   0  0  0  0  0  0  0  0  0  0  0  0
  187.2690  178.3390  137.7260 O   0  0  0  0  0  1  0  0  0  0  0  0
  188.3660  178.7240  138.2150 C   0  0  0  0  0  0  0  0  0  0  0  0
  189.0540  179.7560  137.5870 O   0  0  0  0  0  0  0  0  0  0  0  0
  190.2830  177.5700  144.1920 C   0  0  0  0  0  3  0  0  0  0  0  0
  191.0870  177.3010  145.3040 C   0  0  0  0  0  3  0  0  0  0  0  0
  189.1100  177.2270  146.7080 C   0  0  0  0  0  0  0  0  0  0  0  0
  188.8910  177.6540  144.3280 C   0  0  0  0  0  0  0  0  0  0  0  0
  188.3120  177.4890  145.5900 C   0  0  0  0  0  3  0  0  0  0  0  0
  190.5060  177.1300  146.5650 C   0  0  0  0  0  0  0  0  0  0  0  0
  188.3290  177.0310  148.2690 Cl  0  0  0  0  0  0  0  0  0  0  0  0
  192.0530  175.6280  147.5270 O   0  0  0  0  0  1  0  0  0  0  0  0
  191.3880  176.8370  147.7310 C   0  0  0  0  0  2  0  0  0  0  0  0
  186.6520  177.2390  143.2040 C   0  0  0  0  0  2  0  0  0  0  0  0
  184.8080  178.2160  142.1100 O   0  0  0  0  0  0  0  0  0  0  0  0
  185.5150  178.2100  143.1060 C   0  0  0  0  0  0  0  0  0  0  0  0
  185.3060  179.2380  144.1750 C   0  0  0  0  0  3  0  0  0  0  0  0
  183.8230  179.3720  144.4810 C   0  0  0  0  0  2  0  0  0  0  0  0
  184.7170  178.5920  145.4190 C   0  0  0  0  0  2  0  0  0  0  0  0
  1 21  1  1  0  0  0
  1 15  1  0  0  0  0
  2  4  1  0  0  0  0
  3  6  2  0  0  0  0
  4  8  2  0  0  0  0
  5  2  2  0  0  0  0
  5  3  1  0  0  0  0
  6  8  1  0  0  0  0
  7  5  1  0  0  0  0
  8  1  1  0  0  0  0
  9 10  1  0  0  0  0
 10  2  1  0  0  0  0
 11 10  2  0  0  0  0
 12 15  2  0  0  0  0
 12 13  1  0  0  0  0
 13 17  2  0  0  0  0
 14 18  1  0  0  0  0
 15 16  1  0  0  0  0
 16 14  2  0  0  0  0
 17 14  1  0  0  0  0
 17 20  1  0  0  0  0
 19 20  1  0  0  0  0
 22 23  2  0  0  0  0
 23 21  1  0  0  0  0
 23 24  1  0  0  0  0
 24 25  1  0  0  0  0
 24 26  1  0  0  0  0
 25 26  1  0  0  0  0
M  END
>  <MODEL>
9

>  <REMARK>
 VINA RESULT:      -7.6      2.916      5.452
  Name = 
  7 active torsions:
  status: ('A' for Active; 'I' for Inactive)
    1  A    between atoms: C_2  and  C_9
    2  A    between atoms: C_4  and  C_14
    3  A    between atoms: C_8  and  C_14
    4  A    between atoms: C_8  and  C_26
    5  A    between atoms: C_18  and  C_26
    6  A    between atoms: C_20  and  C_26
    7  A    between atoms: C_22  and  C_25
                            x       y       z     vdW  Elec       q    Type
                         _______ _______ _______ _____ _____    ______ ____

>  <TORSDO>
F 7

$$$$
