=
 OpenBabel11062414273D

 50 52  0  0  1  0  0  0  0  0999 V2000
  188.3290  176.8580  137.9940 C   0  0  1  0  0  3  0  0  0  0  0  0
  188.2570  178.3480  138.1490 C   0  0  0  0  0  0  0  0  0  0  0  0
  188.0740  178.8400  139.2950 O   0  0  0  0  0  0  0  0  0  0  0  0
  188.4130  179.2150  137.0310 N   0  0  0  0  0  1  0  0  0  0  0  0
  188.7130  176.4670  136.5930 C   0  0  0  0  0  3  0  0  0  0  0  0
  187.8180  176.3210  135.6050 C   0  0  0  0  0  3  0  0  0  0  0  0
  186.3480  176.5830  135.8030 C   0  0  0  0  0  2  0  0  0  0  0  0
  181.6780  174.3030  136.9300 N   0  0  0  0  0  2  0  0  0  0  0  0
  185.7340  175.6950  136.8810 C   0  0  2  0  0  3  0  0  0  0  0  0
  181.8430  173.0600  136.2470 C   0  0  0  0  0  0  0  0  0  0  0  0
  184.5010  172.3710  136.0940 O   0  0  0  0  0  0  0  0  0  0  0  0
  181.8110  175.5910  136.2640 C   0  0  0  0  0  2  0  0  0  0  0  0
  182.2520  171.8510  137.0240 C   0  0  0  0  0  2  0  0  0  0  0  0
  183.7100  171.4080  136.7470 C   0  0  0  0  0  2  0  0  0  0  0  0
  185.8860  174.2330  136.4090 C   0  0  2  0  0  3  0  0  0  0  0  0
  181.6980  172.9910  134.9980 O   0  0  0  0  0  0  0  0  0  0  0  0
  183.6380  175.8400  134.8250 O   0  0  0  0  0  0  0  0  0  0  0  0
  184.8400  173.3310  137.0530 C   0  0  2  0  0  3  0  0  0  0  0  0
  184.2480  176.0680  137.1240 C   0  0  2  0  0  3  0  0  0  0  0  0
  183.2550  175.8720  135.9840 C   0  0  0  0  0  0  0  0  0  0  0  0
  186.2770  173.2440  137.5020 C   0  0  0  0  0  2  0  0  0  0  0  0
  182.9290  176.8120  139.1740 N   0  0  0  0  0  2  0  0  0  0  0  0
  183.9310  177.1000  138.1860 C   0  0  0  0  0  0  0  0  0  0  0  0
  184.6310  178.1420  138.2780 O   0  0  0  0  0  0  0  0  0  0  0  0
  182.8970  177.4320  140.4970 C   0  0  0  0  0  2  0  0  0  0  0  0
  181.7360  178.3630  140.6410 C   0  0  0  0  0  0  0  0  0  0  0  0
  181.0790  178.4980  141.9000 N   0  0  0  0  0  1  0  0  0  0  0  0
  181.3540  179.0580  139.6630 O   0  0  0  0  0  0  0  0  0  0  0  0
  189.3400  176.2850  138.9780 C   0  0  0  0  0  2  0  0  0  0  0  0
  190.6930  176.9720  138.8470 C   0  0  2  0  0  3  0  0  0  0  0  0
  193.0410  176.4220  138.5170 N   0  0  0  0  0  1  0  0  0  0  0  0
  191.6850  176.0290  138.1880 C   0  0  0  0  0  2  0  0  0  0  0  0
  191.2030  177.3550  140.2280 C   0  0  0  0  0  2  0  0  0  0  0  0
  190.3380  176.7370  141.3100 C   0  0  0  0  0  2  0  0  0  0  0  0
  190.0090  177.7390  142.3080 N   0  0  0  0  0  2  0  0  0  0  0  0
  191.8650  178.5990  143.9930 O   0  0  0  0  0  0  0  0  0  0  0  0
  190.9680  177.4210  143.7300 S   0  0  0  0  0  0  0  0  0  0  0  0
  191.8150  176.2010  143.5170 O   0  0  0  0  0  0  0  0  0  0  0  0
  189.8410  177.1660  145.1100 C   0  0  1  0  0  3  0  0  0  0  0  0
  189.9180  177.5870  147.7300 C   0  0  0  0  0  1  0  0  0  0  0  0
  191.5130  175.8620  146.7550 C   0  0  0  0  0  2  0  0  0  0  0  0
  191.9050  177.1840  146.4600 O   0  0  0  0  0  0  0  0  0  0  0  0
  190.5200  176.9310  146.5000 C   0  0  1  0  0  0  0  0  0  0  0  0
  188.6510  177.9250  144.9810 O   0  0  0  0  0  0  0  0  0  0  0  0
  187.5200  177.0990  144.8850 C   0  0  0  0  0  2  0  0  0  0  0  0
  186.5980  177.4780  143.7320 C   0  0  0  0  0  2  0  0  0  0  0  0
  185.3010  179.6390  142.1850 N   0  0  0  0  0  1  0  0  0  0  0  0
  184.7060  179.1250  143.3790 C   0  0  0  0  0  0  0  0  0  0  0  0
  185.4310  178.2150  144.2130 N   0  0  0  0  0  2  0  0  0  0  0  0
  183.5490  179.4880  143.7060 O   0  0  0  0  0  0  0  0  0  0  0  0
  1  5  1  6  0  0  0
  1  2  1  0  0  0  0
  1 29  1  0  0  0  0
  2  3  2  0  0  0  0
  4  2  1  0  0  0  0
  6  7  1  0  0  0  0
  6  5  2  0  0  0  0
  9  7  1  6  0  0  0
  9 19  1  0  0  0  0
 10  8  1  0  0  0  0
 10 13  1  0  0  0  0
 11 14  1  0  0  0  0
 11 18  1  0  0  0  0
 12  8  1  0  0  0  0
 14 13  1  0  0  0  0
 15  9  1  0  0  0  0
 15 18  1  0  0  0  0
 15 21  1  1  0  0  0
 16 10  2  0  0  0  0
 17 20  2  0  0  0  0
 18 21  1  1  0  0  0
 19 23  1  6  0  0  0
 20 12  1  0  0  0  0
 20 19  1  0  0  0  0
 22 25  1  0  0  0  0
 23 24  2  0  0  0  0
 23 22  1  0  0  0  0
 25 26  1  0  0  0  0
 26 27  1  0  0  0  0
 28 26  2  0  0  0  0
 30 32  1  1  0  0  0
 30 29  1  0  0  0  0
 30 33  1  0  0  0  0
 32 31  1  0  0  0  0
 33 34  1  0  0  0  0
 34 35  1  0  0  0  0
 35 37  1  0  0  0  0
 37 36  2  0  0  0  0
 37 39  1  0  0  0  0
 38 37  2  0  0  0  0
 39 44  1  1  0  0  0
 39 43  1  0  0  0  0
 42 43  1  0  0  0  0
 42 41  1  0  0  0  0
 43 41  1  0  0  0  0
 43 40  1  1  0  0  0
 45 44  1  0  0  0  0
 46 49  1  0  0  0  0
 46 45  1  0  0  0  0
 47 48  1  0  0  0  0
 48 50  2  0  0  0  0
 48 49  1  0  0  0  0
M  END
>  <MODEL>
1

>  <REMARK>
 VINA RESULT:      -6.6      0.000      0.000
  Name = 
  20 active torsions:
  status: ('A' for Active; 'I' for Inactive)
    1  A    between atoms: C_1  and  C_9
    2  A    between atoms: C_2  and  C_13
    3  A    between atoms: C_2  and  C_34
    4  A    between atoms: N_3  and  C_20
    5  A    between atoms: C_4  and  C_6
    6  A    between atoms: C_4  and  N_10
    7  A    between atoms: C_6  and  C_37
    8  A    between atoms: C_8  and  C_20
    9  A    between atoms: C_9  and  C_11
   10  A    between atoms: C_9  and  C_21
   11  A    between atoms: N_10  and  S_35
   12  A    between atoms: O_12  and  C_31
   13  A    between atoms: O_12  and  C_32
   14  A    between atoms: C_21  and  C_37
   15  A    between atoms: N_25  and  C_48
   16  A    between atoms: C_28  and  C_37
   17  A    between atoms: C_31  and  C_33
   18  A    between atoms: C_31  and  S_35
   19  A    between atoms: C_32  and  C_48
   20  A    between atoms: C_36  and  C_45
                            x       y       z     vdW  Elec       q    Type
                         _______ _______ _______ _____ _____    ______ ____

>  <TORSDO>
F 20

$$$$
=
 OpenBabel11062414273D

 50 52  0  0  1  0  0  0  0  0999 V2000
  181.9840  178.5410  141.3180 C   0  0  1  0  0  3  0  0  0  0  0  0
  180.6530  177.8560  141.4010 C   0  0  0  0  0  0  0  0  0  0  0  0
  180.2240  177.2200  140.4020 O   0  0  0  0  0  0  0  0  0  0  0  0
  179.8750  177.8940  142.5940 N   0  0  0  0  0  1  0  0  0  0  0  0
  182.0110  179.5620  140.2120 C   0  0  0  0  0  3  0  0  0  0  0  0
  182.6520  179.3620  139.0510 C   0  0  0  0  0  3  0  0  0  0  0  0
  183.3630  178.0730  138.7330 C   0  0  0  0  0  2  0  0  0  0  0  0
  182.6800  173.6200  135.9080 N   0  0  0  0  0  2  0  0  0  0  0  0
  183.1910  177.6520  137.2770 C   0  0  2  0  0  3  0  0  0  0  0  0
  181.2540  173.5440  135.9150 C   0  0  0  0  0  0  0  0  0  0  0  0
  180.1390  176.0480  136.1370 O   0  0  0  0  0  0  0  0  0  0  0  0
  183.4710  173.6920  137.1280 C   0  0  0  0  0  2  0  0  0  0  0  0
  180.4930  174.0290  134.7250 C   0  0  0  0  0  2  0  0  0  0  0  0
  179.7350  175.3560  134.9810 C   0  0  0  0  0  2  0  0  0  0  0  0
  181.6750  177.5940  136.9940 C   0  0  2  0  0  3  0  0  0  0  0  0
  180.6400  173.1220  136.9320 O   0  0  0  0  0  0  0  0  0  0  0  0
  182.7170  175.1690  138.7770 O   0  0  0  0  0  0  0  0  0  0  0  0
  181.3620  176.6560  135.8350 C   0  0  2  0  0  3  0  0  0  0  0  0
  183.8780  176.2850  137.0120 C   0  0  2  0  0  3  0  0  0  0  0  0
  183.3450  175.0550  137.7370 C   0  0  0  0  0  0  0  0  0  0  0  0
  181.2540  178.1470  135.6370 C   0  0  0  0  0  2  0  0  0  0  0  0
  185.8620  177.4560  135.9250 N   0  0  0  0  0  2  0  0  0  0  0  0
  185.3190  176.2830  136.5520 C   0  0  0  0  0  0  0  0  0  0  0  0
  186.0680  175.3120  136.8350 O   0  0  0  0  0  0  0  0  0  0  0  0
  187.2860  177.7860  135.9210 C   0  0  0  0  0  2  0  0  0  0  0  0
  187.6670  178.5950  137.1200 C   0  0  0  0  0  0  0  0  0  0  0  0
  188.8240  179.4280  137.0820 N   0  0  0  0  0  1  0  0  0  0  0  0
  186.9510  178.5720  138.1560 O   0  0  0  0  0  0  0  0  0  0  0  0
  182.3000  179.2190  142.6440 C   0  0  0  0  0  2  0  0  0  0  0  0
  183.6560  178.7810  143.1820 C   0  0  2  0  0  3  0  0  0  0  0  0
  183.6680  178.8980  145.6140 N   0  0  0  0  0  1  0  0  0  0  0  0
  184.0160  179.6140  144.4010 C   0  0  0  0  0  2  0  0  0  0  0  0
  184.7150  178.9780  142.1070 C   0  0  0  0  0  2  0  0  0  0  0  0
  185.7400  177.8610  142.1540 C   0  0  0  0  0  2  0  0  0  0  0  0
  187.0600  178.4150  142.3950 N   0  0  0  0  0  2  0  0  0  0  0  0
  187.5900  176.0890  143.5500 O   0  0  0  0  0  0  0  0  0  0  0  0
  187.7630  177.5700  143.7500 S   0  0  0  0  0  0  0  0  0  0  0  0
  187.0750  177.9740  145.0210 O   0  0  0  0  0  0  0  0  0  0  0  0
  189.5100  177.9970  143.8210 C   0  0  1  0  0  3  0  0  0  0  0  0
  189.7650  177.1360  146.3190 C   0  0  0  0  0  1  0  0  0  0  0  0
  191.5000  176.3810  144.6180 C   0  0  0  0  0  2  0  0  0  0  0  0
  191.6650  177.7310  144.9910 O   0  0  0  0  0  0  0  0  0  0  0  0
  190.3410  177.2540  144.9190 C   0  0  1  0  0  0  0  0  0  0  0  0
  190.0490  178.2760  142.5400 O   0  0  0  0  0  0  0  0  0  0  0  0
  190.2510  177.1010  141.7970 C   0  0  0  0  0  2  0  0  0  0  0  0
  190.9710  177.3450  140.4770 C   0  0  0  0  0  2  0  0  0  0  0  0
  191.4280  175.2520  138.4390 N   0  0  0  0  0  1  0  0  0  0  0  0
  190.2090  175.9980  138.4720 C   0  0  0  0  0  0  0  0  0  0  0  0
  190.0780  177.1270  139.3420 N   0  0  0  0  0  2  0  0  0  0  0  0
  189.2560  175.6710  137.7230 O   0  0  0  0  0  0  0  0  0  0  0  0
  1  5  1  6  0  0  0
  1  2  1  0  0  0  0
  1 29  1  0  0  0  0
  2  4  1  0  0  0  0
  3  2  2  0  0  0  0
  6  5  2  0  0  0  0
  7  6  1  0  0  0  0
  8 10  1  0  0  0  0
  8 12  1  0  0  0  0
  9  7  1  1  0  0  0
 10 16  2  0  0  0  0
 12 20  1  0  0  0  0
 13 14  1  0  0  0  0
 13 10  1  0  0  0  0
 14 11  1  0  0  0  0
 15 21  1  6  0  0  0
 15  9  1  0  0  0  0
 18 21  1  6  0  0  0
 18 11  1  0  0  0  0
 18 15  1  0  0  0  0
 19 23  1  1  0  0  0
 19  9  1  0  0  0  0
 19 20  1  0  0  0  0
 20 17  2  0  0  0  0
 22 23  1  0  0  0  0
 23 24  2  0  0  0  0
 25 22  1  0  0  0  0
 25 26  1  0  0  0  0
 26 28  2  0  0  0  0
 27 26  1  0  0  0  0
 29 30  1  0  0  0  0
 30 33  1  6  0  0  0
 30 32  1  0  0  0  0
 32 31  1  0  0  0  0
 33 34  1  0  0  0  0
 34 35  1  0  0  0  0
 35 37  1  0  0  0  0
 36 37  2  0  0  0  0
 37 39  1  0  0  0  0
 37 38  2  0  0  0  0
 39 44  1  6  0  0  0
 39 43  1  0  0  0  0
 41 43  1  0  0  0  0
 41 42  1  0  0  0  0
 43 42  1  0  0  0  0
 43 40  1  1  0  0  0
 45 44  1  0  0  0  0
 46 45  1  0  0  0  0
 47 48  1  0  0  0  0
 48 49  1  0  0  0  0
 49 46  1  0  0  0  0
 50 48  2  0  0  0  0
M  END
>  <MODEL>
2

>  <REMARK>
 VINA RESULT:      -6.5      1.993      5.967
  Name = 
  20 active torsions:
  status: ('A' for Active; 'I' for Inactive)
    1  A    between atoms: C_1  and  C_9
    2  A    between atoms: C_2  and  C_13
    3  A    between atoms: C_2  and  C_34
    4  A    between atoms: N_3  and  C_20
    5  A    between atoms: C_4  and  C_6
    6  A    between atoms: C_4  and  N_10
    7  A    between atoms: C_6  and  C_37
    8  A    between atoms: C_8  and  C_20
    9  A    between atoms: C_9  and  C_11
   10  A    between atoms: C_9  and  C_21
   11  A    between atoms: N_10  and  S_35
   12  A    between atoms: O_12  and  C_31
   13  A    between atoms: O_12  and  C_32
   14  A    between atoms: C_21  and  C_37
   15  A    between atoms: N_25  and  C_48
   16  A    between atoms: C_28  and  C_37
   17  A    between atoms: C_31  and  C_33
   18  A    between atoms: C_31  and  S_35
   19  A    between atoms: C_32  and  C_48
   20  A    between atoms: C_36  and  C_45
                            x       y       z     vdW  Elec       q    Type
                         _______ _______ _______ _____ _____    ______ ____

>  <TORSDO>
F 20

$$$$
=
 OpenBabel11062414273D

 50 52  0  0  1  0  0  0  0  0999 V2000
  187.0170  177.1810  137.4870 C   0  0  1  0  0  3  0  0  0  0  0  0
  187.4330  178.2190  136.4880 C   0  0  0  0  0  0  0  0  0  0  0  0
  187.2780  179.4380  136.7660 O   0  0  0  0  0  0  0  0  0  0  0  0
  188.0200  177.8540  135.2420 N   0  0  0  0  0  1  0  0  0  0  0  0
  186.0870  176.1680  136.8740 C   0  0  0  0  0  3  0  0  0  0  0  0
  184.7540  176.2240  137.0130 C   0  0  0  0  0  3  0  0  0  0  0  0
  184.0670  177.3390  137.7580 C   0  0  0  0  0  2  0  0  0  0  0  0
  179.9990  180.7220  138.2910 N   0  0  0  0  0  2  0  0  0  0  0  0
  182.5640  177.3770  137.4990 C   0  0  2  0  0  3  0  0  0  0  0  0
  180.0570  181.3730  137.0210 C   0  0  0  0  0  0  0  0  0  0  0  0
  181.1310  179.7100  135.1130 O   0  0  0  0  0  0  0  0  0  0  0  0
  181.1340  180.6700  139.2010 C   0  0  0  0  0  2  0  0  0  0  0  0
  179.1280  180.9370  135.9360 C   0  0  0  0  0  2  0  0  0  0  0  0
  179.8370  180.1610  134.7970 C   0  0  0  0  0  2  0  0  0  0  0  0
  182.3580  177.9700  136.0900 C   0  0  2  0  0  3  0  0  0  0  0  0
  180.9140  182.2700  136.8000 O   0  0  0  0  0  0  0  0  0  0  0  0
  183.2080  180.1430  138.2580 O   0  0  0  0  0  0  0  0  0  0  0  0
  180.9760  178.5980  135.9470 C   0  0  2  0  0  3  0  0  0  0  0  0
  181.8370  178.2140  138.5860 C   0  0  2  0  0  3  0  0  0  0  0  0
  182.1540  179.7010  138.6870 C   0  0  0  0  0  0  0  0  0  0  0  0
  181.2750  177.2900  135.2590 C   0  0  0  0  0  2  0  0  0  0  0  0
  180.7970  178.2680  140.9110 N   0  0  0  0  0  2  0  0  0  0  0  0
  181.3260  177.5000  139.8190 C   0  0  0  0  0  0  0  0  0  0  0  0
  181.2460  176.2440  139.8300 O   0  0  0  0  0  0  0  0  0  0  0  0
  179.8290  177.7460  141.8730 C   0  0  0  0  0  2  0  0  0  0  0  0
  179.6680  178.6610  143.0450 C   0  0  0  0  0  0  0  0  0  0  0  0
  179.5200  178.1220  144.3580 N   0  0  0  0  0  1  0  0  0  0  0  0
  179.6950  179.9090  142.8840 O   0  0  0  0  0  0  0  0  0  0  0  0
  188.2470  176.4740  138.0390 C   0  0  0  0  0  2  0  0  0  0  0  0
  189.1800  177.4520  138.7420 C   0  0  2  0  0  3  0  0  0  0  0  0
  190.5780  175.5110  138.2860 N   0  0  0  0  0  1  0  0  0  0  0  0
  190.5480  176.8140  138.9220 C   0  0  0  0  0  2  0  0  0  0  0  0
  188.6080  177.8090  140.1060 C   0  0  0  0  0  2  0  0  0  0  0  0
  189.6260  177.5520  141.1990 C   0  0  0  0  0  2  0  0  0  0  0  0
  189.2590  178.2880  142.3960 N   0  0  0  0  0  2  0  0  0  0  0  0
  190.8650  179.3120  144.2400 O   0  0  0  0  0  0  0  0  0  0  0  0
  190.4860  178.0040  143.6030 S   0  0  0  0  0  0  0  0  0  0  0  0
  191.7040  177.4010  142.9670 O   0  0  0  0  0  0  0  0  0  0  0  0
  189.8010  176.8800  144.8320 C   0  0  1  0  0  3  0  0  0  0  0  0
  189.9370  177.2430  147.4580 C   0  0  0  0  0  1  0  0  0  0  0  0
  191.8320  175.9720  146.3330 C   0  0  0  0  0  2  0  0  0  0  0  0
  191.8810  177.3570  146.0680 O   0  0  0  0  0  0  0  0  0  0  0  0
  190.6000  176.7800  146.1730 C   0  0  1  0  0  0  0  0  0  0  0  0
  188.3840  176.8510  144.8040 O   0  0  0  0  0  0  0  0  0  0  0  0
  187.8310  177.9310  145.5100 C   0  0  0  0  0  2  0  0  0  0  0  0
  186.3750  177.7080  145.9010 C   0  0  0  0  0  2  0  0  0  0  0  0
  185.1390  178.1360  143.2490 N   0  0  0  0  0  1  0  0  0  0  0  0
  184.8190  178.9790  144.3590 C   0  0  0  0  0  0  0  0  0  0  0  0
  185.5590  178.8770  145.5790 N   0  0  0  0  0  2  0  0  0  0  0  0
  183.8960  179.8240  144.2550 O   0  0  0  0  0  0  0  0  0  0  0  0
  1  5  1  6  0  0  0
  1 29  1  0  0  0  0
  2  3  2  0  0  0  0
  2  1  1  0  0  0  0
  4  2  1  0  0  0  0
  5  6  2  0  0  0  0
  6  7  1  0  0  0  0
  8 12  1  0  0  0  0
  9  7  1  1  0  0  0
  9 19  1  0  0  0  0
 10  8  1  0  0  0  0
 11 18  1  0  0  0  0
 13 10  1  0  0  0  0
 14 11  1  0  0  0  0
 14 13  1  0  0  0  0
 15 21  1  6  0  0  0
 15  9  1  0  0  0  0
 16 10  2  0  0  0  0
 17 20  2  0  0  0  0
 18 21  1  6  0  0  0
 18 15  1  0  0  0  0
 19 20  1  0  0  0  0
 19 23  1  1  0  0  0
 20 12  1  0  0  0  0
 22 25  1  0  0  0  0
 23 24  2  0  0  0  0
 23 22  1  0  0  0  0
 25 26  1  0  0  0  0
 26 27  1  0  0  0  0
 28 26  2  0  0  0  0
 30 29  1  1  0  0  0
 30 32  1  0  0  0  0
 30 33  1  0  0  0  0
 31 32  1  0  0  0  0
 33 34  1  0  0  0  0
 34 35  1  0  0  0  0
 35 37  1  0  0  0  0
 37 36  2  0  0  0  0
 37 39  1  0  0  0  0
 38 37  2  0  0  0  0
 39 44  1  1  0  0  0
 39 43  1  0  0  0  0
 42 43  1  0  0  0  0
 42 41  1  0  0  0  0
 43 41  1  0  0  0  0
 43 40  1  1  0  0  0
 44 45  1  0  0  0  0
 45 46  1  0  0  0  0
 47 48  1  0  0  0  0
 48 49  1  0  0  0  0
 49 46  1  0  0  0  0
 50 48  2  0  0  0  0
M  END
>  <MODEL>
3

>  <REMARK>
 VINA RESULT:      -6.4      2.492      4.158
  Name = 
  20 active torsions:
  status: ('A' for Active; 'I' for Inactive)
    1  A    between atoms: C_1  and  C_9
    2  A    between atoms: C_2  and  C_13
    3  A    between atoms: C_2  and  C_34
    4  A    between atoms: N_3  and  C_20
    5  A    between atoms: C_4  and  C_6
    6  A    between atoms: C_4  and  N_10
    7  A    between atoms: C_6  and  C_37
    8  A    between atoms: C_8  and  C_20
    9  A    between atoms: C_9  and  C_11
   10  A    between atoms: C_9  and  C_21
   11  A    between atoms: N_10  and  S_35
   12  A    between atoms: O_12  and  C_31
   13  A    between atoms: O_12  and  C_32
   14  A    between atoms: C_21  and  C_37
   15  A    between atoms: N_25  and  C_48
   16  A    between atoms: C_28  and  C_37
   17  A    between atoms: C_31  and  C_33
   18  A    between atoms: C_31  and  S_35
   19  A    between atoms: C_32  and  C_48
   20  A    between atoms: C_36  and  C_45
                            x       y       z     vdW  Elec       q    Type
                         _______ _______ _______ _____ _____    ______ ____

>  <TORSDO>
F 20

$$$$
=
 OpenBabel11062414273D

 50 52  0  0  1  0  0  0  0  0999 V2000
  184.2910  178.5450  142.5560 C   0  0  1  0  0  3  0  0  0  0  0  0
  182.8150  178.8040  142.5990 C   0  0  0  0  0  0  0  0  0  0  0  0
  182.0850  178.3600  141.6730 O   0  0  0  0  0  0  0  0  0  0  0  0
  182.2210  179.5230  143.6750 N   0  0  0  0  0  1  0  0  0  0  0  0
  184.9610  179.3540  141.4770 C   0  0  0  0  0  3  0  0  0  0  0  0
  184.9050  179.0260  140.1780 C   0  0  0  0  0  3  0  0  0  0  0  0
  184.1220  177.8390  139.6790 C   0  0  0  0  0  2  0  0  0  0  0  0
  182.6130  174.8030  135.5830 N   0  0  0  0  0  2  0  0  0  0  0  0
  183.6630  178.0070  138.2330 C   0  0  2  0  0  3  0  0  0  0  0  0
  181.2090  174.7330  135.8360 C   0  0  0  0  0  0  0  0  0  0  0  0
  180.3440  176.9660  137.1890 O   0  0  0  0  0  0  0  0  0  0  0  0
  183.6110  174.4020  136.5630 C   0  0  0  0  0  2  0  0  0  0  0  0
  180.2870  175.6370  135.0850 C   0  0  0  0  0  2  0  0  0  0  0  0
  179.6900  176.7680  135.9600 C   0  0  0  0  0  2  0  0  0  0  0  0
  182.1210  178.0640  138.2480 C   0  0  2  0  0  3  0  0  0  0  0  0
  180.7560  173.9560  136.7190 O   0  0  0  0  0  0  0  0  0  0  0  0
  183.2760  175.1400  138.7580 O   0  0  0  0  0  0  0  0  0  0  0  0
  181.5360  177.6400  136.9060 C   0  0  2  0  0  3  0  0  0  0  0  0
  184.1860  176.8430  137.3490 C   0  0  2  0  0  3  0  0  0  0  0  0
  183.6990  175.4300  137.6500 C   0  0  0  0  0  0  0  0  0  0  0  0
  181.5080  179.0940  137.3050 C   0  0  0  0  0  2  0  0  0  0  0  0
  186.7220  176.6020  137.3210 N   0  0  0  0  0  2  0  0  0  0  0  0
  185.5180  177.0130  136.6530 C   0  0  0  0  0  0  0  0  0  0  0  0
  185.5570  177.3900  135.4530 O   0  0  0  0  0  0  0  0  0  0  0  0
  187.9450  176.2190  136.6190 C   0  0  0  0  0  2  0  0  0  0  0  0
  189.0970  177.0900  137.0060 C   0  0  0  0  0  0  0  0  0  0  0  0
  188.9080  178.1540  137.9380 N   0  0  0  0  0  1  0  0  0  0  0  0
  190.2450  176.8700  136.5380 O   0  0  0  0  0  0  0  0  0  0  0  0
  184.9130  178.8800  143.9040 C   0  0  0  0  0  2  0  0  0  0  0  0
  185.7820  177.7370  144.4130 C   0  0  2  0  0  3  0  0  0  0  0  0
  184.8640  178.7340  146.4350 N   0  0  0  0  0  1  0  0  0  0  0  0
  185.6640  177.6380  145.9250 C   0  0  0  0  0  2  0  0  0  0  0  0
  187.2340  177.9970  144.0370 C   0  0  0  0  0  2  0  0  0  0  0  0
  187.6620  177.0950  142.8960 C   0  0  0  0  0  2  0  0  0  0  0  0
  188.2230  175.8650  143.4250 N   0  0  0  0  0  2  0  0  0  0  0  0
  190.0160  176.2270  141.5070 O   0  0  0  0  0  0  0  0  0  0  0  0
  189.8960  175.7810  142.9380 S   0  0  0  0  0  0  0  0  0  0  0  0
  190.3960  174.3710  143.0530 O   0  0  0  0  0  0  0  0  0  0  0  0
  190.8410  176.8690  144.0180 C   0  0  1  0  0  3  0  0  0  0  0  0
  192.1520  178.1030  142.0680 C   0  0  0  0  0  1  0  0  0  0  0  0
  190.8580  179.5370  143.7240 C   0  0  0  0  0  2  0  0  0  0  0  0
  192.0420  179.0070  144.2800 O   0  0  0  0  0  0  0  0  0  0  0  0
  191.3580  178.1910  143.3580 C   0  0  1  0  0  0  0  0  0  0  0  0
  190.3760  176.8360  145.3560 O   0  0  0  0  0  0  0  0  0  0  0  0
  191.4110  176.5360  146.2560 C   0  0  0  0  0  2  0  0  0  0  0  0
  191.0530  176.8460  147.7040 C   0  0  0  0  0  2  0  0  0  0  0  0
  188.1570  176.4080  148.1080 N   0  0  0  0  0  1  0  0  0  0  0  0
  188.7220  177.7200  148.1640 C   0  0  0  0  0  0  0  0  0  0  0  0
  190.0840  177.9360  147.7850 N   0  0  0  0  0  2  0  0  0  0  0  0
  188.0120  178.6890  148.5310 O   0  0  0  0  0  0  0  0  0  0  0  0
  1  5  1  6  0  0  0
  1  2  1  0  0  0  0
  1 29  1  0  0  0  0
  2  4  1  0  0  0  0
  3  2  2  0  0  0  0
  6  5  2  0  0  0  0
  7  6  1  0  0  0  0
  8 10  1  0  0  0  0
  8 12  1  0  0  0  0
  9 15  1  0  0  0  0
  9  7  1  1  0  0  0
 10 16  2  0  0  0  0
 12 20  1  0  0  0  0
 13 10  1  0  0  0  0
 13 14  1  0  0  0  0
 14 11  1  0  0  0  0
 15 21  1  6  0  0  0
 18 11  1  0  0  0  0
 18 21  1  6  0  0  0
 18 15  1  0  0  0  0
 19 23  1  1  0  0  0
 19 20  1  0  0  0  0
 19  9  1  0  0  0  0
 20 17  2  0  0  0  0
 23 22  1  0  0  0  0
 24 23  2  0  0  0  0
 25 26  1  0  0  0  0
 25 22  1  0  0  0  0
 26 27  1  0  0  0  0
 28 26  2  0  0  0  0
 30 29  1  1  0  0  0
 30 32  1  0  0  0  0
 32 31  1  0  0  0  0
 33 30  1  0  0  0  0
 34 35  1  0  0  0  0
 34 33  1  0  0  0  0
 36 37  2  0  0  0  0
 37 38  2  0  0  0  0
 37 35  1  0  0  0  0
 37 39  1  0  0  0  0
 39 44  1  1  0  0  0
 41 42  1  0  0  0  0
 43 40  1  6  0  0  0
 43 41  1  0  0  0  0
 43 39  1  0  0  0  0
 43 42  1  0  0  0  0
 44 45  1  0  0  0  0
 45 46  1  0  0  0  0
 46 49  1  0  0  0  0
 47 48  1  0  0  0  0
 48 50  2  0  0  0  0
 49 48  1  0  0  0  0
M  END
>  <MODEL>
4

>  <REMARK>
 VINA RESULT:      -5.8      2.332      5.714
  Name = 
  20 active torsions:
  status: ('A' for Active; 'I' for Inactive)
    1  A    between atoms: C_1  and  C_9
    2  A    between atoms: C_2  and  C_13
    3  A    between atoms: C_2  and  C_34
    4  A    between atoms: N_3  and  C_20
    5  A    between atoms: C_4  and  C_6
    6  A    between atoms: C_4  and  N_10
    7  A    between atoms: C_6  and  C_37
    8  A    between atoms: C_8  and  C_20
    9  A    between atoms: C_9  and  C_11
   10  A    between atoms: C_9  and  C_21
   11  A    between atoms: N_10  and  S_35
   12  A    between atoms: O_12  and  C_31
   13  A    between atoms: O_12  and  C_32
   14  A    between atoms: C_21  and  C_37
   15  A    between atoms: N_25  and  C_48
   16  A    between atoms: C_28  and  C_37
   17  A    between atoms: C_31  and  C_33
   18  A    between atoms: C_31  and  S_35
   19  A    between atoms: C_32  and  C_48
   20  A    between atoms: C_36  and  C_45
                            x       y       z     vdW  Elec       q    Type
                         _______ _______ _______ _____ _____    ______ ____

>  <TORSDO>
F 20

$$$$
=
 OpenBabel11062414273D

 50 52  0  0  1  0  0  0  0  0999 V2000
  184.5110  178.6430  141.0280 C   0  0  1  0  0  3  0  0  0  0  0  0
  183.2920  178.5680  141.8980 C   0  0  0  0  0  0  0  0  0  0  0  0
  183.4310  178.4770  143.1460 O   0  0  0  0  0  0  0  0  0  0  0  0
  181.9820  178.6210  141.3410 N   0  0  0  0  0  1  0  0  0  0  0  0
  184.2870  179.5410  139.8400 C   0  0  0  0  0  3  0  0  0  0  0  0
  184.2810  179.0910  138.5770 C   0  0  0  0  0  3  0  0  0  0  0  0
  184.4520  177.6330  138.2380 C   0  0  0  0  0  2  0  0  0  0  0  0
  181.8670  173.5000  136.1150 N   0  0  0  0  0  2  0  0  0  0  0  0
  183.7780  177.2530  136.9240 C   0  0  2  0  0  3  0  0  0  0  0  0
  180.5310  173.8230  136.5040 C   0  0  0  0  0  0  0  0  0  0  0  0
  180.2200  176.5410  136.7800 O   0  0  0  0  0  0  0  0  0  0  0  0
  182.9560  173.3690  137.0720 C   0  0  0  0  0  2  0  0  0  0  0  0
  179.6240  174.4800  135.5170 C   0  0  0  0  0  2  0  0  0  0  0  0
  179.3430  175.9690  135.8400 C   0  0  0  0  0  2  0  0  0  0  0  0
  182.2830  177.6130  137.0570 C   0  0  2  0  0  3  0  0  0  0  0  0
  180.1370  173.6030  137.6810 O   0  0  0  0  0  0  0  0  0  0  0  0
  183.1060  175.0230  138.7180 O   0  0  0  0  0  0  0  0  0  0  0  0
  181.4250  176.7810  136.1120 C   0  0  2  0  0  3  0  0  0  0  0  0
  183.9800  175.7450  136.6150 C   0  0  2  0  0  3  0  0  0  0  0  0
  183.3670  174.7230  137.5640 C   0  0  0  0  0  0  0  0  0  0  0  0
  181.6610  178.2400  135.8130 C   0  0  0  0  0  2  0  0  0  0  0  0
  185.7790  174.0470  136.0070 N   0  0  0  0  0  2  0  0  0  0  0  0
  185.1840  175.3360  135.7940 C   0  0  0  0  0  0  0  0  0  0  0  0
  185.5760  176.0660  134.8460 O   0  0  0  0  0  0  0  0  0  0  0  0
  186.5490  173.3330  134.9910 C   0  0  0  0  0  2  0  0  0  0  0  0
  187.1050  172.0500  135.5210 C   0  0  0  0  0  0  0  0  0  0  0  0
  187.6860  172.0070  136.8230 N   0  0  0  0  0  1  0  0  0  0  0  0
  187.0340  170.9960  134.8360 O   0  0  0  0  0  0  0  0  0  0  0  0
  185.6930  179.1560  141.8380 C   0  0  0  0  0  2  0  0  0  0  0  0
  186.8140  178.1260  141.8990 C   0  0  2  0  0  3  0  0  0  0  0  0
  187.6120  176.4730  143.4980 N   0  0  0  0  0  1  0  0  0  0  0  0
  187.1750  177.8480  143.3480 C   0  0  0  0  0  2  0  0  0  0  0  0
  188.0360  178.6640  141.1700 C   0  0  0  0  0  2  0  0  0  0  0  0
  188.3850  177.7810  139.9870 C   0  0  0  0  0  2  0  0  0  0  0  0
  189.5880  178.2780  139.3420 N   0  0  0  0  0  2  0  0  0  0  0  0
  190.3470  176.0010  140.4680 O   0  0  0  0  0  0  0  0  0  0  0  0
  190.8470  177.0890  139.5580 S   0  0  0  0  0  0  0  0  0  0  0  0
  192.0560  177.7250  140.1780 O   0  0  0  0  0  0  0  0  0  0  0  0
  191.2550  176.4170  137.9380 C   0  0  1  0  0  3  0  0  0  0  0  0
  188.9240  175.3920  137.1910 C   0  0  0  0  0  1  0  0  0  0  0  0
  189.8270  177.3740  135.8770 C   0  0  0  0  0  2  0  0  0  0  0  0
  190.5230  176.1790  135.5950 O   0  0  0  0  0  0  0  0  0  0  0  0
  190.0700  176.3480  136.9180 C   0  0  1  0  0  0  0  0  0  0  0  0
  192.5700  176.7540  137.5310 O   0  0  0  0  0  0  0  0  0  0  0  0
  193.4960  175.7670  137.9050 C   0  0  0  0  0  2  0  0  0  0  0  0
  194.2330  175.1580  136.7190 C   0  0  0  0  0  2  0  0  0  0  0  0
  196.7860  174.6800  138.1330 N   0  0  0  0  0  1  0  0  0  0  0  0
  195.8680  173.6130  137.8800 C   0  0  0  0  0  0  0  0  0  0  0  0
  194.7310  173.8230  137.0380 N   0  0  0  0  0  2  0  0  0  0  0  0
  196.0720  172.4820  138.3870 O   0  0  0  0  0  0  0  0  0  0  0  0
  1  5  1  6  0  0  0
  1 29  1  0  0  0  0
  1  2  1  0  0  0  0
  2  3  2  0  0  0  0
  4  2  1  0  0  0  0
  6  5  2  0  0  0  0
  7  6  1  0  0  0  0
  8 10  1  0  0  0  0
  8 12  1  0  0  0  0
  9 15  1  0  0  0  0
  9  7  1  1  0  0  0
 10 16  2  0  0  0  0
 12 20  1  0  0  0  0
 13 14  1  0  0  0  0
 13 10  1  0  0  0  0
 14 11  1  0  0  0  0
 15 21  1  6  0  0  0
 18 21  1  6  0  0  0
 18 11  1  0  0  0  0
 18 15  1  0  0  0  0
 19 23  1  1  0  0  0
 19  9  1  0  0  0  0
 19 20  1  0  0  0  0
 20 17  2  0  0  0  0
 23 22  1  0  0  0  0
 24 23  2  0  0  0  0
 25 26  1  0  0  0  0
 25 22  1  0  0  0  0
 26 27  1  0  0  0  0
 28 26  2  0  0  0  0
 29 30  1  0  0  0  0
 30 33  1  6  0  0  0
 30 32  1  0  0  0  0
 32 31  1  0  0  0  0
 34 33  1  0  0  0  0
 35 37  1  0  0  0  0
 35 34  1  0  0  0  0
 37 38  2  0  0  0  0
 37 36  2  0  0  0  0
 39 44  1  6  0  0  0
 39 37  1  0  0  0  0
 41 43  1  0  0  0  0
 42 41  1  0  0  0  0
 42 43  1  0  0  0  0
 43 40  1  1  0  0  0
 43 39  1  0  0  0  0
 44 45  1  0  0  0  0
 46 49  1  0  0  0  0
 46 45  1  0  0  0  0
 48 47  1  0  0  0  0
 48 50  2  0  0  0  0
 49 48  1  0  0  0  0
M  END
>  <MODEL>
5

>  <REMARK>
 VINA RESULT:      -5.6      2.980      7.336
  Name = 
  20 active torsions:
  status: ('A' for Active; 'I' for Inactive)
    1  A    between atoms: C_1  and  C_9
    2  A    between atoms: C_2  and  C_13
    3  A    between atoms: C_2  and  C_34
    4  A    between atoms: N_3  and  C_20
    5  A    between atoms: C_4  and  C_6
    6  A    between atoms: C_4  and  N_10
    7  A    between atoms: C_6  and  C_37
    8  A    between atoms: C_8  and  C_20
    9  A    between atoms: C_9  and  C_11
   10  A    between atoms: C_9  and  C_21
   11  A    between atoms: N_10  and  S_35
   12  A    between atoms: O_12  and  C_31
   13  A    between atoms: O_12  and  C_32
   14  A    between atoms: C_21  and  C_37
   15  A    between atoms: N_25  and  C_48
   16  A    between atoms: C_28  and  C_37
   17  A    between atoms: C_31  and  C_33
   18  A    between atoms: C_31  and  S_35
   19  A    between atoms: C_32  and  C_48
   20  A    between atoms: C_36  and  C_45
                            x       y       z     vdW  Elec       q    Type
                         _______ _______ _______ _____ _____    ______ ____

>  <TORSDO>
F 20

$$$$
=
 OpenBabel11062414273D

 50 52  0  0  1  0  0  0  0  0999 V2000
  182.5650  178.4690  140.6210 C   0  0  1  0  0  3  0  0  0  0  0  0
  181.2560  177.9310  140.1250 C   0  0  0  0  0  0  0  0  0  0  0  0
  181.0260  176.6950  140.2110 O   0  0  0  0  0  0  0  0  0  0  0  0
  180.2620  178.7920  139.5780 N   0  0  0  0  0  1  0  0  0  0  0  0
  183.1200  179.5130  139.6900 C   0  0  0  0  0  3  0  0  0  0  0  0
  183.9590  179.2220  138.6850 C   0  0  0  0  0  3  0  0  0  0  0  0
  184.3810  177.8110  138.3690 C   0  0  0  0  0  2  0  0  0  0  0  0
  183.5050  173.3970  135.5370 N   0  0  0  0  0  2  0  0  0  0  0  0
  184.0690  177.4130  136.9290 C   0  0  2  0  0  3  0  0  0  0  0  0
  182.0890  173.2870  135.6890 C   0  0  0  0  0  0  0  0  0  0  0  0
  180.9510  175.7600  136.0760 O   0  0  0  0  0  0  0  0  0  0  0  0
  184.4160  173.4640  136.6700 C   0  0  0  0  0  2  0  0  0  0  0  0
  181.1990  173.7760  134.5940 C   0  0  0  0  0  2  0  0  0  0  0  0
  180.4440  175.0800  134.9540 C   0  0  0  0  0  2  0  0  0  0  0  0
  182.5340  177.3250  136.8030 C   0  0  2  0  0  3  0  0  0  0  0  0
  181.5940  172.8320  136.7540 O   0  0  0  0  0  0  0  0  0  0  0  0
  183.8060  174.8920  138.4190 O   0  0  0  0  0  0  0  0  0  0  0  0
  182.1220  176.4020  135.6630 C   0  0  2  0  0  3  0  0  0  0  0  0
  184.7530  176.0680  136.5670 C   0  0  2  0  0  3  0  0  0  0  0  0
  184.3250  174.8120  137.3170 C   0  0  0  0  0  0  0  0  0  0  0  0
  181.9630  177.8930  135.5080 C   0  0  0  0  0  2  0  0  0  0  0  0
  186.5920  177.3080  135.3120 N   0  0  0  0  0  2  0  0  0  0  0  0
  186.1400  176.1090  135.9620 C   0  0  0  0  0  0  0  0  0  0  0  0
  186.9320  175.1480  136.1410 O   0  0  0  0  0  0  0  0  0  0  0  0
  188.0010  177.6680  135.1710 C   0  0  0  0  0  2  0  0  0  0  0  0
  188.5960  178.0880  136.4770 C   0  0  0  0  0  0  0  0  0  0  0  0
  189.2930  177.1390  137.2830 N   0  0  0  0  0  1  0  0  0  0  0  0
  188.5140  179.2850  136.8570 O   0  0  0  0  0  0  0  0  0  0  0  0
  182.3840  179.0680  142.0080 C   0  0  0  0  0  2  0  0  0  0  0  0
  183.3940  178.4980  142.9960 C   0  0  2  0  0  3  0  0  0  0  0  0
  183.8990  179.3090  145.2350 N   0  0  0  0  0  1  0  0  0  0  0  0
  182.8820  178.6790  144.4150 C   0  0  0  0  0  2  0  0  0  0  0  0
  184.7210  179.2280  142.8420 C   0  0  0  0  0  2  0  0  0  0  0  0
  185.7230  178.3680  142.0980 C   0  0  0  0  0  2  0  0  0  0  0  0
  186.5770  179.2070  141.2770 N   0  0  0  0  0  2  0  0  0  0  0  0
  188.9430  179.1480  140.0810 O   0  0  0  0  0  0  0  0  0  0  0  0
  187.9580  178.2590  140.7890 S   0  0  0  0  0  0  0  0  0  0  0  0
  187.5290  177.1660  139.8540 O   0  0  0  0  0  0  0  0  0  0  0  0
  188.6980  177.5570  142.2730 C   0  0  1  0  0  3  0  0  0  0  0  0
  190.4010  175.6070  142.8580 C   0  0  0  0  0  1  0  0  0  0  0  0
  190.9930  177.1670  140.9380 C   0  0  0  0  0  2  0  0  0  0  0  0
  191.1530  177.7800  142.1980 O   0  0  0  0  0  0  0  0  0  0  0  0
  190.0880  176.8670  142.0720 C   0  0  1  0  0  0  0  0  0  0  0  0
  188.4030  178.3170  143.4320 O   0  0  0  0  0  0  0  0  0  0  0  0
  189.3710  178.1280  144.4330 C   0  0  0  0  0  2  0  0  0  0  0  0
  188.9360  177.1390  145.5070 C   0  0  0  0  0  2  0  0  0  0  0  0
  186.5710  178.1710  146.9500 N   0  0  0  0  0  1  0  0  0  0  0  0
  187.8420  178.0620  147.5960 C   0  0  0  0  0  0  0  0  0  0  0  0
  189.0110  177.7390  146.8370 N   0  0  0  0  0  2  0  0  0  0  0  0
  187.9340  178.2690  148.8310 O   0  0  0  0  0  0  0  0  0  0  0  0
  1  5  1  6  0  0  0
  1 29  1  0  0  0  0
  2  3  2  0  0  0  0
  2  1  1  0  0  0  0
  4  2  1  0  0  0  0
  6  5  2  0  0  0  0
  7  6  1  0  0  0  0
  8 10  1  0  0  0  0
  8 12  1  0  0  0  0
  9  7  1  1  0  0  0
 10 16  2  0  0  0  0
 12 20  1  0  0  0  0
 13 14  1  0  0  0  0
 13 10  1  0  0  0  0
 14 11  1  0  0  0  0
 15 21  1  6  0  0  0
 15  9  1  0  0  0  0
 18 21  1  6  0  0  0
 18 11  1  0  0  0  0
 18 15  1  0  0  0  0
 19 23  1  1  0  0  0
 19  9  1  0  0  0  0
 19 20  1  0  0  0  0
 20 17  2  0  0  0  0
 22 23  1  0  0  0  0
 23 24  2  0  0  0  0
 25 22  1  0  0  0  0
 25 26  1  0  0  0  0
 26 28  2  0  0  0  0
 26 27  1  0  0  0  0
 30 29  1  6  0  0  0
 30 32  1  0  0  0  0
 32 31  1  0  0  0  0
 33 30  1  0  0  0  0
 34 33  1  0  0  0  0
 35 34  1  0  0  0  0
 36 37  2  0  0  0  0
 37 35  1  0  0  0  0
 37 39  1  0  0  0  0
 38 37  2  0  0  0  0
 39 44  1  1  0  0  0
 41 43  1  0  0  0  0
 41 42  1  0  0  0  0
 43 42  1  0  0  0  0
 43 39  1  0  0  0  0
 43 40  1  1  0  0  0
 44 45  1  0  0  0  0
 45 46  1  0  0  0  0
 46 49  1  0  0  0  0
 47 48  1  0  0  0  0
 48 50  2  0  0  0  0
 49 48  1  0  0  0  0
M  END
>  <MODEL>
6

>  <REMARK>
 VINA RESULT:      -5.3      2.300      5.750
  Name = 
  20 active torsions:
  status: ('A' for Active; 'I' for Inactive)
    1  A    between atoms: C_1  and  C_9
    2  A    between atoms: C_2  and  C_13
    3  A    between atoms: C_2  and  C_34
    4  A    between atoms: N_3  and  C_20
    5  A    between atoms: C_4  and  C_6
    6  A    between atoms: C_4  and  N_10
    7  A    between atoms: C_6  and  C_37
    8  A    between atoms: C_8  and  C_20
    9  A    between atoms: C_9  and  C_11
   10  A    between atoms: C_9  and  C_21
   11  A    between atoms: N_10  and  S_35
   12  A    between atoms: O_12  and  C_31
   13  A    between atoms: O_12  and  C_32
   14  A    between atoms: C_21  and  C_37
   15  A    between atoms: N_25  and  C_48
   16  A    between atoms: C_28  and  C_37
   17  A    between atoms: C_31  and  C_33
   18  A    between atoms: C_31  and  S_35
   19  A    between atoms: C_32  and  C_48
   20  A    between atoms: C_36  and  C_45
                            x       y       z     vdW  Elec       q    Type
                         _______ _______ _______ _____ _____    ______ ____

>  <TORSDO>
F 20

$$$$
=
 OpenBabel11062414273D

 50 52  0  0  1  0  0  0  0  0999 V2000
  183.9930  178.6650  142.4410 C   0  0  1  0  0  3  0  0  0  0  0  0
  182.5210  178.9480  142.4590 C   0  0  0  0  0  0  0  0  0  0  0  0
  181.8720  178.7650  143.5240 O   0  0  0  0  0  0  0  0  0  0  0  0
  181.8480  179.4390  141.3040 N   0  0  0  0  0  1  0  0  0  0  0  0
  184.6780  179.3820  141.3090 C   0  0  0  0  0  3  0  0  0  0  0  0
  184.6150  178.9640  140.0360 C   0  0  0  0  0  3  0  0  0  0  0  0
  183.8090  177.7600  139.6210 C   0  0  0  0  0  2  0  0  0  0  0  0
  182.4610  174.5420  135.6090 N   0  0  0  0  0  2  0  0  0  0  0  0
  183.2930  177.8650  138.1890 C   0  0  2  0  0  3  0  0  0  0  0  0
  181.0780  174.3480  135.9070 C   0  0  0  0  0  0  0  0  0  0  0  0
  180.0540  176.5120  137.2610 O   0  0  0  0  0  0  0  0  0  0  0  0
  183.5210  174.2470  136.5620 C   0  0  0  0  0  2  0  0  0  0  0  0
  180.0560  175.1540  135.1740 C   0  0  0  0  0  2  0  0  0  0  0  0
  179.3840  176.2380  136.0540 C   0  0  0  0  0  2  0  0  0  0  0  0
  181.7530  177.7820  138.2510 C   0  0  2  0  0  3  0  0  0  0  0  0
  180.7240  173.5460  136.8120 O   0  0  0  0  0  0  0  0  0  0  0  0
  183.1860  174.9820  138.7570 O   0  0  0  0  0  0  0  0  0  0  0  0
  181.1700  177.2880  136.9330 C   0  0  2  0  0  3  0  0  0  0  0  0
  183.8930  176.7410  137.3030 C   0  0  2  0  0  3  0  0  0  0  0  0
  183.5470  175.2940  137.6340 C   0  0  0  0  0  0  0  0  0  0  0  0
  181.0210  178.7390  137.3160 C   0  0  0  0  0  2  0  0  0  0  0  0
  186.4390  176.7480  137.2050 N   0  0  0  0  0  2  0  0  0  0  0  0
  185.1840  177.0220  136.5640 C   0  0  0  0  0  0  0  0  0  0  0  0
  185.1530  177.3700  135.3540 O   0  0  0  0  0  0  0  0  0  0  0  0
  187.6750  176.4680  136.4770 C   0  0  0  0  0  2  0  0  0  0  0  0
  188.5430  177.6810  136.3780 C   0  0  0  0  0  0  0  0  0  0  0  0
  188.0820  178.9330  136.8830 N   0  0  0  0  0  1  0  0  0  0  0  0
  189.6970  177.5980  135.8820 O   0  0  0  0  0  0  0  0  0  0  0  0
  184.6170  179.0900  143.7630 C   0  0  0  0  0  2  0  0  0  0  0  0
  185.2420  177.9040  144.4880 C   0  0  2  0  0  3  0  0  0  0  0  0
  185.3130  179.3830  146.4210 N   0  0  0  0  0  1  0  0  0  0  0  0
  185.0050  178.0350  145.9830 C   0  0  0  0  0  2  0  0  0  0  0  0
  186.7390  177.8750  144.2160 C   0  0  0  0  0  2  0  0  0  0  0  0
  187.4920  177.3390  145.4180 C   0  0  0  0  0  2  0  0  0  0  0  0
  188.6640  178.1590  145.6690 N   0  0  0  0  0  2  0  0  0  0  0  0
  189.0300  176.0080  147.1760 O   0  0  0  0  0  0  0  0  0  0  0  0
  189.6710  177.3230  146.8230 S   0  0  0  0  0  0  0  0  0  0  0  0
  189.8150  178.1450  148.0700 O   0  0  0  0  0  0  0  0  0  0  0  0
  191.2790  177.0550  146.0610 C   0  0  1  0  0  3  0  0  0  0  0  0
  192.4150  174.6970  145.6140 C   0  0  0  0  0  1  0  0  0  0  0  0
  192.8020  175.7940  147.8760 C   0  0  0  0  0  2  0  0  0  0  0  0
  191.4980  175.2700  147.7480 O   0  0  0  0  0  0  0  0  0  0  0  0
  192.0760  175.8140  146.5850 C   0  0  1  0  0  0  0  0  0  0  0  0
  191.2970  177.4280  144.6930 O   0  0  0  0  0  0  0  0  0  0  0  0
  191.3770  176.3070  143.8530 C   0  0  0  0  0  2  0  0  0  0  0  0
  190.1030  176.0670  143.0510 C   0  0  0  0  0  2  0  0  0  0  0  0
  190.5380  176.3730  140.1420 N   0  0  0  0  0  1  0  0  0  0  0  0
  189.7640  177.3230  140.8780 C   0  0  0  0  0  0  0  0  0  0  0  0
  189.7170  177.2640  142.3070 N   0  0  0  0  0  2  0  0  0  0  0  0
  189.1360  178.2230  140.2680 O   0  0  0  0  0  0  0  0  0  0  0  0
  1  5  1  6  0  0  0
  1  2  1  0  0  0  0
  1 29  1  0  0  0  0
  2  3  2  0  0  0  0
  4  2  1  0  0  0  0
  6  5  2  0  0  0  0
  7  6  1  0  0  0  0
  8 10  1  0  0  0  0
  8 12  1  0  0  0  0
  9 15  1  0  0  0  0
  9  7  1  1  0  0  0
 10 16  2  0  0  0  0
 12 20  1  0  0  0  0
 13 10  1  0  0  0  0
 13 14  1  0  0  0  0
 14 11  1  0  0  0  0
 15 21  1  6  0  0  0
 18 11  1  0  0  0  0
 18 21  1  6  0  0  0
 18 15  1  0  0  0  0
 19 23  1  1  0  0  0
 19 20  1  0  0  0  0
 19  9  1  0  0  0  0
 20 17  2  0  0  0  0
 23 22  1  0  0  0  0
 24 23  2  0  0  0  0
 25 22  1  0  0  0  0
 26 25  1  0  0  0  0
 26 27  1  0  0  0  0
 28 26  2  0  0  0  0
 30 29  1  6  0  0  0
 30 32  1  0  0  0  0
 32 31  1  0  0  0  0
 33 30  1  0  0  0  0
 33 34  1  0  0  0  0
 34 35  1  0  0  0  0
 35 37  1  0  0  0  0
 37 36  2  0  0  0  0
 37 38  2  0  0  0  0
 39 44  1  6  0  0  0
 39 43  1  0  0  0  0
 39 37  1  0  0  0  0
 42 41  1  0  0  0  0
 43 40  1  6  0  0  0
 43 42  1  0  0  0  0
 43 41  1  0  0  0  0
 45 44  1  0  0  0  0
 46 45  1  0  0  0  0
 47 48  1  0  0  0  0
 48 49  1  0  0  0  0
 49 46  1  0  0  0  0
 50 48  2  0  0  0  0
M  END
>  <MODEL>
7

>  <REMARK>
 VINA RESULT:      -5.2      2.118      5.644
  Name = 
  20 active torsions:
  status: ('A' for Active; 'I' for Inactive)
    1  A    between atoms: C_1  and  C_9
    2  A    between atoms: C_2  and  C_13
    3  A    between atoms: C_2  and  C_34
    4  A    between atoms: N_3  and  C_20
    5  A    between atoms: C_4  and  C_6
    6  A    between atoms: C_4  and  N_10
    7  A    between atoms: C_6  and  C_37
    8  A    between atoms: C_8  and  C_20
    9  A    between atoms: C_9  and  C_11
   10  A    between atoms: C_9  and  C_21
   11  A    between atoms: N_10  and  S_35
   12  A    between atoms: O_12  and  C_31
   13  A    between atoms: O_12  and  C_32
   14  A    between atoms: C_21  and  C_37
   15  A    between atoms: N_25  and  C_48
   16  A    between atoms: C_28  and  C_37
   17  A    between atoms: C_31  and  C_33
   18  A    between atoms: C_31  and  S_35
   19  A    between atoms: C_32  and  C_48
   20  A    between atoms: C_36  and  C_45
                            x       y       z     vdW  Elec       q    Type
                         _______ _______ _______ _____ _____    ______ ____

>  <TORSDO>
F 20

$$$$
=
 OpenBabel11062414273D

 50 52  0  0  1  0  0  0  0  0999 V2000
  190.5870  176.0590  138.6410 C   0  0  1  0  0  3  0  0  0  0  0  0
  192.0180  176.5090  138.6540 C   0  0  0  0  0  0  0  0  0  0  0  0
  192.7390  176.2980  137.6430 O   0  0  0  0  0  0  0  0  0  0  0  0
  192.5690  177.1870  139.7790 N   0  0  0  0  0  1  0  0  0  0  0  0
  189.6420  177.2300  138.6180 C   0  0  0  0  0  3  0  0  0  0  0  0
  189.0650  177.7230  139.7230 C   0  0  0  0  0  3  0  0  0  0  0  0
  189.3520  177.1750  141.0970 C   0  0  0  0  0  2  0  0  0  0  0  0
  187.2900  177.4940  145.9880 N   0  0  0  0  0  2  0  0  0  0  0  0
  189.1590  178.2150  142.1960 C   0  0  2  0  0  3  0  0  0  0  0  0
  188.4400  177.1480  146.7600 C   0  0  0  0  0  0  0  0  0  0  0  0
  190.7510  177.8350  145.4370 O   0  0  0  0  0  0  0  0  0  0  0  0
  186.7580  176.6360  144.9390 C   0  0  0  0  0  2  0  0  0  0  0  0
  189.2520  178.2350  147.3840 C   0  0  0  0  0  2  0  0  0  0  0  0
  190.6270  178.4430  146.6990 C   0  0  0  0  0  2  0  0  0  0  0  0
  190.3730  178.1100  143.1430 C   0  0  2  0  0  3  0  0  0  0  0  0
  188.7980  175.9450  146.8720 O   0  0  0  0  0  0  0  0  0  0  0  0
  188.3130  175.7010  143.4640 O   0  0  0  0  0  0  0  0  0  0  0  0
  190.0390  178.6310  144.5350 C   0  0  2  0  0  3  0  0  0  0  0  0
  187.8220  177.9820  142.9490 C   0  0  2  0  0  3  0  0  0  0  0  0
  187.6500  176.6890  143.7370 C   0  0  0  0  0  0  0  0  0  0  0  0
  190.9260  179.4450  143.6280 C   0  0  0  0  0  2  0  0  0  0  0  0
  185.3130  178.4150  143.0610 N   0  0  0  0  0  2  0  0  0  0  0  0
  186.5820  178.6900  142.4460 C   0  0  0  0  0  0  0  0  0  0  0  0
  186.6850  179.6040  141.5870 O   0  0  0  0  0  0  0  0  0  0  0  0
  184.1930  179.3540  143.0580 C   0  0  0  0  0  2  0  0  0  0  0  0
  183.2640  179.1050  144.2040 C   0  0  0  0  0  0  0  0  0  0  0  0
  183.7770  179.0080  145.5320 N   0  0  0  0  0  1  0  0  0  0  0  0
  182.0240  179.0150  144.0070 O   0  0  0  0  0  0  0  0  0  0  0  0
  190.3350  175.1770  137.4270 C   0  0  0  0  0  2  0  0  0  0  0  0
  188.8590  174.8230  137.2940 C   0  0  2  0  0  3  0  0  0  0  0  0
  189.7050  173.0350  135.8750 N   0  0  0  0  0  1  0  0  0  0  0  0
  188.7150  173.3680  136.8820 C   0  0  0  0  0  2  0  0  0  0  0  0
  188.2170  175.7120  136.2380 C   0  0  0  0  0  2  0  0  0  0  0  0
  186.8550  175.1750  135.8420 C   0  0  0  0  0  2  0  0  0  0  0  0
  185.8980  175.4340  136.9030 N   0  0  0  0  0  2  0  0  0  0  0  0
  185.0820  173.0540  137.7390 O   0  0  0  0  0  0  0  0  0  0  0  0
  184.6750  174.1900  136.8420 S   0  0  0  0  0  0  0  0  0  0  0  0
  184.5330  173.6770  135.4390 O   0  0  0  0  0  0  0  0  0  0  0  0
  183.1250  174.9130  137.4030 C   0  0  1  0  0  3  0  0  0  0  0  0
  181.4900  172.9820  136.5990 C   0  0  0  0  0  1  0  0  0  0  0  0
  180.7850  175.3900  136.1780 C   0  0  0  0  0  2  0  0  0  0  0  0
  181.8180  174.9720  135.3120 O   0  0  0  0  0  0  0  0  0  0  0  0
  181.8470  174.4570  136.6230 C   0  0  1  0  0  0  0  0  0  0  0  0
  183.1060  175.1250  138.8050 O   0  0  0  0  0  0  0  0  0  0  0  0
  182.3140  176.2320  139.1490 C   0  0  0  0  0  2  0  0  0  0  0  0
  182.9990  177.1770  140.1290 C   0  0  0  0  0  2  0  0  0  0  0  0
  182.1490  179.9430  139.5220 N   0  0  0  0  0  1  0  0  0  0  0  0
  183.4970  179.5190  139.3060 C   0  0  0  0  0  0  0  0  0  0  0  0
  183.8470  178.1370  139.4270 N   0  0  0  0  0  2  0  0  0  0  0  0
  184.3730  180.3620  138.9910 O   0  0  0  0  0  0  0  0  0  0  0  0
  1 29  1  6  0  0  0
  1  2  1  0  0  0  0
  2  4  1  0  0  0  0
  3  2  2  0  0  0  0
  5  1  1  0  0  0  0
  5  6  2  0  0  0  0
  6  7  1  0  0  0  0
  8 10  1  0  0  0  0
  9  7  1  6  0  0  0
  9 19  1  0  0  0  0
  9 15  1  0  0  0  0
 10 16  2  0  0  0  0
 10 13  1  0  0  0  0
 11 14  1  0  0  0  0
 12  8  1  0  0  0  0
 14 13  1  0  0  0  0
 15 21  1  6  0  0  0
 15 18  1  0  0  0  0
 17 20  2  0  0  0  0
 18 21  1  6  0  0  0
 18 11  1  0  0  0  0
 19 23  1  6  0  0  0
 19 20  1  0  0  0  0
 20 12  1  0  0  0  0
 23 22  1  0  0  0  0
 24 23  2  0  0  0  0
 25 22  1  0  0  0  0
 25 26  1  0  0  0  0
 26 27  1  0  0  0  0
 28 26  2  0  0  0  0
 30 33  1  6  0  0  0
 30 29  1  0  0  0  0
 31 32  1  0  0  0  0
 32 30  1  0  0  0  0
 34 33  1  0  0  0  0
 34 35  1  0  0  0  0
 37 35  1  0  0  0  0
 37 39  1  0  0  0  0
 37 36  2  0  0  0  0
 38 37  2  0  0  0  0
 39 44  1  1  0  0  0
 41 43  1  0  0  0  0
 42 41  1  0  0  0  0
 42 43  1  0  0  0  0
 43 40  1  1  0  0  0
 43 39  1  0  0  0  0
 44 45  1  0  0  0  0
 45 46  1  0  0  0  0
 48 49  1  0  0  0  0
 48 47  1  0  0  0  0
 49 46  1  0  0  0  0
 50 48  2  0  0  0  0
M  END
>  <MODEL>
8

>  <REMARK>
 VINA RESULT:      -5.2      2.577      8.631
  Name = 
  20 active torsions:
  status: ('A' for Active; 'I' for Inactive)
    1  A    between atoms: C_1  and  C_9
    2  A    between atoms: C_2  and  C_13
    3  A    between atoms: C_2  and  C_34
    4  A    between atoms: N_3  and  C_20
    5  A    between atoms: C_4  and  C_6
    6  A    between atoms: C_4  and  N_10
    7  A    between atoms: C_6  and  C_37
    8  A    between atoms: C_8  and  C_20
    9  A    between atoms: C_9  and  C_11
   10  A    between atoms: C_9  and  C_21
   11  A    between atoms: N_10  and  S_35
   12  A    between atoms: O_12  and  C_31
   13  A    between atoms: O_12  and  C_32
   14  A    between atoms: C_21  and  C_37
   15  A    between atoms: N_25  and  C_48
   16  A    between atoms: C_28  and  C_37
   17  A    between atoms: C_31  and  C_33
   18  A    between atoms: C_31  and  S_35
   19  A    between atoms: C_32  and  C_48
   20  A    between atoms: C_36  and  C_45
                            x       y       z     vdW  Elec       q    Type
                         _______ _______ _______ _____ _____    ______ ____

>  <TORSDO>
F 20

$$$$
=
 OpenBabel11062414273D

 50 52  0  0  1  0  0  0  0  0999 V2000
  184.5800  178.1380  140.4770 C   0  0  1  0  0  3  0  0  0  0  0  0
  184.8560  178.9890  139.2730 C   0  0  0  0  0  0  0  0  0  0  0  0
  184.4580  180.1840  139.2600 O   0  0  0  0  0  0  0  0  0  0  0  0
  185.5770  178.4770  138.1570 N   0  0  0  0  0  1  0  0  0  0  0  0
  184.5260  178.9630  141.7350 C   0  0  0  0  0  3  0  0  0  0  0  0
  185.6250  179.3720  142.3870 C   0  0  0  0  0  3  0  0  0  0  0  0
  187.0150  179.0780  141.8870 C   0  0  0  0  0  2  0  0  0  0  0  0
  191.6310  177.2050  143.7480 N   0  0  0  0  0  2  0  0  0  0  0  0
  187.5820  177.7820  142.4580 C   0  0  2  0  0  3  0  0  0  0  0  0
  191.4940  177.5470  145.1280 C   0  0  0  0  0  0  0  0  0  0  0  0
  188.8440  177.6260  145.8590 O   0  0  0  0  0  0  0  0  0  0  0  0
  191.5280  178.1880  142.6790 C   0  0  0  0  0  2  0  0  0  0  0  0
  191.0520  176.5000  146.0970 C   0  0  0  0  0  2  0  0  0  0  0  0
  189.6060  176.7130  146.6110 C   0  0  0  0  0  2  0  0  0  0  0  0
  187.4490  177.8630  143.9930 C   0  0  2  0  0  3  0  0  0  0  0  0
  191.6920  178.7290  145.5170 O   0  0  0  0  0  0  0  0  0  0  0  0
  189.7640  179.7160  142.8300 O   0  0  0  0  0  0  0  0  0  0  0  0
  188.4660  176.9640  144.6870 C   0  0  2  0  0  3  0  0  0  0  0  0
  189.0570  177.5830  142.0190 C   0  0  2  0  0  3  0  0  0  0  0  0
  190.0970  178.5910  142.4940 C   0  0  0  0  0  0  0  0  0  0  0  0
  187.0110  176.5670  144.6680 C   0  0  0  0  0  2  0  0  0  0  0  0
  188.5620  177.1080  139.5650 N   0  0  0  0  0  2  0  0  0  0  0  0
  189.3290  176.8140  140.7440 C   0  0  0  0  0  0  0  0  0  0  0  0
  190.3030  176.0190  140.6840 O   0  0  0  0  0  0  0  0  0  0  0  0
  189.0400  176.8580  138.2070 C   0  0  0  0  0  2  0  0  0  0  0  0
  189.0110  178.1000  137.3750 C   0  0  0  0  0  0  0  0  0  0  0  0
  189.0440  179.3810  138.0020 N   0  0  0  0  0  1  0  0  0  0  0  0
  188.9900  178.0230  136.1190 O   0  0  0  0  0  0  0  0  0  0  0  0
  183.2610  177.4000  140.2960 C   0  0  0  0  0  2  0  0  0  0  0  0
  182.1480  178.3480  139.8680 C   0  0  2  0  0  3  0  0  0  0  0  0
  179.7950  178.3830  140.4900 N   0  0  0  0  0  1  0  0  0  0  0  0
  181.1470  178.5070  140.9990 C   0  0  0  0  0  2  0  0  0  0  0  0
  181.4410  177.7810  138.6450 C   0  0  0  0  0  2  0  0  0  0  0  0
  181.9640  176.3960  138.3180 C   0  0  0  0  0  2  0  0  0  0  0  0
  182.6730  176.4250  137.0510 N   0  0  0  0  0  2  0  0  0  0  0  0
  182.6600  175.2410  134.6800 O   0  0  0  0  0  0  0  0  0  0  0  0
  182.0270  175.1580  136.0410 S   0  0  0  0  0  0  0  0  0  0  0  0
  180.5420  175.3210  135.8980 O   0  0  0  0  0  0  0  0  0  0  0  0
  182.4100  173.5810  136.8200 C   0  0  1  0  0  3  0  0  0  0  0  0
  180.4290  172.2650  137.9980 C   0  0  0  0  0  1  0  0  0  0  0  0
  180.7550  171.9350  135.4960 C   0  0  0  0  0  2  0  0  0  0  0  0
  181.7410  171.2750  136.2590 O   0  0  0  0  0  0  0  0  0  0  0  0
  181.2750  172.5060  136.7600 C   0  0  1  0  0  0  0  0  0  0  0  0
  183.7770  173.2310  136.6820 O   0  0  0  0  0  0  0  0  0  0  0  0
  184.6110  174.1200  137.3800 C   0  0  0  0  0  2  0  0  0  0  0  0
  185.9030  174.4350  136.6360 C   0  0  0  0  0  2  0  0  0  0  0  0
  188.6010  174.4830  135.4270 N   0  0  0  0  0  1  0  0  0  0  0  0
  188.3280  173.7070  136.5960 C   0  0  0  0  0  0  0  0  0  0  0  0
  186.9840  173.5470  137.0590 N   0  0  0  0  0  2  0  0  0  0  0  0
  189.2720  173.1490  137.2090 O   0  0  0  0  0  0  0  0  0  0  0  0
  1 29  1  6  0  0  0
  1  5  1  0  0  0  0
  2  1  1  0  0  0  0
  3  2  2  0  0  0  0
  4  2  1  0  0  0  0
  5  6  2  0  0  0  0
  7  6  1  0  0  0  0
  8 10  1  0  0  0  0
  9  7  1  6  0  0  0
  9 15  1  0  0  0  0
 10 16  2  0  0  0  0
 10 13  1  0  0  0  0
 11 14  1  0  0  0  0
 12  8  1  0  0  0  0
 13 14  1  0  0  0  0
 15 21  1  6  0  0  0
 15 18  1  0  0  0  0
 18 21  1  1  0  0  0
 18 11  1  0  0  0  0
 19 23  1  6  0  0  0
 19  9  1  0  0  0  0
 19 20  1  0  0  0  0
 20 12  1  0  0  0  0
 20 17  2  0  0  0  0
 22 23  1  0  0  0  0
 24 23  2  0  0  0  0
 25 22  1  0  0  0  0
 26 27  1  0  0  0  0
 26 25  1  0  0  0  0
 28 26  2  0  0  0  0
 30 33  1  6  0  0  0
 30 29  1  0  0  0  0
 30 32  1  0  0  0  0
 31 32  1  0  0  0  0
 34 33  1  0  0  0  0
 35 34  1  0  0  0  0
 36 37  2  0  0  0  0
 37 39  1  0  0  0  0
 37 35  1  0  0  0  0
 38 37  2  0  0  0  0
 39 44  1  6  0  0  0
 41 42  1  0  0  0  0
 41 43  1  0  0  0  0
 42 43  1  0  0  0  0
 43 39  1  0  0  0  0
 43 40  1  1  0  0  0
 44 45  1  0  0  0  0
 46 49  1  0  0  0  0
 46 45  1  0  0  0  0
 47 48  1  0  0  0  0
 48 49  1  0  0  0  0
 48 50  2  0  0  0  0
M  END
>  <MODEL>
9

>  <REMARK>
 VINA RESULT:      -5.2      2.786     10.176
  Name = 
  20 active torsions:
  status: ('A' for Active; 'I' for Inactive)
    1  A    between atoms: C_1  and  C_9
    2  A    between atoms: C_2  and  C_13
    3  A    between atoms: C_2  and  C_34
    4  A    between atoms: N_3  and  C_20
    5  A    between atoms: C_4  and  C_6
    6  A    between atoms: C_4  and  N_10
    7  A    between atoms: C_6  and  C_37
    8  A    between atoms: C_8  and  C_20
    9  A    between atoms: C_9  and  C_11
   10  A    between atoms: C_9  and  C_21
   11  A    between atoms: N_10  and  S_35
   12  A    between atoms: O_12  and  C_31
   13  A    between atoms: O_12  and  C_32
   14  A    between atoms: C_21  and  C_37
   15  A    between atoms: N_25  and  C_48
   16  A    between atoms: C_28  and  C_37
   17  A    between atoms: C_31  and  C_33
   18  A    between atoms: C_31  and  S_35
   19  A    between atoms: C_32  and  C_48
   20  A    between atoms: C_36  and  C_45
                            x       y       z     vdW  Elec       q    Type
                         _______ _______ _______ _____ _____    ______ ____

>  <TORSDO>
F 20

$$$$
