=
 OpenBabel11062416173D

 44 50  0  0  1  0  0  0  0  0999 V2000
  188.6480  176.6660  137.3420 N   0  0  0  0  0  1  0  0  0  0  0  0
  184.9830  176.5420  137.1470 C   0  0  0  0  0  2  0  0  0  0  0  0
  186.2800  176.7760  136.6110 N   0  0  0  0  0  2  0  0  0  0  0  0
  187.2760  177.2000  137.4550 C   0  0  0  0  0  0  0  0  0  0  0  0
  185.4620  178.2760  138.7320 C   0  0  0  0  0  3  0  0  0  0  0  0
  186.9240  177.9650  138.5570 C   0  0  0  0  0  0  0  0  0  0  0  0
  184.5510  177.6630  138.0410 C   0  0  0  0  0  0  0  0  0  0  0  0
  190.2870  176.8860  147.4670 C   0  0  0  0  0  3  0  0  0  0  0  0
  188.5130  177.9990  144.7310 C   0  0  2  0  0  3  0  0  0  0  0  0
  192.1520  175.7870  148.1840 O   0  0  0  0  0  1  0  0  0  0  0  0
  192.0190  176.2990  145.8120 C   0  0  0  0  0  3  0  0  0  0  0  0
  191.5240  176.3170  147.1930 C   0  0  0  0  0  0  0  0  0  0  0  0
  187.9960  178.5470  142.2460 C   0  0  2  0  0  3  0  0  0  0  0  0
  187.3000  177.3520  143.8080 C   0  0  0  0  0  2  0  0  0  0  0  0
  187.4830  178.0920  141.0320 N   0  0  0  0  0  0  0  0  0  0  0  0
  188.9430  178.8440  139.2540 O   0  0  0  0  0  0  0  0  0  0  0  0
  191.1110  176.5580  144.8320 C   0  0  0  0  0  3  0  0  0  0  0  0
  188.2860  177.8250  147.2250 O   0  0  0  0  0  1  0  0  0  0  0  0
  189.7150  178.2880  144.0350 C   0  0  1  0  0  3  0  0  0  0  0  0
  189.3770  177.1860  146.6060 C   0  0  1  0  0  3  0  0  0  0  0  0
  189.6280  176.9640  145.0240 C   0  0  1  0  0  0  0  0  0  0  0  0
  187.7860  178.3660  139.5860 C   0  0  0  0  0  0  0  0  0  0  0  0
  189.4950  178.2140  142.5190 C   0  0  0  0  0  2  0  0  0  0  0  0
  187.5170  177.2470  142.2980 C   0  0  1  0  0  3  0  0  0  0  0  0
  181.5290  176.3060  139.2700 N   0  0  0  0  0  0  0  0  0  0  0  0
  180.3700  180.4000  138.2690 C   0  0  0  0  0  0  0  0  0  0  0  0
  181.1640  181.5300  138.3700 C   0  0  0  0  0  3  0  0  0  0  0  0
  182.3600  179.1290  138.4360 C   0  0  0  0  0  0  0  0  0  0  0  0
  183.1110  180.2390  138.6910 C   0  0  0  0  0  3  0  0  0  0  0  0
  182.7300  177.0060  139.4570 N   0  0  0  0  0  2  0  0  0  0  0  0
  180.4090  177.0430  139.7610 C   0  0  0  0  0  0  0  0  0  0  0  0
  180.0580  178.0910  138.9020 O   0  0  0  0  0  0  0  0  0  0  0  0
  180.9320  179.1830  138.5320 C   0  0  0  0  0  0  0  0  0  0  0  0
  183.0540  177.7850  138.2600 C   0  0  2  0  0  3  0  0  0  0  0  0
  179.0300  180.4610  138.0380 O   0  0  0  0  0  1  0  0  0  0  0  0
  182.5290  181.4490  138.5910 C   0  0  0  0  0  3  0  0  0  0  0  0
  179.2590  176.2370  140.5260 C   0  0  1  0  0  3  0  0  0  0  0  0
  179.6450  174.9350  140.9480 C   0  0  0  0  0  3  0  0  0  0  0  0
  178.9680  173.8440  138.9950 O   0  0  0  0  0  1  0  0  0  0  0  0
  179.6310  173.8420  140.2350 C   0  0  0  0  0  3  0  0  0  0  0  0
  178.9310  177.1480  141.6520 O   0  0  0  0  0  0  0  0  0  0  0  0
  179.9210  177.9920  142.3250 C   0  0  0  0  0  2  0  0  0  0  0  0
  179.5870  178.8220  144.3940 C   0  0  0  0  0  1  0  0  0  0  0  0
  180.0150  177.6600  143.7410 O   0  0  0  0  0  0  0  0  0  0  0  0
  1  4  1  0  0  0  0
  2  7  1  0  0  0  0
  3  2  1  0  0  0  0
  3  4  1  0  0  0  0
  4  6  2  0  0  0  0
  6  5  1  0  0  0  0
  6 22  1  0  0  0  0
  7  5  2  0  0  0  0
  9 14  1  6  0  0  0
  9 21  1  0  0  0  0
 11 12  1  0  0  0  0
 12  8  2  0  0  0  0
 12 10  1  0  0  0  0
 13 24  1  0  0  0  0
 13 23  1  6  0  0  0
 15 13  1  0  0  0  0
 15 24  1  0  0  0  0
 16 22  2  0  0  0  0
 17 11  2  0  0  0  0
 19 23  1  6  0  0  0
 19  9  1  0  0  0  0
 19 21  1  0  0  0  0
 20 18  1  6  0  0  0
 20  8  1  0  0  0  0
 21 17  1  6  0  0  0
 21 20  1  0  0  0  0
 22 15  1  0  0  0  0
 24 14  1  1  0  0  0
 25 30  1  0  0  0  0
 25 31  2  0  0  0  0
 26 27  2  0  0  0  0
 26 33  1  0  0  0  0
 27 36  1  0  0  0  0
 28 33  2  0  0  0  0
 28 29  1  0  0  0  0
 31 37  1  0  0  0  0
 32 31  1  0  0  0  0
 33 32  1  0  0  0  0
 34  7  1  1  0  0  0
 34 28  1  0  0  0  0
 34 30  1  0  0  0  0
 35 26  1  0  0  0  0
 36 29  2  0  0  0  0
 37 38  1  1  0  0  0
 37 41  1  0  0  0  0
 39 40  1  0  0  0  0
 40 38  2  0  0  0  0
 41 42  1  0  0  0  0
 42 44  1  0  0  0  0
 44 43  1  0  0  0  0
M  END
>  <MODEL>
1

>  <REMARK>
 VINA RESULT:      -9.3      0.000      0.000
  Name = 
  7 active torsions:
  status: ('A' for Active; 'I' for Inactive)
    1  A    between atoms: C_1  and  C_43
    2  A    between atoms: C_15  and  O_29
    3  A    between atoms: C_15  and  O_37
    4  A    between atoms: C_22  and  C_43
    5  A    between atoms: O_29  and  C_43
    6  A    between atoms: C_35  and  C_38
    7  A    between atoms: C_36  and  C_39
                            x       y       z     vdW  Elec       q    Type
                         _______ _______ _______ _____ _____    ______ ____

>  <TORSDO>
F 7

$$$$
=
 OpenBabel11062416173D

 44 50  0  0  1  0  0  0  0  0999 V2000
  187.9180  177.5230  136.7650 N   0  0  0  0  0  1  0  0  0  0  0  0
  187.5070  178.2860  140.3330 C   0  0  0  0  0  2  0  0  0  0  0  0
  187.6600  178.6410  138.9640 N   0  0  0  0  0  2  0  0  0  0  0  0
  188.3720  177.8040  138.1420 C   0  0  0  0  0  0  0  0  0  0  0  0
  189.6500  177.2250  140.1680 C   0  0  0  0  0  3  0  0  0  0  0  0
  189.3970  177.0520  138.6950 C   0  0  0  0  0  0  0  0  0  0  0  0
  188.8070  177.8470  140.9330 C   0  0  0  0  0  0  0  0  0  0  0  0
  197.8060  173.5000  135.7750 C   0  0  0  0  0  3  0  0  0  0  0  0
  194.7680  175.1230  135.8530 C   0  0  2  0  0  3  0  0  0  0  0  0
  199.1190  171.9100  136.7480 O   0  0  0  0  0  1  0  0  0  0  0  0
  196.8200  172.0640  137.5210 C   0  0  0  0  0  3  0  0  0  0  0  0
  197.9540  172.4540  136.6760 C   0  0  0  0  0  0  0  0  0  0  0  0
  192.3250  175.6460  136.5630 C   0  0  2  0  0  3  0  0  0  0  0  0
  194.2250  176.5100  136.5770 C   0  0  0  0  0  2  0  0  0  0  0  0
  191.4860  176.3270  137.4430 N   0  0  0  0  0  0  0  0  0  0  0  0
  189.6850  174.8430  138.0870 O   0  0  0  0  0  0  0  0  0  0  0  0
  195.7840  172.9430  137.5990 C   0  0  0  0  0  3  0  0  0  0  0  0
  196.9700  175.2290  134.6550 O   0  0  0  0  0  1  0  0  0  0  0  0
  194.1110  173.9310  136.2580 C   0  0  1  0  0  3  0  0  0  0  0  0
  196.8500  174.3630  135.7570 C   0  0  1  0  0  3  0  0  0  0  0  0
  195.6310  174.2710  136.8170 C   0  0  1  0  0  0  0  0  0  0  0  0
  190.1310  176.0570  138.0370 C   0  0  0  0  0  0  0  0  0  0  0  0
  192.8390  174.2560  137.0500 C   0  0  0  0  0  2  0  0  0  0  0  0
  193.0050  176.4180  137.4940 C   0  0  1  0  0  3  0  0  0  0  0  0
  187.2400  178.4340  144.0450 N   0  0  0  0  0  0  0  0  0  0  0  0
  191.1340  176.8550  145.2490 C   0  0  0  0  0  0  0  0  0  0  0  0
  191.8780  175.8980  144.5800 C   0  0  0  0  0  3  0  0  0  0  0  0
  189.8780  177.1010  143.2570 C   0  0  0  0  0  0  0  0  0  0  0  0
  190.5140  176.0510  142.6630 C   0  0  0  0  0  3  0  0  0  0  0  0
  187.5640  177.5960  142.9680 N   0  0  0  0  0  2  0  0  0  0  0  0
  187.5960  177.8450  145.2950 C   0  0  0  0  0  0  0  0  0  0  0  0
  188.9760  177.9020  145.5240 O   0  0  0  0  0  0  0  0  0  0  0  0
  189.9790  177.3040  144.6720 C   0  0  0  0  0  0  0  0  0  0  0  0
  188.8910  177.9300  142.4470 C   0  0  2  0  0  3  0  0  0  0  0  0
  191.4390  177.2780  146.5060 O   0  0  0  0  0  1  0  0  0  0  0  0
  191.5620  175.4900  143.2950 C   0  0  0  0  0  3  0  0  0  0  0  0
  186.5890  178.0280  146.5240 C   0  0  1  0  0  3  0  0  0  0  0  0
  187.1960  178.5470  147.7000 C   0  0  0  0  0  3  0  0  0  0  0  0
  188.2030  176.5420  148.3510 O   0  0  0  0  0  1  0  0  0  0  0  0
  188.0280  177.9290  148.4930 C   0  0  0  0  0  3  0  0  0  0  0  0
  185.5520  178.9240  145.9510 O   0  0  0  0  0  0  0  0  0  0  0  0
  184.1140  178.6590  146.0420 C   0  0  0  0  0  2  0  0  0  0  0  0
  183.5230  178.6750  143.8670 C   0  0  0  0  0  1  0  0  0  0  0  0
  183.3770  179.4210  145.0430 O   0  0  0  0  0  0  0  0  0  0  0  0
  1  4  1  0  0  0  0
  2  7  1  0  0  0  0
  3  2  1  0  0  0  0
  4  6  2  0  0  0  0
  4  3  1  0  0  0  0
  5  7  2  0  0  0  0
  6  5  1  0  0  0  0
  8 12  2  0  0  0  0
  9 19  1  0  0  0  0
  9 14  1  1  0  0  0
  9 21  1  0  0  0  0
 11 17  2  0  0  0  0
 12 10  1  0  0  0  0
 12 11  1  0  0  0  0
 13 23  1  1  0  0  0
 13 15  1  0  0  0  0
 13 24  1  0  0  0  0
 15 24  1  0  0  0  0
 15 22  1  0  0  0  0
 19 21  1  0  0  0  0
 19 23  1  1  0  0  0
 20 18  1  6  0  0  0
 20  8  1  0  0  0  0
 20 21  1  0  0  0  0
 21 17  1  1  0  0  0
 22 16  2  0  0  0  0
 22  6  1  0  0  0  0
 24 14  1  6  0  0  0
 25 31  2  0  0  0  0
 26 35  1  0  0  0  0
 27 26  2  0  0  0  0
 28 33  2  0  0  0  0
 29 28  1  0  0  0  0
 29 36  2  0  0  0  0
 30 25  1  0  0  0  0
 31 32  1  0  0  0  0
 31 37  1  0  0  0  0
 33 26  1  0  0  0  0
 33 32  1  0  0  0  0
 34  7  1  6  0  0  0
 34 30  1  0  0  0  0
 34 28  1  0  0  0  0
 36 27  1  0  0  0  0
 37 38  1  1  0  0  0
 38 40  2  0  0  0  0
 39 40  1  0  0  0  0
 41 42  1  0  0  0  0
 41 37  1  0  0  0  0
 43 44  1  0  0  0  0
 44 42  1  0  0  0  0
M  END
>  <MODEL>
2

>  <REMARK>
 VINA RESULT:      -9.2      5.517      9.537
  Name = 
  7 active torsions:
  status: ('A' for Active; 'I' for Inactive)
    1  A    between atoms: C_1  and  C_43
    2  A    between atoms: C_15  and  O_29
    3  A    between atoms: C_15  and  O_37
    4  A    between atoms: C_22  and  C_43
    5  A    between atoms: O_29  and  C_43
    6  A    between atoms: C_35  and  C_38
    7  A    between atoms: C_36  and  C_39
                            x       y       z     vdW  Elec       q    Type
                         _______ _______ _______ _____ _____    ______ ____

>  <TORSDO>
F 7

$$$$
=
 OpenBabel11062416173D

 44 50  0  0  1  0  0  0  0  0999 V2000
  179.9170  179.4230  142.6800 N   0  0  0  0  0  1  0  0  0  0  0  0
  183.1940  178.8440  144.2340 C   0  0  0  0  0  2  0  0  0  0  0  0
  182.1120  179.6660  143.8100 N   0  0  0  0  0  2  0  0  0  0  0  0
  181.3870  179.2840  142.7090 C   0  0  0  0  0  0  0  0  0  0  0  0
  183.4870  178.2570  141.9290 C   0  0  0  0  0  3  0  0  0  0  0  0
  182.0290  178.5600  141.7150 C   0  0  0  0  0  0  0  0  0  0  0  0
  184.0570  178.4380  143.0800 C   0  0  0  0  0  0  0  0  0  0  0  0
  181.4820  171.4670  135.2930 C   0  0  0  0  0  3  0  0  0  0  0  0
  182.1950  174.4670  136.8310 C   0  0  2  0  0  3  0  0  0  0  0  0
  180.1330  169.6280  135.2830 O   0  0  0  0  0  1  0  0  0  0  0  0
  179.5170  171.4380  136.7840 C   0  0  0  0  0  3  0  0  0  0  0  0
  180.3530  170.8050  135.7590 C   0  0  0  0  0  0  0  0  0  0  0  0
  181.9020  176.4930  138.4280 C   0  0  2  0  0  3  0  0  0  0  0  0
  183.2160  174.9150  138.0560 C   0  0  0  0  0  2  0  0  0  0  0  0
  182.1470  177.0290  139.6910 N   0  0  0  0  0  0  0  0  0  0  0  0
  180.1420  178.1560  140.4470 O   0  0  0  0  0  0  0  0  0  0  0  0
  180.0570  172.4960  137.4470 C   0  0  0  0  0  2  0  0  0  0  0  0
  183.1170  172.9540  135.0530 O   0  0  0  0  0  1  0  0  0  0  0  0
  180.8170  174.7010  137.0750 C   0  0  1  0  0  3  0  0  0  0  0  0
  182.0470  172.4870  135.8400 C   0  0  0  0  0  0  0  0  0  0  0  0
  181.4270  173.1650  137.1700 C   0  0  1  0  0  0  0  0  0  0  0  0
  181.4160  177.9800  140.5980 C   0  0  0  0  0  0  0  0  0  0  0  0
  180.6290  175.6010  138.3020 C   0  0  0  0  0  2  0  0  0  0  0  0
  182.6230  175.6490  139.2590 C   0  0  1  0  0  3  0  0  0  0  0  0
  187.3980  177.8280  142.1040 N   0  0  0  0  0  0  0  0  0  0  0  0
  187.6370  177.5470  146.4600 C   0  0  0  0  0  0  0  0  0  0  0  0
  186.8970  178.2770  147.3740 C   0  0  0  0  0  3  0  0  0  0  0  0
  186.0590  178.2170  144.8260 C   0  0  0  0  0  0  0  0  0  0  0  0
  185.4310  179.0560  145.7000 C   0  0  0  0  0  3  0  0  0  0  0  0
  186.3730  178.6950  142.5120 N   0  0  0  0  0  2  0  0  0  0  0  0
  188.5570  177.9610  142.9270 C   0  0  0  0  0  0  0  0  0  0  0  0
  188.3840  177.3470  144.1730 O   0  0  0  0  0  0  0  0  0  0  0  0
  187.3580  177.6950  145.1300 C   0  0  0  0  0  0  0  0  0  0  0  0
  185.4690  178.0100  143.4380 C   0  0  2  0  0  3  0  0  0  0  0  0
  188.7040  176.7830  146.8190 O   0  0  0  0  0  1  0  0  0  0  0  0
  185.8030  179.0380  146.9940 C   0  0  0  0  0  3  0  0  0  0  0  0
  189.9890  177.9090  142.2180 C   0  0  1  0  0  3  0  0  0  0  0  0
  191.0450  177.4870  143.0720 C   0  0  0  0  0  3  0  0  0  0  0  0
  191.4580  179.5940  143.9950 O   0  0  0  0  0  1  0  0  0  0  0  0
  191.6590  178.2030  143.9740 C   0  0  0  0  0  3  0  0  0  0  0  0
  189.7460  176.9840  141.0820 O   0  0  0  0  0  0  0  0  0  0  0  0
  190.0690  177.3090  139.6900 C   0  0  0  0  0  2  0  0  0  0  0  0
  188.7210  177.8990  137.9830 C   0  0  0  0  0  1  0  0  0  0  0  0
  189.0510  176.7980  138.7830 O   0  0  0  0  0  0  0  0  0  0  0  0
  1  4  1  0  0  0  0
  3  2  1  0  0  0  0
  4  3  1  0  0  0  0
  5  7  2  0  0  0  0
  6  5  1  0  0  0  0
  6  4  2  0  0  0  0
  7  2  1  0  0  0  0
  8 12  1  0  0  0  0
  8 20  2  0  0  0  0
  9 19  1  0  0  0  0
  9 21  1  0  0  0  0
  9 14  1  1  0  0  0
 10 12  1  0  0  0  0
 11 17  1  0  0  0  0
 12 11  2  0  0  0  0
 13 23  1  1  0  0  0
 13 24  1  0  0  0  0
 13 15  1  0  0  0  0
 15 22  1  0  0  0  0
 16 22  2  0  0  0  0
 18 20  1  0  0  0  0
 19 21  1  0  0  0  0
 19 23  1  1  0  0  0
 20 21  1  0  0  0  0
 21 17  1  1  0  0  0
 22  6  1  0  0  0  0
 24 14  1  6  0  0  0
 24 15  1  0  0  0  0
 25 30  1  0  0  0  0
 25 31  2  0  0  0  0
 26 35  1  0  0  0  0
 26 27  1  0  0  0  0
 28 33  1  0  0  0  0
 28 29  2  0  0  0  0
 29 36  1  0  0  0  0
 30 34  1  0  0  0  0
 31 32  1  0  0  0  0
 32 33  1  0  0  0  0
 33 26  2  0  0  0  0
 34  7  1  1  0  0  0
 34 28  1  0  0  0  0
 36 27  2  0  0  0  0
 37 31  1  0  0  0  0
 37 38  1  1  0  0  0
 38 40  2  0  0  0  0
 40 39  1  0  0  0  0
 41 37  1  0  0  0  0
 42 41  1  0  0  0  0
 43 44  1  0  0  0  0
 44 42  1  0  0  0  0
M  END
>  <MODEL>
3

>  <REMARK>
 VINA RESULT:      -8.9      3.221     10.703
  Name = 
  7 active torsions:
  status: ('A' for Active; 'I' for Inactive)
    1  A    between atoms: C_1  and  C_43
    2  A    between atoms: C_15  and  O_29
    3  A    between atoms: C_15  and  O_37
    4  A    between atoms: C_22  and  C_43
    5  A    between atoms: O_29  and  C_43
    6  A    between atoms: C_35  and  C_38
    7  A    between atoms: C_36  and  C_39
                            x       y       z     vdW  Elec       q    Type
                         _______ _______ _______ _____ _____    ______ ____

>  <TORSDO>
F 7

$$$$
=
 OpenBabel11062416173D

 44 50  0  0  1  0  0  0  0  0999 V2000
  188.8700  175.9500  137.6330 N   0  0  0  0  0  1  0  0  0  0  0  0
  185.2710  176.5570  137.2240 C   0  0  0  0  0  2  0  0  0  0  0  0
  186.6050  176.4370  136.7450 N   0  0  0  0  0  2  0  0  0  0  0  0
  187.6400  176.7660  137.5840 C   0  0  0  0  0  0  0  0  0  0  0  0
  186.0560  178.3690  138.5840 C   0  0  0  0  0  3  0  0  0  0  0  0
  187.4230  177.7410  138.5470 C   0  0  0  0  0  0  0  0  0  0  0  0
  185.0590  177.8620  137.9270 C   0  0  0  0  0  0  0  0  0  0  0  0
  190.5990  176.7770  147.5380 C   0  0  0  0  0  3  0  0  0  0  0  0
  188.9690  177.9270  144.7290 C   0  0  2  0  0  3  0  0  0  0  0  0
  192.3350  175.5280  148.3310 O   0  0  0  0  0  1  0  0  0  0  0  0
  192.2710  175.9280  145.9340 C   0  0  0  0  0  3  0  0  0  0  0  0
  191.7720  176.0690  147.3070 C   0  0  0  0  0  0  0  0  0  0  0  0
  188.5280  178.3970  142.2140 C   0  0  2  0  0  3  0  0  0  0  0  0
  187.7000  177.3630  143.8260 C   0  0  0  0  0  2  0  0  0  0  0  0
  187.9770  177.9360  141.0190 N   0  0  0  0  0  0  0  0  0  0  0  0
  189.5190  178.4390  139.2210 O   0  0  0  0  0  0  0  0  0  0  0  0
  191.4000  176.2300  144.9320 C   0  0  0  0  0  3  0  0  0  0  0  0
  188.7100  177.9060  147.2250 O   0  0  0  0  0  1  0  0  0  0  0  0
  190.1990  178.0530  144.0330 C   0  0  1  0  0  3  0  0  0  0  0  0
  189.7310  177.1260  146.6520 C   0  0  1  0  0  3  0  0  0  0  0  0
  189.9670  176.7970  145.0860 C   0  0  1  0  0  0  0  0  0  0  0  0
  188.3160  178.1020  139.5640 C   0  0  0  0  0  0  0  0  0  0  0  0
  189.9820  177.9230  142.5200 C   0  0  0  0  0  2  0  0  0  0  0  0
  187.9140  177.1580  142.3260 C   0  0  1  0  0  3  0  0  0  0  0  0
  181.8320  178.1210  136.5100 N   0  0  0  0  0  0  0  0  0  0  0  0
  181.1470  179.4300  140.6240 C   0  0  0  0  0  0  0  0  0  0  0  0
  181.7940  178.9640  141.7560 C   0  0  0  0  0  3  0  0  0  0  0  0
  182.8880  178.4360  139.3630 C   0  0  0  0  0  0  0  0  0  0  0  0
  183.4280  177.8510  140.4710 C   0  0  0  0  0  3  0  0  0  0  0  0
  182.8150  177.4080  137.2140 N   0  0  0  0  0  2  0  0  0  0  0  0
  180.5960  178.1540  137.2230 C   0  0  0  0  0  0  0  0  0  0  0  0
  180.6370  179.0540  138.2940 O   0  0  0  0  0  0  0  0  0  0  0  0
  181.5610  178.9760  139.4030 C   0  0  0  0  0  0  0  0  0  0  0  0
  183.6150  178.3220  138.0310 C   0  0  2  0  0  3  0  0  0  0  0  0
  180.0450  180.2260  140.6810 O   0  0  0  0  0  1  0  0  0  0  0  0
  182.9240  178.1670  141.6790 C   0  0  0  0  0  3  0  0  0  0  0  0
  179.2430  177.9920  136.3850 C   0  0  1  0  0  3  0  0  0  0  0  0
  179.2620  178.6440  135.1210 C   0  0  0  0  0  3  0  0  0  0  0  0
  178.9320  180.7990  135.9610 O   0  0  0  0  0  1  0  0  0  0  0  0
  179.2360  179.9290  134.8990 C   0  0  0  0  0  3  0  0  0  0  0  0
  179.1080  176.5170  136.2860 O   0  0  0  0  0  0  0  0  0  0  0  0
  179.4270  175.6000  137.3830 C   0  0  0  0  0  2  0  0  0  0  0  0
  180.4780  174.7390  135.5850 C   0  0  0  0  0  1  0  0  0  0  0  0
  180.0890  174.4010  136.8860 O   0  0  0  0  0  0  0  0  0  0  0  0
  2  7  1  0  0  0  0
  3  2  1  0  0  0  0
  3  4  1  0  0  0  0
  4  1  1  0  0  0  0
  4  6  2  0  0  0  0
  6  5  1  0  0  0  0
  6 22  1  0  0  0  0
  7  5  2  0  0  0  0
  9 14  1  6  0  0  0
  9 21  1  0  0  0  0
 11 12  1  0  0  0  0
 12  8  2  0  0  0  0
 12 10  1  0  0  0  0
 13 24  1  0  0  0  0
 13 23  1  6  0  0  0
 15 13  1  0  0  0  0
 15 24  1  0  0  0  0
 16 22  2  0  0  0  0
 17 11  2  0  0  0  0
 19 23  1  6  0  0  0
 19  9  1  0  0  0  0
 19 21  1  0  0  0  0
 20 18  1  6  0  0  0
 20  8  1  0  0  0  0
 21 17  1  6  0  0  0
 21 20  1  0  0  0  0
 22 15  1  0  0  0  0
 24 14  1  1  0  0  0
 25 30  1  0  0  0  0
 25 31  2  0  0  0  0
 26 35  1  0  0  0  0
 26 27  1  0  0  0  0
 28 33  1  0  0  0  0
 28 29  2  0  0  0  0
 29 36  1  0  0  0  0
 30 34  1  0  0  0  0
 31 32  1  0  0  0  0
 32 33  1  0  0  0  0
 33 26  2  0  0  0  0
 34  7  1  1  0  0  0
 34 28  1  0  0  0  0
 36 27  2  0  0  0  0
 37 38  1  6  0  0  0
 37 31  1  0  0  0  0
 40 38  2  0  0  0  0
 40 39  1  0  0  0  0
 41 37  1  0  0  0  0
 41 42  1  0  0  0  0
 43 44  1  0  0  0  0
 44 42  1  0  0  0  0
M  END
>  <MODEL>
4

>  <REMARK>
 VINA RESULT:      -8.8      1.844      3.377
  Name = 
  7 active torsions:
  status: ('A' for Active; 'I' for Inactive)
    1  A    between atoms: C_1  and  C_43
    2  A    between atoms: C_15  and  O_29
    3  A    between atoms: C_15  and  O_37
    4  A    between atoms: C_22  and  C_43
    5  A    between atoms: O_29  and  C_43
    6  A    between atoms: C_35  and  C_38
    7  A    between atoms: C_36  and  C_39
                            x       y       z     vdW  Elec       q    Type
                         _______ _______ _______ _____ _____    ______ ____

>  <TORSDO>
F 7

$$$$
=
 OpenBabel11062416173D

 44 50  0  0  1  0  0  0  0  0999 V2000
  189.2280  177.9090  136.2010 N   0  0  0  0  0  1  0  0  0  0  0  0
  187.9310  178.3760  139.6050 C   0  0  0  0  0  2  0  0  0  0  0  0
  188.5740  178.8170  138.4150 N   0  0  0  0  0  2  0  0  0  0  0  0
  189.2900  177.9090  137.6760 C   0  0  0  0  0  0  0  0  0  0  0  0
  189.7170  176.7920  139.8320 C   0  0  0  0  0  3  0  0  0  0  0  0
  189.8940  176.8510  138.3390 C   0  0  0  0  0  0  0  0  0  0  0  0
  188.8470  177.5380  140.4420 C   0  0  0  0  0  0  0  0  0  0  0  0
  197.9890  172.3980  135.7900 C   0  0  0  0  0  3  0  0  0  0  0  0
  195.1250  174.3130  135.7250 C   0  0  2  0  0  3  0  0  0  0  0  0
  199.1100  170.7190  136.8500 O   0  0  0  0  0  1  0  0  0  0  0  0
  196.8160  171.1230  137.5450 C   0  0  0  0  0  3  0  0  0  0  0  0
  198.0070  171.3720  136.7250 C   0  0  0  0  0  0  0  0  0  0  0  0
  192.7280  175.0960  136.3420 C   0  0  2  0  0  3  0  0  0  0  0  0
  194.7020  175.7700  136.3900 C   0  0  0  0  0  2  0  0  0  0  0  0
  191.9360  175.8840  137.1760 N   0  0  0  0  0  0  0  0  0  0  0  0
  189.9790  174.6060  137.8060 O   0  0  0  0  0  0  0  0  0  0  0  0
  195.8710  172.1010  137.5650 C   0  0  0  0  0  3  0  0  0  0  0  0
  197.3610  174.1640  134.5940 O   0  0  0  0  0  1  0  0  0  0  0  0
  194.3430  173.2060  136.1430 C   0  0  1  0  0  3  0  0  0  0  0  0
  197.1240  173.3500  135.7170 C   0  0  1  0  0  3  0  0  0  0  0  0
  195.8730  173.4120  136.7400 C   0  0  1  0  0  0  0  0  0  0  0  0
  190.5450  175.7680  137.7340 C   0  0  0  0  0  0  0  0  0  0  0  0
  193.0870  173.6790  136.8860 C   0  0  0  0  0  2  0  0  0  0  0  0
  193.4540  175.8270  137.2710 C   0  0  1  0  0  3  0  0  0  0  0  0
  189.8400  177.2150  143.8180 N   0  0  0  0  0  0  0  0  0  0  0  0
  185.5730  178.0910  144.1840 C   0  0  0  0  0  0  0  0  0  0  0  0
  184.8250  178.9080  143.3540 C   0  0  0  0  0  3  0  0  0  0  0  0
  187.2240  178.0750  142.4870 C   0  0  0  0  0  0  0  0  0  0  0  0
  186.5490  179.0020  141.7480 C   0  0  0  0  0  3  0  0  0  0  0  0
  189.5990  177.9900  142.6740 N   0  0  0  0  0  2  0  0  0  0  0  0
  189.1470  177.7280  144.9560 C   0  0  0  0  0  0  0  0  0  0  0  0
  187.7800  177.4320  144.9090 O   0  0  0  0  0  0  0  0  0  0  0  0
  186.8790  177.8510  143.8590 C   0  0  0  0  0  0  0  0  0  0  0  0
  188.4800  177.4340  141.9110 C   0  0  2  0  0  3  0  0  0  0  0  0
  185.1010  177.6150  145.3680 O   0  0  0  0  0  1  0  0  0  0  0  0
  185.3170  179.3710  142.1440 C   0  0  0  0  0  3  0  0  0  0  0  0
  189.9060  177.7150  146.3630 C   0  0  1  0  0  3  0  0  0  0  0  0
  189.3620  176.8020  147.3080 C   0  0  0  0  0  3  0  0  0  0  0  0
  187.9030  178.3320  148.3030 O   0  0  0  0  0  1  0  0  0  0  0  0
  188.3710  177.0180  148.1290 C   0  0  0  0  0  3  0  0  0  0  0  0
  191.3000  177.3930  145.9680 O   0  0  0  0  0  0  0  0  0  0  0  0
  191.9900  176.1640  146.3650 C   0  0  0  0  0  2  0  0  0  0  0  0
  192.4210  175.3710  148.4310 C   0  0  0  0  0  1  0  0  0  0  0  0
  192.8130  176.3840  147.5470 O   0  0  0  0  0  0  0  0  0  0  0  0
  1  4  1  0  0  0  0
  2  7  1  0  0  0  0
  3  2  1  0  0  0  0
  4  6  2  0  0  0  0
  4  3  1  0  0  0  0
  5  7  2  0  0  0  0
  6  5  1  0  0  0  0
  8 12  2  0  0  0  0
  9 19  1  0  0  0  0
  9 14  1  1  0  0  0
  9 21  1  0  0  0  0
 11 17  2  0  0  0  0
 12 10  1  0  0  0  0
 12 11  1  0  0  0  0
 13 23  1  1  0  0  0
 13 15  1  0  0  0  0
 13 24  1  0  0  0  0
 15 24  1  0  0  0  0
 15 22  1  0  0  0  0
 19 21  1  0  0  0  0
 19 23  1  1  0  0  0
 20 18  1  6  0  0  0
 20  8  1  0  0  0  0
 20 21  1  0  0  0  0
 21 17  1  1  0  0  0
 22 16  2  0  0  0  0
 22  6  1  0  0  0  0
 24 14  1  6  0  0  0
 25 31  2  0  0  0  0
 26 35  1  0  0  0  0
 27 26  2  0  0  0  0
 28 33  2  0  0  0  0
 29 36  2  0  0  0  0
 29 28  1  0  0  0  0
 30 25  1  0  0  0  0
 31 37  1  0  0  0  0
 32 31  1  0  0  0  0
 33 26  1  0  0  0  0
 33 32  1  0  0  0  0
 34  7  1  6  0  0  0
 34 28  1  0  0  0  0
 34 30  1  0  0  0  0
 36 27  1  0  0  0  0
 37 38  1  1  0  0  0
 38 40  2  0  0  0  0
 40 39  1  0  0  0  0
 41 37  1  0  0  0  0
 41 42  1  0  0  0  0
 42 44  1  0  0  0  0
 44 43  1  0  0  0  0
M  END
>  <MODEL>
5

>  <REMARK>
 VINA RESULT:      -8.7      5.773      9.767
  Name = 
  7 active torsions:
  status: ('A' for Active; 'I' for Inactive)
    1  A    between atoms: C_1  and  C_43
    2  A    between atoms: C_15  and  O_29
    3  A    between atoms: C_15  and  O_37
    4  A    between atoms: C_22  and  C_43
    5  A    between atoms: O_29  and  C_43
    6  A    between atoms: C_35  and  C_38
    7  A    between atoms: C_36  and  C_39
                            x       y       z     vdW  Elec       q    Type
                         _______ _______ _______ _____ _____    ______ ____

>  <TORSDO>
F 7

$$$$
=
 OpenBabel11062416173D

 44 50  0  0  1  0  0  0  0  0999 V2000
  192.4280  176.3790  136.8460 N   0  0  0  0  0  1  0  0  0  0  0  0
  191.8070  177.5020  140.2870 C   0  0  0  0  0  2  0  0  0  0  0  0
  192.5030  176.7540  139.2970 N   0  0  0  0  0  2  0  0  0  0  0  0
  191.8160  176.3260  138.1890 C   0  0  0  0  0  0  0  0  0  0  0  0
  189.8550  176.2490  139.6810 C   0  0  0  0  0  3  0  0  0  0  0  0
  190.4620  176.0550  138.3170 C   0  0  0  0  0  0  0  0  0  0  0  0
  190.4920  176.8690  140.6250 C   0  0  0  0  0  0  0  0  0  0  0  0
  183.6180  170.4620  134.6120 C   0  0  0  0  0  3  0  0  0  0  0  0
  186.6740  171.8710  135.3540 C   0  0  2  0  0  3  0  0  0  0  0  0
  181.3580  170.7640  134.5940 O   0  0  0  0  0  1  0  0  0  0  0  0
  182.7240  172.7060  135.1130 C   0  0  0  0  0  3  0  0  0  0  0  0
  182.5190  171.2990  134.7500 C   0  0  0  0  0  0  0  0  0  0  0  0
  188.3930  173.6970  136.0250 C   0  0  2  0  0  3  0  0  0  0  0  0
  187.6420  171.8710  136.6980 C   0  0  0  0  0  2  0  0  0  0  0  0
  189.0590  174.3500  137.0610 N   0  0  0  0  0  0  0  0  0  0  0  0
  189.1050  176.7200  136.5710 O   0  0  0  0  0  0  0  0  0  0  0  0
  183.9520  173.0400  135.5960 C   0  0  0  0  0  3  0  0  0  0  0  0
  185.6970  169.6750  134.6320 O   0  0  0  0  0  1  0  0  0  0  0  0
  186.2170  173.1480  134.9370 C   0  0  1  0  0  3  0  0  0  0  0  0
  184.8170  170.7040  135.0150 C   0  0  1  0  0  3  0  0  0  0  0  0
  185.1870  172.1130  135.7170 C   0  0  1  0  0  0  0  0  0  0  0  0
  189.5850  175.7420  137.2710 C   0  0  0  0  0  0  0  0  0  0  0  0
  186.9860  174.2610  135.6600 C   0  0  0  0  0  2  0  0  0  0  0  0
  188.0660  173.2170  137.2840 C   0  0  1  0  0  3  0  0  0  0  0  0
  187.7150  177.8700  142.5660 N   0  0  0  0  0  0  0  0  0  0  0  0
  190.7270  177.0280  145.6200 C   0  0  0  0  0  0  0  0  0  0  0  0
  191.7080  176.0520  145.5640 C   0  0  0  0  0  3  0  0  0  0  0  0
  190.4590  176.7270  143.2870 C   0  0  0  0  0  0  0  0  0  0  0  0
  191.3120  175.6630  143.2720 C   0  0  0  0  0  3  0  0  0  0  0  0
  188.4920  176.8800  141.9480 N   0  0  0  0  0  2  0  0  0  0  0  0
  187.5030  177.5850  143.9500 C   0  0  0  0  0  0  0  0  0  0  0  0
  188.6440  177.8480  144.7160 O   0  0  0  0  0  0  0  0  0  0  0  0
  189.9300  177.2150  144.5260 C   0  0  0  0  0  0  0  0  0  0  0  0
  189.9070  177.2580  141.9710 C   0  0  2  0  0  3  0  0  0  0  0  0
  190.4460  177.7230  146.7560 O   0  0  0  0  0  1  0  0  0  0  0  0
  191.9910  175.3640  144.3950 C   0  0  0  0  0  3  0  0  0  0  0  0
  186.0580  177.8870  144.5640 C   0  0  1  0  0  3  0  0  0  0  0  0
  186.0250  178.9950  145.4550 C   0  0  0  0  0  3  0  0  0  0  0  0
  184.4790  178.0610  146.9370 O   0  0  0  0  0  1  0  0  0  0  0  0
  185.4060  179.0630  146.6010 C   0  0  0  0  0  3  0  0  0  0  0  0
  185.2320  178.0860  143.3460 O   0  0  0  0  0  0  0  0  0  0  0  0
  184.9220  179.4040  142.7860 C   0  0  0  0  0  2  0  0  0  0  0  0
  184.1140  178.3560  140.9610 C   0  0  0  0  0  1  0  0  0  0  0  0
  184.9900  179.3830  141.3310 O   0  0  0  0  0  0  0  0  0  0  0  0
  1  4  1  0  0  0  0
  2  7  1  0  0  0  0
  3  2  1  0  0  0  0
  4  6  2  0  0  0  0
  4  3  1  0  0  0  0
  5  7  2  0  0  0  0
  6  5  1  0  0  0  0
  8 12  2  0  0  0  0
  8 20  1  0  0  0  0
  9 21  1  0  0  0  0
  9 14  1  1  0  0  0
 10 12  1  0  0  0  0
 11 17  2  0  0  0  0
 12 11  1  0  0  0  0
 13 23  1  1  0  0  0
 13 15  1  0  0  0  0
 13 24  1  0  0  0  0
 15 22  1  0  0  0  0
 15 24  1  0  0  0  0
 16 22  2  0  0  0  0
 19  9  1  0  0  0  0
 19 23  1  1  0  0  0
 19 21  1  0  0  0  0
 20 18  1  6  0  0  0
 20 21  1  0  0  0  0
 21 17  1  1  0  0  0
 22  6  1  0  0  0  0
 24 14  1  6  0  0  0
 25 31  2  0  0  0  0
 26 35  1  0  0  0  0
 27 26  1  0  0  0  0
 28 33  1  0  0  0  0
 29 28  2  0  0  0  0
 29 36  1  0  0  0  0
 30 34  1  0  0  0  0
 30 25  1  0  0  0  0
 31 37  1  0  0  0  0
 31 32  1  0  0  0  0
 33 32  1  0  0  0  0
 33 26  2  0  0  0  0
 34  7  1  6  0  0  0
 34 28  1  0  0  0  0
 36 27  2  0  0  0  0
 37 38  1  1  0  0  0
 38 40  2  0  0  0  0
 40 39  1  0  0  0  0
 41 37  1  0  0  0  0
 42 41  1  0  0  0  0
 43 44  1  0  0  0  0
 44 42  1  0  0  0  0
M  END
>  <MODEL>
6

>  <REMARK>
 VINA RESULT:      -8.4      3.917     10.035
  Name = 
  7 active torsions:
  status: ('A' for Active; 'I' for Inactive)
    1  A    between atoms: C_1  and  C_43
    2  A    between atoms: C_15  and  O_29
    3  A    between atoms: C_15  and  O_37
    4  A    between atoms: C_22  and  C_43
    5  A    between atoms: O_29  and  C_43
    6  A    between atoms: C_35  and  C_38
    7  A    between atoms: C_36  and  C_39
                            x       y       z     vdW  Elec       q    Type
                         _______ _______ _______ _____ _____    ______ ____

>  <TORSDO>
F 7

$$$$
=
 OpenBabel11062416173D

 44 50  0  0  1  0  0  0  0  0999 V2000
  192.6230  176.4660  136.8660 N   0  0  0  0  0  1  0  0  0  0  0  0
  192.0710  177.5370  140.3350 C   0  0  0  0  0  2  0  0  0  0  0  0
  192.7290  176.7830  139.3240 N   0  0  0  0  0  2  0  0  0  0  0  0
  192.0180  176.4090  138.2120 C   0  0  0  0  0  0  0  0  0  0  0  0
  190.0650  176.3800  139.7150 C   0  0  0  0  0  3  0  0  0  0  0  0
  190.6550  176.1920  138.3440 C   0  0  0  0  0  0  0  0  0  0  0  0
  190.7330  176.9530  140.6680 C   0  0  0  0  0  0  0  0  0  0  0  0
  183.5010  171.0270  134.6020 C   0  0  0  0  0  3  0  0  0  0  0  0
  186.6320  172.2560  135.3500 C   0  0  2  0  0  3  0  0  0  0  0  0
  181.2610  171.4550  134.5940 O   0  0  0  0  0  1  0  0  0  0  0  0
  182.7350  173.3120  135.1290 C   0  0  0  0  0  3  0  0  0  0  0  0
  182.4500  171.9230  134.7520 C   0  0  0  0  0  0  0  0  0  0  0  0
  188.4520  173.9770  136.0330 C   0  0  2  0  0  3  0  0  0  0  0  0
  187.6020  172.1880  136.6900 C   0  0  0  0  0  2  0  0  0  0  0  0
  189.1560  174.5800  137.0740 N   0  0  0  0  0  0  0  0  0  0  0  0
  189.3320  176.9490  136.6090 O   0  0  0  0  0  0  0  0  0  0  0  0
  183.9800  173.5730  135.6120 C   0  0  0  0  0  3  0  0  0  0  0  0
  185.5330  170.1250  134.6080 O   0  0  0  0  0  1  0  0  0  0  0  0
  186.2460  173.5610  134.9470 C   0  0  1  0  0  3  0  0  0  0  0  0
  184.7130  171.1980  135.0040 C   0  0  1  0  0  3  0  0  0  0  0  0
  185.1620  172.5770  135.7190 C   0  0  1  0  0  0  0  0  0  0  0  0
  189.7600  175.9390  137.2970 C   0  0  0  0  0  0  0  0  0  0  0  0
  187.0770  174.6220  135.6780 C   0  0  0  0  0  2  0  0  0  0  0  0
  188.1020  173.5030  137.2890 C   0  0  1  0  0  3  0  0  0  0  0  0
  188.0510  178.1520  142.6310 N   0  0  0  0  0  0  0  0  0  0  0  0
  190.9080  176.8370  145.6670 C   0  0  0  0  0  0  0  0  0  0  0  0
  191.7790  175.7650  145.5710 C   0  0  0  0  0  3  0  0  0  0  0  0
  190.6450  176.6830  143.3190 C   0  0  0  0  0  0  0  0  0  0  0  0
  191.3780  175.5350  143.2590 C   0  0  0  0  0  3  0  0  0  0  0  0
  188.7260  177.1140  141.9710 N   0  0  0  0  0  2  0  0  0  0  0  0
  187.7890  177.8220  143.9960 C   0  0  0  0  0  0  0  0  0  0  0  0
  188.9390  177.9220  144.7860 O   0  0  0  0  0  0  0  0  0  0  0  0
  190.1530  177.1640  144.5760 C   0  0  0  0  0  0  0  0  0  0  0  0
  190.1730  177.3350  142.0270 C   0  0  2  0  0  3  0  0  0  0  0  0
  190.6860  177.5020  146.8340 O   0  0  0  0  0  1  0  0  0  0  0  0
  192.0040  175.1090  144.3710 C   0  0  0  0  0  3  0  0  0  0  0  0
  186.3750  178.2490  144.6110 C   0  0  1  0  0  3  0  0  0  0  0  0
  185.2600  177.8990  143.8000 C   0  0  0  0  0  3  0  0  0  0  0  0
  183.9650  179.7600  144.3630 O   0  0  0  0  0  1  0  0  0  0  0  0
  184.1950  178.6180  143.5760 C   0  0  0  0  0  3  0  0  0  0  0  0
  186.3840  177.5640  145.9280 O   0  0  0  0  0  0  0  0  0  0  0  0
  186.3410  178.2740  147.2090 C   0  0  0  0  0  2  0  0  0  0  0  0
  187.9190  177.7790  148.7410 C   0  0  0  0  0  1  0  0  0  0  0  0
  187.6810  178.6300  147.6550 O   0  0  0  0  0  0  0  0  0  0  0  0
  1  4  1  0  0  0  0
  2  7  1  0  0  0  0
  3  2  1  0  0  0  0
  4  6  2  0  0  0  0
  4  3  1  0  0  0  0
  5  7  2  0  0  0  0
  6  5  1  0  0  0  0
  8 12  2  0  0  0  0
  8 20  1  0  0  0  0
  9 21  1  0  0  0  0
  9 14  1  1  0  0  0
 10 12  1  0  0  0  0
 11 17  2  0  0  0  0
 12 11  1  0  0  0  0
 13 23  1  1  0  0  0
 13 15  1  0  0  0  0
 13 24  1  0  0  0  0
 15 24  1  0  0  0  0
 15 22  1  0  0  0  0
 16 22  2  0  0  0  0
 19  9  1  0  0  0  0
 19 23  1  1  0  0  0
 19 21  1  0  0  0  0
 20 18  1  6  0  0  0
 20 21  1  0  0  0  0
 21 17  1  1  0  0  0
 22  6  1  0  0  0  0
 24 14  1  6  0  0  0
 25 31  2  0  0  0  0
 26 35  1  0  0  0  0
 27 26  1  0  0  0  0
 28 33  1  0  0  0  0
 29 28  2  0  0  0  0
 29 36  1  0  0  0  0
 30 34  1  0  0  0  0
 30 25  1  0  0  0  0
 31 37  1  0  0  0  0
 31 32  1  0  0  0  0
 33 32  1  0  0  0  0
 33 26  2  0  0  0  0
 34  7  1  6  0  0  0
 34 28  1  0  0  0  0
 36 27  2  0  0  0  0
 37 38  1  6  0  0  0
 37 41  1  0  0  0  0
 40 38  2  0  0  0  0
 40 39  1  0  0  0  0
 41 42  1  0  0  0  0
 42 44  1  0  0  0  0
 44 43  1  0  0  0  0
M  END
>  <MODEL>
7

>  <REMARK>
 VINA RESULT:      -8.4      4.489     10.131
  Name = 
  7 active torsions:
  status: ('A' for Active; 'I' for Inactive)
    1  A    between atoms: C_1  and  C_43
    2  A    between atoms: C_15  and  O_29
    3  A    between atoms: C_15  and  O_37
    4  A    between atoms: C_22  and  C_43
    5  A    between atoms: O_29  and  C_43
    6  A    between atoms: C_35  and  C_38
    7  A    between atoms: C_36  and  C_39
                            x       y       z     vdW  Elec       q    Type
                         _______ _______ _______ _____ _____    ______ ____

>  <TORSDO>
F 7

$$$$
=
 OpenBabel11062416173D

 44 50  0  0  1  0  0  0  0  0999 V2000
  182.5900  179.9300  143.6270 N   0  0  0  0  0  1  0  0  0  0  0  0
  181.2120  178.4110  140.5810 C   0  0  0  0  0  2  0  0  0  0  0  0
  181.2610  178.6290  141.9860 N   0  0  0  0  0  2  0  0  0  0  0  0
  182.4720  178.9070  142.5690 C   0  0  0  0  0  0  0  0  0  0  0  0
  183.4310  177.5220  140.7690 C   0  0  0  0  0  3  0  0  0  0  0  0
  183.6170  178.3760  141.9950 C   0  0  0  0  0  0  0  0  0  0  0  0
  182.3000  177.4840  140.1340 C   0  0  0  0  0  0  0  0  0  0  0  0
  191.1980  176.6760  147.6060 C   0  0  0  0  0  3  0  0  0  0  0  0
  188.3250  178.0390  146.2790 C   0  0  2  0  0  3  0  0  0  0  0  0
  193.0420  175.3980  147.1950 O   0  0  0  0  0  1  0  0  0  0  0  0
  191.6770  176.0100  145.2790 C   0  0  0  0  0  3  0  0  0  0  0  0
  192.0240  176.0170  146.7050 C   0  0  0  0  0  0  0  0  0  0  0  0
  186.5830  178.7240  144.4800 C   0  0  2  0  0  3  0  0  0  0  0  0
  186.7510  177.5310  146.1830 C   0  0  0  0  0  2  0  0  0  0  0  0
  185.4500  178.3600  143.7540 N   0  0  0  0  0  0  0  0  0  0  0  0
  185.7570  179.0550  141.4550 O   0  0  0  0  0  0  0  0  0  0  0  0
  190.4090  176.3820  144.9560 C   0  0  0  0  0  3  0  0  0  0  0  0
  189.4880  177.7880  148.4890 O   0  0  0  0  0  1  0  0  0  0  0  0
  188.9690  178.2530  145.0330 C   0  0  1  0  0  3  0  0  0  0  0  0
  189.9970  177.0850  147.3820 C   0  0  1  0  0  3  0  0  0  0  0  0
  189.3180  176.9030  145.9260 C   0  0  1  0  0  0  0  0  0  0  0  0
  184.9340  178.6630  142.3750 C   0  0  0  0  0  0  0  0  0  0  0  0
  187.9490  178.2550  143.8890 C   0  0  0  0  0  2  0  0  0  0  0  0
  186.0950  177.4670  144.8040 C   0  0  1  0  0  3  0  0  0  0  0  0
  183.5010  176.4630  136.9710 N   0  0  0  0  0  0  0  0  0  0  0  0
  179.6600  174.3920  137.2190 C   0  0  0  0  0  0  0  0  0  0  0  0
  179.0700  173.8840  138.3640 C   0  0  0  0  0  3  0  0  0  0  0  0
  181.0770  175.6410  138.6460 C   0  0  0  0  0  0  0  0  0  0  0  0
  180.5950  175.0180  139.7600 C   0  0  0  0  0  3  0  0  0  0  0  0
  183.3570  176.2730  138.3540 N   0  0  0  0  0  2  0  0  0  0  0  0
  183.0770  175.3140  136.2370 C   0  0  0  0  0  0  0  0  0  0  0  0
  181.6820  175.2130  136.1880 O   0  0  0  0  0  0  0  0  0  0  0  0
  180.8220  175.1000  137.3450 C   0  0  0  0  0  0  0  0  0  0  0  0
  182.0630  176.7900  138.8040 C   0  0  2  0  0  3  0  0  0  0  0  0
  179.1980  174.1160  135.9690 O   0  0  0  0  0  1  0  0  0  0  0  0
  179.5430  174.1870  139.6300 C   0  0  0  0  0  3  0  0  0  0  0  0
  183.9410  174.8800  134.9630 C   0  0  1  0  0  3  0  0  0  0  0  0
  185.3390  174.7950  135.2110 C   0  0  0  0  0  3  0  0  0  0  0  0
  185.8220  176.9960  134.5940 O   0  0  0  0  0  1  0  0  0  0  0  0
  186.2060  175.7690  135.1620 C   0  0  0  0  0  3  0  0  0  0  0  0
  183.3280  173.5780  134.5950 O   0  0  0  0  0  0  0  0  0  0  0  0
  183.6030  172.3250  135.3040 C   0  0  0  0  0  2  0  0  0  0  0  0
  183.0510  171.2610  137.2120 C   0  0  0  0  0  1  0  0  0  0  0  0
  182.4690  171.9330  136.1310 O   0  0  0  0  0  0  0  0  0  0  0  0
  2  3  1  0  0  0  0
  3  4  1  0  0  0  0
  4  1  1  0  0  0  0
  5  6  1  0  0  0  0
  6 22  1  0  0  0  0
  6  4  2  0  0  0  0
  7  2  1  0  0  0  0
  7  5  2  0  0  0  0
  9 14  1  6  0  0  0
 11 12  1  0  0  0  0
 12 10  1  0  0  0  0
 12  8  2  0  0  0  0
 13 23  1  6  0  0  0
 13 24  1  0  0  0  0
 15 13  1  0  0  0  0
 15 24  1  0  0  0  0
 16 22  2  0  0  0  0
 17 11  2  0  0  0  0
 19 23  1  6  0  0  0
 19 21  1  0  0  0  0
 19  9  1  0  0  0  0
 20  8  1  0  0  0  0
 20 18  1  6  0  0  0
 21 17  1  6  0  0  0
 21  9  1  0  0  0  0
 21 20  1  0  0  0  0
 22 15  1  0  0  0  0
 24 14  1  1  0  0  0
 25 30  1  0  0  0  0
 26 33  2  0  0  0  0
 26 27  1  0  0  0  0
 27 36  2  0  0  0  0
 28 34  1  0  0  0  0
 28 29  2  0  0  0  0
 30 34  1  0  0  0  0
 31 25  2  0  0  0  0
 32 31  1  0  0  0  0
 32 33  1  0  0  0  0
 33 28  1  0  0  0  0
 34  7  1  1  0  0  0
 35 26  1  0  0  0  0
 36 29  1  0  0  0  0
 37 38  1  1  0  0  0
 37 31  1  0  0  0  0
 39 40  1  0  0  0  0
 40 38  2  0  0  0  0
 41 37  1  0  0  0  0
 41 42  1  0  0  0  0
 42 44  1  0  0  0  0
 44 43  1  0  0  0  0
M  END
>  <MODEL>
8

>  <REMARK>
 VINA RESULT:      -8.3      2.974      5.521
  Name = 
  7 active torsions:
  status: ('A' for Active; 'I' for Inactive)
    1  A    between atoms: C_1  and  C_43
    2  A    between atoms: C_15  and  O_29
    3  A    between atoms: C_15  and  O_37
    4  A    between atoms: C_22  and  C_43
    5  A    between atoms: O_29  and  C_43
    6  A    between atoms: C_35  and  C_38
    7  A    between atoms: C_36  and  C_39
                            x       y       z     vdW  Elec       q    Type
                         _______ _______ _______ _____ _____    ______ ____

>  <TORSDO>
F 7

$$$$
=
 OpenBabel11062416173D

 44 50  0  0  1  0  0  0  0  0999 V2000
  190.1100  175.8460  137.1910 N   0  0  0  0  0  1  0  0  0  0  0  0
  186.5330  175.5950  136.3960 C   0  0  0  0  0  2  0  0  0  0  0  0
  187.8990  175.8140  136.0650 N   0  0  0  0  0  2  0  0  0  0  0  0
  188.7310  176.3470  137.0170 C   0  0  0  0  0  0  0  0  0  0  0  0
  186.7140  177.4890  137.8540 C   0  0  0  0  0  3  0  0  0  0  0  0
  188.1880  177.2060  137.9610 C   0  0  0  0  0  0  0  0  0  0  0  0
  185.9410  176.7850  137.0860 C   0  0  0  0  0  0  0  0  0  0  0  0
  190.0590  177.0500  147.3590 C   0  0  0  0  0  3  0  0  0  0  0  0
  188.7320  177.8450  144.2800 C   0  0  2  0  0  3  0  0  0  0  0  0
  191.8080  176.0970  148.4680 O   0  0  0  0  0  1  0  0  0  0  0  0
  192.0560  176.3930  146.0680 C   0  0  0  0  0  3  0  0  0  0  0  0
  191.3390  176.5110  147.3430 C   0  0  0  0  0  0  0  0  0  0  0  0
  188.6190  178.1520  141.7040 C   0  0  2  0  0  3  0  0  0  0  0  0
  187.7060  177.0700  143.2360 C   0  0  0  0  0  2  0  0  0  0  0  0
  188.3260  177.5720  140.4710 N   0  0  0  0  0  0  0  0  0  0  0  0
  190.0390  178.2250  138.8900 O   0  0  0  0  0  0  0  0  0  0  0  0
  191.3150  176.5280  144.9350 C   0  0  0  0  0  3  0  0  0  0  0  0
  188.1020  177.8810  146.7090 O   0  0  0  0  0  1  0  0  0  0  0  0
  190.0250  178.1220  143.7640 C   0  0  1  0  0  3  0  0  0  0  0  0
  189.2960  177.2360  146.3370 C   0  0  1  0  0  3  0  0  0  0  0  0
  189.8110  176.8870  144.8450 C   0  0  1  0  0  0  0  0  0  0  0  0
  188.8570  177.7300  139.0740 C   0  0  0  0  0  0  0  0  0  0  0  0
  190.0610  177.9060  142.2460 C   0  0  0  0  0  2  0  0  0  0  0  0
  188.1730  176.8430  141.7990 C   0  0  1  0  0  3  0  0  0  0  0  0
  182.7920  175.2100  136.7890 N   0  0  0  0  0  0  0  0  0  0  0  0
  181.6890  179.2930  137.8970 C   0  0  0  0  0  0  0  0  0  0  0  0
  182.3960  180.1400  138.7330 C   0  0  0  0  0  3  0  0  0  0  0  0
  183.6550  177.9810  137.7550 C   0  0  0  0  0  0  0  0  0  0  0  0
  184.2890  178.7340  138.7000 C   0  0  0  0  0  3  0  0  0  0  0  0
  183.8970  175.6190  137.5500 N   0  0  0  0  0  2  0  0  0  0  0  0
  181.5640  175.6600  137.3630 C   0  0  0  0  0  0  0  0  0  0  0  0
  181.3530  177.0250  137.1390 O   0  0  0  0  0  0  0  0  0  0  0  0
  182.2360  178.0810  137.5810 C   0  0  0  0  0  0  0  0  0  0  0  0
  184.4270  176.8830  137.0360 C   0  0  2  0  0  3  0  0  0  0  0  0
  180.4240  179.5640  137.4740 O   0  0  0  0  0  1  0  0  0  0  0  0
  183.6890  179.8550  139.1420 C   0  0  0  0  0  3  0  0  0  0  0  0
  180.3170  174.6590  137.3430 C   0  0  1  0  0  3  0  0  0  0  0  0
  180.5680  173.4070  137.9680 C   0  0  0  0  0  3  0  0  0  0  0  0
  179.5060  172.1120  136.3380 O   0  0  0  0  0  1  0  0  0  0  0  0
  180.3130  172.2220  137.4840 C   0  0  0  0  0  3  0  0  0  0  0  0
  179.2620  175.4550  138.0200 O   0  0  0  0  0  0  0  0  0  0  0  0
  179.1370  175.5590  139.4760 C   0  0  0  0  0  2  0  0  0  0  0  0
  180.1990  177.2050  140.5910 C   0  0  0  0  0  1  0  0  0  0  0  0
  179.0130  176.9500  139.8920 O   0  0  0  0  0  0  0  0  0  0  0  0
  2  7  1  0  0  0  0
  3  2  1  0  0  0  0
  3  4  1  0  0  0  0
  4  1  1  0  0  0  0
  4  6  2  0  0  0  0
  5  6  1  0  0  0  0
  6 22  1  0  0  0  0
  7  5  2  0  0  0  0
  9 14  1  6  0  0  0
  9 21  1  0  0  0  0
 11 12  1  0  0  0  0
 12  8  2  0  0  0  0
 12 10  1  0  0  0  0
 13 24  1  0  0  0  0
 13 23  1  6  0  0  0
 15 13  1  0  0  0  0
 15 24  1  0  0  0  0
 16 22  2  0  0  0  0
 17 11  2  0  0  0  0
 19 23  1  6  0  0  0
 19  9  1  0  0  0  0
 19 21  1  0  0  0  0
 20 18  1  6  0  0  0
 20  8  1  0  0  0  0
 21 17  1  6  0  0  0
 21 20  1  0  0  0  0
 22 15  1  0  0  0  0
 24 14  1  1  0  0  0
 25 31  2  0  0  0  0
 25 30  1  0  0  0  0
 26 27  1  0  0  0  0
 27 36  2  0  0  0  0
 28 29  2  0  0  0  0
 29 36  1  0  0  0  0
 32 31  1  0  0  0  0
 32 33  1  0  0  0  0
 33 28  1  0  0  0  0
 33 26  2  0  0  0  0
 34  7  1  1  0  0  0
 34 30  1  0  0  0  0
 34 28  1  0  0  0  0
 35 26  1  0  0  0  0
 37 31  1  0  0  0  0
 37 38  1  1  0  0  0
 37 41  1  0  0  0  0
 39 40  1  0  0  0  0
 40 38  2  0  0  0  0
 41 42  1  0  0  0  0
 42 44  1  0  0  0  0
 44 43  1  0  0  0  0
M  END
>  <MODEL>
9

>  <REMARK>
 VINA RESULT:      -8.2      1.570      2.148
  Name = 
  7 active torsions:
  status: ('A' for Active; 'I' for Inactive)
    1  A    between atoms: C_1  and  C_43
    2  A    between atoms: C_15  and  O_29
    3  A    between atoms: C_15  and  O_37
    4  A    between atoms: C_22  and  C_43
    5  A    between atoms: O_29  and  C_43
    6  A    between atoms: C_35  and  C_38
    7  A    between atoms: C_36  and  C_39
                            x       y       z     vdW  Elec       q    Type
                         _______ _______ _______ _____ _____    ______ ____

>  <TORSDO>
F 7

$$$$
