=
 OpenBabel11062415083D

 55 58  0  0  1  0  0  0  0  0999 V2000
  188.6310  177.3420  146.1670 C   0  0  0  0  0  0  0  0  0  0  0  0
  187.8220  177.7240  142.3260 C   0  0  2  0  0  3  0  0  0  0  0  0
  189.7960  176.4310  145.9400 C   0  0  1  0  0  3  0  0  0  0  0  0
  186.7050  178.2600  143.2580 C   0  0  2  0  0  3  0  0  0  0  0  0
  189.2000  177.8980  142.9590 C   0  0  0  0  0  2  0  0  0  0  0  0
  190.5960  176.7240  144.6490 C   0  0  1  0  0  3  0  0  0  0  0  0
  190.5870  176.5910  147.2670 C   0  0  2  0  0  3  0  0  0  0  0  0
  191.7600  175.7540  144.5290 C   0  0  0  0  0  1  0  0  0  0  0  0
  189.6940  177.3120  148.1720 N   0  0  0  0  0  2  0  0  0  0  0  0
  186.5960  177.4770  144.5380 C   0  0  0  0  0  3  0  0  0  0  0  0
  187.5670  178.4940  148.2470 C   0  0  0  0  0  1  0  0  0  0  0  0
  189.7340  176.5510  143.4090 C   0  0  0  0  0  2  0  0  0  0  0  0
  191.8050  177.3690  147.0910 N   0  0  0  0  0  1  0  0  0  0  0  0
  187.5880  177.4120  145.3830 C   0  0  0  0  0  0  0  0  0  0  0  0
  188.6410  177.7290  147.5590 C   0  0  2  0  0  3  0  0  0  0  0  0
  187.7890  178.3470  140.9190 C   0  0  1  0  0  3  0  0  0  0  0  0
  188.5160  179.6850  140.8260 C   0  0  0  0  0  1  0  0  0  0  0  0
  188.2510  177.3690  139.8390 C   0  0  0  0  0  2  0  0  0  0  0  0
  189.4170  177.8170  139.2040 O   0  0  0  0  0  0  0  0  0  0  0  0
  189.8750  176.7260  138.4570 C   0  0  1  0  0  3  0  0  0  0  0  0
  190.0650  177.1100  136.9920 C   0  0  0  0  0  2  0  0  0  0  0  0
  188.8440  177.8460  136.4740 C   0  0  0  0  0  1  0  0  0  0  0  0
  191.1660  176.1560  139.0640 C   0  0  0  0  0  2  0  0  0  0  0  0
  192.4660  176.3860  138.2700 C   0  0  2  0  0  3  0  0  0  0  0  0
  192.1850  174.1770  137.4960 O   0  0  0  0  0  0  0  0  0  0  0  0
  192.9520  175.1220  137.6200 C   0  0  0  0  0  0  0  0  0  0  0  0
  194.6080  175.6320  135.8340 C   0  0  0  0  0  1  0  0  0  0  0  0
  194.3830  174.9650  137.1800 C   0  0  2  0  0  3  0  0  0  0  0  0
  194.5400  172.7850  136.2560 O   0  0  0  0  0  0  0  0  0  0  0  0
  194.8620  173.5380  137.1620 C   0  0  0  0  0  0  0  0  0  0  0  0
  195.7730  173.0560  138.2440 C   0  0  0  0  0  2  0  0  0  0  0  0
  196.7030  174.1750  138.6890 C   0  0  0  0  0  2  0  0  0  0  0  0
  197.7930  174.3950  137.6560 C   0  0  0  0  0  2  0  0  0  0  0  0
  198.6220  173.2090  137.5480 N   0  0  0  0  0  1  0  0  0  0  0  0
  193.4840  176.9740  139.0270 O   0  0  0  0  0  0  0  0  0  0  0  0
  192.8650  177.5010  140.0620 O   0  0  0  0  0  1  0  0  0  0  0  0
  185.3360  178.2070  142.5890 C   0  0  0  0  0  2  0  0  0  0  0  0
  184.2870  179.0050  143.3630 C   0  0  0  0  0  2  0  0  0  0  0  0
  181.6340  178.2810  140.9370 C   0  0  2  0  0  0  0  0  0  0  0  0
  181.2610  177.3330  139.8590 C   0  0  2  0  0  0  0  0  0  0  0  0
  181.7440  178.8120  143.2480 C   0  0  0  0  0  2  0  0  0  0  0  0
  183.0190  179.3090  142.5620 C   0  0  2  0  0  3  0  0  0  0  0  0
  181.1110  178.7300  139.7090 O   0  0  0  0  0  0  0  0  0  0  0  0
  179.8180  179.6930  141.9710 C   0  0  0  0  0  1  0  0  0  0  0  0
  183.0550  178.7300  141.1560 C   0  0  0  0  0  2  0  0  0  0  0  0
  180.7440  178.5000  142.1480 C   0  0  1  0  0  3  0  0  0  0  0  0
  179.9280  176.6400  139.8290 C   0  0  0  0  0  0  0  0  0  0  0  0
  178.9310  177.2070  139.2970 O   0  0  0  0  0  0  0  0  0  0  0  0
  179.8040  175.3720  140.3950 O   0  0  0  0  0  0  0  0  0  0  0  0
  180.0190  174.1920  139.6340 C   0  0  0  0  0  1  0  0  0  0  0  0
  182.2740  176.8560  139.0090 O   0  0  0  0  0  0  0  0  0  0  0  0
  181.8280  177.0760  137.6960 C   0  0  0  0  0  2  0  0  0  0  0  0
  182.8490  176.5470  136.7060 C   0  0  0  0  0  2  0  0  0  0  0  0
  185.2700  176.6500  136.2290 C   0  0  0  0  0  1  0  0  0  0  0  0
  184.2320  176.5520  137.3260 C   0  0  0  0  0  2  0  0  0  0  0  0
  1 15  1  0  0  0  0
  2 16  1  6  0  0  0
  2  5  1  0  0  0  0
  2  4  1  0  0  0  0
  3  1  1  1  0  0  0
  3  7  1  0  0  0  0
  4 37  1  6  0  0  0
  4 10  1  0  0  0  0
  5 12  1  0  0  0  0
  6  8  1  6  0  0  0
  6  3  1  0  0  0  0
  7 13  1  6  0  0  0
  7  9  1  0  0  0  0
 10 14  2  0  0  0  0
 12  6  1  0  0  0  0
 14  1  2  0  0  0  0
 15  9  1  0  0  0  0
 15 11  1  1  0  0  0
 16 17  1  1  0  0  0
 18 16  1  0  0  0  0
 19 18  1  0  0  0  0
 20 21  1  6  0  0  0
 20 23  1  0  0  0  0
 20 19  1  0  0  0  0
 22 21  1  0  0  0  0
 24 35  1  0  0  0  0
 24 23  1  1  0  0  0
 25 26  2  0  0  0  0
 26 24  1  0  0  0  0
 28 27  1  6  0  0  0
 28 26  1  0  0  0  0
 29 30  2  0  0  0  0
 30 28  1  0  0  0  0
 30 31  1  0  0  0  0
 31 32  1  0  0  0  0
 33 32  1  0  0  0  0
 34 33  1  0  0  0  0
 35 36  1  0  0  0  0
 37 38  1  0  0  0  0
 39 45  1  1  0  0  0
 39 46  1  0  0  0  0
 40 51  1  6  0  0  0
 40 39  1  0  0  0  0
 42 41  1  0  0  0  0
 42 38  1  1  0  0  0
 43 40  1  0  0  0  0
 43 39  1  0  0  0  0
 45 42  1  0  0  0  0
 46 44  1  6  0  0  0
 46 41  1  0  0  0  0
 47 40  1  0  0  0  0
 47 49  1  0  0  0  0
 48 47  2  0  0  0  0
 50 49  1  0  0  0  0
 52 51  1  0  0  0  0
 53 55  1  0  0  0  0
 53 52  1  0  0  0  0
 54 55  1  0  0  0  0
M  END
>  <MODEL>
1

>  <REMARK>
 VINA RESULT:      -6.2      0.000      0.000
  Name = 
  23 active torsions:
  status: ('A' for Active; 'I' for Inactive)
    1  A    between atoms: O_1  and  C_25
    2  A    between atoms: O_2  and  C_9
    3  A    between atoms: O_2  and  C_22
    4  A    between atoms: C_4  and  C_17
    5  A    between atoms: O_5  and  C_16
    6  A    between atoms: C_6  and  C_35
    7  A    between atoms: C_8  and  C_47
    8  A    between atoms: C_9  and  C_33
    9  A    between atoms: C_15  and  C_16
   10  A    between atoms: C_15  and  C_46
   11  A    between atoms: C_16  and  C_26
   12  A    between atoms: C_17  and  C_54
   13  A    between atoms: C_19  and  C_35
   14  A    between atoms: C_19  and  C_55
   15  A    between atoms: C_20  and  C_33
   16  A    between atoms: C_22  and  C_25
   17  A    between atoms: C_23  and  C_36
   18  A    between atoms: C_26  and  C_36
   19  A    between atoms: C_30  and  C_32
   20  A    between atoms: C_30  and  C_47
   21  A    between atoms: C_36  and  O_40
   22  A    between atoms: O_40  and  C_54
   23  A    between atoms: C_46  and  C_55
                            x       y       z     vdW  Elec       q    Type
                         _______ _______ _______ _____ _____    ______ ____

>  <TORSDO>
F 23

$$$$
=
 OpenBabel11062415083D

 55 58  0  0  1  0  0  0  0  0999 V2000
  190.4160  174.6050  136.4500 C   0  0  0  0  0  0  0  0  0  0  0  0
  189.5360  177.4170  139.0700 C   0  0  2  0  0  3  0  0  0  0  0  0
  191.8760  174.9260  136.4350 C   0  0  1  0  0  3  0  0  0  0  0  0
  188.2950  176.7980  138.3750 C   0  0  2  0  0  3  0  0  0  0  0  0
  190.6540  176.3900  139.2200 C   0  0  0  0  0  2  0  0  0  0  0  0
  192.4390  175.4100  137.7920 C   0  0  1  0  0  3  0  0  0  0  0  0
  192.4870  173.6050  135.8920 C   0  0  2  0  0  3  0  0  0  0  0  0
  193.9270  175.6900  137.6670 C   0  0  0  0  0  1  0  0  0  0  0  0
  191.3530  172.8180  135.4110 N   0  0  0  0  0  2  0  0  0  0  0  0
  188.5750  176.3850  136.9560 C   0  0  0  0  0  3  0  0  0  0  0  0
  188.9190  172.7670  135.3670 C   0  0  0  0  0  1  0  0  0  0  0  0
  191.7720  176.7000  138.2420 C   0  0  0  0  0  2  0  0  0  0  0  0
  193.1760  172.8500  136.9290 N   0  0  0  0  0  1  0  0  0  0  0  0
  189.4720  175.4800  136.6740 C   0  0  0  0  0  0  0  0  0  0  0  0
  190.2320  173.3630  135.7330 C   0  0  2  0  0  3  0  0  0  0  0  0
  189.2090  178.0660  140.4260 C   0  0  1  0  0  3  0  0  0  0  0  0
  187.7150  178.2700  140.6640 C   0  0  0  0  0  1  0  0  0  0  0  0
  189.8800  177.3430  141.5940 C   0  0  0  0  0  2  0  0  0  0  0  0
  189.8620  178.1200  142.7590 O   0  0  0  0  0  0  0  0  0  0  0  0
  190.2000  177.2420  143.7960 C   0  0  1  0  0  3  0  0  0  0  0  0
  191.6620  176.8130  143.6900 C   0  0  0  0  0  2  0  0  0  0  0  0
  191.8100  175.3430  144.0320 C   0  0  0  0  0  1  0  0  0  0  0  0
  189.8930  177.8710  145.1630 C   0  0  0  0  0  2  0  0  0  0  0  0
  189.0410  177.0330  146.1350 C   0  0  2  0  0  3  0  0  0  0  0  0
  187.7810  178.5480  147.4300 O   0  0  0  0  0  0  0  0  0  0  0  0
  187.7700  177.7400  146.5110 C   0  0  0  0  0  0  0  0  0  0  0  0
  186.6850  177.1360  144.3540 C   0  0  0  0  0  1  0  0  0  0  0  0
  186.4650  177.4270  145.8290 C   0  0  2  0  0  3  0  0  0  0  0  0
  184.8790  178.6430  147.1080 O   0  0  0  0  0  0  0  0  0  0  0  0
  185.4090  178.4810  146.0190 C   0  0  0  0  0  0  0  0  0  0  0  0
  185.0360  179.3620  144.8710 C   0  0  0  0  0  2  0  0  0  0  0  0
  183.5640  179.1920  144.5310 C   0  0  0  0  0  2  0  0  0  0  0  0
  183.4050  178.7440  143.0900 C   0  0  0  0  0  2  0  0  0  0  0  0
  184.5620  179.1480  142.3130 N   0  0  0  0  0  1  0  0  0  0  0  0
  189.7380  176.6300  147.2790 O   0  0  0  0  0  0  0  0  0  0  0  0
  190.9460  177.1250  147.1230 O   0  0  0  0  0  1  0  0  0  0  0  0
  187.1250  177.7750  138.3290 C   0  0  0  0  0  2  0  0  0  0  0  0
  186.1580  177.4610  137.1880 C   0  0  0  0  0  2  0  0  0  0  0  0
  182.5200  177.1050  137.4680 C   0  0  2  0  0  0  0  0  0  0  0  0
  181.4100  176.1630  137.1800 C   0  0  2  0  0  0  0  0  0  0  0  0
  184.2850  177.8160  138.8860 C   0  0  0  0  0  2  0  0  0  0  0  0
  184.7300  177.9570  137.4270 C   0  0  2  0  0  3  0  0  0  0  0  0
  181.3210  177.5380  136.8700 O   0  0  0  0  0  0  0  0  0  0  0  0
  182.1100  178.9700  139.1150 C   0  0  0  0  0  1  0  0  0  0  0  0
  183.7060  177.2520  136.5510 C   0  0  0  0  0  2  0  0  0  0  0  0
  182.7790  177.6270  138.8710 C   0  0  1  0  0  3  0  0  0  0  0  0
  180.3990  175.7770  138.2230 C   0  0  0  0  0  0  0  0  0  0  0  0
  179.1960  176.1500  138.1070 O   0  0  0  0  0  0  0  0  0  0  0  0
  180.8010  175.0090  139.3140 O   0  0  0  0  0  0  0  0  0  0  0  0
  179.9090  174.6920  140.3720 C   0  0  0  0  0  1  0  0  0  0  0  0
  181.4710  175.3980  136.0020 O   0  0  0  0  0  0  0  0  0  0  0  0
  181.7250  174.0760  136.3980 C   0  0  0  0  0  2  0  0  0  0  0  0
  183.0640  173.6180  135.8500 C   0  0  0  0  0  2  0  0  0  0  0  0
  182.1450  171.6520  137.0270 C   0  0  0  0  0  1  0  0  0  0  0  0
  183.3110  172.1680  136.2120 C   0  0  0  0  0  2  0  0  0  0  0  0
  1 14  2  0  0  0  0
  2  5  1  0  0  0  0
  2 16  1  1  0  0  0
  3  1  1  1  0  0  0
  3  6  1  0  0  0  0
  4 37  1  6  0  0  0
  4  2  1  0  0  0  0
  6  8  1  6  0  0  0
  6 12  1  0  0  0  0
  7  3  1  0  0  0  0
  7 13  1  1  0  0  0
  9 15  1  0  0  0  0
  9  7  1  0  0  0  0
 10  4  1  0  0  0  0
 12  5  1  0  0  0  0
 14 10  2  0  0  0  0
 15 11  1  6  0  0  0
 15  1  1  0  0  0  0
 16 17  1  1  0  0  0
 16 18  1  0  0  0  0
 18 19  1  0  0  0  0
 19 20  1  0  0  0  0
 20 21  1  1  0  0  0
 20 23  1  0  0  0  0
 21 22  1  0  0  0  0
 24 23  1  1  0  0  0
 24 26  1  0  0  0  0
 24 35  1  0  0  0  0
 26 25  2  0  0  0  0
 28 27  1  6  0  0  0
 28 30  1  0  0  0  0
 28 26  1  0  0  0  0
 30 29  2  0  0  0  0
 31 30  1  0  0  0  0
 32 31  1  0  0  0  0
 33 32  1  0  0  0  0
 34 33  1  0  0  0  0
 36 35  1  0  0  0  0
 38 37  1  0  0  0  0
 39 45  1  6  0  0  0
 39 46  1  0  0  0  0
 40 51  1  6  0  0  0
 40 39  1  0  0  0  0
 40 47  1  0  0  0  0
 42 38  1  1  0  0  0
 42 41  1  0  0  0  0
 43 40  1  0  0  0  0
 43 39  1  0  0  0  0
 45 42  1  0  0  0  0
 46 41  1  0  0  0  0
 46 44  1  6  0  0  0
 47 49  1  0  0  0  0
 48 47  2  0  0  0  0
 49 50  1  0  0  0  0
 51 52  1  0  0  0  0
 53 55  1  0  0  0  0
 53 52  1  0  0  0  0
 55 54  1  0  0  0  0
M  END
>  <MODEL>
2

>  <REMARK>
 VINA RESULT:      -6.1      3.329      8.528
  Name = 
  23 active torsions:
  status: ('A' for Active; 'I' for Inactive)
    1  A    between atoms: O_1  and  C_25
    2  A    between atoms: O_2  and  C_9
    3  A    between atoms: O_2  and  C_22
    4  A    between atoms: C_4  and  C_17
    5  A    between atoms: O_5  and  C_16
    6  A    between atoms: C_6  and  C_35
    7  A    between atoms: C_8  and  C_47
    8  A    between atoms: C_9  and  C_33
    9  A    between atoms: C_15  and  C_16
   10  A    between atoms: C_15  and  C_46
   11  A    between atoms: C_16  and  C_26
   12  A    between atoms: C_17  and  C_54
   13  A    between atoms: C_19  and  C_35
   14  A    between atoms: C_19  and  C_55
   15  A    between atoms: C_20  and  C_33
   16  A    between atoms: C_22  and  C_25
   17  A    between atoms: C_23  and  C_36
   18  A    between atoms: C_26  and  C_36
   19  A    between atoms: C_30  and  C_32
   20  A    between atoms: C_30  and  C_47
   21  A    between atoms: C_36  and  O_40
   22  A    between atoms: O_40  and  C_54
   23  A    between atoms: C_46  and  C_55
                            x       y       z     vdW  Elec       q    Type
                         _______ _______ _______ _____ _____    ______ ____

>  <TORSDO>
F 23

$$$$
=
 OpenBabel11062415083D

 55 58  0  0  1  0  0  0  0  0999 V2000
  191.5470  175.0210  136.9500 C   0  0  0  0  0  0  0  0  0  0  0  0
  187.9640  176.6420  137.2520 C   0  0  2  0  0  3  0  0  0  0  0  0
  191.0190  173.6430  136.6990 C   0  0  1  0  0  3  0  0  0  0  0  0
  189.1140  177.5680  137.7280 C   0  0  2  0  0  3  0  0  0  0  0  0
  188.4260  175.7260  136.1230 C   0  0  0  0  0  2  0  0  0  0  0  0
  189.6980  173.6000  135.8970 C   0  0  1  0  0  3  0  0  0  0  0  0
  192.2360  172.9560  136.0200 C   0  0  2  0  0  3  0  0  0  0  0  0
  189.2650  172.1590  135.6870 C   0  0  0  0  0  1  0  0  0  0  0  0
  193.3580  173.8740  136.2050 N   0  0  0  0  0  2  0  0  0  0  0  0
  190.2510  176.8040  138.3480 C   0  0  0  0  0  3  0  0  0  0  0  0
  193.9120  176.1130  136.9840 C   0  0  0  0  0  1  0  0  0  0  0  0
  188.5740  174.3060  136.6380 C   0  0  0  0  0  2  0  0  0  0  0  0
  192.0270  172.7520  134.5940 N   0  0  0  0  0  1  0  0  0  0  0  0
  190.9330  175.9240  137.6670 C   0  0  0  0  0  0  0  0  0  0  0  0
  192.9700  174.9980  136.6970 C   0  0  2  0  0  3  0  0  0  0  0  0
  186.6960  177.4100  136.8430 C   0  0  1  0  0  3  0  0  0  0  0  0
  186.9290  178.4260  135.7280 C   0  0  0  0  0  1  0  0  0  0  0  0
  185.5260  176.4780  136.5310 C   0  0  0  0  0  2  0  0  0  0  0  0
  185.2750  175.5960  137.5910 O   0  0  0  0  0  0  0  0  0  0  0  0
  183.9900  175.0930  137.3570 C   0  0  1  0  0  3  0  0  0  0  0  0
  183.9750  173.5690  137.4610 C   0  0  0  0  0  2  0  0  0  0  0  0
  185.3890  173.0310  137.5630 C   0  0  0  0  0  1  0  0  0  0  0  0
  182.9720  175.7350  138.3120 C   0  0  0  0  0  2  0  0  0  0  0  0
  181.7890  176.4790  137.6660 C   0  0  2  0  0  3  0  0  0  0  0  0
  183.0050  178.4970  137.5770 O   0  0  0  0  0  0  0  0  0  0  0  0
  181.9260  177.9680  137.8050 C   0  0  0  0  0  0  0  0  0  0  0  0
  180.3250  179.7750  137.1970 C   0  0  0  0  0  1  0  0  0  0  0  0
  180.7820  178.8210  138.2870 C   0  0  2  0  0  3  0  0  0  0  0  0
  180.6630  180.7010  139.7300 O   0  0  0  0  0  0  0  0  0  0  0  0
  181.0690  179.5600  139.5660 C   0  0  0  0  0  0  0  0  0  0  0  0
  181.8230  178.8730  140.6580 C   0  0  0  0  0  2  0  0  0  0  0  0
  180.8790  178.4750  141.7820 C   0  0  0  0  0  2  0  0  0  0  0  0
  181.1700  179.2890  143.0280 C   0  0  0  0  0  2  0  0  0  0  0  0
  180.7680  178.5500  144.2100 N   0  0  0  0  0  1  0  0  0  0  0  0
  180.5420  176.0530  138.1330 O   0  0  0  0  0  0  0  0  0  0  0  0
  180.6920  174.7640  138.3510 O   0  0  0  0  0  1  0  0  0  0  0  0
  188.6360  178.5740  138.7700 C   0  0  0  0  0  2  0  0  0  0  0  0
  189.0480  178.1740  140.1860 C   0  0  0  0  0  2  0  0  0  0  0  0
  187.3740  177.4780  143.3730 C   0  0  2  0  0  0  0  0  0  0  0  0
  187.6400  177.3150  144.8240 C   0  0  2  0  0  0  0  0  0  0  0  0
  186.9890  178.8970  141.5100 C   0  0  0  0  0  2  0  0  0  0  0  0
  187.8820  177.7320  141.0730 C   0  0  2  0  0  3  0  0  0  0  0  0
  186.8070  176.4230  144.1130 O   0  0  0  0  0  0  0  0  0  0  0  0
  185.0070  177.9350  142.6340 C   0  0  0  0  0  1  0  0  0  0  0  0
  188.3360  176.9920  142.3220 C   0  0  0  0  0  2  0  0  0  0  0  0
  186.3940  178.5160  142.8550 C   0  0  1  0  0  3  0  0  0  0  0  0
  186.8620  178.0660  145.8690 C   0  0  0  0  0  0  0  0  0  0  0  0
  187.4120  178.9990  146.5200 O   0  0  0  0  0  0  0  0  0  0  0  0
  185.5330  177.7200  146.1100 O   0  0  0  0  0  0  0  0  0  0  0  0
  184.4880  178.6780  146.0370 C   0  0  0  0  0  1  0  0  0  0  0  0
  188.8250  176.6700  145.2180 O   0  0  0  0  0  0  0  0  0  0  0  0
  189.7680  177.6810  145.4610 C   0  0  0  0  0  2  0  0  0  0  0  0
  191.1600  177.0830  145.5430 C   0  0  0  0  0  2  0  0  0  0  0  0
  191.6450  177.5950  143.1770 C   0  0  0  0  0  1  0  0  0  0  0  0
  191.5550  176.4890  144.2070 C   0  0  0  0  0  2  0  0  0  0  0  0
  1 14  2  0  0  0  0
  2 16  1  6  0  0  0
  2  4  1  0  0  0  0
  3  1  1  6  0  0  0
  4 10  1  0  0  0  0
  4 37  1  1  0  0  0
  5 12  1  0  0  0  0
  5  2  1  0  0  0  0
  6  8  1  1  0  0  0
  6 12  1  0  0  0  0
  6  3  1  0  0  0  0
  7 13  1  6  0  0  0
  7  9  1  0  0  0  0
  7  3  1  0  0  0  0
  9 15  1  0  0  0  0
 14 10  2  0  0  0  0
 15  1  1  0  0  0  0
 15 11  1  1  0  0  0
 16 17  1  6  0  0  0
 18 16  1  0  0  0  0
 18 19  1  0  0  0  0
 20 21  1  1  0  0  0
 20 19  1  0  0  0  0
 20 23  1  0  0  0  0
 21 22  1  0  0  0  0
 24 26  1  0  0  0  0
 24 35  1  0  0  0  0
 24 23  1  1  0  0  0
 25 26  2  0  0  0  0
 26 28  1  0  0  0  0
 28 27  1  6  0  0  0
 28 30  1  0  0  0  0
 30 29  2  0  0  0  0
 30 31  1  0  0  0  0
 31 32  1  0  0  0  0
 32 33  1  0  0  0  0
 33 34  1  0  0  0  0
 35 36  1  0  0  0  0
 37 38  1  0  0  0  0
 39 45  1  6  0  0  0
 39 43  1  0  0  0  0
 39 40  1  0  0  0  0
 40 51  1  1  0  0  0
 40 47  1  0  0  0  0
 41 46  1  0  0  0  0
 42 38  1  1  0  0  0
 42 41  1  0  0  0  0
 42 45  1  0  0  0  0
 43 40  1  0  0  0  0
 46 44  1  6  0  0  0
 46 39  1  0  0  0  0
 47 49  1  0  0  0  0
 47 48  2  0  0  0  0
 50 49  1  0  0  0  0
 51 52  1  0  0  0  0
 52 53  1  0  0  0  0
 54 55  1  0  0  0  0
 55 53  1  0  0  0  0
M  END
>  <MODEL>
3

>  <REMARK>
 VINA RESULT:      -6.0      3.543     10.338
  Name = 
  23 active torsions:
  status: ('A' for Active; 'I' for Inactive)
    1  A    between atoms: O_1  and  C_25
    2  A    between atoms: O_2  and  C_9
    3  A    between atoms: O_2  and  C_22
    4  A    between atoms: C_4  and  C_17
    5  A    between atoms: O_5  and  C_16
    6  A    between atoms: C_6  and  C_35
    7  A    between atoms: C_8  and  C_47
    8  A    between atoms: C_9  and  C_33
    9  A    between atoms: C_15  and  C_16
   10  A    between atoms: C_15  and  C_46
   11  A    between atoms: C_16  and  C_26
   12  A    between atoms: C_17  and  C_54
   13  A    between atoms: C_19  and  C_35
   14  A    between atoms: C_19  and  C_55
   15  A    between atoms: C_20  and  C_33
   16  A    between atoms: C_22  and  C_25
   17  A    between atoms: C_23  and  C_36
   18  A    between atoms: C_26  and  C_36
   19  A    between atoms: C_30  and  C_32
   20  A    between atoms: C_30  and  C_47
   21  A    between atoms: C_36  and  O_40
   22  A    between atoms: O_40  and  C_54
   23  A    between atoms: C_46  and  C_55
                            x       y       z     vdW  Elec       q    Type
                         _______ _______ _______ _____ _____    ______ ____

>  <TORSDO>
F 23

$$$$
=
 OpenBabel11062415083D

 55 58  0  0  1  0  0  0  0  0999 V2000
  187.4370  177.6240  144.2440 C   0  0  0  0  0  0  0  0  0  0  0  0
  183.8220  178.6670  143.0610 C   0  0  2  0  0  3  0  0  0  0  0  0
  187.3830  178.4500  145.4900 C   0  0  1  0  0  3  0  0  0  0  0  0
  184.6550  177.9430  141.9710 C   0  0  2  0  0  3  0  0  0  0  0  0
  184.1830  178.1630  144.4550 C   0  0  0  0  0  2  0  0  0  0  0  0
  185.9800  178.5520  146.1310 C   0  0  1  0  0  3  0  0  0  0  0  0
  188.4710  177.7720  146.3680 C   0  0  2  0  0  3  0  0  0  0  0  0
  186.0450  179.3960  147.3930 C   0  0  0  0  0  1  0  0  0  0  0  0
  189.1870  176.8650  145.4730 N   0  0  0  0  0  2  0  0  0  0  0  0
  186.1250  178.2420  142.0740 C   0  0  0  0  0  3  0  0  0  0  0  0
  189.1300  175.9230  143.2290 C   0  0  0  0  0  1  0  0  0  0  0  0
  184.9870  179.2180  145.1920 C   0  0  0  0  0  2  0  0  0  0  0  0
  187.8940  176.9980  147.4580 N   0  0  0  0  0  1  0  0  0  0  0  0
  186.8130  177.9220  143.1370 C   0  0  0  0  0  0  0  0  0  0  0  0
  188.6080  176.7810  144.3270 C   0  0  2  0  0  3  0  0  0  0  0  0
  182.3050  178.5740  142.8270 C   0  0  1  0  0  3  0  0  0  0  0  0
  181.4880  178.5370  144.1160 C   0  0  0  0  0  1  0  0  0  0  0  0
  181.7990  179.6450  141.8600 C   0  0  0  0  0  2  0  0  0  0  0  0
  181.2260  179.0750  140.7160 O   0  0  0  0  0  0  0  0  0  0  0  0
  179.9490  178.6570  141.1100 C   0  0  1  0  0  3  0  0  0  0  0  0
  178.9680  179.8270  141.1050 C   0  0  0  0  0  2  0  0  0  0  0  0
  178.9350  180.4980  142.4650 C   0  0  0  0  0  1  0  0  0  0  0  0
  179.4580  177.5030  140.2230 C   0  0  0  0  0  2  0  0  0  0  0  0
  180.3890  177.0640  139.0780 C   0  0  2  0  0  3  0  0  0  0  0  0
  178.9310  176.3070  137.3860 O   0  0  0  0  0  0  0  0  0  0  0  0
  179.7150  177.1770  137.7400 C   0  0  0  0  0  0  0  0  0  0  0  0
  181.3030  178.0010  136.0090 C   0  0  0  0  0  1  0  0  0  0  0  0
  180.0350  178.3010  136.7910 C   0  0  2  0  0  3  0  0  0  0  0  0
  179.1060  180.2010  137.8670 O   0  0  0  0  0  0  0  0  0  0  0  0
  180.1150  179.6520  137.4500 C   0  0  0  0  0  0  0  0  0  0  0  0
  181.4470  180.3030  137.6300 C   0  0  0  0  0  2  0  0  0  0  0  0
  181.3090  181.5660  138.4660 C   0  0  0  0  0  2  0  0  0  0  0  0
  180.4130  182.5690  137.7620 C   0  0  0  0  0  2  0  0  0  0  0  0
  181.2190  183.5950  137.1270 N   0  0  0  0  0  1  0  0  0  0  0  0
  180.9220  175.7840  139.2550 O   0  0  0  0  0  0  0  0  0  0  0  0
  181.9980  175.9710  139.9890 O   0  0  0  0  0  1  0  0  0  0  0  0
  184.2180  178.3450  140.5660 C   0  0  0  0  0  2  0  0  0  0  0  0
  185.3500  179.0080  139.7810 C   0  0  0  0  0  2  0  0  0  0  0  0
  186.6590  176.7580  137.1980 C   0  0  2  0  0  0  0  0  0  0  0  0
  187.6910  175.7170  136.9650 C   0  0  2  0  0  0  0  0  0  0  0  0
  184.5140  177.3670  138.0120 C   0  0  0  0  0  2  0  0  0  0  0  0
  185.5110  178.4780  138.3540 C   0  0  2  0  0  3  0  0  0  0  0  0
  187.4570  176.7570  136.0380 O   0  0  0  0  0  0  0  0  0  0  0  0
  184.7190  176.9000  135.5920 C   0  0  0  0  0  1  0  0  0  0  0  0
  186.9120  177.9590  138.0700 C   0  0  0  0  0  2  0  0  0  0  0  0
  185.1820  176.4780  136.9780 C   0  0  1  0  0  3  0  0  0  0  0  0
  187.3560  174.3780  136.3720 C   0  0  0  0  0  0  0  0  0  0  0  0
  187.4620  174.1930  135.1250 O   0  0  0  0  0  0  0  0  0  0  0  0
  186.9280  173.3480  137.2070 O   0  0  0  0  0  0  0  0  0  0  0  0
  185.6280  172.7860  137.0920 C   0  0  0  0  0  1  0  0  0  0  0  0
  188.9490  175.8770  137.5720 O   0  0  0  0  0  0  0  0  0  0  0  0
  189.6930  174.7310  137.2520 C   0  0  0  0  0  2  0  0  0  0  0  0
  191.0670  175.1290  136.7450 C   0  0  0  0  0  2  0  0  0  0  0  0
  193.4560  175.2860  137.3490 C   0  0  0  0  0  1  0  0  0  0  0  0
  192.1410  174.6120  137.6790 C   0  0  0  0  0  2  0  0  0  0  0  0
  1 15  1  0  0  0  0
  2 16  1  6  0  0  0
  2  5  1  0  0  0  0
  3  1  1  6  0  0  0
  3  6  1  0  0  0  0
  3  7  1  0  0  0  0
  4 37  1  6  0  0  0
  4 10  1  0  0  0  0
  4  2  1  0  0  0  0
  5 12  1  0  0  0  0
  6  8  1  1  0  0  0
  7 13  1  1  0  0  0
  9  7  1  0  0  0  0
 10 14  2  0  0  0  0
 12  6  1  0  0  0  0
 14  1  2  0  0  0  0
 15 11  1  6  0  0  0
 15  9  1  0  0  0  0
 16 17  1  1  0  0  0
 18 16  1  0  0  0  0
 19 20  1  0  0  0  0
 19 18  1  0  0  0  0
 20 23  1  6  0  0  0
 21 20  1  0  0  0  0
 21 22  1  0  0  0  0
 24 35  1  0  0  0  0
 24 23  1  1  0  0  0
 25 26  2  0  0  0  0
 26 24  1  0  0  0  0
 28 27  1  1  0  0  0
 28 30  1  0  0  0  0
 28 26  1  0  0  0  0
 30 31  1  0  0  0  0
 30 29  2  0  0  0  0
 31 32  1  0  0  0  0
 33 32  1  0  0  0  0
 34 33  1  0  0  0  0
 35 36  1  0  0  0  0
 38 37  1  0  0  0  0
 39 45  1  1  0  0  0
 40 47  1  6  0  0  0
 40 39  1  0  0  0  0
 40 51  1  0  0  0  0
 41 42  1  0  0  0  0
 42 38  1  1  0  0  0
 43 40  1  0  0  0  0
 43 39  1  0  0  0  0
 45 42  1  0  0  0  0
 46 44  1  6  0  0  0
 46 39  1  0  0  0  0
 46 41  1  0  0  0  0
 47 49  1  0  0  0  0
 48 47  2  0  0  0  0
 50 49  1  0  0  0  0
 52 51  1  0  0  0  0
 53 52  1  0  0  0  0
 53 55  1  0  0  0  0
 54 55  1  0  0  0  0
M  END
>  <MODEL>
4

>  <REMARK>
 VINA RESULT:      -5.8      3.076      9.600
  Name = 
  23 active torsions:
  status: ('A' for Active; 'I' for Inactive)
    1  A    between atoms: O_1  and  C_25
    2  A    between atoms: O_2  and  C_9
    3  A    between atoms: O_2  and  C_22
    4  A    between atoms: C_4  and  C_17
    5  A    between atoms: O_5  and  C_16
    6  A    between atoms: C_6  and  C_35
    7  A    between atoms: C_8  and  C_47
    8  A    between atoms: C_9  and  C_33
    9  A    between atoms: C_15  and  C_16
   10  A    between atoms: C_15  and  C_46
   11  A    between atoms: C_16  and  C_26
   12  A    between atoms: C_17  and  C_54
   13  A    between atoms: C_19  and  C_35
   14  A    between atoms: C_19  and  C_55
   15  A    between atoms: C_20  and  C_33
   16  A    between atoms: C_22  and  C_25
   17  A    between atoms: C_23  and  C_36
   18  A    between atoms: C_26  and  C_36
   19  A    between atoms: C_30  and  C_32
   20  A    between atoms: C_30  and  C_47
   21  A    between atoms: C_36  and  O_40
   22  A    between atoms: O_40  and  C_54
   23  A    between atoms: C_46  and  C_55
                            x       y       z     vdW  Elec       q    Type
                         _______ _______ _______ _____ _____    ______ ____

>  <TORSDO>
F 23

$$$$
=
 OpenBabel11062415083D

 55 58  0  0  1  0  0  0  0  0999 V2000
  188.5610  177.3750  146.1640 C   0  0  0  0  0  0  0  0  0  0  0  0
  187.9760  177.5160  142.2660 C   0  0  2  0  0  3  0  0  0  0  0  0
  189.7600  176.4880  146.0590 C   0  0  1  0  0  3  0  0  0  0  0  0
  186.7900  178.0700  143.0990 C   0  0  2  0  0  3  0  0  0  0  0  0
  189.3070  177.7670  142.9680 C   0  0  0  0  0  2  0  0  0  0  0  0
  190.6290  176.7310  144.8030 C   0  0  1  0  0  3  0  0  0  0  0  0
  190.4650  176.7450  147.4190 C   0  0  2  0  0  3  0  0  0  0  0  0
  191.8230  175.7910  144.8080 C   0  0  0  0  0  1  0  0  0  0  0  0
  189.5000  177.4890  148.2260 N   0  0  0  0  0  2  0  0  0  0  0  0
  186.6250  177.3580  144.4120 C   0  0  0  0  0  3  0  0  0  0  0  0
  187.3420  178.6100  148.1080 C   0  0  0  0  0  1  0  0  0  0  0  0
  189.8480  176.4630  143.5270 C   0  0  0  0  0  2  0  0  0  0  0  0
  191.6710  177.5480  147.2710 N   0  0  0  0  0  1  0  0  0  0  0  0
  187.5660  177.3690  145.3180 C   0  0  0  0  0  0  0  0  0  0  0  0
  188.4760  177.8390  147.5300 C   0  0  2  0  0  3  0  0  0  0  0  0
  188.0120  178.0580  140.8270 C   0  0  1  0  0  3  0  0  0  0  0  0
  188.7040  179.4120  140.6990 C   0  0  0  0  0  1  0  0  0  0  0  0
  188.5670  177.0360  139.8350 C   0  0  0  0  0  2  0  0  0  0  0  0
  189.8420  177.4000  139.3810 O   0  0  0  0  0  0  0  0  0  0  0  0
  190.0880  176.5840  138.2710 C   0  0  1  0  0  3  0  0  0  0  0  0
  190.1150  177.4080  136.9850 C   0  0  0  0  0  2  0  0  0  0  0  0
  188.7220  177.8980  136.6400 C   0  0  0  0  0  1  0  0  0  0  0  0
  191.3870  175.7870  138.4600 C   0  0  0  0  0  2  0  0  0  0  0  0
  192.5140  176.0480  137.4420 C   0  0  2  0  0  3  0  0  0  0  0  0
  193.9770  174.2600  137.9150 O   0  0  0  0  0  0  0  0  0  0  0  0
  193.2460  174.7850  137.0860 C   0  0  0  0  0  0  0  0  0  0  0  0
  192.6550  175.2130  134.7070 C   0  0  0  0  0  1  0  0  0  0  0  0
  193.1540  174.1860  135.7080 C   0  0  2  0  0  3  0  0  0  0  0  0
  192.7760  171.8720  136.0730 O   0  0  0  0  0  0  0  0  0  0  0  0
  192.3330  172.9270  135.6440 C   0  0  0  0  0  0  0  0  0  0  0  0
  190.9480  172.9810  135.0860 C   0  0  0  0  0  2  0  0  0  0  0  0
  189.9420  173.2460  136.1950 C   0  0  0  0  0  2  0  0  0  0  0  0
  188.9220  174.2750  135.7470 C   0  0  0  0  0  2  0  0  0  0  0  0
  187.6960  174.1260  136.5090 N   0  0  0  0  0  1  0  0  0  0  0  0
  193.4120  177.0400  137.8490 O   0  0  0  0  0  0  0  0  0  0  0  0
  193.5280  176.8690  139.1490 O   0  0  0  0  0  1  0  0  0  0  0  0
  185.4660  177.9390  142.3540 C   0  0  0  0  0  2  0  0  0  0  0  0
  185.3790  178.8970  141.1650 C   0  0  0  0  0  2  0  0  0  0  0  0
  182.1740  178.2720  139.4970 C   0  0  2  0  0  0  0  0  0  0  0  0
  180.7110  178.2510  139.7440 C   0  0  2  0  0  0  0  0  0  0  0  0
  184.1500  179.4930  139.0090 C   0  0  0  0  0  2  0  0  0  0  0  0
  184.4790  178.4010  140.0310 C   0  0  2  0  0  3  0  0  0  0  0  0
  181.3620  177.2220  139.0280 O   0  0  0  0  0  0  0  0  0  0  0  0
  182.9850  178.4120  137.1140 C   0  0  0  0  0  1  0  0  0  0  0  0
  183.1680  177.8120  140.5310 C   0  0  0  0  0  2  0  0  0  0  0  0
  182.7890  179.1550  138.4250 C   0  0  1  0  0  3  0  0  0  0  0  0
  179.7410  178.9910  138.8650 C   0  0  0  0  0  0  0  0  0  0  0  0
  179.2710  178.4350  137.8310 O   0  0  0  0  0  0  0  0  0  0  0  0
  179.3710  180.2920  139.2010 O   0  0  0  0  0  0  0  0  0  0  0  0
  180.2860  181.3740  139.1140 C   0  0  0  0  0  1  0  0  0  0  0  0
  180.2480  177.7690  140.9810 O   0  0  0  0  0  0  0  0  0  0  0  0
  179.4560  178.7880  141.5340 C   0  0  0  0  0  2  0  0  0  0  0  0
  180.2470  179.5490  142.5810 C   0  0  0  0  0  2  0  0  0  0  0  0
  178.9410  179.2640  144.6580 C   0  0  0  0  0  1  0  0  0  0  0  0
  180.1840  178.8280  143.9120 C   0  0  0  0  0  2  0  0  0  0  0  0
  1 15  1  0  0  0  0
  2 16  1  6  0  0  0
  2  5  1  0  0  0  0
  2  4  1  0  0  0  0
  3  1  1  6  0  0  0
  3  7  1  0  0  0  0
  4 37  1  6  0  0  0
  4 10  1  0  0  0  0
  5 12  1  0  0  0  0
  6  8  1  1  0  0  0
  6  3  1  0  0  0  0
  7 13  1  6  0  0  0
  7  9  1  0  0  0  0
 10 14  2  0  0  0  0
 12  6  1  0  0  0  0
 14  1  2  0  0  0  0
 15 11  1  1  0  0  0
 15  9  1  0  0  0  0
 16 17  1  1  0  0  0
 18 16  1  0  0  0  0
 19 18  1  0  0  0  0
 20 21  1  6  0  0  0
 20 23  1  0  0  0  0
 20 19  1  0  0  0  0
 22 21  1  0  0  0  0
 24 35  1  0  0  0  0
 24 23  1  1  0  0  0
 26 24  1  0  0  0  0
 26 25  2  0  0  0  0
 28 27  1  6  0  0  0
 28 26  1  0  0  0  0
 30 28  1  0  0  0  0
 30 29  2  0  0  0  0
 31 30  1  0  0  0  0
 31 32  1  0  0  0  0
 33 32  1  0  0  0  0
 33 34  1  0  0  0  0
 35 36  1  0  0  0  0
 38 37  1  0  0  0  0
 39 40  1  0  0  0  0
 39 45  1  1  0  0  0
 40 47  1  6  0  0  0
 40 51  1  0  0  0  0
 41 42  1  0  0  0  0
 42 45  1  0  0  0  0
 42 38  1  1  0  0  0
 43 39  1  0  0  0  0
 43 40  1  0  0  0  0
 46 44  1  6  0  0  0
 46 41  1  0  0  0  0
 46 39  1  0  0  0  0
 47 49  1  0  0  0  0
 48 47  2  0  0  0  0
 50 49  1  0  0  0  0
 51 52  1  0  0  0  0
 52 53  1  0  0  0  0
 53 55  1  0  0  0  0
 55 54  1  0  0  0  0
M  END
>  <MODEL>
5

>  <REMARK>
 VINA RESULT:      -5.6      2.197      3.758
  Name = 
  23 active torsions:
  status: ('A' for Active; 'I' for Inactive)
    1  A    between atoms: O_1  and  C_25
    2  A    between atoms: O_2  and  C_9
    3  A    between atoms: O_2  and  C_22
    4  A    between atoms: C_4  and  C_17
    5  A    between atoms: O_5  and  C_16
    6  A    between atoms: C_6  and  C_35
    7  A    between atoms: C_8  and  C_47
    8  A    between atoms: C_9  and  C_33
    9  A    between atoms: C_15  and  C_16
   10  A    between atoms: C_15  and  C_46
   11  A    between atoms: C_16  and  C_26
   12  A    between atoms: C_17  and  C_54
   13  A    between atoms: C_19  and  C_35
   14  A    between atoms: C_19  and  C_55
   15  A    between atoms: C_20  and  C_33
   16  A    between atoms: C_22  and  C_25
   17  A    between atoms: C_23  and  C_36
   18  A    between atoms: C_26  and  C_36
   19  A    between atoms: C_30  and  C_32
   20  A    between atoms: C_30  and  C_47
   21  A    between atoms: C_36  and  O_40
   22  A    between atoms: O_40  and  C_54
   23  A    between atoms: C_46  and  C_55
                            x       y       z     vdW  Elec       q    Type
                         _______ _______ _______ _____ _____    ______ ____

>  <TORSDO>
F 23

$$$$
=
 OpenBabel11062415083D

 55 58  0  0  1  0  0  0  0  0999 V2000
  188.5890  177.6900  145.2790 C   0  0  0  0  0  0  0  0  0  0  0  0
  185.8430  178.8000  142.6750 C   0  0  2  0  0  3  0  0  0  0  0  0
  187.9260  178.3770  146.4310 C   0  0  1  0  0  3  0  0  0  0  0  0
  187.1230  178.2100  142.0250 C   0  0  2  0  0  3  0  0  0  0  0  0
  185.5650  178.1550  144.0290 C   0  0  0  0  0  2  0  0  0  0  0  0
  186.3810  178.3890  146.3670 C   0  0  1  0  0  3  0  0  0  0  0  0
  188.5390  177.6250  147.6450 C   0  0  2  0  0  3  0  0  0  0  0  0
  185.8160  179.0940  147.5890 C   0  0  0  0  0  1  0  0  0  0  0  0
  189.6370  176.8300  147.0990 N   0  0  0  0  0  2  0  0  0  0  0  0
  188.3650  178.5180  142.8140 C   0  0  0  0  0  3  0  0  0  0  0  0
  190.6600  176.1340  145.0020 C   0  0  0  0  0  1  0  0  0  0  0  0
  185.8810  179.1370  145.1420 C   0  0  0  0  0  2  0  0  0  0  0  0
  187.5810  176.7300  148.2780 N   0  0  0  0  0  1  0  0  0  0  0  0
  188.5160  178.0960  144.0400 C   0  0  0  0  0  0  0  0  0  0  0  0
  189.6450  176.8600  145.8120 C   0  0  2  0  0  3  0  0  0  0  0  0
  184.6050  178.7100  141.7660 C   0  0  1  0  0  3  0  0  0  0  0  0
  184.6960  177.6080  140.7150 C   0  0  0  0  0  1  0  0  0  0  0  0
  183.3030  178.6330  142.5640 C   0  0  0  0  0  2  0  0  0  0  0  0
  182.2110  178.3410  141.7370 O   0  0  0  0  0  0  0  0  0  0  0  0
  181.0840  178.4440  142.5620 C   0  0  1  0  0  3  0  0  0  0  0  0
  180.9080  179.8740  143.0660 C   0  0  0  0  0  2  0  0  0  0  0  0
  179.4360  180.2100  143.2060 C   0  0  0  0  0  1  0  0  0  0  0  0
  179.8290  177.9430  141.8320 C   0  0  0  0  0  2  0  0  0  0  0  0
  180.0510  177.2020  140.5000 C   0  0  2  0  0  3  0  0  0  0  0  0
  178.9310  178.3420  138.7660 O   0  0  0  0  0  0  0  0  0  0  0  0
  179.9990  178.1390  139.3270 C   0  0  0  0  0  0  0  0  0  0  0  0
  181.0720  180.2870  138.6730 C   0  0  0  0  0  1  0  0  0  0  0  0
  181.2450  178.7820  138.7790 C   0  0  2  0  0  3  0  0  0  0  0  0
  181.1350  178.4760  136.4290 O   0  0  0  0  0  0  0  0  0  0  0  0
  181.7090  178.1990  137.4720 C   0  0  0  0  0  0  0  0  0  0  0  0
  182.9060  177.3060  137.4490 C   0  0  0  0  0  2  0  0  0  0  0  0
  182.5730  175.9610  138.0780 C   0  0  0  0  0  2  0  0  0  0  0  0
  182.7190  174.8510  137.0540 C   0  0  0  0  0  2  0  0  0  0  0  0
  181.7280  173.8190  137.2960 N   0  0  0  0  0  1  0  0  0  0  0  0
  179.1780  176.1260  140.3110 O   0  0  0  0  0  0  0  0  0  0  0  0
  179.9380  175.0580  140.4280 O   0  0  0  0  0  1  0  0  0  0  0  0
  187.3450  178.7540  140.6180 C   0  0  0  0  0  2  0  0  0  0  0  0
  188.7360  178.4130  140.0830 C   0  0  0  0  0  2  0  0  0  0  0  0
  189.1220  175.9360  137.4080 C   0  0  2  0  0  0  0  0  0  0  0  0
  189.6270  174.5650  137.1460 C   0  0  2  0  0  0  0  0  0  0  0  0
  187.3930  177.3660  138.1820 C   0  0  0  0  0  2  0  0  0  0  0  0
  188.7440  177.9290  138.6320 C   0  0  2  0  0  3  0  0  0  0  0  0
  189.9140  175.6450  136.2810 O   0  0  0  0  0  0  0  0  0  0  0  0
  187.5280  176.9630  135.7450 C   0  0  0  0  0  1  0  0  0  0  0  0
  189.8070  176.8740  138.3670 C   0  0  0  0  0  2  0  0  0  0  0  0
  187.6820  176.3240  137.1160 C   0  0  1  0  0  3  0  0  0  0  0  0
  188.7920  173.5240  136.4530 C   0  0  0  0  0  0  0  0  0  0  0  0
  188.3820  172.5130  137.0920 O   0  0  0  0  0  0  0  0  0  0  0  0
  188.4790  173.6860  135.1040 O   0  0  0  0  0  0  0  0  0  0  0  0
  187.1800  173.4090  134.6020 C   0  0  0  0  0  1  0  0  0  0  0  0
  190.7940  174.1450  137.8070 O   0  0  0  0  0  0  0  0  0  0  0  0
  191.7080  173.7770  136.8080 C   0  0  0  0  0  2  0  0  0  0  0  0
  193.1200  174.1210  137.2440 C   0  0  0  0  0  2  0  0  0  0  0  0
  193.3620  176.5580  137.5610 C   0  0  0  0  0  1  0  0  0  0  0  0
  193.5690  175.4130  136.5920 C   0  0  0  0  0  2  0  0  0  0  0  0
  1 15  1  0  0  0  0
  2 16  1  6  0  0  0
  2  5  1  0  0  0  0
  3  1  1  6  0  0  0
  3  7  1  0  0  0  0
  4 37  1  6  0  0  0
  4  2  1  0  0  0  0
  4 10  1  0  0  0  0
  5 12  1  0  0  0  0
  6  3  1  0  0  0  0
  6  8  1  1  0  0  0
  7 13  1  6  0  0  0
  9  7  1  0  0  0  0
 10 14  2  0  0  0  0
 12  6  1  0  0  0  0
 14  1  2  0  0  0  0
 15 11  1  1  0  0  0
 15  9  1  0  0  0  0
 16 17  1  1  0  0  0
 16 18  1  0  0  0  0
 19 20  1  0  0  0  0
 19 18  1  0  0  0  0
 20 23  1  6  0  0  0
 20 21  1  0  0  0  0
 21 22  1  0  0  0  0
 24 23  1  1  0  0  0
 25 26  2  0  0  0  0
 26 24  1  0  0  0  0
 28 27  1  6  0  0  0
 28 26  1  0  0  0  0
 29 30  2  0  0  0  0
 30 28  1  0  0  0  0
 31 30  1  0  0  0  0
 31 32  1  0  0  0  0
 33 34  1  0  0  0  0
 33 32  1  0  0  0  0
 35 36  1  0  0  0  0
 35 24  1  0  0  0  0
 38 37  1  0  0  0  0
 39 45  1  1  0  0  0
 40 47  1  6  0  0  0
 40 39  1  0  0  0  0
 40 51  1  0  0  0  0
 41 42  1  0  0  0  0
 42 38  1  1  0  0  0
 43 40  1  0  0  0  0
 43 39  1  0  0  0  0
 45 42  1  0  0  0  0
 46 44  1  6  0  0  0
 46 39  1  0  0  0  0
 46 41  1  0  0  0  0
 47 48  2  0  0  0  0
 49 47  1  0  0  0  0
 50 49  1  0  0  0  0
 52 53  1  0  0  0  0
 52 51  1  0  0  0  0
 55 53  1  0  0  0  0
 55 54  1  0  0  0  0
M  END
>  <MODEL>
6

>  <REMARK>
 VINA RESULT:      -5.5      2.684      9.494
  Name = 
  23 active torsions:
  status: ('A' for Active; 'I' for Inactive)
    1  A    between atoms: O_1  and  C_25
    2  A    between atoms: O_2  and  C_9
    3  A    between atoms: O_2  and  C_22
    4  A    between atoms: C_4  and  C_17
    5  A    between atoms: O_5  and  C_16
    6  A    between atoms: C_6  and  C_35
    7  A    between atoms: C_8  and  C_47
    8  A    between atoms: C_9  and  C_33
    9  A    between atoms: C_15  and  C_16
   10  A    between atoms: C_15  and  C_46
   11  A    between atoms: C_16  and  C_26
   12  A    between atoms: C_17  and  C_54
   13  A    between atoms: C_19  and  C_35
   14  A    between atoms: C_19  and  C_55
   15  A    between atoms: C_20  and  C_33
   16  A    between atoms: C_22  and  C_25
   17  A    between atoms: C_23  and  C_36
   18  A    between atoms: C_26  and  C_36
   19  A    between atoms: C_30  and  C_32
   20  A    between atoms: C_30  and  C_47
   21  A    between atoms: C_36  and  O_40
   22  A    between atoms: O_40  and  C_54
   23  A    between atoms: C_46  and  C_55
                            x       y       z     vdW  Elec       q    Type
                         _______ _______ _______ _____ _____    ______ ____

>  <TORSDO>
F 23

$$$$
=
 OpenBabel11062415083D

 55 58  0  0  1  0  0  0  0  0999 V2000
  186.9100  177.9830  145.3260 C   0  0  0  0  0  0  0  0  0  0  0  0
  186.4220  177.8360  141.4150 C   0  0  2  0  0  3  0  0  0  0  0  0
  188.0940  177.0690  145.3190 C   0  0  1  0  0  3  0  0  0  0  0  0
  185.2280  178.4730  142.1720 C   0  0  2  0  0  3  0  0  0  0  0  0
  187.7410  178.1160  142.1300 C   0  0  0  0  0  2  0  0  0  0  0  0
  188.9980  177.2000  144.0710 C   0  0  1  0  0  3  0  0  0  0  0  0
  188.7710  177.4160  146.6740 C   0  0  2  0  0  3  0  0  0  0  0  0
  190.1730  176.2420  144.1770 C   0  0  0  0  0  1  0  0  0  0  0  0
  187.8020  178.2370  147.3970 N   0  0  0  0  0  2  0  0  0  0  0  0
  185.0170  177.8660  143.5320 C   0  0  0  0  0  3  0  0  0  0  0  0
  185.6690  179.3840  147.1390 C   0  0  0  0  0  1  0  0  0  0  0  0
  188.2430  176.8500  142.7990 C   0  0  0  0  0  2  0  0  0  0  0  0
  189.9950  178.1850  146.4950 N   0  0  0  0  0  1  0  0  0  0  0  0
  185.9360  177.9300  144.4570 C   0  0  0  0  0  0  0  0  0  0  0  0
  186.8020  178.5520  146.6500 C   0  0  2  0  0  3  0  0  0  0  0  0
  186.5030  178.2650  139.9400 C   0  0  1  0  0  3  0  0  0  0  0  0
  185.5900  179.4380  139.5930 C   0  0  0  0  0  1  0  0  0  0  0  0
  187.9410  178.5060  139.4820 C   0  0  0  0  0  2  0  0  0  0  0  0
  188.4660  177.3860  138.8250 O   0  0  0  0  0  0  0  0  0  0  0  0
  189.8510  177.5880  138.7970 C   0  0  1  0  0  3  0  0  0  0  0  0
  190.5410  176.7820  139.8950 C   0  0  0  0  0  2  0  0  0  0  0  0
  191.7960  177.4920  140.3650 C   0  0  0  0  0  1  0  0  0  0  0  0
  190.4210  177.2570  137.4090 C   0  0  0  0  0  2  0  0  0  0  0  0
  190.2250  175.8140  136.9070 C   0  0  2  0  0  3  0  0  0  0  0  0
  188.7850  176.4000  135.1340 O   0  0  0  0  0  0  0  0  0  0  0  0
  188.9660  175.6720  136.1010 C   0  0  0  0  0  0  0  0  0  0  0  0
  187.9820  173.4260  135.6730 C   0  0  0  0  0  1  0  0  0  0  0  0
  187.8860  174.7000  136.4950 C   0  0  2  0  0  3  0  0  0  0  0  0
  186.3030  176.4580  136.6720 O   0  0  0  0  0  0  0  0  0  0  0  0
  186.4960  175.2750  136.4380 C   0  0  0  0  0  0  0  0  0  0  0  0
  185.3530  174.3940  136.0520 C   0  0  0  0  0  2  0  0  0  0  0  0
  184.6680  173.8430  137.2930 C   0  0  0  0  0  2  0  0  0  0  0  0
  183.2250  174.3080  137.3490 C   0  0  0  0  0  2  0  0  0  0  0  0
  183.0660  175.3130  138.3830 N   0  0  0  0  0  1  0  0  0  0  0  0
  190.2680  174.8590  137.9280 O   0  0  0  0  0  0  0  0  0  0  0  0
  191.2710  174.0720  137.6050 O   0  0  0  0  0  1  0  0  0  0  0  0
  183.9200  178.3090  141.4060 C   0  0  0  0  0  2  0  0  0  0  0  0
  182.7350  178.9180  142.1560 C   0  0  0  0  0  2  0  0  0  0  0  0
  180.6550  179.5290  139.1980 C   0  0  2  0  0  0  0  0  0  0  0  0
  180.6670  180.2100  137.8800 C   0  0  2  0  0  0  0  0  0  0  0  0
  181.2210  177.6520  140.5370 C   0  0  0  0  0  2  0  0  0  0  0  0
  181.4310  178.9290  141.3550 C   0  0  2  0  0  3  0  0  0  0  0  0
  179.5650  180.3030  138.7590 O   0  0  0  0  0  0  0  0  0  0  0  0
  178.9320  177.7340  139.6030 C   0  0  0  0  0  1  0  0  0  0  0  0
  181.3270  180.1180  140.4110 C   0  0  0  0  0  2  0  0  0  0  0  0
  180.3940  178.0380  139.3220 C   0  0  1  0  0  3  0  0  0  0  0  0
  180.2880  179.5010  136.6100 C   0  0  0  0  0  0  0  0  0  0  0  0
  179.0690  179.3520  136.3070 O   0  0  0  0  0  0  0  0  0  0  0  0
  181.2910  179.0090  135.7770 O   0  0  0  0  0  0  0  0  0  0  0  0
  181.3110  177.6540  135.3530 C   0  0  0  0  0  1  0  0  0  0  0  0
  181.3150  181.4530  137.7760 O   0  0  0  0  0  0  0  0  0  0  0  0
  180.4140  182.3200  137.1370 C   0  0  0  0  0  2  0  0  0  0  0  0
  181.1570  183.5140  136.5680 C   0  0  0  0  0  2  0  0  0  0  0  0
  179.5740  184.9270  137.8310 C   0  0  0  0  0  1  0  0  0  0  0  0
  181.0340  184.7020  137.5010 C   0  0  0  0  0  2  0  0  0  0  0  0
  1 15  1  0  0  0  0
  2 16  1  6  0  0  0
  2  5  1  0  0  0  0
  2  4  1  0  0  0  0
  3  1  1  6  0  0  0
  3  7  1  0  0  0  0
  4 37  1  6  0  0  0
  4 10  1  0  0  0  0
  5 12  1  0  0  0  0
  6  8  1  1  0  0  0
  6  3  1  0  0  0  0
  7 13  1  6  0  0  0
  7  9  1  0  0  0  0
 10 14  2  0  0  0  0
 12  6  1  0  0  0  0
 14  1  2  0  0  0  0
 15 11  1  1  0  0  0
 15  9  1  0  0  0  0
 16 17  1  1  0  0  0
 18 16  1  0  0  0  0
 19 18  1  0  0  0  0
 20 23  1  6  0  0  0
 20 19  1  0  0  0  0
 20 21  1  0  0  0  0
 21 22  1  0  0  0  0
 24 23  1  1  0  0  0
 24 35  1  0  0  0  0
 25 26  2  0  0  0  0
 26 28  1  0  0  0  0
 26 24  1  0  0  0  0
 28 27  1  6  0  0  0
 30 28  1  0  0  0  0
 30 29  2  0  0  0  0
 31 30  1  0  0  0  0
 31 32  1  0  0  0  0
 32 33  1  0  0  0  0
 33 34  1  0  0  0  0
 36 35  1  0  0  0  0
 37 38  1  0  0  0  0
 39 46  1  0  0  0  0
 39 45  1  1  0  0  0
 40 47  1  6  0  0  0
 40 43  1  0  0  0  0
 40 39  1  0  0  0  0
 41 42  1  0  0  0  0
 42 38  1  6  0  0  0
 43 39  1  0  0  0  0
 45 42  1  0  0  0  0
 46 44  1  1  0  0  0
 46 41  1  0  0  0  0
 48 47  2  0  0  0  0
 49 47  1  0  0  0  0
 50 49  1  0  0  0  0
 51 40  1  0  0  0  0
 52 51  1  0  0  0  0
 53 52  1  0  0  0  0
 53 55  1  0  0  0  0
 55 54  1  0  0  0  0
M  END
>  <MODEL>
7

>  <REMARK>
 VINA RESULT:      -5.2      3.270      5.423
  Name = 
  23 active torsions:
  status: ('A' for Active; 'I' for Inactive)
    1  A    between atoms: O_1  and  C_25
    2  A    between atoms: O_2  and  C_9
    3  A    between atoms: O_2  and  C_22
    4  A    between atoms: C_4  and  C_17
    5  A    between atoms: O_5  and  C_16
    6  A    between atoms: C_6  and  C_35
    7  A    between atoms: C_8  and  C_47
    8  A    between atoms: C_9  and  C_33
    9  A    between atoms: C_15  and  C_16
   10  A    between atoms: C_15  and  C_46
   11  A    between atoms: C_16  and  C_26
   12  A    between atoms: C_17  and  C_54
   13  A    between atoms: C_19  and  C_35
   14  A    between atoms: C_19  and  C_55
   15  A    between atoms: C_20  and  C_33
   16  A    between atoms: C_22  and  C_25
   17  A    between atoms: C_23  and  C_36
   18  A    between atoms: C_26  and  C_36
   19  A    between atoms: C_30  and  C_32
   20  A    between atoms: C_30  and  C_47
   21  A    between atoms: C_36  and  O_40
   22  A    between atoms: O_40  and  C_54
   23  A    between atoms: C_46  and  C_55
                            x       y       z     vdW  Elec       q    Type
                         _______ _______ _______ _____ _____    ______ ____

>  <TORSDO>
F 23

$$$$
=
 OpenBabel11062415083D

 55 58  0  0  1  0  0  0  0  0999 V2000
  191.5980  175.0960  137.1250 C   0  0  0  0  0  0  0  0  0  0  0  0
  188.0850  176.8850  137.2190 C   0  0  2  0  0  3  0  0  0  0  0  0
  191.0230  173.7490  136.8230 C   0  0  1  0  0  3  0  0  0  0  0  0
  189.2440  177.7500  137.7800 C   0  0  2  0  0  3  0  0  0  0  0  0
  188.5750  175.9600  136.1090 C   0  0  0  0  0  2  0  0  0  0  0  0
  189.7560  173.7770  135.9370 C   0  0  1  0  0  3  0  0  0  0  0  0
  192.2470  173.0100  136.2140 C   0  0  2  0  0  3  0  0  0  0  0  0
  189.2690  172.3610  135.6810 C   0  0  0  0  0  1  0  0  0  0  0  0
  193.3980  173.8710  136.4830 N   0  0  0  0  0  2  0  0  0  0  0  0
  190.3010  176.9260  138.4610 C   0  0  0  0  0  3  0  0  0  0  0  0
  194.0060  176.0740  137.3250 C   0  0  0  0  0  1  0  0  0  0  0  0
  188.6220  174.5290  136.6150 C   0  0  0  0  0  2  0  0  0  0  0  0
  192.1210  172.8310  134.7750 N   0  0  0  0  0  1  0  0  0  0  0  0
  190.9830  176.0210  137.8130 C   0  0  0  0  0  0  0  0  0  0  0  0
  193.0320  175.0080  136.9630 C   0  0  2  0  0  3  0  0  0  0  0  0
  186.8830  177.7180  136.7400 C   0  0  1  0  0  3  0  0  0  0  0  0
  187.2260  178.6970  135.6200 C   0  0  0  0  0  1  0  0  0  0  0  0
  185.6760  176.8490  136.3900 C   0  0  0  0  0  2  0  0  0  0  0  0
  185.3910  175.9300  137.4080 O   0  0  0  0  0  0  0  0  0  0  0  0
  184.0030  175.7550  137.3720 C   0  0  1  0  0  3  0  0  0  0  0  0
  183.6450  174.2830  137.1830 C   0  0  0  0  0  2  0  0  0  0  0  0
  184.8870  173.4720  136.8650 C   0  0  0  0  0  1  0  0  0  0  0  0
  183.3490  176.3380  138.6340 C   0  0  0  0  0  2  0  0  0  0  0  0
  182.3300  177.4740  138.4250 C   0  0  2  0  0  3  0  0  0  0  0  0
  183.8940  179.2370  138.5150 O   0  0  0  0  0  0  0  0  0  0  0  0
  182.8440  178.7850  138.9500 C   0  0  0  0  0  0  0  0  0  0  0  0
  181.5350  178.5490  141.0540 C   0  0  0  0  0  1  0  0  0  0  0  0
  182.1320  179.5230  140.0520 C   0  0  2  0  0  3  0  0  0  0  0  0
  179.9430  180.4360  139.9680 O   0  0  0  0  0  0  0  0  0  0  0  0
  181.0940  180.4970  139.5620 C   0  0  0  0  0  0  0  0  0  0  0  0
  181.4900  181.5700  138.6020 C   0  0  0  0  0  2  0  0  0  0  0  0
  180.3600  181.8450  137.6210 C   0  0  0  0  0  2  0  0  0  0  0  0
  180.6700  183.0770  136.7920 C   0  0  0  0  0  2  0  0  0  0  0  0
  179.4520  183.5940  136.1960 N   0  0  0  0  0  1  0  0  0  0  0  0
  181.0670  177.1930  138.9530 O   0  0  0  0  0  0  0  0  0  0  0  0
  181.1820  175.9850  139.4630 O   0  0  0  0  0  1  0  0  0  0  0  0
  188.7480  178.7670  138.8010 C   0  0  0  0  0  2  0  0  0  0  0  0
  189.1000  178.3620  140.2330 C   0  0  0  0  0  2  0  0  0  0  0  0
  187.2560  177.5940  143.3080 C   0  0  2  0  0  0  0  0  0  0  0  0
  187.4270  177.4790  144.7780 C   0  0  2  0  0  0  0  0  0  0  0  0
  186.8990  178.9430  141.3880 C   0  0  0  0  0  2  0  0  0  0  0  0
  187.9100  177.8460  141.0440 C   0  0  2  0  0  3  0  0  0  0  0  0
  186.7210  176.5110  144.0300 O   0  0  0  0  0  0  0  0  0  0  0  0
  184.9210  177.8480  142.3900 C   0  0  0  0  0  1  0  0  0  0  0  0
  188.3280  177.1660  142.3390 C   0  0  0  0  0  2  0  0  0  0  0  0
  186.2390  178.5420  142.6950 C   0  0  1  0  0  3  0  0  0  0  0  0
  186.5190  178.1840  145.7450 C   0  0  0  0  0  0  0  0  0  0  0  0
  186.9640  179.1260  146.4610 O   0  0  0  0  0  0  0  0  0  0  0  0
  185.1860  177.7880  145.8440 O   0  0  0  0  0  0  0  0  0  0  0  0
  184.1190  178.7020  145.6360 C   0  0  0  0  0  1  0  0  0  0  0  0
  188.6270  176.9370  145.2700 O   0  0  0  0  0  0  0  0  0  0  0  0
  189.4440  178.0260  145.6140 C   0  0  0  0  0  2  0  0  0  0  0  0
  190.8870  177.7250  145.2530 C   0  0  0  0  0  2  0  0  0  0  0  0
  191.4660  176.7510  143.0590 C   0  0  0  0  0  1  0  0  0  0  0  0
  190.9710  176.4400  144.4550 C   0  0  0  0  0  2  0  0  0  0  0  0
  1 14  2  0  0  0  0
  2 16  1  6  0  0  0
  2  4  1  0  0  0  0
  3  1  1  6  0  0  0
  4 10  1  0  0  0  0
  4 37  1  1  0  0  0
  5 12  1  0  0  0  0
  5  2  1  0  0  0  0
  6  8  1  1  0  0  0
  6 12  1  0  0  0  0
  6  3  1  0  0  0  0
  7 13  1  6  0  0  0
  7  9  1  0  0  0  0
  7  3  1  0  0  0  0
  9 15  1  0  0  0  0
 14 10  2  0  0  0  0
 15  1  1  0  0  0  0
 15 11  1  1  0  0  0
 16 17  1  6  0  0  0
 18 16  1  0  0  0  0
 18 19  1  0  0  0  0
 20 21  1  1  0  0  0
 20 19  1  0  0  0  0
 20 23  1  0  0  0  0
 22 21  1  0  0  0  0
 24 23  1  1  0  0  0
 24 26  1  0  0  0  0
 24 35  1  0  0  0  0
 25 26  2  0  0  0  0
 26 28  1  0  0  0  0
 28 27  1  1  0  0  0
 30 29  2  0  0  0  0
 30 28  1  0  0  0  0
 31 30  1  0  0  0  0
 32 31  1  0  0  0  0
 33 32  1  0  0  0  0
 34 33  1  0  0  0  0
 35 36  1  0  0  0  0
 37 38  1  0  0  0  0
 39 45  1  6  0  0  0
 39 43  1  0  0  0  0
 39 40  1  0  0  0  0
 40 51  1  1  0  0  0
 40 47  1  0  0  0  0
 41 46  1  0  0  0  0
 42 38  1  1  0  0  0
 42 41  1  0  0  0  0
 42 45  1  0  0  0  0
 43 40  1  0  0  0  0
 46 44  1  6  0  0  0
 46 39  1  0  0  0  0
 47 49  1  0  0  0  0
 47 48  2  0  0  0  0
 50 49  1  0  0  0  0
 51 52  1  0  0  0  0
 53 52  1  0  0  0  0
 54 55  1  0  0  0  0
 55 53  1  0  0  0  0
M  END
>  <MODEL>
8

>  <REMARK>
 VINA RESULT:      -5.1      3.811     10.363
  Name = 
  23 active torsions:
  status: ('A' for Active; 'I' for Inactive)
    1  A    between atoms: O_1  and  C_25
    2  A    between atoms: O_2  and  C_9
    3  A    between atoms: O_2  and  C_22
    4  A    between atoms: C_4  and  C_17
    5  A    between atoms: O_5  and  C_16
    6  A    between atoms: C_6  and  C_35
    7  A    between atoms: C_8  and  C_47
    8  A    between atoms: C_9  and  C_33
    9  A    between atoms: C_15  and  C_16
   10  A    between atoms: C_15  and  C_46
   11  A    between atoms: C_16  and  C_26
   12  A    between atoms: C_17  and  C_54
   13  A    between atoms: C_19  and  C_35
   14  A    between atoms: C_19  and  C_55
   15  A    between atoms: C_20  and  C_33
   16  A    between atoms: C_22  and  C_25
   17  A    between atoms: C_23  and  C_36
   18  A    between atoms: C_26  and  C_36
   19  A    between atoms: C_30  and  C_32
   20  A    between atoms: C_30  and  C_47
   21  A    between atoms: C_36  and  O_40
   22  A    between atoms: O_40  and  C_54
   23  A    between atoms: C_46  and  C_55
                            x       y       z     vdW  Elec       q    Type
                         _______ _______ _______ _____ _____    ______ ____

>  <TORSDO>
F 23

$$$$
=
 OpenBabel11062415083D

 55 58  0  0  1  0  0  0  0  0999 V2000
  187.0620  177.8700  144.6420 C   0  0  0  0  0  0  0  0  0  0  0  0
  187.6580  177.8640  140.7440 C   0  0  2  0  0  3  0  0  0  0  0  0
  188.1870  176.9240  144.9230 C   0  0  1  0  0  3  0  0  0  0  0  0
  186.3130  178.5080  141.1720 C   0  0  2  0  0  3  0  0  0  0  0  0
  188.7350  178.0840  141.8010 C   0  0  0  0  0  2  0  0  0  0  0  0
  189.3990  177.0720  143.9740 C   0  0  1  0  0  3  0  0  0  0  0  0
  188.4750  177.2090  146.4230 C   0  0  2  0  0  3  0  0  0  0  0  0
  190.4840  176.0800  144.3590 C   0  0  0  0  0  1  0  0  0  0  0  0
  187.3590  178.0320  146.8870 N   0  0  0  0  0  2  0  0  0  0  0  0
  185.7290  177.8630  142.3980 C   0  0  0  0  0  3  0  0  0  0  0  0
  185.3980  179.2440  146.1030 C   0  0  0  0  0  1  0  0  0  0  0  0
  189.0140  176.7840  142.5320 C   0  0  0  0  0  2  0  0  0  0  0  0
  189.7140  177.9490  146.6140 N   0  0  0  0  0  1  0  0  0  0  0  0
  186.3610  177.8720  143.5400 C   0  0  0  0  0  0  0  0  0  0  0  0
  186.6060  178.3970  145.9080 C   0  0  2  0  0  3  0  0  0  0  0  0
  188.1450  178.3390  139.3640 C   0  0  1  0  0  3  0  0  0  0  0  0
  189.0390  179.5750  139.4230 C   0  0  0  0  0  1  0  0  0  0  0  0
  188.7830  177.2110  138.5530 C   0  0  0  0  0  2  0  0  0  0  0  0
  189.6750  177.7090  137.5940 O   0  0  0  0  0  0  0  0  0  0  0  0
  190.9090  177.1200  137.8950 C   0  0  1  0  0  3  0  0  0  0  0  0
  190.9560  176.6730  139.3550 C   0  0  0  0  0  2  0  0  0  0  0  0
  192.1310  177.3150  140.0680 C   0  0  0  0  0  1  0  0  0  0  0  0
  191.2030  175.9550  136.9380 C   0  0  0  0  0  2  0  0  0  0  0  0
  191.4530  174.5770  137.5800 C   0  0  2  0  0  3  0  0  0  0  0  0
  192.5400  172.7940  136.4840 O   0  0  0  0  0  0  0  0  0  0  0  0
  192.6590  173.9010  136.9920 C   0  0  0  0  0  0  0  0  0  0  0  0
  194.4190  175.1410  135.7440 C   0  0  0  0  0  1  0  0  0  0  0  0
  194.0270  174.5230  137.0760 C   0  0  2  0  0  3  0  0  0  0  0  0
  194.9900  173.0420  138.6600 O   0  0  0  0  0  0  0  0  0  0  0  0
  195.0950  173.5850  137.5710 C   0  0  0  0  0  0  0  0  0  0  0  0
  196.2720  173.2880  136.7000 C   0  0  0  0  0  2  0  0  0  0  0  0
  197.5110  173.0540  137.5500 C   0  0  0  0  0  2  0  0  0  0  0  0
  198.4780  174.2150  137.4030 C   0  0  0  0  0  2  0  0  0  0  0  0
  198.2850  174.8620  136.1190 N   0  0  0  0  0  1  0  0  0  0  0  0
  190.3400  173.7310  137.5310 O   0  0  0  0  0  0  0  0  0  0  0  0
  189.6090  174.2010  136.5430 O   0  0  0  0  0  1  0  0  0  0  0  0
  185.2610  178.4050  140.0730 C   0  0  0  0  0  2  0  0  0  0  0  0
  184.0780  179.3400  140.3210 C   0  0  0  0  0  2  0  0  0  0  0  0
  181.9360  177.6710  137.8570 C   0  0  2  0  0  0  0  0  0  0  0  0
  181.7630  176.3850  137.1360 C   0  0  2  0  0  0  0  0  0  0  0  0
  181.6030  178.9850  139.8060 C   0  0  0  0  0  2  0  0  0  0  0  0
  182.9960  179.2760  139.2400 C   0  0  2  0  0  3  0  0  0  0  0  0
  181.6700  177.6300  136.4750 O   0  0  0  0  0  0  0  0  0  0  0  0
  179.9780  179.2570  137.9610 C   0  0  0  0  0  1  0  0  0  0  0  0
  183.2950  178.2420  138.1650 C   0  0  0  0  0  2  0  0  0  0  0  0
  180.8310  178.2540  138.7210 C   0  0  1  0  0  3  0  0  0  0  0  0
  180.4490  175.6560  137.1050 C   0  0  0  0  0  0  0  0  0  0  0  0
  179.6020  175.9170  136.2030 O   0  0  0  0  0  0  0  0  0  0  0  0
  180.1770  174.6960  138.0770 O   0  0  0  0  0  0  0  0  0  0  0  0
  180.1400  175.0240  139.4590 C   0  0  0  0  0  1  0  0  0  0  0  0
  182.9130  175.6950  136.7170 O   0  0  0  0  0  0  0  0  0  0  0  0
  183.0900  174.6320  137.6180 C   0  0  0  0  0  2  0  0  0  0  0  0
  184.3620  173.8750  137.2840 C   0  0  0  0  0  2  0  0  0  0  0  0
  185.9000  175.1990  135.8770 C   0  0  0  0  0  1  0  0  0  0  0  0
  185.5500  174.8150  137.2990 C   0  0  0  0  0  2  0  0  0  0  0  0
  1 15  1  0  0  0  0
  2 16  1  6  0  0  0
  2  4  1  0  0  0  0
  2  5  1  0  0  0  0
  3  1  1  6  0  0  0
  3  7  1  0  0  0  0
  4 37  1  6  0  0  0
  4 10  1  0  0  0  0
  5 12  1  0  0  0  0
  6  8  1  1  0  0  0
  6  3  1  0  0  0  0
  7 13  1  6  0  0  0
  7  9  1  0  0  0  0
 10 14  2  0  0  0  0
 12  6  1  0  0  0  0
 14  1  2  0  0  0  0
 15 11  1  1  0  0  0
 15  9  1  0  0  0  0
 16 17  1  1  0  0  0
 18 16  1  0  0  0  0
 19 20  1  0  0  0  0
 19 18  1  0  0  0  0
 20 23  1  6  0  0  0
 20 21  1  0  0  0  0
 21 22  1  0  0  0  0
 24 23  1  6  0  0  0
 25 26  2  0  0  0  0
 26 28  1  0  0  0  0
 26 24  1  0  0  0  0
 28 27  1  6  0  0  0
 28 30  1  0  0  0  0
 30 29  2  0  0  0  0
 31 32  1  0  0  0  0
 31 30  1  0  0  0  0
 33 32  1  0  0  0  0
 34 33  1  0  0  0  0
 35 24  1  0  0  0  0
 36 35  1  0  0  0  0
 37 38  1  0  0  0  0
 39 45  1  1  0  0  0
 39 46  1  0  0  0  0
 40 51  1  6  0  0  0
 40 39  1  0  0  0  0
 42 41  1  0  0  0  0
 42 38  1  1  0  0  0
 43 40  1  0  0  0  0
 43 39  1  0  0  0  0
 45 42  1  0  0  0  0
 46 44  1  6  0  0  0
 46 41  1  0  0  0  0
 47 40  1  0  0  0  0
 47 49  1  0  0  0  0
 48 47  2  0  0  0  0
 49 50  1  0  0  0  0
 51 52  1  0  0  0  0
 53 55  1  0  0  0  0
 53 52  1  0  0  0  0
 54 55  1  0  0  0  0
M  END
>  <MODEL>
9

>  <REMARK>
 VINA RESULT:      -5.1      1.867      2.575
  Name = 
  23 active torsions:
  status: ('A' for Active; 'I' for Inactive)
    1  A    between atoms: O_1  and  C_25
    2  A    between atoms: O_2  and  C_9
    3  A    between atoms: O_2  and  C_22
    4  A    between atoms: C_4  and  C_17
    5  A    between atoms: O_5  and  C_16
    6  A    between atoms: C_6  and  C_35
    7  A    between atoms: C_8  and  C_47
    8  A    between atoms: C_9  and  C_33
    9  A    between atoms: C_15  and  C_16
   10  A    between atoms: C_15  and  C_46
   11  A    between atoms: C_16  and  C_26
   12  A    between atoms: C_17  and  C_54
   13  A    between atoms: C_19  and  C_35
   14  A    between atoms: C_19  and  C_55
   15  A    between atoms: C_20  and  C_33
   16  A    between atoms: C_22  and  C_25
   17  A    between atoms: C_23  and  C_36
   18  A    between atoms: C_26  and  C_36
   19  A    between atoms: C_30  and  C_32
   20  A    between atoms: C_30  and  C_47
   21  A    between atoms: C_36  and  O_40
   22  A    between atoms: O_40  and  C_54
   23  A    between atoms: C_46  and  C_55
                            x       y       z     vdW  Elec       q    Type
                         _______ _______ _______ _____ _____    ______ ____

>  <TORSDO>
F 23

$$$$
