=
 OpenBabel11062417143D

 36 38  0  0  1  0  0  0  0  0999 V2000
  190.0620  176.0850  140.6250 N   0  0  0  0  0  2  0  0  0  0  0  0
  190.4940  176.2110  141.9620 C   0  0  0  0  0  0  0  0  0  0  0  0
  190.2220  175.3170  142.8530 N   0  0  0  0  0  2  0  0  0  0  0  0
  191.5290  177.2470  142.1530 C   0  0  1  0  0  3  0  0  0  0  0  0
  190.7310  177.0840  139.8150 C   0  0  2  0  0  3  0  0  0  0  0  0
  191.6970  177.8320  140.7480 C   0  0  2  0  0  3  0  0  0  0  0  0
  193.0080  177.6340  140.3150 O   0  0  0  0  0  1  0  0  0  0  0  0
  189.7000  178.0430  139.2350 C   0  0  0  0  0  2  0  0  0  0  0  0
  188.3270  177.8240  139.8610 C   0  0  0  0  0  2  0  0  0  0  0  0
  187.2130  178.2660  138.9210 C   0  0  1  0  0  3  0  0  0  0  0  0
  187.4350  175.9380  137.2370 S   0  0  0  0  0  0  0  0  0  0  0  0
  187.1650  176.2940  135.4680 C   0  0  0  0  0  2  0  0  0  0  0  0
  187.6390  177.7130  135.1890 C   0  0  0  0  0  2  0  0  0  0  0  0
  187.5230  178.4470  136.4720 C   0  0  0  0  0  0  0  0  0  0  0  0
  187.4060  177.6940  137.5500 C   0  0  0  0  0  0  0  0  0  0  0  0
  187.5390  179.8360  136.5260 O   0  0  0  0  0  1  0  0  0  0  0  0
  185.9760  177.8680  139.4320 O   0  0  0  0  0  0  0  0  0  0  0  0
  185.0770  178.8540  139.0180 C   0  0  2  0  0  3  0  0  0  0  0  0
  184.8220  179.7270  140.0750 O   0  0  0  0  0  1  0  0  0  0  0  0
  183.7810  178.2040  138.5780 C   0  0  0  0  0  1  0  0  0  0  0  0
  191.0210  178.3160  143.1060 C   0  0  0  0  0  2  0  0  0  0  0  0
  191.8350  178.3080  144.3880 C   0  0  0  0  0  2  0  0  0  0  0  0
  191.2130  177.3910  145.3910 C   0  0  0  0  0  0  0  0  0  0  0  0
  191.8200  176.3980  145.7610 O   0  0  0  0  0  0  0  0  0  0  0  0
  189.8230  177.6730  145.9090 C   0  0  0  0  0  0  0  0  0  0  0  0
  189.4630  178.9440  145.5010 F   0  0  0  0  0  0  0  0  0  0  0  0
  189.8040  177.6610  147.3000 F   0  0  0  0  0  0  0  0  0  0  0  0
  188.8850  176.7580  145.3780 O   0  0  0  0  0  0  0  0  0  0  0  0
  187.2370  176.8820  143.6680 C   0  0  0  0  0  2  0  0  0  0  0  0
  185.0690  178.9030  144.8630 C   0  0  0  0  0  0  0  0  0  0  0  0
  186.6390  177.2470  145.9880 C   0  0  0  0  0  2  0  0  0  0  0  0
  186.3610  177.8410  142.9290 C   0  0  0  0  0  3  0  0  0  0  0  0
  185.4410  178.6630  143.4480 C   0  0  0  0  0  3  0  0  0  0  0  0
  185.6130  178.3330  145.9450 C   0  0  0  0  0  3  0  0  0  0  0  0
  187.7370  177.4610  144.9720 C   0  0  1  0  0  3  0  0  0  0  0  0
  184.1240  179.8470  145.0800 F   0  0  0  0  0  0  0  0  0  0  0  0
  1  2  1  0  0  0  0
  2  4  1  0  0  0  0
  2  3  2  0  0  0  0
  4 21  1  1  0  0  0
  5  8  1  1  0  0  0
  5  1  1  0  0  0  0
  5  6  1  0  0  0  0
  6  7  1  6  0  0  0
  6  4  1  0  0  0  0
  8  9  1  0  0  0  0
 10 17  1  0  0  0  0
 10  9  1  1  0  0  0
 11 15  1  0  0  0  0
 12 11  1  0  0  0  0
 13 12  1  0  0  0  0
 13 14  1  0  0  0  0
 14 16  1  0  0  0  0
 14 15  2  0  0  0  0
 15 10  1  0  0  0  0
 18 20  1  1  0  0  0
 18 17  1  0  0  0  0
 18 19  1  0  0  0  0
 21 22  1  0  0  0  0
 22 23  1  0  0  0  0
 23 24  2  0  0  0  0
 23 25  1  0  0  0  0
 25 27  1  0  0  0  0
 26 25  1  0  0  0  0
 28 25  1  0  0  0  0
 29 35  1  0  0  0  0
 30 36  1  0  0  0  0
 30 34  2  0  0  0  0
 32 33  2  0  0  0  0
 32 29  1  0  0  0  0
 33 30  1  0  0  0  0
 34 31  1  0  0  0  0
 35 28  1  1  0  0  0
 35 31  1  0  0  0  0
M  END
>  <MODEL>
1

>  <REMARK>
 VINA RESULT:      -7.7      0.000      0.000
  Name = 
  12 active torsions:
  status: ('A' for Active; 'I' for Inactive)
    1  A    between atoms: C_2  and  C_10
    2  A    between atoms: C_2  and  C_16
    3  A    between atoms: O_4  and  C_6
    4  A    between atoms: O_4  and  C_30
    5  A    between atoms: C_5  and  C_6
    6  A    between atoms: C_5  and  C_35
    7  A    between atoms: C_10  and  C_32
    8  A    between atoms: C_16  and  C_25
    9  A    between atoms: C_16  and  O_27
   10  A    between atoms: C_17  and  O_27
   11  A    between atoms: C_20  and  C_26
   12  A    between atoms: C_20  and  C_35
                            x       y       z     vdW  Elec       q    Type
                         _______ _______ _______ _____ _____    ______ ____

>  <TORSDO>
F 12

$$$$
=
 OpenBabel11062417143D

 36 38  0  0  1  0  0  0  0  0999 V2000
  191.6540  176.6490  142.7120 N   0  0  0  0  0  2  0  0  0  0  0  0
  191.4870  176.3400  144.0780 C   0  0  0  0  0  0  0  0  0  0  0  0
  192.1030  175.3510  144.6340 N   0  0  0  0  0  2  0  0  0  0  0  0
  190.8340  177.4160  144.8500 C   0  0  1  0  0  3  0  0  0  0  0  0
  191.0600  177.9430  142.4420 C   0  0  2  0  0  3  0  0  0  0  0  0
  190.5460  178.4800  143.7880 C   0  0  2  0  0  3  0  0  0  0  0  0
  191.2240  179.6550  144.1090 O   0  0  0  0  0  1  0  0  0  0  0  0
  189.9090  177.7790  141.4580 C   0  0  0  0  0  2  0  0  0  0  0  0
  190.1550  176.6140  140.5080 C   0  0  0  0  0  2  0  0  0  0  0  0
  190.4800  177.1040  139.1020 C   0  0  1  0  0  3  0  0  0  0  0  0
  191.1580  174.9270  137.3400 S   0  0  0  0  0  0  0  0  0  0  0  0
  192.8990  174.9510  136.7930 C   0  0  0  0  0  2  0  0  0  0  0  0
  193.7390  175.5680  137.9030 C   0  0  0  0  0  2  0  0  0  0  0  0
  192.8290  176.4580  138.6630 C   0  0  0  0  0  0  0  0  0  0  0  0
  191.5390  176.2550  138.4680 C   0  0  0  0  0  0  0  0  0  0  0  0
  193.3120  177.4380  139.5230 O   0  0  0  0  0  1  0  0  0  0  0  0
  189.3260  177.0900  138.3170 O   0  0  0  0  0  0  0  0  0  0  0  0
  189.3460  178.3000  137.6190 C   0  0  2  0  0  3  0  0  0  0  0  0
  188.9910  179.3390  138.4780 O   0  0  0  0  0  1  0  0  0  0  0  0
  188.3610  178.2380  136.4690 C   0  0  0  0  0  1  0  0  0  0  0  0
  189.5310  176.9070  145.4460 C   0  0  0  0  0  2  0  0  0  0  0  0
  188.4220  177.9220  145.2310 C   0  0  0  0  0  2  0  0  0  0  0  0
  187.4710  177.9010  146.3830 C   0  0  0  0  0  0  0  0  0  0  0  0
  187.8850  177.6510  147.5050 O   0  0  0  0  0  0  0  0  0  0  0  0
  186.0000  178.1490  146.1510 C   0  0  0  0  0  0  0  0  0  0  0  0
  185.4140  178.4240  147.3730 F   0  0  0  0  0  0  0  0  0  0  0  0
  185.3840  177.0120  145.6380 F   0  0  0  0  0  0  0  0  0  0  0  0
  185.7980  179.2640  145.3060 O   0  0  0  0  0  0  0  0  0  0  0  0
  183.6480  179.6760  144.3770 C   0  0  0  0  0  2  0  0  0  0  0  0
  183.7440  178.1590  141.5660 C   0  0  0  0  0  0  0  0  0  0  0  0
  185.5610  179.2920  142.9390 C   0  0  0  0  0  2  0  0  0  0  0  0
  182.5250  179.0180  143.6420 C   0  0  0  0  0  3  0  0  0  0  0  0
  182.5820  178.4090  142.4520 C   0  0  0  0  0  3  0  0  0  0  0  0
  185.0190  178.4950  141.7970 C   0  0  0  0  0  3  0  0  0  0  0  0
  184.9370  178.8960  144.2570 C   0  0  1  0  0  3  0  0  0  0  0  0
  183.4930  177.4600  140.4340 F   0  0  0  0  0  0  0  0  0  0  0  0
  1  2  1  0  0  0  0
  2  3  2  0  0  0  0
  2  4  1  0  0  0  0
  4 21  1  6  0  0  0
  5  8  1  6  0  0  0
  5  1  1  0  0  0  0
  5  6  1  0  0  0  0
  6  7  1  1  0  0  0
  6  4  1  0  0  0  0
  9  8  1  0  0  0  0
 10  9  1  1  0  0  0
 11 15  1  0  0  0  0
 12 11  1  0  0  0  0
 12 13  1  0  0  0  0
 13 14  1  0  0  0  0
 14 16  1  0  0  0  0
 15 14  2  0  0  0  0
 15 10  1  0  0  0  0
 17 10  1  0  0  0  0
 18 20  1  6  0  0  0
 18 17  1  0  0  0  0
 18 19  1  0  0  0  0
 22 21  1  0  0  0  0
 22 23  1  0  0  0  0
 23 24  2  0  0  0  0
 25 23  1  0  0  0  0
 25 26  1  0  0  0  0
 27 25  1  0  0  0  0
 28 25  1  0  0  0  0
 30 34  2  0  0  0  0
 30 33  1  0  0  0  0
 31 35  1  0  0  0  0
 32 29  1  0  0  0  0
 33 32  2  0  0  0  0
 34 31  1  0  0  0  0
 35 29  1  0  0  0  0
 35 28  1  1  0  0  0
 36 30  1  0  0  0  0
M  END
>  <MODEL>
2

>  <REMARK>
 VINA RESULT:      -7.7      2.456      4.203
  Name = 
  12 active torsions:
  status: ('A' for Active; 'I' for Inactive)
    1  A    between atoms: C_2  and  C_10
    2  A    between atoms: C_2  and  C_16
    3  A    between atoms: O_4  and  C_6
    4  A    between atoms: O_4  and  C_30
    5  A    between atoms: C_5  and  C_6
    6  A    between atoms: C_5  and  C_35
    7  A    between atoms: C_10  and  C_32
    8  A    between atoms: C_16  and  C_25
    9  A    between atoms: C_16  and  O_27
   10  A    between atoms: C_17  and  O_27
   11  A    between atoms: C_20  and  C_26
   12  A    between atoms: C_20  and  C_35
                            x       y       z     vdW  Elec       q    Type
                         _______ _______ _______ _____ _____    ______ ____

>  <TORSDO>
F 12

$$$$
=
 OpenBabel11062417143D

 36 38  0  0  1  0  0  0  0  0999 V2000
  191.5670  176.0480  143.6850 N   0  0  0  0  0  2  0  0  0  0  0  0
  191.4990  176.2850  145.0740 C   0  0  0  0  0  0  0  0  0  0  0  0
  192.1660  175.5750  145.9200 N   0  0  0  0  0  2  0  0  0  0  0  0
  190.8840  177.5820  145.4210 C   0  0  1  0  0  3  0  0  0  0  0  0
  190.9360  177.1490  142.9850 C   0  0  2  0  0  3  0  0  0  0  0  0
  190.5080  178.1640  144.0560 C   0  0  2  0  0  3  0  0  0  0  0  0
  191.1890  179.3640  143.8580 O   0  0  0  0  0  1  0  0  0  0  0  0
  189.7230  176.6370  142.2190 C   0  0  0  0  0  2  0  0  0  0  0  0
  189.3820  177.5510  141.0480 C   0  0  0  0  0  2  0  0  0  0  0  0
  189.8340  176.9470  139.7240 C   0  0  1  0  0  3  0  0  0  0  0  0
  187.4120  178.1650  138.7490 S   0  0  0  0  0  0  0  0  0  0  0  0
  187.0070  177.7000  137.0310 C   0  0  0  0  0  2  0  0  0  0  0  0
  187.5250  176.2900  136.7840 C   0  0  0  0  0  2  0  0  0  0  0  0
  188.6560  176.0950  137.7210 C   0  0  0  0  0  0  0  0  0  0  0  0
  188.7210  176.9540  138.7210 C   0  0  0  0  0  0  0  0  0  0  0  0
  189.5820  175.0720  137.5500 O   0  0  0  0  0  1  0  0  0  0  0  0
  190.9270  177.6610  139.2270 O   0  0  0  0  0  0  0  0  0  0  0  0
  192.0180  176.8000  139.3680 C   0  0  2  0  0  3  0  0  0  0  0  0
  192.9820  177.3970  140.1800 O   0  0  0  0  0  1  0  0  0  0  0  0
  192.6150  176.5120  138.0060 C   0  0  0  0  0  1  0  0  0  0  0  0
  189.6330  177.3550  146.2540 C   0  0  0  0  0  2  0  0  0  0  0  0
  188.4090  177.8690  145.5170 C   0  0  0  0  0  2  0  0  0  0  0  0
  187.2840  178.0900  146.4750 C   0  0  0  0  0  0  0  0  0  0  0  0
  187.5210  178.2380  147.6640 O   0  0  0  0  0  0  0  0  0  0  0  0
  185.8590  178.0890  145.9760 C   0  0  0  0  0  0  0  0  0  0  0  0
  185.0200  178.0930  147.0750 F   0  0  0  0  0  0  0  0  0  0  0  0
  185.5920  176.9320  145.2510 F   0  0  0  0  0  0  0  0  0  0  0  0
  185.5860  179.2450  145.2100 O   0  0  0  0  0  0  0  0  0  0  0  0
  183.4640  179.6770  144.2260 C   0  0  0  0  0  2  0  0  0  0  0  0
  183.6400  178.2060  141.3940 C   0  0  0  0  0  0  0  0  0  0  0  0
  185.4180  179.3130  142.8390 C   0  0  0  0  0  2  0  0  0  0  0  0
  182.3620  179.0350  143.4480 C   0  0  0  0  0  3  0  0  0  0  0  0
  182.4530  178.4450  142.2500 C   0  0  0  0  0  3  0  0  0  0  0  0
  184.9080  178.5360  141.6680 C   0  0  0  0  0  3  0  0  0  0  0  0
  184.7550  178.8960  144.1310 C   0  0  1  0  0  3  0  0  0  0  0  0
  183.4200  177.5260  140.2440 F   0  0  0  0  0  0  0  0  0  0  0  0
  1  2  1  0  0  0  0
  2  4  1  0  0  0  0
  2  3  2  0  0  0  0
  4 21  1  1  0  0  0
  5  8  1  1  0  0  0
  5  1  1  0  0  0  0
  5  6  1  0  0  0  0
  6  7  1  6  0  0  0
  6  4  1  0  0  0  0
  9  8  1  0  0  0  0
 10  9  1  1  0  0  0
 12 11  1  0  0  0  0
 13 12  1  0  0  0  0
 13 14  1  0  0  0  0
 14 15  2  0  0  0  0
 15 11  1  0  0  0  0
 15 10  1  0  0  0  0
 16 14  1  0  0  0  0
 17 18  1  0  0  0  0
 17 10  1  0  0  0  0
 18 20  1  6  0  0  0
 18 19  1  0  0  0  0
 22 21  1  0  0  0  0
 22 23  1  0  0  0  0
 23 24  2  0  0  0  0
 25 23  1  0  0  0  0
 25 26  1  0  0  0  0
 27 25  1  0  0  0  0
 28 25  1  0  0  0  0
 30 34  2  0  0  0  0
 30 33  1  0  0  0  0
 31 35  1  0  0  0  0
 32 29  1  0  0  0  0
 33 32  2  0  0  0  0
 34 31  1  0  0  0  0
 35 29  1  0  0  0  0
 35 28  1  1  0  0  0
 36 30  1  0  0  0  0
M  END
>  <MODEL>
3

>  <REMARK>
 VINA RESULT:      -7.7      2.474      4.362
  Name = 
  12 active torsions:
  status: ('A' for Active; 'I' for Inactive)
    1  A    between atoms: C_2  and  C_10
    2  A    between atoms: C_2  and  C_16
    3  A    between atoms: O_4  and  C_6
    4  A    between atoms: O_4  and  C_30
    5  A    between atoms: C_5  and  C_6
    6  A    between atoms: C_5  and  C_35
    7  A    between atoms: C_10  and  C_32
    8  A    between atoms: C_16  and  C_25
    9  A    between atoms: C_16  and  O_27
   10  A    between atoms: C_17  and  O_27
   11  A    between atoms: C_20  and  C_26
   12  A    between atoms: C_20  and  C_35
                            x       y       z     vdW  Elec       q    Type
                         _______ _______ _______ _____ _____    ______ ____

>  <TORSDO>
F 12

$$$$
=
 OpenBabel11062417143D

 36 38  0  0  1  0  0  0  0  0999 V2000
  188.6710  176.2820  137.3940 N   0  0  0  0  0  2  0  0  0  0  0  0
  189.7220  176.1720  138.3280 C   0  0  0  0  0  0  0  0  0  0  0  0
  190.6750  175.3130  138.1840 N   0  0  0  0  0  2  0  0  0  0  0  0
  189.8040  177.3130  139.2620 C   0  0  1  0  0  3  0  0  0  0  0  0
  187.9130  177.4860  137.6730 C   0  0  2  0  0  3  0  0  0  0  0  0
  188.6190  178.1880  138.8440 C   0  0  2  0  0  3  0  0  0  0  0  0
  189.0850  179.4340  138.4250 O   0  0  0  0  0  1  0  0  0  0  0  0
  186.4870  177.1130  138.0560 C   0  0  0  0  0  2  0  0  0  0  0  0
  185.4770  178.0530  137.4090 C   0  0  0  0  0  2  0  0  0  0  0  0
  184.4550  178.5520  138.4230 C   0  0  1  0  0  3  0  0  0  0  0  0
  182.5940  176.5390  137.5360 S   0  0  0  0  0  0  0  0  0  0  0  0
  180.8470  177.0190  137.7580 C   0  0  0  0  0  2  0  0  0  0  0  0
  180.7460  178.5310  137.6160 C   0  0  0  0  0  2  0  0  0  0  0  0
  182.0740  179.0710  137.9930 C   0  0  0  0  0  0  0  0  0  0  0  0
  183.0620  178.1960  138.0030 C   0  0  0  0  0  0  0  0  0  0  0  0
  182.2560  180.4120  138.3110 O   0  0  0  0  0  1  0  0  0  0  0  0
  184.7280  178.0050  139.6790 O   0  0  0  0  0  0  0  0  0  0  0  0
  184.4890  179.0400  140.5860 C   0  0  2  0  0  3  0  0  0  0  0  0
  185.7020  179.5190  141.0780 O   0  0  0  0  0  1  0  0  0  0  0  0
  183.6490  178.5210  141.7350 C   0  0  0  0  0  1  0  0  0  0  0  0
  189.6150  176.8280  140.6900 C   0  0  0  0  0  2  0  0  0  0  0  0
  189.8120  177.9740  141.6660 C   0  0  0  0  0  2  0  0  0  0  0  0
  190.9250  177.6610  142.6130 C   0  0  0  0  0  0  0  0  0  0  0  0
  192.0170  177.3310  142.1760 O   0  0  0  0  0  0  0  0  0  0  0  0
  190.6850  177.7150  144.1020 C   0  0  0  0  0  0  0  0  0  0  0  0
  190.1690  178.9610  144.4090 F   0  0  0  0  0  0  0  0  0  0  0  0
  191.8810  177.5760  144.8000 F   0  0  0  0  0  0  0  0  0  0  0  0
  189.7450  176.7390  144.5030 O   0  0  0  0  0  0  0  0  0  0  0  0
  187.3850  176.8640  144.2290 C   0  0  0  0  0  2  0  0  0  0  0  0
  186.4350  178.6280  146.7180 C   0  0  0  0  0  0  0  0  0  0  0  0
  188.3820  177.0160  146.4330 C   0  0  0  0  0  2  0  0  0  0  0  0
  186.2280  177.8060  144.3060 C   0  0  0  0  0  3  0  0  0  0  0  0
  185.8330  178.5180  145.3680 C   0  0  0  0  0  3  0  0  0  0  0  0
  187.5470  178.0230  147.1540 C   0  0  0  0  0  3  0  0  0  0  0  0
  188.5890  177.3820  144.9810 C   0  0  1  0  0  3  0  0  0  0  0  0
  185.8280  179.4820  147.5760 F   0  0  0  0  0  0  0  0  0  0  0  0
  1  5  1  0  0  0  0
  1  2  1  0  0  0  0
  2  4  1  0  0  0  0
  3  2  2  0  0  0  0
  4 21  1  1  0  0  0
  5  8  1  1  0  0  0
  5  6  1  0  0  0  0
  6  7  1  6  0  0  0
  6  4  1  0  0  0  0
  9  8  1  0  0  0  0
 10  9  1  6  0  0  0
 10 17  1  0  0  0  0
 11 12  1  0  0  0  0
 11 15  1  0  0  0  0
 13 12  1  0  0  0  0
 13 14  1  0  0  0  0
 14 15  2  0  0  0  0
 14 16  1  0  0  0  0
 15 10  1  0  0  0  0
 17 18  1  0  0  0  0
 18 19  1  0  0  0  0
 18 20  1  1  0  0  0
 21 22  1  0  0  0  0
 22 23  1  0  0  0  0
 23 25  1  0  0  0  0
 24 23  2  0  0  0  0
 25 26  1  0  0  0  0
 25 28  1  0  0  0  0
 25 27  1  0  0  0  0
 29 32  1  0  0  0  0
 29 35  1  0  0  0  0
 30 34  2  0  0  0  0
 30 36  1  0  0  0  0
 31 34  1  0  0  0  0
 32 33  2  0  0  0  0
 33 30  1  0  0  0  0
 35 28  1  6  0  0  0
 35 31  1  0  0  0  0
M  END
>  <MODEL>
4

>  <REMARK>
 VINA RESULT:      -7.4      2.060      3.562
  Name = 
  12 active torsions:
  status: ('A' for Active; 'I' for Inactive)
    1  A    between atoms: C_2  and  C_10
    2  A    between atoms: C_2  and  C_16
    3  A    between atoms: O_4  and  C_6
    4  A    between atoms: O_4  and  C_30
    5  A    between atoms: C_5  and  C_6
    6  A    between atoms: C_5  and  C_35
    7  A    between atoms: C_10  and  C_32
    8  A    between atoms: C_16  and  C_25
    9  A    between atoms: C_16  and  O_27
   10  A    between atoms: C_17  and  O_27
   11  A    between atoms: C_20  and  C_26
   12  A    between atoms: C_20  and  C_35
                            x       y       z     vdW  Elec       q    Type
                         _______ _______ _______ _____ _____    ______ ____

>  <TORSDO>
F 12

$$$$
=
 OpenBabel11062417143D

 36 38  0  0  1  0  0  0  0  0999 V2000
  190.3750  176.9070  136.8440 N   0  0  0  0  0  2  0  0  0  0  0  0
  190.5920  177.0280  138.2330 C   0  0  0  0  0  0  0  0  0  0  0  0
  191.6460  176.5470  138.8020 N   0  0  0  0  0  2  0  0  0  0  0  0
  189.7020  178.0090  138.8850 C   0  0  1  0  0  3  0  0  0  0  0  0
  189.2650  177.7580  136.4620 C   0  0  2  0  0  3  0  0  0  0  0  0
  188.8220  178.4990  137.7330 C   0  0  2  0  0  3  0  0  0  0  0  0
  189.0040  179.8700  137.5590 O   0  0  0  0  0  1  0  0  0  0  0  0
  188.1290  176.9000  135.9200 C   0  0  0  0  0  2  0  0  0  0  0  0
  186.7720  177.5310  136.2100 C   0  0  0  0  0  2  0  0  0  0  0  0
  185.9010  176.6080  137.0540 C   0  0  1  0  0  3  0  0  0  0  0  0
  183.0620  176.9010  136.6580 S   0  0  0  0  0  0  0  0  0  0  0  0
  182.2140  177.7090  138.0570 C   0  0  0  0  0  2  0  0  0  0  0  0
  183.1860  178.6860  138.7040 C   0  0  0  0  0  2  0  0  0  0  0  0
  184.5450  178.1710  138.4120 C   0  0  0  0  0  0  0  0  0  0  0  0
  184.6200  177.2820  137.4380 C   0  0  0  0  0  0  0  0  0  0  0  0
  185.6600  178.6020  139.1210 O   0  0  0  0  0  1  0  0  0  0  0  0
  185.6280  175.4360  136.3460 O   0  0  0  0  0  0  0  0  0  0  0  0
  186.0420  174.3990  137.1860 C   0  0  2  0  0  3  0  0  0  0  0  0
  186.8990  173.5480  136.4900 O   0  0  0  0  0  1  0  0  0  0  0  0
  184.8330  173.6190  137.6600 C   0  0  0  0  0  1  0  0  0  0  0  0
  188.8490  177.3140  139.9340 C   0  0  0  0  0  2  0  0  0  0  0  0
  189.0490  177.9660  141.2910 C   0  0  0  0  0  2  0  0  0  0  0  0
  189.9430  177.1250  142.1430 C   0  0  0  0  0  0  0  0  0  0  0  0
  190.2220  175.9890  141.7900 O   0  0  0  0  0  0  0  0  0  0  0  0
  190.4650  177.6660  143.4520 C   0  0  0  0  0  0  0  0  0  0  0  0
  190.0020  178.9610  143.5950 F   0  0  0  0  0  0  0  0  0  0  0  0
  191.8550  177.7180  143.4450 F   0  0  0  0  0  0  0  0  0  0  0  0
  189.9880  176.9060  144.5440 O   0  0  0  0  0  0  0  0  0  0  0  0
  187.6260  176.7900  144.2910 C   0  0  0  0  0  2  0  0  0  0  0  0
  186.5270  178.5940  146.6890 C   0  0  0  0  0  0  0  0  0  0  0  0
  188.6170  177.1610  146.4710 C   0  0  0  0  0  2  0  0  0  0  0  0
  186.3840  177.6210  144.3290 C   0  0  0  0  0  3  0  0  0  0  0  0
  185.9290  178.3500  145.3540 C   0  0  0  0  0  3  0  0  0  0  0  0
  187.6940  178.1240  147.1450 C   0  0  0  0  0  3  0  0  0  0  0  0
  188.7800  177.4620  144.9990 C   0  0  1  0  0  3  0  0  0  0  0  0
  185.8460  179.4330  147.5040 F   0  0  0  0  0  0  0  0  0  0  0  0
  1  2  1  0  0  0  0
  2  3  2  0  0  0  0
  2  4  1  0  0  0  0
  4 21  1  1  0  0  0
  5  8  1  1  0  0  0
  5  1  1  0  0  0  0
  5  6  1  0  0  0  0
  6  7  1  6  0  0  0
  6  4  1  0  0  0  0
  8  9  1  0  0  0  0
 10  9  1  6  0  0  0
 10 15  1  0  0  0  0
 11 15  1  0  0  0  0
 11 12  1  0  0  0  0
 12 13  1  0  0  0  0
 14 13  1  0  0  0  0
 14 16  1  0  0  0  0
 15 14  2  0  0  0  0
 17 10  1  0  0  0  0
 17 18  1  0  0  0  0
 18 20  1  6  0  0  0
 19 18  1  0  0  0  0
 21 22  1  0  0  0  0
 22 23  1  0  0  0  0
 23 25  1  0  0  0  0
 24 23  2  0  0  0  0
 25 26  1  0  0  0  0
 25 28  1  0  0  0  0
 27 25  1  0  0  0  0
 29 32  1  0  0  0  0
 29 35  1  0  0  0  0
 30 34  2  0  0  0  0
 30 36  1  0  0  0  0
 31 34  1  0  0  0  0
 32 33  2  0  0  0  0
 33 30  1  0  0  0  0
 35 28  1  6  0  0  0
 35 31  1  0  0  0  0
M  END
>  <MODEL>
5

>  <REMARK>
 VINA RESULT:      -7.3      2.306      3.829
  Name = 
  12 active torsions:
  status: ('A' for Active; 'I' for Inactive)
    1  A    between atoms: C_2  and  C_10
    2  A    between atoms: C_2  and  C_16
    3  A    between atoms: O_4  and  C_6
    4  A    between atoms: O_4  and  C_30
    5  A    between atoms: C_5  and  C_6
    6  A    between atoms: C_5  and  C_35
    7  A    between atoms: C_10  and  C_32
    8  A    between atoms: C_16  and  C_25
    9  A    between atoms: C_16  and  O_27
   10  A    between atoms: C_17  and  O_27
   11  A    between atoms: C_20  and  C_26
   12  A    between atoms: C_20  and  C_35
                            x       y       z     vdW  Elec       q    Type
                         _______ _______ _______ _____ _____    ______ ____

>  <TORSDO>
F 12

$$$$
=
 OpenBabel11062417143D

 36 38  0  0  1  0  0  0  0  0999 V2000
  190.1040  176.0040  140.5990 N   0  0  0  0  0  2  0  0  0  0  0  0
  190.4500  176.1570  141.9580 C   0  0  0  0  0  0  0  0  0  0  0  0
  190.1390  175.2710  142.8440 N   0  0  0  0  0  2  0  0  0  0  0  0
  191.4540  177.2140  142.1950 C   0  0  1  0  0  3  0  0  0  0  0  0
  190.8050  177.0030  139.8160 C   0  0  2  0  0  3  0  0  0  0  0  0
  191.6980  177.7810  140.7940 C   0  0  2  0  0  3  0  0  0  0  0  0
  193.0360  177.6010  140.4460 O   0  0  0  0  0  1  0  0  0  0  0  0
  189.7950  177.9340  139.1580 C   0  0  0  0  0  2  0  0  0  0  0  0
  189.8820  177.8600  137.6380 C   0  0  0  0  0  2  0  0  0  0  0  0
  190.4590  176.5260  137.1800 C   0  0  1  0  0  3  0  0  0  0  0  0
  188.2540  176.3640  135.3330 S   0  0  0  0  0  0  0  0  0  0  0  0
  187.8990  174.6640  134.7750 C   0  0  0  0  0  2  0  0  0  0  0  0
  188.2630  173.7060  135.9010 C   0  0  0  0  0  2  0  0  0  0  0  0
  189.3090  174.3880  136.7000 C   0  0  0  0  0  0  0  0  0  0  0  0
  189.4150  175.6900  136.5070 C   0  0  0  0  0  0  0  0  0  0  0  0
  190.1180  173.6940  137.5930 O   0  0  0  0  0  1  0  0  0  0  0  0
  191.5270  176.7470  136.3080 O   0  0  0  0  0  0  0  0  0  0  0  0
  192.5650  175.9480  136.7930 C   0  0  2  0  0  3  0  0  0  0  0  0
  193.5330  176.7530  137.3920 O   0  0  0  0  0  1  0  0  0  0  0  0
  193.1890  175.1770  135.6480 C   0  0  0  0  0  1  0  0  0  0  0  0
  190.8690  178.2870  143.0980 C   0  0  0  0  0  2  0  0  0  0  0  0
  191.6800  178.3990  144.3770 C   0  0  0  0  0  2  0  0  0  0  0  0
  191.1560  177.4530  145.4070 C   0  0  0  0  0  0  0  0  0  0  0  0
  191.8200  176.4800  145.7310 O   0  0  0  0  0  0  0  0  0  0  0  0
  189.7910  177.6800  146.0130 C   0  0  0  0  0  0  0  0  0  0  0  0
  189.3730  178.9510  145.6650 F   0  0  0  0  0  0  0  0  0  0  0  0
  189.8540  177.6270  147.4020 F   0  0  0  0  0  0  0  0  0  0  0  0
  188.8500  176.7530  145.5110 O   0  0  0  0  0  0  0  0  0  0  0  0
  187.2840  176.9110  143.7270 C   0  0  0  0  0  2  0  0  0  0  0  0
  185.0200  178.8460  144.8870 C   0  0  0  0  0  0  0  0  0  0  0  0
  186.5670  177.1780  146.0270 C   0  0  0  0  0  2  0  0  0  0  0  0
  186.4260  177.8810  142.9810 C   0  0  0  0  0  3  0  0  0  0  0  0
  185.4650  178.6650  143.4840 C   0  0  0  0  0  3  0  0  0  0  0  0
  185.5220  178.2450  145.9730 C   0  0  0  0  0  3  0  0  0  0  0  0
  187.7080  177.4490  145.0740 C   0  0  1  0  0  3  0  0  0  0  0  0
  184.0460  179.7630  145.0920 F   0  0  0  0  0  0  0  0  0  0  0  0
  1  2  1  0  0  0  0
  2  4  1  0  0  0  0
  2  3  2  0  0  0  0
  4 21  1  1  0  0  0
  5  8  1  1  0  0  0
  5  1  1  0  0  0  0
  5  6  1  0  0  0  0
  6  7  1  6  0  0  0
  6  4  1  0  0  0  0
  9  8  1  0  0  0  0
 10  9  1  6  0  0  0
 11 15  1  0  0  0  0
 12 11  1  0  0  0  0
 12 13  1  0  0  0  0
 13 14  1  0  0  0  0
 14 16  1  0  0  0  0
 15 14  2  0  0  0  0
 15 10  1  0  0  0  0
 17 18  1  0  0  0  0
 17 10  1  0  0  0  0
 18 20  1  6  0  0  0
 18 19  1  0  0  0  0
 21 22  1  0  0  0  0
 22 23  1  0  0  0  0
 23 24  2  0  0  0  0
 23 25  1  0  0  0  0
 25 27  1  0  0  0  0
 26 25  1  0  0  0  0
 28 25  1  0  0  0  0
 29 35  1  0  0  0  0
 30 36  1  0  0  0  0
 30 34  2  0  0  0  0
 32 33  2  0  0  0  0
 32 29  1  0  0  0  0
 33 30  1  0  0  0  0
 34 31  1  0  0  0  0
 35 28  1  1  0  0  0
 35 31  1  0  0  0  0
M  END
>  <MODEL>
6

>  <REMARK>
 VINA RESULT:      -7.2      2.377      3.469
  Name = 
  12 active torsions:
  status: ('A' for Active; 'I' for Inactive)
    1  A    between atoms: C_2  and  C_10
    2  A    between atoms: C_2  and  C_16
    3  A    between atoms: O_4  and  C_6
    4  A    between atoms: O_4  and  C_30
    5  A    between atoms: C_5  and  C_6
    6  A    between atoms: C_5  and  C_35
    7  A    between atoms: C_10  and  C_32
    8  A    between atoms: C_16  and  C_25
    9  A    between atoms: C_16  and  O_27
   10  A    between atoms: C_17  and  O_27
   11  A    between atoms: C_20  and  C_26
   12  A    between atoms: C_20  and  C_35
                            x       y       z     vdW  Elec       q    Type
                         _______ _______ _______ _____ _____    ______ ____

>  <TORSDO>
F 12

$$$$
=
 OpenBabel11062417143D

 36 38  0  0  1  0  0  0  0  0999 V2000
  190.1850  176.0130  140.6480 N   0  0  0  0  0  2  0  0  0  0  0  0
  190.5350  176.1760  142.0050 C   0  0  0  0  0  0  0  0  0  0  0  0
  190.2330  175.2920  142.8970 N   0  0  0  0  0  2  0  0  0  0  0  0
  191.5310  177.2420  142.2340 C   0  0  1  0  0  3  0  0  0  0  0  0
  190.8760  177.0130  139.8580 C   0  0  2  0  0  3  0  0  0  0  0  0
  191.7660  177.8040  140.8300 C   0  0  2  0  0  3  0  0  0  0  0  0
  193.1040  177.6320  140.4790 O   0  0  0  0  0  1  0  0  0  0  0  0
  189.8570  177.9340  139.1990 C   0  0  0  0  0  2  0  0  0  0  0  0
  188.5020  177.2500  139.0610 C   0  0  0  0  0  2  0  0  0  0  0  0
  188.3570  176.5750  137.7030 C   0  0  1  0  0  3  0  0  0  0  0  0
  186.0490  175.0960  136.8160 S   0  0  0  0  0  0  0  0  0  0  0  0
  184.4890  176.0300  136.9620 C   0  0  0  0  0  2  0  0  0  0  0  0
  184.7980  177.5080  136.7690 C   0  0  0  0  0  2  0  0  0  0  0  0
  186.2120  177.6910  137.1740 C   0  0  0  0  0  0  0  0  0  0  0  0
  186.9300  176.5850  137.2460 C   0  0  0  0  0  0  0  0  0  0  0  0
  186.7370  178.9460  137.4560 O   0  0  0  0  0  1  0  0  0  0  0  0
  189.1620  177.2240  136.7630 O   0  0  0  0  0  0  0  0  0  0  0  0
  189.5450  176.2270  135.8630 C   0  0  2  0  0  3  0  0  0  0  0  0
  190.4500  175.3640  136.4800 O   0  0  0  0  0  1  0  0  0  0  0  0
  190.2000  176.8620  134.6540 C   0  0  0  0  0  1  0  0  0  0  0  0
  190.9410  178.3150  143.1340 C   0  0  0  0  0  2  0  0  0  0  0  0
  191.7060  178.3840  144.4440 C   0  0  0  0  0  2  0  0  0  0  0  0
  191.1170  177.4380  145.4380 C   0  0  0  0  0  0  0  0  0  0  0  0
  191.7350  176.4340  145.7600 O   0  0  0  0  0  0  0  0  0  0  0  0
  189.7450  177.7040  146.0100 C   0  0  0  0  0  0  0  0  0  0  0  0
  189.3460  178.9630  145.6000 F   0  0  0  0  0  0  0  0  0  0  0  0
  189.7830  177.7110  147.4010 F   0  0  0  0  0  0  0  0  0  0  0  0
  188.8020  176.7670  145.5310 O   0  0  0  0  0  0  0  0  0  0  0  0
  187.3070  176.9060  143.6860 C   0  0  0  0  0  2  0  0  0  0  0  0
  184.9910  178.8380  144.7440 C   0  0  0  0  0  0  0  0  0  0  0  0
  186.4990  177.1830  145.9540 C   0  0  0  0  0  2  0  0  0  0  0  0
  186.4740  177.8680  142.9010 C   0  0  0  0  0  3  0  0  0  0  0  0
  185.4910  178.6500  143.3610 C   0  0  0  0  0  3  0  0  0  0  0  0
  185.4530  178.2460  145.8530 C   0  0  0  0  0  3  0  0  0  0  0  0
  187.6750  177.4540  145.0460 C   0  0  1  0  0  3  0  0  0  0  0  0
  184.0060  179.7520  144.9050 F   0  0  0  0  0  0  0  0  0  0  0  0
  1  2  1  0  0  0  0
  2  4  1  0  0  0  0
  2  3  2  0  0  0  0
  4 21  1  1  0  0  0
  5  8  1  1  0  0  0
  5  1  1  0  0  0  0
  5  6  1  0  0  0  0
  6  7  1  6  0  0  0
  6  4  1  0  0  0  0
  9  8  1  0  0  0  0
 10  9  1  1  0  0  0
 11 12  1  0  0  0  0
 11 15  1  0  0  0  0
 13 12  1  0  0  0  0
 13 14  1  0  0  0  0
 14 15  2  0  0  0  0
 14 16  1  0  0  0  0
 15 10  1  0  0  0  0
 17 10  1  0  0  0  0
 18 20  1  6  0  0  0
 18 19  1  0  0  0  0
 18 17  1  0  0  0  0
 21 22  1  0  0  0  0
 22 23  1  0  0  0  0
 23 24  2  0  0  0  0
 23 25  1  0  0  0  0
 25 27  1  0  0  0  0
 26 25  1  0  0  0  0
 28 25  1  0  0  0  0
 29 35  1  0  0  0  0
 30 36  1  0  0  0  0
 30 34  2  0  0  0  0
 32 33  2  0  0  0  0
 32 29  1  0  0  0  0
 33 30  1  0  0  0  0
 34 31  1  0  0  0  0
 35 28  1  1  0  0  0
 35 31  1  0  0  0  0
M  END
>  <MODEL>
7

>  <REMARK>
 VINA RESULT:      -7.1      1.432      2.433
  Name = 
  12 active torsions:
  status: ('A' for Active; 'I' for Inactive)
    1  A    between atoms: C_2  and  C_10
    2  A    between atoms: C_2  and  C_16
    3  A    between atoms: O_4  and  C_6
    4  A    between atoms: O_4  and  C_30
    5  A    between atoms: C_5  and  C_6
    6  A    between atoms: C_5  and  C_35
    7  A    between atoms: C_10  and  C_32
    8  A    between atoms: C_16  and  C_25
    9  A    between atoms: C_16  and  O_27
   10  A    between atoms: C_17  and  O_27
   11  A    between atoms: C_20  and  C_26
   12  A    between atoms: C_20  and  C_35
                            x       y       z     vdW  Elec       q    Type
                         _______ _______ _______ _____ _____    ______ ____

>  <TORSDO>
F 12

$$$$
=
 OpenBabel11062417143D

 36 38  0  0  1  0  0  0  0  0999 V2000
  191.8000  177.7310  142.8930 N   0  0  0  0  0  2  0  0  0  0  0  0
  191.5520  177.5420  141.5170 C   0  0  0  0  0  0  0  0  0  0  0  0
  192.4130  177.8810  140.6170 N   0  0  0  0  0  2  0  0  0  0  0  0
  190.4090  176.6490  141.2410 C   0  0  1  0  0  3  0  0  0  0  0  0
  190.7900  177.0250  143.6580 C   0  0  2  0  0  3  0  0  0  0  0  0
  189.8960  176.2990  142.6400 C   0  0  2  0  0  3  0  0  0  0  0  0
  189.9890  174.9220  142.8390 O   0  0  0  0  0  1  0  0  0  0  0  0
  189.9740  178.0240  144.4680 C   0  0  0  0  0  2  0  0  0  0  0  0
  188.4820  177.8700  144.1960 C   0  0  0  0  0  2  0  0  0  0  0  0
  187.6560  178.2060  145.4320 C   0  0  1  0  0  3  0  0  0  0  0  0
  185.5830  178.2020  143.4300 S   0  0  0  0  0  0  0  0  0  0  0  0
  183.9010  178.3140  144.1280 C   0  0  0  0  0  2  0  0  0  0  0  0
  183.9720  179.1220  145.4170 C   0  0  0  0  0  2  0  0  0  0  0  0
  185.3510  178.9530  145.9340 C   0  0  0  0  0  0  0  0  0  0  0  0
  186.2340  178.4990  145.0640 C   0  0  0  0  0  0  0  0  0  0  0  0
  185.6830  179.2570  147.2490 O   0  0  0  0  0  1  0  0  0  0  0  0
  187.7050  177.1440  146.3370 O   0  0  0  0  0  0  0  0  0  0  0  0
  188.7370  177.4670  147.2210 C   0  0  2  0  0  3  0  0  0  0  0  0
  189.5960  176.3770  147.3540 O   0  0  0  0  0  1  0  0  0  0  0  0
  188.1530  177.8150  148.5750 C   0  0  0  0  0  1  0  0  0  0  0  0
  189.3400  177.4010  140.4660 C   0  0  0  0  0  2  0  0  0  0  0  0
  189.5780  177.2630  138.9720 C   0  0  0  0  0  2  0  0  0  0  0  0
  188.7260  178.2350  138.2210 C   0  0  0  0  0  0  0  0  0  0  0  0
  189.0780  179.4010  138.1270 O   0  0  0  0  0  0  0  0  0  0  0  0
  187.4180  177.7820  137.6190 C   0  0  0  0  0  0  0  0  0  0  0  0
  187.0650  176.5840  138.2110 F   0  0  0  0  0  0  0  0  0  0  0  0
  187.5590  177.5480  136.2540 F   0  0  0  0  0  0  0  0  0  0  0  0
  186.3900  178.7180  137.8710 O   0  0  0  0  0  0  0  0  0  0  0  0
  184.5520  179.0230  139.3510 C   0  0  0  0  0  2  0  0  0  0  0  0
  182.8600  176.3340  139.0070 C   0  0  0  0  0  0  0  0  0  0  0  0
  184.3340  177.6240  137.3840 C   0  0  0  0  0  2  0  0  0  0  0  0
  183.7190  178.3190  140.3720 C   0  0  0  0  0  3  0  0  0  0  0  0
  182.9970  177.2050  140.2000 C   0  0  0  0  0  3  0  0  0  0  0  0
  183.4670  176.4900  137.8240 C   0  0  0  0  0  3  0  0  0  0  0  0
  185.3000  178.0550  138.4630 C   0  0  1  0  0  3  0  0  0  0  0  0
  182.0880  175.2330  139.1580 F   0  0  0  0  0  0  0  0  0  0  0  0
  1  5  1  0  0  0  0
  2  1  1  0  0  0  0
  3  2  2  0  0  0  0
  4 21  1  6  0  0  0
  4  2  1  0  0  0  0
  4  6  1  0  0  0  0
  5  8  1  6  0  0  0
  6  7  1  1  0  0  0
  6  5  1  0  0  0  0
  9  8  1  0  0  0  0
 10  9  1  6  0  0  0
 10 17  1  0  0  0  0
 11 12  1  0  0  0  0
 11 15  1  0  0  0  0
 12 13  1  0  0  0  0
 13 14  1  0  0  0  0
 14 16  1  0  0  0  0
 15 10  1  0  0  0  0
 15 14  2  0  0  0  0
 17 18  1  0  0  0  0
 18 19  1  0  0  0  0
 18 20  1  1  0  0  0
 22 21  1  0  0  0  0
 23 22  1  0  0  0  0
 24 23  2  0  0  0  0
 25 28  1  0  0  0  0
 25 26  1  0  0  0  0
 25 23  1  0  0  0  0
 27 25  1  0  0  0  0
 29 32  1  0  0  0  0
 30 36  1  0  0  0  0
 30 33  1  0  0  0  0
 31 34  1  0  0  0  0
 31 35  1  0  0  0  0
 33 32  2  0  0  0  0
 34 30  2  0  0  0  0
 35 28  1  6  0  0  0
 35 29  1  0  0  0  0
M  END
>  <MODEL>
8

>  <REMARK>
 VINA RESULT:      -7.1      3.249      7.303
  Name = 
  12 active torsions:
  status: ('A' for Active; 'I' for Inactive)
    1  A    between atoms: C_2  and  C_10
    2  A    between atoms: C_2  and  C_16
    3  A    between atoms: O_4  and  C_6
    4  A    between atoms: O_4  and  C_30
    5  A    between atoms: C_5  and  C_6
    6  A    between atoms: C_5  and  C_35
    7  A    between atoms: C_10  and  C_32
    8  A    between atoms: C_16  and  C_25
    9  A    between atoms: C_16  and  O_27
   10  A    between atoms: C_17  and  O_27
   11  A    between atoms: C_20  and  C_26
   12  A    between atoms: C_20  and  C_35
                            x       y       z     vdW  Elec       q    Type
                         _______ _______ _______ _____ _____    ______ ____

>  <TORSDO>
F 12

$$$$
=
 OpenBabel11062417143D

 36 38  0  0  1  0  0  0  0  0999 V2000
  187.1440  177.0030  136.5210 N   0  0  0  0  0  2  0  0  0  0  0  0
  188.4810  176.5530  136.5220 C   0  0  0  0  0  0  0  0  0  0  0  0
  188.8960  175.6490  135.6990 N   0  0  0  0  0  2  0  0  0  0  0  0
  189.3950  177.4200  137.2920 C   0  0  1  0  0  3  0  0  0  0  0  0
  187.0410  178.1850  137.3550 C   0  0  2  0  0  3  0  0  0  0  0  0
  188.4630  178.5000  137.8470 C   0  0  2  0  0  3  0  0  0  0  0  0
  188.8560  179.7480  137.3630 O   0  0  0  0  0  1  0  0  0  0  0  0
  186.1200  177.8980  138.5330 C   0  0  0  0  0  2  0  0  0  0  0  0
  184.7960  178.6390  138.3940 C   0  0  0  0  0  2  0  0  0  0  0  0
  183.9890  178.5830  139.6850 C   0  0  1  0  0  3  0  0  0  0  0  0
  182.7170  176.0420  139.2070 S   0  0  0  0  0  0  0  0  0  0  0  0
  180.9480  176.0220  139.6510 C   0  0  0  0  0  2  0  0  0  0  0  0
  180.3850  177.4190  139.4320 C   0  0  0  0  0  2  0  0  0  0  0  0
  181.5280  178.3520  139.5760 C   0  0  0  0  0  0  0  0  0  0  0  0
  182.7250  177.8020  139.4960 C   0  0  0  0  0  0  0  0  0  0  0  0
  181.3410  179.7140  139.7810 O   0  0  0  0  0  1  0  0  0  0  0  0
  184.7580  178.0060  140.6980 O   0  0  0  0  0  0  0  0  0  0  0  0
  184.7840  178.9570  141.7210 C   0  0  2  0  0  3  0  0  0  0  0  0
  185.9210  179.7520  141.5900 O   0  0  0  0  0  1  0  0  0  0  0  0
  184.8130  178.2550  143.0640 C   0  0  0  0  0  1  0  0  0  0  0  0
  190.0180  176.6320  138.4320 C   0  0  0  0  0  2  0  0  0  0  0  0
  189.3220  176.9600  139.7410 C   0  0  0  0  0  2  0  0  0  0  0  0
  190.3260  177.1110  140.8380 C   0  0  0  0  0  0  0  0  0  0  0  0
  191.4660  177.4570  140.5700 O   0  0  0  0  0  0  0  0  0  0  0  0
  189.9380  176.7970  142.2630 C   0  0  0  0  0  0  0  0  0  0  0  0
  190.5480  175.6090  142.6210 F   0  0  0  0  0  0  0  0  0  0  0  0
  188.5630  176.6100  142.3690 F   0  0  0  0  0  0  0  0  0  0  0  0
  190.3850  177.8050  143.1470 O   0  0  0  0  0  0  0  0  0  0  0  0
  191.5370  177.4880  145.2040 C   0  0  0  0  0  2  0  0  0  0  0  0
  189.1960  176.8270  147.2770 C   0  0  0  0  0  0  0  0  0  0  0  0
  189.2420  178.2670  145.1810 C   0  0  0  0  0  2  0  0  0  0  0  0
  191.5930  176.6100  146.4120 C   0  0  0  0  0  3  0  0  0  0  0  0
  190.6050  176.3660  147.2820 C   0  0  0  0  0  3  0  0  0  0  0  0
  188.6060  177.5990  146.3570 C   0  0  0  0  0  3  0  0  0  0  0  0
  190.2210  177.3610  144.4710 C   0  0  1  0  0  3  0  0  0  0  0  0
  188.4120  176.3630  148.2790 F   0  0  0  0  0  0  0  0  0  0  0  0
  1  2  1  0  0  0  0
  1  5  1  0  0  0  0
  2  4  1  0  0  0  0
  3  2  2  0  0  0  0
  4  6  1  0  0  0  0
  4 21  1  1  0  0  0
  5  6  1  0  0  0  0
  5  8  1  1  0  0  0
  6  7  1  6  0  0  0
  9  8  1  0  0  0  0
 10  9  1  6  0  0  0
 10 17  1  0  0  0  0
 11 15  1  0  0  0  0
 11 12  1  0  0  0  0
 13 14  1  0  0  0  0
 13 12  1  0  0  0  0
 14 16  1  0  0  0  0
 15 14  2  0  0  0  0
 15 10  1  0  0  0  0
 17 18  1  0  0  0  0
 18 20  1  1  0  0  0
 19 18  1  0  0  0  0
 21 22  1  0  0  0  0
 22 23  1  0  0  0  0
 23 25  1  0  0  0  0
 24 23  2  0  0  0  0
 25 27  1  0  0  0  0
 25 26  1  0  0  0  0
 25 28  1  0  0  0  0
 29 32  1  0  0  0  0
 30 33  1  0  0  0  0
 30 36  1  0  0  0  0
 31 34  1  0  0  0  0
 32 33  2  0  0  0  0
 34 30  2  0  0  0  0
 35 28  1  6  0  0  0
 35 31  1  0  0  0  0
 35 29  1  0  0  0  0
M  END
>  <MODEL>
9

>  <REMARK>
 VINA RESULT:      -7.0      2.644      5.101
  Name = 
  12 active torsions:
  status: ('A' for Active; 'I' for Inactive)
    1  A    between atoms: C_2  and  C_10
    2  A    between atoms: C_2  and  C_16
    3  A    between atoms: O_4  and  C_6
    4  A    between atoms: O_4  and  C_30
    5  A    between atoms: C_5  and  C_6
    6  A    between atoms: C_5  and  C_35
    7  A    between atoms: C_10  and  C_32
    8  A    between atoms: C_16  and  C_25
    9  A    between atoms: C_16  and  O_27
   10  A    between atoms: C_17  and  O_27
   11  A    between atoms: C_20  and  C_26
   12  A    between atoms: C_20  and  C_35
                            x       y       z     vdW  Elec       q    Type
                         _______ _______ _______ _____ _____    ______ ____

>  <TORSDO>
F 12

$$$$
