=
 OpenBabel11062416253D

 46 51  0  0  1  0  0  0  0  0999 V2000
  190.4630  177.5300  140.1720 C   0  0  1  0  0  3  0  0  0  0  0  0
  190.4210  177.5470  141.6500 C   0  0  1  0  0  3  0  0  0  0  0  0
  190.1600  176.3730  140.9150 O   0  0  0  0  0  0  0  0  0  0  0  0
  189.1660  178.0970  139.6160 C   0  0  0  0  0  2  0  0  0  0  0  0
  189.0830  177.9940  138.0910 C   0  0  2  0  0  3  0  0  0  0  0  0
  188.6690  179.2760  137.5370 N   0  0  0  0  0  1  0  0  0  0  0  0
  188.1840  176.8380  137.5770 C   0  0  2  0  0  3  0  0  0  0  0  0
  189.8390  176.6510  135.7590 O   0  0  0  0  0  0  0  0  0  0  0  0
  188.9020  175.9350  136.5530 C   0  0  1  0  0  3  0  0  0  0  0  0
  190.7420  174.5930  136.3570 C   0  0  0  0  0  0  0  0  0  0  0  0
  191.9980  174.0830  137.0120 C   0  0  0  0  0  2  0  0  0  0  0  0
  189.5460  174.7260  137.2140 C   0  0  0  0  0  2  0  0  0  0  0  0
  190.8720  175.7550  135.4200 C   0  0  0  0  0  2  0  0  0  0  0  0
  191.2570  173.2340  135.9710 C   0  0  0  0  0  2  0  0  0  0  0  0
  185.8650  177.7470  138.0400 C   0  0  0  0  0  2  0  0  0  0  0  0
  186.8790  177.3910  136.9680 C   0  0  2  0  0  3  0  0  0  0  0  0
  184.5100  177.6610  137.3710 C   0  0  1  0  0  3  0  0  0  0  0  0
  186.1470  176.3810  136.1000 C   0  0  0  0  0  2  0  0  0  0  0  0
  184.6920  176.8160  136.1210 C   0  0  0  0  0  2  0  0  0  0  0  0
  183.5610  177.0170  138.2690 N   0  0  0  0  0  2  0  0  0  0  0  0
  183.0830  178.0120  139.2220 C   0  0  0  0  0  0  0  0  0  0  0  0
  182.1580  177.4650  140.2790 C   0  0  0  0  0  2  0  0  0  0  0  0
  183.5730  177.9150  140.6460 C   0  0  0  0  0  2  0  0  0  0  0  0
  182.7290  179.2730  138.7400 O   0  0  0  0  0  1  0  0  0  0  0  0
  191.7770  177.4790  142.1810 N   0  0  0  0  0  2  0  0  0  0  0  0
  191.5090  178.9880  144.0120 O   0  0  0  0  0  1  0  0  0  0  0  0
  191.8770  175.4390  144.0560 O   0  0  0  0  0  0  0  0  0  0  0  0
  191.6640  176.6110  144.4760 C   0  0  0  0  0  0  0  0  0  0  0  0
  191.7160  177.7210  143.5630 N   0  0  0  0  0  0  0  0  0  0  0  0
  191.3730  176.8080  145.9320 C   0  0  1  0  0  3  0  0  0  0  0  0
  189.9640  176.3280  146.2790 C   0  0  0  0  0  2  0  0  0  0  0  0
  186.6860  178.1480  145.7160 N   0  0  0  0  0  0  0  0  0  0  0  0
  188.4220  177.4420  147.8070 N   0  0  0  0  0  2  0  0  0  0  0  0
  189.0270  177.5170  146.4760 C   0  0  2  0  0  3  0  0  0  0  0  0
  186.2860  178.3570  147.1050 C   0  0  0  0  0  2  0  0  0  0  0  0
  188.2090  177.1660  144.2380 O   0  0  0  0  0  0  0  0  0  0  0  0
  187.9600  177.5570  145.4090 C   0  0  0  0  0  0  0  0  0  0  0  0
  187.5130  178.5690  147.9850 C   0  0  0  0  0  2  0  0  0  0  0  0
  185.7070  178.3920  144.6640 C   0  0  0  0  0  2  0  0  0  0  0  0
  184.4300  178.9710  145.2590 C   0  0  0  0  0  2  0  0  0  0  0  0
  183.4340  179.2240  144.1730 C   0  0  0  0  0  3  0  0  0  0  0  0
  182.3370  178.6890  144.2020 O   0  0  0  0  0  0  0  0  0  0  0  0
  192.3430  176.1310  146.7240 O   0  0  0  0  0  0  0  0  0  0  0  0
  192.0530  177.5350  148.6480 O   0  0  0  0  0  0  0  0  0  0  0  0
  192.4490  176.3410  148.0830 N   0  0  0  0  0  0  0  0  0  0  0  0
  192.9310  175.4490  148.8110 O   0  0  0  0  0  0  0  0  0  0  0  0
  1  4  1  6  0  0  0
  1  3  1  0  0  0  0
  1  2  1  0  0  0  0
  2 25  1  1  0  0  0
  3  2  1  0  0  0  0
  5  6  1  1  0  0  0
  5  4  1  0  0  0  0
  7  5  1  6  0  0  0
  8  9  1  0  0  0  0
  9 12  1  0  0  0  0
  9  7  1  1  0  0  0
 10 11  1  0  0  0  0
 10 12  1  0  0  0  0
 13  8  1  0  0  0  0
 13 10  1  0  0  0  0
 14 10  1  0  0  0  0
 14 11  1  0  0  0  0
 16  7  1  1  0  0  0
 16 15  1  0  0  0  0
 17 15  1  0  0  0  0
 17 20  1  1  0  0  0
 18 19  1  0  0  0  0
 18 16  1  0  0  0  0
 19 17  1  0  0  0  0
 20 21  1  0  0  0  0
 21 22  1  0  0  0  0
 21 23  1  0  0  0  0
 22 23  1  0  0  0  0
 24 21  1  0  0  0  0
 25 29  1  0  0  0  0
 27 28  2  0  0  0  0
 28 30  1  0  0  0  0
 29 26  1  0  0  0  0
 29 28  1  0  0  0  0
 30 31  1  6  0  0  0
 30 43  1  0  0  0  0
 32 35  1  0  0  0  0
 33 38  1  0  0  0  0
 34 31  1  6  0  0  0
 34 33  1  0  0  0  0
 35 38  1  0  0  0  0
 36 37  2  0  0  0  0
 37 32  1  0  0  0  0
 37 34  1  0  0  0  0
 39 40  1  0  0  0  0
 39 32  1  0  0  0  0
 41 42  2  0  0  0  0
 41 40  1  0  0  0  0
 43 45  1  0  0  0  0
 45 44  2  0  0  0  0
 45 46  2  0  0  0  0
M  END
>  <MODEL>
1

>  <REMARK>
 VINA RESULT:      -7.8      0.000      0.000
  Name = 
  17 active torsions:
  status: ('A' for Active; 'I' for Inactive)
    1  A    between atoms: C_1  and  C_43
    2  A    between atoms: C_4  and  C_12
    3  A    between atoms: C_4  and  C_13
    4  A    between atoms: C_4  and  C_16
    5  A    between atoms: C_5  and  N_38
    6  A    between atoms: C_6  and  C_45
    7  A    between atoms: N_7  and  O_9
    8  A    between atoms: O_9  and  C_42
    9  A    between atoms: C_13  and  C_45
   10  A    between atoms: C_14  and  C_25
   11  A    between atoms: C_14  and  C_42
   12  A    between atoms: N_15  and  C_36
   13  A    between atoms: C_17  and  N_30
   14  A    between atoms: C_20  and  N_38
   15  A    between atoms: C_27  and  C_42
   16  A    between atoms: N_30  and  N_41
   17  A    between atoms: C_36  and  C_43
                            x       y       z     vdW  Elec       q    Type
                         _______ _______ _______ _____ _____    ______ ____

>  <TORSDO>
F 17

$$$$
=
 OpenBabel11062416253D

 46 51  0  0  1  0  0  0  0  0999 V2000
  190.4200  177.2020  139.9980 C   0  0  1  0  0  3  0  0  0  0  0  0
  190.3000  177.5840  141.4210 C   0  0  1  0  0  3  0  0  0  0  0  0
  190.1210  176.2520  140.9930 O   0  0  0  0  0  0  0  0  0  0  0  0
  189.1350  177.5500  139.2630 C   0  0  0  0  0  2  0  0  0  0  0  0
  189.3750  177.9250  137.7980 C   0  0  2  0  0  3  0  0  0  0  0  0
  188.9350  179.2930  137.5670 N   0  0  0  0  0  1  0  0  0  0  0  0
  188.7400  176.9440  136.7760 C   0  0  2  0  0  3  0  0  0  0  0  0
  186.3300  176.5940  137.1600 O   0  0  0  0  0  0  0  0  0  0  0  0
  187.6310  176.0710  137.3970 C   0  0  1  0  0  3  0  0  0  0  0  0
  186.2970  174.2840  136.8980 C   0  0  0  0  0  0  0  0  0  0  0  0
  185.8650  173.2930  135.8500 C   0  0  0  0  0  2  0  0  0  0  0  0
  187.7340  174.6200  136.9520 C   0  0  0  0  0  2  0  0  0  0  0  0
  185.4440  175.5000  137.0960 C   0  0  0  0  0  2  0  0  0  0  0  0
  185.8140  172.9290  137.3400 C   0  0  0  0  0  2  0  0  0  0  0  0
  191.0460  175.9240  137.0240 C   0  0  0  0  0  2  0  0  0  0  0  0
  189.8210  176.0480  136.1360 C   0  0  2  0  0  3  0  0  0  0  0  0
  192.1970  175.5990  136.0970 C   0  0  1  0  0  3  0  0  0  0  0  0
  190.3730  176.6090  134.8370 C   0  0  0  0  0  2  0  0  0  0  0  0
  191.7610  176.0070  134.6990 C   0  0  0  0  0  2  0  0  0  0  0  0
  193.3730  176.3630  136.4900 N   0  0  0  0  0  2  0  0  0  0  0  0
  194.4990  175.4440  136.6070 C   0  0  0  0  0  0  0  0  0  0  0  0
  194.5660  174.7060  137.9210 C   0  0  0  0  0  2  0  0  0  0  0  0
  194.2010  173.9650  136.6330 C   0  0  0  0  0  2  0  0  0  0  0  0
  195.7380  175.8480  136.1080 O   0  0  0  0  0  1  0  0  0  0  0  0
  191.6270  177.7160  142.0080 N   0  0  0  0  0  2  0  0  0  0  0  0
  191.0970  179.1070  143.8760 O   0  0  0  0  0  1  0  0  0  0  0  0
  191.8880  175.6270  143.8140 O   0  0  0  0  0  0  0  0  0  0  0  0
  191.5160  176.7470  144.2630 C   0  0  0  0  0  0  0  0  0  0  0  0
  191.4750  177.8930  143.3930 N   0  0  0  0  0  0  0  0  0  0  0  0
  191.1380  176.8490  145.7090 C   0  0  1  0  0  3  0  0  0  0  0  0
  189.7160  176.3390  145.9400 C   0  0  0  0  0  2  0  0  0  0  0  0
  186.4620  178.1780  145.3020 N   0  0  0  0  0  0  0  0  0  0  0  0
  188.0720  177.3350  147.4430 N   0  0  0  0  0  2  0  0  0  0  0  0
  188.7570  177.5060  146.1610 C   0  0  2  0  0  3  0  0  0  0  0  0
  185.9750  178.2870  146.6750 C   0  0  0  0  0  2  0  0  0  0  0  0
  188.0830  177.3100  143.8570 O   0  0  0  0  0  0  0  0  0  0  0  0
  187.7580  177.6150  145.0350 C   0  0  0  0  0  0  0  0  0  0  0  0
  187.1430  178.4420  147.6420 C   0  0  0  0  0  2  0  0  0  0  0  0
  185.5480  178.4900  144.2110 C   0  0  0  0  0  2  0  0  0  0  0  0
  184.2540  179.0770  144.7610 C   0  0  0  0  0  2  0  0  0  0  0  0
  183.1100  178.7020  143.8740 C   0  0  0  0  0  3  0  0  0  0  0  0
  181.9590  178.8610  144.2480 O   0  0  0  0  0  0  0  0  0  0  0  0
  192.0660  176.1280  146.5120 O   0  0  0  0  0  0  0  0  0  0  0  0
  191.7500  177.5800  148.3970 O   0  0  0  0  0  0  0  0  0  0  0  0
  192.2540  176.4210  147.8470 N   0  0  0  0  0  0  0  0  0  0  0  0
  192.9090  175.6370  148.5650 O   0  0  0  0  0  0  0  0  0  0  0  0
  1  4  1  6  0  0  0
  1  3  1  0  0  0  0
  1  2  1  0  0  0  0
  2 25  1  1  0  0  0
  3  2  1  0  0  0  0
  5  6  1  1  0  0  0
  5  4  1  0  0  0  0
  7  5  1  1  0  0  0
  8  9  1  0  0  0  0
  9  7  1  6  0  0  0
 10 12  1  0  0  0  0
 10 13  1  0  0  0  0
 10 14  1  0  0  0  0
 11 10  1  0  0  0  0
 11 14  1  0  0  0  0
 12  9  1  0  0  0  0
 13  8  1  0  0  0  0
 16  7  1  1  0  0  0
 16 15  1  0  0  0  0
 17 20  1  1  0  0  0
 17 15  1  0  0  0  0
 18 16  1  0  0  0  0
 19 18  1  0  0  0  0
 19 17  1  0  0  0  0
 20 21  1  0  0  0  0
 21 23  1  0  0  0  0
 21 22  1  0  0  0  0
 23 22  1  0  0  0  0
 24 21  1  0  0  0  0
 25 29  1  0  0  0  0
 27 28  2  0  0  0  0
 28 30  1  0  0  0  0
 29 26  1  0  0  0  0
 29 28  1  0  0  0  0
 30 31  1  6  0  0  0
 30 43  1  0  0  0  0
 32 35  1  0  0  0  0
 33 38  1  0  0  0  0
 34 31  1  6  0  0  0
 34 33  1  0  0  0  0
 35 38  1  0  0  0  0
 36 37  2  0  0  0  0
 37 32  1  0  0  0  0
 37 34  1  0  0  0  0
 39 40  1  0  0  0  0
 39 32  1  0  0  0  0
 41 42  2  0  0  0  0
 41 40  1  0  0  0  0
 43 45  1  0  0  0  0
 45 44  2  0  0  0  0
 45 46  2  0  0  0  0
M  END
>  <MODEL>
2

>  <REMARK>
 VINA RESULT:      -7.6      1.850      4.828
  Name = 
  17 active torsions:
  status: ('A' for Active; 'I' for Inactive)
    1  A    between atoms: C_1  and  C_43
    2  A    between atoms: C_4  and  C_12
    3  A    between atoms: C_4  and  C_13
    4  A    between atoms: C_4  and  C_16
    5  A    between atoms: C_5  and  N_38
    6  A    between atoms: C_6  and  C_45
    7  A    between atoms: N_7  and  O_9
    8  A    between atoms: O_9  and  C_42
    9  A    between atoms: C_13  and  C_45
   10  A    between atoms: C_14  and  C_25
   11  A    between atoms: C_14  and  C_42
   12  A    between atoms: N_15  and  C_36
   13  A    between atoms: C_17  and  N_30
   14  A    between atoms: C_20  and  N_38
   15  A    between atoms: C_27  and  C_42
   16  A    between atoms: N_30  and  N_41
   17  A    between atoms: C_36  and  C_43
                            x       y       z     vdW  Elec       q    Type
                         _______ _______ _______ _____ _____    ______ ____

>  <TORSDO>
F 17

$$$$
=
 OpenBabel11062416253D

 46 51  0  0  1  0  0  0  0  0999 V2000
  185.6840  178.3140  137.4300 C   0  0  1  0  0  3  0  0  0  0  0  0
  186.9940  177.6870  137.7060 C   0  0  1  0  0  3  0  0  0  0  0  0
  186.3020  177.4580  136.4990 O   0  0  0  0  0  0  0  0  0  0  0  0
  184.5840  177.5400  138.1390 C   0  0  0  0  0  2  0  0  0  0  0  0
  183.6200  178.4510  138.9040 C   0  0  2  0  0  3  0  0  0  0  0  0
  184.2990  179.6870  139.2640 N   0  0  0  0  0  1  0  0  0  0  0  0
  182.9600  177.7850  140.1420 C   0  0  2  0  0  3  0  0  0  0  0  0
  180.9940  177.6460  138.6620 O   0  0  0  0  0  0  0  0  0  0  0  0
  181.6280  177.0860  139.8040 C   0  0  1  0  0  3  0  0  0  0  0  0
  180.8070  175.3290  138.5930 C   0  0  0  0  0  0  0  0  0  0  0  0
  181.1160  174.2210  137.6220 C   0  0  0  0  0  2  0  0  0  0  0  0
  181.7970  175.5810  139.6610 C   0  0  0  0  0  2  0  0  0  0  0  0
  180.2720  176.6120  138.0330 C   0  0  0  0  0  2  0  0  0  0  0  0
  179.9560  174.0890  138.6180 C   0  0  0  0  0  2  0  0  0  0  0  0
  183.7770  178.6840  142.3670 C   0  0  0  0  0  2  0  0  0  0  0  0
  182.7410  178.8210  141.2660 C   0  0  2  0  0  3  0  0  0  0  0  0
  183.1320  179.2520  143.6130 C   0  0  1  0  0  3  0  0  0  0  0  0
  181.4170  178.6460  141.9920 C   0  0  0  0  0  2  0  0  0  0  0  0
  181.6320  179.2560  143.3660 C   0  0  0  0  0  2  0  0  0  0  0  0
  183.4430  178.4030  144.7540 N   0  0  0  0  0  2  0  0  0  0  0  0
  184.7230  178.8280  145.3070 C   0  0  0  0  0  0  0  0  0  0  0  0
  184.9810  178.3530  146.7150 C   0  0  0  0  0  2  0  0  0  0  0  0
  185.7740  177.7710  145.5430 C   0  0  0  0  0  2  0  0  0  0  0  0
  185.1580  180.1290  145.0470 O   0  0  0  0  0  1  0  0  0  0  0  0
  188.0610  178.6490  137.4640 N   0  0  0  0  0  2  0  0  0  0  0  0
  188.7910  179.1980  139.6700 O   0  0  0  0  0  1  0  0  0  0  0  0
  190.2490  176.9510  137.3110 O   0  0  0  0  0  0  0  0  0  0  0  0
  190.0480  177.5530  138.4030 C   0  0  0  0  0  0  0  0  0  0  0  0
  188.9980  178.5310  138.5030 N   0  0  0  0  0  0  0  0  0  0  0  0
  190.9310  177.2320  139.5700 C   0  0  1  0  0  3  0  0  0  0  0  0
  190.1170  176.6630  140.7320 C   0  0  0  0  0  2  0  0  0  0  0  0
  189.8320  177.2990  144.4590 N   0  0  0  0  0  0  0  0  0  0  0  0
  191.6630  177.6280  142.3550 N   0  0  0  0  0  2  0  0  0  0  0  0
  190.2530  177.5520  141.9660 C   0  0  2  0  0  3  0  0  0  0  0  0
  191.2050  177.7110  144.7380 C   0  0  0  0  0  2  0  0  0  0  0  0
  188.3130  176.4630  142.8890 O   0  0  0  0  0  0  0  0  0  0  0  0
  189.4140  177.0350  143.1090 C   0  0  0  0  0  0  0  0  0  0  0  0
  191.7870  178.4620  143.5460 C   0  0  0  0  0  2  0  0  0  0  0  0
  188.9520  177.0000  145.5820 C   0  0  0  0  0  2  0  0  0  0  0  0
  189.7700  176.7940  146.8500 C   0  0  0  0  0  2  0  0  0  0  0  0
  189.1380  177.5320  147.9860 C   0  0  0  0  0  3  0  0  0  0  0  0
  188.3830  178.4680  147.7730 O   0  0  0  0  0  0  0  0  0  0  0  0
  191.9510  176.3190  139.1790 O   0  0  0  0  0  0  0  0  0  0  0  0
  193.7120  176.5430  137.5630 O   0  0  0  0  0  0  0  0  0  0  0  0
  193.2170  176.7470  138.8330 N   0  0  0  0  0  0  0  0  0  0  0  0
  193.9350  177.3050  139.6890 O   0  0  0  0  0  0  0  0  0  0  0  0
  1  2  1  0  0  0  0
  1  4  1  1  0  0  0
  2 25  1  6  0  0  0
  3  1  1  0  0  0  0
  3  2  1  0  0  0  0
  4  5  1  0  0  0  0
  5  6  1  1  0  0  0
  7  5  1  6  0  0  0
  8  9  1  0  0  0  0
  9  7  1  6  0  0  0
 10 14  1  0  0  0  0
 10 12  1  0  0  0  0
 11 10  1  0  0  0  0
 11 14  1  0  0  0  0
 12  9  1  0  0  0  0
 13 10  1  0  0  0  0
 13  8  1  0  0  0  0
 15 17  1  0  0  0  0
 16  7  1  6  0  0  0
 16 18  1  0  0  0  0
 16 15  1  0  0  0  0
 17 20  1  1  0  0  0
 18 19  1  0  0  0  0
 19 17  1  0  0  0  0
 20 21  1  0  0  0  0
 21 23  1  0  0  0  0
 21 22  1  0  0  0  0
 23 22  1  0  0  0  0
 24 21  1  0  0  0  0
 25 29  1  0  0  0  0
 27 28  2  0  0  0  0
 28 29  1  0  0  0  0
 28 30  1  0  0  0  0
 29 26  1  0  0  0  0
 30 31  1  1  0  0  0
 32 35  1  0  0  0  0
 32 39  1  0  0  0  0
 33 38  1  0  0  0  0
 34 31  1  6  0  0  0
 34 33  1  0  0  0  0
 34 37  1  0  0  0  0
 36 37  2  0  0  0  0
 37 32  1  0  0  0  0
 38 35  1  0  0  0  0
 39 40  1  0  0  0  0
 40 41  1  0  0  0  0
 42 41  2  0  0  0  0
 43 30  1  0  0  0  0
 44 45  2  0  0  0  0
 45 43  1  0  0  0  0
 45 46  2  0  0  0  0
M  END
>  <MODEL>
3

>  <REMARK>
 VINA RESULT:      -7.4      2.581      7.019
  Name = 
  17 active torsions:
  status: ('A' for Active; 'I' for Inactive)
    1  A    between atoms: C_1  and  C_43
    2  A    between atoms: C_4  and  C_12
    3  A    between atoms: C_4  and  C_13
    4  A    between atoms: C_4  and  C_16
    5  A    between atoms: C_5  and  N_38
    6  A    between atoms: C_6  and  C_45
    7  A    between atoms: N_7  and  O_9
    8  A    between atoms: O_9  and  C_42
    9  A    between atoms: C_13  and  C_45
   10  A    between atoms: C_14  and  C_25
   11  A    between atoms: C_14  and  C_42
   12  A    between atoms: N_15  and  C_36
   13  A    between atoms: C_17  and  N_30
   14  A    between atoms: C_20  and  N_38
   15  A    between atoms: C_27  and  C_42
   16  A    between atoms: N_30  and  N_41
   17  A    between atoms: C_36  and  C_43
                            x       y       z     vdW  Elec       q    Type
                         _______ _______ _______ _____ _____    ______ ____

>  <TORSDO>
F 17

$$$$
=
 OpenBabel11062416253D

 46 51  0  0  1  0  0  0  0  0999 V2000
  189.9840  177.8650  139.7500 C   0  0  1  0  0  3  0  0  0  0  0  0
  190.4080  176.7930  140.6770 C   0  0  1  0  0  3  0  0  0  0  0  0
  190.9740  176.9290  139.3920 O   0  0  0  0  0  0  0  0  0  0  0  0
  188.6820  177.4700  139.0690 C   0  0  0  0  0  2  0  0  0  0  0  0
  188.8340  177.3050  137.5550 C   0  0  2  0  0  3  0  0  0  0  0  0
  188.0560  178.3290  136.8730 N   0  0  0  0  0  1  0  0  0  0  0  0
  188.4880  175.8860  137.0290 C   0  0  2  0  0  3  0  0  0  0  0  0
  190.5300  176.2090  135.6850 O   0  0  0  0  0  0  0  0  0  0  0  0
  189.6480  175.2430  136.2420 C   0  0  1  0  0  3  0  0  0  0  0  0
  191.7660  174.4400  136.5490 C   0  0  0  0  0  0  0  0  0  0  0  0
  192.9100  174.2520  137.5100 C   0  0  0  0  0  2  0  0  0  0  0  0
  190.4040  174.2210  137.0780 C   0  0  0  0  0  2  0  0  0  0  0  0
  191.8130  175.6290  135.6400 C   0  0  0  0  0  2  0  0  0  0  0  0
  192.7000  173.2790  136.3430 C   0  0  0  0  0  2  0  0  0  0  0  0
  185.9730  175.5840  136.9590 C   0  0  0  0  0  2  0  0  0  0  0  0
  187.2160  175.9230  136.1560 C   0  0  2  0  0  3  0  0  0  0  0  0
  184.9700  175.0490  135.9590 C   0  0  1  0  0  3  0  0  0  0  0  0
  187.2220  174.8870  135.0440 C   0  0  0  0  0  2  0  0  0  0  0  0
  185.7580  174.6320  134.7290 C   0  0  0  0  0  2  0  0  0  0  0  0
  184.2850  173.8940  136.5240 N   0  0  0  0  0  2  0  0  0  0  0  0
  182.9430  174.3030  136.9170 C   0  0  0  0  0  0  0  0  0  0  0  0
  182.1430  174.9540  135.8160 C   0  0  0  0  0  2  0  0  0  0  0  0
  181.7750  173.5570  136.3200 C   0  0  0  0  0  2  0  0  0  0  0  0
  182.7690  174.8810  138.1760 O   0  0  0  0  0  1  0  0  0  0  0  0
  191.3360  177.3340  141.6620 N   0  0  0  0  0  2  0  0  0  0  0  0
  190.7400  175.6020  143.1930 O   0  0  0  0  0  1  0  0  0  0  0  0
  190.9790  179.1180  143.7550 O   0  0  0  0  0  0  0  0  0  0  0  0
  190.8450  177.8870  144.0040 C   0  0  0  0  0  0  0  0  0  0  0  0
  190.9050  176.9270  142.9350 N   0  0  0  0  0  0  0  0  0  0  0  0
  190.6120  177.4650  145.4220 C   0  0  1  0  0  3  0  0  0  0  0  0
  189.2390  176.8120  145.5790 C   0  0  0  0  0  2  0  0  0  0  0  0
  185.7620  178.1640  144.9030 N   0  0  0  0  0  0  0  0  0  0  0  0
  187.5410  177.7800  147.0420 N   0  0  0  0  0  2  0  0  0  0  0  0
  188.1520  177.8760  145.7140 C   0  0  2  0  0  3  0  0  0  0  0  0
  185.3160  178.3780  146.2780 C   0  0  0  0  0  2  0  0  0  0  0  0
  187.4220  177.3270  143.4860 O   0  0  0  0  0  0  0  0  0  0  0  0
  187.1060  177.7310  144.6360 C   0  0  0  0  0  0  0  0  0  0  0  0
  186.4910  178.7860  147.1600 C   0  0  0  0  0  2  0  0  0  0  0  0
  184.7760  178.2330  143.8320 C   0  0  0  0  0  2  0  0  0  0  0  0
  184.9720  179.5060  143.0190 C   0  0  0  0  0  2  0  0  0  0  0  0
  185.0190  179.1740  141.5620 C   0  0  0  0  0  3  0  0  0  0  0  0
  184.7050  178.0620  141.1690 O   0  0  0  0  0  0  0  0  0  0  0  0
  191.6400  176.5770  145.8470 O   0  0  0  0  0  0  0  0  0  0  0  0
  192.2960  175.1000  147.6210 O   0  0  0  0  0  0  0  0  0  0  0  0
  191.8950  176.3440  147.1830 N   0  0  0  0  0  0  0  0  0  0  0  0
  191.7400  177.2650  148.0110 O   0  0  0  0  0  0  0  0  0  0  0  0
  1  4  1  6  0  0  0
  1  2  1  0  0  0  0
  2 25  1  1  0  0  0
  3  1  1  0  0  0  0
  3  2  1  0  0  0  0
  5  6  1  6  0  0  0
  5  4  1  0  0  0  0
  7  5  1  6  0  0  0
  8  9  1  0  0  0  0
  9  7  1  1  0  0  0
  9 12  1  0  0  0  0
 10 12  1  0  0  0  0
 10 11  1  0  0  0  0
 13  8  1  0  0  0  0
 13 10  1  0  0  0  0
 14 10  1  0  0  0  0
 14 11  1  0  0  0  0
 16 15  1  0  0  0  0
 16  7  1  1  0  0  0
 17 20  1  1  0  0  0
 17 15  1  0  0  0  0
 18 16  1  0  0  0  0
 19 18  1  0  0  0  0
 19 17  1  0  0  0  0
 20 21  1  0  0  0  0
 21 24  1  0  0  0  0
 22 23  1  0  0  0  0
 22 21  1  0  0  0  0
 23 21  1  0  0  0  0
 25 29  1  0  0  0  0
 27 28  2  0  0  0  0
 28 30  1  0  0  0  0
 29 26  1  0  0  0  0
 29 28  1  0  0  0  0
 30 31  1  6  0  0  0
 30 43  1  0  0  0  0
 32 35  1  0  0  0  0
 33 38  1  0  0  0  0
 34 31  1  6  0  0  0
 34 33  1  0  0  0  0
 35 38  1  0  0  0  0
 36 37  2  0  0  0  0
 37 32  1  0  0  0  0
 37 34  1  0  0  0  0
 39 32  1  0  0  0  0
 40 39  1  0  0  0  0
 41 40  1  0  0  0  0
 42 41  2  0  0  0  0
 43 45  1  0  0  0  0
 45 44  2  0  0  0  0
 45 46  2  0  0  0  0
M  END
>  <MODEL>
4

>  <REMARK>
 VINA RESULT:      -6.9      1.782      2.374
  Name = 
  17 active torsions:
  status: ('A' for Active; 'I' for Inactive)
    1  A    between atoms: C_1  and  C_43
    2  A    between atoms: C_4  and  C_12
    3  A    between atoms: C_4  and  C_13
    4  A    between atoms: C_4  and  C_16
    5  A    between atoms: C_5  and  N_38
    6  A    between atoms: C_6  and  C_45
    7  A    between atoms: N_7  and  O_9
    8  A    between atoms: O_9  and  C_42
    9  A    between atoms: C_13  and  C_45
   10  A    between atoms: C_14  and  C_25
   11  A    between atoms: C_14  and  C_42
   12  A    between atoms: N_15  and  C_36
   13  A    between atoms: C_17  and  N_30
   14  A    between atoms: C_20  and  N_38
   15  A    between atoms: C_27  and  C_42
   16  A    between atoms: N_30  and  N_41
   17  A    between atoms: C_36  and  C_43
                            x       y       z     vdW  Elec       q    Type
                         _______ _______ _______ _____ _____    ______ ____

>  <TORSDO>
F 17

$$$$
=
 OpenBabel11062416253D

 46 51  0  0  1  0  0  0  0  0999 V2000
  185.8170  178.7190  142.5340 C   0  0  1  0  0  3  0  0  0  0  0  0
  184.5240  178.0690  142.2310 C   0  0  1  0  0  3  0  0  0  0  0  0
  184.9560  178.2780  143.5570 O   0  0  0  0  0  0  0  0  0  0  0  0
  186.9460  177.7110  142.3860 C   0  0  0  0  0  2  0  0  0  0  0  0
  188.0920  178.2310  141.5150 C   0  0  2  0  0  3  0  0  0  0  0  0
  187.5900  178.5450  140.1850 N   0  0  0  0  0  1  0  0  0  0  0  0
  189.3230  177.2860  141.4480 C   0  0  2  0  0  3  0  0  0  0  0  0
  190.2220  178.8600  143.1180 O   0  0  0  0  0  0  0  0  0  0  0  0
  190.3400  177.5520  142.5760 C   0  0  1  0  0  3  0  0  0  0  0  0
  190.5710  177.3370  144.8390 C   0  0  0  0  0  0  0  0  0  0  0  0
  189.9090  176.9620  146.1380 C   0  0  0  0  0  2  0  0  0  0  0  0
  190.2700  176.4920  143.6650 C   0  0  0  0  0  2  0  0  0  0  0  0
  190.6040  178.7890  144.4720 C   0  0  0  0  0  2  0  0  0  0  0  0
  191.4250  176.8090  145.9590 C   0  0  0  0  0  2  0  0  0  0  0  0
  189.6850  176.2120  139.1810 C   0  0  0  0  0  2  0  0  0  0  0  0
  190.0180  177.3930  140.0740 C   0  0  2  0  0  3  0  0  0  0  0  0
  190.8360  176.0950  138.2050 C   0  0  1  0  0  3  0  0  0  0  0  0
  191.5340  177.3600  140.1660 C   0  0  0  0  0  2  0  0  0  0  0  0
  192.0060  176.8490  138.8150 C   0  0  0  0  0  2  0  0  0  0  0  0
  191.1890  174.6930  138.0300 N   0  0  0  0  0  2  0  0  0  0  0  0
  190.4360  174.1690  136.8960 C   0  0  0  0  0  0  0  0  0  0  0  0
  190.3510  175.1070  135.7190 C   0  0  0  0  0  2  0  0  0  0  0  0
  191.1990  173.8370  135.6370 C   0  0  0  0  0  2  0  0  0  0  0  0
  189.2640  173.4550  137.1530 O   0  0  0  0  0  1  0  0  0  0  0  0
  183.5320  179.0820  141.8930 N   0  0  0  0  0  2  0  0  0  0  0  0
  181.7950  177.9560  140.7030 O   0  0  0  0  0  1  0  0  0  0  0  0
  184.4440  179.9830  139.4340 O   0  0  0  0  0  0  0  0  0  0  0  0
  183.3820  179.3000  139.4510 C   0  0  0  0  0  0  0  0  0  0  0  0
  182.9260  178.7110  140.6820 N   0  0  0  0  0  0  0  0  0  0  0  0
  182.6300  179.1130  138.1690 C   0  0  1  0  0  3  0  0  0  0  0  0
  182.5460  177.6330  137.7960 C   0  0  0  0  0  2  0  0  0  0  0  0
  184.8860  174.6720  137.4360 N   0  0  0  0  0  0  0  0  0  0  0  0
  184.7430  177.3940  136.7600 N   0  0  0  0  0  2  0  0  0  0  0  0
  183.9200  176.9760  137.8970 C   0  0  2  0  0  3  0  0  0  0  0  0
  185.8880  175.2630  136.5520 C   0  0  0  0  0  2  0  0  0  0  0  0
  182.8260  174.9210  138.5130 O   0  0  0  0  0  0  0  0  0  0  0  0
  183.8070  175.4720  137.9460 C   0  0  0  0  0  0  0  0  0  0  0  0
  186.0490  176.7500  136.8510 C   0  0  0  0  0  2  0  0  0  0  0  0
  184.9090  173.2310  137.6490 C   0  0  0  0  0  2  0  0  0  0  0  0
  184.3830  172.5080  136.4160 C   0  0  0  0  0  2  0  0  0  0  0  0
  183.4860  171.3860  136.8290 C   0  0  0  0  0  3  0  0  0  0  0  0
  182.3810  171.6150  137.2940 O   0  0  0  0  0  0  0  0  0  0  0  0
  181.3280  179.6780  138.2760 O   0  0  0  0  0  0  0  0  0  0  0  0
  180.3310  181.2020  139.8390 O   0  0  0  0  0  0  0  0  0  0  0  0
  181.1270  180.9620  138.7390 N   0  0  0  0  0  0  0  0  0  0  0  0
  181.6540  181.9240  138.1420 O   0  0  0  0  0  0  0  0  0  0  0  0
  1  4  1  6  0  0  0
  1  3  1  0  0  0  0
  2 25  1  1  0  0  0
  2  1  1  0  0  0  0
  2  3  1  0  0  0  0
  5  6  1  6  0  0  0
  5  4  1  0  0  0  0
  7  5  1  6  0  0  0
  8 13  1  0  0  0  0
  9  7  1  6  0  0  0
  9  8  1  0  0  0  0
  9 12  1  0  0  0  0
 10 14  1  0  0  0  0
 10 11  1  0  0  0  0
 12 10  1  0  0  0  0
 13 10  1  0  0  0  0
 14 11  1  0  0  0  0
 15 16  1  0  0  0  0
 16 18  1  0  0  0  0
 16  7  1  1  0  0  0
 17 20  1  1  0  0  0
 17 19  1  0  0  0  0
 17 15  1  0  0  0  0
 19 18  1  0  0  0  0
 21 24  1  0  0  0  0
 21 20  1  0  0  0  0
 22 21  1  0  0  0  0
 23 22  1  0  0  0  0
 23 21  1  0  0  0  0
 27 28  2  0  0  0  0
 28 29  1  0  0  0  0
 29 26  1  0  0  0  0
 29 25  1  0  0  0  0
 30 31  1  1  0  0  0
 30 43  1  0  0  0  0
 30 28  1  0  0  0  0
 32 39  1  0  0  0  0
 32 37  1  0  0  0  0
 33 38  1  0  0  0  0
 33 34  1  0  0  0  0
 34 31  1  6  0  0  0
 34 37  1  0  0  0  0
 35 38  1  0  0  0  0
 35 32  1  0  0  0  0
 37 36  2  0  0  0  0
 40 41  1  0  0  0  0
 40 39  1  0  0  0  0
 41 42  2  0  0  0  0
 43 45  1  0  0  0  0
 45 44  2  0  0  0  0
 46 45  2  0  0  0  0
M  END
>  <MODEL>
5

>  <REMARK>
 VINA RESULT:      -6.9      3.323      9.424
  Name = 
  17 active torsions:
  status: ('A' for Active; 'I' for Inactive)
    1  A    between atoms: C_1  and  C_43
    2  A    between atoms: C_4  and  C_12
    3  A    between atoms: C_4  and  C_13
    4  A    between atoms: C_4  and  C_16
    5  A    between atoms: C_5  and  N_38
    6  A    between atoms: C_6  and  C_45
    7  A    between atoms: N_7  and  O_9
    8  A    between atoms: O_9  and  C_42
    9  A    between atoms: C_13  and  C_45
   10  A    between atoms: C_14  and  C_25
   11  A    between atoms: C_14  and  C_42
   12  A    between atoms: N_15  and  C_36
   13  A    between atoms: C_17  and  N_30
   14  A    between atoms: C_20  and  N_38
   15  A    between atoms: C_27  and  C_42
   16  A    between atoms: N_30  and  N_41
   17  A    between atoms: C_36  and  C_43
                            x       y       z     vdW  Elec       q    Type
                         _______ _______ _______ _____ _____    ______ ____

>  <TORSDO>
F 17

$$$$
=
 OpenBabel11062416253D

 46 51  0  0  1  0  0  0  0  0999 V2000
  183.9550  178.3210  137.6480 C   0  0  1  0  0  3  0  0  0  0  0  0
  185.3820  178.0290  137.9060 C   0  0  1  0  0  3  0  0  0  0  0  0
  184.3590  177.1550  138.3270 O   0  0  0  0  0  0  0  0  0  0  0  0
  183.4430  179.3210  138.6740 C   0  0  0  0  0  2  0  0  0  0  0  0
  181.9970  179.0460  139.0950 C   0  0  2  0  0  3  0  0  0  0  0  0
  181.3000  180.3070  139.2980 N   0  0  0  0  0  1  0  0  0  0  0  0
  181.8580  178.1150  140.3300 C   0  0  2  0  0  3  0  0  0  0  0  0
  179.6090  177.7140  139.4040 O   0  0  0  0  0  0  0  0  0  0  0  0
  180.6300  177.1870  140.2410 C   0  0  1  0  0  3  0  0  0  0  0  0
  179.8220  175.4300  139.0230 C   0  0  0  0  0  0  0  0  0  0  0  0
  180.0330  174.5180  137.8440 C   0  0  0  0  0  2  0  0  0  0  0  0
  181.0140  175.7750  139.8260 C   0  0  0  0  0  2  0  0  0  0  0  0
  178.9320  176.6190  138.8290 C   0  0  0  0  0  2  0  0  0  0  0  0
  179.2460  174.0410  139.0720 C   0  0  0  0  0  2  0  0  0  0  0  0
  183.1130  178.8850  142.3930 C   0  0  0  0  0  2  0  0  0  0  0  0
  181.8010  178.9430  141.6320 C   0  0  2  0  0  3  0  0  0  0  0  0
  182.7620  179.1570  143.8400 C   0  0  1  0  0  3  0  0  0  0  0  0
  180.7810  178.4190  142.6300 C   0  0  0  0  0  2  0  0  0  0  0  0
  181.2740  178.8900  143.9880 C   0  0  0  0  0  2  0  0  0  0  0  0
  183.5150  178.2570  144.7030 N   0  0  0  0  0  2  0  0  0  0  0  0
  184.7720  178.9040  145.0570 C   0  0  0  0  0  0  0  0  0  0  0  0
  185.1650  178.7490  146.5040 C   0  0  0  0  0  2  0  0  0  0  0  0
  185.9450  178.0220  145.4060 C   0  0  0  0  0  2  0  0  0  0  0  0
  185.0440  180.1620  144.5160 O   0  0  0  0  0  1  0  0  0  0  0  0
  185.9980  177.4880  136.7010 N   0  0  0  0  0  2  0  0  0  0  0  0
  187.8940  178.9380  136.6140 O   0  0  0  0  0  1  0  0  0  0  0  0
  187.7510  175.4650  137.4250 O   0  0  0  0  0  0  0  0  0  0  0  0
  188.2250  176.6270  137.2790 C   0  0  0  0  0  0  0  0  0  0  0  0
  187.3850  177.6890  136.7940 N   0  0  0  0  0  0  0  0  0  0  0  0
  189.6670  176.8590  137.6090 C   0  0  1  0  0  3  0  0  0  0  0  0
  189.8120  177.8430  138.7700 C   0  0  0  0  0  2  0  0  0  0  0  0
  188.9950  177.2230  142.4200 N   0  0  0  0  0  0  0  0  0  0  0  0
  188.0120  178.6480  140.2090 N   0  0  0  0  0  2  0  0  0  0  0  0
  188.8460  177.4860  139.8980 C   0  0  2  0  0  3  0  0  0  0  0  0
  187.9070  178.1830  142.5890 C   0  0  0  0  0  2  0  0  0  0  0  0
  190.6640  176.3740  141.0200 O   0  0  0  0  0  0  0  0  0  0  0  0
  189.5880  177.0200  141.1270 C   0  0  0  0  0  0  0  0  0  0  0  0
  187.1040  178.3080  141.2990 C   0  0  0  0  0  2  0  0  0  0  0  0
  189.5740  176.6100  143.6090 C   0  0  0  0  0  2  0  0  0  0  0  0
  189.5890  177.6070  144.7600 C   0  0  0  0  0  2  0  0  0  0  0  0
  190.4630  177.0970  145.8610 C   0  0  0  0  0  3  0  0  0  0  0  0
  191.5870  176.6870  145.6200 O   0  0  0  0  0  0  0  0  0  0  0  0
  190.3060  175.6250  137.9160 O   0  0  0  0  0  0  0  0  0  0  0  0
  192.3180  174.3170  137.9730 O   0  0  0  0  0  0  0  0  0  0  0  0
  191.5370  175.2910  137.3880 N   0  0  0  0  0  0  0  0  0  0  0  0
  191.9600  175.8930  136.3790 O   0  0  0  0  0  0  0  0  0  0  0  0
  1  2  1  0  0  0  0
  1  3  1  0  0  0  0
  1  4  1  1  0  0  0
  2 25  1  6  0  0  0
  2  3  1  0  0  0  0
  4  5  1  0  0  0  0
  5  6  1  1  0  0  0
  7  5  1  6  0  0  0
  8  9  1  0  0  0  0
  9  7  1  6  0  0  0
 10 14  1  0  0  0  0
 10 12  1  0  0  0  0
 11 10  1  0  0  0  0
 11 14  1  0  0  0  0
 12  9  1  0  0  0  0
 13 10  1  0  0  0  0
 13  8  1  0  0  0  0
 15 17  1  0  0  0  0
 16  7  1  6  0  0  0
 16 15  1  0  0  0  0
 16 18  1  0  0  0  0
 17 19  1  0  0  0  0
 17 20  1  1  0  0  0
 18 19  1  0  0  0  0
 20 21  1  0  0  0  0
 21 23  1  0  0  0  0
 21 22  1  0  0  0  0
 23 22  1  0  0  0  0
 24 21  1  0  0  0  0
 25 29  1  0  0  0  0
 26 29  1  0  0  0  0
 28 27  2  0  0  0  0
 28 30  1  0  0  0  0
 29 28  1  0  0  0  0
 30 43  1  0  0  0  0
 30 31  1  1  0  0  0
 32 35  1  0  0  0  0
 32 39  1  0  0  0  0
 33 38  1  0  0  0  0
 34 31  1  6  0  0  0
 34 33  1  0  0  0  0
 34 37  1  0  0  0  0
 36 37  2  0  0  0  0
 37 32  1  0  0  0  0
 38 35  1  0  0  0  0
 39 40  1  0  0  0  0
 40 41  1  0  0  0  0
 42 41  2  0  0  0  0
 45 43  1  0  0  0  0
 45 44  2  0  0  0  0
 46 45  2  0  0  0  0
M  END
>  <MODEL>
6

>  <REMARK>
 VINA RESULT:      -6.5      2.511      8.099
  Name = 
  17 active torsions:
  status: ('A' for Active; 'I' for Inactive)
    1  A    between atoms: C_1  and  C_43
    2  A    between atoms: C_4  and  C_12
    3  A    between atoms: C_4  and  C_13
    4  A    between atoms: C_4  and  C_16
    5  A    between atoms: C_5  and  N_38
    6  A    between atoms: C_6  and  C_45
    7  A    between atoms: N_7  and  O_9
    8  A    between atoms: O_9  and  C_42
    9  A    between atoms: C_13  and  C_45
   10  A    between atoms: C_14  and  C_25
   11  A    between atoms: C_14  and  C_42
   12  A    between atoms: N_15  and  C_36
   13  A    between atoms: C_17  and  N_30
   14  A    between atoms: C_20  and  N_38
   15  A    between atoms: C_27  and  C_42
   16  A    between atoms: N_30  and  N_41
   17  A    between atoms: C_36  and  C_43
                            x       y       z     vdW  Elec       q    Type
                         _______ _______ _______ _____ _____    ______ ____

>  <TORSDO>
F 17

$$$$
=
 OpenBabel11062416253D

 46 51  0  0  1  0  0  0  0  0999 V2000
  191.0090  176.7570  141.1080 C   0  0  1  0  0  3  0  0  0  0  0  0
  191.1920  177.3240  139.7550 C   0  0  1  0  0  3  0  0  0  0  0  0
  192.0320  177.6830  140.8290 O   0  0  0  0  0  0  0  0  0  0  0  0
  189.8820  177.4860  141.8230 C   0  0  0  0  0  2  0  0  0  0  0  0
  189.5560  176.8750  143.1880 C   0  0  2  0  0  3  0  0  0  0  0  0
  188.8350  175.6240  143.0030 N   0  0  0  0  0  1  0  0  0  0  0  0
  188.7970  177.8290  144.1500 C   0  0  2  0  0  3  0  0  0  0  0  0
  188.6060  176.8880  146.4200 O   0  0  0  0  0  0  0  0  0  0  0  0
  189.3410  177.7780  145.5920 C   0  0  1  0  0  3  0  0  0  0  0  0
  190.8760  176.6640  146.8670 C   0  0  0  0  0  0  0  0  0  0  0  0
  191.8900  175.5520  146.9250 C   0  0  0  0  0  2  0  0  0  0  0  0
  190.8300  177.4650  145.6260 C   0  0  0  0  0  2  0  0  0  0  0  0
  189.4990  176.3730  147.3810 C   0  0  0  0  0  2  0  0  0  0  0  0
  192.0370  176.7940  147.8150 C   0  0  0  0  0  2  0  0  0  0  0  0
  186.6290  177.9380  142.8430 C   0  0  0  0  0  2  0  0  0  0  0  0
  187.2850  177.5180  144.1450 C   0  0  2  0  0  3  0  0  0  0  0  0
  185.1710  178.1750  143.1730 C   0  0  1  0  0  3  0  0  0  0  0  0
  186.5120  178.2890  145.2030 C   0  0  0  0  0  2  0  0  0  0  0  0
  185.0890  178.3700  144.6780 C   0  0  0  0  0  2  0  0  0  0  0  0
  184.7040  179.3750  142.4930 N   0  0  0  0  0  2  0  0  0  0  0  0
  184.2650  179.0020  141.1540 C   0  0  0  0  0  0  0  0  0  0  0  0
  183.7120  177.6030  141.0480 C   0  0  0  0  0  2  0  0  0  0  0  0
  182.7850  178.8140  140.9250 C   0  0  0  0  0  2  0  0  0  0  0  0
  185.0440  179.3990  140.0660 O   0  0  0  0  0  1  0  0  0  0  0  0
  191.8910  176.3640  138.9100 N   0  0  0  0  0  2  0  0  0  0  0  0
  189.7170  175.5050  138.4230 O   0  0  0  0  0  1  0  0  0  0  0  0
  192.4400  176.1300  136.2010 O   0  0  0  0  0  0  0  0  0  0  0  0
  191.2730  175.8430  136.5900 C   0  0  0  0  0  0  0  0  0  0  0  0
  190.9660  175.8350  137.9950 N   0  0  0  0  0  0  0  0  0  0  0  0
  190.2390  175.5010  135.5620 C   0  0  1  0  0  3  0  0  0  0  0  0
  189.9170  176.7120  134.6870 C   0  0  0  0  0  2  0  0  0  0  0  0
  186.5280  176.6680  136.3860 N   0  0  0  0  0  0  0  0  0  0  0  0
  188.9120  178.1530  136.3820 N   0  0  0  0  0  2  0  0  0  0  0  0
  188.6340  177.3900  135.1630 C   0  0  2  0  0  3  0  0  0  0  0  0
  186.7490  177.7060  137.3900 C   0  0  0  0  0  2  0  0  0  0  0  0
  187.4510  175.3450  134.6940 O   0  0  0  0  0  0  0  0  0  0  0  0
  187.5380  176.3810  135.4060 C   0  0  0  0  0  0  0  0  0  0  0  0
  187.6800  178.7830  136.8440 C   0  0  0  0  0  2  0  0  0  0  0  0
  185.3460  175.8230  136.5060 C   0  0  0  0  0  2  0  0  0  0  0  0
  184.4210  176.3630  137.5890 C   0  0  0  0  0  2  0  0  0  0  0  0
  183.0890  176.6940  136.9980 C   0  0  0  0  0  3  0  0  0  0  0  0
  182.8950  177.7790  136.4740 O   0  0  0  0  0  0  0  0  0  0  0  0
  190.6820  174.4090  134.7630 O   0  0  0  0  0  0  0  0  0  0  0  0
  191.9250  172.6250  135.7780 O   0  0  0  0  0  0  0  0  0  0  0  0
  190.7490  173.1240  135.2590 N   0  0  0  0  0  0  0  0  0  0  0  0
  189.7380  172.3920  135.2180 O   0  0  0  0  0  0  0  0  0  0  0  0
  1  4  1  1  0  0  0
  2 25  1  6  0  0  0
  2  3  1  0  0  0  0
  2  1  1  0  0  0  0
  3  1  1  0  0  0  0
  4  5  1  0  0  0  0
  5  6  1  6  0  0  0
  7  5  1  6  0  0  0
  8 13  1  0  0  0  0
  9  7  1  6  0  0  0
  9 12  1  0  0  0  0
  9  8  1  0  0  0  0
 10 11  1  0  0  0  0
 10 13  1  0  0  0  0
 10 14  1  0  0  0  0
 11 14  1  0  0  0  0
 12 10  1  0  0  0  0
 15 17  1  0  0  0  0
 15 16  1  0  0  0  0
 16  7  1  6  0  0  0
 16 18  1  0  0  0  0
 17 20  1  6  0  0  0
 17 19  1  0  0  0  0
 19 18  1  0  0  0  0
 21 20  1  0  0  0  0
 22 21  1  0  0  0  0
 23 22  1  0  0  0  0
 23 21  1  0  0  0  0
 24 21  1  0  0  0  0
 27 28  2  0  0  0  0
 28 29  1  0  0  0  0
 29 26  1  0  0  0  0
 29 25  1  0  0  0  0
 30 31  1  6  0  0  0
 30 28  1  0  0  0  0
 32 39  1  0  0  0  0
 32 35  1  0  0  0  0
 33 38  1  0  0  0  0
 34 31  1  1  0  0  0
 34 37  1  0  0  0  0
 34 33  1  0  0  0  0
 36 37  2  0  0  0  0
 37 32  1  0  0  0  0
 38 35  1  0  0  0  0
 39 40  1  0  0  0  0
 41 40  1  0  0  0  0
 42 41  2  0  0  0  0
 43 45  1  0  0  0  0
 43 30  1  0  0  0  0
 45 44  2  0  0  0  0
 46 45  2  0  0  0  0
M  END
>  <MODEL>
7

>  <REMARK>
 VINA RESULT:      -6.5      2.665      8.658
  Name = 
  17 active torsions:
  status: ('A' for Active; 'I' for Inactive)
    1  A    between atoms: C_1  and  C_43
    2  A    between atoms: C_4  and  C_12
    3  A    between atoms: C_4  and  C_13
    4  A    between atoms: C_4  and  C_16
    5  A    between atoms: C_5  and  N_38
    6  A    between atoms: C_6  and  C_45
    7  A    between atoms: N_7  and  O_9
    8  A    between atoms: O_9  and  C_42
    9  A    between atoms: C_13  and  C_45
   10  A    between atoms: C_14  and  C_25
   11  A    between atoms: C_14  and  C_42
   12  A    between atoms: N_15  and  C_36
   13  A    between atoms: C_17  and  N_30
   14  A    between atoms: C_20  and  N_38
   15  A    between atoms: C_27  and  C_42
   16  A    between atoms: N_30  and  N_41
   17  A    between atoms: C_36  and  C_43
                            x       y       z     vdW  Elec       q    Type
                         _______ _______ _______ _____ _____    ______ ____

>  <TORSDO>
F 17

$$$$
=
 OpenBabel11062416253D

 46 51  0  0  1  0  0  0  0  0999 V2000
  189.0830  177.4010  140.1410 C   0  0  1  0  0  3  0  0  0  0  0  0
  189.6530  177.6900  141.4750 C   0  0  1  0  0  3  0  0  0  0  0  0
  188.6470  178.4990  140.9080 O   0  0  0  0  0  0  0  0  0  0  0  0
  190.0230  177.9130  139.0600 C   0  0  0  0  0  2  0  0  0  0  0  0
  189.3320  178.0660  137.7020 C   0  0  2  0  0  3  0  0  0  0  0  0
  188.7160  179.3820  137.6140 N   0  0  0  0  0  1  0  0  0  0  0  0
  188.3150  176.9400  137.3730 C   0  0  2  0  0  3  0  0  0  0  0  0
  189.7660  176.5170  135.4260 O   0  0  0  0  0  0  0  0  0  0  0  0
  188.8600  175.9260  136.3480 C   0  0  1  0  0  3  0  0  0  0  0  0
  190.5680  174.4320  136.0710 C   0  0  0  0  0  0  0  0  0  0  0  0
  191.8400  173.8600  136.6370 C   0  0  0  0  0  2  0  0  0  0  0  0
  189.4730  174.7090  137.0240 C   0  0  0  0  0  2  0  0  0  0  0  0
  190.6920  175.5220  135.0510 C   0  0  0  0  0  2  0  0  0  0  0  0
  190.9390  173.0150  135.7270 C   0  0  0  0  0  2  0  0  0  0  0  0
  185.9060  177.4930  137.9340 C   0  0  0  0  0  2  0  0  0  0  0  0
  186.9850  177.5380  136.8670 C   0  0  2  0  0  3  0  0  0  0  0  0
  184.5890  177.4930  137.1880 C   0  0  1  0  0  3  0  0  0  0  0  0
  186.3810  176.7610  135.7090 C   0  0  0  0  0  2  0  0  0  0  0  0
  184.8920  177.0550  135.7650 C   0  0  0  0  0  2  0  0  0  0  0  0
  183.6740  176.5470  137.8120 N   0  0  0  0  0  2  0  0  0  0  0  0
  182.6580  177.3000  138.5370 C   0  0  0  0  0  0  0  0  0  0  0  0
  181.2500  176.8050  138.3290 C   0  0  0  0  0  2  0  0  0  0  0  0
  181.9490  176.6100  139.6760 C   0  0  0  0  0  2  0  0  0  0  0  0
  182.7800  178.6900  138.5940 O   0  0  0  0  0  1  0  0  0  0  0  0
  189.0480  176.8110  142.4680 N   0  0  0  0  0  2  0  0  0  0  0  0
  189.7520  178.5630  143.9310 O   0  0  0  0  0  1  0  0  0  0  0  0
  186.9480  176.3740  144.2260 O   0  0  0  0  0  0  0  0  0  0  0  0
  187.7270  177.3380  144.4710 C   0  0  0  0  0  0  0  0  0  0  0  0
  188.8970  177.5400  143.6590 N   0  0  0  0  0  0  0  0  0  0  0  0
  187.4080  178.2420  145.6220 C   0  0  1  0  0  3  0  0  0  0  0  0
  186.2170  179.1420  145.2970 C   0  0  0  0  0  2  0  0  0  0  0  0
  182.9290  178.8270  143.4350 N   0  0  0  0  0  0  0  0  0  0  0  0
  185.6910  178.8700  142.9290 N   0  0  0  0  0  2  0  0  0  0  0  0
  185.2980  178.4680  144.2810 C   0  0  2  0  0  3  0  0  0  0  0  0
  183.4240  178.8900  142.0620 C   0  0  0  0  0  2  0  0  0  0  0  0
  183.4320  178.9900  145.7120 O   0  0  0  0  0  0  0  0  0  0  0  0
  183.8510  178.8120  144.5370 C   0  0  0  0  0  0  0  0  0  0  0  0
  184.8000  178.2390  141.9630 C   0  0  0  0  0  2  0  0  0  0  0  0
  181.4960  178.9500  143.6650 C   0  0  0  0  0  2  0  0  0  0  0  0
  180.7660  179.1460  142.3430 C   0  0  0  0  0  2  0  0  0  0  0  0
  179.6300  180.1010  142.5270 C   0  0  0  0  0  3  0  0  0  0  0  0
  179.6750  181.2180  142.0370 O   0  0  0  0  0  0  0  0  0  0  0  0
  187.1510  177.4740  146.7930 O   0  0  0  0  0  0  0  0  0  0  0  0
  188.1160  178.2030  148.8670 O   0  0  0  0  0  0  0  0  0  0  0  0
  188.0910  177.3370  147.7950 N   0  0  0  0  0  0  0  0  0  0  0  0
  188.9460  176.4300  147.7190 O   0  0  0  0  0  0  0  0  0  0  0  0
  1  4  1  6  0  0  0
  1  3  1  0  0  0  0
  1  2  1  0  0  0  0
  2 25  1  1  0  0  0
  3  2  1  0  0  0  0
  5  6  1  1  0  0  0
  5  4  1  0  0  0  0
  7  5  1  6  0  0  0
  8  9  1  0  0  0  0
  9 12  1  0  0  0  0
  9  7  1  1  0  0  0
 10 11  1  0  0  0  0
 10 12  1  0  0  0  0
 13  8  1  0  0  0  0
 13 10  1  0  0  0  0
 14 10  1  0  0  0  0
 14 11  1  0  0  0  0
 16  7  1  1  0  0  0
 16 15  1  0  0  0  0
 17 20  1  1  0  0  0
 17 15  1  0  0  0  0
 18 19  1  0  0  0  0
 18 16  1  0  0  0  0
 19 17  1  0  0  0  0
 20 21  1  0  0  0  0
 21 24  1  0  0  0  0
 21 23  1  0  0  0  0
 22 21  1  0  0  0  0
 22 23  1  0  0  0  0
 25 29  1  0  0  0  0
 27 28  2  0  0  0  0
 28 30  1  0  0  0  0
 29 26  1  0  0  0  0
 29 28  1  0  0  0  0
 30 31  1  6  0  0  0
 30 43  1  0  0  0  0
 32 39  1  0  0  0  0
 32 37  1  0  0  0  0
 33 34  1  0  0  0  0
 34 37  1  0  0  0  0
 34 31  1  1  0  0  0
 35 32  1  0  0  0  0
 37 36  2  0  0  0  0
 38 35  1  0  0  0  0
 38 33  1  0  0  0  0
 40 41  1  0  0  0  0
 40 39  1  0  0  0  0
 42 41  2  0  0  0  0
 43 45  1  0  0  0  0
 45 44  2  0  0  0  0
 46 45  2  0  0  0  0
M  END
>  <MODEL>
8

>  <REMARK>
 VINA RESULT:      -6.5      1.987      3.244
  Name = 
  17 active torsions:
  status: ('A' for Active; 'I' for Inactive)
    1  A    between atoms: C_1  and  C_43
    2  A    between atoms: C_4  and  C_12
    3  A    between atoms: C_4  and  C_13
    4  A    between atoms: C_4  and  C_16
    5  A    between atoms: C_5  and  N_38
    6  A    between atoms: C_6  and  C_45
    7  A    between atoms: N_7  and  O_9
    8  A    between atoms: O_9  and  C_42
    9  A    between atoms: C_13  and  C_45
   10  A    between atoms: C_14  and  C_25
   11  A    between atoms: C_14  and  C_42
   12  A    between atoms: N_15  and  C_36
   13  A    between atoms: C_17  and  N_30
   14  A    between atoms: C_20  and  N_38
   15  A    between atoms: C_27  and  C_42
   16  A    between atoms: N_30  and  N_41
   17  A    between atoms: C_36  and  C_43
                            x       y       z     vdW  Elec       q    Type
                         _______ _______ _______ _____ _____    ______ ____

>  <TORSDO>
F 17

$$$$
=
 OpenBabel11062416253D

 46 51  0  0  1  0  0  0  0  0999 V2000
  183.0980  179.1380  141.7760 C   0  0  1  0  0  3  0  0  0  0  0  0
  184.0850  178.2360  142.4060 C   0  0  1  0  0  3  0  0  0  0  0  0
  184.4670  179.2030  141.4530 O   0  0  0  0  0  0  0  0  0  0  0  0
  182.3740  178.4050  140.6560 C   0  0  0  0  0  2  0  0  0  0  0  0
  182.7330  178.9440  139.2690 C   0  0  2  0  0  3  0  0  0  0  0  0
  182.1310  180.2560  139.0860 N   0  0  0  0  0  1  0  0  0  0  0  0
  182.3760  177.9870  138.1000 C   0  0  2  0  0  3  0  0  0  0  0  0
  180.1000  177.1700  137.6200 O   0  0  0  0  0  0  0  0  0  0  0  0
  181.2380  177.0090  138.4570 C   0  0  1  0  0  3  0  0  0  0  0  0
  180.4920  174.9050  137.9680 C   0  0  0  0  0  0  0  0  0  0  0  0
  180.6810  173.6700  137.1270 C   0  0  0  0  0  2  0  0  0  0  0  0
  181.7140  175.5650  138.4730 C   0  0  0  0  0  2  0  0  0  0  0  0
  179.4800  175.9090  137.5080 C   0  0  0  0  0  2  0  0  0  0  0  0
  180.0570  173.5770  138.5260 C   0  0  0  0  0  2  0  0  0  0  0  0
  184.9070  177.8730  138.0840 C   0  0  0  0  0  2  0  0  0  0  0  0
  183.6210  177.2000  137.6390 C   0  0  2  0  0  3  0  0  0  0  0  0
  185.9690  177.4220  137.1040 C   0  0  1  0  0  3  0  0  0  0  0  0
  183.7570  177.1260  136.1280 C   0  0  0  0  0  2  0  0  0  0  0  0
  185.2400  176.9190  135.8690 C   0  0  0  0  0  2  0  0  0  0  0  0
  186.8200  178.5490  136.7510 N   0  0  0  0  0  2  0  0  0  0  0  0
  188.1250  178.3510  137.3700 C   0  0  0  0  0  0  0  0  0  0  0  0
  188.0780  177.6820  138.7200 C   0  0  0  0  0  2  0  0  0  0  0  0
  188.6330  176.9360  137.5050 C   0  0  0  0  0  2  0  0  0  0  0  0
  189.0700  179.3730  137.2640 O   0  0  0  0  0  1  0  0  0  0  0  0
  184.4200  178.7280  143.7370 N   0  0  0  0  0  2  0  0  0  0  0  0
  186.1340  177.1040  143.3770 O   0  0  0  0  0  1  0  0  0  0  0  0
  185.6160  179.2450  146.1850 O   0  0  0  0  0  0  0  0  0  0  0  0
  186.1790  178.4110  145.4220 C   0  0  0  0  0  0  0  0  0  0  0  0
  185.5440  178.0190  144.1930 N   0  0  0  0  0  0  0  0  0  0  0  0
  187.5010  177.8400  145.8360 C   0  0  1  0  0  3  0  0  0  0  0  0
  188.6420  178.4690  145.0380 C   0  0  0  0  0  2  0  0  0  0  0  0
  190.8170  177.2530  142.1800 N   0  0  0  0  0  0  0  0  0  0  0  0
  190.7370  177.2170  144.9870 N   0  0  0  0  0  2  0  0  0  0  0  0
  189.4470  177.3910  144.3150 C   0  0  2  0  0  3  0  0  0  0  0  0
  191.9640  176.7660  142.9420 C   0  0  0  0  0  2  0  0  0  0  0  0
  188.7620  178.3680  142.2230 O   0  0  0  0  0  0  0  0  0  0  0  0
  189.6490  177.7410  142.8610 C   0  0  0  0  0  0  0  0  0  0  0  0
  191.5100  176.2000  144.2820 C   0  0  0  0  0  2  0  0  0  0  0  0
  190.9480  177.3920  140.7350 C   0  0  0  0  0  2  0  0  0  0  0  0
  192.4160  177.5150  140.3500 C   0  0  0  0  0  2  0  0  0  0  0  0
  192.6860  176.7140  139.1170 C   0  0  0  0  0  3  0  0  0  0  0  0
  193.5580  177.0560  138.3340 O   0  0  0  0  0  0  0  0  0  0  0  0
  187.7020  178.0290  147.2320 O   0  0  0  0  0  0  0  0  0  0  0  0
  189.2380  176.2370  147.6700 O   0  0  0  0  0  0  0  0  0  0  0  0
  188.8140  177.5310  147.8810 N   0  0  0  0  0  0  0  0  0  0  0  0
  189.4340  178.2550  148.6880 O   0  0  0  0  0  0  0  0  0  0  0  0
  1  4  1  6  0  0  0
  1  2  1  0  0  0  0
  2 25  1  1  0  0  0
  3  1  1  0  0  0  0
  3  2  1  0  0  0  0
  5  6  1  6  0  0  0
  5  4  1  0  0  0  0
  7  5  1  1  0  0  0
  8  9  1  0  0  0  0
  9  7  1  6  0  0  0
  9 12  1  0  0  0  0
 10 12  1  0  0  0  0
 10 14  1  0  0  0  0
 11 10  1  0  0  0  0
 11 14  1  0  0  0  0
 13  8  1  0  0  0  0
 13 10  1  0  0  0  0
 16 15  1  0  0  0  0
 16  7  1  6  0  0  0
 17 20  1  6  0  0  0
 17 15  1  0  0  0  0
 18 16  1  0  0  0  0
 19 18  1  0  0  0  0
 19 17  1  0  0  0  0
 20 21  1  0  0  0  0
 21 23  1  0  0  0  0
 21 22  1  0  0  0  0
 23 22  1  0  0  0  0
 24 21  1  0  0  0  0
 25 29  1  0  0  0  0
 26 29  1  0  0  0  0
 28 30  1  0  0  0  0
 28 27  2  0  0  0  0
 29 28  1  0  0  0  0
 30 31  1  6  0  0  0
 30 43  1  0  0  0  0
 32 37  1  0  0  0  0
 32 35  1  0  0  0  0
 34 33  1  0  0  0  0
 34 31  1  1  0  0  0
 35 38  1  0  0  0  0
 36 37  2  0  0  0  0
 37 34  1  0  0  0  0
 38 33  1  0  0  0  0
 39 32  1  0  0  0  0
 40 39  1  0  0  0  0
 41 40  1  0  0  0  0
 42 41  2  0  0  0  0
 43 45  1  0  0  0  0
 44 45  2  0  0  0  0
 45 46  2  0  0  0  0
M  END
>  <MODEL>
9

>  <REMARK>
 VINA RESULT:      -6.4      2.435      6.764
  Name = 
  17 active torsions:
  status: ('A' for Active; 'I' for Inactive)
    1  A    between atoms: C_1  and  C_43
    2  A    between atoms: C_4  and  C_12
    3  A    between atoms: C_4  and  C_13
    4  A    between atoms: C_4  and  C_16
    5  A    between atoms: C_5  and  N_38
    6  A    between atoms: C_6  and  C_45
    7  A    between atoms: N_7  and  O_9
    8  A    between atoms: O_9  and  C_42
    9  A    between atoms: C_13  and  C_45
   10  A    between atoms: C_14  and  C_25
   11  A    between atoms: C_14  and  C_42
   12  A    between atoms: N_15  and  C_36
   13  A    between atoms: C_17  and  N_30
   14  A    between atoms: C_20  and  N_38
   15  A    between atoms: C_27  and  C_42
   16  A    between atoms: N_30  and  N_41
   17  A    between atoms: C_36  and  C_43
                            x       y       z     vdW  Elec       q    Type
                         _______ _______ _______ _____ _____    ______ ____

>  <TORSDO>
F 17

$$$$
