=
 OpenBabel11062417173D

 26 29  0  0  1  0  0  0  0  0999 V2000
  188.5420  178.3080  141.3080 C   0  0  2  0  0  3  0  0  0  0  0  0
  189.2850  178.4160  143.7480 C   0  0  0  0  0  2  0  0  0  0  0  0
  191.9870  176.6690  145.4960 O   0  0  0  0  0  0  0  0  0  0  0  0
  189.3240  176.0720  144.4070 O   0  0  0  0  0  0  0  0  0  0  0  0
  191.6920  176.7110  143.0380 C   0  0  0  0  0  2  0  0  0  0  0  0
  189.4810  175.6860  143.0350 C   0  0  0  0  0  2  0  0  0  0  0  0
  189.9020  177.3530  144.6710 C   0  0  2  0  0  0  0  0  0  0  0  0
  190.5890  176.2100  140.9540 F   0  0  0  0  0  0  0  0  0  0  0  0
  190.3730  176.6580  142.2430 C   0  0  2  0  0  0  0  0  0  0  0  0
  189.8730  177.6420  146.1330 C   0  0  0  0  0  2  0  0  0  0  0  0
  191.2090  177.0590  146.6120 C   0  0  0  0  0  2  0  0  0  0  0  0
  191.3970  177.3340  144.4180 C   0  0  1  0  0  3  0  0  0  0  0  0
  189.6980  178.0680  142.2910 C   0  0  1  0  0  3  0  0  0  0  0  0
  187.2830  177.7610  141.7990 N   0  0  0  0  0  2  0  0  0  0  0  0
  186.3970  178.7840  141.8590 O   0  0  0  0  0  0  0  0  0  0  0  0
  185.0410  178.8730  145.7830 C   0  0  2  0  0  3  0  0  0  0  0  0
  184.8420  179.6920  143.4390 C   0  0  0  0  0  2  0  0  0  0  0  0
  186.2840  177.6870  143.9690 C   0  0  0  0  0  3  0  0  0  0  0  0
  184.0650  179.3340  144.7000 C   0  0  0  0  0  2  0  0  0  0  0  0
  186.0260  177.8480  145.2770 C   0  0  0  0  0  3  0  0  0  0  0  0
  184.3340  178.3560  146.8670 O   0  0  0  0  0  1  0  0  0  0  0  0
  185.5310  178.4380  142.8980 C   0  0  2  0  0  3  0  0  0  0  0  0
  188.8740  177.7260  139.9420 C   0  0  0  0  0  2  0  0  0  0  0  0
  188.2960  178.5690  138.8560 C   0  0  0  0  0  0  0  0  0  0  0  0
  189.0260  179.3860  138.2330 O   0  0  0  0  0  0  0  0  0  0  0  0
  186.9450  178.4780  138.5560 O   0  0  0  0  0  1  0  0  0  0  0  0
  1 23  1  6  0  0  0
  1 14  1  0  0  0  0
  3 11  1  0  0  0  0
  4  7  1  0  0  0  0
  6  4  1  0  0  0  0
  7  2  1  6  0  0  0
  7 10  1  0  0  0  0
  9  8  1  6  0  0  0
  9 13  1  0  0  0  0
  9  6  1  0  0  0  0
  9  5  1  0  0  0  0
 10 11  1  0  0  0  0
 12  5  1  6  0  0  0
 12  7  1  0  0  0  0
 12  3  1  0  0  0  0
 13  1  1  6  0  0  0
 13  2  1  0  0  0  0
 14 15  1  0  0  0  0
 16 21  1  1  0  0  0
 17 19  1  0  0  0  0
 18 20  2  0  0  0  0
 19 16  1  0  0  0  0
 20 16  1  0  0  0  0
 22 15  1  6  0  0  0
 22 17  1  0  0  0  0
 22 18  1  0  0  0  0
 24 23  1  0  0  0  0
 25 24  2  0  0  0  0
 26 24  1  0  0  0  0
M  END
>  <MODEL>
1

>  <REMARK>
 VINA RESULT:      -7.9      0.000      0.000
  Name = 
  6 active torsions:
  status: ('A' for Active; 'I' for Inactive)
    1  A    between atoms: O_2  and  N_16
    2  A    between atoms: O_2  and  C_26
    3  A    between atoms: C_6  and  C_20
    4  A    between atoms: C_8  and  N_16
    5  A    between atoms: C_8  and  C_20
    6  A    between atoms: C_8  and  C_25
                            x       y       z     vdW  Elec       q    Type
                         _______ _______ _______ _____ _____    ______ ____

>  <TORSDO>
F 6

$$$$
=
 OpenBabel11062417173D

 26 29  0  0  1  0  0  0  0  0999 V2000
  187.4720  177.6010  145.6180 C   0  0  2  0  0  3  0  0  0  0  0  0
  189.7210  177.8940  144.4450 C   0  0  0  0  0  2  0  0  0  0  0  0
  190.6220  177.6030  140.9090 O   0  0  0  0  0  0  0  0  0  0  0  0
  189.9320  175.8400  143.1550 O   0  0  0  0  0  0  0  0  0  0  0  0
  188.3030  177.6630  141.7740 C   0  0  0  0  0  2  0  0  0  0  0  0
  188.5080  175.6790  143.1740 C   0  0  0  0  0  2  0  0  0  0  0  0
  190.3160  177.2170  143.2010 C   0  0  2  0  0  0  0  0  0  0  0  0
  186.3910  176.8270  142.9810 F   0  0  0  0  0  0  0  0  0  0  0  0
  187.7580  177.0170  143.0630 C   0  0  2  0  0  0  0  0  0  0  0  0
  191.7870  177.3520  143.0060 C   0  0  0  0  0  2  0  0  0  0  0  0
  191.9090  177.4770  141.4820 C   0  0  0  0  0  2  0  0  0  0  0  0
  189.8020  177.9600  141.9830 C   0  0  1  0  0  3  0  0  0  0  0  0
  188.1760  177.8990  144.2850 C   0  0  1  0  0  3  0  0  0  0  0  0
  186.0510  177.9240  145.5700 N   0  0  0  0  0  2  0  0  0  0  0  0
  185.9430  179.2710  145.6710 O   0  0  0  0  0  0  0  0  0  0  0  0
  183.0380  178.5360  142.7960 C   0  0  2  0  0  3  0  0  0  0  0  0
  183.6980  178.5830  145.1970 C   0  0  0  0  0  2  0  0  0  0  0  0
  185.1750  179.6540  143.4510 C   0  0  0  0  0  3  0  0  0  0  0  0
  182.5530  178.8130  144.2190 C   0  0  0  0  0  2  0  0  0  0  0  0
  184.3470  179.2220  142.4870 C   0  0  0  0  0  3  0  0  0  0  0  0
  182.0670  178.9330  141.8790 O   0  0  0  0  0  1  0  0  0  0  0  0
  184.8140  179.5900  144.9150 C   0  0  2  0  0  3  0  0  0  0  0  0
  188.1470  178.3490  146.7570 C   0  0  0  0  0  2  0  0  0  0  0  0
  188.4500  177.4250  147.8870 C   0  0  0  0  0  0  0  0  0  0  0  0
  189.0770  176.3530  147.6770 O   0  0  0  0  0  0  0  0  0  0  0  0
  188.0110  177.7330  149.1660 O   0  0  0  0  0  1  0  0  0  0  0  0
  1 23  1  1  0  0  0
  3 11  1  0  0  0  0
  3 12  1  0  0  0  0
  4  6  1  0  0  0  0
  4  7  1  0  0  0  0
  5  9  1  0  0  0  0
  7 10  1  1  0  0  0
  7  2  1  0  0  0  0
  9  8  1  6  0  0  0
  9  6  1  0  0  0  0
  9 13  1  0  0  0  0
 11 10  1  0  0  0  0
 12  5  1  6  0  0  0
 12  7  1  0  0  0  0
 13  2  1  0  0  0  0
 13  1  1  1  0  0  0
 14  1  1  0  0  0  0
 14 15  1  0  0  0  0
 16 21  1  6  0  0  0
 16 19  1  0  0  0  0
 18 22  1  0  0  0  0
 19 17  1  0  0  0  0
 20 16  1  0  0  0  0
 20 18  2  0  0  0  0
 22 17  1  0  0  0  0
 22 15  1  1  0  0  0
 23 24  1  0  0  0  0
 24 26  1  0  0  0  0
 25 24  2  0  0  0  0
M  END
>  <MODEL>
2

>  <REMARK>
 VINA RESULT:      -7.8      2.345      4.799
  Name = 
  6 active torsions:
  status: ('A' for Active; 'I' for Inactive)
    1  A    between atoms: O_2  and  N_16
    2  A    between atoms: O_2  and  C_26
    3  A    between atoms: C_6  and  C_20
    4  A    between atoms: C_8  and  N_16
    5  A    between atoms: C_8  and  C_20
    6  A    between atoms: C_8  and  C_25
                            x       y       z     vdW  Elec       q    Type
                         _______ _______ _______ _____ _____    ______ ____

>  <TORSDO>
F 6

$$$$
=
 OpenBabel11062417173D

 26 29  0  0  1  0  0  0  0  0999 V2000
  187.5300  177.0910  145.3840 C   0  0  2  0  0  3  0  0  0  0  0  0
  187.8390  177.2630  142.8550 C   0  0  0  0  0  2  0  0  0  0  0  0
  190.7990  176.7060  140.7730 O   0  0  0  0  0  0  0  0  0  0  0  0
  189.7740  178.7260  142.6450 O   0  0  0  0  0  0  0  0  0  0  0  0
  190.6240  176.1010  143.1670 C   0  0  0  0  0  2  0  0  0  0  0  0
  190.1960  178.3630  143.9660 C   0  0  0  0  0  2  0  0  0  0  0  0
  189.0520  177.6710  142.0050 C   0  0  2  0  0  0  0  0  0  0  0  0
  190.4260  176.5370  145.5300 F   0  0  0  0  0  0  0  0  0  0  0  0
  189.9200  176.8850  144.2920 C   0  0  2  0  0  0  0  0  0  0  0  0
  188.7830  178.0170  140.5800 C   0  0  0  0  0  2  0  0  0  0  0  0
  190.0210  177.4620  139.8640 C   0  0  0  0  0  2  0  0  0  0  0  0
  189.9280  176.4440  141.8340 C   0  0  1  0  0  3  0  0  0  0  0  0
  188.3780  176.6540  144.1790 C   0  0  1  0  0  3  0  0  0  0  0  0
  186.2080  177.5570  144.9820 N   0  0  0  0  0  2  0  0  0  0  0  0
  186.1190  178.8620  145.3350 O   0  0  0  0  0  0  0  0  0  0  0  0
  182.8590  178.4900  142.7900 C   0  0  2  0  0  3  0  0  0  0  0  0
  183.7450  178.6290  145.1140 C   0  0  0  0  0  2  0  0  0  0  0  0
  185.2330  179.1820  143.1490 C   0  0  0  0  0  3  0  0  0  0  0  0
  182.5810  179.0030  144.2040 C   0  0  0  0  0  2  0  0  0  0  0  0
  184.2430  178.8450  142.3060 C   0  0  0  0  0  3  0  0  0  0  0  0
  181.9050  178.9950  141.9090 O   0  0  0  0  0  1  0  0  0  0  0  0
  185.0110  179.3410  144.6340 C   0  0  2  0  0  3  0  0  0  0  0  0
  188.2500  178.1670  146.1810 C   0  0  0  0  0  2  0  0  0  0  0  0
  188.5130  177.7030  147.5740 C   0  0  0  0  0  0  0  0  0  0  0  0
  188.0810  176.5840  147.9610 O   0  0  0  0  0  0  0  0  0  0  0  0
  189.2050  178.5200  148.4550 O   0  0  0  0  0  1  0  0  0  0  0  0
  1 23  1  6  0  0  0
  2 13  1  0  0  0  0
  3 12  1  0  0  0  0
  4  6  1  0  0  0  0
  5  9  1  0  0  0  0
  6  9  1  0  0  0  0
  7 10  1  6  0  0  0
  7  4  1  0  0  0  0
  7  2  1  0  0  0  0
  9  8  1  1  0  0  0
 11 10  1  0  0  0  0
 11  3  1  0  0  0  0
 12  7  1  0  0  0  0
 12  5  1  1  0  0  0
 13  9  1  0  0  0  0
 13  1  1  1  0  0  0
 14 15  1  0  0  0  0
 14  1  1  0  0  0  0
 16 21  1  6  0  0  0
 16 19  1  0  0  0  0
 18 22  1  0  0  0  0
 19 17  1  0  0  0  0
 20 16  1  0  0  0  0
 20 18  2  0  0  0  0
 22 17  1  0  0  0  0
 22 15  1  1  0  0  0
 23 24  1  0  0  0  0
 24 25  2  0  0  0  0
 24 26  1  0  0  0  0
M  END
>  <MODEL>
3

>  <REMARK>
 VINA RESULT:      -7.8      2.431      4.871
  Name = 
  6 active torsions:
  status: ('A' for Active; 'I' for Inactive)
    1  A    between atoms: O_2  and  N_16
    2  A    between atoms: O_2  and  C_26
    3  A    between atoms: C_6  and  C_20
    4  A    between atoms: C_8  and  N_16
    5  A    between atoms: C_8  and  C_20
    6  A    between atoms: C_8  and  C_25
                            x       y       z     vdW  Elec       q    Type
                         _______ _______ _______ _____ _____    ______ ____

>  <TORSDO>
F 6

$$$$
=
 OpenBabel11062417173D

 26 29  0  0  1  0  0  0  0  0999 V2000
  189.2620  177.1120  145.5370 C   0  0  2  0  0  3  0  0  0  0  0  0
  190.7760  177.8170  143.6050 C   0  0  0  0  0  2  0  0  0  0  0  0
  190.4240  177.3170  139.9950 O   0  0  0  0  0  0  0  0  0  0  0  0
  191.0960  175.7370  142.3800 O   0  0  0  0  0  0  0  0  0  0  0  0
  188.6410  176.8940  141.6590 C   0  0  0  0  0  2  0  0  0  0  0  0
  189.8770  175.2220  142.9300 C   0  0  0  0  0  2  0  0  0  0  0  0
  191.0630  177.1600  142.2460 C   0  0  2  0  0  0  0  0  0  0  0  0
  187.5940  175.7590  143.5100 F   0  0  0  0  0  0  0  0  0  0  0  0
  188.7880  176.3000  143.0730 C   0  0  2  0  0  0  0  0  0  0  0  0
  192.2710  177.6390  141.5150 C   0  0  0  0  0  2  0  0  0  0  0  0
  191.8110  177.5970  140.0520 C   0  0  0  0  0  2  0  0  0  0  0  0
  189.9670  177.5870  141.2880 C   0  0  1  0  0  3  0  0  0  0  0  0
  189.3390  177.4070  144.0300 C   0  0  1  0  0  3  0  0  0  0  0  0
  187.9690  177.4790  146.1000 N   0  0  0  0  0  2  0  0  0  0  0  0
  187.4710  178.4840  145.3410 O   0  0  0  0  0  0  0  0  0  0  0  0
  183.4860  179.0820  144.3370 C   0  0  2  0  0  3  0  0  0  0  0  0
  185.8160  178.5830  143.6120 C   0  0  0  0  0  2  0  0  0  0  0  0
  185.2020  178.5080  146.0600 C   0  0  0  0  0  3  0  0  0  0  0  0
  184.3430  178.3000  143.3420 C   0  0  0  0  0  2  0  0  0  0  0  0
  183.9610  178.9220  145.7610 C   0  0  0  0  0  3  0  0  0  0  0  0
  182.1560  178.6810  144.2330 O   0  0  0  0  0  1  0  0  0  0  0  0
  186.1830  178.0650  145.0030 C   0  0  2  0  0  3  0  0  0  0  0  0
  190.3830  177.8230  146.2780 C   0  0  0  0  0  2  0  0  0  0  0  0
  191.3720  176.8400  146.8070 C   0  0  0  0  0  0  0  0  0  0  0  0
  191.7510  175.8760  146.0900 O   0  0  0  0  0  0  0  0  0  0  0  0
  191.8490  176.9700  148.1030 O   0  0  0  0  0  1  0  0  0  0  0  0
  1 14  1  0  0  0  0
  1 23  1  1  0  0  0
  2 13  1  0  0  0  0
  3 11  1  0  0  0  0
  3 12  1  0  0  0  0
  4  6  1  0  0  0  0
  5  9  1  0  0  0  0
  6  9  1  0  0  0  0
  7 10  1  6  0  0  0
  7  4  1  0  0  0  0
  7  2  1  0  0  0  0
  9  8  1  1  0  0  0
  9 13  1  0  0  0  0
 11 10  1  0  0  0  0
 12  5  1  1  0  0  0
 12  7  1  0  0  0  0
 13  1  1  1  0  0  0
 15 14  1  0  0  0  0
 16 21  1  1  0  0  0
 16 20  1  0  0  0  0
 17 22  1  0  0  0  0
 19 17  1  0  0  0  0
 19 16  1  0  0  0  0
 20 18  2  0  0  0  0
 22 15  1  1  0  0  0
 22 18  1  0  0  0  0
 23 24  1  0  0  0  0
 24 26  1  0  0  0  0
 25 24  2  0  0  0  0
M  END
>  <MODEL>
4

>  <REMARK>
 VINA RESULT:      -7.8      2.149      4.702
  Name = 
  6 active torsions:
  status: ('A' for Active; 'I' for Inactive)
    1  A    between atoms: O_2  and  N_16
    2  A    between atoms: O_2  and  C_26
    3  A    between atoms: C_6  and  C_20
    4  A    between atoms: C_8  and  N_16
    5  A    between atoms: C_8  and  C_20
    6  A    between atoms: C_8  and  C_25
                            x       y       z     vdW  Elec       q    Type
                         _______ _______ _______ _____ _____    ______ ____

>  <TORSDO>
F 6

$$$$
=
 OpenBabel11062417173D

 26 29  0  0  1  0  0  0  0  0999 V2000
  188.7560  178.4140  141.8910 C   0  0  2  0  0  3  0  0  0  0  0  0
  189.7380  176.3620  143.0500 C   0  0  0  0  0  2  0  0  0  0  0  0
  192.1040  176.0990  145.8310 O   0  0  0  0  0  0  0  0  0  0  0  0
  192.1330  176.7920  142.9770 O   0  0  0  0  0  0  0  0  0  0  0  0
  190.9850  178.1900  145.1240 C   0  0  0  0  0  2  0  0  0  0  0  0
  191.8800  178.1970  142.8570 C   0  0  0  0  0  2  0  0  0  0  0  0
  191.1040  176.1230  143.7110 C   0  0  2  0  0  0  0  0  0  0  0  0
  190.5080  180.0270  143.6370 F   0  0  0  0  0  0  0  0  0  0  0  0
  190.6690  178.6550  143.6890 C   0  0  2  0  0  0  0  0  0  0  0  0
  191.4860  174.7040  143.9620 C   0  0  0  0  0  2  0  0  0  0  0  0
  192.2350  174.7940  145.2980 C   0  0  0  0  0  2  0  0  0  0  0  0
  191.0270  176.6490  145.1310 C   0  0  1  0  0  3  0  0  0  0  0  0
  189.4160  177.8770  143.1710 C   0  0  1  0  0  3  0  0  0  0  0  0
  187.3740  178.8200  142.1180 N   0  0  0  0  0  2  0  0  0  0  0  0
  186.6110  177.7030  142.0440 O   0  0  0  0  0  0  0  0  0  0  0  0
  185.5120  179.0580  145.8120 C   0  0  2  0  0  3  0  0  0  0  0  0
  185.2700  179.2070  143.3380 C   0  0  0  0  0  2  0  0  0  0  0  0
  186.4990  177.2630  144.3810 C   0  0  0  0  0  3  0  0  0  0  0  0
  184.5330  179.3190  144.6680 C   0  0  0  0  0  2  0  0  0  0  0  0
  186.3400  177.8150  145.5950 C   0  0  0  0  0  3  0  0  0  0  0  0
  184.8170  178.9600  147.0160 O   0  0  0  0  0  1  0  0  0  0  0  0
  185.7750  177.7750  143.1590 C   0  0  2  0  0  3  0  0  0  0  0  0
  188.8280  177.3800  140.7790 C   0  0  0  0  0  2  0  0  0  0  0  0
  189.4260  177.9710  139.5480 C   0  0  0  0  0  0  0  0  0  0  0  0
  188.8560  178.9320  138.9660 O   0  0  0  0  0  0  0  0  0  0  0  0
  190.5950  177.4390  139.0240 O   0  0  0  0  0  1  0  0  0  0  0  0
  1 23  1  6  0  0  0
  1 14  1  0  0  0  0
  2 13  1  0  0  0  0
  4  7  1  0  0  0  0
  6  4  1  0  0  0  0
  6  9  1  0  0  0  0
  7  2  1  6  0  0  0
  7 10  1  0  0  0  0
  7 12  1  0  0  0  0
  9  8  1  6  0  0  0
  9  5  1  0  0  0  0
 10 11  1  0  0  0  0
 11  3  1  0  0  0  0
 12  5  1  6  0  0  0
 12  3  1  0  0  0  0
 13  1  1  6  0  0  0
 13  9  1  0  0  0  0
 15 14  1  0  0  0  0
 16 21  1  1  0  0  0
 17 19  1  0  0  0  0
 18 20  2  0  0  0  0
 19 16  1  0  0  0  0
 20 16  1  0  0  0  0
 22 15  1  6  0  0  0
 22 17  1  0  0  0  0
 22 18  1  0  0  0  0
 24 23  1  0  0  0  0
 25 24  2  0  0  0  0
 26 24  1  0  0  0  0
M  END
>  <MODEL>
5

>  <REMARK>
 VINA RESULT:      -7.5      1.582      2.117
  Name = 
  6 active torsions:
  status: ('A' for Active; 'I' for Inactive)
    1  A    between atoms: O_2  and  N_16
    2  A    between atoms: O_2  and  C_26
    3  A    between atoms: C_6  and  C_20
    4  A    between atoms: C_8  and  N_16
    5  A    between atoms: C_8  and  C_20
    6  A    between atoms: C_8  and  C_25
                            x       y       z     vdW  Elec       q    Type
                         _______ _______ _______ _____ _____    ______ ____

>  <TORSDO>
F 6

$$$$
=
 OpenBabel11062417173D

 26 29  0  0  1  0  0  0  0  0999 V2000
  189.5800  177.9490  139.9000 C   0  0  2  0  0  3  0  0  0  0  0  0
  188.1490  177.8950  142.0140 C   0  0  0  0  0  2  0  0  0  0  0  0
  189.1130  177.7450  145.5420 O   0  0  0  0  0  0  0  0  0  0  0  0
  189.0210  175.9620  143.2100 O   0  0  0  0  0  0  0  0  0  0  0  0
  190.6720  178.1860  143.6710 C   0  0  0  0  0  2  0  0  0  0  0  0
  190.2640  176.0840  142.5070 C   0  0  0  0  0  2  0  0  0  0  0  0
  188.3750  177.2260  143.3780 C   0  0  2  0  0  0  0  0  0  0  0  0
  191.9160  177.6410  141.6800 F   0  0  0  0  0  0  0  0  0  0  0  0
  190.6690  177.5490  142.2680 C   0  0  2  0  0  0  0  0  0  0  0  0
  187.1800  177.0840  144.2580 C   0  0  0  0  0  2  0  0  0  0  0  0
  187.7690  177.3160  145.6560 C   0  0  0  0  0  2  0  0  0  0  0  0
  189.2290  178.1610  144.2130 C   0  0  1  0  0  3  0  0  0  0  0  0
  189.5440  178.2190  141.4130 C   0  0  1  0  0  3  0  0  0  0  0  0
  188.4810  178.6040  139.2010 N   0  0  0  0  0  2  0  0  0  0  0  0
  189.0150  179.2680  138.1480 O   0  0  0  0  0  0  0  0  0  0  0  0
  187.1470  176.4030  135.7940 C   0  0  2  0  0  3  0  0  0  0  0  0
  186.9700  178.1890  137.5200 C   0  0  0  0  0  2  0  0  0  0  0  0
  189.1050  177.8990  136.2020 C   0  0  0  0  0  3  0  0  0  0  0  0
  186.2730  177.5350  136.3340 C   0  0  0  0  0  2  0  0  0  0  0  0
  188.5820  176.8240  135.5920 C   0  0  0  0  0  3  0  0  0  0  0  0
  186.6190  175.9300  134.5940 O   0  0  0  0  0  1  0  0  0  0  0  0
  188.2740  178.8340  137.0470 C   0  0  2  0  0  3  0  0  0  0  0  0
  189.5660  176.4540  139.6250 C   0  0  0  0  0  2  0  0  0  0  0  0
  190.7340  176.0620  138.7840 C   0  0  0  0  0  0  0  0  0  0  0  0
  191.7090  176.8490  138.6500 O   0  0  0  0  0  1  0  0  0  0  0  0
  190.7300  174.8440  138.1220 O   0  0  0  0  0  0  0  0  0  0  0  0
  1 23  1  1  0  0  0
  3 11  1  0  0  0  0
  4  7  1  0  0  0  0
  6  4  1  0  0  0  0
  7  2  1  6  0  0  0
  7 12  1  0  0  0  0
  7 10  1  0  0  0  0
  9  8  1  6  0  0  0
  9  6  1  0  0  0  0
  9  5  1  0  0  0  0
 10 11  1  0  0  0  0
 12  5  1  6  0  0  0
 12  3  1  0  0  0  0
 13  1  1  6  0  0  0
 13  2  1  0  0  0  0
 13  9  1  0  0  0  0
 14  1  1  0  0  0  0
 15 14  1  0  0  0  0
 16 21  1  6  0  0  0
 16 19  1  0  0  0  0
 18 22  1  0  0  0  0
 19 17  1  0  0  0  0
 20 16  1  0  0  0  0
 20 18  2  0  0  0  0
 22 17  1  0  0  0  0
 22 15  1  1  0  0  0
 24 23  1  0  0  0  0
 25 24  1  0  0  0  0
 26 24  2  0  0  0  0
M  END
>  <MODEL>
6

>  <REMARK>
 VINA RESULT:      -7.3      2.457      5.378
  Name = 
  6 active torsions:
  status: ('A' for Active; 'I' for Inactive)
    1  A    between atoms: O_2  and  N_16
    2  A    between atoms: O_2  and  C_26
    3  A    between atoms: C_6  and  C_20
    4  A    between atoms: C_8  and  N_16
    5  A    between atoms: C_8  and  C_20
    6  A    between atoms: C_8  and  C_25
                            x       y       z     vdW  Elec       q    Type
                         _______ _______ _______ _____ _____    ______ ____

>  <TORSDO>
F 6

$$$$
=
 OpenBabel11062417173D

 26 29  0  0  1  0  0  0  0  0999 V2000
  188.8620  176.7880  145.3270 C   0  0  2  0  0  3  0  0  0  0  0  0
  188.6870  176.7200  142.7800 C   0  0  0  0  0  2  0  0  0  0  0  0
  191.1850  177.4250  140.1990 O   0  0  0  0  0  0  0  0  0  0  0  0
  189.5280  178.9070  142.1200 O   0  0  0  0  0  0  0  0  0  0  0  0
  191.6810  177.1720  142.6110 C   0  0  0  0  0  2  0  0  0  0  0  0
  190.2540  179.0030  143.3520 C   0  0  0  0  0  2  0  0  0  0  0  0
  189.3800  177.5510  141.6900 C   0  0  2  0  0  0  0  0  0  0  0  0
  191.6120  177.7910  144.9400 F   0  0  0  0  0  0  0  0  0  0  0  0
  190.8340  177.6530  143.8060 C   0  0  2  0  0  0  0  0  0  0  0  0
  188.7770  177.5030  140.3280 C   0  0  0  0  0  2  0  0  0  0  0  0
  190.0110  177.5460  139.4180 C   0  0  0  0  0  2  0  0  0  0  0  0
  190.7330  176.9200  141.4210 C   0  0  1  0  0  3  0  0  0  0  0  0
  189.6390  176.6650  144.0060 C   0  0  1  0  0  3  0  0  0  0  0  0
  187.4210  176.7140  145.1220 N   0  0  0  0  0  2  0  0  0  0  0  0
  186.9650  177.9850  145.0140 O   0  0  0  0  0  0  0  0  0  0  0  0
  183.3100  179.4240  143.6650 C   0  0  2  0  0  3  0  0  0  0  0  0
  185.6020  178.6020  143.1420 C   0  0  0  0  0  2  0  0  0  0  0  0
  184.6540  178.3340  145.4680 C   0  0  0  0  0  3  0  0  0  0  0  0
  184.1540  178.6300  142.6680 C   0  0  0  0  0  2  0  0  0  0  0  0
  183.5520  179.0030  145.0940 C   0  0  0  0  0  3  0  0  0  0  0  0
  181.9590  179.2900  143.3530 O   0  0  0  0  0  1  0  0  0  0  0  0
  185.6840  177.8540  144.4740 C   0  0  2  0  0  3  0  0  0  0  0  0
  189.2290  178.0790  146.0420 C   0  0  0  0  0  2  0  0  0  0  0  0
  189.5530  177.8140  147.4740 C   0  0  0  0  0  0  0  0  0  0  0  0
  190.5640  177.1250  147.7770 O   0  0  0  0  0  0  0  0  0  0  0  0
  188.7200  178.2980  148.4710 O   0  0  0  0  0  1  0  0  0  0  0  0
  1 23  1  6  0  0  0
  2 13  1  0  0  0  0
  3 12  1  0  0  0  0
  4  6  1  0  0  0  0
  5  9  1  0  0  0  0
  6  9  1  0  0  0  0
  7 10  1  6  0  0  0
  7  4  1  0  0  0  0
  7  2  1  0  0  0  0
  9 13  1  0  0  0  0
  9  8  1  1  0  0  0
 11  3  1  0  0  0  0
 11 10  1  0  0  0  0
 12  7  1  0  0  0  0
 12  5  1  1  0  0  0
 13  1  1  1  0  0  0
 14  1  1  0  0  0  0
 15 14  1  0  0  0  0
 16 21  1  6  0  0  0
 16 20  1  0  0  0  0
 17 22  1  0  0  0  0
 19 17  1  0  0  0  0
 19 16  1  0  0  0  0
 20 18  2  0  0  0  0
 22 15  1  1  0  0  0
 22 18  1  0  0  0  0
 23 24  1  0  0  0  0
 24 25  2  0  0  0  0
 24 26  1  0  0  0  0
M  END
>  <MODEL>
7

>  <REMARK>
 VINA RESULT:      -7.3      2.237      4.797
  Name = 
  6 active torsions:
  status: ('A' for Active; 'I' for Inactive)
    1  A    between atoms: O_2  and  N_16
    2  A    between atoms: O_2  and  C_26
    3  A    between atoms: C_6  and  C_20
    4  A    between atoms: C_8  and  N_16
    5  A    between atoms: C_8  and  C_20
    6  A    between atoms: C_8  and  C_25
                            x       y       z     vdW  Elec       q    Type
                         _______ _______ _______ _____ _____    ______ ____

>  <TORSDO>
F 6

$$$$
=
 OpenBabel11062417173D

 26 29  0  0  1  0  0  0  0  0999 V2000
  186.0550  178.0360  144.3010 C   0  0  2  0  0  3  0  0  0  0  0  0
  188.4290  177.8780  145.2270 C   0  0  0  0  0  2  0  0  0  0  0  0
  191.6580  177.7800  143.5040 O   0  0  0  0  0  0  0  0  0  0  0  0
  189.3700  176.0030  143.9900 O   0  0  0  0  0  0  0  0  0  0  0  0
  189.4990  178.3310  142.4260 C   0  0  0  0  0  2  0  0  0  0  0  0
  188.4140  176.2110  142.9430 C   0  0  0  0  0  2  0  0  0  0  0  0
  189.6990  177.2200  144.6640 C   0  0  2  0  0  0  0  0  0  0  0  0
  187.2740  177.8780  141.6160 F   0  0  0  0  0  0  0  0  0  0  0  0
  188.1190  177.7010  142.6960 C   0  0  2  0  0  0  0  0  0  0  0  0
  190.8160  176.9950  145.6240 C   0  0  0  0  0  2  0  0  0  0  0  0
  192.0550  177.2620  144.7600 C   0  0  0  0  0  2  0  0  0  0  0  0
  190.3440  178.2070  143.7100 C   0  0  1  0  0  3  0  0  0  0  0  0
  187.5430  178.2970  144.0220 C   0  0  1  0  0  3  0  0  0  0  0  0
  185.2400  179.2240  144.0780 N   0  0  0  0  0  2  0  0  0  0  0  0
  185.0570  179.3390  142.7400 O   0  0  0  0  0  0  0  0  0  0  0  0
  181.1820  178.6650  141.4080 C   0  0  2  0  0  3  0  0  0  0  0  0
  183.6320  178.5760  140.9720 C   0  0  0  0  0  2  0  0  0  0  0  0
  182.7700  178.9980  143.3080 C   0  0  0  0  0  3  0  0  0  0  0  0
  182.2990  177.8820  140.7180 C   0  0  0  0  0  2  0  0  0  0  0  0
  181.5110  179.0040  142.8410 C   0  0  0  0  0  3  0  0  0  0  0  0
  179.9940  177.9390  141.3540 O   0  0  0  0  0  1  0  0  0  0  0  0
  183.9410  178.5450  142.4700 C   0  0  2  0  0  3  0  0  0  0  0  0
  185.8610  177.5200  145.7180 C   0  0  0  0  0  2  0  0  0  0  0  0
  185.1900  178.5470  146.5650 C   0  0  0  0  0  0  0  0  0  0  0  0
  185.8770  179.3210  147.2850 O   0  0  0  0  0  1  0  0  0  0  0  0
  183.8060  178.6280  146.5860 O   0  0  0  0  0  0  0  0  0  0  0  0
  1 23  1  1  0  0  0
  3 12  1  0  0  0  0
  3 11  1  0  0  0  0
  4  7  1  0  0  0  0
  5  9  1  0  0  0  0
  6  4  1  0  0  0  0
  7  2  1  1  0  0  0
  7 10  1  0  0  0  0
  9  8  1  6  0  0  0
  9  6  1  0  0  0  0
  9 13  1  0  0  0  0
 11 10  1  0  0  0  0
 12  5  1  6  0  0  0
 12  7  1  0  0  0  0
 13  1  1  1  0  0  0
 13  2  1  0  0  0  0
 14  1  1  0  0  0  0
 15 14  1  0  0  0  0
 16 21  1  1  0  0  0
 16 20  1  0  0  0  0
 17 22  1  0  0  0  0
 19 17  1  0  0  0  0
 19 16  1  0  0  0  0
 20 18  2  0  0  0  0
 22 15  1  6  0  0  0
 22 18  1  0  0  0  0
 23 24  1  0  0  0  0
 24 26  2  0  0  0  0
 24 25  1  0  0  0  0
M  END
>  <MODEL>
8

>  <REMARK>
 VINA RESULT:      -7.2      2.409      4.472
  Name = 
  6 active torsions:
  status: ('A' for Active; 'I' for Inactive)
    1  A    between atoms: O_2  and  N_16
    2  A    between atoms: O_2  and  C_26
    3  A    between atoms: C_6  and  C_20
    4  A    between atoms: C_8  and  N_16
    5  A    between atoms: C_8  and  C_20
    6  A    between atoms: C_8  and  C_25
                            x       y       z     vdW  Elec       q    Type
                         _______ _______ _______ _____ _____    ______ ____

>  <TORSDO>
F 6

$$$$
=
 OpenBabel11062417173D

 26 29  0  0  1  0  0  0  0  0999 V2000
  185.7420  178.2790  143.4460 C   0  0  2  0  0  3  0  0  0  0  0  0
  187.6550  177.9920  145.1130 C   0  0  0  0  0  2  0  0  0  0  0  0
  191.2660  177.7250  144.5740 O   0  0  0  0  0  0  0  0  0  0  0  0
  188.8630  176.0720  144.2270 O   0  0  0  0  0  0  0  0  0  0  0  0
  189.6270  178.3940  142.8440 C   0  0  0  0  0  2  0  0  0  0  0  0
  188.3270  176.3340  142.9230 C   0  0  0  0  0  2  0  0  0  0  0  0
  189.0060  177.2690  144.9960 C   0  0  2  0  0  0  0  0  0  0  0  0
  187.7840  178.0620  141.3250 F   0  0  0  0  0  0  0  0  0  0  0  0
  188.2070  177.8380  142.6220 C   0  0  2  0  0  0  0  0  0  0  0  0
  189.7220  176.9820  146.2720 C   0  0  0  0  0  2  0  0  0  0  0  0
  191.1910  177.1840  145.8790 C   0  0  0  0  0  2  0  0  0  0  0  0
  189.9820  178.2220  144.3340 C   0  0  1  0  0  3  0  0  0  0  0  0
  187.2490  178.4610  143.6890 C   0  0  1  0  0  3  0  0  0  0  0  0
  185.4280  178.1520  142.0280 N   0  0  0  0  0  2  0  0  0  0  0  0
  185.0110  179.3680  141.5990 O   0  0  0  0  0  0  0  0  0  0  0  0
  183.4940  176.9860  138.5550 C   0  0  2  0  0  3  0  0  0  0  0  0
  183.2690  177.9000  140.8610 C   0  0  0  0  0  2  0  0  0  0  0  0
  184.9820  178.8600  139.2740 C   0  0  0  0  0  3  0  0  0  0  0  0
  182.5050  177.4750  139.6130 C   0  0  0  0  0  2  0  0  0  0  0  0
  184.6470  177.9380  138.3570 C   0  0  0  0  0  3  0  0  0  0  0  0
  182.8320  176.7840  137.3460 O   0  0  0  0  0  1  0  0  0  0  0  0
  184.1670  179.0900  140.5230 C   0  0  2  0  0  3  0  0  0  0  0  0
  184.9600  179.4300  144.0600 C   0  0  0  0  0  2  0  0  0  0  0  0
  183.9030  178.9180  144.9790 C   0  0  0  0  0  0  0  0  0  0  0  0
  182.7470  178.6750  144.5400 O   0  0  0  0  0  0  0  0  0  0  0  0
  184.1850  178.7410  146.3250 O   0  0  0  0  0  1  0  0  0  0  0  0
  1 23  1  6  0  0  0
  3 11  1  0  0  0  0
  4  7  1  0  0  0  0
  6  4  1  0  0  0  0
  7  2  1  1  0  0  0
  7 10  1  0  0  0  0
  9  8  1  6  0  0  0
  9  5  1  0  0  0  0
  9  6  1  0  0  0  0
  9 13  1  0  0  0  0
 11 10  1  0  0  0  0
 12  5  1  6  0  0  0
 12  3  1  0  0  0  0
 12  7  1  0  0  0  0
 13  1  1  6  0  0  0
 13  2  1  0  0  0  0
 14  1  1  0  0  0  0
 15 14  1  0  0  0  0
 16 21  1  6  0  0  0
 16 19  1  0  0  0  0
 18 22  1  0  0  0  0
 19 17  1  0  0  0  0
 20 16  1  0  0  0  0
 20 18  2  0  0  0  0
 22 17  1  0  0  0  0
 22 15  1  1  0  0  0
 23 24  1  0  0  0  0
 24 26  1  0  0  0  0
 25 24  2  0  0  0  0
M  END
>  <MODEL>
9

>  <REMARK>
 VINA RESULT:      -7.2      2.410      4.746
  Name = 
  6 active torsions:
  status: ('A' for Active; 'I' for Inactive)
    1  A    between atoms: O_2  and  N_16
    2  A    between atoms: O_2  and  C_26
    3  A    between atoms: C_6  and  C_20
    4  A    between atoms: C_8  and  N_16
    5  A    between atoms: C_8  and  C_20
    6  A    between atoms: C_8  and  C_25
                            x       y       z     vdW  Elec       q    Type
                         _______ _______ _______ _____ _____    ______ ____

>  <TORSDO>
F 6

$$$$
