=
 OpenBabel11062413213D

 30 34  0  0  1  0  0  0  0  0999 V2000
  188.0730  177.8610  140.1180 C   0  0  2  0  0  3  0  0  0  0  0  0
  191.0460  177.6580  139.5030 O   0  0  0  0  0  0  0  0  0  0  0  0
  185.0230  179.1670  141.7410 C   0  0  0  0  0  0  0  0  0  0  0  0
  189.2000  175.2410  137.4990 C   0  0  0  0  0  2  0  0  0  0  0  0
  187.9230  175.9620  137.5530 C   0  0  0  0  0  0  0  0  0  0  0  0
  188.0850  176.4280  143.4540 C   0  0  1  0  0  3  0  0  0  0  0  0
  189.0110  176.5170  144.6750 C   0  0  0  0  0  2  0  0  0  0  0  0
  184.5940  179.7460  143.3420 Cl  0  0  0  0  0  0  0  0  0  0  0  0
  190.3100  176.2280  142.1980 C   0  0  0  0  0  2  0  0  0  0  0  0
  190.1090  177.9950  138.7330 C   0  0  0  0  0  0  0  0  0  0  0  0
  184.3480  178.7070  139.4410 C   0  0  0  0  0  0  0  0  0  0  0  0
  184.0560  179.1600  140.7390 C   0  0  0  0  0  3  0  0  0  0  0  0
  186.3090  178.7110  141.4400 C   0  0  0  0  0  0  0  0  0  0  0  0
  186.6440  178.3060  140.1650 C   0  0  0  0  0  0  0  0  0  0  0  0
  187.4300  178.5540  142.4050 C   0  0  2  0  0  3  0  0  0  0  0  0
  191.0500  177.0250  143.2880 C   0  0  1  0  0  3  0  0  0  0  0  0
  188.5580  177.9400  141.5720 C   0  0  1  0  0  3  0  0  0  0  0  0
  190.1050  177.5580  137.3750 N   0  0  0  0  0  2  0  0  0  0  0  0
  191.7650  178.2120  142.6770 C   0  0  0  0  0  1  0  0  0  0  0  0
  187.0640  177.5460  143.4870 C   0  0  0  0  0  2  0  0  0  0  0  0
  185.9520  177.7440  137.7360 C   0  0  0  0  0  2  0  0  0  0  0  0
  190.3290  176.1610  137.0010 C   0  0  0  0  0  2  0  0  0  0  0  0
  186.9790  176.7050  137.6350 C   0  0  0  0  0  0  0  0  0  0  0  0
  185.6590  178.2350  139.1380 C   0  0  0  0  0  0  0  0  0  0  0  0
  188.8100  176.5410  142.1090 C   0  0  2  0  0  3  0  0  0  0  0  0
  188.9420  178.7730  139.2560 C   0  0  0  0  0  2  0  0  0  0  0  0
  190.1510  177.4990  144.4310 C   0  0  0  0  0  2  0  0  0  0  0  0
  182.7900  177.5490  137.9710 O   0  0  0  0  0  0  0  0  0  0  0  0
  182.6950  179.7940  138.1770 O   0  0  0  0  0  0  0  0  0  0  0  0
  183.2860  178.7320  138.4660 N   0  0  0  0  0  0  0  0  0  0  0  0
  1 26  1  6  0  0  0
  1 14  1  0  0  0  0
  1 17  1  0  0  0  0
  3  8  1  0  0  0  0
  4  5  1  0  0  0  0
  5 23  3  0  0  0  0
  6 20  1  1  0  0  0
  6  7  1  0  0  0  0
  9 16  1  0  0  0  0
 10 26  1  0  0  0  0
 10  2  2  0  0  0  0
 11 12  1  0  0  0  0
 12  3  2  0  0  0  0
 13  3  1  0  0  0  0
 13 15  1  0  0  0  0
 14 13  2  0  0  0  0
 15 20  1  1  0  0  0
 16 19  1  6  0  0  0
 16 27  1  0  0  0  0
 17 25  1  0  0  0  0
 17 15  1  0  0  0  0
 18 10  1  0  0  0  0
 21 24  1  0  0  0  0
 22 18  1  0  0  0  0
 22  4  1  0  0  0  0
 23 21  1  0  0  0  0
 24 11  2  0  0  0  0
 24 14  1  0  0  0  0
 25  9  1  0  0  0  0
 25  6  1  0  0  0  0
 27  7  1  0  0  0  0
 28 30  2  0  0  0  0
 29 30  2  0  0  0  0
 30 11  1  0  0  0  0
M  END
>  <MODEL>
1

>  <REMARK>
 VINA RESULT:      -8.0      0.000      0.000
  Name = 
  1 active torsions:
  status: ('A' for Active; 'I' for Inactive)
    1  A    between atoms: C_13  and  N_26
                            x       y       z     vdW  Elec       q    Type
                         _______ _______ _______ _____ _____    ______ ____

>  <TORSDO>
F 1

$$$$
=
 OpenBabel11062413213D

 30 34  0  0  1  0  0  0  0  0999 V2000
  189.1040  177.3700  139.7470 C   0  0  2  0  0  3  0  0  0  0  0  0
  192.1230  177.3220  140.1180 O   0  0  0  0  0  0  0  0  0  0  0  0
  185.6580  178.6480  140.1140 C   0  0  0  0  0  0  0  0  0  0  0  0
  191.0830  174.4930  138.0740 C   0  0  0  0  0  2  0  0  0  0  0  0
  189.8320  175.1070  137.6120 C   0  0  0  0  0  0  0  0  0  0  0  0
  188.1040  176.4510  143.1140 C   0  0  1  0  0  3  0  0  0  0  0  0
  188.5930  176.7950  144.5280 C   0  0  0  0  0  2  0  0  0  0  0  0
  184.7260  179.4210  141.3860 Cl  0  0  0  0  0  0  0  0  0  0  0  0
  190.6180  176.2510  142.6540 C   0  0  0  0  0  2  0  0  0  0  0  0
  191.4680  177.4640  139.0520 C   0  0  0  0  0  0  0  0  0  0  0  0
  185.7600  177.8000  137.8270 C   0  0  0  0  0  0  0  0  0  0  0  0
  185.0580  178.4140  138.8790 C   0  0  0  0  0  3  0  0  0  0  0  0
  186.9860  178.2590  140.3030 C   0  0  0  0  0  0  0  0  0  0  0  0
  187.7210  177.6990  139.2780 C   0  0  0  0  0  0  0  0  0  0  0  0
  187.7490  178.3380  141.5770 C   0  0  2  0  0  3  0  0  0  0  0  0
  190.9490  177.2570  143.7700 C   0  0  1  0  0  3  0  0  0  0  0  0
  189.1010  177.7020  141.2450 C   0  0  1  0  0  3  0  0  0  0  0  0
  191.9080  176.8320  137.8510 N   0  0  0  0  0  2  0  0  0  0  0  0
  191.7840  178.3960  143.2210 C   0  0  0  0  0  1  0  0  0  0  0  0
  187.0900  177.4750  142.6460 C   0  0  0  0  0  2  0  0  0  0  0  0
  187.8510  176.7300  136.8820 C   0  0  0  0  0  2  0  0  0  0  0  0
  192.2820  175.4190  137.8020 C   0  0  0  0  0  2  0  0  0  0  0  0
  188.8880  175.7750  137.2750 C   0  0  0  0  0  0  0  0  0  0  0  0
  187.1140  177.3970  138.0250 C   0  0  0  0  0  0  0  0  0  0  0  0
  189.2140  176.4240  142.0580 C   0  0  2  0  0  3  0  0  0  0  0  0
  190.1720  178.2130  139.0550 C   0  0  0  0  0  2  0  0  0  0  0  0
  189.7210  177.8210  144.4870 C   0  0  0  0  0  2  0  0  0  0  0  0
  185.7000  177.8510  135.3930 O   0  0  0  0  0  0  0  0  0  0  0  0
  183.9420  177.0380  136.5530 O   0  0  0  0  0  0  0  0  0  0  0  0
  185.0600  177.5940  136.5840 N   0  0  0  0  0  0  0  0  0  0  0  0
  1 26  1  6  0  0  0
  1 17  1  0  0  0  0
  3 13  1  0  0  0  0
  3  8  1  0  0  0  0
  5  4  1  0  0  0  0
  6 20  1  6  0  0  0
  6  7  1  0  0  0  0
  9 16  1  0  0  0  0
 10 26  1  0  0  0  0
 10  2  2  0  0  0  0
 11 24  2  0  0  0  0
 11 12  1  0  0  0  0
 12  3  2  0  0  0  0
 13 15  1  0  0  0  0
 14  1  1  0  0  0  0
 14 13  2  0  0  0  0
 15 20  1  1  0  0  0
 16 19  1  6  0  0  0
 16 27  1  0  0  0  0
 17 15  1  0  0  0  0
 17 25  1  0  0  0  0
 18 10  1  0  0  0  0
 21 23  1  0  0  0  0
 21 24  1  0  0  0  0
 22 18  1  0  0  0  0
 22  4  1  0  0  0  0
 23  5  3  0  0  0  0
 24 14  1  0  0  0  0
 25  9  1  0  0  0  0
 25  6  1  0  0  0  0
 27  7  1  0  0  0  0
 28 30  2  0  0  0  0
 29 30  2  0  0  0  0
 30 11  1  0  0  0  0
M  END
>  <MODEL>
2

>  <REMARK>
 VINA RESULT:      -6.9      1.398      1.824
  Name = 
  1 active torsions:
  status: ('A' for Active; 'I' for Inactive)
    1  A    between atoms: C_13  and  N_26
                            x       y       z     vdW  Elec       q    Type
                         _______ _______ _______ _____ _____    ______ ____

>  <TORSDO>
F 1

$$$$
=
 OpenBabel11062413213D

 30 34  0  0  1  0  0  0  0  0999 V2000
  187.7170  177.7500  142.9030 C   0  0  2  0  0  3  0  0  0  0  0  0
  186.6770  177.3210  145.7300 O   0  0  0  0  0  0  0  0  0  0  0  0
  189.6760  177.0190  139.8580 C   0  0  0  0  0  0  0  0  0  0  0  0
  185.1710  180.3130  144.2990 C   0  0  0  0  0  2  0  0  0  0  0  0
  185.3620  179.9090  142.9010 C   0  0  0  0  0  0  0  0  0  0  0  0
  191.1140  178.7550  143.6960 C   0  0  1  0  0  3  0  0  0  0  0  0
  192.1700  178.3150  144.7190 C   0  0  0  0  0  2  0  0  0  0  0  0
  191.2720  176.3790  139.5070 Cl  0  0  0  0  0  0  0  0  0  0  0  0
  189.5560  178.5690  145.7220 C   0  0  0  0  0  2  0  0  0  0  0  0
  186.0330  177.3010  144.6480 C   0  0  0  0  0  0  0  0  0  0  0  0
  187.5470  177.8800  139.0300 C   0  0  0  0  0  0  0  0  0  0  0  0
  188.8350  177.3650  138.8030 C   0  0  0  0  0  3  0  0  0  0  0  0
  189.2200  177.1920  141.1670 C   0  0  0  0  0  0  0  0  0  0  0  0
  187.9450  177.6490  141.4270 C   0  0  0  0  0  0  0  0  0  0  0  0
  190.0130  176.9740  142.4060 C   0  0  2  0  0  3  0  0  0  0  0  0
  190.4550  177.5040  146.3740 C   0  0  1  0  0  3  0  0  0  0  0  0
  189.0700  177.3970  143.5350 C   0  0  1  0  0  3  0  0  0  0  0  0
  184.7300  177.8780  144.5790 N   0  0  0  0  0  2  0  0  0  0  0  0
  189.6520  176.2590  146.6900 C   0  0  0  0  0  1  0  0  0  0  0  0
  191.2140  177.9100  142.4420 C   0  0  0  0  0  2  0  0  0  0  0  0
  185.7000  178.6270  140.5900 C   0  0  0  0  0  2  0  0  0  0  0  0
  184.4380  179.2160  145.0920 C   0  0  0  0  0  2  0  0  0  0  0  0
  185.5260  179.4020  141.8200 C   0  0  0  0  0  0  0  0  0  0  0  0
  187.0880  178.0640  140.3670 C   0  0  0  0  0  0  0  0  0  0  0  0
  189.6710  178.6280  144.1920 C   0  0  2  0  0  3  0  0  0  0  0  0
  186.6640  176.7640  143.4020 C   0  0  0  0  0  2  0  0  0  0  0  0
  191.6810  177.1270  145.5400 C   0  0  0  0  0  2  0  0  0  0  0  0
  187.1180  179.2670  137.0740 O   0  0  0  0  0  0  0  0  0  0  0  0
  185.8120  177.4770  137.5020 O   0  0  0  0  0  0  0  0  0  0  0  0
  186.7460  178.2150  137.8780 N   0  0  0  0  0  0  0  0  0  0  0  0
  1 26  1  1  0  0  0
  1 17  1  0  0  0  0
  3 13  1  0  0  0  0
  4 22  1  0  0  0  0
  5  4  1  0  0  0  0
  6 20  1  6  0  0  0
  6 25  1  0  0  0  0
  6  7  1  0  0  0  0
  7 27  1  0  0  0  0
  8  3  1  0  0  0  0
  9 16  1  0  0  0  0
 10  2  2  0  0  0  0
 11 24  2  0  0  0  0
 12 11  1  0  0  0  0
 12  3  2  0  0  0  0
 13 14  2  0  0  0  0
 13 15  1  0  0  0  0
 14  1  1  0  0  0  0
 15 20  1  6  0  0  0
 15 17  1  0  0  0  0
 16 19  1  6  0  0  0
 17 25  1  0  0  0  0
 18 10  1  0  0  0  0
 18 22  1  0  0  0  0
 21 23  1  0  0  0  0
 23  5  3  0  0  0  0
 24 21  1  0  0  0  0
 24 14  1  0  0  0  0
 25  9  1  0  0  0  0
 26 10  1  0  0  0  0
 27 16  1  0  0  0  0
 28 30  2  0  0  0  0
 29 30  2  0  0  0  0
 30 11  1  0  0  0  0
M  END
>  <MODEL>
3

>  <REMARK>
 VINA RESULT:      -6.5      3.011      5.309
  Name = 
  1 active torsions:
  status: ('A' for Active; 'I' for Inactive)
    1  A    between atoms: C_13  and  N_26
                            x       y       z     vdW  Elec       q    Type
                         _______ _______ _______ _____ _____    ______ ____

>  <TORSDO>
F 1

$$$$
=
 OpenBabel11062413213D

 30 34  0  0  1  0  0  0  0  0999 V2000
  182.7640  175.1890  137.4280 C   0  0  2  0  0  3  0  0  0  0  0  0
  180.4280  173.4700  136.5090 O   0  0  0  0  0  0  0  0  0  0  0  0
  185.9270  177.0690  137.1110 C   0  0  0  0  0  0  0  0  0  0  0  0
  180.0340  174.3110  140.0300 C   0  0  0  0  0  2  0  0  0  0  0  0
  180.8690  175.5170  139.9790 C   0  0  0  0  0  0  0  0  0  0  0  0
  185.3710  172.6630  137.4020 C   0  0  1  0  0  3  0  0  0  0  0  0
  185.7450  171.4920  136.4820 C   0  0  0  0  0  2  0  0  0  0  0  0
  187.4410  176.8570  136.2470 Cl  0  0  0  0  0  0  0  0  0  0  0  0
  183.0020  171.7550  137.0390 C   0  0  0  0  0  2  0  0  0  0  0  0
  180.4100  174.6600  136.9200 C   0  0  0  0  0  0  0  0  0  0  0  0
  184.5560  178.4180  138.6140 C   0  0  0  0  0  0  0  0  0  0  0  0
  185.7490  178.2010  137.9020 C   0  0  0  0  0  3  0  0  0  0  0  0
  184.8920  176.1340  137.0290 C   0  0  0  0  0  0  0  0  0  0  0  0
  183.6900  176.3390  137.6730 C   0  0  0  0  0  0  0  0  0  0  0  0
  184.9460  174.8290  136.3180 C   0  0  2  0  0  3  0  0  0  0  0  0
  183.3840  171.1740  135.6660 C   0  0  1  0  0  3  0  0  0  0  0  0
  183.5950  174.1780  136.6270 C   0  0  1  0  0  3  0  0  0  0  0  0
  179.3550  175.1080  137.7700 N   0  0  0  0  0  2  0  0  0  0  0  0
  182.4520  171.6990  134.5940 C   0  0  0  0  0  1  0  0  0  0  0  0
  186.0270  173.9390  136.9190 C   0  0  0  0  0  2  0  0  0  0  0  0
  182.2300  177.7080  139.3140 C   0  0  0  0  0  2  0  0  0  0  0  0
  178.9330  174.3600  138.9550 C   0  0  0  0  0  2  0  0  0  0  0  0
  181.5170  176.5070  139.7530 C   0  0  0  0  0  0  0  0  0  0  0  0
  183.5040  177.4590  138.5340 C   0  0  0  0  0  0  0  0  0  0  0  0
  183.8670  172.9460  137.4730 C   0  0  2  0  0  3  0  0  0  0  0  0
  181.5410  175.5870  136.6050 C   0  0  0  0  0  2  0  0  0  0  0  0
  184.8350  171.4390  135.2600 C   0  0  0  0  0  2  0  0  0  0  0  0
  185.1260  179.6880  140.6130 O   0  0  0  0  0  0  0  0  0  0  0  0
  183.9160  180.6480  138.9670 O   0  0  0  0  0  0  0  0  0  0  0  0
  184.4600  179.6160  139.4110 N   0  0  0  0  0  0  0  0  0  0  0  0
  1 26  1  6  0  0  0
  1 14  1  0  0  0  0
  2 10  2  0  0  0  0
  3 12  1  0  0  0  0
  5  4  1  0  0  0  0
  6  7  1  6  0  0  0
  6 25  1  0  0  0  0
  8  3  1  0  0  0  0
  9 25  1  0  0  0  0
 10 18  1  0  0  0  0
 11 30  1  0  0  0  0
 12 11  2  0  0  0  0
 13  3  2  0  0  0  0
 13 14  1  0  0  0  0
 14 24  2  0  0  0  0
 15 17  1  0  0  0  0
 15 20  1  1  0  0  0
 15 13  1  0  0  0  0
 16 19  1  6  0  0  0
 16  9  1  0  0  0  0
 17  1  1  0  0  0  0
 17 25  1  0  0  0  0
 18 22  1  0  0  0  0
 20  6  1  0  0  0  0
 21 23  1  0  0  0  0
 22  4  1  0  0  0  0
 23  5  3  0  0  0  0
 24 11  1  0  0  0  0
 24 21  1  0  0  0  0
 26 10  1  0  0  0  0
 27 16  1  0  0  0  0
 27  7  1  0  0  0  0
 29 30  2  0  0  0  0
 30 28  2  0  0  0  0
M  END
>  <MODEL>
4

>  <REMARK>
 VINA RESULT:      -6.3      4.862      8.150
  Name = 
  1 active torsions:
  status: ('A' for Active; 'I' for Inactive)
    1  A    between atoms: C_13  and  N_26
                            x       y       z     vdW  Elec       q    Type
                         _______ _______ _______ _____ _____    ______ ____

>  <TORSDO>
F 1

$$$$
=
 OpenBabel11062413213D

 30 34  0  0  1  0  0  0  0  0999 V2000
  189.8730  175.3690  136.8160 C   0  0  2  0  0  3  0  0  0  0  0  0
  187.7050  177.4910  136.5790 O   0  0  0  0  0  0  0  0  0  0  0  0
  192.1140  172.6630  135.6790 C   0  0  0  0  0  0  0  0  0  0  0  0
  189.0500  177.4700  139.9630 C   0  0  0  0  0  2  0  0  0  0  0  0
  190.3390  176.8720  139.5970 C   0  0  0  0  0  0  0  0  0  0  0  0
  187.7830  172.4040  136.6700 C   0  0  1  0  0  3  0  0  0  0  0  0
  186.5430  171.9830  135.8680 C   0  0  0  0  0  2  0  0  0  0  0  0
  191.9850  171.2880  134.5940 Cl  0  0  0  0  0  0  0  0  0  0  0  0
  186.4940  174.6110  136.8690 C   0  0  0  0  0  2  0  0  0  0  0  0
  188.9310  177.6480  136.8190 C   0  0  0  0  0  0  0  0  0  0  0  0
  193.4800  173.9930  137.2030 C   0  0  0  0  0  0  0  0  0  0  0  0
  193.3230  172.9060  136.3260 C   0  0  0  0  0  3  0  0  0  0  0  0
  191.0380  173.5220  135.9140 C   0  0  0  0  0  0  0  0  0  0  0  0
  191.1700  174.6270  136.7300 C   0  0  0  0  0  0  0  0  0  0  0  0
  189.6560  173.3570  135.3920 C   0  0  2  0  0  3  0  0  0  0  0  0
  185.7560  174.3530  135.5430 C   0  0  1  0  0  3  0  0  0  0  0  0
  188.8760  174.5120  136.0260 C   0  0  1  0  0  3  0  0  0  0  0  0
  189.3550  178.6190  137.7750 N   0  0  0  0  0  2  0  0  0  0  0  0
  185.9560  175.5160  134.5940 C   0  0  0  0  0  1  0  0  0  0  0  0
  189.0440  172.0600  135.9050 C   0  0  0  0  0  2  0  0  0  0  0  0
  192.5640  176.0260  138.4020 C   0  0  0  0  0  2  0  0  0  0  0  0
  188.7600  178.7170  139.1080 C   0  0  0  0  0  2  0  0  0  0  0  0
  191.3620  176.4460  139.1240 C   0  0  0  0  0  0  0  0  0  0  0  0
  192.3780  174.8650  137.4470 C   0  0  0  0  0  0  0  0  0  0  0  0
  187.8530  173.9050  136.9710 C   0  0  2  0  0  3  0  0  0  0  0  0
  189.9480  176.7550  136.1810 C   0  0  0  0  0  2  0  0  0  0  0  0
  186.1580  173.0500  134.8490 C   0  0  0  0  0  2  0  0  0  0  0  0
  195.1240  173.3570  138.8830 O   0  0  0  0  0  0  0  0  0  0  0  0
  195.6260  174.9320  137.3470 O   0  0  0  0  0  0  0  0  0  0  0  0
  194.7650  174.1680  137.8320 N   0  0  0  0  0  0  0  0  0  0  0  0
  1 26  1  6  0  0  0
  2 10  2  0  0  0  0
  3 13  2  0  0  0  0
  3 12  1  0  0  0  0
  5  4  1  0  0  0  0
  6  7  1  6  0  0  0
  6 25  1  0  0  0  0
  8  3  1  0  0  0  0
  9 25  1  0  0  0  0
 10 18  1  0  0  0  0
 11 24  1  0  0  0  0
 11 30  1  0  0  0  0
 12 11  2  0  0  0  0
 13 14  1  0  0  0  0
 14  1  1  0  0  0  0
 14 24  2  0  0  0  0
 15 20  1  1  0  0  0
 15 13  1  0  0  0  0
 15 17  1  0  0  0  0
 16 19  1  6  0  0  0
 16  9  1  0  0  0  0
 17  1  1  0  0  0  0
 17 25  1  0  0  0  0
 18 22  1  0  0  0  0
 20  6  1  0  0  0  0
 21 23  1  0  0  0  0
 22  4  1  0  0  0  0
 23  5  3  0  0  0  0
 24 21  1  0  0  0  0
 26 10  1  0  0  0  0
 27 16  1  0  0  0  0
 27  7  1  0  0  0  0
 29 30  2  0  0  0  0
 30 28  2  0  0  0  0
M  END
>  <MODEL>
5

>  <REMARK>
 VINA RESULT:      -6.3      4.341      8.648
  Name = 
  1 active torsions:
  status: ('A' for Active; 'I' for Inactive)
    1  A    between atoms: C_13  and  N_26
                            x       y       z     vdW  Elec       q    Type
                         _______ _______ _______ _____ _____    ______ ____

>  <TORSDO>
F 1

$$$$
=
 OpenBabel11062413213D

 30 34  0  0  1  0  0  0  0  0999 V2000
  184.3810  176.1980  136.9010 C   0  0  2  0  0  3  0  0  0  0  0  0
  181.4770  176.3850  136.0140 O   0  0  0  0  0  0  0  0  0  0  0  0
  187.9640  175.3430  136.6350 C   0  0  0  0  0  0  0  0  0  0  0  0
  181.8630  177.8930  139.3070 C   0  0  0  0  0  2  0  0  0  0  0  0
  183.2960  178.1790  139.1610 C   0  0  0  0  0  0  0  0  0  0  0  0
  184.5530  172.6280  137.5310 C   0  0  1  0  0  3  0  0  0  0  0  0
  183.9990  171.3720  136.8430 C   0  0  0  0  0  2  0  0  0  0  0  0
  188.8990  174.0110  135.9770 Cl  0  0  0  0  0  0  0  0  0  0  0  0
  182.1950  173.5170  137.0640 C   0  0  0  0  0  2  0  0  0  0  0  0
  182.2890  177.3210  136.2360 C   0  0  0  0  0  0  0  0  0  0  0  0
  187.9300  177.5070  137.7650 C   0  0  0  0  0  0  0  0  0  0  0  0
  188.6310  176.4150  137.2230 C   0  0  0  0  0  3  0  0  0  0  0  0
  186.5680  175.3610  136.5880 C   0  0  0  0  0  0  0  0  0  0  0  0
  185.8500  176.4380  137.0650 C   0  0  0  0  0  0  0  0  0  0  0  0
  185.6950  174.2640  136.0930 C   0  0  2  0  0  3  0  0  0  0  0  0
  182.0380  172.5940  135.8430 C   0  0  1  0  0  3  0  0  0  0  0  0
  184.2740  174.7700  136.3540 C   0  0  1  0  0  3  0  0  0  0  0  0
  181.8500  178.5100  136.8940 N   0  0  0  0  0  2  0  0  0  0  0  0
  181.6880  173.4040  134.6120 C   0  0  0  0  0  1  0  0  0  0  0  0
  185.8910  173.0070  136.9310 C   0  0  0  0  0  2  0  0  0  0  0  0
  185.7670  178.7010  138.3170 C   0  0  0  0  0  2  0  0  0  0  0  0
  181.0640  178.4770  138.1270 C   0  0  0  0  0  2  0  0  0  0  0  0
  184.4390  178.4060  138.8570 C   0  0  0  0  0  0  0  0  0  0  0  0
  186.5040  177.5190  137.7220 C   0  0  0  0  0  0  0  0  0  0  0  0
  183.6530  173.8600  137.4010 C   0  0  2  0  0  3  0  0  0  0  0  0
  183.7390  177.1600  135.9040 C   0  0  0  0  0  2  0  0  0  0  0  0
  183.2660  171.7270  135.5550 C   0  0  0  0  0  2  0  0  0  0  0  0
  189.0550  179.6600  137.5930 O   0  0  0  0  0  0  0  0  0  0  0  0
  188.9190  178.6080  139.5860 O   0  0  0  0  0  0  0  0  0  0  0  0
  188.7000  178.5720  138.3570 N   0  0  0  0  0  0  0  0  0  0  0  0
  1 26  1  6  0  0  0
  1 14  1  0  0  0  0
  2 10  2  0  0  0  0
  3 12  1  0  0  0  0
  5  4  1  0  0  0  0
  6  7  1  6  0  0  0
  8  3  1  0  0  0  0
  9 25  1  0  0  0  0
 10 18  1  0  0  0  0
 11 30  1  0  0  0  0
 12 11  2  0  0  0  0
 13  3  2  0  0  0  0
 13 14  1  0  0  0  0
 14 24  2  0  0  0  0
 15 17  1  0  0  0  0
 15 13  1  0  0  0  0
 15 20  1  1  0  0  0
 16 19  1  6  0  0  0
 16  9  1  0  0  0  0
 17  1  1  0  0  0  0
 17 25  1  0  0  0  0
 18 22  1  0  0  0  0
 20  6  1  0  0  0  0
 21 23  1  0  0  0  0
 22  4  1  0  0  0  0
 23  5  3  0  0  0  0
 24 11  1  0  0  0  0
 24 21  1  0  0  0  0
 25  6  1  0  0  0  0
 26 10  1  0  0  0  0
 27 16  1  0  0  0  0
 27  7  1  0  0  0  0
 28 30  2  0  0  0  0
 30 29  2  0  0  0  0
M  END
>  <MODEL>
6

>  <REMARK>
 VINA RESULT:      -6.2      4.165      7.970
  Name = 
  1 active torsions:
  status: ('A' for Active; 'I' for Inactive)
    1  A    between atoms: C_13  and  N_26
                            x       y       z     vdW  Elec       q    Type
                         _______ _______ _______ _____ _____    ______ ____

>  <TORSDO>
F 1

$$$$
=
 OpenBabel11062413213D

 30 34  0  0  1  0  0  0  0  0999 V2000
  190.3120  176.4460  138.3270 C   0  0  2  0  0  3  0  0  0  0  0  0
  190.9500  174.5890  136.0030 O   0  0  0  0  0  0  0  0  0  0  0  0
  188.2610  177.9550  141.0030 C   0  0  0  0  0  0  0  0  0  0  0  0
  193.8640  176.6250  136.7970 C   0  0  0  0  0  2  0  0  0  0  0  0
  193.4720  176.8940  138.1860 C   0  0  0  0  0  0  0  0  0  0  0  0
  188.0650  178.7330  136.6250 C   0  0  1  0  0  3  0  0  0  0  0  0
  186.9490  178.5890  135.5800 C   0  0  0  0  0  2  0  0  0  0  0  0
  186.5770  178.4140  141.1970 Cl  0  0  0  0  0  0  0  0  0  0  0  0
  189.2640  177.0720  135.0860 C   0  0  0  0  0  2  0  0  0  0  0  0
  191.4660  174.6110  137.1520 C   0  0  0  0  0  0  0  0  0  0  0  0
  190.5020  177.7980  141.9590 C   0  0  0  0  0  0  0  0  0  0  0  0
  189.1440  178.1490  142.0620 C   0  0  0  0  0  3  0  0  0  0  0  0
  188.7430  177.3990  139.8160 C   0  0  0  0  0  0  0  0  0  0  0  0
  190.0570  176.9970  139.6960 C   0  0  0  0  0  0  0  0  0  0  0  0
  187.9710  177.2150  138.5580 C   0  0  2  0  0  3  0  0  0  0  0  0
  187.9270  176.4870  134.5970 C   0  0  1  0  0  3  0  0  0  0  0  0
  188.9970  176.6600  137.5660 C   0  0  1  0  0  3  0  0  0  0  0  0
  192.8680  174.4010  137.3120 N   0  0  0  0  0  2  0  0  0  0  0  0
  187.8970  174.9880  134.8130 C   0  0  0  0  0  1  0  0  0  0  0  0
  187.5010  178.5610  138.0210 C   0  0  0  0  0  2  0  0  0  0  0  0
  192.4600  176.8720  140.6490 C   0  0  0  0  0  2  0  0  0  0  0  0
  193.8630  175.1120  136.5090 C   0  0  0  0  0  2  0  0  0  0  0  0
  193.0450  176.9590  139.3100 C   0  0  0  0  0  0  0  0  0  0  0  0
  190.9930  177.2370  140.7430 C   0  0  0  0  0  0  0  0  0  0  0  0
  189.1920  177.7060  136.4820 C   0  0  2  0  0  3  0  0  0  0  0  0
  190.6350  174.9540  138.3470 C   0  0  0  0  0  2  0  0  0  0  0  0
  186.6950  177.1240  135.2440 C   0  0  0  0  0  2  0  0  0  0  0  0
  191.4930  179.3170  143.5830 O   0  0  0  0  0  0  0  0  0  0  0  0
  191.8210  177.0920  143.7670 O   0  0  0  0  0  0  0  0  0  0  0  0
  191.3450  178.0360  143.1030 N   0  0  0  0  0  0  0  0  0  0  0  0
  1 26  1  1  0  0  0
  1 14  1  0  0  0  0
  2 10  2  0  0  0  0
  3  8  1  0  0  0  0
  3 12  1  0  0  0  0
  4  5  1  0  0  0  0
  5 23  3  0  0  0  0
  6  7  1  6  0  0  0
  6 20  1  0  0  0  0
  9 25  1  0  0  0  0
 10 18  1  0  0  0  0
 10 26  1  0  0  0  0
 11 12  2  0  0  0  0
 11 30  1  0  0  0  0
 13  3  2  0  0  0  0
 14 13  1  0  0  0  0
 14 24  2  0  0  0  0
 15 20  1  6  0  0  0
 15 13  1  0  0  0  0
 16 19  1  1  0  0  0
 16  9  1  0  0  0  0
 16 27  1  0  0  0  0
 17  1  1  0  0  0  0
 17 15  1  0  0  0  0
 21 24  1  0  0  0  0
 22  4  1  0  0  0  0
 22 18  1  0  0  0  0
 23 21  1  0  0  0  0
 24 11  1  0  0  0  0
 25  6  1  0  0  0  0
 25 17  1  0  0  0  0
 27  7  1  0  0  0  0
 30 28  2  0  0  0  0
 30 29  2  0  0  0  0
M  END
>  <MODEL>
7

>  <REMARK>
 VINA RESULT:      -6.1      3.775      6.533
  Name = 
  1 active torsions:
  status: ('A' for Active; 'I' for Inactive)
    1  A    between atoms: C_13  and  N_26
                            x       y       z     vdW  Elec       q    Type
                         _______ _______ _______ _____ _____    ______ ____

>  <TORSDO>
F 1

$$$$
=
 OpenBabel11062413213D

 30 34  0  0  1  0  0  0  0  0999 V2000
  182.8580  178.2790  139.8060 C   0  0  2  0  0  3  0  0  0  0  0  0
  183.0500  177.0630  137.0230 O   0  0  0  0  0  0  0  0  0  0  0  0
  181.2910  179.1220  143.0420 C   0  0  0  0  0  0  0  0  0  0  0  0
  186.1850  178.7120  137.8710 C   0  0  0  0  0  2  0  0  0  0  0  0
  185.9980  178.6280  139.3240 C   0  0  0  0  0  0  0  0  0  0  0  0
  180.5840  181.0130  139.0750 C   0  0  1  0  0  3  0  0  0  0  0  0
  179.3340  181.1860  138.2000 C   0  0  0  0  0  2  0  0  0  0  0  0
  179.6860  179.5800  143.5870 Cl  0  0  0  0  0  0  0  0  0  0  0  0
  181.4470  179.7610  137.0110 C   0  0  0  0  0  2  0  0  0  0  0  0
  183.7110  176.7680  138.0530 C   0  0  0  0  0  0  0  0  0  0  0  0
  183.6190  178.6390  143.5930 C   0  0  0  0  0  0  0  0  0  0  0  0
  182.3170  179.0030  143.9760 C   0  0  0  0  0  3  0  0  0  0  0  0
  181.5720  178.8740  141.6960 C   0  0  0  0  0  0  0  0  0  0  0  0
  182.8260  178.4670  141.2900 C   0  0  0  0  0  0  0  0  0  0  0  0
  180.6320  179.0510  140.5580 C   0  0  2  0  0  3  0  0  0  0  0  0
  180.0170  179.3740  136.5910 C   0  0  1  0  0  3  0  0  0  0  0  0
  181.4750  178.7330  139.3210 C   0  0  1  0  0  3  0  0  0  0  0  0
  185.1030  176.4700  137.9510 N   0  0  0  0  0  2  0  0  0  0  0  0
  179.9050  177.8720  136.4270 C   0  0  0  0  0  1  0  0  0  0  0  0
  180.1960  180.5070  140.4490 C   0  0  0  0  0  2  0  0  0  0  0  0
  185.3160  178.0090  141.8230 C   0  0  0  0  0  2  0  0  0  0  0  0
  186.0340  177.3270  137.2160 C   0  0  0  0  0  2  0  0  0  0  0  0
  185.7270  178.4170  140.4790 C   0  0  0  0  0  0  0  0  0  0  0  0
  183.9050  178.3930  142.2170 C   0  0  0  0  0  0  0  0  0  0  0  0
  181.6040  180.0150  138.5170 C   0  0  2  0  0  3  0  0  0  0  0  0
  183.0700  176.8220  139.4040 C   0  0  0  0  0  2  0  0  0  0  0  0
  178.9310  179.8680  137.5480 C   0  0  0  0  0  2  0  0  0  0  0  0
  184.3510  179.0330  145.8820 O   0  0  0  0  0  0  0  0  0  0  0  0
  185.6670  177.8820  144.4550 O   0  0  0  0  0  0  0  0  0  0  0  0
  184.6210  178.5410  144.6260 N   0  0  0  0  0  0  0  0  0  0  0  0
  1 26  1  1  0  0  0
  1 14  1  0  0  0  0
  2 10  2  0  0  0  0
  3  8  1  0  0  0  0
  3 12  1  0  0  0  0
  4  5  1  0  0  0  0
  5 23  3  0  0  0  0
  6  7  1  6  0  0  0
  6 20  1  0  0  0  0
  9 25  1  0  0  0  0
 10 26  1  0  0  0  0
 11 12  2  0  0  0  0
 11 30  1  0  0  0  0
 13  3  2  0  0  0  0
 14 13  1  0  0  0  0
 14 24  2  0  0  0  0
 15 20  1  6  0  0  0
 15 13  1  0  0  0  0
 16 19  1  1  0  0  0
 16  9  1  0  0  0  0
 16 27  1  0  0  0  0
 17  1  1  0  0  0  0
 17 15  1  0  0  0  0
 18 10  1  0  0  0  0
 21 24  1  0  0  0  0
 22  4  1  0  0  0  0
 22 18  1  0  0  0  0
 23 21  1  0  0  0  0
 24 11  1  0  0  0  0
 25  6  1  0  0  0  0
 25 17  1  0  0  0  0
 27  7  1  0  0  0  0
 29 30  2  0  0  0  0
 30 28  2  0  0  0  0
M  END
>  <MODEL>
8

>  <REMARK>
 VINA RESULT:      -5.9      3.881      7.576
  Name = 
  1 active torsions:
  status: ('A' for Active; 'I' for Inactive)
    1  A    between atoms: C_13  and  N_26
                            x       y       z     vdW  Elec       q    Type
                         _______ _______ _______ _____ _____    ______ ____

>  <TORSDO>
F 1

$$$$
=
 OpenBabel11062413213D

 30 34  0  0  1  0  0  0  0  0999 V2000
  183.0140  177.4570  137.9980 C   0  0  2  0  0  3  0  0  0  0  0  0
  180.1130  178.3180  138.3110 O   0  0  0  0  0  0  0  0  0  0  0  0
  186.0660  176.3940  136.2100 C   0  0  0  0  0  0  0  0  0  0  0  0
  181.7480  178.2730  141.5650 C   0  0  0  0  0  2  0  0  0  0  0  0
  183.1090  178.4310  141.0390 C   0  0  0  0  0  0  0  0  0  0  0  0
  182.4850  173.9510  137.2190 C   0  0  1  0  0  3  0  0  0  0  0  0
  181.4760  173.1630  136.3710 C   0  0  0  0  0  2  0  0  0  0  0  0
  186.4310  175.3580  134.8400 Cl  0  0  0  0  0  0  0  0  0  0  0  0
  180.3780  175.2110  137.9540 C   0  0  0  0  0  2  0  0  0  0  0  0
  181.1560  178.9800  138.5520 C   0  0  0  0  0  0  0  0  0  0  0  0
  186.8700  177.8840  137.9680 C   0  0  0  0  0  0  0  0  0  0  0  0
  187.1080  177.0440  136.8670 C   0  0  0  0  0  3  0  0  0  0  0  0
  184.7590  176.5860  136.6640 C   0  0  0  0  0  0  0  0  0  0  0  0
  184.4830  177.4410  137.7100 C   0  0  0  0  0  0  0  0  0  0  0  0
  183.5450  175.8970  136.1520 C   0  0  2  0  0  3  0  0  0  0  0  0
  179.6710  174.9010  136.6230 C   0  0  1  0  0  3  0  0  0  0  0  0
  182.4170  176.4050  137.0550 C   0  0  1  0  0  3  0  0  0  0  0  0
  181.2170  179.8310  139.6960 N   0  0  0  0  0  2  0  0  0  0  0  0
  179.2000  176.1820  135.9650 C   0  0  0  0  0  1  0  0  0  0  0  0
  183.6550  174.3930  136.3650 C   0  0  0  0  0  2  0  0  0  0  0  0
  185.3000  178.9760  139.6270 C   0  0  0  0  0  2  0  0  0  0  0  0
  180.8190  179.3780  141.0290 C   0  0  0  0  0  2  0  0  0  0  0  0
  184.1430  178.6350  140.4560 C   0  0  0  0  0  0  0  0  0  0  0  0
  185.5350  178.0730  138.4340 C   0  0  0  0  0  0  0  0  0  0  0  0
  181.9090  175.2190  137.8580 C   0  0  2  0  0  3  0  0  0  0  0  0
  182.3740  178.8100  137.6990 C   0  0  0  0  0  2  0  0  0  0  0  0
  180.5230  174.1000  135.6360 C   0  0  0  0  0  2  0  0  0  0  0  0
  188.4730  178.0430  139.7950 O   0  0  0  0  0  0  0  0  0  0  0  0
  188.6800  179.3780  137.9870 O   0  0  0  0  0  0  0  0  0  0  0  0
  188.0080  178.5150  138.5890 N   0  0  0  0  0  0  0  0  0  0  0  0
  1 26  1  6  0  0  0
  2 10  2  0  0  0  0
  3 13  2  0  0  0  0
  3 12  1  0  0  0  0
  5  4  1  0  0  0  0
  6 20  1  6  0  0  0
  6 25  1  0  0  0  0
  7  6  1  0  0  0  0
  8  3  1  0  0  0  0
 10 18  1  0  0  0  0
 11 24  1  0  0  0  0
 11 30  1  0  0  0  0
 12 11  2  0  0  0  0
 13 14  1  0  0  0  0
 14  1  1  0  0  0  0
 14 24  2  0  0  0  0
 15 20  1  1  0  0  0
 15 13  1  0  0  0  0
 15 17  1  0  0  0  0
 16 19  1  6  0  0  0
 16  9  1  0  0  0  0
 17 25  1  0  0  0  0
 17  1  1  0  0  0  0
 18 22  1  0  0  0  0
 21 23  1  0  0  0  0
 22  4  1  0  0  0  0
 23  5  3  0  0  0  0
 24 21  1  0  0  0  0
 25  9  1  0  0  0  0
 26 10  1  0  0  0  0
 27  7  1  0  0  0  0
 27 16  1  0  0  0  0
 29 30  2  0  0  0  0
 30 28  2  0  0  0  0
M  END
>  <MODEL>
9

>  <REMARK>
 VINA RESULT:      -5.6      4.117      8.368
  Name = 
  1 active torsions:
  status: ('A' for Active; 'I' for Inactive)
    1  A    between atoms: C_13  and  N_26
                            x       y       z     vdW  Elec       q    Type
                         _______ _______ _______ _____ _____    ______ ____

>  <TORSDO>
F 1

$$$$
