=
 OpenBabel11062414113D

 32 34  0  0  1  0  0  0  0  0999 V2000
  190.1390  176.0510  138.6160 O   0  0  0  0  0  0  0  0  0  0  0  0
  189.9680  176.8960  139.5350 C   0  0  0  0  0  0  0  0  0  0  0  0
  190.5470  176.6530  140.8210 N   0  0  0  0  0  2  0  0  0  0  0  0
  189.1830  177.5550  144.2390 C   0  0  0  0  0  0  0  0  0  0  0  0
  190.3210  177.5120  141.9730 C   0  0  2  0  0  3  0  0  0  0  0  0
  190.1900  178.3050  144.7140 C   0  0  0  0  0  3  0  0  0  0  0  0
  191.3880  178.6780  143.8800 C   0  0  0  0  0  2  0  0  0  0  0  0
  191.6190  177.6820  142.7490 C   0  0  0  0  0  2  0  0  0  0  0  0
  189.2600  176.8910  142.8830 C   0  0  0  0  0  2  0  0  0  0  0  0
  188.0300  177.2400  145.1390 C   0  0  0  0  0  2  0  0  0  0  0  0
  186.6930  177.6120  144.5050 C   0  0  0  0  0  2  0  0  0  0  0  0
  186.3990  178.5480  146.7830 C   0  0  0  0  0  1  0  0  0  0  0  0
  185.6710  178.0290  145.5530 C   0  0  1  0  0  3  0  0  0  0  0  0
  183.5020  179.1120  145.7010 O   0  0  0  0  0  1  0  0  0  0  0  0
  184.6990  179.0660  144.9800 C   0  0  2  0  0  3  0  0  0  0  0  0
  184.4340  178.8610  143.4930 C   0  0  0  0  0  2  0  0  0  0  0  0
  183.0760  179.0060  143.2020 O   0  0  0  0  0  1  0  0  0  0  0  0
  187.2470  178.0940  137.8580 C   0  0  2  0  0  3  0  0  0  0  0  0
  188.4590  178.3060  137.0810 N   0  0  0  0  0  2  0  0  0  0  0  0
  187.6720  177.7620  139.2650 C   0  0  1  0  0  3  0  0  0  0  0  0
  189.4610  178.7060  137.9870 N   0  0  0  0  0  2  0  0  0  0  0  0
  189.1350  178.1200  139.2830 C   0  0  2  0  0  3  0  0  0  0  0  0
  186.8560  175.7270  137.2110 C   0  0  0  0  0  3  0  0  0  0  0  0
  185.0330  177.3000  136.7660 C   0  0  0  0  0  2  0  0  0  0  0  0
  184.5340  174.8090  137.2030 C   0  0  0  0  0  2  0  0  0  0  0  0
  186.4170  176.9950  137.2610 C   0  0  0  0  0  0  0  0  0  0  0  0
  184.0390  176.2670  137.3110 C   0  0  0  0  0  2  0  0  0  0  0  0
  185.9580  174.6670  136.6420 C   0  0  0  0  0  2  0  0  0  0  0  0
  186.9200  178.6350  140.2540 C   0  0  0  0  0  2  0  0  0  0  0  0
  185.4250  178.4840  140.0470 C   0  0  0  0  0  2  0  0  0  0  0  0
  183.5520  179.4530  139.4040 C   0  0  0  0  0  1  0  0  0  0  0  0
  184.8660  179.7320  139.7790 O   0  0  0  0  0  0  0  0  0  0  0  0
  1  2  2  0  0  0  0
  2  3  1  0  0  0  0
  4  6  2  0  0  0  0
  4 10  1  0  0  0  0
  5  3  1  6  0  0  0
  5  8  1  0  0  0  0
  5  9  1  0  0  0  0
  7  6  1  0  0  0  0
  8  7  1  0  0  0  0
  9  4  1  0  0  0  0
 11 10  1  0  0  0  0
 11 13  1  0  0  0  0
 13 12  1  1  0  0  0
 15 13  1  0  0  0  0
 15 14  1  1  0  0  0
 16 15  1  0  0  0  0
 17 16  1  0  0  0  0
 18 26  1  6  0  0  0
 18 20  1  0  0  0  0
 19 18  1  0  0  0  0
 19 21  1  0  0  0  0
 20 22  1  0  0  0  0
 20 29  1  1  0  0  0
 21 22  1  0  0  0  0
 22  2  1  6  0  0  0
 23 26  2  0  0  0  0
 24 26  1  0  0  0  0
 24 27  1  0  0  0  0
 25 27  1  0  0  0  0
 28 25  1  0  0  0  0
 28 23  1  0  0  0  0
 30 29  1  0  0  0  0
 31 32  1  0  0  0  0
 32 30  1  0  0  0  0
M  END
>  <MODEL>
1

>  <REMARK>
 VINA RESULT:      -7.6      0.000      0.000
  Name = 
  11 active torsions:
  status: ('A' for Active; 'I' for Inactive)
    1  A    between atoms: C_2  and  C_27
    2  A    between atoms: C_5  and  C_8
    3  A    between atoms: C_5  and  C_25
    4  A    between atoms: C_7  and  O_15
    5  A    between atoms: C_7  and  C_18
    6  A    between atoms: C_9  and  N_22
    7  A    between atoms: C_10  and  C_17
    8  A    between atoms: C_16  and  C_31
    9  A    between atoms: C_18  and  C_21
   10  A    between atoms: C_23  and  C_25
   11  A    between atoms: C_23  and  C_27
                            x       y       z     vdW  Elec       q    Type
                         _______ _______ _______ _____ _____    ______ ____

>  <TORSDO>
F 11

$$$$
=
 OpenBabel11062414113D

 32 34  0  0  1  0  0  0  0  0999 V2000
  190.0900  175.2940  142.6890 O   0  0  0  0  0  0  0  0  0  0  0  0
  189.4580  176.3520  142.9540 C   0  0  0  0  0  0  0  0  0  0  0  0
  188.3970  176.3080  143.9120 N   0  0  0  0  0  2  0  0  0  0  0  0
  185.2440  178.4000  143.7140 C   0  0  0  0  0  0  0  0  0  0  0  0
  187.5420  177.4470  144.2090 C   0  0  2  0  0  3  0  0  0  0  0  0
  185.1890  178.8800  144.9670 C   0  0  0  0  0  3  0  0  0  0  0  0
  186.2800  178.6360  145.9770 C   0  0  0  0  0  2  0  0  0  0  0  0
  187.0750  177.3760  145.6550 C   0  0  0  0  0  2  0  0  0  0  0  0
  186.3260  177.4380  143.2800 C   0  0  0  0  0  2  0  0  0  0  0  0
  184.1160  178.6980  142.7760 C   0  0  0  0  0  2  0  0  0  0  0  0
  184.6110  178.9920  141.3640 C   0  0  0  0  0  2  0  0  0  0  0  0
  182.3360  178.1190  140.9040 C   0  0  0  0  0  1  0  0  0  0  0  0
  183.7160  178.3540  140.3120 C   0  0  1  0  0  3  0  0  0  0  0  0
  184.5950  180.2600  139.0900 O   0  0  0  0  0  1  0  0  0  0  0  0
  183.6610  179.2210  139.0490 C   0  0  2  0  0  3  0  0  0  0  0  0
  182.2610  179.7540  138.7660 C   0  0  0  0  0  2  0  0  0  0  0  0
  182.2910  181.1270  138.5120 O   0  0  0  0  0  1  0  0  0  0  0  0
  190.8510  177.6470  140.1180 C   0  0  2  0  0  3  0  0  0  0  0  0
  191.8470  177.5390  141.1730 N   0  0  0  0  0  2  0  0  0  0  0  0
  189.4980  177.4980  140.7660 C   0  0  1  0  0  3  0  0  0  0  0  0
  191.2190  177.9310  142.3710 N   0  0  0  0  0  2  0  0  0  0  0  0
  189.7980  177.6280  142.2370 C   0  0  2  0  0  3  0  0  0  0  0  0
  190.0520  175.9380  138.5020 C   0  0  0  0  0  3  0  0  0  0  0  0
  192.4680  176.3310  138.5770 C   0  0  0  0  0  2  0  0  0  0  0  0
  191.3430  175.5100  136.4070 C   0  0  0  0  0  2  0  0  0  0  0  0
  191.0740  176.6010  139.0660 C   0  0  0  0  0  0  0  0  0  0  0  0
  192.4960  176.3180  137.0440 C   0  0  0  0  0  2  0  0  0  0  0  0
  190.3420  174.9360  137.4210 C   0  0  0  0  0  2  0  0  0  0  0  0
  188.5840  178.6280  140.3290 C   0  0  0  0  0  2  0  0  0  0  0  0
  187.5100  178.0960  139.3990 C   0  0  0  0  0  2  0  0  0  0  0  0
  186.7320  177.9860  137.3400 C   0  0  0  0  0  1  0  0  0  0  0  0
  187.7250  178.5870  138.1130 O   0  0  0  0  0  0  0  0  0  0  0  0
  1  2  2  0  0  0  0
  2  3  1  0  0  0  0
  4  6  2  0  0  0  0
  5  3  1  6  0  0  0
  5  8  1  0  0  0  0
  6  7  1  0  0  0  0
  8  7  1  0  0  0  0
  9  4  1  0  0  0  0
  9  5  1  0  0  0  0
 10  4  1  0  0  0  0
 11 10  1  0  0  0  0
 13 12  1  1  0  0  0
 13 11  1  0  0  0  0
 15 14  1  1  0  0  0
 15 13  1  0  0  0  0
 16 15  1  0  0  0  0
 17 16  1  0  0  0  0
 18 26  1  6  0  0  0
 18 20  1  0  0  0  0
 18 19  1  0  0  0  0
 19 21  1  0  0  0  0
 20 29  1  6  0  0  0
 20 22  1  0  0  0  0
 22 21  1  0  0  0  0
 22  2  1  1  0  0  0
 23 26  2  0  0  0  0
 24 26  1  0  0  0  0
 25 27  1  0  0  0  0
 25 28  1  0  0  0  0
 27 24  1  0  0  0  0
 28 23  1  0  0  0  0
 30 29  1  0  0  0  0
 31 32  1  0  0  0  0
 32 30  1  0  0  0  0
M  END
>  <MODEL>
2

>  <REMARK>
 VINA RESULT:      -7.5      2.554      4.948
  Name = 
  11 active torsions:
  status: ('A' for Active; 'I' for Inactive)
    1  A    between atoms: C_2  and  C_27
    2  A    between atoms: C_5  and  C_8
    3  A    between atoms: C_5  and  C_25
    4  A    between atoms: C_7  and  O_15
    5  A    between atoms: C_7  and  C_18
    6  A    between atoms: C_9  and  N_22
    7  A    between atoms: C_10  and  C_17
    8  A    between atoms: C_16  and  C_31
    9  A    between atoms: C_18  and  C_21
   10  A    between atoms: C_23  and  C_25
   11  A    between atoms: C_23  and  C_27
                            x       y       z     vdW  Elec       q    Type
                         _______ _______ _______ _____ _____    ______ ____

>  <TORSDO>
F 11

$$$$
=
 OpenBabel11062414113D

 32 34  0  0  1  0  0  0  0  0999 V2000
  184.8850  179.6500  139.4980 O   0  0  0  0  0  0  0  0  0  0  0  0
  184.5160  179.1160  140.5780 C   0  0  0  0  0  0  0  0  0  0  0  0
  185.2600  179.3760  141.7720 N   0  0  0  0  0  2  0  0  0  0  0  0
  186.1090  177.9240  145.1670 C   0  0  0  0  0  0  0  0  0  0  0  0
  184.9780  178.7280  143.0440 C   0  0  2  0  0  3  0  0  0  0  0  0
  185.0170  178.2770  145.8650 C   0  0  0  0  0  3  0  0  0  0  0  0
  183.8270  178.9450  145.2260 C   0  0  0  0  0  2  0  0  0  0  0  0
  184.2130  179.6820  143.9490 C   0  0  0  0  0  2  0  0  0  0  0  0
  186.2900  178.3250  143.7220 C   0  0  0  0  0  2  0  0  0  0  0  0
  187.2410  177.2590  145.8860 C   0  0  0  0  0  2  0  0  0  0  0  0
  188.5420  177.3350  145.0940 C   0  0  0  0  0  2  0  0  0  0  0  0
  189.4390  177.3020  147.4060 C   0  0  0  0  0  1  0  0  0  0  0  0
  189.7140  177.7410  145.9770 C   0  0  1  0  0  3  0  0  0  0  0  0
  191.9400  176.9030  146.4640 O   0  0  0  0  0  1  0  0  0  0  0  0
  191.0260  177.1590  145.4380 C   0  0  2  0  0  3  0  0  0  0  0  0
  191.6500  178.0290  144.3530 C   0  0  0  0  0  2  0  0  0  0  0  0
  191.6440  177.3720  143.1210 O   0  0  0  0  0  1  0  0  0  0  0  0
  181.5860  178.3470  139.0030 C   0  0  2  0  0  3  0  0  0  0  0  0
  181.3480  179.2680  140.1050 N   0  0  0  0  0  2  0  0  0  0  0  0
  182.9720  177.7830  139.1870 C   0  0  1  0  0  3  0  0  0  0  0  0
  182.1680  178.8520  141.1710 N   0  0  0  0  0  2  0  0  0  0  0  0
  183.3330  178.1910  140.5910 C   0  0  2  0  0  3  0  0  0  0  0  0
  181.2710  178.3700  136.5390 C   0  0  0  0  0  3  0  0  0  0  0  0
  181.4430  180.5500  137.6420 C   0  0  0  0  0  2  0  0  0  0  0  0
  180.1050  180.2930  135.4540 C   0  0  0  0  0  2  0  0  0  0  0  0
  181.4490  179.0490  137.6830 C   0  0  0  0  0  0  0  0  0  0  0  0
  180.2690  181.0490  136.7900 C   0  0  0  0  0  2  0  0  0  0  0  0
  181.0950  179.1350  135.2590 C   0  0  0  0  0  2  0  0  0  0  0  0
  182.9340  176.2690  139.0880 C   0  0  0  0  0  2  0  0  0  0  0  0
  181.5390  175.7630  139.4020 C   0  0  0  0  0  2  0  0  0  0  0  0
  182.1910  174.6040  137.6440 C   0  0  0  0  0  1  0  0  0  0  0  0
  181.0500  175.0440  138.3130 O   0  0  0  0  0  0  0  0  0  0  0  0
  1  2  2  0  0  0  0
  2  3  1  0  0  0  0
  4  6  2  0  0  0  0
  4 10  1  0  0  0  0
  5  3  1  6  0  0  0
  5  9  1  0  0  0  0
  5  8  1  0  0  0  0
  7  6  1  0  0  0  0
  8  7  1  0  0  0  0
  9  4  1  0  0  0  0
 11 10  1  0  0  0  0
 11 13  1  0  0  0  0
 13 12  1  1  0  0  0
 15 13  1  0  0  0  0
 15 14  1  1  0  0  0
 16 15  1  0  0  0  0
 17 16  1  0  0  0  0
 18 26  1  6  0  0  0
 18 20  1  0  0  0  0
 18 19  1  0  0  0  0
 19 21  1  0  0  0  0
 20 29  1  1  0  0  0
 20 22  1  0  0  0  0
 22  2  1  6  0  0  0
 22 21  1  0  0  0  0
 23 26  2  0  0  0  0
 24 26  1  0  0  0  0
 25 27  1  0  0  0  0
 27 24  1  0  0  0  0
 28 25  1  0  0  0  0
 28 23  1  0  0  0  0
 29 30  1  0  0  0  0
 31 32  1  0  0  0  0
 32 30  1  0  0  0  0
M  END
>  <MODEL>
3

>  <REMARK>
 VINA RESULT:      -7.4      3.662      6.001
  Name = 
  11 active torsions:
  status: ('A' for Active; 'I' for Inactive)
    1  A    between atoms: C_2  and  C_27
    2  A    between atoms: C_5  and  C_8
    3  A    between atoms: C_5  and  C_25
    4  A    between atoms: C_7  and  O_15
    5  A    between atoms: C_7  and  C_18
    6  A    between atoms: C_9  and  N_22
    7  A    between atoms: C_10  and  C_17
    8  A    between atoms: C_16  and  C_31
    9  A    between atoms: C_18  and  C_21
   10  A    between atoms: C_23  and  C_25
   11  A    between atoms: C_23  and  C_27
                            x       y       z     vdW  Elec       q    Type
                         _______ _______ _______ _____ _____    ______ ____

>  <TORSDO>
F 11

$$$$
=
 OpenBabel11062414113D

 32 34  0  0  1  0  0  0  0  0999 V2000
  184.2840  179.7400  139.2740 O   0  0  0  0  0  0  0  0  0  0  0  0
  184.1660  179.1490  140.3810 C   0  0  0  0  0  0  0  0  0  0  0  0
  185.1400  179.3830  141.4030 N   0  0  0  0  0  2  0  0  0  0  0  0
  186.7300  177.7250  144.4150 C   0  0  0  0  0  0  0  0  0  0  0  0
  185.1500  178.6730  142.6720 C   0  0  2  0  0  3  0  0  0  0  0  0
  185.8540  178.0660  145.3740 C   0  0  0  0  0  3  0  0  0  0  0  0
  184.5710  178.7980  145.0770 C   0  0  0  0  0  2  0  0  0  0  0  0
  184.6640  179.5950  143.7800 C   0  0  0  0  0  2  0  0  0  0  0  0
  186.5700  178.2010  142.9900 C   0  0  0  0  0  2  0  0  0  0  0  0
  187.9760  176.9930  144.8030 C   0  0  0  0  0  2  0  0  0  0  0  0
  189.1410  177.9440  145.0560 C   0  0  0  0  0  2  0  0  0  0  0  0
  188.8700  177.0110  147.3380 C   0  0  0  0  0  1  0  0  0  0  0  0
  189.8610  177.6180  146.3570 C   0  0  1  0  0  3  0  0  0  0  0  0
  192.0260  176.8040  147.0980 O   0  0  0  0  0  1  0  0  0  0  0  0
  191.0550  176.6920  146.0990 C   0  0  2  0  0  3  0  0  0  0  0  0
  191.6660  176.8970  144.7170 C   0  0  0  0  0  2  0  0  0  0  0  0
  191.6740  175.7030  143.9920 O   0  0  0  0  0  1  0  0  0  0  0  0
  181.0840  178.2000  139.2610 C   0  0  2  0  0  3  0  0  0  0  0  0
  180.9590  179.1670  140.3420 N   0  0  0  0  0  2  0  0  0  0  0  0
  182.5030  177.6950  139.2770 C   0  0  1  0  0  3  0  0  0  0  0  0
  181.9330  178.8340  141.3030 N   0  0  0  0  0  2  0  0  0  0  0  0
  183.0350  178.1850  140.5990 C   0  0  2  0  0  3  0  0  0  0  0  0
  181.2270  180.0270  137.5830 C   0  0  0  0  0  3  0  0  0  0  0  0
  179.8830  178.0750  136.9660 C   0  0  0  0  0  2  0  0  0  0  0  0
  181.0350  179.4960  135.1500 C   0  0  0  0  0  2  0  0  0  0  0  0
  180.7400  178.8290  137.9420 C   0  0  0  0  0  0  0  0  0  0  0  0
  180.5230  178.1020  135.5730 C   0  0  0  0  0  2  0  0  0  0  0  0
  180.8800  180.5780  136.2300 C   0  0  0  0  0  2  0  0  0  0  0  0
  182.5150  176.1770  139.2530 C   0  0  0  0  0  2  0  0  0  0  0  0
  181.1530  175.6410  139.6490 C   0  0  0  0  0  2  0  0  0  0  0  0
  179.3640  174.5270  139.0040 C   0  0  0  0  0  1  0  0  0  0  0  0
  180.6970  174.7620  138.6690 O   0  0  0  0  0  0  0  0  0  0  0  0
  1  2  2  0  0  0  0
  2  3  1  0  0  0  0
  4 10  1  0  0  0  0
  4  6  2  0  0  0  0
  5  3  1  6  0  0  0
  5  9  1  0  0  0  0
  5  8  1  0  0  0  0
  7  6  1  0  0  0  0
  8  7  1  0  0  0  0
  9  4  1  0  0  0  0
 10 11  1  0  0  0  0
 11 13  1  0  0  0  0
 13 12  1  1  0  0  0
 15 13  1  0  0  0  0
 15 14  1  1  0  0  0
 16 15  1  0  0  0  0
 17 16  1  0  0  0  0
 18 26  1  6  0  0  0
 18 20  1  0  0  0  0
 18 19  1  0  0  0  0
 19 21  1  0  0  0  0
 20 29  1  1  0  0  0
 20 22  1  0  0  0  0
 22  2  1  6  0  0  0
 22 21  1  0  0  0  0
 23 26  2  0  0  0  0
 24 26  1  0  0  0  0
 25 27  1  0  0  0  0
 25 28  1  0  0  0  0
 27 24  1  0  0  0  0
 28 23  1  0  0  0  0
 29 30  1  0  0  0  0
 32 31  1  0  0  0  0
 32 30  1  0  0  0  0
M  END
>  <MODEL>
4

>  <REMARK>
 VINA RESULT:      -7.3      3.952      6.133
  Name = 
  11 active torsions:
  status: ('A' for Active; 'I' for Inactive)
    1  A    between atoms: C_2  and  C_27
    2  A    between atoms: C_5  and  C_8
    3  A    between atoms: C_5  and  C_25
    4  A    between atoms: C_7  and  O_15
    5  A    between atoms: C_7  and  C_18
    6  A    between atoms: C_9  and  N_22
    7  A    between atoms: C_10  and  C_17
    8  A    between atoms: C_16  and  C_31
    9  A    between atoms: C_18  and  C_21
   10  A    between atoms: C_23  and  C_25
   11  A    between atoms: C_23  and  C_27
                            x       y       z     vdW  Elec       q    Type
                         _______ _______ _______ _____ _____    ______ ____

>  <TORSDO>
F 11

$$$$
=
 OpenBabel11062414113D

 32 34  0  0  1  0  0  0  0  0999 V2000
  189.9530  175.2930  142.6660 O   0  0  0  0  0  0  0  0  0  0  0  0
  189.3480  176.3640  142.9420 C   0  0  0  0  0  0  0  0  0  0  0  0
  188.2900  176.3380  143.9050 N   0  0  0  0  0  2  0  0  0  0  0  0
  185.2070  178.5310  143.7050 C   0  0  0  0  0  0  0  0  0  0  0  0
  187.4650  177.4960  144.2150 C   0  0  2  0  0  3  0  0  0  0  0  0
  185.1450  178.9820  144.9690 C   0  0  0  0  0  3  0  0  0  0  0  0
  186.2090  178.6800  145.9910 C   0  0  0  0  0  2  0  0  0  0  0  0
  186.9710  177.4040  145.6510 C   0  0  0  0  0  2  0  0  0  0  0  0
  186.2670  177.5470  143.2660 C   0  0  0  0  0  2  0  0  0  0  0  0
  184.1060  178.8880  142.7570 C   0  0  0  0  0  2  0  0  0  0  0  0
  182.7440  178.8990  143.4420 C   0  0  0  0  0  2  0  0  0  0  0  0
  181.9410  178.1300  141.2260 C   0  0  0  0  0  1  0  0  0  0  0  0
  181.6080  178.9910  142.4340 C   0  0  1  0  0  3  0  0  0  0  0  0
  179.6170  177.6030  142.3370 O   0  0  0  0  0  1  0  0  0  0  0  0
  180.2770  178.5890  143.0780 C   0  0  2  0  0  3  0  0  0  0  0  0
  179.3650  179.7830  143.3330 C   0  0  0  0  0  2  0  0  0  0  0  0
  179.8450  180.9250  142.6880 O   0  0  0  0  0  1  0  0  0  0  0  0
  190.8010  177.6490  140.1330 C   0  0  2  0  0  3  0  0  0  0  0  0
  191.7810  177.5220  141.2010 N   0  0  0  0  0  2  0  0  0  0  0  0
  189.4370  177.5180  140.7610 C   0  0  1  0  0  3  0  0  0  0  0  0
  191.1410  177.9190  142.3910 N   0  0  0  0  0  2  0  0  0  0  0  0
  189.7180  177.6370  142.2360 C   0  0  2  0  0  3  0  0  0  0  0  0
  189.9990  175.9640  138.4920 C   0  0  0  0  0  3  0  0  0  0  0  0
  192.4210  176.3090  138.6150 C   0  0  0  0  0  2  0  0  0  0  0  0
  191.3210  175.5210  136.4200 C   0  0  0  0  0  2  0  0  0  0  0  0
  191.0230  176.6040  139.0790 C   0  0  0  0  0  0  0  0  0  0  0  0
  192.4770  176.3030  137.0820 C   0  0  0  0  0  2  0  0  0  0  0  0
  190.2890  174.9620  137.4120 C   0  0  0  0  0  2  0  0  0  0  0  0
  188.5460  178.6630  140.3150 C   0  0  0  0  0  2  0  0  0  0  0  0
  187.3430  178.1230  139.5660 C   0  0  0  0  0  2  0  0  0  0  0  0
  186.4340  177.8000  137.5840 C   0  0  0  0  0  1  0  0  0  0  0  0
  187.3620  178.5960  138.2550 O   0  0  0  0  0  0  0  0  0  0  0  0
  1  2  2  0  0  0  0
  2  3  1  0  0  0  0
  4  6  2  0  0  0  0
  5  3  1  6  0  0  0
  5  8  1  0  0  0  0
  6  7  1  0  0  0  0
  8  7  1  0  0  0  0
  9  4  1  0  0  0  0
  9  5  1  0  0  0  0
 10 11  1  0  0  0  0
 10  4  1  0  0  0  0
 13 12  1  6  0  0  0
 13 15  1  0  0  0  0
 13 11  1  0  0  0  0
 15 14  1  6  0  0  0
 15 16  1  0  0  0  0
 17 16  1  0  0  0  0
 18 26  1  6  0  0  0
 18 20  1  0  0  0  0
 18 19  1  0  0  0  0
 19 21  1  0  0  0  0
 20 29  1  6  0  0  0
 20 22  1  0  0  0  0
 22 21  1  0  0  0  0
 22  2  1  1  0  0  0
 23 26  2  0  0  0  0
 24 26  1  0  0  0  0
 25 27  1  0  0  0  0
 25 28  1  0  0  0  0
 27 24  1  0  0  0  0
 28 23  1  0  0  0  0
 30 29  1  0  0  0  0
 31 32  1  0  0  0  0
 32 30  1  0  0  0  0
M  END
>  <MODEL>
5

>  <REMARK>
 VINA RESULT:      -7.3      2.498      4.785
  Name = 
  11 active torsions:
  status: ('A' for Active; 'I' for Inactive)
    1  A    between atoms: C_2  and  C_27
    2  A    between atoms: C_5  and  C_8
    3  A    between atoms: C_5  and  C_25
    4  A    between atoms: C_7  and  O_15
    5  A    between atoms: C_7  and  C_18
    6  A    between atoms: C_9  and  N_22
    7  A    between atoms: C_10  and  C_17
    8  A    between atoms: C_16  and  C_31
    9  A    between atoms: C_18  and  C_21
   10  A    between atoms: C_23  and  C_25
   11  A    between atoms: C_23  and  C_27
                            x       y       z     vdW  Elec       q    Type
                         _______ _______ _______ _____ _____    ______ ____

>  <TORSDO>
F 11

$$$$
=
 OpenBabel11062414113D

 32 34  0  0  1  0  0  0  0  0999 V2000
  191.1830  178.4300  142.9320 O   0  0  0  0  0  0  0  0  0  0  0  0
  190.9070  177.7450  141.9100 C   0  0  0  0  0  0  0  0  0  0  0  0
  191.9310  177.4940  140.9430 N   0  0  0  0  0  2  0  0  0  0  0  0
  190.5110  177.0810  137.4550 C   0  0  0  0  0  0  0  0  0  0  0  0
  191.6880  176.8060  139.6850 C   0  0  2  0  0  3  0  0  0  0  0  0
  191.5120  176.4110  136.8610 C   0  0  0  0  0  3  0  0  0  0  0  0
  192.7250  175.9290  137.6140 C   0  0  0  0  0  2  0  0  0  0  0  0
  192.9730  176.7540  138.8710 C   0  0  0  0  0  2  0  0  0  0  0  0
  190.6100  177.5450  138.8890 C   0  0  0  0  0  2  0  0  0  0  0  0
  189.3430  177.5150  136.6270 C   0  0  0  0  0  2  0  0  0  0  0  0
  188.4920  178.5580  137.3450 C   0  0  0  0  0  2  0  0  0  0  0  0
  187.0020  178.1430  135.4060 C   0  0  0  0  0  1  0  0  0  0  0  0
  187.0440  178.5190  136.8790 C   0  0  1  0  0  3  0  0  0  0  0  0
  185.9390  176.3650  137.0680 O   0  0  0  0  0  1  0  0  0  0  0  0
  186.2220  177.5550  137.7430 C   0  0  2  0  0  3  0  0  0  0  0  0
  184.9480  178.1950  138.2830 C   0  0  0  0  0  2  0  0  0  0  0  0
  185.2220  179.4270  138.8800 O   0  0  0  0  0  1  0  0  0  0  0  0
  187.9500  177.0650  143.4750 C   0  0  2  0  0  3  0  0  0  0  0  0
  188.7870  175.8750  143.4250 N   0  0  0  0  0  2  0  0  0  0  0  0
  188.5300  178.0580  142.5020 C   0  0  1  0  0  3  0  0  0  0  0  0
  189.3910  175.8530  142.1540 N   0  0  0  0  0  2  0  0  0  0  0  0
  189.5090  177.2370  141.7040 C   0  0  2  0  0  3  0  0  0  0  0  0
  186.7480  177.7330  145.5450 C   0  0  0  0  0  3  0  0  0  0  0  0
  189.1810  178.0110  145.5530 C   0  0  0  0  0  2  0  0  0  0  0  0
  187.9040  177.5940  147.7530 C   0  0  0  0  0  2  0  0  0  0  0  0
  187.9020  177.6240  144.8670 C   0  0  0  0  0  0  0  0  0  0  0  0
  189.2220  177.4180  146.9660 C   0  0  0  0  0  2  0  0  0  0  0  0
  186.7750  178.2590  146.9510 C   0  0  0  0  0  2  0  0  0  0  0  0
  187.4400  178.5870  141.5870 C   0  0  0  0  0  2  0  0  0  0  0  0
  186.0790  178.1670  142.1060 C   0  0  0  0  0  2  0  0  0  0  0  0
  184.2430  178.8950  143.0860 C   0  0  0  0  0  1  0  0  0  0  0  0
  185.2570  179.2880  142.2130 O   0  0  0  0  0  0  0  0  0  0  0  0
  2  1  2  0  0  0  0
  3  2  1  0  0  0  0
  4  9  1  0  0  0  0
  5  3  1  1  0  0  0
  6  4  2  0  0  0  0
  6  7  1  0  0  0  0
  7  8  1  0  0  0  0
  8  5  1  0  0  0  0
  9  5  1  0  0  0  0
 10 11  1  0  0  0  0
 10  4  1  0  0  0  0
 13 12  1  6  0  0  0
 13 11  1  0  0  0  0
 13 15  1  0  0  0  0
 15 14  1  6  0  0  0
 15 16  1  0  0  0  0
 16 17  1  0  0  0  0
 18 26  1  1  0  0  0
 19 18  1  0  0  0  0
 20 29  1  6  0  0  0
 20 18  1  0  0  0  0
 21 19  1  0  0  0  0
 22  2  1  1  0  0  0
 22 21  1  0  0  0  0
 22 20  1  0  0  0  0
 23 28  1  0  0  0  0
 24 27  1  0  0  0  0
 26 23  2  0  0  0  0
 26 24  1  0  0  0  0
 27 25  1  0  0  0  0
 28 25  1  0  0  0  0
 29 30  1  0  0  0  0
 30 32  1  0  0  0  0
 32 31  1  0  0  0  0
M  END
>  <MODEL>
6

>  <REMARK>
 VINA RESULT:      -7.0      2.238      6.907
  Name = 
  11 active torsions:
  status: ('A' for Active; 'I' for Inactive)
    1  A    between atoms: C_2  and  C_27
    2  A    between atoms: C_5  and  C_8
    3  A    between atoms: C_5  and  C_25
    4  A    between atoms: C_7  and  O_15
    5  A    between atoms: C_7  and  C_18
    6  A    between atoms: C_9  and  N_22
    7  A    between atoms: C_10  and  C_17
    8  A    between atoms: C_16  and  C_31
    9  A    between atoms: C_18  and  C_21
   10  A    between atoms: C_23  and  C_25
   11  A    between atoms: C_23  and  C_27
                            x       y       z     vdW  Elec       q    Type
                         _______ _______ _______ _____ _____    ______ ____

>  <TORSDO>
F 11

$$$$
=
 OpenBabel11062414113D

 32 34  0  0  1  0  0  0  0  0999 V2000
  190.2000  178.7720  142.8490 O   0  0  0  0  0  0  0  0  0  0  0  0
  189.7860  178.0040  141.9390 C   0  0  0  0  0  0  0  0  0  0  0  0
  190.5560  177.8630  140.7420 N   0  0  0  0  0  2  0  0  0  0  0  0
  189.0470  177.3330  137.3070 C   0  0  0  0  0  0  0  0  0  0  0  0
  190.1140  177.0850  139.5950 C   0  0  2  0  0  3  0  0  0  0  0  0
  189.8070  176.3190  136.8600 C   0  0  0  0  0  3  0  0  0  0  0  0
  190.8350  175.6340  137.7220 C   0  0  0  0  0  2  0  0  0  0  0  0
  191.3220  176.5410  138.8470 C   0  0  0  0  0  2  0  0  0  0  0  0
  189.2890  177.9680  138.6570 C   0  0  0  0  0  2  0  0  0  0  0  0
  188.0470  177.9490  136.3810 C   0  0  0  0  0  2  0  0  0  0  0  0
  186.9810  176.9480  135.9450 C   0  0  0  0  0  2  0  0  0  0  0  0
  185.0600  177.5350  137.4000 C   0  0  0  0  0  1  0  0  0  0  0  0
  186.1280  176.4900  137.1190 C   0  0  1  0  0  3  0  0  0  0  0  0
  184.3770  174.8800  137.6110 O   0  0  0  0  0  1  0  0  0  0  0  0
  185.5230  175.1090  136.8430 C   0  0  2  0  0  3  0  0  0  0  0  0
  186.5340  173.9810  137.0190 C   0  0  0  0  0  2  0  0  0  0  0  0
  186.0290  172.9820  137.8540 O   0  0  0  0  0  1  0  0  0  0  0  0
  187.4390  177.0170  144.2140 C   0  0  2  0  0  3  0  0  0  0  0  0
  188.4210  175.9640  144.0050 N   0  0  0  0  0  2  0  0  0  0  0  0
  187.6000  178.0070  143.0890 C   0  0  1  0  0  3  0  0  0  0  0  0
  188.7000  175.9330  142.6250 N   0  0  0  0  0  2  0  0  0  0  0  0
  188.4800  177.2800  142.1060 C   0  0  2  0  0  3  0  0  0  0  0  0
  186.5940  178.0290  146.3200 C   0  0  0  0  0  3  0  0  0  0  0  0
  189.0260  177.8670  146.0810 C   0  0  0  0  0  2  0  0  0  0  0  0
  187.9360  177.8350  148.4170 C   0  0  0  0  0  2  0  0  0  0  0  0
  187.6340  177.6690  145.5520 C   0  0  0  0  0  0  0  0  0  0  0  0
  189.1140  177.3740  147.5300 C   0  0  0  0  0  2  0  0  0  0  0  0
  186.8600  178.6350  147.6680 C   0  0  0  0  0  2  0  0  0  0  0  0
  186.2530  178.2960  142.4530 C   0  0  0  0  0  2  0  0  0  0  0  0
  186.4360  178.6560  140.9910 C   0  0  0  0  0  2  0  0  0  0  0  0
  184.2330  178.5990  140.9270 C   0  0  0  0  0  1  0  0  0  0  0  0
  185.3280  179.3750  140.5470 O   0  0  0  0  0  0  0  0  0  0  0  0
  2  1  2  0  0  0  0
  3  2  1  0  0  0  0
  4  9  1  0  0  0  0
  5  3  1  1  0  0  0
  6  4  2  0  0  0  0
  6  7  1  0  0  0  0
  7  8  1  0  0  0  0
  8  5  1  0  0  0  0
  9  5  1  0  0  0  0
 10  4  1  0  0  0  0
 11 10  1  0  0  0  0
 11 13  1  0  0  0  0
 13 12  1  6  0  0  0
 15 16  1  0  0  0  0
 15 13  1  0  0  0  0
 15 14  1  1  0  0  0
 16 17  1  0  0  0  0
 18 26  1  1  0  0  0
 19 18  1  0  0  0  0
 20 29  1  6  0  0  0
 20 18  1  0  0  0  0
 21 19  1  0  0  0  0
 22  2  1  1  0  0  0
 22 21  1  0  0  0  0
 22 20  1  0  0  0  0
 23 28  1  0  0  0  0
 24 27  1  0  0  0  0
 26 24  1  0  0  0  0
 26 23  2  0  0  0  0
 27 25  1  0  0  0  0
 28 25  1  0  0  0  0
 30 29  1  0  0  0  0
 32 31  1  0  0  0  0
 32 30  1  0  0  0  0
M  END
>  <MODEL>
7

>  <REMARK>
 VINA RESULT:      -6.9      2.257      7.291
  Name = 
  11 active torsions:
  status: ('A' for Active; 'I' for Inactive)
    1  A    between atoms: C_2  and  C_27
    2  A    between atoms: C_5  and  C_8
    3  A    between atoms: C_5  and  C_25
    4  A    between atoms: C_7  and  O_15
    5  A    between atoms: C_7  and  C_18
    6  A    between atoms: C_9  and  N_22
    7  A    between atoms: C_10  and  C_17
    8  A    between atoms: C_16  and  C_31
    9  A    between atoms: C_18  and  C_21
   10  A    between atoms: C_23  and  C_25
   11  A    between atoms: C_23  and  C_27
                            x       y       z     vdW  Elec       q    Type
                         _______ _______ _______ _____ _____    ______ ____

>  <TORSDO>
F 11

$$$$
=
 OpenBabel11062414113D

 32 34  0  0  1  0  0  0  0  0999 V2000
  187.0710  178.1990  142.4890 O   0  0  0  0  0  0  0  0  0  0  0  0
  188.0490  178.1520  141.6950 C   0  0  0  0  0  0  0  0  0  0  0  0
  187.8270  178.3830  140.3020 N   0  0  0  0  0  2  0  0  0  0  0  0
  190.3880  176.5310  138.2130 C   0  0  0  0  0  0  0  0  0  0  0  0
  188.8670  178.2490  139.2940 C   0  0  2  0  0  3  0  0  0  0  0  0
  190.2690  177.1820  137.0450 C   0  0  0  0  0  3  0  0  0  0  0  0
  189.3890  178.3930  136.8770 C   0  0  0  0  0  2  0  0  0  0  0  0
  188.2650  178.4200  137.9080 C   0  0  0  0  0  2  0  0  0  0  0  0
  189.5160  176.8670  139.4010 C   0  0  0  0  0  2  0  0  0  0  0  0
  191.2920  175.3400  138.2870 C   0  0  0  0  0  2  0  0  0  0  0  0
  192.6970  175.6590  137.7890 C   0  0  0  0  0  2  0  0  0  0  0  0
  193.0990  173.8800  136.1090 C   0  0  0  0  0  1  0  0  0  0  0  0
  193.4870  174.3940  137.4870 C   0  0  1  0  0  3  0  0  0  0  0  0
  195.7030  174.0730  136.5460 O   0  0  0  0  0  1  0  0  0  0  0  0
  194.9930  174.6540  137.6010 C   0  0  2  0  0  3  0  0  0  0  0  0
  195.5620  174.2200  138.9470 C   0  0  0  0  0  2  0  0  0  0  0  0
  195.6500  175.3020  139.8250 O   0  0  0  0  0  1  0  0  0  0  0  0
  189.8800  177.5950  144.5230 C   0  0  2  0  0  3  0  0  0  0  0  0
  189.9640  178.9930  144.1270 N   0  0  0  0  0  2  0  0  0  0  0  0
  189.3250  176.8320  143.3480 C   0  0  1  0  0  3  0  0  0  0  0  0
  190.0820  179.0150  142.7240 N   0  0  0  0  0  2  0  0  0  0  0  0
  189.4190  177.8190  142.2140 C   0  0  2  0  0  3  0  0  0  0  0  0
  189.5160  177.5340  146.9800 C   0  0  0  0  0  3  0  0  0  0  0  0
  187.5360  177.2330  145.5710 C   0  0  0  0  0  2  0  0  0  0  0  0
  187.3210  178.2520  147.9290 C   0  0  0  0  0  2  0  0  0  0  0  0
  189.0140  177.4370  145.7390 C   0  0  0  0  0  0  0  0  0  0  0  0
  186.7640  178.1880  146.4900 C   0  0  0  0  0  2  0  0  0  0  0  0
  188.5870  177.4110  148.1530 C   0  0  0  0  0  2  0  0  0  0  0  0
  190.1970  175.6260  143.0510 C   0  0  0  0  0  2  0  0  0  0  0  0
  191.6120  175.8780  143.5370 C   0  0  0  0  0  2  0  0  0  0  0  0
  192.1500  175.1640  145.5520 C   0  0  0  0  0  1  0  0  0  0  0  0
  192.0750  174.7550  144.2210 O   0  0  0  0  0  0  0  0  0  0  0  0
  2  1  2  0  0  0  0
  3  2  1  0  0  0  0
  4 10  1  0  0  0  0
  4  9  1  0  0  0  0
  5  9  1  0  0  0  0
  5  3  1  1  0  0  0
  6  4  2  0  0  0  0
  7  6  1  0  0  0  0
  7  8  1  0  0  0  0
  8  5  1  0  0  0  0
 11 10  1  0  0  0  0
 13 12  1  6  0  0  0
 13 15  1  0  0  0  0
 13 11  1  0  0  0  0
 15 14  1  6  0  0  0
 15 16  1  0  0  0  0
 16 17  1  0  0  0  0
 18 26  1  1  0  0  0
 19 18  1  0  0  0  0
 20 29  1  6  0  0  0
 20 18  1  0  0  0  0
 21 19  1  0  0  0  0
 22  2  1  1  0  0  0
 22 21  1  0  0  0  0
 22 20  1  0  0  0  0
 23 28  1  0  0  0  0
 24 26  1  0  0  0  0
 24 27  1  0  0  0  0
 25 28  1  0  0  0  0
 26 23  2  0  0  0  0
 27 25  1  0  0  0  0
 29 30  1  0  0  0  0
 30 32  1  0  0  0  0
 32 31  1  0  0  0  0
M  END
>  <MODEL>
8

>  <REMARK>
 VINA RESULT:      -6.6      3.359      9.057
  Name = 
  11 active torsions:
  status: ('A' for Active; 'I' for Inactive)
    1  A    between atoms: C_2  and  C_27
    2  A    between atoms: C_5  and  C_8
    3  A    between atoms: C_5  and  C_25
    4  A    between atoms: C_7  and  O_15
    5  A    between atoms: C_7  and  C_18
    6  A    between atoms: C_9  and  N_22
    7  A    between atoms: C_10  and  C_17
    8  A    between atoms: C_16  and  C_31
    9  A    between atoms: C_18  and  C_21
   10  A    between atoms: C_23  and  C_25
   11  A    between atoms: C_23  and  C_27
                            x       y       z     vdW  Elec       q    Type
                         _______ _______ _______ _____ _____    ______ ____

>  <TORSDO>
F 11

$$$$
=
 OpenBabel11062414113D

 32 34  0  0  1  0  0  0  0  0999 V2000
  184.2020  179.8160  139.3330 O   0  0  0  0  0  0  0  0  0  0  0  0
  184.1550  179.1730  140.4160 C   0  0  0  0  0  0  0  0  0  0  0  0
  185.1730  179.3880  141.3970 N   0  0  0  0  0  2  0  0  0  0  0  0
  186.9540  177.5760  144.2080 C   0  0  0  0  0  0  0  0  0  0  0  0
  185.2660  178.6220  142.6310 C   0  0  2  0  0  3  0  0  0  0  0  0
  186.1570  177.8860  145.2440 C   0  0  0  0  0  3  0  0  0  0  0  0
  184.8680  178.6480  145.0750 C   0  0  0  0  0  2  0  0  0  0  0  0
  184.8780  179.5000  143.8110 C   0  0  0  0  0  2  0  0  0  0  0  0
  186.6970  178.1170  142.8210 C   0  0  0  0  0  2  0  0  0  0  0  0
  188.2130  176.8110  144.4710 C   0  0  0  0  0  2  0  0  0  0  0  0
  188.6700  176.0270  143.2450 C   0  0  0  0  0  2  0  0  0  0  0  0
  190.0650  177.7150  142.0810 C   0  0  0  0  0  1  0  0  0  0  0  0
  190.0890  176.3960  142.8390 C   0  0  1  0  0  3  0  0  0  0  0  0
  191.5930  177.7140  144.2170 O   0  0  0  0  0  1  0  0  0  0  0  0
  191.0070  176.4530  144.0650 C   0  0  2  0  0  3  0  0  0  0  0  0
  192.0650  175.3560  144.0550 C   0  0  0  0  0  2  0  0  0  0  0  0
  192.1910  174.7720  145.3170 O   0  0  0  0  0  1  0  0  0  0  0  0
  181.0890  178.1270  139.3370 C   0  0  2  0  0  3  0  0  0  0  0  0
  180.9480  179.0830  140.4250 N   0  0  0  0  0  2  0  0  0  0  0  0
  182.5250  177.6690  139.3290 C   0  0  1  0  0  3  0  0  0  0  0  0
  181.9480  178.7780  141.3690 N   0  0  0  0  0  2  0  0  0  0  0  0
  183.0600  178.1710  140.6450 C   0  0  2  0  0  3  0  0  0  0  0  0
  181.1640  179.9560  137.6570 C   0  0  0  0  0  3  0  0  0  0  0  0
  179.8370  177.9820  137.0710 C   0  0  0  0  0  2  0  0  0  0  0  0
  180.9230  179.4230  135.2290 C   0  0  0  0  0  2  0  0  0  0  0  0
  180.7040  178.7500  138.0270 C   0  0  0  0  0  0  0  0  0  0  0  0
  180.4440  178.0210  135.6620 C   0  0  0  0  0  2  0  0  0  0  0  0
  180.7760  180.5020  136.3130 C   0  0  0  0  0  2  0  0  0  0  0  0
  182.5880  176.1530  139.2960 C   0  0  0  0  0  2  0  0  0  0  0  0
  183.3750  175.6930  138.0840 C   0  0  0  0  0  2  0  0  0  0  0  0
  184.7520  176.3400  136.4880 C   0  0  0  0  0  1  0  0  0  0  0  0
  184.3760  176.6210  137.8010 O   0  0  0  0  0  0  0  0  0  0  0  0
  1  2  2  0  0  0  0
  2  3  1  0  0  0  0
  4 10  1  0  0  0  0
  4  6  2  0  0  0  0
  5  3  1  6  0  0  0
  5  9  1  0  0  0  0
  5  8  1  0  0  0  0
  7  6  1  0  0  0  0
  8  7  1  0  0  0  0
  9  4  1  0  0  0  0
 11 10  1  0  0  0  0
 13 12  1  1  0  0  0
 13 11  1  0  0  0  0
 13 15  1  0  0  0  0
 15 14  1  6  0  0  0
 16 15  1  0  0  0  0
 16 17  1  0  0  0  0
 18 26  1  6  0  0  0
 18 19  1  0  0  0  0
 19 21  1  0  0  0  0
 20 29  1  1  0  0  0
 20 18  1  0  0  0  0
 20 22  1  0  0  0  0
 22  2  1  6  0  0  0
 22 21  1  0  0  0  0
 23 26  2  0  0  0  0
 24 26  1  0  0  0  0
 25 27  1  0  0  0  0
 25 28  1  0  0  0  0
 27 24  1  0  0  0  0
 28 23  1  0  0  0  0
 30 29  1  0  0  0  0
 31 32  1  0  0  0  0
 32 30  1  0  0  0  0
M  END
>  <MODEL>
9

>  <REMARK>
 VINA RESULT:      -6.4      3.569      6.108
  Name = 
  11 active torsions:
  status: ('A' for Active; 'I' for Inactive)
    1  A    between atoms: C_2  and  C_27
    2  A    between atoms: C_5  and  C_8
    3  A    between atoms: C_5  and  C_25
    4  A    between atoms: C_7  and  O_15
    5  A    between atoms: C_7  and  C_18
    6  A    between atoms: C_9  and  N_22
    7  A    between atoms: C_10  and  C_17
    8  A    between atoms: C_16  and  C_31
    9  A    between atoms: C_18  and  C_21
   10  A    between atoms: C_23  and  C_25
   11  A    between atoms: C_23  and  C_27
                            x       y       z     vdW  Elec       q    Type
                         _______ _______ _______ _____ _____    ______ ____

>  <TORSDO>
F 11

$$$$
