=
 OpenBabel11062416403D

 62 69  0  0  1  0  0  0  0  0999 V2000
  191.1830  178.8250  143.9690 C   0  0  0  0  0  2  0  0  0  0  0  0
  191.5570  176.1080  146.1570 O   0  0  0  0  0  0  0  0  0  0  0  0
  191.4660  176.8760  145.1510 C   0  0  0  0  0  0  0  0  0  0  0  0
  191.5040  177.7210  142.9400 C   0  0  1  0  0  3  0  0  0  0  0  0
  190.8190  178.1320  145.2010 N   0  0  0  0  0  0  0  0  0  0  0  0
  192.0540  176.5750  143.8240 C   0  0  2  0  0  3  0  0  0  0  0  0
  186.2090  177.5280  145.1240 C   0  0  0  0  0  0  0  0  0  0  0  0
  188.6190  177.0650  145.3970 C   0  0  0  0  0  2  0  0  0  0  0  0
  187.2070  177.4510  147.4250 C   0  0  0  0  0  2  0  0  0  0  0  0
  188.0090  178.7090  147.7500 C   0  0  0  0  0  2  0  0  0  0  0  0
  185.4750  176.6070  144.6690 O   0  0  0  0  0  0  0  0  0  0  0  0
  187.2990  177.1940  145.9900 N   0  0  0  0  0  0  0  0  0  0  0  0
  189.4560  178.5870  147.2360 C   0  0  0  0  0  2  0  0  0  0  0  0
  189.4630  178.2990  145.7250 C   0  0  1  0  0  3  0  0  0  0  0  0
  186.0590  178.9080  144.5710 C   0  0  0  0  0  2  0  0  0  0  0  0
  185.3920  178.8660  143.2110 C   0  0  0  0  0  2  0  0  0  0  0  0
  183.1180  178.9800  143.8970 C   0  0  0  0  0  0  0  0  0  0  0  0
  183.1710  179.0740  142.3680 N   0  0  0  0  0  0  0  0  0  0  0  0
  184.1100  179.6750  143.2110 C   0  0  2  0  0  3  0  0  0  0  0  0
  182.5790  178.5600  144.9610 O   0  0  0  0  0  0  0  0  0  0  0  0
  181.5700  177.7140  141.2140 N   0  0  0  0  0  0  0  0  0  0  0  0
  182.5910  178.7490  141.0760 C   0  0  2  0  0  3  0  0  0  0  0  0
  182.7300  176.8900  139.2820 C   0  0  2  0  0  3  0  0  0  0  0  0
  181.3690  177.1660  139.8810 C   0  0  0  0  0  2  0  0  0  0  0  0
  183.8760  178.1290  139.9440 S   0  0  0  0  0  0  0  0  0  0  0  0
  179.3500  177.3050  141.8760 O   0  0  0  0  0  1  0  0  0  0  0  0
  180.3220  178.2950  141.7290 C   0  0  2  0  0  3  0  0  0  0  0  0
  179.8010  179.3680  140.8790 N   0  0  0  0  0  2  0  0  0  0  0  0
  179.7960  180.2450  142.9950 C   0  0  0  0  0  1  0  0  0  0  0  0
  179.1280  180.2720  141.7090 N   0  0  0  0  0  0  0  0  0  0  0  0
  179.3090  181.5520  141.1660 N   0  0  0  0  0  1  0  0  0  0  0  0
  182.6680  176.9960  137.8930 O   0  0  0  0  0  0  0  0  0  0  0  0
  184.3170  177.0690  136.1800 C   0  0  0  0  0  1  0  0  0  0  0  0
  183.8390  176.3780  137.4390 C   0  0  0  0  0  2  0  0  0  0  0  0
  192.3150  174.4650  144.1620 O   0  0  0  0  0  1  0  0  0  0  0  0
  191.6470  175.3050  143.4000 O   0  0  0  0  0  0  0  0  0  0  0  0
  190.2330  177.3420  142.1470 C   0  0  1  0  0  3  0  0  0  0  0  0
  189.0410  178.1970  142.5960 C   0  0  0  0  0  1  0  0  0  0  0  0
  191.9080  177.7700  140.3780 C   0  0  0  0  0  2  0  0  0  0  0  0
  190.4480  177.4520  140.6290 C   0  0  1  0  0  3  0  0  0  0  0  0
  191.4120  176.3640  140.1320 C   0  0  1  0  0  3  0  0  0  0  0  0
  191.3880  176.1250  138.6080 C   0  0  1  0  0  3  0  0  0  0  0  0
  194.9240  175.3100  138.5110 N   0  0  0  0  0  0  0  0  0  0  0  0
  193.9380  176.2070  138.8310 O   0  0  0  0  0  0  0  0  0  0  0  0
  193.1260  174.9120  137.0730 C   0  0  1  0  0  3  0  0  0  0  0  0
  193.0330  176.3310  136.5040 C   0  0  0  0  0  2  0  0  0  0  0  0
  194.5230  174.5900  137.5220 C   0  0  0  0  0  0  0  0  0  0  0  0
  192.8050  176.0910  137.9850 C   0  0  1  0  0  0  0  0  0  0  0  0
  195.2700  173.2670  135.5900 C   0  0  0  0  0  1  0  0  0  0  0  0
  195.3270  173.5970  136.9730 O   0  0  0  0  0  0  0  0  0  0  0  0
  190.5470  174.8730  138.2500 C   0  0  0  0  0  2  0  0  0  0  0  0
  189.2130  172.8580  136.9360 O   0  0  0  0  0  0  0  0  0  0  0  0
  188.2890  174.2060  135.3110 N   0  0  0  0  0  1  0  0  0  0  0  0
  189.4430  175.1600  137.3240 N   0  0  0  0  0  0  0  0  0  0  0  0
  188.9750  174.0320  136.5450 C   0  0  0  0  0  0  0  0  0  0  0  0
  187.5950  178.9710  136.9160 C   0  0  0  0  0  3  0  0  0  0  0  0
  188.5340  178.5660  136.0240 N   0  0  0  0  0  0  0  0  0  0  0  0
  189.1910  177.3840  136.1550 C   0  0  0  0  0  0  0  0  0  0  0  0
  187.9170  176.9380  138.1490 C   0  0  0  0  0  3  0  0  0  0  0  0
  188.8660  176.4950  137.2140 C   0  0  0  0  0  0  0  0  0  0  0  0
  187.2800  178.1650  138.0060 C   0  0  0  0  0  3  0  0  0  0  0  0
  190.1480  177.0960  135.2420 F   0  0  0  0  0  0  0  0  0  0  0  0
  1  5  1  0  0  0  0
  3  5  1  0  0  0  0
  3  2  2  0  0  0  0
  4 37  1  1  0  0  0
  4  6  1  0  0  0  0
  4  1  1  0  0  0  0
  6 36  1  6  0  0  0
  6  3  1  0  0  0  0
  7 12  1  0  0  0  0
  8 14  1  0  0  0  0
  8 12  1  0  0  0  0
  9 10  1  0  0  0  0
 11  7  2  0  0  0  0
 12  9  1  0  0  0  0
 13 10  1  0  0  0  0
 14  5  1  1  0  0  0
 14 13  1  0  0  0  0
 15  7  1  0  0  0  0
 16 15  1  0  0  0  0
 17 20  2  0  0  0  0
 18 19  1  0  0  0  0
 18 17  1  0  0  0  0
 19 16  1  6  0  0  0
 19 17  1  0  0  0  0
 21 27  1  0  0  0  0
 22 21  1  0  0  0  0
 22 18  1  1  0  0  0
 23 32  1  6  0  0  0
 23 24  1  0  0  0  0
 23 25  1  0  0  0  0
 24 21  1  0  0  0  0
 25 22  1  0  0  0  0
 27 26  1  6  0  0  0
 28 30  1  0  0  0  0
 28 27  1  0  0  0  0
 30 29  1  0  0  0  0
 31 30  1  0  0  0  0
 33 34  1  0  0  0  0
 34 32  1  0  0  0  0
 36 35  1  0  0  0  0
 37 38  1  1  0  0  0
 39 40  1  0  0  0  0
 40 37  1  1  0  0  0
 41 42  1  6  0  0  0
 41 39  1  0  0  0  0
 41 40  1  0  0  0  0
 42 51  1  1  0  0  0
 43 44  1  0  0  0  0
 45 46  1  6  0  0  0
 45 47  1  0  0  0  0
 45 48  1  0  0  0  0
 46 48  1  0  0  0  0
 47 43  2  0  0  0  0
 48 42  1  1  0  0  0
 48 44  1  0  0  0  0
 49 50  1  0  0  0  0
 50 47  1  0  0  0  0
 53 55  1  0  0  0  0
 54 51  1  0  0  0  0
 55 52  2  0  0  0  0
 55 54  1  0  0  0  0
 56 61  1  0  0  0  0
 57 58  1  0  0  0  0
 57 56  2  0  0  0  0
 58 60  2  0  0  0  0
 60 54  1  0  0  0  0
 60 59  1  0  0  0  0
 61 59  2  0  0  0  0
 62 58  1  0  0  0  0
M  END
>  <MODEL>
1

>  <REMARK>
 VINA RESULT:      -5.6      0.000      0.000
  Name = 
  19 active torsions:
  status: ('A' for Active; 'I' for Inactive)
    1  A    between atoms: O_2  and  C_22
    2  A    between atoms: O_2  and  C_54
    3  A    between atoms: C_4  and  C_29
    4  A    between atoms: N_9  and  C_45
    5  A    between atoms: C_10  and  C_29
    6  A    between atoms: C_10  and  C_30
    7  A    between atoms: C_13  and  C_34
    8  A    between atoms: C_13  and  C_42
    9  A    between atoms: C_14  and  N_20
   10  A    between atoms: C_25  and  N_36
   11  A    between atoms: O_26  and  C_56
   12  A    between atoms: C_28  and  C_50
   13  A    between atoms: C_28  and  C_52
   14  A    between atoms: C_28  and  C_61
   15  A    between atoms: N_36  and  C_52
   16  A    between atoms: N_44  and  C_58
   17  A    between atoms: C_45  and  N_51
   18  A    between atoms: N_51  and  N_55
   19  A    between atoms: C_57  and  O_60
                            x       y       z     vdW  Elec       q    Type
                         _______ _______ _______ _____ _____    ______ ____

>  <TORSDO>
F 19

$$$$
=
 OpenBabel11062416403D

 62 69  0  0  1  0  0  0  0  0999 V2000
  187.1290  174.5810  135.1870 C   0  0  0  0  0  2  0  0  0  0  0  0
  187.7170  172.6280  138.0420 O   0  0  0  0  0  0  0  0  0  0  0  0
  187.2120  173.2650  137.0680 C   0  0  0  0  0  0  0  0  0  0  0  0
  185.6840  174.1230  135.4750 C   0  0  1  0  0  3  0  0  0  0  0  0
  187.8840  174.3190  136.4080 N   0  0  0  0  0  0  0  0  0  0  0  0
  185.8840  172.9620  136.4800 C   0  0  2  0  0  3  0  0  0  0  0  0
  191.4220  176.7520  138.1950 C   0  0  0  0  0  0  0  0  0  0  0  0
  189.8540  175.7740  136.5570 C   0  0  0  0  0  2  0  0  0  0  0  0
  189.6010  178.1730  137.2170 C   0  0  0  0  0  2  0  0  0  0  0  0
  188.2350  177.8680  137.8280 C   0  0  0  0  0  2  0  0  0  0  0  0
  192.6330  176.8700  137.8600 O   0  0  0  0  0  0  0  0  0  0  0  0
  190.3980  176.9500  137.2140 N   0  0  0  0  0  0  0  0  0  0  0  0
  187.5590  176.6910  137.1000 C   0  0  0  0  0  2  0  0  0  0  0  0
  188.4700  175.4510  137.1260 C   0  0  1  0  0  3  0  0  0  0  0  0
  191.0990  176.1900  139.5420 C   0  0  0  0  0  2  0  0  0  0  0  0
  190.1170  177.0850  140.2700 C   0  0  0  0  0  2  0  0  0  0  0  0
  190.2540  176.1610  142.4570 C   0  0  0  0  0  0  0  0  0  0  0  0
  189.4150  177.4420  142.5210 N   0  0  0  0  0  0  0  0  0  0  0  0
  190.5440  177.2990  141.7100 C   0  0  2  0  0  3  0  0  0  0  0  0
  190.4790  174.9680  142.8120 O   0  0  0  0  0  0  0  0  0  0  0  0
  187.6460  177.3960  144.1370 N   0  0  0  0  0  0  0  0  0  0  0  0
  188.2900  178.1720  143.0810 C   0  0  2  0  0  3  0  0  0  0  0  0
  185.7050  178.1720  142.9580 C   0  0  2  0  0  3  0  0  0  0  0  0
  186.3280  177.9860  144.3240 C   0  0  0  0  0  2  0  0  0  0  0  0
  187.0490  178.5080  141.7890 S   0  0  0  0  0  0  0  0  0  0  0  0
  189.5360  176.6290  145.3090 O   0  0  0  0  0  1  0  0  0  0  0  0
  188.4290  177.4760  145.3770 C   0  0  2  0  0  3  0  0  0  0  0  0
  187.6420  177.1530  146.5690 N   0  0  0  0  0  2  0  0  0  0  0  0
  186.3450  178.8750  147.3450 C   0  0  0  0  0  1  0  0  0  0  0  0
  187.6640  178.2750  147.4050 N   0  0  0  0  0  0  0  0  0  0  0  0
  187.8600  177.8170  148.7160 N   0  0  0  0  0  1  0  0  0  0  0  0
  184.8200  179.2490  142.9840 O   0  0  0  0  0  0  0  0  0  0  0  0
  182.7140  178.7450  143.9680 C   0  0  0  0  0  1  0  0  0  0  0  0
  184.1570  179.1330  144.2100 C   0  0  0  0  0  2  0  0  0  0  0  0
  184.2340  171.8240  137.2650 O   0  0  0  0  0  1  0  0  0  0  0  0
  184.9140  172.9290  137.4870 O   0  0  0  0  0  0  0  0  0  0  0  0
  184.8510  175.2970  136.0360 C   0  0  1  0  0  3  0  0  0  0  0  0
  184.6430  176.3730  134.9620 C   0  0  0  0  0  1  0  0  0  0  0  0
  183.4530  175.2070  138.0750 C   0  0  0  0  0  2  0  0  0  0  0  0
  183.5060  174.8240  136.6100 C   0  0  1  0  0  3  0  0  0  0  0  0
  182.6600  176.0180  137.0770 C   0  0  1  0  0  3  0  0  0  0  0  0
  181.1630  175.7080  137.2890 C   0  0  1  0  0  3  0  0  0  0  0  0
  181.4790  173.0720  134.8120 N   0  0  0  0  0  0  0  0  0  0  0  0
  181.2960  174.4020  135.0890 O   0  0  0  0  0  0  0  0  0  0  0  0
  180.4650  173.2140  136.9120 C   0  0  1  0  0  3  0  0  0  0  0  0
  179.2450  174.0280  136.4690 C   0  0  0  0  0  2  0  0  0  0  0  0
  181.0070  172.3780  135.7880 C   0  0  0  0  0  0  0  0  0  0  0  0
  180.6390  174.6120  136.3290 C   0  0  1  0  0  0  0  0  0  0  0  0
  181.6300  170.2650  134.6990 C   0  0  0  0  0  1  0  0  0  0  0  0
  181.0450  170.9870  135.7760 O   0  0  0  0  0  0  0  0  0  0  0  0
  180.8600  175.3950  138.7760 C   0  0  0  0  0  2  0  0  0  0  0  0
  179.6590  175.2500  141.2460 O   0  0  0  0  0  0  0  0  0  0  0  0
  179.0860  177.4790  141.3630 N   0  0  0  0  0  1  0  0  0  0  0  0
  180.6220  176.5980  139.5860 N   0  0  0  0  0  0  0  0  0  0  0  0
  179.7970  176.4040  140.7600 C   0  0  0  0  0  0  0  0  0  0  0  0
  182.2180  180.4410  138.6970 C   0  0  0  0  0  3  0  0  0  0  0  0
  181.0210  180.0610  138.1830 N   0  0  0  0  0  0  0  0  0  0  0  0
  180.5070  178.8210  138.3930 C   0  0  0  0  0  0  0  0  0  0  0  0
  182.4430  178.2820  139.7190 C   0  0  0  0  0  3  0  0  0  0  0  0
  181.1910  177.8900  139.2190 C   0  0  0  0  0  0  0  0  0  0  0  0
  182.9590  179.5470  139.4650 C   0  0  0  0  0  3  0  0  0  0  0  0
  179.3320  178.5210  137.7920 F   0  0  0  0  0  0  0  0  0  0  0  0
  1  4  1  0  0  0  0
  1  5  1  0  0  0  0
  3  2  2  0  0  0  0
  4 37  1  1  0  0  0
  4  6  1  0  0  0  0
  5  3  1  0  0  0  0
  6  3  1  0  0  0  0
  6 36  1  1  0  0  0
  7 15  1  0  0  0  0
  8 14  1  0  0  0  0
  8 12  1  0  0  0  0
  9 10  1  0  0  0  0
 11  7  2  0  0  0  0
 12  9  1  0  0  0  0
 12  7  1  0  0  0  0
 13 14  1  0  0  0  0
 13 10  1  0  0  0  0
 14  5  1  6  0  0  0
 15 16  1  0  0  0  0
 17 18  1  0  0  0  0
 17 20  2  0  0  0  0
 19 16  1  6  0  0  0
 19 17  1  0  0  0  0
 19 18  1  0  0  0  0
 21 24  1  0  0  0  0
 21 27  1  0  0  0  0
 22 18  1  6  0  0  0
 22 21  1  0  0  0  0
 23 32  1  1  0  0  0
 23 24  1  0  0  0  0
 25 23  1  0  0  0  0
 25 22  1  0  0  0  0
 27 26  1  6  0  0  0
 27 28  1  0  0  0  0
 28 30  1  0  0  0  0
 29 30  1  0  0  0  0
 30 31  1  0  0  0  0
 32 34  1  0  0  0  0
 33 34  1  0  0  0  0
 35 36  1  0  0  0  0
 37 38  1  6  0  0  0
 40 37  1  6  0  0  0
 40 41  1  0  0  0  0
 40 39  1  0  0  0  0
 41 42  1  1  0  0  0
 41 39  1  0  0  0  0
 42 51  1  1  0  0  0
 43 44  1  0  0  0  0
 43 47  2  0  0  0  0
 44 48  1  0  0  0  0
 45 46  1  6  0  0  0
 47 45  1  0  0  0  0
 48 46  1  0  0  0  0
 48 45  1  0  0  0  0
 48 42  1  1  0  0  0
 49 50  1  0  0  0  0
 50 47  1  0  0  0  0
 51 54  1  0  0  0  0
 54 55  1  0  0  0  0
 55 52  2  0  0  0  0
 55 53  1  0  0  0  0
 56 61  1  0  0  0  0
 57 58  1  0  0  0  0
 57 56  2  0  0  0  0
 58 60  2  0  0  0  0
 60 54  1  0  0  0  0
 60 59  1  0  0  0  0
 61 59  2  0  0  0  0
 62 58  1  0  0  0  0
M  END
>  <MODEL>
2

>  <REMARK>
 VINA RESULT:      -4.8      3.123      9.640
  Name = 
  19 active torsions:
  status: ('A' for Active; 'I' for Inactive)
    1  A    between atoms: O_2  and  C_22
    2  A    between atoms: O_2  and  C_54
    3  A    between atoms: C_4  and  C_29
    4  A    between atoms: N_9  and  C_45
    5  A    between atoms: C_10  and  C_29
    6  A    between atoms: C_10  and  C_30
    7  A    between atoms: C_13  and  C_34
    8  A    between atoms: C_13  and  C_42
    9  A    between atoms: C_14  and  N_20
   10  A    between atoms: C_25  and  N_36
   11  A    between atoms: O_26  and  C_56
   12  A    between atoms: C_28  and  C_50
   13  A    between atoms: C_28  and  C_52
   14  A    between atoms: C_28  and  C_61
   15  A    between atoms: N_36  and  C_52
   16  A    between atoms: N_44  and  C_58
   17  A    between atoms: C_45  and  N_51
   18  A    between atoms: N_51  and  N_55
   19  A    between atoms: C_57  and  O_60
                            x       y       z     vdW  Elec       q    Type
                         _______ _______ _______ _____ _____    ______ ____

>  <TORSDO>
F 19

$$$$
=
 OpenBabel11062416403D

 62 69  0  0  1  0  0  0  0  0999 V2000
  186.0170  173.1970  137.7540 C   0  0  0  0  0  2  0  0  0  0  0  0
  184.3500  171.8130  134.9930 O   0  0  0  0  0  0  0  0  0  0  0  0
  185.2010  172.1990  135.8520 C   0  0  0  0  0  0  0  0  0  0  0  0
  187.2150  172.5220  137.0540 C   0  0  1  0  0  3  0  0  0  0  0  0
  184.9520  173.2560  136.7580 N   0  0  0  0  0  0  0  0  0  0  0  0
  186.5320  171.5740  136.0380 C   0  0  2  0  0  3  0  0  0  0  0  0
  183.1000  177.4650  137.4540 C   0  0  0  0  0  0  0  0  0  0  0  0
  184.7280  175.6090  137.4160 C   0  0  0  0  0  2  0  0  0  0  0  0
  184.8910  177.4190  135.6980 C   0  0  0  0  0  2  0  0  0  0  0  0
  184.5950  176.4060  134.5940 C   0  0  0  0  0  2  0  0  0  0  0  0
  183.1270  178.2590  138.4350 O   0  0  0  0  0  0  0  0  0  0  0  0
  184.3270  176.9260  136.9510 N   0  0  0  0  0  0  0  0  0  0  0  0
  185.0950  175.0030  134.9870 C   0  0  0  0  0  2  0  0  0  0  0  0
  184.4700  174.5680  136.3240 C   0  0  1  0  0  3  0  0  0  0  0  0
  181.7800  176.9360  136.9920 C   0  0  0  0  0  2  0  0  0  0  0  0
  181.1950  177.8310  135.9190 C   0  0  0  0  0  2  0  0  0  0  0  0
  179.2880  179.2410  135.7500 C   0  0  0  0  0  0  0  0  0  0  0  0
  179.3910  178.7310  137.1920 N   0  0  0  0  0  0  0  0  0  0  0  0
  179.6910  177.9490  136.0730 C   0  0  2  0  0  3  0  0  0  0  0  0
  179.0410  180.1610  134.9190 O   0  0  0  0  0  0  0  0  0  0  0  0
  180.3740  179.7230  139.1390 N   0  0  0  0  0  0  0  0  0  0  0  0
  179.2360  178.9720  138.6170 C   0  0  2  0  0  3  0  0  0  0  0  0
  180.1490  178.0680  140.8620 C   0  0  2  0  0  3  0  0  0  0  0  0
  180.3470  179.5420  140.5830 C   0  0  0  0  0  2  0  0  0  0  0  0
  179.1380  177.3920  139.5180 S   0  0  0  0  0  0  0  0  0  0  0  0
  178.9590  181.4210  138.3350 O   0  0  0  0  0  1  0  0  0  0  0  0
  180.2470  181.1450  138.7940 C   0  0  2  0  0  3  0  0  0  0  0  0
  181.2240  181.5770  137.7920 N   0  0  0  0  0  2  0  0  0  0  0  0
  181.2030  183.8390  137.4340 C   0  0  0  0  0  1  0  0  0  0  0  0
  180.6220  182.5770  137.0200 N   0  0  0  0  0  0  0  0  0  0  0  0
  180.9950  182.3580  135.6870 N   0  0  0  0  0  1  0  0  0  0  0  0
  179.4900  177.9000  142.0800 O   0  0  0  0  0  0  0  0  0  0  0  0
  179.1980  178.9440  144.1980 C   0  0  0  0  0  1  0  0  0  0  0  0
  179.8180  179.0420  142.8190 C   0  0  0  0  0  2  0  0  0  0  0  0
  187.4640  170.2250  134.6430 O   0  0  0  0  0  1  0  0  0  0  0  0
  187.2010  171.5030  134.8110 O   0  0  0  0  0  0  0  0  0  0  0  0
  188.1230  173.5880  136.4000 C   0  0  1  0  0  3  0  0  0  0  0  0
  187.4520  174.9680  136.4410 C   0  0  0  0  0  1  0  0  0  0  0  0
  190.5510  173.3870  135.9700 C   0  0  0  0  0  2  0  0  0  0  0  0
  189.5150  173.6330  137.0490 C   0  0  1  0  0  3  0  0  0  0  0  0
  190.3460  174.7950  136.4820 C   0  0  1  0  0  3  0  0  0  0  0  0
  191.5780  175.1810  137.3260 C   0  0  1  0  0  3  0  0  0  0  0  0
  194.7920  175.1560  135.6380 N   0  0  0  0  0  0  0  0  0  0  0  0
  193.4340  174.9780  135.5730 O   0  0  0  0  0  0  0  0  0  0  0  0
  194.0700  174.5130  137.7650 C   0  0  1  0  0  3  0  0  0  0  0  0
  193.3900  173.2090  137.3390 C   0  0  0  0  0  2  0  0  0  0  0  0
  195.1880  174.8820  136.8320 C   0  0  0  0  0  0  0  0  0  0  0  0
  192.8860  174.5370  136.8050 C   0  0  1  0  0  0  0  0  0  0  0  0
  197.0490  174.2650  138.3150 C   0  0  0  0  0  1  0  0  0  0  0  0
  196.5300  174.9650  137.1890 O   0  0  0  0  0  0  0  0  0  0  0  0
  191.6900  176.7190  137.4840 C   0  0  0  0  0  2  0  0  0  0  0  0
  189.4340  177.9230  136.4710 O   0  0  0  0  0  0  0  0  0  0  0  0
  188.8870  179.0610  138.3990 N   0  0  0  0  0  1  0  0  0  0  0  0
  190.6620  177.2890  138.3660 N   0  0  0  0  0  0  0  0  0  0  0  0
  189.6410  178.0740  137.7050 C   0  0  0  0  0  0  0  0  0  0  0  0
  190.6610  176.8280  142.5960 C   0  0  0  0  0  3  0  0  0  0  0  0
  191.8220  177.0590  141.9330 N   0  0  0  0  0  0  0  0  0  0  0  0
  191.8730  177.1500  140.5780 C   0  0  0  0  0  0  0  0  0  0  0  0
  189.4930  176.7930  140.5000 C   0  0  0  0  0  3  0  0  0  0  0  0
  190.6830  177.0650  139.8070 C   0  0  0  0  0  0  0  0  0  0  0  0
  189.4730  176.6760  141.8850 C   0  0  0  0  0  3  0  0  0  0  0  0
  193.0870  177.3290  140.0080 F   0  0  0  0  0  0  0  0  0  0  0  0
  2  3  2  0  0  0  0
  3  6  1  0  0  0  0
  3  5  1  0  0  0  0
  4 37  1  6  0  0  0
  4  1  1  0  0  0  0
  5  1  1  0  0  0  0
  6 36  1  6  0  0  0
  6  4  1  0  0  0  0
  7 11  2  0  0  0  0
  9 12  1  0  0  0  0
 10 13  1  0  0  0  0
 10  9  1  0  0  0  0
 12  8  1  0  0  0  0
 12  7  1  0  0  0  0
 14 13  1  6  0  0  0
 14  5  1  0  0  0  0
 14  8  1  0  0  0  0
 15  7  1  0  0  0  0
 16 15  1  0  0  0  0
 17 19  1  0  0  0  0
 17 18  1  0  0  0  0
 19 16  1  1  0  0  0
 19 18  1  0  0  0  0
 20 17  2  0  0  0  0
 21 24  1  0  0  0  0
 22 18  1  6  0  0  0
 22 21  1  0  0  0  0
 22 25  1  0  0  0  0
 23 32  1  1  0  0  0
 24 23  1  0  0  0  0
 25 23  1  0  0  0  0
 27 26  1  6  0  0  0
 27 21  1  0  0  0  0
 28 27  1  0  0  0  0
 30 29  1  0  0  0  0
 30 28  1  0  0  0  0
 31 30  1  0  0  0  0
 32 34  1  0  0  0  0
 34 33  1  0  0  0  0
 35 36  1  0  0  0  0
 37 38  1  1  0  0  0
 39 41  1  0  0  0  0
 39 40  1  0  0  0  0
 40 37  1  6  0  0  0
 41 40  1  0  0  0  0
 41 42  1  1  0  0  0
 42 51  1  6  0  0  0
 43 47  2  0  0  0  0
 44 43  1  0  0  0  0
 44 48  1  0  0  0  0
 45 46  1  6  0  0  0
 47 50  1  0  0  0  0
 47 45  1  0  0  0  0
 48 42  1  1  0  0  0
 48 46  1  0  0  0  0
 48 45  1  0  0  0  0
 50 49  1  0  0  0  0
 51 54  1  0  0  0  0
 52 55  2  0  0  0  0
 54 60  1  0  0  0  0
 55 54  1  0  0  0  0
 55 53  1  0  0  0  0
 57 56  1  0  0  0  0
 58 57  2  0  0  0  0
 59 61  1  0  0  0  0
 60 59  2  0  0  0  0
 60 58  1  0  0  0  0
 61 56  2  0  0  0  0
 62 58  1  0  0  0  0
M  END
>  <MODEL>
3

>  <REMARK>
 VINA RESULT:      -4.7      3.612      7.338
  Name = 
  19 active torsions:
  status: ('A' for Active; 'I' for Inactive)
    1  A    between atoms: O_2  and  C_22
    2  A    between atoms: O_2  and  C_54
    3  A    between atoms: C_4  and  C_29
    4  A    between atoms: N_9  and  C_45
    5  A    between atoms: C_10  and  C_29
    6  A    between atoms: C_10  and  C_30
    7  A    between atoms: C_13  and  C_34
    8  A    between atoms: C_13  and  C_42
    9  A    between atoms: C_14  and  N_20
   10  A    between atoms: C_25  and  N_36
   11  A    between atoms: O_26  and  C_56
   12  A    between atoms: C_28  and  C_50
   13  A    between atoms: C_28  and  C_52
   14  A    between atoms: C_28  and  C_61
   15  A    between atoms: N_36  and  C_52
   16  A    between atoms: N_44  and  C_58
   17  A    between atoms: C_45  and  N_51
   18  A    between atoms: N_51  and  N_55
   19  A    between atoms: C_57  and  O_60
                            x       y       z     vdW  Elec       q    Type
                         _______ _______ _______ _____ _____    ______ ____

>  <TORSDO>
F 19

$$$$
=
 OpenBabel11062416403D

 62 69  0  0  1  0  0  0  0  0999 V2000
  187.1940  175.3100  135.0520 C   0  0  0  0  0  2  0  0  0  0  0  0
  187.5250  173.0520  137.7170 O   0  0  0  0  0  0  0  0  0  0  0  0
  187.1110  173.7830  136.7660 C   0  0  0  0  0  0  0  0  0  0  0  0
  185.7480  174.7730  135.1020 C   0  0  1  0  0  3  0  0  0  0  0  0
  187.8080  174.9300  136.3200 N   0  0  0  0  0  0  0  0  0  0  0  0
  185.8810  173.5080  135.9860 C   0  0  2  0  0  3  0  0  0  0  0  0
  190.8760  177.0190  139.1210 C   0  0  0  0  0  0  0  0  0  0  0  0
  189.7520  176.2240  137.0720 C   0  0  0  0  0  2  0  0  0  0  0  0
  189.4830  178.6100  137.7710 C   0  0  0  0  0  2  0  0  0  0  0  0
  187.9860  178.3880  137.9770 C   0  0  0  0  0  2  0  0  0  0  0  0
  192.1380  177.0570  139.1300 O   0  0  0  0  0  0  0  0  0  0  0  0
  190.1720  177.3310  137.9140 N   0  0  0  0  0  0  0  0  0  0  0  0
  187.4590  177.2930  137.0300 C   0  0  0  0  0  2  0  0  0  0  0  0
  188.2480  175.9870  137.2310 C   0  0  1  0  0  3  0  0  0  0  0  0
  190.1650  176.4350  140.2990 C   0  0  0  0  0  2  0  0  0  0  0  0
  190.1060  177.4370  141.4340 C   0  0  0  0  0  2  0  0  0  0  0  0
  190.4720  175.7410  143.0600 C   0  0  0  0  0  0  0  0  0  0  0  0
  190.1910  177.0600  143.7870 N   0  0  0  0  0  0  0  0  0  0  0  0
  190.9410  176.9720  142.6110 C   0  0  2  0  0  3  0  0  0  0  0  0
  190.3430  174.4870  142.9560 O   0  0  0  0  0  0  0  0  0  0  0  0
  189.9180  177.1150  146.1680 N   0  0  0  0  0  0  0  0  0  0  0  0
  189.5860  177.7670  144.9040 C   0  0  2  0  0  3  0  0  0  0  0  0
  187.5790  177.5190  146.5180 C   0  0  2  0  0  3  0  0  0  0  0  0
  188.9550  177.6070  147.1410 C   0  0  0  0  0  2  0  0  0  0  0  0
  187.7720  177.7820  144.7350 S   0  0  0  0  0  0  0  0  0  0  0  0
  192.2140  176.7080  145.8510 O   0  0  0  0  0  1  0  0  0  0  0  0
  191.2870  177.4600  146.5750 C   0  0  2  0  0  3  0  0  0  0  0  0
  191.5190  177.2700  148.0090 N   0  0  0  0  0  2  0  0  0  0  0  0
  193.0670  176.5670  149.5440 C   0  0  0  0  0  1  0  0  0  0  0  0
  192.6810  176.5020  148.1480 N   0  0  0  0  0  0  0  0  0  0  0  0
  192.3380  175.1720  147.8670 N   0  0  0  0  0  1  0  0  0  0  0  0
  186.7500  178.5030  147.0550 O   0  0  0  0  0  0  0  0  0  0  0  0
  185.0810  179.1680  145.4960 C   0  0  0  0  0  1  0  0  0  0  0  0
  185.4730  178.1870  146.5810 C   0  0  0  0  0  2  0  0  0  0  0  0
  185.0630  172.2010  137.4880 O   0  0  0  0  0  1  0  0  0  0  0  0
  184.7990  173.3230  136.8530 O   0  0  0  0  0  0  0  0  0  0  0  0
  184.7990  175.8430  135.6840 C   0  0  1  0  0  3  0  0  0  0  0  0
  184.3670  176.8340  134.5940 C   0  0  0  0  0  1  0  0  0  0  0  0
  183.4360  175.8310  137.7490 C   0  0  0  0  0  2  0  0  0  0  0  0
  183.5760  175.2150  136.3720 C   0  0  1  0  0  3  0  0  0  0  0  0
  182.4990  176.2740  136.6500 C   0  0  1  0  0  3  0  0  0  0  0  0
  181.0970  175.7070  136.9570 C   0  0  1  0  0  3  0  0  0  0  0  0
  181.0690  172.9010  134.6540 N   0  0  0  0  0  0  0  0  0  0  0  0
  181.4350  174.1960  134.9170 O   0  0  0  0  0  0  0  0  0  0  0  0
  179.5240  173.7670  136.1770 C   0  0  1  0  0  3  0  0  0  0  0  0
  179.0970  174.9730  135.3340 C   0  0  0  0  0  2  0  0  0  0  0  0
  179.9970  172.6330  135.3140 C   0  0  0  0  0  0  0  0  0  0  0  0
  180.5350  174.8440  135.8010 C   0  0  1  0  0  0  0  0  0  0  0  0
  179.0220  170.6520  136.3950 C   0  0  0  0  0  1  0  0  0  0  0  0
  179.3860  171.3860  135.2310 O   0  0  0  0  0  0  0  0  0  0  0  0
  181.0770  174.9690  138.3190 C   0  0  0  0  0  2  0  0  0  0  0  0
  179.9400  173.8700  140.5700 O   0  0  0  0  0  0  0  0  0  0  0  0
  178.9310  175.8100  141.2970 N   0  0  0  0  0  1  0  0  0  0  0  0
  180.6050  175.8080  139.4290 N   0  0  0  0  0  0  0  0  0  0  0  0
  179.8410  175.1200  140.4480 C   0  0  0  0  0  0  0  0  0  0  0  0
  181.5170  179.9640  139.3950 C   0  0  0  0  0  3  0  0  0  0  0  0
  182.4180  179.0690  139.8730 N   0  0  0  0  0  0  0  0  0  0  0  0
  182.1410  177.7420  139.9580 C   0  0  0  0  0  0  0  0  0  0  0  0
  179.9630  178.1730  139.0240 C   0  0  0  0  0  3  0  0  0  0  0  0
  180.9010  177.2350  139.4860 C   0  0  0  0  0  0  0  0  0  0  0  0
  180.2630  179.5300  138.9750 C   0  0  0  0  0  3  0  0  0  0  0  0
  183.0870  176.9380  140.4980 F   0  0  0  0  0  0  0  0  0  0  0  0
  1  4  1  0  0  0  0
  1  5  1  0  0  0  0
  3  2  2  0  0  0  0
  4 37  1  1  0  0  0
  4  6  1  0  0  0  0
  5  3  1  0  0  0  0
  6  3  1  0  0  0  0
  6 36  1  1  0  0  0
  7 11  2  0  0  0  0
  7 15  1  0  0  0  0
  8 14  1  0  0  0  0
  8 12  1  0  0  0  0
  9 12  1  0  0  0  0
  9 10  1  0  0  0  0
 12  7  1  0  0  0  0
 13 14  1  0  0  0  0
 13 10  1  0  0  0  0
 14  5  1  6  0  0  0
 15 16  1  0  0  0  0
 17 18  1  0  0  0  0
 19 16  1  6  0  0  0
 19 17  1  0  0  0  0
 19 18  1  0  0  0  0
 20 17  2  0  0  0  0
 21 27  1  0  0  0  0
 21 24  1  0  0  0  0
 22 18  1  6  0  0  0
 22 21  1  0  0  0  0
 23 32  1  1  0  0  0
 23 24  1  0  0  0  0
 25 22  1  0  0  0  0
 25 23  1  0  0  0  0
 27 26  1  6  0  0  0
 27 28  1  0  0  0  0
 28 30  1  0  0  0  0
 30 29  1  0  0  0  0
 31 30  1  0  0  0  0
 33 34  1  0  0  0  0
 34 32  1  0  0  0  0
 36 35  1  0  0  0  0
 37 38  1  6  0  0  0
 40 37  1  6  0  0  0
 40 41  1  0  0  0  0
 40 39  1  0  0  0  0
 41 42  1  1  0  0  0
 41 39  1  0  0  0  0
 42 51  1  1  0  0  0
 43 44  1  0  0  0  0
 43 47  2  0  0  0  0
 44 48  1  0  0  0  0
 45 46  1  6  0  0  0
 46 48  1  0  0  0  0
 47 45  1  0  0  0  0
 48 45  1  0  0  0  0
 48 42  1  1  0  0  0
 50 47  1  0  0  0  0
 50 49  1  0  0  0  0
 51 54  1  0  0  0  0
 54 60  1  0  0  0  0
 54 55  1  0  0  0  0
 55 52  2  0  0  0  0
 55 53  1  0  0  0  0
 56 57  1  0  0  0  0
 57 58  2  0  0  0  0
 58 62  1  0  0  0  0
 59 60  2  0  0  0  0
 60 58  1  0  0  0  0
 61 59  1  0  0  0  0
 61 56  2  0  0  0  0
M  END
>  <MODEL>
4

>  <REMARK>
 VINA RESULT:      -3.8      3.309     10.497
  Name = 
  19 active torsions:
  status: ('A' for Active; 'I' for Inactive)
    1  A    between atoms: O_2  and  C_22
    2  A    between atoms: O_2  and  C_54
    3  A    between atoms: C_4  and  C_29
    4  A    between atoms: N_9  and  C_45
    5  A    between atoms: C_10  and  C_29
    6  A    between atoms: C_10  and  C_30
    7  A    between atoms: C_13  and  C_34
    8  A    between atoms: C_13  and  C_42
    9  A    between atoms: C_14  and  N_20
   10  A    between atoms: C_25  and  N_36
   11  A    between atoms: O_26  and  C_56
   12  A    between atoms: C_28  and  C_50
   13  A    between atoms: C_28  and  C_52
   14  A    between atoms: C_28  and  C_61
   15  A    between atoms: N_36  and  C_52
   16  A    between atoms: N_44  and  C_58
   17  A    between atoms: C_45  and  N_51
   18  A    between atoms: N_51  and  N_55
   19  A    between atoms: C_57  and  O_60
                            x       y       z     vdW  Elec       q    Type
                         _______ _______ _______ _____ _____    ______ ____

>  <TORSDO>
F 19

$$$$
=
 OpenBabel11062416403D

 62 69  0  0  1  0  0  0  0  0999 V2000
  189.4160  175.9970  140.2190 C   0  0  0  0  0  2  0  0  0  0  0  0
  187.4920  178.8200  139.4210 O   0  0  0  0  0  0  0  0  0  0  0  0
  188.3670  177.9040  139.4830 C   0  0  0  0  0  0  0  0  0  0  0  0
  190.2290  176.5180  139.0150 C   0  0  1  0  0  3  0  0  0  0  0  0
  188.5580  177.1020  140.6330 N   0  0  0  0  0  0  0  0  0  0  0  0
  189.2620  177.5350  138.3610 C   0  0  2  0  0  3  0  0  0  0  0  0
  187.6680  177.4540  145.1840 C   0  0  0  0  0  0  0  0  0  0  0  0
  188.5230  176.5940  143.0330 C   0  0  0  0  0  2  0  0  0  0  0  0
  190.0850  177.7710  144.5920 C   0  0  0  0  0  2  0  0  0  0  0  0
  190.2900  178.8790  143.5610 C   0  0  0  0  0  2  0  0  0  0  0  0
  187.2810  176.6180  146.0460 O   0  0  0  0  0  0  0  0  0  0  0  0
  188.7910  177.1400  144.3530 N   0  0  0  0  0  0  0  0  0  0  0  0
  190.1230  178.3350  142.1300 C   0  0  0  0  0  2  0  0  0  0  0  0
  188.7430  177.6720  141.9680 C   0  0  1  0  0  3  0  0  0  0  0  0
  186.8110  178.6460  144.9020 C   0  0  0  0  0  2  0  0  0  0  0  0
  185.8550  178.3560  143.7620 C   0  0  0  0  0  2  0  0  0  0  0  0
  183.8150  179.2420  144.6020 C   0  0  0  0  0  0  0  0  0  0  0  0
  183.6270  178.9090  143.1180 N   0  0  0  0  0  0  0  0  0  0  0  0
  184.8060  179.4440  143.6450 C   0  0  2  0  0  3  0  0  0  0  0  0
  183.3830  179.2770  145.7900 O   0  0  0  0  0  0  0  0  0  0  0  0
  182.9390  179.2330  140.8450 N   0  0  0  0  0  0  0  0  0  0  0  0
  182.7780  178.4170  142.0450 C   0  0  2  0  0  3  0  0  0  0  0  0
  180.5480  179.0250  140.8830 C   0  0  2  0  0  3  0  0  0  0  0  0
  181.7810  178.9510  140.0090 C   0  0  0  0  0  2  0  0  0  0  0  0
  181.0280  178.4830  142.5450 S   0  0  0  0  0  0  0  0  0  0  0  0
  184.6070  179.9270  139.3380 O   0  0  0  0  0  1  0  0  0  0  0  0
  184.1810  178.8730  140.1470 C   0  0  2  0  0  3  0  0  0  0  0  0
  184.0470  177.6600  139.3370 N   0  0  0  0  0  2  0  0  0  0  0  0
  185.3920  177.6880  137.4820 C   0  0  0  0  0  1  0  0  0  0  0  0
  184.0830  178.0470  137.9920 N   0  0  0  0  0  0  0  0  0  0  0  0
  183.1370  177.2700  137.3090 N   0  0  0  0  0  1  0  0  0  0  0  0
  179.5570  178.1850  140.3780 O   0  0  0  0  0  0  0  0  0  0  0  0
  179.0170  175.8770  140.1830 C   0  0  0  0  0  1  0  0  0  0  0  0
  180.0890  176.8970  140.5010 C   0  0  0  0  0  2  0  0  0  0  0  0
  189.1730  179.0700  136.8540 O   0  0  0  0  0  1  0  0  0  0  0  0
  189.9080  178.6760  137.8730 O   0  0  0  0  0  0  0  0  0  0  0  0
  191.5580  177.1410  139.4970 C   0  0  1  0  0  3  0  0  0  0  0  0
  191.9310  176.6110  140.8880 C   0  0  0  0  0  1  0  0  0  0  0  0
  193.7540  176.0510  139.1660 C   0  0  0  0  0  2  0  0  0  0  0  0
  192.6990  176.9070  138.4940 C   0  0  1  0  0  3  0  0  0  0  0  0
  192.8310  175.4150  138.1530 C   0  0  1  0  0  3  0  0  0  0  0  0
  193.6510  175.1120  136.8820 C   0  0  1  0  0  3  0  0  0  0  0  0
  196.5110  173.3160  138.2120 N   0  0  0  0  0  0  0  0  0  0  0  0
  195.5340  174.2600  138.3940 O   0  0  0  0  0  0  0  0  0  0  0  0
  195.9660  174.1690  136.1070 C   0  0  1  0  0  3  0  0  0  0  0  0
  196.2380  175.6410  136.4330 C   0  0  0  0  0  2  0  0  0  0  0  0
  196.7980  173.2540  136.9590 C   0  0  0  0  0  0  0  0  0  0  0  0
  195.1540  174.8860  137.1800 C   0  0  1  0  0  0  0  0  0  0  0  0
  199.1390  172.7680  136.3860 C   0  0  0  0  0  1  0  0  0  0  0  0
  197.7710  172.3830  136.4790 O   0  0  0  0  0  0  0  0  0  0  0  0
  193.0210  173.9510  136.0710 C   0  0  0  0  0  2  0  0  0  0  0  0
  192.5510  176.2780  134.6800 O   0  0  0  0  0  0  0  0  0  0  0  0
  190.2590  176.2350  134.9130 N   0  0  0  0  0  1  0  0  0  0  0  0
  191.6900  174.2710  135.5350 N   0  0  0  0  0  0  0  0  0  0  0  0
  191.5350  175.6130  135.0150 C   0  0  0  0  0  0  0  0  0  0  0  0
  188.4740  171.4910  135.3550 C   0  0  0  0  0  3  0  0  0  0  0  0
  188.4130  172.5550  136.1950 N   0  0  0  0  0  0  0  0  0  0  0  0
  189.4440  173.4300  136.3260 C   0  0  0  0  0  0  0  0  0  0  0  0
  190.6790  172.1650  134.6910 C   0  0  0  0  0  3  0  0  0  0  0  0
  190.6130  173.2880  135.5320 C   0  0  0  0  0  0  0  0  0  0  0  0
  189.6200  171.2690  134.5970 C   0  0  0  0  0  3  0  0  0  0  0  0
  189.3060  174.4280  137.2300 F   0  0  0  0  0  0  0  0  0  0  0  0
  1  5  1  0  0  0  0
  2  3  2  0  0  0  0
  3  5  1  0  0  0  0
  4 37  1  1  0  0  0
  4  1  1  0  0  0  0
  6 36  1  1  0  0  0
  6  4  1  0  0  0  0
  6  3  1  0  0  0  0
  7 11  2  0  0  0  0
  8 12  1  0  0  0  0
 10  9  1  0  0  0  0
 12  9  1  0  0  0  0
 12  7  1  0  0  0  0
 13 10  1  0  0  0  0
 14  5  1  6  0  0  0
 14 13  1  0  0  0  0
 14  8  1  0  0  0  0
 15  7  1  0  0  0  0
 16 15  1  0  0  0  0
 17 20  2  0  0  0  0
 18 19  1  0  0  0  0
 18 17  1  0  0  0  0
 19 16  1  1  0  0  0
 19 17  1  0  0  0  0
 21 22  1  0  0  0  0
 22 25  1  0  0  0  0
 22 18  1  1  0  0  0
 23 32  1  6  0  0  0
 23 25  1  0  0  0  0
 24 21  1  0  0  0  0
 24 23  1  0  0  0  0
 27 26  1  6  0  0  0
 27 21  1  0  0  0  0
 28 27  1  0  0  0  0
 29 30  1  0  0  0  0
 30 28  1  0  0  0  0
 31 30  1  0  0  0  0
 32 34  1  0  0  0  0
 33 34  1  0  0  0  0
 35 36  1  0  0  0  0
 37 38  1  1  0  0  0
 40 39  1  0  0  0  0
 40 37  1  1  0  0  0
 41 42  1  6  0  0  0
 41 40  1  0  0  0  0
 41 39  1  0  0  0  0
 42 51  1  1  0  0  0
 43 44  1  0  0  0  0
 45 46  1  1  0  0  0
 45 47  1  0  0  0  0
 45 48  1  0  0  0  0
 46 48  1  0  0  0  0
 47 43  2  0  0  0  0
 48 42  1  6  0  0  0
 48 44  1  0  0  0  0
 49 50  1  0  0  0  0
 50 47  1  0  0  0  0
 52 55  2  0  0  0  0
 53 55  1  0  0  0  0
 54 51  1  0  0  0  0
 55 54  1  0  0  0  0
 56 57  1  0  0  0  0
 57 58  2  0  0  0  0
 58 62  1  0  0  0  0
 59 60  2  0  0  0  0
 60 54  1  0  0  0  0
 60 58  1  0  0  0  0
 61 59  1  0  0  0  0
 61 56  2  0  0  0  0
M  END
>  <MODEL>
5

>  <REMARK>
 VINA RESULT:      -3.8      2.476      4.511
  Name = 
  19 active torsions:
  status: ('A' for Active; 'I' for Inactive)
    1  A    between atoms: O_2  and  C_22
    2  A    between atoms: O_2  and  C_54
    3  A    between atoms: C_4  and  C_29
    4  A    between atoms: N_9  and  C_45
    5  A    between atoms: C_10  and  C_29
    6  A    between atoms: C_10  and  C_30
    7  A    between atoms: C_13  and  C_34
    8  A    between atoms: C_13  and  C_42
    9  A    between atoms: C_14  and  N_20
   10  A    between atoms: C_25  and  N_36
   11  A    between atoms: O_26  and  C_56
   12  A    between atoms: C_28  and  C_50
   13  A    between atoms: C_28  and  C_52
   14  A    between atoms: C_28  and  C_61
   15  A    between atoms: N_36  and  C_52
   16  A    between atoms: N_44  and  C_58
   17  A    between atoms: C_45  and  N_51
   18  A    between atoms: N_51  and  N_55
   19  A    between atoms: C_57  and  O_60
                            x       y       z     vdW  Elec       q    Type
                         _______ _______ _______ _____ _____    ______ ____

>  <TORSDO>
F 19

$$$$
=
 OpenBabel11062416403D

 62 69  0  0  1  0  0  0  0  0999 V2000
  189.9410  177.1860  136.6720 C   0  0  0  0  0  2  0  0  0  0  0  0
  189.0800  173.9730  137.7870 O   0  0  0  0  0  0  0  0  0  0  0  0
  189.1590  175.0890  137.1890 C   0  0  0  0  0  0  0  0  0  0  0  0
  188.8240  176.8630  135.6580 C   0  0  1  0  0  3  0  0  0  0  0  0
  189.7910  176.2200  137.7550 N   0  0  0  0  0  0  0  0  0  0  0  0
  188.6390  175.3350  135.8230 C   0  0  2  0  0  3  0  0  0  0  0  0
  190.5100  176.6540  142.3290 C   0  0  0  0  0  0  0  0  0  0  0  0
  190.7570  176.9470  139.8900 C   0  0  0  0  0  2  0  0  0  0  0  0
  189.6400  178.7360  141.2340 C   0  0  0  0  0  2  0  0  0  0  0  0
  188.3330  178.4930  140.4830 C   0  0  0  0  0  2  0  0  0  0  0  0
  191.5560  176.6410  143.0350 O   0  0  0  0  0  0  0  0  0  0  0  0
  190.4410  177.5170  141.1890 N   0  0  0  0  0  0  0  0  0  0  0  0
  188.6070  177.9870  139.0540 C   0  0  0  0  0  2  0  0  0  0  0  0
  189.4700  176.7130  139.0950 C   0  0  1  0  0  3  0  0  0  0  0  0
  189.4670  175.6110  142.5700 C   0  0  0  0  0  2  0  0  0  0  0  0
  188.3100  176.1870  143.3600 C   0  0  0  0  0  2  0  0  0  0  0  0
  188.7790  177.0510  145.5250 C   0  0  0  0  0  0  0  0  0  0  0  0
  187.6700  177.8980  144.8930 N   0  0  0  0  0  0  0  0  0  0  0  0
  188.7540  177.3860  144.1750 C   0  0  2  0  0  3  0  0  0  0  0  0
  189.2960  176.4730  146.5250 O   0  0  0  0  0  0  0  0  0  0  0  0
  185.6590  178.1570  146.1720 N   0  0  0  0  0  0  0  0  0  0  0  0
  186.4380  178.6550  145.0410 C   0  0  2  0  0  3  0  0  0  0  0  0
  183.9120  178.3940  144.5450 C   0  0  2  0  0  3  0  0  0  0  0  0
  184.3060  178.6580  145.9810 C   0  0  0  0  0  2  0  0  0  0  0  0
  185.4170  178.5010  143.5400 S   0  0  0  0  0  0  0  0  0  0  0  0
  185.7130  179.9190  147.7300 O   0  0  0  0  0  1  0  0  0  0  0  0
  186.2220  178.6530  147.4350 C   0  0  2  0  0  3  0  0  0  0  0  0
  187.6860  178.7070  147.4240 N   0  0  0  0  0  2  0  0  0  0  0  0
  187.5310  177.4190  149.3120 C   0  0  0  0  0  1  0  0  0  0  0  0
  188.1200  178.6200  148.7520 N   0  0  0  0  0  0  0  0  0  0  0  0
  189.5090  178.4340  148.7250 N   0  0  0  0  0  1  0  0  0  0  0  0
  182.9910  179.3520  144.1220 O   0  0  0  0  0  0  0  0  0  0  0  0
  180.9620  179.4960  142.8890 C   0  0  0  0  0  1  0  0  0  0  0  0
  182.2240  178.7000  143.1500 C   0  0  0  0  0  2  0  0  0  0  0  0
  187.2310  174.2350  134.6240 O   0  0  0  0  0  1  0  0  0  0  0  0
  187.3040  174.9270  135.7410 O   0  0  0  0  0  0  0  0  0  0  0  0
  187.5550  177.6830  135.9810 C   0  0  1  0  0  3  0  0  0  0  0  0
  187.0420  178.4020  134.7250 C   0  0  0  0  0  1  0  0  0  0  0  0
  185.9680  177.4950  137.8690 C   0  0  0  0  0  2  0  0  0  0  0  0
  186.4520  176.8130  136.6050 C   0  0  1  0  0  3  0  0  0  0  0  0
  185.1100  177.5610  136.6260 C   0  0  1  0  0  3  0  0  0  0  0  0
  183.8740  176.6650  136.8490 C   0  0  1  0  0  3  0  0  0  0  0  0
  184.3020  173.1000  137.3860 N   0  0  0  0  0  0  0  0  0  0  0  0
  184.8710  174.3410  137.2550 O   0  0  0  0  0  0  0  0  0  0  0  0
  182.8790  174.3810  136.0470 C   0  0  1  0  0  3  0  0  0  0  0  0
  183.9160  174.7460  134.9810 C   0  0  0  0  0  2  0  0  0  0  0  0
  183.2080  173.0730  136.7090 C   0  0  0  0  0  0  0  0  0  0  0  0
  184.1130  175.1980  136.4160 C   0  0  1  0  0  0  0  0  0  0  0  0
  181.7240  171.5610  135.4620 C   0  0  0  0  0  1  0  0  0  0  0  0
  182.4180  171.9300  136.6490 O   0  0  0  0  0  0  0  0  0  0  0  0
  183.3520  176.7820  138.3040 C   0  0  0  0  0  2  0  0  0  0  0  0
  181.4290  175.0860  139.3000 O   0  0  0  0  0  0  0  0  0  0  0  0
  179.6310  176.2040  138.3880 N   0  0  0  0  0  1  0  0  0  0  0  0
  181.9400  177.1840  138.3840 N   0  0  0  0  0  0  0  0  0  0  0  0
  181.0110  176.1270  138.7260 C   0  0  0  0  0  0  0  0  0  0  0  0
  180.5300  181.1370  137.6900 C   0  0  0  0  0  3  0  0  0  0  0  0
  180.8790  180.3420  136.6470 N   0  0  0  0  0  0  0  0  0  0  0  0
  181.3910  179.0970  136.8300 C   0  0  0  0  0  0  0  0  0  0  0  0
  181.1910  179.4030  139.2100 C   0  0  0  0  0  3  0  0  0  0  0  0
  181.5240  178.5590  138.1380 C   0  0  0  0  0  0  0  0  0  0  0  0
  180.6950  180.6840  138.9950 C   0  0  0  0  0  3  0  0  0  0  0  0
  181.7580  178.4030  135.7270 F   0  0  0  0  0  0  0  0  0  0  0  0
  1  5  1  0  0  0  0
  3  5  1  0  0  0  0
  3  2  2  0  0  0  0
  4  6  1  0  0  0  0
  4 37  1  1  0  0  0
  4  1  1  0  0  0  0
  6 36  1  1  0  0  0
  6  3  1  0  0  0  0
  7 15  1  0  0  0  0
  7 11  2  0  0  0  0
  8 12  1  0  0  0  0
 10  9  1  0  0  0  0
 12  9  1  0  0  0  0
 12  7  1  0  0  0  0
 13 14  1  0  0  0  0
 13 10  1  0  0  0  0
 14  5  1  6  0  0  0
 14  8  1  0  0  0  0
 15 16  1  0  0  0  0
 17 20  2  0  0  0  0
 18 17  1  0  0  0  0
 19 16  1  6  0  0  0
 19 18  1  0  0  0  0
 19 17  1  0  0  0  0
 21 27  1  0  0  0  0
 22 18  1  6  0  0  0
 22 21  1  0  0  0  0
 23 32  1  6  0  0  0
 23 24  1  0  0  0  0
 24 21  1  0  0  0  0
 25 23  1  0  0  0  0
 25 22  1  0  0  0  0
 27 26  1  6  0  0  0
 28 27  1  0  0  0  0
 28 30  1  0  0  0  0
 30 29  1  0  0  0  0
 31 30  1  0  0  0  0
 33 34  1  0  0  0  0
 34 32  1  0  0  0  0
 35 36  1  0  0  0  0
 37 38  1  6  0  0  0
 40 37  1  6  0  0  0
 40 41  1  0  0  0  0
 40 39  1  0  0  0  0
 41 42  1  1  0  0  0
 41 39  1  0  0  0  0
 42 51  1  1  0  0  0
 44 43  1  0  0  0  0
 45 46  1  6  0  0  0
 45 48  1  0  0  0  0
 45 47  1  0  0  0  0
 46 48  1  0  0  0  0
 47 43  2  0  0  0  0
 48 42  1  1  0  0  0
 48 44  1  0  0  0  0
 49 50  1  0  0  0  0
 50 47  1  0  0  0  0
 51 54  1  0  0  0  0
 53 55  1  0  0  0  0
 54 55  1  0  0  0  0
 55 52  2  0  0  0  0
 56 61  1  0  0  0  0
 57 58  1  0  0  0  0
 57 56  2  0  0  0  0
 58 60  2  0  0  0  0
 60 54  1  0  0  0  0
 60 59  1  0  0  0  0
 61 59  2  0  0  0  0
 62 58  1  0  0  0  0
M  END
>  <MODEL>
6

>  <REMARK>
 VINA RESULT:      -3.8      2.991      8.182
  Name = 
  19 active torsions:
  status: ('A' for Active; 'I' for Inactive)
    1  A    between atoms: O_2  and  C_22
    2  A    between atoms: O_2  and  C_54
    3  A    between atoms: C_4  and  C_29
    4  A    between atoms: N_9  and  C_45
    5  A    between atoms: C_10  and  C_29
    6  A    between atoms: C_10  and  C_30
    7  A    between atoms: C_13  and  C_34
    8  A    between atoms: C_13  and  C_42
    9  A    between atoms: C_14  and  N_20
   10  A    between atoms: C_25  and  N_36
   11  A    between atoms: O_26  and  C_56
   12  A    between atoms: C_28  and  C_50
   13  A    between atoms: C_28  and  C_52
   14  A    between atoms: C_28  and  C_61
   15  A    between atoms: N_36  and  C_52
   16  A    between atoms: N_44  and  C_58
   17  A    between atoms: C_45  and  N_51
   18  A    between atoms: N_51  and  N_55
   19  A    between atoms: C_57  and  O_60
                            x       y       z     vdW  Elec       q    Type
                         _______ _______ _______ _____ _____    ______ ____

>  <TORSDO>
F 19

$$$$
=
 OpenBabel11062416403D

 62 69  0  0  1  0  0  0  0  0999 V2000
  186.2690  176.4930  143.9350 C   0  0  0  0  0  2  0  0  0  0  0  0
  187.6490  178.5070  146.4550 O   0  0  0  0  0  0  0  0  0  0  0  0
  186.9850  178.0310  145.4850 C   0  0  0  0  0  0  0  0  0  0  0  0
  185.4040  177.7560  143.7440 C   0  0  1  0  0  3  0  0  0  0  0  0
  187.4150  176.9090  144.7380 N   0  0  0  0  0  0  0  0  0  0  0  0
  185.6720  178.5580  145.0410 C   0  0  2  0  0  3  0  0  0  0  0  0
  191.6580  178.5340  143.7480 C   0  0  0  0  0  0  0  0  0  0  0  0
  189.7540  177.5950  145.0100 C   0  0  0  0  0  2  0  0  0  0  0  0
  191.6050  176.0820  144.2760 C   0  0  0  0  0  2  0  0  0  0  0  0
  190.6330  175.3170  143.3800 C   0  0  0  0  0  2  0  0  0  0  0  0
  192.4240  179.3430  144.3430 O   0  0  0  0  0  0  0  0  0  0  0  0
  191.0950  177.4360  144.4740 N   0  0  0  0  0  0  0  0  0  0  0  0
  189.2050  175.3620  143.9560 C   0  0  0  0  0  2  0  0  0  0  0  0
  188.7520  176.8200  144.1510 C   0  0  1  0  0  3  0  0  0  0  0  0
  191.1840  178.8720  142.3720 C   0  0  0  0  0  2  0  0  0  0  0  0
  191.7150  177.8710  141.3660 C   0  0  0  0  0  2  0  0  0  0  0  0
  190.0870  176.7580  140.0360 C   0  0  0  0  0  0  0  0  0  0  0  0
  191.3650  176.9230  139.2060 N   0  0  0  0  0  0  0  0  0  0  0  0
  190.8910  177.8930  140.0930 C   0  0  2  0  0  3  0  0  0  0  0  0
  189.0840  176.0780  140.3970 O   0  0  0  0  0  0  0  0  0  0  0  0
  191.9330  175.0230  137.8600 N   0  0  0  0  0  0  0  0  0  0  0  0
  192.2910  176.3930  138.2190 C   0  0  2  0  0  3  0  0  0  0  0  0
  194.3080  174.7770  138.1020 C   0  0  2  0  0  3  0  0  0  0  0  0
  193.1140  174.4500  137.2310 C   0  0  0  0  0  2  0  0  0  0  0  0
  193.9860  176.3790  138.8870 S   0  0  0  0  0  0  0  0  0  0  0  0
  190.4510  176.3280  136.5810 O   0  0  0  0  0  1  0  0  0  0  0  0
  190.7980  175.0220  136.9270 C   0  0  2  0  0  3  0  0  0  0  0  0
  189.6230  174.3310  137.4630 N   0  0  0  0  0  2  0  0  0  0  0  0
  189.7760  172.9570  135.6360 C   0  0  0  0  0  1  0  0  0  0  0  0
  188.8930  173.8380  136.3750 N   0  0  0  0  0  0  0  0  0  0  0  0
  187.8520  173.0530  136.8920 N   0  0  0  0  0  1  0  0  0  0  0  0
  195.4590  174.8560  137.3190 O   0  0  0  0  0  0  0  0  0  0  0  0
  196.0910  172.6570  137.9690 C   0  0  0  0  0  1  0  0  0  0  0  0
  196.4220  174.1330  138.0320 C   0  0  0  0  0  2  0  0  0  0  0  0
  184.5740  180.2870  144.3790 O   0  0  0  0  0  1  0  0  0  0  0  0
  185.7610  179.9380  144.8300 O   0  0  0  0  0  0  0  0  0  0  0  0
  185.8190  178.4990  142.4540 C   0  0  1  0  0  3  0  0  0  0  0  0
  187.3010  178.2530  142.1410 C   0  0  0  0  0  1  0  0  0  0  0  0
  183.4830  178.2510  141.6770 C   0  0  0  0  0  2  0  0  0  0  0  0
  184.9330  178.1130  141.2580 C   0  0  1  0  0  3  0  0  0  0  0  0
  184.0930  179.3110  140.7890 C   0  0  1  0  0  3  0  0  0  0  0  0
  183.4860  179.1620  139.3790 C   0  0  1  0  0  3  0  0  0  0  0  0
  181.8570  182.1010  138.0040 N   0  0  0  0  0  0  0  0  0  0  0  0
  182.5430  181.5190  139.0380 O   0  0  0  0  0  0  0  0  0  0  0  0
  181.3920  179.8120  137.9500 C   0  0  1  0  0  3  0  0  0  0  0  0
  180.8620  179.7020  139.3830 C   0  0  0  0  0  2  0  0  0  0  0  0
  181.1840  181.1900  137.3910 C   0  0  0  0  0  0  0  0  0  0  0  0
  182.2980  180.1260  139.1350 C   0  0  1  0  0  0  0  0  0  0  0  0
  180.7390  181.1140  134.9750 C   0  0  0  0  0  1  0  0  0  0  0  0
  180.3790  181.4940  136.2980 O   0  0  0  0  0  0  0  0  0  0  0  0
  184.5770  179.2690  138.2840 C   0  0  0  0  0  2  0  0  0  0  0  0
  187.2100  178.5300  138.5770 O   0  0  0  0  0  0  0  0  0  0  0  0
  187.1570  176.8360  137.0150 N   0  0  0  0  0  1  0  0  0  0  0  0
  185.0650  177.9630  137.8190 N   0  0  0  0  0  0  0  0  0  0  0  0
  186.5020  177.7910  137.8430 C   0  0  0  0  0  0  0  0  0  0  0  0
  182.5420  174.7870  136.5350 C   0  0  0  0  0  3  0  0  0  0  0  0
  183.0930  175.6330  135.6280 N   0  0  0  0  0  0  0  0  0  0  0  0
  183.8530  176.6950  136.0020 C   0  0  0  0  0  0  0  0  0  0  0  0
  183.5460  176.0590  138.3040 C   0  0  0  0  0  3  0  0  0  0  0  0
  184.1470  176.9210  137.3730 C   0  0  0  0  0  0  0  0  0  0  0  0
  182.7490  174.9960  137.8950 C   0  0  0  0  0  3  0  0  0  0  0  0
  184.3120  177.5110  135.0250 F   0  0  0  0  0  0  0  0  0  0  0  0
  1  5  1  0  0  0  0
  3  2  2  0  0  0  0
  4 37  1  6  0  0  0
  4  1  1  0  0  0  0
  4  6  1  0  0  0  0
  5  3  1  0  0  0  0
  6 36  1  6  0  0  0
  6  3  1  0  0  0  0
  7 11  2  0  0  0  0
  7 12  1  0  0  0  0
  9 12  1  0  0  0  0
 10 13  1  0  0  0  0
 10  9  1  0  0  0  0
 12  8  1  0  0  0  0
 14 13  1  1  0  0  0
 14  5  1  0  0  0  0
 14  8  1  0  0  0  0
 15  7  1  0  0  0  0
 16 15  1  0  0  0  0
 17 19  1  0  0  0  0
 17 20  2  0  0  0  0
 18 17  1  0  0  0  0
 18 19  1  0  0  0  0
 19 16  1  1  0  0  0
 21 22  1  0  0  0  0
 22 25  1  0  0  0  0
 22 18  1  1  0  0  0
 23 32  1  6  0  0  0
 23 25  1  0  0  0  0
 24 21  1  0  0  0  0
 24 23  1  0  0  0  0
 27 26  1  1  0  0  0
 27 28  1  0  0  0  0
 27 21  1  0  0  0  0
 29 30  1  0  0  0  0
 30 31  1  0  0  0  0
 30 28  1  0  0  0  0
 32 34  1  0  0  0  0
 33 34  1  0  0  0  0
 35 36  1  0  0  0  0
 37 38  1  6  0  0  0
 40 39  1  0  0  0  0
 40 37  1  1  0  0  0
 41 42  1  6  0  0  0
 41 40  1  0  0  0  0
 41 39  1  0  0  0  0
 42 51  1  6  0  0  0
 43 44  1  0  0  0  0
 44 48  1  0  0  0  0
 45 48  1  0  0  0  0
 45 46  1  1  0  0  0
 47 45  1  0  0  0  0
 47 43  2  0  0  0  0
 48 42  1  1  0  0  0
 48 46  1  0  0  0  0
 49 50  1  0  0  0  0
 50 47  1  0  0  0  0
 53 55  1  0  0  0  0
 54 55  1  0  0  0  0
 54 51  1  0  0  0  0
 55 52  2  0  0  0  0
 56 61  1  0  0  0  0
 57 58  1  0  0  0  0
 57 56  2  0  0  0  0
 58 60  2  0  0  0  0
 60 54  1  0  0  0  0
 60 59  1  0  0  0  0
 61 59  2  0  0  0  0
 62 58  1  0  0  0  0
M  END
>  <MODEL>
7

>  <REMARK>
 VINA RESULT:      -3.6      2.958      9.173
  Name = 
  19 active torsions:
  status: ('A' for Active; 'I' for Inactive)
    1  A    between atoms: O_2  and  C_22
    2  A    between atoms: O_2  and  C_54
    3  A    between atoms: C_4  and  C_29
    4  A    between atoms: N_9  and  C_45
    5  A    between atoms: C_10  and  C_29
    6  A    between atoms: C_10  and  C_30
    7  A    between atoms: C_13  and  C_34
    8  A    between atoms: C_13  and  C_42
    9  A    between atoms: C_14  and  N_20
   10  A    between atoms: C_25  and  N_36
   11  A    between atoms: O_26  and  C_56
   12  A    between atoms: C_28  and  C_50
   13  A    between atoms: C_28  and  C_52
   14  A    between atoms: C_28  and  C_61
   15  A    between atoms: N_36  and  C_52
   16  A    between atoms: N_44  and  C_58
   17  A    between atoms: C_45  and  N_51
   18  A    between atoms: N_51  and  N_55
   19  A    between atoms: C_57  and  O_60
                            x       y       z     vdW  Elec       q    Type
                         _______ _______ _______ _____ _____    ______ ____

>  <TORSDO>
F 19

$$$$
=
 OpenBabel11062416403D

 62 69  0  0  1  0  0  0  0  0999 V2000
  191.0080  179.0210  143.5840 C   0  0  0  0  0  2  0  0  0  0  0  0
  191.4950  176.4110  145.8780 O   0  0  0  0  0  0  0  0  0  0  0  0
  191.4080  177.1430  144.8450 C   0  0  0  0  0  0  0  0  0  0  0  0
  191.5470  177.9420  142.6210 C   0  0  1  0  0  3  0  0  0  0  0  0
  190.6170  178.3140  144.8000 N   0  0  0  0  0  0  0  0  0  0  0  0
  192.1440  176.8870  143.5840 C   0  0  2  0  0  3  0  0  0  0  0  0
  186.1110  177.3060  144.2510 C   0  0  0  0  0  0  0  0  0  0  0  0
  188.5190  177.0460  144.7320 C   0  0  0  0  0  2  0  0  0  0  0  0
  186.8960  177.1910  146.6300 C   0  0  0  0  0  2  0  0  0  0  0  0
  187.5430  178.4960  147.0910 C   0  0  0  0  0  2  0  0  0  0  0  0
  185.5110  176.3510  143.6840 O   0  0  0  0  0  0  0  0  0  0  0  0
  187.1440  177.0240  145.2010 N   0  0  0  0  0  0  0  0  0  0  0  0
  189.0360  178.5320  146.7140 C   0  0  0  0  0  2  0  0  0  0  0  0
  189.2090  178.3300  145.1980 C   0  0  1  0  0  3  0  0  0  0  0  0
  185.8830  178.6960  143.7500 C   0  0  0  0  0  2  0  0  0  0  0  0
  185.2450  178.6700  142.3770 C   0  0  0  0  0  2  0  0  0  0  0  0
  183.1000  178.9650  143.3580 C   0  0  0  0  0  0  0  0  0  0  0  0
  182.9160  178.6510  141.8690 N   0  0  0  0  0  0  0  0  0  0  0  0
  183.9470  179.4520  142.3670 C   0  0  2  0  0  3  0  0  0  0  0  0
  182.7450  178.8410  144.5650 O   0  0  0  0  0  0  0  0  0  0  0  0
  181.8480  178.9390  139.7430 N   0  0  0  0  0  0  0  0  0  0  0  0
  182.1590  177.9970  140.8140 C   0  0  2  0  0  3  0  0  0  0  0  0
  179.7210  177.8510  139.9620 C   0  0  2  0  0  3  0  0  0  0  0  0
  180.7630  178.3380  138.9800 C   0  0  0  0  0  2  0  0  0  0  0  0
  180.5890  177.3490  141.4720 S   0  0  0  0  0  0  0  0  0  0  0  0
  182.6360  179.5380  137.6090 O   0  0  0  0  0  1  0  0  0  0  0  0
  183.0260  179.1480  138.8900 C   0  0  2  0  0  3  0  0  0  0  0  0
  183.8810  177.9620  138.8000 N   0  0  0  0  0  2  0  0  0  0  0  0
  184.0140  177.1400  136.6660 C   0  0  0  0  0  1  0  0  0  0  0  0
  183.2710  177.0720  137.9090 N   0  0  0  0  0  0  0  0  0  0  0  0
  183.4370  175.7800  138.4290 N   0  0  0  0  0  1  0  0  0  0  0  0
  179.0360  176.7610  139.4250 O   0  0  0  0  0  0  0  0  0  0  0  0
  180.1160  174.7740  138.6870 C   0  0  0  0  0  1  0  0  0  0  0  0
  179.8950  176.2520  138.4450 C   0  0  0  0  0  2  0  0  0  0  0  0
  190.6340  175.3760  143.3180 O   0  0  0  0  0  1  0  0  0  0  0  0
  191.9270  175.5700  143.1650 O   0  0  0  0  0  0  0  0  0  0  0  0
  190.4060  177.4000  141.7320 C   0  0  1  0  0  3  0  0  0  0  0  0
  189.0880  178.1250  142.0420 C   0  0  0  0  0  1  0  0  0  0  0  0
  192.2530  177.5960  140.0980 C   0  0  0  0  0  2  0  0  0  0  0  0
  190.7470  177.4970  140.2360 C   0  0  1  0  0  3  0  0  0  0  0  0
  191.5730  176.2830  139.7840 C   0  0  1  0  0  3  0  0  0  0  0  0
  191.6260  176.0700  138.2570 C   0  0  1  0  0  3  0  0  0  0  0  0
  195.0730  174.9430  138.0900 N   0  0  0  0  0  0  0  0  0  0  0  0
  194.1530  175.8230  138.5970 O   0  0  0  0  0  0  0  0  0  0  0  0
  193.3470  175.1260  136.5260 C   0  0  1  0  0  3  0  0  0  0  0  0
  193.4210  176.6460  136.3530 C   0  0  0  0  0  2  0  0  0  0  0  0
  194.6760  174.5530  136.9290 C   0  0  0  0  0  0  0  0  0  0  0  0
  193.0740  176.0520  137.7060 C   0  0  1  0  0  0  0  0  0  0  0  0
  196.1310  174.0770  135.0060 C   0  0  0  0  0  1  0  0  0  0  0  0
  195.4230  173.6600  136.1680 O   0  0  0  0  0  0  0  0  0  0  0  0
  190.8100  174.8220  137.8350 C   0  0  0  0  0  2  0  0  0  0  0  0
  189.8160  172.9260  136.1080 O   0  0  0  0  0  0  0  0  0  0  0  0
  188.7820  174.4190  134.6880 N   0  0  0  0  0  1  0  0  0  0  0  0
  189.7150  175.1290  136.9050 N   0  0  0  0  0  0  0  0  0  0  0  0
  189.4360  174.1120  135.9140 C   0  0  0  0  0  0  0  0  0  0  0  0
  187.3820  178.6840  137.0580 C   0  0  0  0  0  3  0  0  0  0  0  0
  188.3850  178.5620  136.1520 N   0  0  0  0  0  0  0  0  0  0  0  0
  189.1910  177.4690  136.1130 C   0  0  0  0  0  0  0  0  0  0  0  0
  187.9480  176.5290  137.9480 C   0  0  0  0  0  3  0  0  0  0  0  0
  188.9670  176.3780  136.9940 C   0  0  0  0  0  0  0  0  0  0  0  0
  187.1550  177.6700  137.9850 C   0  0  0  0  0  3  0  0  0  0  0  0
  190.1970  177.4660  135.2070 F   0  0  0  0  0  0  0  0  0  0  0  0
  1  5  1  0  0  0  0
  3  2  2  0  0  0  0
  4 37  1  1  0  0  0
  4  1  1  0  0  0  0
  4  6  1  0  0  0  0
  5  3  1  0  0  0  0
  5 14  1  0  0  0  0
  6 36  1  6  0  0  0
  6  3  1  0  0  0  0
  7 12  1  0  0  0  0
  8 12  1  0  0  0  0
  9 10  1  0  0  0  0
 11  7  2  0  0  0  0
 12  9  1  0  0  0  0
 13 10  1  0  0  0  0
 14  8  1  1  0  0  0
 14 13  1  0  0  0  0
 15  7  1  0  0  0  0
 16 15  1  0  0  0  0
 17 20  2  0  0  0  0
 18 19  1  0  0  0  0
 18 17  1  0  0  0  0
 19 16  1  1  0  0  0
 19 17  1  0  0  0  0
 21 22  1  0  0  0  0
 22 25  1  0  0  0  0
 22 18  1  1  0  0  0
 23 32  1  6  0  0  0
 23 25  1  0  0  0  0
 24 21  1  0  0  0  0
 24 23  1  0  0  0  0
 27 26  1  6  0  0  0
 27 21  1  0  0  0  0
 28 27  1  0  0  0  0
 29 30  1  0  0  0  0
 30 31  1  0  0  0  0
 30 28  1  0  0  0  0
 34 33  1  0  0  0  0
 34 32  1  0  0  0  0
 36 35  1  0  0  0  0
 37 38  1  6  0  0  0
 39 40  1  0  0  0  0
 40 37  1  1  0  0  0
 41 42  1  6  0  0  0
 41 39  1  0  0  0  0
 41 40  1  0  0  0  0
 42 51  1  1  0  0  0
 43 44  1  0  0  0  0
 45 46  1  6  0  0  0
 45 47  1  0  0  0  0
 45 48  1  0  0  0  0
 46 48  1  0  0  0  0
 47 43  2  0  0  0  0
 48 42  1  1  0  0  0
 48 44  1  0  0  0  0
 49 50  1  0  0  0  0
 50 47  1  0  0  0  0
 53 55  1  0  0  0  0
 54 60  1  0  0  0  0
 54 51  1  0  0  0  0
 55 52  2  0  0  0  0
 55 54  1  0  0  0  0
 56 61  1  0  0  0  0
 57 56  2  0  0  0  0
 58 57  1  0  0  0  0
 58 60  2  0  0  0  0
 59 61  2  0  0  0  0
 60 59  1  0  0  0  0
 62 58  1  0  0  0  0
M  END
>  <MODEL>
8

>  <REMARK>
 VINA RESULT:      -3.5      1.372      2.398
  Name = 
  19 active torsions:
  status: ('A' for Active; 'I' for Inactive)
    1  A    between atoms: O_2  and  C_22
    2  A    between atoms: O_2  and  C_54
    3  A    between atoms: C_4  and  C_29
    4  A    between atoms: N_9  and  C_45
    5  A    between atoms: C_10  and  C_29
    6  A    between atoms: C_10  and  C_30
    7  A    between atoms: C_13  and  C_34
    8  A    between atoms: C_13  and  C_42
    9  A    between atoms: C_14  and  N_20
   10  A    between atoms: C_25  and  N_36
   11  A    between atoms: O_26  and  C_56
   12  A    between atoms: C_28  and  C_50
   13  A    between atoms: C_28  and  C_52
   14  A    between atoms: C_28  and  C_61
   15  A    between atoms: N_36  and  C_52
   16  A    between atoms: N_44  and  C_58
   17  A    between atoms: C_45  and  N_51
   18  A    between atoms: N_51  and  N_55
   19  A    between atoms: C_57  and  O_60
                            x       y       z     vdW  Elec       q    Type
                         _______ _______ _______ _____ _____    ______ ____

>  <TORSDO>
F 19

$$$$
=
 OpenBabel11062416403D

 62 69  0  0  1  0  0  0  0  0999 V2000
  189.6280  176.2460  140.7430 C   0  0  0  0  0  2  0  0  0  0  0  0
  187.8310  179.2570  140.6250 O   0  0  0  0  0  0  0  0  0  0  0  0
  188.6140  178.2810  140.4150 C   0  0  0  0  0  0  0  0  0  0  0  0
  190.1970  176.8220  139.4290 C   0  0  1  0  0  3  0  0  0  0  0  0
  188.9840  177.3630  141.4250 N   0  0  0  0  0  0  0  0  0  0  0  0
  189.2030  177.9600  139.0930 C   0  0  2  0  0  3  0  0  0  0  0  0
  189.3190  177.1820  146.0600 C   0  0  0  0  0  0  0  0  0  0  0  0
  189.5840  176.5950  143.6770 C   0  0  0  0  0  2  0  0  0  0  0  0
  191.4930  177.6500  144.9010 C   0  0  0  0  0  2  0  0  0  0  0  0
  191.4120  178.8710  143.9870 C   0  0  0  0  0  2  0  0  0  0  0  0
  189.1780  176.2420  146.8910 O   0  0  0  0  0  0  0  0  0  0  0  0
  190.1850  177.0010  144.9350 N   0  0  0  0  0  0  0  0  0  0  0  0
  190.8790  178.4810  142.5960 C   0  0  0  0  0  2  0  0  0  0  0  0
  189.5100  177.7890  142.7220 C   0  0  1  0  0  3  0  0  0  0  0  0
  188.4090  178.3650  146.1500 C   0  0  0  0  0  2  0  0  0  0  0  0
  187.0790  178.0640  145.4910 C   0  0  0  0  0  2  0  0  0  0  0  0
  184.9050  178.6300  146.2710 C   0  0  0  0  0  0  0  0  0  0  0  0
  185.0430  179.1100  144.8220 N   0  0  0  0  0  0  0  0  0  0  0  0
  186.0790  179.1730  145.7580 C   0  0  2  0  0  3  0  0  0  0  0  0
  184.2270  178.1110  147.2040 O   0  0  0  0  0  0  0  0  0  0  0  0
  183.3440  178.3880  143.2930 N   0  0  0  0  0  0  0  0  0  0  0  0
  184.4460  179.3210  143.5140 C   0  0  2  0  0  3  0  0  0  0  0  0
  184.4460  178.2310  141.1670 C   0  0  2  0  0  3  0  0  0  0  0  0
  183.1070  178.3770  141.8570 C   0  0  0  0  0  2  0  0  0  0  0  0
  185.6840  179.0540  142.2040 S   0  0  0  0  0  0  0  0  0  0  0  0
  181.3940  177.7420  144.4400 O   0  0  0  0  0  1  0  0  0  0  0  0
  182.1440  178.8380  144.0120 C   0  0  2  0  0  3  0  0  0  0  0  0
  181.2990  179.7240  143.2080 N   0  0  0  0  0  2  0  0  0  0  0  0
  179.1200  180.3540  142.8820 C   0  0  0  0  0  1  0  0  0  0  0  0
  179.9780  179.2800  143.3420 N   0  0  0  0  0  0  0  0  0  0  0  0
  179.8100  178.2000  142.4630 N   0  0  0  0  0  1  0  0  0  0  0  0
  184.4010  178.8370  139.9120 O   0  0  0  0  0  0  0  0  0  0  0  0
  182.4820  178.8340  138.5070 C   0  0  0  0  0  1  0  0  0  0  0  0
  183.0950  179.3250  139.8010 C   0  0  0  0  0  2  0  0  0  0  0  0
  188.8600  179.7420  137.9340 O   0  0  0  0  0  1  0  0  0  0  0  0
  189.8220  179.0960  138.5590 O   0  0  0  0  0  0  0  0  0  0  0  0
  191.6490  177.3050  139.6410 C   0  0  1  0  0  3  0  0  0  0  0  0
  192.2450  176.6830  140.9110 C   0  0  0  0  0  1  0  0  0  0  0  0
  192.9410  175.5560  138.4610 C   0  0  0  0  0  2  0  0  0  0  0  0
  192.5350  177.0150  138.4190 C   0  0  1  0  0  3  0  0  0  0  0  0
  191.8680  175.9900  137.4890 C   0  0  1  0  0  3  0  0  0  0  0  0
  192.4590  175.9270  136.0650 C   0  0  1  0  0  3  0  0  0  0  0  0
  195.2860  173.7640  136.7770 N   0  0  0  0  0  0  0  0  0  0  0  0
  194.7700  174.8240  136.0770 O   0  0  0  0  0  0  0  0  0  0  0  0
  192.9840  173.4150  136.5780 C   0  0  1  0  0  3  0  0  0  0  0  0
  192.9210  173.4920  135.0500 C   0  0  0  0  0  2  0  0  0  0  0  0
  194.3300  172.9460  137.0510 C   0  0  0  0  0  0  0  0  0  0  0  0
  193.3760  174.6980  135.8520 C   0  0  1  0  0  0  0  0  0  0  0  0
  195.8060  171.0770  137.6630 C   0  0  0  0  0  1  0  0  0  0  0  0
  194.5620  171.7650  137.7490 O   0  0  0  0  0  0  0  0  0  0  0  0
  191.3470  176.0380  134.9910 C   0  0  0  0  0  2  0  0  0  0  0  0
  189.3330  177.8990  135.2120 O   0  0  0  0  0  0  0  0  0  0  0  0
  188.0300  176.6680  136.6610 N   0  0  0  0  0  1  0  0  0  0  0  0
  190.0150  175.6730  135.4930 N   0  0  0  0  0  0  0  0  0  0  0  0
  189.1230  176.7820  135.7560 C   0  0  0  0  0  0  0  0  0  0  0  0
  188.7090  171.6610  136.0490 C   0  0  0  0  0  3  0  0  0  0  0  0
  188.8810  172.4800  137.1180 N   0  0  0  0  0  0  0  0  0  0  0  0
  189.3550  173.7460  136.9870 C   0  0  0  0  0  0  0  0  0  0  0  0
  189.4840  173.4140  134.6060 C   0  0  0  0  0  3  0  0  0  0  0  0
  189.6330  174.2810  135.7010 C   0  0  0  0  0  0  0  0  0  0  0  0
  189.0240  172.1130  134.7710 C   0  0  0  0  0  3  0  0  0  0  0  0
  189.5410  174.4650  138.1190 F   0  0  0  0  0  0  0  0  0  0  0  0
  1  5  1  0  0  0  0
  3  2  2  0  0  0  0
  3  5  1  0  0  0  0
  4 37  1  1  0  0  0
  4  1  1  0  0  0  0
  6 36  1  1  0  0  0
  6  4  1  0  0  0  0
  6  3  1  0  0  0  0
  7 15  1  0  0  0  0
  7 11  2  0  0  0  0
  8 12  1  0  0  0  0
  9 12  1  0  0  0  0
 10  9  1  0  0  0  0
 12  7  1  0  0  0  0
 13 14  1  0  0  0  0
 13 10  1  0  0  0  0
 14  5  1  6  0  0  0
 14  8  1  0  0  0  0
 16 15  1  0  0  0  0
 17 20  2  0  0  0  0
 18 19  1  0  0  0  0
 18 17  1  0  0  0  0
 19 16  1  6  0  0  0
 19 17  1  0  0  0  0
 21 22  1  0  0  0  0
 21 27  1  0  0  0  0
 22 18  1  1  0  0  0
 23 32  1  6  0  0  0
 23 24  1  0  0  0  0
 23 25  1  0  0  0  0
 24 21  1  0  0  0  0
 25 22  1  0  0  0  0
 27 26  1  6  0  0  0
 28 30  1  0  0  0  0
 28 27  1  0  0  0  0
 29 30  1  0  0  0  0
 31 30  1  0  0  0  0
 33 34  1  0  0  0  0
 34 32  1  0  0  0  0
 35 36  1  0  0  0  0
 37 38  1  1  0  0  0
 40 39  1  0  0  0  0
 40 37  1  1  0  0  0
 41 42  1  6  0  0  0
 41 40  1  0  0  0  0
 41 39  1  0  0  0  0
 42 51  1  6  0  0  0
 43 47  2  0  0  0  0
 44 43  1  0  0  0  0
 45 46  1  6  0  0  0
 45 47  1  0  0  0  0
 46 48  1  0  0  0  0
 47 50  1  0  0  0  0
 48 42  1  1  0  0  0
 48 44  1  0  0  0  0
 48 45  1  0  0  0  0
 49 50  1  0  0  0  0
 51 54  1  0  0  0  0
 52 55  2  0  0  0  0
 54 60  1  0  0  0  0
 54 55  1  0  0  0  0
 55 53  1  0  0  0  0
 56 57  1  0  0  0  0
 58 57  2  0  0  0  0
 58 62  1  0  0  0  0
 59 61  1  0  0  0  0
 59 60  2  0  0  0  0
 60 58  1  0  0  0  0
 61 56  2  0  0  0  0
M  END
>  <MODEL>
9

>  <REMARK>
 VINA RESULT:      -3.4      2.331      3.972
  Name = 
  19 active torsions:
  status: ('A' for Active; 'I' for Inactive)
    1  A    between atoms: O_2  and  C_22
    2  A    between atoms: O_2  and  C_54
    3  A    between atoms: C_4  and  C_29
    4  A    between atoms: N_9  and  C_45
    5  A    between atoms: C_10  and  C_29
    6  A    between atoms: C_10  and  C_30
    7  A    between atoms: C_13  and  C_34
    8  A    between atoms: C_13  and  C_42
    9  A    between atoms: C_14  and  N_20
   10  A    between atoms: C_25  and  N_36
   11  A    between atoms: O_26  and  C_56
   12  A    between atoms: C_28  and  C_50
   13  A    between atoms: C_28  and  C_52
   14  A    between atoms: C_28  and  C_61
   15  A    between atoms: N_36  and  C_52
   16  A    between atoms: N_44  and  C_58
   17  A    between atoms: C_45  and  N_51
   18  A    between atoms: N_51  and  N_55
   19  A    between atoms: C_57  and  O_60
                            x       y       z     vdW  Elec       q    Type
                         _______ _______ _______ _____ _____    ______ ____

>  <TORSDO>
F 19

$$$$
