=
 OpenBabel11062412263D

 37 40  0  0  1  0  0  0  0  0999 V2000
  181.8210  177.0810  139.0090 C   0  0  2  0  0  3  0  0  0  0  0  0
  185.5730  178.4670  142.3560 C   0  0  0  0  0  0  0  0  0  0  0  0
  184.0330  177.3490  140.0220 O   0  0  0  0  0  0  0  0  0  0  0  0
  181.1280  177.9020  137.9090 C   0  0  1  0  0  3  0  0  0  0  0  0
  183.9090  177.4690  137.4710 C   0  0  0  0  0  0  0  0  0  0  0  0
  181.5490  177.3620  136.5460 C   0  0  0  0  0  2  0  0  0  0  0  0
  187.1430  178.3870  140.5550 C   0  0  0  0  0  0  0  0  0  0  0  0
  186.0500  178.6400  139.5150 C   0  0  2  0  0  3  0  0  0  0  0  0
  183.3420  177.0080  138.8230 C   0  0  2  0  0  3  0  0  0  0  0  0
  185.2080  177.7270  137.2870 C   0  0  0  0  0  3  0  0  0  0  0  0
  187.9750  178.4720  136.8430 C   0  0  0  0  0  2  0  0  0  0  0  0
  189.9760  177.3240  138.3690 O   0  0  0  0  0  1  0  0  0  0  0  0
  189.4240  177.8720  141.1070 O   0  0  0  0  0  1  0  0  0  0  0  0
  188.5740  178.2840  140.0750 C   0  0  1  0  0  3  0  0  0  0  0  0
  184.5900  178.6620  140.0700 C   0  0  2  0  0  0  0  0  0  0  0  0
  187.6520  177.6580  137.8570 C   0  0  0  0  0  0  0  0  0  0  0  0
  184.5360  179.1300  141.5230 C   0  0  0  0  0  2  0  0  0  0  0  0
  186.2350  177.6120  138.3740 C   0  0  1  0  0  3  0  0  0  0  0  0
  183.7770  179.7260  139.3240 C   0  0  0  0  0  1  0  0  0  0  0  0
  181.2630  175.6670  139.1120 C   0  0  0  0  0  1  0  0  0  0  0  0
  188.6820  177.3110  138.8980 C   0  0  1  0  0  3  0  0  0  0  0  0
  186.8820  178.2850  141.8230 N   0  0  0  0  0  0  0  0  0  0  0  0
  183.0100  177.7050  136.2840 C   0  0  0  0  0  2  0  0  0  0  0  0
  185.3070  178.1810  143.6250 C   0  0  0  0  0  3  0  0  0  0  0  0
  178.9450  178.4260  136.7770 C   0  0  0  0  0  1  0  0  0  0  0  0
  179.6010  177.9510  138.0630 C   0  0  0  0  0  3  0  0  0  0  0  0
  179.2040  178.9050  139.1760 C   0  0  0  0  0  1  0  0  0  0  0  0
  186.3000  177.6140  144.4790 N   0  0  0  0  0  2  0  0  0  0  0  0
  186.8420  178.3700  145.5950 C   0  0  1  0  0  3  0  0  0  0  0  0
  185.8490  179.8870  147.3230 O   0  0  0  0  0  1  0  0  0  0  0  0
  185.7460  178.7410  146.5440 C   0  0  0  0  0  0  0  0  0  0  0  0
  184.7350  178.0000  146.6490 O   0  0  0  0  0  0  0  0  0  0  0  0
  187.9050  177.5390  146.2950 C   0  0  0  0  0  2  0  0  0  0  0  0
  189.3900  177.3770  145.2580 P   0  0  0  0  0  0  0  0  0  0  0  0
  190.6690  176.8060  146.2060 O   0  0  0  0  0  1  0  0  0  0  0  0
  189.0900  176.2810  144.0060 O   0  0  0  0  0  0  0  0  0  0  0  0
  189.7610  178.7210  144.6730 O   0  0  0  0  0  1  0  0  0  0  0  0
  1 20  1  6  0  0  0
  2 24  2  0  0  0  0
  3 15  1  0  0  0  0
  4 26  1  1  0  0  0
  4  1  1  0  0  0  0
  6  4  1  0  0  0  0
  7 22  2  0  0  0  0
  8 15  1  0  0  0  0
  8  7  1  1  0  0  0
  9  5  1  6  0  0  0
  9  1  1  0  0  0  0
  9  3  1  0  0  0  0
 10  5  2  0  0  0  0
 11 16  2  0  0  0  0
 14  7  1  0  0  0  0
 14 13  1  1  0  0  0
 15 19  1  6  0  0  0
 15 17  1  0  0  0  0
 16 18  1  0  0  0  0
 16 21  1  0  0  0  0
 17  2  1  0  0  0  0
 18 10  1  6  0  0  0
 18  8  1  0  0  0  0
 21 12  1  6  0  0  0
 21 14  1  0  0  0  0
 22  2  1  0  0  0  0
 23  6  1  0  0  0  0
 23  5  1  0  0  0  0
 24 28  1  0  0  0  0
 25 26  1  0  0  0  0
 26 27  1  0  0  0  0
 28 29  1  0  0  0  0
 29 33  1  1  0  0  0
 29 31  1  0  0  0  0
 31 32  2  0  0  0  0
 31 30  1  0  0  0  0
 34 35  1  0  0  0  0
 34 33  1  0  0  0  0
 36 34  2  0  0  0  0
 37 34  1  0  0  0  0
M  END
>  <MODEL>
1

>  <REMARK>
 VINA RESULT:      -7.5      0.000      0.000
  Name = 
  6 active torsions:
  status: ('A' for Active; 'I' for Inactive)
    1  A    between atoms: C_2  and  P_3
    2  A    between atoms: C_2  and  CA_9
    3  A    between atoms: C_6  and  C_19
    4  A    between atoms: CA_9  and  C_26
    5  A    between atoms: CA_9  and  N_32
    6  A    between atoms: N_32  and  C_37
                            x       y       z     vdW  Elec       q    Type
                         _______ _______ _______ _____ _____    ______ ____

>  <TORSDO>
F 6

$$$$
=
 OpenBabel11062412263D

 37 40  0  0  1  0  0  0  0  0999 V2000
  189.5650  176.6780  143.0620 C   0  0  2  0  0  3  0  0  0  0  0  0
  187.4080  178.2320  138.5750 C   0  0  0  0  0  0  0  0  0  0  0  0
  187.8850  177.1600  141.3490 O   0  0  0  0  0  0  0  0  0  0  0  0
  189.9980  177.5020  144.2860 C   0  0  1  0  0  3  0  0  0  0  0  0
  187.1940  177.5390  143.7810 C   0  0  0  0  0  0  0  0  0  0  0  0
  189.0700  177.1840  145.4530 C   0  0  0  0  0  2  0  0  0  0  0  0
  185.3510  178.5850  139.7410 C   0  0  0  0  0  0  0  0  0  0  0  0
  186.0740  178.7850  141.0740 C   0  0  2  0  0  3  0  0  0  0  0  0
  188.0780  176.8530  142.7270 C   0  0  2  0  0  3  0  0  0  0  0  0
  185.9730  178.0070  143.5010 C   0  0  0  0  0  3  0  0  0  0  0  0
  183.3900  179.2000  142.9440 C   0  0  0  0  0  2  0  0  0  0  0  0
  181.8210  178.2020  140.8950 O   0  0  0  0  0  1  0  0  0  0  0  0
  183.3190  178.3580  138.4800 O   0  0  0  0  0  1  0  0  0  0  0  0
  183.8470  178.7490  139.7140 C   0  0  1  0  0  3  0  0  0  0  0  0
  187.6160  178.5280  141.0450 C   0  0  2  0  0  0  0  0  0  0  0  0
  183.8750  178.2400  142.1430 C   0  0  0  0  0  0  0  0  0  0  0  0
  188.2190  178.8200  139.6730 C   0  0  0  0  0  2  0  0  0  0  0  0
  185.3510  177.9270  142.1390 C   0  0  1  0  0  3  0  0  0  0  0  0
  188.3180  179.5340  141.9630 C   0  0  0  0  0  1  0  0  0  0  0  0
  189.8660  175.1940  143.2300 C   0  0  0  0  0  1  0  0  0  0  0  0
  183.1930  177.9390  140.8360 C   0  0  1  0  0  3  0  0  0  0  0  0
  185.9870  178.3070  138.6430 N   0  0  0  0  0  0  0  0  0  0  0  0
  187.6870  177.7680  145.1870 C   0  0  0  0  0  2  0  0  0  0  0  0
  188.0160  177.7720  137.4880 C   0  0  0  0  0  3  0  0  0  0  0  0
  191.6200  176.9370  146.1210 C   0  0  0  0  0  1  0  0  0  0  0  0
  191.4750  177.3060  144.6550 C   0  0  0  0  0  3  0  0  0  0  0  0
  192.2640  178.5810  144.4070 C   0  0  0  0  0  1  0  0  0  0  0  0
  187.2700  177.2690  136.3800 N   0  0  0  0  0  2  0  0  0  0  0  0
  187.3970  175.8830  135.9640 C   0  0  1  0  0  3  0  0  0  0  0  0
  189.4010  176.4990  134.5950 O   0  0  0  0  0  0  0  0  0  0  0  0
  188.7870  175.6190  135.4780 C   0  0  0  0  0  0  0  0  0  0  0  0
  189.3950  174.5860  135.8580 O   0  0  0  0  0  1  0  0  0  0  0  0
  187.0530  174.9740  137.1330 C   0  0  0  0  0  2  0  0  0  0  0  0
  185.3560  174.3360  136.9820 P   0  0  0  0  0  0  0  0  0  0  0  0
  185.0320  174.0010  135.3560 O   0  0  0  0  0  0  0  0  0  0  0  0
  185.2020  172.9160  137.8870 O   0  0  0  0  0  1  0  0  0  0  0  0
  184.3700  175.3650  137.4880 O   0  0  0  0  0  1  0  0  0  0  0  0
  1 20  1  1  0  0  0
  1  4  1  0  0  0  0
  2 22  1  0  0  0  0
  2 17  1  0  0  0  0
  4 26  1  1  0  0  0
  4  6  1  0  0  0  0
  5 23  1  0  0  0  0
  8  7  1  6  0  0  0
  8 18  1  0  0  0  0
  9  3  1  6  0  0  0
  9  1  1  0  0  0  0
  9  5  1  0  0  0  0
 10  5  2  0  0  0  0
 14 13  1  6  0  0  0
 14  7  1  0  0  0  0
 14 21  1  0  0  0  0
 15  8  1  0  0  0  0
 15  3  1  0  0  0  0
 15 19  1  1  0  0  0
 16 11  2  0  0  0  0
 17 15  1  0  0  0  0
 18 16  1  0  0  0  0
 18 10  1  1  0  0  0
 21 12  1  1  0  0  0
 21 16  1  0  0  0  0
 22  7  2  0  0  0  0
 23  6  1  0  0  0  0
 24  2  2  0  0  0  0
 26 25  1  0  0  0  0
 27 26  1  0  0  0  0
 28 24  1  0  0  0  0
 29 28  1  0  0  0  0
 29 33  1  1  0  0  0
 30 31  2  0  0  0  0
 31 32  1  0  0  0  0
 31 29  1  0  0  0  0
 34 33  1  0  0  0  0
 34 37  1  0  0  0  0
 34 36  1  0  0  0  0
 35 34  2  0  0  0  0
M  END
>  <MODEL>
2

>  <REMARK>
 VINA RESULT:      -7.3      3.581      8.792
  Name = 
  6 active torsions:
  status: ('A' for Active; 'I' for Inactive)
    1  A    between atoms: C_2  and  P_3
    2  A    between atoms: C_2  and  CA_9
    3  A    between atoms: C_6  and  C_19
    4  A    between atoms: CA_9  and  C_26
    5  A    between atoms: CA_9  and  N_32
    6  A    between atoms: N_32  and  C_37
                            x       y       z     vdW  Elec       q    Type
                         _______ _______ _______ _____ _____    ______ ____

>  <TORSDO>
F 6

$$$$
=
 OpenBabel11062412263D

 37 40  0  0  1  0  0  0  0  0999 V2000
  189.6470  176.6940  143.0760 C   0  0  2  0  0  3  0  0  0  0  0  0
  187.6460  178.1420  138.4820 C   0  0  0  0  0  0  0  0  0  0  0  0
  188.0290  177.1190  141.2890 O   0  0  0  0  0  0  0  0  0  0  0  0
  190.0160  177.5430  144.3030 C   0  0  1  0  0  3  0  0  0  0  0  0
  187.2340  177.5220  143.6850 C   0  0  0  0  0  0  0  0  0  0  0  0
  189.0470  177.2260  145.4370 C   0  0  0  0  0  2  0  0  0  0  0  0
  185.5380  178.4750  139.5590 C   0  0  0  0  0  0  0  0  0  0  0  0
  186.2030  178.7070  140.9170 C   0  0  2  0  0  3  0  0  0  0  0  0
  188.1720  176.8370  142.6790 C   0  0  2  0  0  3  0  0  0  0  0  0
  186.0180  177.9630  143.3500 C   0  0  0  0  0  3  0  0  0  0  0  0
  183.4390  179.1010  142.6700 C   0  0  0  0  0  2  0  0  0  0  0  0
  181.9720  178.0450  140.5760 O   0  0  0  0  0  1  0  0  0  0  0  0
  183.5630  178.1920  138.2210 O   0  0  0  0  0  1  0  0  0  0  0  0
  184.0340  178.6110  139.4690 C   0  0  1  0  0  3  0  0  0  0  0  0
  187.7490  178.4780  140.9530 C   0  0  2  0  0  0  0  0  0  0  0  0
  183.9720  178.1390  141.9050 C   0  0  0  0  0  0  0  0  0  0  0  0
  188.4020  178.7600  139.6020 C   0  0  0  0  0  2  0  0  0  0  0  0
  185.4530  177.8520  141.9650 C   0  0  1  0  0  3  0  0  0  0  0  0
  188.3950  179.5100  141.8830 C   0  0  0  0  0  1  0  0  0  0  0  0
  189.9670  175.2180  143.2780 C   0  0  0  0  0  1  0  0  0  0  0  0
  183.3490  177.8060  140.5760 C   0  0  1  0  0  3  0  0  0  0  0  0
  186.2230  178.1910  138.4920 N   0  0  0  0  0  0  0  0  0  0  0  0
  187.6660  177.7800  145.1060 C   0  0  0  0  0  2  0  0  0  0  0  0
  188.3060  177.6760  137.4280 C   0  0  0  0  0  3  0  0  0  0  0  0
  191.5710  177.0060  146.2040 C   0  0  0  0  0  1  0  0  0  0  0  0
  191.4800  177.3800  144.7340 C   0  0  0  0  0  3  0  0  0  0  0  0
  192.2490  178.6730  144.5260 C   0  0  0  0  0  1  0  0  0  0  0  0
  187.6140  177.1440  136.2990 N   0  0  0  0  0  2  0  0  0  0  0  0
  187.3230  175.7230  136.2050 C   0  0  1  0  0  3  0  0  0  0  0  0
  185.0270  176.4960  135.5730 O   0  0  0  0  0  1  0  0  0  0  0  0
  186.0080  175.5130  135.5250 C   0  0  0  0  0  0  0  0  0  0  0  0
  185.7830  174.4320  134.9210 O   0  0  0  0  0  0  0  0  0  0  0  0
  188.4420  175.0310  135.4430 C   0  0  0  0  0  2  0  0  0  0  0  0
  189.2680  173.7910  136.4850 P   0  0  0  0  0  0  0  0  0  0  0  0
  188.1110  172.7170  137.0910 O   0  0  0  0  0  1  0  0  0  0  0  0
  190.3960  172.9350  135.5610 O   0  0  0  0  0  0  0  0  0  0  0  0
  189.9730  174.4710  137.6380 O   0  0  0  0  0  1  0  0  0  0  0  0
  1 20  1  1  0  0  0
  1  4  1  0  0  0  0
  2 22  1  0  0  0  0
  2 17  1  0  0  0  0
  4 26  1  1  0  0  0
  4  6  1  0  0  0  0
  5 23  1  0  0  0  0
  8  7  1  6  0  0  0
  8 15  1  0  0  0  0
  8 18  1  0  0  0  0
  9  3  1  6  0  0  0
  9  1  1  0  0  0  0
  9  5  1  0  0  0  0
 10  5  2  0  0  0  0
 14 13  1  6  0  0  0
 14  7  1  0  0  0  0
 14 21  1  0  0  0  0
 15  3  1  0  0  0  0
 15 19  1  1  0  0  0
 16 18  1  0  0  0  0
 16 11  2  0  0  0  0
 17 15  1  0  0  0  0
 18 10  1  1  0  0  0
 21 12  1  1  0  0  0
 21 16  1  0  0  0  0
 22  7  2  0  0  0  0
 23  6  1  0  0  0  0
 24  2  2  0  0  0  0
 26 25  1  0  0  0  0
 27 26  1  0  0  0  0
 28 24  1  0  0  0  0
 29 33  1  6  0  0  0
 29 28  1  0  0  0  0
 31 30  1  0  0  0  0
 31 29  1  0  0  0  0
 32 31  2  0  0  0  0
 33 34  1  0  0  0  0
 34 35  1  0  0  0  0
 34 37  1  0  0  0  0
 36 34  2  0  0  0  0
M  END
>  <MODEL>
3

>  <REMARK>
 VINA RESULT:      -7.2      3.547      8.667
  Name = 
  6 active torsions:
  status: ('A' for Active; 'I' for Inactive)
    1  A    between atoms: C_2  and  P_3
    2  A    between atoms: C_2  and  CA_9
    3  A    between atoms: C_6  and  C_19
    4  A    between atoms: CA_9  and  C_26
    5  A    between atoms: CA_9  and  N_32
    6  A    between atoms: N_32  and  C_37
                            x       y       z     vdW  Elec       q    Type
                         _______ _______ _______ _____ _____    ______ ____

>  <TORSDO>
F 6

$$$$
=
 OpenBabel11062412263D

 37 40  0  0  1  0  0  0  0  0999 V2000
  182.8350  177.5460  138.4720 C   0  0  2  0  0  3  0  0  0  0  0  0
  188.0390  177.3150  138.2290 C   0  0  0  0  0  0  0  0  0  0  0  0
  185.1040  176.6450  138.3110 O   0  0  0  0  0  0  0  0  0  0  0  0
  181.8080  177.8520  137.3690 C   0  0  1  0  0  3  0  0  0  0  0  0
  183.2910  175.4540  136.9590 C   0  0  0  0  0  0  0  0  0  0  0  0
  181.0210  176.5830  137.0580 C   0  0  0  0  0  2  0  0  0  0  0  0
  187.8450  175.2270  137.0800 C   0  0  0  0  0  0  0  0  0  0  0  0
  186.4480  175.5740  136.5660 C   0  0  2  0  0  3  0  0  0  0  0  0
  183.7230  176.3410  138.1370 C   0  0  2  0  0  3  0  0  0  0  0  0
  184.1110  174.5650  136.3890 C   0  0  0  0  0  3  0  0  0  0  0  0
  185.8720  172.7380  134.9850 C   0  0  0  0  0  2  0  0  0  0  0  0
  188.0010  171.5760  136.3160 O   0  0  0  0  0  1  0  0  0  0  0  0
  189.6500  173.6610  137.3350 O   0  0  0  0  0  1  0  0  0  0  0  0
  188.4620  173.9170  136.6420 C   0  0  1  0  0  3  0  0  0  0  0  0
  185.8420  176.9050  137.1170 C   0  0  2  0  0  0  0  0  0  0  0  0
  186.1500  173.1070  136.2430 C   0  0  0  0  0  0  0  0  0  0  0  0
  186.9240  177.9270  137.4610 C   0  0  0  0  0  2  0  0  0  0  0  0
  185.5310  174.3550  136.8240 C   0  0  1  0  0  3  0  0  0  0  0  0
  185.0390  177.5970  136.0110 C   0  0  0  0  0  1  0  0  0  0  0  0
  182.1760  177.3160  139.8260 C   0  0  0  0  0  1  0  0  0  0  0  0
  187.4830  172.7590  136.8500 C   0  0  1  0  0  3  0  0  0  0  0  0
  188.5170  176.0260  137.8530 N   0  0  0  0  0  0  0  0  0  0  0  0
  181.9190  175.5800  136.3450 C   0  0  0  0  0  2  0  0  0  0  0  0
  188.6620  178.0300  139.1580 C   0  0  0  0  0  3  0  0  0  0  0  0
  179.9290  179.3170  136.5660 C   0  0  0  0  0  1  0  0  0  0  0  0
  180.8880  179.0320  137.7100 C   0  0  0  0  0  3  0  0  0  0  0  0
  181.7000  180.2890  137.9700 C   0  0  0  0  0  1  0  0  0  0  0  0
  189.7860  177.5060  139.8640 N   0  0  0  0  0  2  0  0  0  0  0  0
  189.6920  177.1800  141.2770 C   0  0  1  0  0  3  0  0  0  0  0  0
  191.2920  176.3510  143.0170 O   0  0  0  0  0  1  0  0  0  0  0  0
  191.0600  177.1170  141.8800 C   0  0  0  0  0  0  0  0  0  0  0  0
  192.0000  177.7750  141.3650 O   0  0  0  0  0  0  0  0  0  0  0  0
  188.8410  178.2260  141.9780 C   0  0  0  0  0  2  0  0  0  0  0  0
  187.8960  177.4850  143.3440 P   0  0  0  0  0  0  0  0  0  0  0  0
  187.9710  175.7990  143.2200 O   0  0  0  0  0  0  0  0  0  0  0  0
  188.5640  177.9670  144.8210 O   0  0  0  0  0  1  0  0  0  0  0  0
  186.4520  177.9290  143.2750 O   0  0  0  0  0  1  0  0  0  0  0  0
  1 20  1  1  0  0  0
  2 24  2  0  0  0  0
  4 26  1  1  0  0  0
  4  1  1  0  0  0  0
  6  4  1  0  0  0  0
  7 22  2  0  0  0  0
  8 18  1  0  0  0  0
  8  7  1  1  0  0  0
  8 15  1  0  0  0  0
  9  5  1  6  0  0  0
  9  3  1  0  0  0  0
  9  1  1  0  0  0  0
 10  5  2  0  0  0  0
 11 16  2  0  0  0  0
 14 21  1  0  0  0  0
 14  7  1  0  0  0  0
 14 13  1  1  0  0  0
 15 19  1  6  0  0  0
 15 17  1  0  0  0  0
 15  3  1  0  0  0  0
 16 18  1  0  0  0  0
 16 21  1  0  0  0  0
 17  2  1  0  0  0  0
 18 10  1  6  0  0  0
 21 12  1  6  0  0  0
 22  2  1  0  0  0  0
 23  5  1  0  0  0  0
 23  6  1  0  0  0  0
 24 28  1  0  0  0  0
 25 26  1  0  0  0  0
 26 27  1  0  0  0  0
 28 29  1  0  0  0  0
 29 31  1  0  0  0  0
 29 33  1  1  0  0  0
 31 30  1  0  0  0  0
 32 31  2  0  0  0  0
 33 34  1  0  0  0  0
 34 36  1  0  0  0  0
 35 34  2  0  0  0  0
 37 34  1  0  0  0  0
M  END
>  <MODEL>
4

>  <REMARK>
 VINA RESULT:      -6.4      2.866      4.503
  Name = 
  6 active torsions:
  status: ('A' for Active; 'I' for Inactive)
    1  A    between atoms: C_2  and  P_3
    2  A    between atoms: C_2  and  CA_9
    3  A    between atoms: C_6  and  C_19
    4  A    between atoms: CA_9  and  C_26
    5  A    between atoms: CA_9  and  N_32
    6  A    between atoms: N_32  and  C_37
                            x       y       z     vdW  Elec       q    Type
                         _______ _______ _______ _____ _____    ______ ____

>  <TORSDO>
F 6

$$$$
=
 OpenBabel11062412263D

 37 40  0  0  1  0  0  0  0  0999 V2000
  181.7240  177.2770  139.3570 C   0  0  2  0  0  3  0  0  0  0  0  0
  186.1860  178.3290  141.8430 C   0  0  0  0  0  0  0  0  0  0  0  0
  184.1140  177.3750  139.8780 O   0  0  0  0  0  0  0  0  0  0  0  0
  180.8720  178.1690  138.4390 C   0  0  1  0  0  3  0  0  0  0  0  0
  183.4620  177.5680  137.4140 C   0  0  0  0  0  0  0  0  0  0  0  0
  180.9570  177.6380  137.0120 C   0  0  0  0  0  2  0  0  0  0  0  0
  187.3300  178.1950  139.7480 C   0  0  0  0  0  0  0  0  0  0  0  0
  186.0620  178.5450  138.9680 C   0  0  2  0  0  3  0  0  0  0  0  0
  183.1630  177.1100  138.8500 C   0  0  2  0  0  3  0  0  0  0  0  0
  184.7070  177.7460  136.9600 C   0  0  0  0  0  3  0  0  0  0  0  0
  187.3610  178.3210  135.9450 C   0  0  0  0  0  2  0  0  0  0  0  0
  189.5560  177.0070  136.9970 O   0  0  0  0  0  1  0  0  0  0  0  0
  189.6350  177.5180  139.7960 O   0  0  0  0  0  1  0  0  0  0  0  0
  188.6170  178.0110  138.9740 C   0  0  1  0  0  3  0  0  0  0  0  0
  184.7570  178.6470  139.8220 C   0  0  2  0  0  0  0  0  0  0  0  0
  187.2050  177.5040  136.9960 C   0  0  0  0  0  0  0  0  0  0  0  0
  185.0440  179.0790  141.2580 C   0  0  0  0  0  2  0  0  0  0  0  0
  185.9300  177.5360  137.8020 C   0  0  1  0  0  3  0  0  0  0  0  0
  183.8800  179.7800  139.2780 C   0  0  0  0  0  1  0  0  0  0  0  0
  181.1050  175.9000  139.5590 C   0  0  0  0  0  1  0  0  0  0  0  0
  188.4060  177.0650  137.7890 C   0  0  1  0  0  3  0  0  0  0  0  0
  187.3370  178.0770  141.0420 N   0  0  0  0  0  0  0  0  0  0  0  0
  182.3500  177.8930  136.4480 C   0  0  0  0  0  2  0  0  0  0  0  0
  186.1750  178.0280  143.1370 C   0  0  0  0  0  3  0  0  0  0  0  0
  178.9320  179.7400  138.7330 C   0  0  0  0  0  1  0  0  0  0  0  0
  179.4200  178.3130  138.9150 C   0  0  0  0  0  3  0  0  0  0  0  0
  179.2990  177.9560  140.3860 C   0  0  0  0  0  1  0  0  0  0  0  0
  187.2850  177.3760  143.7530 N   0  0  0  0  0  2  0  0  0  0  0  0
  187.9200  177.9410  144.9320 C   0  0  1  0  0  3  0  0  0  0  0  0
  185.9680  177.0510  146.2230 O   0  0  0  0  0  0  0  0  0  0  0  0
  186.9310  178.0380  146.0500 C   0  0  0  0  0  0  0  0  0  0  0  0
  186.9610  179.0270  146.8260 O   0  0  0  0  0  1  0  0  0  0  0  0
  189.1020  177.0720  145.3300 C   0  0  0  0  0  2  0  0  0  0  0  0
  190.6160  177.6020  144.4740 P   0  0  0  0  0  0  0  0  0  0  0  0
  190.4940  179.2470  144.1000 O   0  0  0  0  0  1  0  0  0  0  0  0
  191.9520  177.3550  145.4810 O   0  0  0  0  0  1  0  0  0  0  0  0
  190.7930  176.8100  143.1980 O   0  0  0  0  0  0  0  0  0  0  0  0
  1 20  1  6  0  0  0
  2 24  2  0  0  0  0
  4 26  1  1  0  0  0
  4  1  1  0  0  0  0
  6  4  1  0  0  0  0
  7 22  2  0  0  0  0
  8  7  1  1  0  0  0
  8 15  1  0  0  0  0
  9  5  1  6  0  0  0
  9  1  1  0  0  0  0
  9  3  1  0  0  0  0
 10  5  2  0  0  0  0
 11 16  2  0  0  0  0
 14  7  1  0  0  0  0
 14 13  1  1  0  0  0
 15 19  1  6  0  0  0
 15  3  1  0  0  0  0
 15 17  1  0  0  0  0
 16 21  1  0  0  0  0
 16 18  1  0  0  0  0
 17  2  1  0  0  0  0
 18 10  1  6  0  0  0
 18  8  1  0  0  0  0
 21 12  1  6  0  0  0
 21 14  1  0  0  0  0
 22  2  1  0  0  0  0
 23  6  1  0  0  0  0
 23  5  1  0  0  0  0
 24 28  1  0  0  0  0
 25 26  1  0  0  0  0
 26 27  1  0  0  0  0
 28 29  1  0  0  0  0
 29 33  1  1  0  0  0
 29 31  1  0  0  0  0
 31 30  2  0  0  0  0
 31 32  1  0  0  0  0
 34 33  1  0  0  0  0
 34 36  1  0  0  0  0
 35 34  1  0  0  0  0
 37 34  2  0  0  0  0
M  END
>  <MODEL>
5

>  <REMARK>
 VINA RESULT:      -6.2      1.051      1.463
  Name = 
  6 active torsions:
  status: ('A' for Active; 'I' for Inactive)
    1  A    between atoms: C_2  and  P_3
    2  A    between atoms: C_2  and  CA_9
    3  A    between atoms: C_6  and  C_19
    4  A    between atoms: CA_9  and  C_26
    5  A    between atoms: CA_9  and  N_32
    6  A    between atoms: N_32  and  C_37
                            x       y       z     vdW  Elec       q    Type
                         _______ _______ _______ _____ _____    ______ ____

>  <TORSDO>
F 6

$$$$
=
 OpenBabel11062412263D

 37 40  0  0  1  0  0  0  0  0999 V2000
  190.8100  175.5920  137.2620 C   0  0  2  0  0  3  0  0  0  0  0  0
  186.0840  177.7200  137.8480 C   0  0  0  0  0  0  0  0  0  0  0  0
  188.7550  176.4070  138.3120 O   0  0  0  0  0  0  0  0  0  0  0  0
  192.1840  176.2660  137.1170 C   0  0  1  0  0  3  0  0  0  0  0  0
  190.9230  176.7060  139.6330 C   0  0  0  0  0  0  0  0  0  0  0  0
  193.0060  175.9930  138.3720 C   0  0  0  0  0  2  0  0  0  0  0  0
  186.6600  178.2600  140.1050 C   0  0  0  0  0  0  0  0  0  0  0  0
  188.1550  178.2710  139.7820 C   0  0  2  0  0  3  0  0  0  0  0  0
  190.0930  175.9840  138.5610 C   0  0  2  0  0  3  0  0  0  0  0  0
  190.3630  177.3490  140.6640 C   0  0  0  0  0  3  0  0  0  0  0  0
  189.2330  178.9070  142.8330 C   0  0  0  0  0  2  0  0  0  0  0  0
  186.7370  178.2670  143.8370 O   0  0  0  0  0  1  0  0  0  0  0  0
  184.8650  178.3890  141.6960 O   0  0  0  0  0  1  0  0  0  0  0  0
  186.2310  178.6220  141.5100 C   0  0  1  0  0  3  0  0  0  0  0  0
  188.5310  177.8160  138.3350 C   0  0  2  0  0  0  0  0  0  0  0  0
  188.5060  177.9490  142.2410 C   0  0  0  0  0  0  0  0  0  0  0  0
  187.4200  178.1200  137.3320 C   0  0  0  0  0  2  0  0  0  0  0  0
  188.8810  177.4450  140.8700 C   0  0  1  0  0  3  0  0  0  0  0  0
  189.7070  178.6550  137.8260 C   0  0  0  0  0  1  0  0  0  0  0  0
  190.9000  174.0730  137.1830 C   0  0  0  0  0  1  0  0  0  0  0  0
  187.0360  177.8300  142.5440 C   0  0  1  0  0  3  0  0  0  0  0  0
  185.7610  177.9760  139.2120 N   0  0  0  0  0  0  0  0  0  0  0  0
  192.4270  176.7710  139.5480 C   0  0  0  0  0  2  0  0  0  0  0  0
  185.1690  177.2590  137.0040 C   0  0  0  0  0  3  0  0  0  0  0  0
  194.2590  176.5770  135.7320 C   0  0  0  0  0  1  0  0  0  0  0  0
  192.9280  175.8520  135.8390 C   0  0  0  0  0  3  0  0  0  0  0  0
  192.1060  176.1870  134.6070 C   0  0  0  0  0  1  0  0  0  0  0  0
  183.8510  176.9360  137.4470 N   0  0  0  0  0  2  0  0  0  0  0  0
  183.5380  175.6090  137.9490 C   0  0  1  0  0  3  0  0  0  0  0  0
  181.2610  174.8880  138.7000 O   0  0  0  0  0  0  0  0  0  0  0  0
  182.3860  175.6800  138.9000 C   0  0  0  0  0  0  0  0  0  0  0  0
  182.4290  176.4730  139.8750 O   0  0  0  0  0  1  0  0  0  0  0  0
  183.2180  174.6930  136.7790 C   0  0  0  0  0  2  0  0  0  0  0  0
  184.3400  173.2630  136.7480 P   0  0  0  0  0  0  0  0  0  0  0  0
  183.4870  171.8780  137.2150 O   0  0  0  0  0  1  0  0  0  0  0  0
  184.9410  173.0480  135.1820 O   0  0  0  0  0  0  0  0  0  0  0  0
  185.4910  173.4880  137.7030 O   0  0  0  0  0  1  0  0  0  0  0  0
  1 20  1  1  0  0  0
  1  9  1  0  0  0  0
  2 22  1  0  0  0  0
  3 15  1  0  0  0  0
  4 26  1  6  0  0  0
  4  1  1  0  0  0  0
  4  6  1  0  0  0  0
  5 10  2  0  0  0  0
  6 23  1  0  0  0  0
  7 14  1  0  0  0  0
  8  7  1  1  0  0  0
  8 18  1  0  0  0  0
  9  3  1  6  0  0  0
  9  5  1  0  0  0  0
 14 13  1  6  0  0  0
 14 21  1  0  0  0  0
 15 19  1  6  0  0  0
 15  8  1  0  0  0  0
 16 21  1  0  0  0  0
 16 11  2  0  0  0  0
 17  2  1  0  0  0  0
 17 15  1  0  0  0  0
 18 10  1  6  0  0  0
 18 16  1  0  0  0  0
 21 12  1  1  0  0  0
 22  7  2  0  0  0  0
 23  5  1  0  0  0  0
 24 28  1  0  0  0  0
 24  2  2  0  0  0  0
 25 26  1  0  0  0  0
 27 26  1  0  0  0  0
 28 29  1  0  0  0  0
 29 33  1  6  0  0  0
 29 31  1  0  0  0  0
 30 31  2  0  0  0  0
 31 32  1  0  0  0  0
 34 33  1  0  0  0  0
 34 35  1  0  0  0  0
 34 37  1  0  0  0  0
 36 34  2  0  0  0  0
M  END
>  <MODEL>
6

>  <REMARK>
 VINA RESULT:      -6.1      3.758      8.435
  Name = 
  6 active torsions:
  status: ('A' for Active; 'I' for Inactive)
    1  A    between atoms: C_2  and  P_3
    2  A    between atoms: C_2  and  CA_9
    3  A    between atoms: C_6  and  C_19
    4  A    between atoms: CA_9  and  C_26
    5  A    between atoms: CA_9  and  N_32
    6  A    between atoms: N_32  and  C_37
                            x       y       z     vdW  Elec       q    Type
                         _______ _______ _______ _____ _____    ______ ____

>  <TORSDO>
F 6

$$$$
=
 OpenBabel11062412263D

 37 40  0  0  1  0  0  0  0  0999 V2000
  182.2000  177.2690  139.8070 C   0  0  2  0  0  3  0  0  0  0  0  0
  186.9480  178.2330  141.7380 C   0  0  0  0  0  0  0  0  0  0  0  0
  184.6370  177.3480  140.0210 O   0  0  0  0  0  0  0  0  0  0  0  0
  181.2420  178.1930  139.0370 C   0  0  1  0  0  3  0  0  0  0  0  0
  183.6760  177.6290  137.6690 C   0  0  0  0  0  0  0  0  0  0  0  0
  181.1410  177.7140  137.5930 C   0  0  0  0  0  2  0  0  0  0  0  0
  187.8140  178.1730  139.5110 C   0  0  0  0  0  0  0  0  0  0  0  0
  186.4580  178.5500  138.9120 C   0  0  2  0  0  3  0  0  0  0  0  0
  183.5610  177.1200  139.1140 C   0  0  2  0  0  3  0  0  0  0  0  0
  184.8540  177.8230  137.0660 C   0  0  0  0  0  3  0  0  0  0  0  0
  187.3600  178.4340  135.7420 C   0  0  0  0  0  2  0  0  0  0  0  0
  189.6650  177.0830  136.4570 O   0  0  0  0  0  1  0  0  0  0  0  0
  190.1030  177.4950  139.2400 O   0  0  0  0  0  1  0  0  0  0  0  0
  188.9900  178.0170  138.5720 C   0  0  1  0  0  3  0  0  0  0  0  0
  185.2730  178.6220  139.9280 C   0  0  2  0  0  0  0  0  0  0  0  0
  187.3350  177.5800  136.7740 C   0  0  0  0  0  0  0  0  0  0  0  0
  185.7440  179.0030  141.3300 C   0  0  0  0  0  2  0  0  0  0  0  0
  186.1740  177.5840  137.7370 C   0  0  1  0  0  3  0  0  0  0  0  0
  184.3390  179.7730  139.5420 C   0  0  0  0  0  1  0  0  0  0  0  0
  181.6060  175.8860  140.0380 C   0  0  0  0  0  1  0  0  0  0  0  0
  188.6260  177.1130  137.3920 C   0  0  1  0  0  3  0  0  0  0  0  0
  187.9850  178.0090  140.7880 N   0  0  0  0  0  0  0  0  0  0  0  0
  182.4520  177.9880  136.8660 C   0  0  0  0  0  2  0  0  0  0  0  0
  187.1010  177.8860  143.0110 C   0  0  0  0  0  3  0  0  0  0  0  0
  178.9380  179.1850  138.8590 C   0  0  0  0  0  1  0  0  0  0  0  0
  179.8630  178.3200  139.6990 C   0  0  0  0  0  3  0  0  0  0  0  0
  179.9830  178.9550  141.0740 C   0  0  0  0  0  1  0  0  0  0  0  0
  188.2770  177.2130  143.4570 N   0  0  0  0  0  2  0  0  0  0  0  0
  188.6470  177.2120  144.8620 C   0  0  1  0  0  3  0  0  0  0  0  0
  190.9820  176.8270  145.6840 O   0  0  0  0  0  1  0  0  0  0  0  0
  190.0720  177.6400  145.0170 C   0  0  0  0  0  0  0  0  0  0  0  0
  190.4440  178.7500  144.5560 O   0  0  0  0  0  0  0  0  0  0  0  0
  187.7180  178.1420  145.6260 C   0  0  0  0  0  2  0  0  0  0  0  0
  187.8640  177.8760  147.4190 P   0  0  0  0  0  0  0  0  0  0  0  0
  188.3020  176.2680  147.7080 O   0  0  0  0  0  0  0  0  0  0  0  0
  189.0530  178.9010  148.0490 O   0  0  0  0  0  1  0  0  0  0  0  0
  186.5420  178.1640  148.0940 O   0  0  0  0  0  1  0  0  0  0  0  0
  1 20  1  6  0  0  0
  2 24  2  0  0  0  0
  4 26  1  1  0  0  0
  4  1  1  0  0  0  0
  6  4  1  0  0  0  0
  7 22  2  0  0  0  0
  8  7  1  1  0  0  0
  8 15  1  0  0  0  0
  9  5  1  6  0  0  0
  9  1  1  0  0  0  0
  9  3  1  0  0  0  0
 10  5  2  0  0  0  0
 11 16  2  0  0  0  0
 14 13  1  1  0  0  0
 14  7  1  0  0  0  0
 15 19  1  6  0  0  0
 15  3  1  0  0  0  0
 15 17  1  0  0  0  0
 16 21  1  0  0  0  0
 16 18  1  0  0  0  0
 17  2  1  0  0  0  0
 18 10  1  6  0  0  0
 18  8  1  0  0  0  0
 21 12  1  6  0  0  0
 21 14  1  0  0  0  0
 22  2  1  0  0  0  0
 23  6  1  0  0  0  0
 23  5  1  0  0  0  0
 24 28  1  0  0  0  0
 25 26  1  0  0  0  0
 26 27  1  0  0  0  0
 28 29  1  0  0  0  0
 29 31  1  0  0  0  0
 29 33  1  1  0  0  0
 31 30  1  0  0  0  0
 32 31  2  0  0  0  0
 33 34  1  0  0  0  0
 34 35  2  0  0  0  0
 34 36  1  0  0  0  0
 34 37  1  0  0  0  0
M  END
>  <MODEL>
7

>  <REMARK>
 VINA RESULT:      -6.1      1.439      2.423
  Name = 
  6 active torsions:
  status: ('A' for Active; 'I' for Inactive)
    1  A    between atoms: C_2  and  P_3
    2  A    between atoms: C_2  and  CA_9
    3  A    between atoms: C_6  and  C_19
    4  A    between atoms: CA_9  and  C_26
    5  A    between atoms: CA_9  and  N_32
    6  A    between atoms: N_32  and  C_37
                            x       y       z     vdW  Elec       q    Type
                         _______ _______ _______ _____ _____    ______ ____

>  <TORSDO>
F 6

$$$$
=
 OpenBabel11062412263D

 37 40  0  0  1  0  0  0  0  0999 V2000
  188.3960  177.0830  143.1780 C   0  0  2  0  0  3  0  0  0  0  0  0
  185.0630  178.5170  139.4310 C   0  0  0  0  0  0  0  0  0  0  0  0
  186.3020  177.5070  141.9840 O   0  0  0  0  0  0  0  0  0  0  0  0
  189.1310  177.9370  144.2240 C   0  0  1  0  0  3  0  0  0  0  0  0
  186.2960  177.9230  144.5060 C   0  0  0  0  0  0  0  0  0  0  0  0
  188.5640  177.6280  145.6060 C   0  0  0  0  0  2  0  0  0  0  0  0
  183.3980  178.8630  141.1110 C   0  0  0  0  0  0  0  0  0  0  0  0
  184.4540  179.0990  142.1910 C   0  0  2  0  0  3  0  0  0  0  0  0
  186.8700  177.2290  143.2610 C   0  0  2  0  0  3  0  0  0  0  0  0
  185.0360  178.3670  144.5650 C   0  0  0  0  0  3  0  0  0  0  0  0
  182.3760  179.5110  144.7180 C   0  0  0  0  0  2  0  0  0  0  0  0
  180.3270  178.4510  143.1930 O   0  0  0  0  0  1  0  0  0  0  0  0
  181.1030  178.5810  140.4570 O   0  0  0  0  0  1  0  0  0  0  0  0
  181.9410  179.0050  141.4940 C   0  0  1  0  0  3  0  0  0  0  0  0
  185.9330  178.8640  141.7450 C   0  0  2  0  0  0  0  0  0  0  0  0
  182.6420  178.5440  143.8300 C   0  0  0  0  0  0  0  0  0  0  0  0
  186.1330  179.1380  140.2560 C   0  0  0  0  0  2  0  0  0  0  0  0
  184.0660  178.2520  143.4260 C   0  0  1  0  0  3  0  0  0  0  0  0
  186.8400  179.8980  142.4210 C   0  0  0  0  0  1  0  0  0  0  0  0
  188.7590  175.6070  143.2790 C   0  0  0  0  0  1  0  0  0  0  0  0
  181.6340  178.2070  142.7640 C   0  0  1  0  0  3  0  0  0  0  0  0
  183.7140  178.5720  139.8850 N   0  0  0  0  0  0  0  0  0  0  0  0
  187.1500  178.1860  145.7200 C   0  0  0  0  0  2  0  0  0  0  0  0
  185.3600  178.0440  138.2260 C   0  0  0  0  0  3  0  0  0  0  0  0
  191.1740  177.1740  145.4750 C   0  0  0  0  0  1  0  0  0  0  0  0
  190.6560  177.7700  144.1770 C   0  0  0  0  0  3  0  0  0  0  0  0
  191.3370  179.1110  143.9680 C   0  0  0  0  0  1  0  0  0  0  0  0
  184.3480  177.5090  137.3730 N   0  0  0  0  0  2  0  0  0  0  0  0
  184.5890  176.3050  136.5970 C   0  0  1  0  0  3  0  0  0  0  0  0
  183.2920  174.8980  134.9810 O   0  0  0  0  0  0  0  0  0  0  0  0
  183.2980  175.7730  136.0610 C   0  0  0  0  0  0  0  0  0  0  0  0
  182.2110  176.1350  136.5800 O   0  0  0  0  0  1  0  0  0  0  0  0
  185.5540  176.6210  135.4650 C   0  0  0  0  0  2  0  0  0  0  0  0
  187.0830  175.6510  135.6240 P   0  0  0  0  0  0  0  0  0  0  0  0
  188.4100  176.6470  135.2930 O   0  0  0  0  0  1  0  0  0  0  0  0
  187.2130  175.0520  137.2010 O   0  0  0  0  0  1  0  0  0  0  0  0
  187.0670  174.4960  134.6470 O   0  0  0  0  0  0  0  0  0  0  0  0
  1  9  1  0  0  0  0
  1 20  1  1  0  0  0
  1  4  1  0  0  0  0
  2 22  1  0  0  0  0
  2 17  1  0  0  0  0
  4 26  1  1  0  0  0
  4  6  1  0  0  0  0
  5 10  2  0  0  0  0
  5 23  1  0  0  0  0
  6 23  1  0  0  0  0
  7 14  1  0  0  0  0
  8  7  1  6  0  0  0
  8 18  1  0  0  0  0
  9  3  1  6  0  0  0
  9  5  1  0  0  0  0
 14 13  1  6  0  0  0
 14 21  1  0  0  0  0
 15  3  1  0  0  0  0
 15  8  1  0  0  0  0
 15 19  1  1  0  0  0
 16 11  2  0  0  0  0
 17 15  1  0  0  0  0
 18 16  1  0  0  0  0
 18 10  1  1  0  0  0
 21 12  1  1  0  0  0
 21 16  1  0  0  0  0
 22  7  2  0  0  0  0
 24  2  2  0  0  0  0
 26 25  1  0  0  0  0
 27 26  1  0  0  0  0
 28 24  1  0  0  0  0
 29 33  1  6  0  0  0
 29 28  1  0  0  0  0
 30 31  2  0  0  0  0
 31 32  1  0  0  0  0
 31 29  1  0  0  0  0
 33 34  1  0  0  0  0
 34 36  1  0  0  0  0
 35 34  1  0  0  0  0
 37 34  2  0  0  0  0
M  END
>  <MODEL>
8

>  <REMARK>
 VINA RESULT:      -5.8      3.544      8.797
  Name = 
  6 active torsions:
  status: ('A' for Active; 'I' for Inactive)
    1  A    between atoms: C_2  and  P_3
    2  A    between atoms: C_2  and  CA_9
    3  A    between atoms: C_6  and  C_19
    4  A    between atoms: CA_9  and  C_26
    5  A    between atoms: CA_9  and  N_32
    6  A    between atoms: N_32  and  C_37
                            x       y       z     vdW  Elec       q    Type
                         _______ _______ _______ _____ _____    ______ ____

>  <TORSDO>
F 6

$$$$
=
 OpenBabel11062412263D

 37 40  0  0  1  0  0  0  0  0999 V2000
  189.9550  175.6360  136.7490 C   0  0  2  0  0  3  0  0  0  0  0  0
  185.7290  178.0660  138.6030 C   0  0  0  0  0  0  0  0  0  0  0  0
  188.2830  176.4950  138.3160 O   0  0  0  0  0  0  0  0  0  0  0  0
  191.3260  176.2070  136.3510 C   0  0  1  0  0  3  0  0  0  0  0  0
  190.7090  176.4660  139.1200 C   0  0  0  0  0  0  0  0  0  0  0  0
  192.3730  175.7300  137.3520 C   0  0  0  0  0  2  0  0  0  0  0  0
  186.8450  178.3020  140.7040 C   0  0  0  0  0  0  0  0  0  0  0  0
  188.2230  178.2260  140.0460 C   0  0  2  0  0  3  0  0  0  0  0  0
  189.5900  175.9380  138.2090 C   0  0  2  0  0  3  0  0  0  0  0  0
  190.4630  177.0330  140.3060 C   0  0  0  0  0  3  0  0  0  0  0  0
  190.0130  178.4270  142.8080 C   0  0  0  0  0  2  0  0  0  0  0  0
  187.7490  177.8860  144.3030 O   0  0  0  0  0  1  0  0  0  0  0  0
  185.4720  178.3990  142.6740 O   0  0  0  0  0  1  0  0  0  0  0  0
  186.7790  178.5390  142.1970 C   0  0  1  0  0  3  0  0  0  0  0  0
  188.2190  177.9060  138.5160 C   0  0  2  0  0  0  0  0  0  0  0  0
  189.0760  177.6040  142.3180 C   0  0  0  0  0  0  0  0  0  0  0  0
  186.9500  178.4090  137.8300 C   0  0  0  0  0  2  0  0  0  0  0  0
  189.0820  177.2270  140.8570 C   0  0  1  0  0  3  0  0  0  0  0  0
  189.3340  178.6980  137.8260 C   0  0  0  0  0  1  0  0  0  0  0  0
  189.8660  174.1340  136.5150 C   0  0  0  0  0  1  0  0  0  0  0  0
  187.7060  177.5730  142.9410 C   0  0  1  0  0  3  0  0  0  0  0  0
  185.7450  178.1940  140.0220 N   0  0  0  0  0  0  0  0  0  0  0  0
  192.1540  176.4160  138.6950 C   0  0  0  0  0  2  0  0  0  0  0  0
  184.6050  177.7780  137.9560 C   0  0  0  0  0  3  0  0  0  0  0  0
  191.6650  174.3810  134.6560 C   0  0  0  0  0  1  0  0  0  0  0  0
  191.7200  175.8790  134.9040 C   0  0  0  0  0  3  0  0  0  0  0  0
  193.1330  176.3550  134.6120 C   0  0  0  0  0  1  0  0  0  0  0  0
  183.3920  177.5170  138.6610 N   0  0  0  0  0  2  0  0  0  0  0  0
  182.7390  178.5610  139.4310 C   0  0  1  0  0  3  0  0  0  0  0  0
  183.1570  180.9340  138.7480 O   0  0  0  0  0  1  0  0  0  0  0  0
  182.4630  179.7450  138.5590 C   0  0  0  0  0  0  0  0  0  0  0  0
  181.5850  179.6670  137.6610 O   0  0  0  0  0  0  0  0  0  0  0  0
  181.4500  178.0160  140.0240 C   0  0  0  0  0  2  0  0  0  0  0  0
  180.9960  178.9200  141.5350 P   0  0  0  0  0  0  0  0  0  0  0  0
  180.4110  180.4500  141.1110 O   0  0  0  0  0  0  0  0  0  0  0  0
  179.7910  178.0710  142.3630 O   0  0  0  0  0  1  0  0  0  0  0  0
  182.2060  179.0760  142.4280 O   0  0  0  0  0  1  0  0  0  0  0  0
  1 20  1  1  0  0  0
  1  9  1  0  0  0  0
  2 22  1  0  0  0  0
  3 15  1  0  0  0  0
  4 26  1  6  0  0  0
  4  1  1  0  0  0  0
  4  6  1  0  0  0  0
  5 10  2  0  0  0  0
  6 23  1  0  0  0  0
  7 14  1  0  0  0  0
  8  7  1  1  0  0  0
  8 18  1  0  0  0  0
  9  3  1  6  0  0  0
  9  5  1  0  0  0  0
 14 13  1  1  0  0  0
 14 21  1  0  0  0  0
 15 19  1  6  0  0  0
 15  8  1  0  0  0  0
 16 11  2  0  0  0  0
 16 21  1  0  0  0  0
 17 15  1  0  0  0  0
 17  2  1  0  0  0  0
 18 10  1  6  0  0  0
 18 16  1  0  0  0  0
 21 12  1  1  0  0  0
 22  7  2  0  0  0  0
 23  5  1  0  0  0  0
 24  2  2  0  0  0  0
 24 28  1  0  0  0  0
 25 26  1  0  0  0  0
 27 26  1  0  0  0  0
 28 29  1  0  0  0  0
 29 33  1  6  0  0  0
 31 30  1  0  0  0  0
 31 29  1  0  0  0  0
 32 31  2  0  0  0  0
 33 34  1  0  0  0  0
 34 36  1  0  0  0  0
 34 37  1  0  0  0  0
 35 34  2  0  0  0  0
M  END
>  <MODEL>
9

>  <REMARK>
 VINA RESULT:      -5.8      3.461      7.875
  Name = 
  6 active torsions:
  status: ('A' for Active; 'I' for Inactive)
    1  A    between atoms: C_2  and  P_3
    2  A    between atoms: C_2  and  CA_9
    3  A    between atoms: C_6  and  C_19
    4  A    between atoms: CA_9  and  C_26
    5  A    between atoms: CA_9  and  N_32
    6  A    between atoms: N_32  and  C_37
                            x       y       z     vdW  Elec       q    Type
                         _______ _______ _______ _____ _____    ______ ____

>  <TORSDO>
F 6

$$$$
