=
 OpenBabel11062417113D

 36 39  0  0  1  0  0  0  0  0999 V2000
  189.1160  177.2620  140.4670 C   0  0  0  0  0  2  0  0  0  0  0  0
  189.6750  178.4180  138.4600 O   0  0  0  0  0  1  0  0  0  0  0  0
  191.2810  177.7650  141.1230 C   0  0  2  0  0  3  0  0  0  0  0  0
  191.3670  177.5640  139.7360 O   0  0  0  0  0  0  0  0  0  0  0  0
  192.4480  177.3190  141.7470 O   0  0  0  0  0  1  0  0  0  0  0  0
  190.0210  177.0750  141.6510 C   0  0  2  0  0  0  0  0  0  0  0  0
  190.0540  177.3490  139.2750 C   0  0  1  0  0  0  0  0  0  0  0  0
  190.6210  175.3980  143.1500 C   0  0  0  0  0  1  0  0  0  0  0  0
  190.2010  175.6760  141.8360 O   0  0  0  0  0  0  0  0  0  0  0  0
  190.0410  178.6720  143.4180 O   0  0  0  0  0  0  0  0  0  0  0  0
  189.4100  177.7860  142.8590 C   0  0  0  0  0  0  0  0  0  0  0  0
  184.6560  178.3530  146.5510 C   0  0  0  0  0  3  0  0  0  0  0  0
  185.9610  177.8450  146.4810 C   0  0  0  0  0  3  0  0  0  0  0  0
  187.9960  177.3830  144.9760 C   0  0  2  0  0  3  0  0  0  0  0  0
  186.8690  178.2540  142.9280 C   0  0  0  0  0  2  0  0  0  0  0  0
  186.0020  178.3420  144.1190 C   0  0  0  0  0  0  0  0  0  0  0  0
  188.0560  177.4180  143.4310 C   0  0  1  0  0  3  0  0  0  0  0  0
  186.6150  177.8510  145.2460 C   0  0  0  0  0  0  0  0  0  0  0  0
  184.7050  178.8550  144.1660 C   0  0  0  0  0  3  0  0  0  0  0  0
  184.0300  178.8580  145.3970 C   0  0  0  0  0  3  0  0  0  0  0  0
  188.9020  178.2890  145.5380 O   0  0  0  0  0  0  0  0  0  0  0  0
  189.4240  177.6310  146.6520 C   0  0  0  0  0  2  0  0  0  0  0  0
  190.5220  176.8650  146.2650 O   0  0  0  0  0  1  0  0  0  0  0  0
  190.0310  176.0390  138.4810 C   0  0  0  0  0  2  0  0  0  0  0  0
  189.1630  176.0900  137.2590 C   0  0  0  0  0  0  0  0  0  0  0  0
  189.6810  176.1950  136.1590 O   0  0  0  0  0  0  0  0  0  0  0  0
  187.6750  175.9900  137.3840 C   0  0  0  0  0  2  0  0  0  0  0  0
  186.9850  176.7770  136.2740 C   0  0  1  0  0  3  0  0  0  0  0  0
  184.8650  175.6460  136.3230 C   0  0  0  0  0  0  0  0  0  0  0  0
  183.8610  175.2990  136.9570 O   0  0  0  0  0  0  0  0  0  0  0  0
  185.8990  176.0030  135.6700 N   0  0  0  0  0  0  0  0  0  0  0  0
  186.4860  178.1140  136.8110 C   0  0  0  0  0  2  0  0  0  0  0  0
  186.1450  178.0220  138.2900 C   0  0  0  0  0  2  0  0  0  0  0  0
  184.8370  178.7340  138.5790 C   0  0  0  0  0  3  0  0  0  0  0  0
  183.9870  177.8630  139.4810 C   0  0  0  0  0  2  0  0  0  0  0  0
  184.7530  179.0310  140.0630 C   0  0  0  0  0  2  0  0  0  0  0  0
  1  6  1  0  0  0  0
  3  6  1  0  0  0  0
  3  5  1  1  0  0  0
  4  3  1  0  0  0  0
  6  9  1  1  0  0  0
  6 11  1  0  0  0  0
  7  2  1  6  0  0  0
  7  4  1  0  0  0  0
  7  1  1  0  0  0  0
  9  8  1  0  0  0  0
 11 10  2  0  0  0  0
 13 12  1  0  0  0  0
 14 18  1  0  0  0  0
 14 21  1  1  0  0  0
 15 17  1  0  0  0  0
 15 16  1  0  0  0  0
 16 19  2  0  0  0  0
 16 18  1  0  0  0  0
 17 11  1  1  0  0  0
 17 14  1  0  0  0  0
 18 13  2  0  0  0  0
 19 20  1  0  0  0  0
 20 12  2  0  0  0  0
 21 22  1  0  0  0  0
 23 22  1  0  0  0  0
 24  7  1  0  0  0  0
 25 27  1  0  0  0  0
 25 24  1  0  0  0  0
 26 25  2  0  0  0  0
 28 32  1  1  0  0  0
 28 27  1  0  0  0  0
 29 30  2  0  0  0  0
 31 28  1  0  0  0  0
 31 29  2  0  0  0  0
 32 33  1  0  0  0  0
 33 34  1  0  0  0  0
 34 35  1  0  0  0  0
 34 36  1  0  0  0  0
 35 36  1  0  0  0  0
M  END
>  <MODEL>
1

>  <REMARK>
 VINA RESULT:      -7.1      0.000      0.000
  Name = 
  13 active torsions:
  status: ('A' for Active; 'I' for Inactive)
    1  A    between atoms: C_4  and  C_7
    2  A    between atoms: C_4  and  C_18
    3  A    between atoms: C_7  and  C_24
    4  A    between atoms: O_9  and  C_11
    5  A    between atoms: O_9  and  C_21
    6  A    between atoms: C_14  and  C_16
    7  A    between atoms: C_14  and  C_27
    8  A    between atoms: C_16  and  C_35
    9  A    between atoms: C_17  and  C_32
   10  A    between atoms: O_23  and  C_33
   11  A    between atoms: C_24  and  C_27
   12  A    between atoms: C_24  and  N_36
   13  A    between atoms: C_32  and  C_33
                            x       y       z     vdW  Elec       q    Type
                         _______ _______ _______ _____ _____    ______ ____

>  <TORSDO>
F 13

$$$$
=
 OpenBabel11062417113D

 36 39  0  0  1  0  0  0  0  0999 V2000
  189.1230  177.2350  140.3840 C   0  0  0  0  0  2  0  0  0  0  0  0
  189.7270  178.3250  138.3530 O   0  0  0  0  0  1  0  0  0  0  0  0
  191.2810  177.7400  141.0630 C   0  0  2  0  0  3  0  0  0  0  0  0
  191.3890  177.4960  139.6840 O   0  0  0  0  0  0  0  0  0  0  0  0
  192.4320  177.3020  141.7200 O   0  0  0  0  0  1  0  0  0  0  0  0
  190.0050  177.0750  141.5880 C   0  0  2  0  0  0  0  0  0  0  0  0
  190.0830  177.2780  139.2060 C   0  0  1  0  0  0  0  0  0  0  0  0
  190.5920  175.4420  143.1390 C   0  0  0  0  0  1  0  0  0  0  0  0
  190.1700  175.6820  141.8190 O   0  0  0  0  0  0  0  0  0  0  0  0
  189.9900  178.7540  143.2780 O   0  0  0  0  0  0  0  0  0  0  0  0
  189.3800  177.8280  142.7640 C   0  0  0  0  0  0  0  0  0  0  0  0
  184.7290  178.3100  146.5970 C   0  0  0  0  0  3  0  0  0  0  0  0
  186.0260  177.7890  146.4740 C   0  0  0  0  0  3  0  0  0  0  0  0
  188.0150  177.3620  144.9000 C   0  0  2  0  0  3  0  0  0  0  0  0
  186.8470  178.3220  142.9160 C   0  0  0  0  0  2  0  0  0  0  0  0
  186.0130  178.3750  144.1330 C   0  0  0  0  0  0  0  0  0  0  0  0
  188.0370  177.4530  143.3560 C   0  0  1  0  0  3  0  0  0  0  0  0
  186.6480  177.8340  145.2240 C   0  0  0  0  0  0  0  0  0  0  0  0
  184.7230  178.9000  144.2330 C   0  0  0  0  0  3  0  0  0  0  0  0
  184.0800  178.8650  145.4790 C   0  0  0  0  0  3  0  0  0  0  0  0
  188.9460  178.2350  145.4720 O   0  0  0  0  0  0  0  0  0  0  0  0
  189.6390  177.4620  146.4050 C   0  0  0  0  0  2  0  0  0  0  0  0
  189.3280  177.9000  147.6910 O   0  0  0  0  0  1  0  0  0  0  0  0
  190.0620  175.9450  138.4510 C   0  0  0  0  0  2  0  0  0  0  0  0
  190.1110  176.0960  136.9600 C   0  0  0  0  0  0  0  0  0  0  0  0
  191.1780  176.3250  136.4150 O   0  0  0  0  0  0  0  0  0  0  0  0
  188.8650  175.9470  136.1440 C   0  0  0  0  0  2  0  0  0  0  0  0
  187.6470  175.7640  137.0430 C   0  0  1  0  0  3  0  0  0  0  0  0
  186.4690  177.7350  137.7520 C   0  0  0  0  0  0  0  0  0  0  0  0
  186.2610  178.5940  138.6180 O   0  0  0  0  0  0  0  0  0  0  0  0
  186.6830  176.8500  136.8610 N   0  0  0  0  0  0  0  0  0  0  0  0
  187.0070  174.4030  136.7900 C   0  0  0  0  0  2  0  0  0  0  0  0
  185.5200  174.4260  137.1050 C   0  0  0  0  0  2  0  0  0  0  0  0
  184.7850  173.3930  136.2720 C   0  0  0  0  0  3  0  0  0  0  0  0
  184.4530  172.1980  137.1410 C   0  0  0  0  0  2  0  0  0  0  0  0
  183.3840  173.2200  136.8220 C   0  0  0  0  0  2  0  0  0  0  0  0
  1  6  1  0  0  0  0
  3  6  1  0  0  0  0
  3  5  1  1  0  0  0
  4  3  1  0  0  0  0
  6  9  1  1  0  0  0
  6 11  1  0  0  0  0
  7  2  1  6  0  0  0
  7  4  1  0  0  0  0
  7  1  1  0  0  0  0
  9  8  1  0  0  0  0
 11 10  2  0  0  0  0
 13 12  1  0  0  0  0
 14 18  1  0  0  0  0
 14 21  1  1  0  0  0
 15 17  1  0  0  0  0
 15 16  1  0  0  0  0
 16 19  2  0  0  0  0
 16 18  1  0  0  0  0
 17 11  1  1  0  0  0
 17 14  1  0  0  0  0
 18 13  2  0  0  0  0
 19 20  1  0  0  0  0
 20 12  2  0  0  0  0
 21 22  1  0  0  0  0
 22 23  1  0  0  0  0
 24  7  1  0  0  0  0
 25 24  1  0  0  0  0
 26 25  2  0  0  0  0
 27 25  1  0  0  0  0
 28 27  1  6  0  0  0
 29 30  2  0  0  0  0
 31 28  1  0  0  0  0
 31 29  2  0  0  0  0
 32 28  1  0  0  0  0
 32 33  1  0  0  0  0
 34 36  1  0  0  0  0
 34 33  1  0  0  0  0
 34 35  1  0  0  0  0
 36 35  1  0  0  0  0
M  END
>  <MODEL>
2

>  <REMARK>
 VINA RESULT:      -7.0      1.291      2.302
  Name = 
  13 active torsions:
  status: ('A' for Active; 'I' for Inactive)
    1  A    between atoms: C_4  and  C_7
    2  A    between atoms: C_4  and  C_18
    3  A    between atoms: C_7  and  C_24
    4  A    between atoms: O_9  and  C_11
    5  A    between atoms: O_9  and  C_21
    6  A    between atoms: C_14  and  C_16
    7  A    between atoms: C_14  and  C_27
    8  A    between atoms: C_16  and  C_35
    9  A    between atoms: C_17  and  C_32
   10  A    between atoms: O_23  and  C_33
   11  A    between atoms: C_24  and  C_27
   12  A    between atoms: C_24  and  N_36
   13  A    between atoms: C_32  and  C_33
                            x       y       z     vdW  Elec       q    Type
                         _______ _______ _______ _____ _____    ______ ____

>  <TORSDO>
F 13

$$$$
=
 OpenBabel11062417113D

 36 39  0  0  1  0  0  0  0  0999 V2000
  187.7140  177.0740  139.1970 C   0  0  0  0  0  2  0  0  0  0  0  0
  189.6720  176.8810  140.5400 O   0  0  0  0  0  1  0  0  0  0  0  0
  188.9830  178.5210  137.9070 C   0  0  2  0  0  3  0  0  0  0  0  0
  189.4300  178.7310  139.2210 O   0  0  0  0  0  0  0  0  0  0  0  0
  189.0240  179.7180  137.1880 O   0  0  0  0  0  1  0  0  0  0  0  0
  187.5860  177.8970  137.9480 C   0  0  2  0  0  0  0  0  0  0  0  0
  188.7520  177.8030  140.0340 C   0  0  1  0  0  0  0  0  0  0  0  0
  185.3890  178.2410  138.6380 C   0  0  0  0  0  1  0  0  0  0  0  0
  186.5630  178.8600  138.1710 O   0  0  0  0  0  0  0  0  0  0  0  0
  186.9490  177.4390  135.6990 O   0  0  0  0  0  0  0  0  0  0  0  0
  187.3120  176.9660  136.7660 C   0  0  0  0  0  0  0  0  0  0  0  0
  185.9140  171.2340  135.4450 C   0  0  0  0  0  3  0  0  0  0  0  0
  185.5190  172.3280  136.2300 C   0  0  0  0  0  3  0  0  0  0  0  0
  186.0900  174.7110  137.0130 C   0  0  2  0  0  3  0  0  0  0  0  0
  188.2320  174.7800  135.7380 C   0  0  0  0  0  2  0  0  0  0  0  0
  187.5180  173.5010  135.5570 C   0  0  0  0  0  0  0  0  0  0  0  0
  187.4350  175.4590  136.8630 C   0  0  1  0  0  3  0  0  0  0  0  0
  186.3440  173.4550  136.2690 C   0  0  0  0  0  0  0  0  0  0  0  0
  187.9290  172.4260  134.7680 C   0  0  0  0  0  3  0  0  0  0  0  0
  187.1150  171.2840  134.7150 C   0  0  0  0  0  3  0  0  0  0  0  0
  185.0500  175.4070  136.3890 O   0  0  0  0  0  0  0  0  0  0  0  0
  183.9550  175.2600  137.2410 C   0  0  0  0  0  2  0  0  0  0  0  0
  182.8140  175.7700  136.6240 O   0  0  0  0  0  1  0  0  0  0  0  0
  188.0770  178.5660  141.1780 C   0  0  0  0  0  2  0  0  0  0  0  0
  188.3890  178.0140  142.5370 C   0  0  0  0  0  0  0  0  0  0  0  0
  189.4490  178.3000  143.0710 O   0  0  0  0  0  0  0  0  0  0  0  0
  187.4030  177.1370  143.2430 C   0  0  0  0  0  2  0  0  0  0  0  0
  186.6130  177.9340  144.2760 C   0  0  1  0  0  3  0  0  0  0  0  0
  184.3670  178.7470  144.5430 C   0  0  0  0  0  0  0  0  0  0  0  0
  183.4970  179.2400  145.2700 O   0  0  0  0  0  0  0  0  0  0  0  0
  185.2650  178.2400  143.7950 N   0  0  0  0  0  0  0  0  0  0  0  0
  186.5750  177.1810  145.6020 C   0  0  0  0  0  2  0  0  0  0  0  0
  187.1670  178.0160  146.7270 C   0  0  0  0  0  2  0  0  0  0  0  0
  188.1600  177.1970  147.5290 C   0  0  0  0  0  3  0  0  0  0  0  0
  189.5410  177.3630  146.9280 C   0  0  0  0  0  2  0  0  0  0  0  0
  189.1630  178.1300  148.1760 C   0  0  0  0  0  2  0  0  0  0  0  0
  1  7  1  0  0  0  0
  3  5  1  6  0  0  0
  3  6  1  0  0  0  0
  3  4  1  0  0  0  0
  4  7  1  0  0  0  0
  6 11  1  6  0  0  0
  6  9  1  0  0  0  0
  6  1  1  0  0  0  0
  7  2  1  1  0  0  0
  7 24  1  0  0  0  0
  9  8  1  0  0  0  0
 10 11  2  0  0  0  0
 12 13  1  0  0  0  0
 13 18  2  0  0  0  0
 14 21  1  6  0  0  0
 15 17  1  0  0  0  0
 16 15  1  0  0  0  0
 16 18  1  0  0  0  0
 17 11  1  6  0  0  0
 17 14  1  0  0  0  0
 18 14  1  0  0  0  0
 19 16  2  0  0  0  0
 20 19  1  0  0  0  0
 20 12  2  0  0  0  0
 21 22  1  0  0  0  0
 23 22  1  0  0  0  0
 24 25  1  0  0  0  0
 25 26  2  0  0  0  0
 25 27  1  0  0  0  0
 28 27  1  6  0  0  0
 28 32  1  0  0  0  0
 29 30  2  0  0  0  0
 31 28  1  0  0  0  0
 31 29  2  0  0  0  0
 32 33  1  0  0  0  0
 33 34  1  0  0  0  0
 34 36  1  0  0  0  0
 35 34  1  0  0  0  0
 35 36  1  0  0  0  0
M  END
>  <MODEL>
3

>  <REMARK>
 VINA RESULT:      -6.9      2.703      8.424
  Name = 
  13 active torsions:
  status: ('A' for Active; 'I' for Inactive)
    1  A    between atoms: C_4  and  C_7
    2  A    between atoms: C_4  and  C_18
    3  A    between atoms: C_7  and  C_24
    4  A    between atoms: O_9  and  C_11
    5  A    between atoms: O_9  and  C_21
    6  A    between atoms: C_14  and  C_16
    7  A    between atoms: C_14  and  C_27
    8  A    between atoms: C_16  and  C_35
    9  A    between atoms: C_17  and  C_32
   10  A    between atoms: O_23  and  C_33
   11  A    between atoms: C_24  and  C_27
   12  A    between atoms: C_24  and  N_36
   13  A    between atoms: C_32  and  C_33
                            x       y       z     vdW  Elec       q    Type
                         _______ _______ _______ _____ _____    ______ ____

>  <TORSDO>
F 13

$$$$
=
 OpenBabel11062417113D

 36 39  0  0  1  0  0  0  0  0999 V2000
  185.9700  178.0650  139.0830 C   0  0  0  0  0  2  0  0  0  0  0  0
  186.7260  176.3700  137.5880 O   0  0  0  0  0  1  0  0  0  0  0  0
  183.8950  177.7130  138.1140 C   0  0  2  0  0  3  0  0  0  0  0  0
  184.8130  177.5080  137.0720 O   0  0  0  0  0  0  0  0  0  0  0  0
  182.7240  178.2890  137.6170 O   0  0  0  0  0  1  0  0  0  0  0  0
  184.5580  178.5580  139.2050 C   0  0  2  0  0  0  0  0  0  0  0  0
  186.0980  177.6170  137.6360 C   0  0  1  0  0  0  0  0  0  0  0  0
  183.2750  180.4950  139.0620 C   0  0  0  0  0  1  0  0  0  0  0  0
  184.5600  179.9460  138.8960 O   0  0  0  0  0  0  0  0  0  0  0  0
  183.0330  177.5550  140.7360 O   0  0  0  0  0  0  0  0  0  0  0  0
  184.0400  178.2370  140.6080 C   0  0  0  0  0  0  0  0  0  0  0  0
  185.0620  178.5680  146.5570 C   0  0  0  0  0  3  0  0  0  0  0  0
  184.1900  179.0030  145.5480 C   0  0  0  0  0  3  0  0  0  0  0  0
  183.7250  179.0900  143.0190 C   0  0  2  0  0  3  0  0  0  0  0  0
  185.8340  177.8910  142.4370 C   0  0  0  0  0  2  0  0  0  0  0  0
  185.6770  178.0650  143.8940 C   0  0  0  0  0  0  0  0  0  0  0  0
  184.7020  178.7610  141.8660 C   0  0  1  0  0  3  0  0  0  0  0  0
  184.5230  178.7370  144.2180 C   0  0  0  0  0  0  0  0  0  0  0  0
  186.5580  177.6220  144.8820 C   0  0  0  0  0  3  0  0  0  0  0  0
  186.2420  177.8790  146.2250 C   0  0  0  0  0  3  0  0  0  0  0  0
  182.5910  178.2720  142.9720 O   0  0  0  0  0  0  0  0  0  0  0  0
  181.5210  179.1230  143.2510 C   0  0  0  0  0  2  0  0  0  0  0  0
  180.5510  178.4290  143.9710 O   0  0  0  0  0  1  0  0  0  0  0  0
  186.8940  178.6460  136.8270 C   0  0  0  0  0  2  0  0  0  0  0  0
  188.3730  178.3990  136.8270 C   0  0  0  0  0  0  0  0  0  0  0  0
  188.8860  177.8270  135.8780 O   0  0  0  0  0  0  0  0  0  0  0  0
  189.2190  178.8690  137.9680 C   0  0  0  0  0  2  0  0  0  0  0  0
  189.4760  177.7330  138.9530 C   0  0  1  0  0  3  0  0  0  0  0  0
  191.4690  176.7430  138.0450 C   0  0  0  0  0  0  0  0  0  0  0  0
  192.0260  176.1310  137.1260 O   0  0  0  0  0  0  0  0  0  0  0  0
  190.8940  177.3730  138.9920 N   0  0  0  0  0  0  0  0  0  0  0  0
  188.9600  178.1120  140.3380 C   0  0  0  0  0  2  0  0  0  0  0  0
  189.4760  177.1530  141.4000 C   0  0  0  0  0  2  0  0  0  0  0  0
  189.7440  177.8930  142.6970 C   0  0  0  0  0  3  0  0  0  0  0  0
  189.9620  176.8860  143.8070 C   0  0  0  0  0  2  0  0  0  0  0  0
  191.1480  177.5730  143.1680 C   0  0  0  0  0  2  0  0  0  0  0  0
  1  6  1  0  0  0  0
  3  5  1  6  0  0  0
  3  6  1  0  0  0  0
  4  7  1  0  0  0  0
  4  3  1  0  0  0  0
  6  9  1  6  0  0  0
  6 11  1  0  0  0  0
  7  2  1  6  0  0  0
  7  1  1  0  0  0  0
  9  8  1  0  0  0  0
 11 10  2  0  0  0  0
 13 12  2  0  0  0  0
 14 21  1  6  0  0  0
 14 18  1  0  0  0  0
 15 16  1  0  0  0  0
 16 18  2  0  0  0  0
 16 19  1  0  0  0  0
 17 11  1  6  0  0  0
 17 15  1  0  0  0  0
 17 14  1  0  0  0  0
 18 13  1  0  0  0  0
 19 20  2  0  0  0  0
 20 12  1  0  0  0  0
 21 22  1  0  0  0  0
 22 23  1  0  0  0  0
 24  7  1  0  0  0  0
 25 24  1  0  0  0  0
 25 27  1  0  0  0  0
 26 25  2  0  0  0  0
 28 27  1  6  0  0  0
 28 31  1  0  0  0  0
 28 32  1  0  0  0  0
 29 31  2  0  0  0  0
 30 29  2  0  0  0  0
 32 33  1  0  0  0  0
 33 34  1  0  0  0  0
 34 36  1  0  0  0  0
 34 35  1  0  0  0  0
 36 35  1  0  0  0  0
M  END
>  <MODEL>
4

>  <REMARK>
 VINA RESULT:      -6.7      3.064      5.889
  Name = 
  13 active torsions:
  status: ('A' for Active; 'I' for Inactive)
    1  A    between atoms: C_4  and  C_7
    2  A    between atoms: C_4  and  C_18
    3  A    between atoms: C_7  and  C_24
    4  A    between atoms: O_9  and  C_11
    5  A    between atoms: O_9  and  C_21
    6  A    between atoms: C_14  and  C_16
    7  A    between atoms: C_14  and  C_27
    8  A    between atoms: C_16  and  C_35
    9  A    between atoms: C_17  and  C_32
   10  A    between atoms: O_23  and  C_33
   11  A    between atoms: C_24  and  C_27
   12  A    between atoms: C_24  and  N_36
   13  A    between atoms: C_32  and  C_33
                            x       y       z     vdW  Elec       q    Type
                         _______ _______ _______ _____ _____    ______ ____

>  <TORSDO>
F 13

$$$$
=
 OpenBabel11062417113D

 36 39  0  0  1  0  0  0  0  0999 V2000
  189.2870  176.8180  140.1370 C   0  0  0  0  0  2  0  0  0  0  0  0
  187.3630  177.4510  138.8810 O   0  0  0  0  0  1  0  0  0  0  0  0
  188.6500  178.5110  141.5860 C   0  0  2  0  0  3  0  0  0  0  0  0
  188.2830  178.9750  140.3130 O   0  0  0  0  0  0  0  0  0  0  0  0
  189.0580  179.5780  142.3890 O   0  0  0  0  0  1  0  0  0  0  0  0
  189.7270  177.4340  141.4330 C   0  0  2  0  0  0  0  0  0  0  0  0
  188.5640  177.9370  139.4050 C   0  0  1  0  0  0  0  0  0  0  0  0
  191.8060  177.1280  140.4310 C   0  0  0  0  0  1  0  0  0  0  0  0
  191.0230  177.9820  141.2290 O   0  0  0  0  0  0  0  0  0  0  0  0
  190.5120  175.4840  142.5550 O   0  0  0  0  0  0  0  0  0  0  0  0
  189.6710  176.3710  142.5320 C   0  0  0  0  0  0  0  0  0  0  0  0
  186.3800  178.5670  147.1030 C   0  0  0  0  0  3  0  0  0  0  0  0
  187.5990  177.9410  146.8040 C   0  0  0  0  0  3  0  0  0  0  0  0
  189.0360  176.8210  144.9890 C   0  0  2  0  0  3  0  0  0  0  0  0
  187.2840  177.0760  143.2320 C   0  0  0  0  0  2  0  0  0  0  0  0
  186.8550  177.6320  144.5300 C   0  0  0  0  0  0  0  0  0  0  0  0
  188.5860  176.3410  143.5890 C   0  0  1  0  0  3  0  0  0  0  0  0
  187.8120  177.4800  145.5030 C   0  0  0  0  0  0  0  0  0  0  0  0
  185.6350  178.2530  144.8040 C   0  0  0  0  0  3  0  0  0  0  0  0
  185.4010  178.7230  146.1050 C   0  0  0  0  0  3  0  0  0  0  0  0
  190.0590  177.7700  144.8940 O   0  0  0  0  0  0  0  0  0  0  0  0
  191.1740  177.1560  145.4660 C   0  0  0  0  0  2  0  0  0  0  0  0
  190.9030  176.8520  146.7990 O   0  0  0  0  0  1  0  0  0  0  0  0
  189.4460  178.5000  138.2860 C   0  0  0  0  0  2  0  0  0  0  0  0
  188.7310  178.6560  136.9770 C   0  0  0  0  0  0  0  0  0  0  0  0
  187.9120  179.5510  136.8440 O   0  0  0  0  0  0  0  0  0  0  0  0
  189.0340  177.7370  135.8350 C   0  0  0  0  0  2  0  0  0  0  0  0
  188.2700  176.4250  135.9790 C   0  0  1  0  0  3  0  0  0  0  0  0
  185.9240  176.7790  135.5940 C   0  0  0  0  0  0  0  0  0  0  0  0
  184.8190  177.1290  136.0250 O   0  0  0  0  0  0  0  0  0  0  0  0
  187.0630  176.4180  135.1520 N   0  0  0  0  0  0  0  0  0  0  0  0
  189.1800  175.2480  135.6460 C   0  0  0  0  0  2  0  0  0  0  0  0
  190.0920  174.9080  136.8150 C   0  0  0  0  0  2  0  0  0  0  0  0
  191.5440  174.9150  136.3760 C   0  0  0  0  0  3  0  0  0  0  0  0
  192.2400  176.1160  136.9820 C   0  0  0  0  0  2  0  0  0  0  0  0
  192.4300  174.7450  137.5930 C   0  0  0  0  0  2  0  0  0  0  0  0
  1  6  1  0  0  0  0
  3  5  1  1  0  0  0
  4  3  1  0  0  0  0
  6  9  1  6  0  0  0
  6  3  1  0  0  0  0
  6 11  1  0  0  0  0
  7  2  1  6  0  0  0
  7  1  1  0  0  0  0
  7  4  1  0  0  0  0
  8  9  1  0  0  0  0
 11 10  2  0  0  0  0
 13 12  1  0  0  0  0
 14 21  1  6  0  0  0
 14 18  1  0  0  0  0
 15 17  1  0  0  0  0
 15 16  1  0  0  0  0
 16 19  2  0  0  0  0
 16 18  1  0  0  0  0
 17 11  1  6  0  0  0
 17 14  1  0  0  0  0
 18 13  2  0  0  0  0
 19 20  1  0  0  0  0
 20 12  2  0  0  0  0
 21 22  1  0  0  0  0
 22 23  1  0  0  0  0
 24  7  1  0  0  0  0
 25 24  1  0  0  0  0
 26 25  2  0  0  0  0
 27 28  1  0  0  0  0
 27 25  1  0  0  0  0
 28 32  1  6  0  0  0
 29 30  2  0  0  0  0
 31 29  2  0  0  0  0
 31 28  1  0  0  0  0
 32 33  1  0  0  0  0
 34 33  1  0  0  0  0
 34 35  1  0  0  0  0
 34 36  1  0  0  0  0
 35 36  1  0  0  0  0
M  END
>  <MODEL>
5

>  <REMARK>
 VINA RESULT:      -6.7      1.926      3.412
  Name = 
  13 active torsions:
  status: ('A' for Active; 'I' for Inactive)
    1  A    between atoms: C_4  and  C_7
    2  A    between atoms: C_4  and  C_18
    3  A    between atoms: C_7  and  C_24
    4  A    between atoms: O_9  and  C_11
    5  A    between atoms: O_9  and  C_21
    6  A    between atoms: C_14  and  C_16
    7  A    between atoms: C_14  and  C_27
    8  A    between atoms: C_16  and  C_35
    9  A    between atoms: C_17  and  C_32
   10  A    between atoms: O_23  and  C_33
   11  A    between atoms: C_24  and  C_27
   12  A    between atoms: C_24  and  N_36
   13  A    between atoms: C_32  and  C_33
                            x       y       z     vdW  Elec       q    Type
                         _______ _______ _______ _____ _____    ______ ____

>  <TORSDO>
F 13

$$$$
=
 OpenBabel11062417113D

 36 39  0  0  1  0  0  0  0  0999 V2000
  189.7000  176.4120  140.0720 C   0  0  0  0  0  2  0  0  0  0  0  0
  188.2990  176.0870  138.1720 O   0  0  0  0  0  1  0  0  0  0  0  0
  188.2920  178.1880  140.5560 C   0  0  2  0  0  3  0  0  0  0  0  0
  188.3480  178.1490  139.1530 O   0  0  0  0  0  0  0  0  0  0  0  0
  188.1850  179.5080  140.9970 O   0  0  0  0  0  1  0  0  0  0  0  0
  189.5180  177.4670  141.1240 C   0  0  2  0  0  0  0  0  0  0  0  0
  189.1180  177.0230  138.8080 C   0  0  1  0  0  0  0  0  0  0  0  0
  191.8420  177.4970  141.2540 C   0  0  0  0  0  1  0  0  0  0  0  0
  190.6820  178.2830  141.1200 O   0  0  0  0  0  0  0  0  0  0  0  0
  189.0200  175.5860  142.4970 O   0  0  0  0  0  0  0  0  0  0  0  0
  189.2430  176.7870  142.4660 C   0  0  0  0  0  0  0  0  0  0  0  0
  187.1670  178.1170  147.9860 C   0  0  0  0  0  3  0  0  0  0  0  0
  186.9220  178.3240  146.6210 C   0  0  0  0  0  3  0  0  0  0  0  0
  187.7810  177.9810  144.2210 C   0  0  2  0  0  3  0  0  0  0  0  0
  189.8800  176.8610  144.9710 C   0  0  0  0  0  2  0  0  0  0  0  0
  189.0200  177.2490  146.1060 C   0  0  0  0  0  0  0  0  0  0  0  0
  189.1970  177.5470  143.7760 C   0  0  1  0  0  3  0  0  0  0  0  0
  187.8700  177.8780  145.6970 C   0  0  0  0  0  0  0  0  0  0  0  0
  189.2830  177.0300  147.4590 C   0  0  0  0  0  3  0  0  0  0  0  0
  188.3440  177.4700  148.4040 C   0  0  0  0  0  3  0  0  0  0  0  0
  186.8090  177.0860  143.7600 O   0  0  0  0  0  0  0  0  0  0  0  0
  185.8600  177.8840  143.1190 C   0  0  0  0  0  2  0  0  0  0  0  0
  184.7760  178.0910  143.9710 O   0  0  0  0  0  1  0  0  0  0  0  0
  190.2400  177.4760  137.8680 C   0  0  0  0  0  2  0  0  0  0  0  0
  190.0390  177.0540  136.4430 C   0  0  0  0  0  0  0  0  0  0  0  0
  189.1160  177.5290  135.8020 O   0  0  0  0  0  0  0  0  0  0  0  0
  190.9750  176.0770  135.8040 C   0  0  0  0  0  2  0  0  0  0  0  0
  191.4890  175.0710  136.8290 C   0  0  1  0  0  3  0  0  0  0  0  0
  189.8440  173.3180  136.8290 C   0  0  0  0  0  0  0  0  0  0  0  0
  188.7060  172.9300  137.1200 O   0  0  0  0  0  0  0  0  0  0  0  0
  191.0160  173.7180  136.5300 N   0  0  0  0  0  0  0  0  0  0  0  0
  193.0110  175.1260  136.9010 C   0  0  0  0  0  2  0  0  0  0  0  0
  193.6040  173.7420  137.1170 C   0  0  0  0  0  2  0  0  0  0  0  0
  195.1120  173.8250  137.2500 C   0  0  0  0  0  3  0  0  0  0  0  0
  195.4770  173.9030  138.7190 C   0  0  0  0  0  2  0  0  0  0  0  0
  195.6140  172.5930  137.9750 C   0  0  0  0  0  2  0  0  0  0  0  0
  1  6  1  0  0  0  0
  3  5  1  6  0  0  0
  3  6  1  0  0  0  0
  4  3  1  0  0  0  0
  6  9  1  1  0  0  0
  6 11  1  0  0  0  0
  7  2  1  6  0  0  0
  7  4  1  0  0  0  0
  7  1  1  0  0  0  0
  9  8  1  0  0  0  0
 11 10  2  0  0  0  0
 12 20  1  0  0  0  0
 13 12  2  0  0  0  0
 14 21  1  6  0  0  0
 14 18  1  0  0  0  0
 15 16  1  0  0  0  0
 16 19  1  0  0  0  0
 17 11  1  6  0  0  0
 17 14  1  0  0  0  0
 17 15  1  0  0  0  0
 18 16  2  0  0  0  0
 18 13  1  0  0  0  0
 19 20  2  0  0  0  0
 22 21  1  0  0  0  0
 22 23  1  0  0  0  0
 24  7  1  0  0  0  0
 25 24  1  0  0  0  0
 26 25  2  0  0  0  0
 27 25  1  0  0  0  0
 28 27  1  6  0  0  0
 28 32  1  0  0  0  0
 29 30  2  0  0  0  0
 31 29  2  0  0  0  0
 31 28  1  0  0  0  0
 32 33  1  0  0  0  0
 33 34  1  0  0  0  0
 34 36  1  0  0  0  0
 34 35  1  0  0  0  0
 36 35  1  0  0  0  0
M  END
>  <MODEL>
6

>  <REMARK>
 VINA RESULT:      -6.7      2.832      5.193
  Name = 
  13 active torsions:
  status: ('A' for Active; 'I' for Inactive)
    1  A    between atoms: C_4  and  C_7
    2  A    between atoms: C_4  and  C_18
    3  A    between atoms: C_7  and  C_24
    4  A    between atoms: O_9  and  C_11
    5  A    between atoms: O_9  and  C_21
    6  A    between atoms: C_14  and  C_16
    7  A    between atoms: C_14  and  C_27
    8  A    between atoms: C_16  and  C_35
    9  A    between atoms: C_17  and  C_32
   10  A    between atoms: O_23  and  C_33
   11  A    between atoms: C_24  and  C_27
   12  A    between atoms: C_24  and  N_36
   13  A    between atoms: C_32  and  C_33
                            x       y       z     vdW  Elec       q    Type
                         _______ _______ _______ _____ _____    ______ ____

>  <TORSDO>
F 13

$$$$
=
 OpenBabel11062417113D

 36 39  0  0  1  0  0  0  0  0999 V2000
  188.3660  176.2280  137.9010 C   0  0  0  0  0  2  0  0  0  0  0  0
  190.5250  175.4890  138.5890 O   0  0  0  0  0  1  0  0  0  0  0  0
  189.4150  176.8010  135.9160 C   0  0  2  0  0  3  0  0  0  0  0  0
  190.3820  177.0290  136.9090 O   0  0  0  0  0  0  0  0  0  0  0  0
  189.5460  177.7400  134.8910 O   0  0  0  0  0  1  0  0  0  0  0  0
  188.0260  176.8110  136.5610 C   0  0  2  0  0  0  0  0  0  0  0  0
  189.8210  176.6040  138.1280 C   0  0  1  0  0  0  0  0  0  0  0  0
  186.5250  178.1260  137.7580 C   0  0  0  0  0  1  0  0  0  0  0  0
  187.5330  178.1270  136.7770 O   0  0  0  0  0  0  0  0  0  0  0  0
  186.4520  176.2780  134.8540 O   0  0  0  0  0  0  0  0  0  0  0  0
  187.0330  175.8860  135.8550 C   0  0  0  0  0  0  0  0  0  0  0  0
  183.5390  171.0260  136.7070 C   0  0  0  0  0  3  0  0  0  0  0  0
  183.8060  172.3110  137.2030 C   0  0  0  0  0  3  0  0  0  0  0  0
  185.3300  174.3780  137.0670 C   0  0  2  0  0  3  0  0  0  0  0  0
  186.8040  173.3650  135.3290 C   0  0  0  0  0  2  0  0  0  0  0  0
  185.7080  172.4590  135.7250 C   0  0  0  0  0  0  0  0  0  0  0  0
  186.7020  174.4970  136.3630 C   0  0  1  0  0  3  0  0  0  0  0  0
  184.9020  173.0090  136.6920 C   0  0  0  0  0  0  0  0  0  0  0  0
  185.4600  171.1840  135.2160 C   0  0  0  0  0  3  0  0  0  0  0  0
  184.3640  170.4640  135.7150 C   0  0  0  0  0  3  0  0  0  0  0  0
  184.4130  175.3000  136.5490 O   0  0  0  0  0  0  0  0  0  0  0  0
  183.7310  175.7930  137.6610 C   0  0  0  0  0  2  0  0  0  0  0  0
  182.3960  176.0130  137.3260 O   0  0  0  0  0  1  0  0  0  0  0  0
  189.9260  177.7550  139.1340 C   0  0  0  0  0  2  0  0  0  0  0  0
  190.1880  177.3030  140.5400 C   0  0  0  0  0  0  0  0  0  0  0  0
  191.3270  177.3300  140.9760 O   0  0  0  0  0  0  0  0  0  0  0  0
  189.0600  176.8440  141.4090 C   0  0  0  0  0  2  0  0  0  0  0  0
  188.4960  178.0050  142.2220 C   0  0  1  0  0  3  0  0  0  0  0  0
  186.2430  178.6600  141.6990 C   0  0  0  0  0  0  0  0  0  0  0  0
  185.0320  178.5730  141.9310 O   0  0  0  0  0  0  0  0  0  0  0  0
  187.4920  178.7490  141.4610 N   0  0  0  0  0  0  0  0  0  0  0  0
  187.9280  177.4940  143.5430 C   0  0  0  0  0  2  0  0  0  0  0  0
  189.0320  176.9810  144.4560 C   0  0  0  0  0  2  0  0  0  0  0  0
  189.1510  177.8580  145.6880 C   0  0  0  0  0  3  0  0  0  0  0  0
  187.9200  177.6730  146.5500 C   0  0  0  0  0  2  0  0  0  0  0  0
  189.2120  176.9770  146.9180 C   0  0  0  0  0  2  0  0  0  0  0  0
  1  7  1  0  0  0  0
  3  5  1  6  0  0  0
  3  6  1  0  0  0  0
  3  4  1  0  0  0  0
  4  7  1  0  0  0  0
  6 11  1  6  0  0  0
  6  9  1  0  0  0  0
  6  1  1  0  0  0  0
  7  2  1  1  0  0  0
  7 24  1  0  0  0  0
  9  8  1  0  0  0  0
 10 11  2  0  0  0  0
 12 13  1  0  0  0  0
 14 21  1  6  0  0  0
 15 16  1  0  0  0  0
 15 17  1  0  0  0  0
 16 18  1  0  0  0  0
 17 11  1  6  0  0  0
 17 14  1  0  0  0  0
 18 14  1  0  0  0  0
 18 13  2  0  0  0  0
 19 20  1  0  0  0  0
 19 16  2  0  0  0  0
 20 12  2  0  0  0  0
 21 22  1  0  0  0  0
 23 22  1  0  0  0  0
 24 25  1  0  0  0  0
 25 26  2  0  0  0  0
 25 27  1  0  0  0  0
 28 27  1  6  0  0  0
 28 32  1  0  0  0  0
 29 30  2  0  0  0  0
 31 29  2  0  0  0  0
 31 28  1  0  0  0  0
 32 33  1  0  0  0  0
 33 34  1  0  0  0  0
 34 35  1  0  0  0  0
 34 36  1  0  0  0  0
 35 36  1  0  0  0  0
M  END
>  <MODEL>
7

>  <REMARK>
 VINA RESULT:      -6.6      2.625      7.971
  Name = 
  13 active torsions:
  status: ('A' for Active; 'I' for Inactive)
    1  A    between atoms: C_4  and  C_7
    2  A    between atoms: C_4  and  C_18
    3  A    between atoms: C_7  and  C_24
    4  A    between atoms: O_9  and  C_11
    5  A    between atoms: O_9  and  C_21
    6  A    between atoms: C_14  and  C_16
    7  A    between atoms: C_14  and  C_27
    8  A    between atoms: C_16  and  C_35
    9  A    between atoms: C_17  and  C_32
   10  A    between atoms: O_23  and  C_33
   11  A    between atoms: C_24  and  C_27
   12  A    between atoms: C_24  and  N_36
   13  A    between atoms: C_32  and  C_33
                            x       y       z     vdW  Elec       q    Type
                         _______ _______ _______ _____ _____    ______ ____

>  <TORSDO>
F 13

$$$$
=
 OpenBabel11062417113D

 36 39  0  0  1  0  0  0  0  0999 V2000
  182.8030  177.2200  139.8160 C   0  0  0  0  0  2  0  0  0  0  0  0
  180.5170  176.8240  140.3590 O   0  0  0  0  0  1  0  0  0  0  0  0
  182.1500  179.4280  139.5540 C   0  0  2  0  0  3  0  0  0  0  0  0
  181.0420  178.6760  139.1300 O   0  0  0  0  0  0  0  0  0  0  0  0
  182.2560  180.5970  138.7980 O   0  0  0  0  0  1  0  0  0  0  0  0
  183.4050  178.5540  139.4800 C   0  0  2  0  0  0  0  0  0  0  0  0
  181.3570  177.3240  139.3610 C   0  0  1  0  0  0  0  0  0  0  0  0
  184.8560  177.4090  138.0650 C   0  0  0  0  0  1  0  0  0  0  0  0
  183.9330  178.4670  138.1630 O   0  0  0  0  0  0  0  0  0  0  0  0
  185.2950  179.7530  140.2930 O   0  0  0  0  0  0  0  0  0  0  0  0
  184.4460  178.9100  140.5420 C   0  0  0  0  0  0  0  0  0  0  0  0
  186.4900  177.9960  146.1580 C   0  0  0  0  0  3  0  0  0  0  0  0
  186.7610  177.7140  144.8110 C   0  0  0  0  0  3  0  0  0  0  0  0
  185.9240  177.8790  142.3840 C   0  0  2  0  0  3  0  0  0  0  0  0
  183.7770  178.9670  143.0390 C   0  0  0  0  0  2  0  0  0  0  0  0
  184.6340  178.6800  144.2060 C   0  0  0  0  0  0  0  0  0  0  0  0
  184.5000  178.2340  141.8970 C   0  0  1  0  0  3  0  0  0  0  0  0
  185.8110  178.0680  143.8500 C   0  0  0  0  0  0  0  0  0  0  0  0
  184.3440  178.9710  145.5400 C   0  0  0  0  0  3  0  0  0  0  0  0
  185.2850  178.6240  146.5210 C   0  0  0  0  0  3  0  0  0  0  0  0
  186.8710  178.7780  141.8810 O   0  0  0  0  0  0  0  0  0  0  0  0
  187.9220  177.9790  141.4300 C   0  0  0  0  0  2  0  0  0  0  0  0
  189.0630  178.2460  142.1840 O   0  0  0  0  0  1  0  0  0  0  0  0
  181.1510  176.5510  138.0540 C   0  0  0  0  0  2  0  0  0  0  0  0
  181.5110  175.0990  138.1490 C   0  0  0  0  0  0  0  0  0  0  0  0
  180.7750  174.3370  138.7550 O   0  0  0  0  0  0  0  0  0  0  0  0
  182.7520  174.5820  137.4910 C   0  0  0  0  0  2  0  0  0  0  0  0
  182.5430  173.1570  136.9880 C   0  0  1  0  0  3  0  0  0  0  0  0
  180.6810  172.5460  135.5970 C   0  0  0  0  0  0  0  0  0  0  0  0
  179.5950  171.9670  135.4710 O   0  0  0  0  0  0  0  0  0  0  0  0
  181.7990  173.1410  135.7270 N   0  0  0  0  0  0  0  0  0  0  0  0
  183.8860  172.4470  136.8510 C   0  0  0  0  0  2  0  0  0  0  0  0
  184.9070  173.0070  137.8300 C   0  0  0  0  0  2  0  0  0  0  0  0
  186.2940  172.9940  137.2140 C   0  0  0  0  0  3  0  0  0  0  0  0
  186.2630  173.7590  135.9070 C   0  0  0  0  0  2  0  0  0  0  0  0
  186.8200  174.4140  137.1520 C   0  0  0  0  0  2  0  0  0  0  0  0
  3  5  1  6  0  0  0
  4  7  1  0  0  0  0
  4  3  1  0  0  0  0
  6  9  1  6  0  0  0
  6  3  1  0  0  0  0
  6  1  1  0  0  0  0
  6 11  1  0  0  0  0
  7  1  1  0  0  0  0
  7  2  1  1  0  0  0
  8  9  1  0  0  0  0
 10 11  2  0  0  0  0
 12 20  1  0  0  0  0
 13 12  2  0  0  0  0
 14 21  1  6  0  0  0
 14 18  1  0  0  0  0
 15 16  1  0  0  0  0
 16 19  1  0  0  0  0
 17 11  1  6  0  0  0
 17 14  1  0  0  0  0
 17 15  1  0  0  0  0
 18 16  2  0  0  0  0
 18 13  1  0  0  0  0
 19 20  2  0  0  0  0
 22 21  1  0  0  0  0
 22 23  1  0  0  0  0
 24 25  1  0  0  0  0
 24  7  1  0  0  0  0
 25 26  2  0  0  0  0
 27 25  1  0  0  0  0
 28 32  1  6  0  0  0
 28 27  1  0  0  0  0
 29 31  2  0  0  0  0
 30 29  2  0  0  0  0
 31 28  1  0  0  0  0
 32 33  1  0  0  0  0
 34 33  1  0  0  0  0
 35 36  1  0  0  0  0
 35 34  1  0  0  0  0
 36 34  1  0  0  0  0
M  END
>  <MODEL>
8

>  <REMARK>
 VINA RESULT:      -6.6      3.105      6.305
  Name = 
  13 active torsions:
  status: ('A' for Active; 'I' for Inactive)
    1  A    between atoms: C_4  and  C_7
    2  A    between atoms: C_4  and  C_18
    3  A    between atoms: C_7  and  C_24
    4  A    between atoms: O_9  and  C_11
    5  A    between atoms: O_9  and  C_21
    6  A    between atoms: C_14  and  C_16
    7  A    between atoms: C_14  and  C_27
    8  A    between atoms: C_16  and  C_35
    9  A    between atoms: C_17  and  C_32
   10  A    between atoms: O_23  and  C_33
   11  A    between atoms: C_24  and  C_27
   12  A    between atoms: C_24  and  N_36
   13  A    between atoms: C_32  and  C_33
                            x       y       z     vdW  Elec       q    Type
                         _______ _______ _______ _____ _____    ______ ____

>  <TORSDO>
F 13

$$$$
=
 OpenBabel11062417113D

 36 39  0  0  1  0  0  0  0  0999 V2000
  183.4060  177.5260  140.9430 C   0  0  0  0  0  2  0  0  0  0  0  0
  185.4030  177.6020  142.2400 O   0  0  0  0  0  1  0  0  0  0  0  0
  184.3640  179.2530  139.7310 C   0  0  2  0  0  3  0  0  0  0  0  0
  184.8020  179.4580  141.0500 O   0  0  0  0  0  0  0  0  0  0  0  0
  184.1730  180.4800  139.0920 O   0  0  0  0  0  1  0  0  0  0  0  0
  183.1010  178.3890  139.7530 C   0  0  2  0  0  0  0  0  0  0  0  0
  184.3210  178.3750  141.8100 C   0  0  1  0  0  0  0  0  0  0  0  0
  180.9660  178.3270  140.6780 C   0  0  0  0  0  1  0  0  0  0  0  0
  181.9310  179.1390  140.0540 O   0  0  0  0  0  0  0  0  0  0  0  0
  182.8430  178.0140  137.4150 O   0  0  0  0  0  0  0  0  0  0  0  0
  182.9640  177.4990  138.5170 C   0  0  0  0  0  0  0  0  0  0  0  0
  181.6770  171.9140  136.5920 C   0  0  0  0  0  3  0  0  0  0  0  0
  181.1220  173.0290  137.2360 C   0  0  0  0  0  3  0  0  0  0  0  0
  181.5670  175.3490  138.2540 C   0  0  2  0  0  3  0  0  0  0  0  0
  184.0140  175.2530  137.7820 C   0  0  0  0  0  2  0  0  0  0  0  0
  183.3110  174.0390  137.3230 C   0  0  0  0  0  0  0  0  0  0  0  0
  182.9340  175.9860  138.5940 C   0  0  1  0  0  3  0  0  0  0  0  0
  181.9650  174.0830  137.5930 C   0  0  0  0  0  0  0  0  0  0  0  0
  183.8850  172.9410  136.6800 C   0  0  0  0  0  3  0  0  0  0  0  0
  183.0550  171.8710  136.3130 C   0  0  0  0  0  3  0  0  0  0  0  0
  180.8560  176.1350  137.3400 O   0  0  0  0  0  0  0  0  0  0  0  0
  179.6670  176.4610  137.9940 C   0  0  0  0  0  2  0  0  0  0  0  0
  179.3820  175.4880  138.9490 O   0  0  0  0  0  1  0  0  0  0  0  0
  183.5530  178.9330  143.0120 C   0  0  0  0  0  2  0  0  0  0  0  0
  184.4380  179.4170  144.1210 C   0  0  0  0  0  0  0  0  0  0  0  0
  184.9960  180.4970  144.0160 O   0  0  0  0  0  0  0  0  0  0  0  0
  184.6210  178.5930  145.3570 C   0  0  0  0  0  2  0  0  0  0  0  0
  186.0740  178.6270  145.8200 C   0  0  1  0  0  3  0  0  0  0  0  0
  187.0620  178.4160  148.0000 C   0  0  0  0  0  0  0  0  0  0  0  0
  187.9290  177.9170  148.7290 O   0  0  0  0  0  0  0  0  0  0  0  0
  186.1710  178.9280  147.2490 N   0  0  0  0  0  0  0  0  0  0  0  0
  186.7640  177.3100  145.4800 C   0  0  0  0  0  2  0  0  0  0  0  0
  187.9180  177.5260  144.5120 C   0  0  0  0  0  2  0  0  0  0  0  0
  189.2050  177.7870  145.2710 C   0  0  0  0  0  3  0  0  0  0  0  0
  190.3210  176.9730  144.6490 C   0  0  0  0  0  2  0  0  0  0  0  0
  190.2010  178.4490  144.3410 C   0  0  0  0  0  2  0  0  0  0  0  0
  1  7  1  0  0  0  0
  3  5  1  1  0  0  0
  3  6  1  0  0  0  0
  3  4  1  0  0  0  0
  4  7  1  0  0  0  0
  6 11  1  6  0  0  0
  6  9  1  0  0  0  0
  6  1  1  0  0  0  0
  7  2  1  1  0  0  0
  7 24  1  0  0  0  0
  9  8  1  0  0  0  0
 10 11  2  0  0  0  0
 12 13  1  0  0  0  0
 13 18  2  0  0  0  0
 14 21  1  6  0  0  0
 14 17  1  0  0  0  0
 15 17  1  0  0  0  0
 16 18  1  0  0  0  0
 16 15  1  0  0  0  0
 17 11  1  6  0  0  0
 18 14  1  0  0  0  0
 19 16  2  0  0  0  0
 20 12  2  0  0  0  0
 20 19  1  0  0  0  0
 21 22  1  0  0  0  0
 22 23  1  0  0  0  0
 24 25  1  0  0  0  0
 25 27  1  0  0  0  0
 26 25  2  0  0  0  0
 28 27  1  1  0  0  0
 28 31  1  0  0  0  0
 29 30  2  0  0  0  0
 31 29  2  0  0  0  0
 32 28  1  0  0  0  0
 33 34  1  0  0  0  0
 33 32  1  0  0  0  0
 35 34  1  0  0  0  0
 36 35  1  0  0  0  0
 36 34  1  0  0  0  0
M  END
>  <MODEL>
9

>  <REMARK>
 VINA RESULT:      -6.6      4.116      9.446
  Name = 
  13 active torsions:
  status: ('A' for Active; 'I' for Inactive)
    1  A    between atoms: C_4  and  C_7
    2  A    between atoms: C_4  and  C_18
    3  A    between atoms: C_7  and  C_24
    4  A    between atoms: O_9  and  C_11
    5  A    between atoms: O_9  and  C_21
    6  A    between atoms: C_14  and  C_16
    7  A    between atoms: C_14  and  C_27
    8  A    between atoms: C_16  and  C_35
    9  A    between atoms: C_17  and  C_32
   10  A    between atoms: O_23  and  C_33
   11  A    between atoms: C_24  and  C_27
   12  A    between atoms: C_24  and  N_36
   13  A    between atoms: C_32  and  C_33
                            x       y       z     vdW  Elec       q    Type
                         _______ _______ _______ _____ _____    ______ ____

>  <TORSDO>
F 13

$$$$
