=
 OpenBabel11062413543D

 25 27  0  0  1  0  0  0  0  0999 V2000
  188.6660  178.1490  141.7010 C   0  0  1  0  0  3  0  0  0  0  0  0
  185.8230  177.9230  144.2290 C   0  0  0  0  0  3  0  0  0  0  0  0
  184.8010  178.5860  143.5410 C   0  0  0  0  0  0  0  0  0  0  0  0
  186.2940  178.9440  141.6680 C   0  0  0  0  0  3  0  0  0  0  0  0
  185.0360  179.0910  142.2590 C   0  0  0  0  0  3  0  0  0  0  0  0
  187.3210  178.2840  142.3530 C   0  0  0  0  0  0  0  0  0  0  0  0
  187.0810  177.7740  143.6380 C   0  0  0  0  0  3  0  0  0  0  0  0
  183.5850  179.1120  145.4930 O   0  0  0  0  0  1  0  0  0  0  0  0
  183.4550  178.7230  144.1600 C   0  0  0  0  0  2  0  0  0  0  0  0
  189.6990  177.6630  142.6730 C   0  0  0  0  0  0  0  0  0  0  0  0
  190.0580  176.3500  142.6570 N   0  0  0  0  0  0  0  0  0  0  0  0
  191.0030  175.8580  143.5030 C   0  0  0  0  0  3  0  0  0  0  0  0
  190.3190  178.5430  143.5700 C   0  0  0  0  0  3  0  0  0  0  0  0
  191.6370  176.7030  144.4160 C   0  0  0  0  0  3  0  0  0  0  0  0
  191.2910  178.0550  144.4450 C   0  0  0  0  0  3  0  0  0  0  0  0
  188.6060  177.2810  140.5310 N   0  0  0  0  0  2  0  0  0  0  0  0
  188.7170  177.7700  139.1900 C   0  0  0  0  0  0  0  0  0  0  0  0
  188.9440  178.9910  138.9860 O   0  0  0  0  0  0  0  0  0  0  0  0
  188.6080  176.9100  138.0870 O   0  0  0  0  0  0  0  0  0  0  0  0
  191.3850  173.9210  137.0420 C   0  0  0  0  0  3  0  0  0  0  0  0
  190.0350  173.7360  136.7350 C   0  0  0  0  0  3  0  0  0  0  0  0
  190.8610  176.0690  138.0310 C   0  0  0  0  0  3  0  0  0  0  0  0
  191.7980  175.0880  137.6900 C   0  0  0  0  0  3  0  0  0  0  0  0
  189.5050  175.8920  137.7320 C   0  0  0  0  0  0  0  0  0  0  0  0
  189.0990  174.7170  137.0770 C   0  0  0  0  0  3  0  0  0  0  0  0
  1 16  1  6  0  0  0
  1  6  1  0  0  0  0
  1 10  1  0  0  0  0
  3  9  1  0  0  0  0
  3  2  2  0  0  0  0
  4  5  2  0  0  0  0
  4  6  1  0  0  0  0
  5  3  1  0  0  0  0
  6  7  2  0  0  0  0
  7  2  1  0  0  0  0
  9  8  1  0  0  0  0
 10 13  1  0  0  0  0
 11 10  2  0  0  0  0
 11 12  1  0  0  0  0
 12 14  2  0  0  0  0
 13 15  2  0  0  0  0
 14 15  1  0  0  0  0
 17 16  1  0  0  0  0
 18 17  2  0  0  0  0
 19 17  1  0  0  0  0
 20 23  1  0  0  0  0
 21 20  2  0  0  0  0
 21 25  1  0  0  0  0
 23 22  2  0  0  0  0
 24 22  1  0  0  0  0
 24 19  1  0  0  0  0
 25 24  2  0  0  0  0
M  END
>  <MODEL>
1

>  <REMARK>
 VINA RESULT:      -7.7      0.000      0.000
  Name = 
  6 active torsions:
  status: ('A' for Active; 'I' for Inactive)
    1  A    between atoms: C_2  and  C_4
    2  A    between atoms: C_2  and  N_9
    3  A    between atoms: C_2  and  C_13
    4  A    between atoms: C_5  and  C_25
    5  A    between atoms: O_18  and  C_19
    6  A    between atoms: O_18  and  C_21
                            x       y       z     vdW  Elec       q    Type
                         _______ _______ _______ _____ _____    ______ ____

>  <TORSDO>
F 6

$$$$
=
 OpenBabel11062413543D

 25 27  0  0  1  0  0  0  0  0999 V2000
  189.8810  177.4330  144.4640 C   0  0  1  0  0  3  0  0  0  0  0  0
  187.0210  178.0510  146.9040 C   0  0  0  0  0  3  0  0  0  0  0  0
  185.9290  178.0930  146.0310 C   0  0  0  0  0  0  0  0  0  0  0  0
  187.4120  177.6920  144.1580 C   0  0  0  0  0  3  0  0  0  0  0  0
  186.1250  177.9080  144.6590 C   0  0  0  0  0  3  0  0  0  0  0  0
  188.5090  177.6530  145.0270 C   0  0  0  0  0  0  0  0  0  0  0  0
  188.3080  177.8350  146.4040 C   0  0  0  0  0  3  0  0  0  0  0  0
  183.8230  179.0970  145.6860 O   0  0  0  0  0  1  0  0  0  0  0  0
  184.5560  178.2980  146.5650 C   0  0  0  0  0  2  0  0  0  0  0  0
  190.7710  176.7340  145.4460 C   0  0  0  0  0  0  0  0  0  0  0  0
  191.5540  175.7060  145.0180 N   0  0  0  0  0  0  0  0  0  0  0  0
  192.3940  175.0480  145.8620 C   0  0  0  0  0  3  0  0  0  0  0  0
  190.8330  177.1430  146.7850 C   0  0  0  0  0  3  0  0  0  0  0  0
  192.4760  175.4230  147.2040 C   0  0  0  0  0  3  0  0  0  0  0  0
  191.6890  176.4800  147.6650 C   0  0  0  0  0  3  0  0  0  0  0  0
  189.8280  176.7020  143.2020 N   0  0  0  0  0  2  0  0  0  0  0  0
  190.6700  177.0090  142.0860 C   0  0  0  0  0  0  0  0  0  0  0  0
  191.5510  177.9020  142.1940 O   0  0  0  0  0  0  0  0  0  0  0  0
  190.5580  176.3150  140.8730 O   0  0  0  0  0  0  0  0  0  0  0  0
  189.5060  177.8820  137.1070 C   0  0  0  0  0  3  0  0  0  0  0  0
  189.0230  178.5010  138.2630 C   0  0  0  0  0  3  0  0  0  0  0  0
  190.6640  176.2490  138.4700 C   0  0  0  0  0  3  0  0  0  0  0  0
  190.3280  176.7570  137.2110 C   0  0  0  0  0  3  0  0  0  0  0  0
  190.1820  176.8580  139.6340 C   0  0  0  0  0  0  0  0  0  0  0  0
  189.3600  177.9910  139.5210 C   0  0  0  0  0  3  0  0  0  0  0  0
  1 16  1  6  0  0  0
  1  6  1  0  0  0  0
  1 10  1  0  0  0  0
  3  9  1  0  0  0  0
  3  2  2  0  0  0  0
  4  5  2  0  0  0  0
  4  6  1  0  0  0  0
  5  3  1  0  0  0  0
  6  7  2  0  0  0  0
  7  2  1  0  0  0  0
  8  9  1  0  0  0  0
 10 13  1  0  0  0  0
 11 10  2  0  0  0  0
 11 12  1  0  0  0  0
 12 14  2  0  0  0  0
 13 15  2  0  0  0  0
 14 15  1  0  0  0  0
 17 18  2  0  0  0  0
 17 16  1  0  0  0  0
 19 17  1  0  0  0  0
 20 23  2  0  0  0  0
 20 21  1  0  0  0  0
 21 25  2  0  0  0  0
 22 24  2  0  0  0  0
 23 22  1  0  0  0  0
 24 19  1  0  0  0  0
 25 24  1  0  0  0  0
M  END
>  <MODEL>
2

>  <REMARK>
 VINA RESULT:      -7.5      2.204      3.193
  Name = 
  6 active torsions:
  status: ('A' for Active; 'I' for Inactive)
    1  A    between atoms: C_2  and  C_4
    2  A    between atoms: C_2  and  N_9
    3  A    between atoms: C_2  and  C_13
    4  A    between atoms: C_5  and  C_25
    5  A    between atoms: O_18  and  C_19
    6  A    between atoms: O_18  and  C_21
                            x       y       z     vdW  Elec       q    Type
                         _______ _______ _______ _____ _____    ______ ____

>  <TORSDO>
F 6

$$$$
=
 OpenBabel11062413543D

 25 27  0  0  1  0  0  0  0  0999 V2000
  188.6660  178.1530  141.7470 C   0  0  1  0  0  3  0  0  0  0  0  0
  185.8630  177.9370  144.3200 C   0  0  0  0  0  3  0  0  0  0  0  0
  184.8310  178.5980  143.6460 C   0  0  0  0  0  0  0  0  0  0  0  0
  186.2940  178.9480  141.7480 C   0  0  0  0  0  3  0  0  0  0  0  0
  185.0460  179.0990  142.3580 C   0  0  0  0  0  3  0  0  0  0  0  0
  187.3320  178.2900  142.4190 C   0  0  0  0  0  0  0  0  0  0  0  0
  187.1120  177.7860  143.7100 C   0  0  0  0  0  3  0  0  0  0  0  0
  183.6470  179.0830  145.6280 O   0  0  0  0  0  1  0  0  0  0  0  0
  183.4950  178.7380  144.2850 C   0  0  0  0  0  2  0  0  0  0  0  0
  189.6990  177.6100  142.6870 C   0  0  0  0  0  0  0  0  0  0  0  0
  189.9980  176.2830  142.6500 N   0  0  0  0  0  0  0  0  0  0  0  0
  190.9400  175.7380  143.4670 C   0  0  0  0  0  3  0  0  0  0  0  0
  190.3810  178.4500  143.5770 C   0  0  0  0  0  3  0  0  0  0  0  0
  191.6340  176.5440  144.3710 C   0  0  0  0  0  3  0  0  0  0  0  0
  191.3510  177.9100  144.4230 C   0  0  0  0  0  3  0  0  0  0  0  0
  188.5750  177.3310  140.5460 N   0  0  0  0  0  2  0  0  0  0  0  0
  188.7160  177.8620  139.2240 C   0  0  0  0  0  0  0  0  0  0  0  0
  188.9980  179.0790  139.0650 O   0  0  0  0  0  0  0  0  0  0  0  0
  188.5760  177.0480  138.0900 O   0  0  0  0  0  0  0  0  0  0  0  0
  184.9090  175.9280  136.3490 C   0  0  0  0  0  3  0  0  0  0  0  0
  185.9080  174.9660  136.5120 C   0  0  0  0  0  3  0  0  0  0  0  0
  186.3580  177.5980  137.3360 C   0  0  0  0  0  3  0  0  0  0  0  0
  185.1330  177.2440  136.7610 C   0  0  0  0  0  3  0  0  0  0  0  0
  187.3690  176.6430  137.5000 C   0  0  0  0  0  0  0  0  0  0  0  0
  187.1330  175.3220  137.0850 C   0  0  0  0  0  3  0  0  0  0  0  0
  1 16  1  6  0  0  0
  1  6  1  0  0  0  0
  1 10  1  0  0  0  0
  3  9  1  0  0  0  0
  3  2  2  0  0  0  0
  4  5  2  0  0  0  0
  4  6  1  0  0  0  0
  5  3  1  0  0  0  0
  6  7  2  0  0  0  0
  7  2  1  0  0  0  0
  9  8  1  0  0  0  0
 10 13  1  0  0  0  0
 11 10  2  0  0  0  0
 11 12  1  0  0  0  0
 12 14  2  0  0  0  0
 13 15  2  0  0  0  0
 14 15  1  0  0  0  0
 17 16  1  0  0  0  0
 18 17  2  0  0  0  0
 19 17  1  0  0  0  0
 20 21  2  0  0  0  0
 20 23  1  0  0  0  0
 21 25  1  0  0  0  0
 22 24  1  0  0  0  0
 23 22  2  0  0  0  0
 24 19  1  0  0  0  0
 25 24  2  0  0  0  0
M  END
>  <MODEL>
3

>  <REMARK>
 VINA RESULT:      -7.5      1.668      2.431
  Name = 
  6 active torsions:
  status: ('A' for Active; 'I' for Inactive)
    1  A    between atoms: C_2  and  C_4
    2  A    between atoms: C_2  and  N_9
    3  A    between atoms: C_2  and  C_13
    4  A    between atoms: C_5  and  C_25
    5  A    between atoms: O_18  and  C_19
    6  A    between atoms: O_18  and  C_21
                            x       y       z     vdW  Elec       q    Type
                         _______ _______ _______ _____ _____    ______ ____

>  <TORSDO>
F 6

$$$$
=
 OpenBabel11062413543D

 25 27  0  0  1  0  0  0  0  0999 V2000
  188.0430  178.4280  141.8530 C   0  0  1  0  0  3  0  0  0  0  0  0
  190.6660  178.1080  144.6000 C   0  0  0  0  0  3  0  0  0  0  0  0
  189.9630  177.3670  145.5550 C   0  0  0  0  0  0  0  0  0  0  0  0
  188.0330  177.3120  144.0930 C   0  0  0  0  0  3  0  0  0  0  0  0
  188.6480  176.9650  145.2990 C   0  0  0  0  0  3  0  0  0  0  0  0
  188.7310  178.0570  143.1350 C   0  0  0  0  0  0  0  0  0  0  0  0
  190.0510  178.4560  143.3940 C   0  0  0  0  0  3  0  0  0  0  0  0
  192.0020  176.8720  146.6330 O   0  0  0  0  0  1  0  0  0  0  0  0
  190.6250  176.9770  146.8290 C   0  0  0  0  0  2  0  0  0  0  0  0
  188.8480  178.0100  140.6600 C   0  0  0  0  0  0  0  0  0  0  0  0
  188.7100  178.6980  139.4930 N   0  0  0  0  0  0  0  0  0  0  0  0
  189.4270  178.3750  138.3840 C   0  0  0  0  0  3  0  0  0  0  0  0
  189.7580  176.9470  140.7360 C   0  0  0  0  0  3  0  0  0  0  0  0
  190.3380  177.3170  138.4210 C   0  0  0  0  0  3  0  0  0  0  0  0
  190.5030  176.6020  139.6080 C   0  0  0  0  0  3  0  0  0  0  0  0
  186.6960  177.8700  141.7920 N   0  0  0  0  0  2  0  0  0  0  0  0
  185.5690  178.6080  141.3100 C   0  0  0  0  0  0  0  0  0  0  0  0
  185.7300  179.7700  140.8510 O   0  0  0  0  0  0  0  0  0  0  0  0
  184.2800  178.0560  141.3090 O   0  0  0  0  0  0  0  0  0  0  0  0
  181.1370  179.1540  143.8880 C   0  0  0  0  0  3  0  0  0  0  0  0
  180.8780  179.0030  142.5240 C   0  0  0  0  0  3  0  0  0  0  0  0
  183.4580  178.5800  143.5090 C   0  0  0  0  0  3  0  0  0  0  0  0
  182.4270  178.9420  144.3810 C   0  0  0  0  0  3  0  0  0  0  0  0
  183.2120  178.4300  142.1390 C   0  0  0  0  0  0  0  0  0  0  0  0
  181.9110  178.6410  141.6530 C   0  0  0  0  0  3  0  0  0  0  0  0
  1 16  1  6  0  0  0
  1  6  1  0  0  0  0
  2  3  1  0  0  0  0
  3  9  1  0  0  0  0
  4  5  1  0  0  0  0
  5  3  2  0  0  0  0
  6  7  1  0  0  0  0
  6  4  2  0  0  0  0
  7  2  2  0  0  0  0
  8  9  1  0  0  0  0
 10 13  1  0  0  0  0
 10  1  1  0  0  0  0
 11 10  2  0  0  0  0
 12 14  2  0  0  0  0
 12 11  1  0  0  0  0
 14 15  1  0  0  0  0
 15 13  2  0  0  0  0
 17 16  1  0  0  0  0
 18 17  2  0  0  0  0
 19 17  1  0  0  0  0
 19 24  1  0  0  0  0
 20 23  1  0  0  0  0
 21 20  2  0  0  0  0
 22 23  2  0  0  0  0
 24 22  1  0  0  0  0
 25 24  2  0  0  0  0
 25 21  1  0  0  0  0
M  END
>  <MODEL>
4

>  <REMARK>
 VINA RESULT:      -7.5      2.649      6.811
  Name = 
  6 active torsions:
  status: ('A' for Active; 'I' for Inactive)
    1  A    between atoms: C_2  and  C_4
    2  A    between atoms: C_2  and  N_9
    3  A    between atoms: C_2  and  C_13
    4  A    between atoms: C_5  and  C_25
    5  A    between atoms: O_18  and  C_19
    6  A    between atoms: O_18  and  C_21
                            x       y       z     vdW  Elec       q    Type
                         _______ _______ _______ _____ _____    ______ ____

>  <TORSDO>
F 6

$$$$
=
 OpenBabel11062413543D

 25 27  0  0  1  0  0  0  0  0999 V2000
  189.8100  177.7380  142.2950 C   0  0  1  0  0  3  0  0  0  0  0  0
  191.8510  175.6150  144.7130 C   0  0  0  0  0  3  0  0  0  0  0  0
  191.5070  176.1980  145.9360 C   0  0  0  0  0  0  0  0  0  0  0  0
  190.0580  177.7600  144.7840 C   0  0  0  0  0  3  0  0  0  0  0  0
  190.6060  177.2670  145.9720 C   0  0  0  0  0  3  0  0  0  0  0  0
  190.4020  177.1820  143.5560 C   0  0  0  0  0  0  0  0  0  0  0  0
  191.3030  176.1070  143.5250 C   0  0  0  0  0  3  0  0  0  0  0  0
  192.4150  176.7110  148.0520 O   0  0  0  0  0  1  0  0  0  0  0  0
  192.0700  175.6580  147.2030 C   0  0  0  0  0  2  0  0  0  0  0  0
  190.5560  177.2650  141.0840 C   0  0  0  0  0  0  0  0  0  0  0  0
  189.8870  176.5720  140.1220 N   0  0  0  0  0  0  0  0  0  0  0  0
  190.5090  176.1340  138.9940 C   0  0  0  0  0  3  0  0  0  0  0  0
  191.9170  177.5510  140.9150 C   0  0  0  0  0  3  0  0  0  0  0  0
  191.8670  176.3940  138.7960 C   0  0  0  0  0  3  0  0  0  0  0  0
  192.5720  177.1100  139.7650 C   0  0  0  0  0  3  0  0  0  0  0  0
  188.3900  177.4180  142.1870 N   0  0  0  0  0  2  0  0  0  0  0  0
  187.4010  178.3800  141.8080 C   0  0  0  0  0  0  0  0  0  0  0  0
  187.7520  179.5450  141.4840 O   0  0  0  0  0  0  0  0  0  0  0  0
  186.0390  178.0480  141.7610 O   0  0  0  0  0  0  0  0  0  0  0  0
  183.0680  179.0110  144.5860 C   0  0  0  0  0  3  0  0  0  0  0  0
  184.3680  178.7530  145.0250 C   0  0  0  0  0  3  0  0  0  0  0  0
  183.7650  178.6230  142.3000 C   0  0  0  0  0  3  0  0  0  0  0  0
  182.7660  178.9470  143.2230 C   0  0  0  0  0  3  0  0  0  0  0  0
  185.0710  178.3580  142.7290 C   0  0  0  0  0  0  0  0  0  0  0  0
  185.3660  178.4290  144.1000 C   0  0  0  0  0  3  0  0  0  0  0  0
  1 16  1  6  0  0  0
  1  6  1  0  0  0  0
  2  3  1  0  0  0  0
  3  5  2  0  0  0  0
  3  9  1  0  0  0  0
  4  5  1  0  0  0  0
  6  4  2  0  0  0  0
  7  6  1  0  0  0  0
  7  2  2  0  0  0  0
  9  8  1  0  0  0  0
 10  1  1  0  0  0  0
 11 10  2  0  0  0  0
 12 11  1  0  0  0  0
 13 10  1  0  0  0  0
 14 12  2  0  0  0  0
 14 15  1  0  0  0  0
 15 13  2  0  0  0  0
 17 16  1  0  0  0  0
 18 17  2  0  0  0  0
 19 17  1  0  0  0  0
 19 24  1  0  0  0  0
 20 21  1  0  0  0  0
 22 24  2  0  0  0  0
 22 23  1  0  0  0  0
 23 20  2  0  0  0  0
 24 25  1  0  0  0  0
 25 21  2  0  0  0  0
M  END
>  <MODEL>
5

>  <REMARK>
 VINA RESULT:      -7.4      2.595      6.740
  Name = 
  6 active torsions:
  status: ('A' for Active; 'I' for Inactive)
    1  A    between atoms: C_2  and  C_4
    2  A    between atoms: C_2  and  N_9
    3  A    between atoms: C_2  and  C_13
    4  A    between atoms: C_5  and  C_25
    5  A    between atoms: O_18  and  C_19
    6  A    between atoms: O_18  and  C_21
                            x       y       z     vdW  Elec       q    Type
                         _______ _______ _______ _____ _____    ______ ____

>  <TORSDO>
F 6

$$$$
=
 OpenBabel11062413543D

 25 27  0  0  1  0  0  0  0  0999 V2000
  186.0430  178.9450  141.3660 C   0  0  1  0  0  3  0  0  0  0  0  0
  188.1440  177.7670  138.4120 C   0  0  0  0  0  3  0  0  0  0  0  0
  189.3320  177.4070  139.0560 C   0  0  0  0  0  0  0  0  0  0  0  0
  188.3670  178.0350  141.1880 C   0  0  0  0  0  3  0  0  0  0  0  0
  189.4410  177.5360  140.4440 C   0  0  0  0  0  3  0  0  0  0  0  0
  187.1770  178.4000  140.5470 C   0  0  0  0  0  0  0  0  0  0  0  0
  187.0700  178.2660  139.1540 C   0  0  0  0  0  3  0  0  0  0  0  0
  191.6040  176.7720  139.0750 O   0  0  0  0  0  1  0  0  0  0  0  0
  190.4670  176.8530  138.2700 C   0  0  0  0  0  2  0  0  0  0  0  0
  184.7430  178.8610  140.6250 C   0  0  0  0  0  0  0  0  0  0  0  0
  184.4690  179.7810  139.6600 N   0  0  0  0  0  0  0  0  0  0  0  0
  183.3130  179.7430  138.9430 C   0  0  0  0  0  3  0  0  0  0  0  0
  183.8250  177.8360  140.8880 C   0  0  0  0  0  3  0  0  0  0  0  0
  182.3720  178.7400  139.1840 C   0  0  0  0  0  3  0  0  0  0  0  0
  182.6340  177.7810  140.1630 C   0  0  0  0  0  3  0  0  0  0  0  0
  185.9480  178.2730  142.6570 N   0  0  0  0  0  2  0  0  0  0  0  0
  185.4430  178.9120  143.8340 C   0  0  0  0  0  0  0  0  0  0  0  0
  184.9920  180.0860  143.7640 O   0  0  0  0  0  0  0  0  0  0  0  0
  185.4100  178.2490  145.0690 O   0  0  0  0  0  0  0  0  0  0  0  0
  188.7000  177.6350  147.6260 C   0  0  0  0  0  3  0  0  0  0  0  0
  187.5460  178.2390  148.1320 C   0  0  0  0  0  3  0  0  0  0  0  0
  187.6500  177.4580  145.4510 C   0  0  0  0  0  3  0  0  0  0  0  0
  188.7520  177.2440  146.2860 C   0  0  0  0  0  3  0  0  0  0  0  0
  186.4910  178.0670  145.9460 C   0  0  0  0  0  0  0  0  0  0  0  0
  186.4460  178.4530  147.2960 C   0  0  0  0  0  3  0  0  0  0  0  0
  1 16  1  1  0  0  0
  2  3  2  0  0  0  0
  2  7  1  0  0  0  0
  3  5  1  0  0  0  0
  5  4  2  0  0  0  0
  6  4  1  0  0  0  0
  6  1  1  0  0  0  0
  7  6  2  0  0  0  0
  9  3  1  0  0  0  0
  9  8  1  0  0  0  0
 10 13  1  0  0  0  0
 10  1  1  0  0  0  0
 11 10  2  0  0  0  0
 12 14  2  0  0  0  0
 12 11  1  0  0  0  0
 14 15  1  0  0  0  0
 15 13  2  0  0  0  0
 16 17  1  0  0  0  0
 17 19  1  0  0  0  0
 18 17  2  0  0  0  0
 19 24  1  0  0  0  0
 20 21  1  0  0  0  0
 22 24  2  0  0  0  0
 22 23  1  0  0  0  0
 23 20  2  0  0  0  0
 24 25  1  0  0  0  0
 25 21  2  0  0  0  0
M  END
>  <MODEL>
6

>  <REMARK>
 VINA RESULT:      -7.3      2.690      7.942
  Name = 
  6 active torsions:
  status: ('A' for Active; 'I' for Inactive)
    1  A    between atoms: C_2  and  C_4
    2  A    between atoms: C_2  and  N_9
    3  A    between atoms: C_2  and  C_13
    4  A    between atoms: C_5  and  C_25
    5  A    between atoms: O_18  and  C_19
    6  A    between atoms: O_18  and  C_21
                            x       y       z     vdW  Elec       q    Type
                         _______ _______ _______ _____ _____    ______ ____

>  <TORSDO>
F 6

$$$$
=
 OpenBabel11062413543D

 25 27  0  0  1  0  0  0  0  0999 V2000
  190.3540  177.2840  139.3340 C   0  0  1  0  0  3  0  0  0  0  0  0
  191.7640  174.3930  137.2920 C   0  0  0  0  0  3  0  0  0  0  0  0
  193.1190  174.7350  137.2450 C   0  0  0  0  0  0  0  0  0  0  0  0
  192.6640  176.7150  138.5640 C   0  0  0  0  0  3  0  0  0  0  0  0
  193.5690  175.8930  137.8860 C   0  0  0  0  0  3  0  0  0  0  0  0
  191.3070  176.3790  138.6100 C   0  0  0  0  0  0  0  0  0  0  0  0
  190.8580  175.2140  137.9690 C   0  0  0  0  0  3  0  0  0  0  0  0
  194.9110  173.2180  137.4780 O   0  0  0  0  0  1  0  0  0  0  0  0
  194.0870  173.8480  136.5440 C   0  0  0  0  0  2  0  0  0  0  0  0
  189.2080  177.6880  138.4550 C   0  0  0  0  0  0  0  0  0  0  0  0
  187.9350  177.5160  138.9040 N   0  0  0  0  0  0  0  0  0  0  0  0
  186.8580  177.8810  138.1570 C   0  0  0  0  0  3  0  0  0  0  0  0
  189.4300  178.2680  137.1990 C   0  0  0  0  0  3  0  0  0  0  0  0
  187.0410  178.4550  136.8970 C   0  0  0  0  0  3  0  0  0  0  0  0
  188.3370  178.6490  136.4180 C   0  0  0  0  0  3  0  0  0  0  0  0
  189.8700  176.6720  140.5670 N   0  0  0  0  0  2  0  0  0  0  0  0
  190.5550  176.7920  141.8170 C   0  0  0  0  0  0  0  0  0  0  0  0
  191.5880  177.5070  141.9000 O   0  0  0  0  0  0  0  0  0  0  0  0
  190.0850  176.1500  142.9730 O   0  0  0  0  0  0  0  0  0  0  0  0
  187.4610  177.7290  145.8630 C   0  0  0  0  0  3  0  0  0  0  0  0
  186.9440  177.2780  144.6470 C   0  0  0  0  0  3  0  0  0  0  0  0
  189.6900  177.1290  145.1360 C   0  0  0  0  0  3  0  0  0  0  0  0
  188.8340  177.6540  146.1080 C   0  0  0  0  0  3  0  0  0  0  0  0
  189.1840  176.6780  143.9110 C   0  0  0  0  0  0  0  0  0  0  0  0
  187.8020  176.7540  143.6750 C   0  0  0  0  0  3  0  0  0  0  0  0
  1 16  1  1  0  0  0
  2  7  1  0  0  0  0
  3  2  2  0  0  0  0
  3  5  1  0  0  0  0
  4  6  1  0  0  0  0
  5  4  2  0  0  0  0
  6  1  1  0  0  0  0
  7  6  2  0  0  0  0
  9  3  1  0  0  0  0
  9  8  1  0  0  0  0
 10 11  1  0  0  0  0
 10  1  1  0  0  0  0
 12 11  2  0  0  0  0
 13 10  2  0  0  0  0
 14 12  1  0  0  0  0
 15 14  2  0  0  0  0
 15 13  1  0  0  0  0
 16 17  1  0  0  0  0
 17 18  2  0  0  0  0
 17 19  1  0  0  0  0
 19 24  1  0  0  0  0
 20 23  1  0  0  0  0
 21 20  2  0  0  0  0
 22 23  2  0  0  0  0
 24 22  1  0  0  0  0
 25 24  2  0  0  0  0
 25 21  1  0  0  0  0
M  END
>  <MODEL>
7

>  <REMARK>
 VINA RESULT:      -7.2      2.800      8.138
  Name = 
  6 active torsions:
  status: ('A' for Active; 'I' for Inactive)
    1  A    between atoms: C_2  and  C_4
    2  A    between atoms: C_2  and  N_9
    3  A    between atoms: C_2  and  C_13
    4  A    between atoms: C_5  and  C_25
    5  A    between atoms: O_18  and  C_19
    6  A    between atoms: O_18  and  C_21
                            x       y       z     vdW  Elec       q    Type
                         _______ _______ _______ _____ _____    ______ ____

>  <TORSDO>
F 6

$$$$
=
 OpenBabel11062413543D

 25 27  0  0  1  0  0  0  0  0999 V2000
  188.1300  178.5540  141.3850 C   0  0  1  0  0  3  0  0  0  0  0  0
  190.5520  176.3790  139.4050 C   0  0  0  0  0  3  0  0  0  0  0  0
  190.4650  176.9660  138.1380 C   0  0  0  0  0  0  0  0  0  0  0  0
  188.8770  178.5810  138.9980 C   0  0  0  0  0  3  0  0  0  0  0  0
  189.6310  178.0710  137.9370 C   0  0  0  0  0  3  0  0  0  0  0  0
  188.9590  177.9950  140.2660 C   0  0  0  0  0  0  0  0  0  0  0  0
  189.7990  176.8890  140.4660 C   0  0  0  0  0  3  0  0  0  0  0  0
  192.5950  176.2260  137.4450 O   0  0  0  0  0  1  0  0  0  0  0  0
  191.2850  176.4390  137.0150 C   0  0  0  0  0  2  0  0  0  0  0  0
  186.6810  178.6260  141.0100 C   0  0  0  0  0  0  0  0  0  0  0  0
  186.3350  178.6280  139.6930 N   0  0  0  0  0  0  0  0  0  0  0  0
  185.0350  178.6740  139.2950 C   0  0  0  0  0  3  0  0  0  0  0  0
  185.6800  178.6590  141.9900 C   0  0  0  0  0  3  0  0  0  0  0  0
  184.0120  178.7150  140.2440 C   0  0  0  0  0  3  0  0  0  0  0  0
  184.3410  178.7060  141.6010 C   0  0  0  0  0  3  0  0  0  0  0  0
  188.3090  177.7880  142.6140 N   0  0  0  0  0  2  0  0  0  0  0  0
  189.3840  178.0230  143.5290 C   0  0  0  0  0  0  0  0  0  0  0  0
  190.1870  178.9700  143.3220 O   0  0  0  0  0  0  0  0  0  0  0  0
  189.5520  177.2360  144.6780 O   0  0  0  0  0  0  0  0  0  0  0  0
  187.9330  178.0930  148.4700 C   0  0  0  0  0  3  0  0  0  0  0  0
  189.2920  177.7920  148.3610 C   0  0  0  0  0  3  0  0  0  0  0  0
  187.6830  177.8170  146.0770 C   0  0  0  0  0  3  0  0  0  0  0  0
  187.1280  178.1070  147.3280 C   0  0  0  0  0  3  0  0  0  0  0  0
  189.0430  177.5090  145.9570 C   0  0  0  0  0  0  0  0  0  0  0  0
  189.8450  177.5020  147.1100 C   0  0  0  0  0  3  0  0  0  0  0  0
  1 16  1  1  0  0  0
  2  7  1  0  0  0  0
  3  2  2  0  0  0  0
  4  6  1  0  0  0  0
  5  3  1  0  0  0  0
  5  4  2  0  0  0  0
  6  7  2  0  0  0  0
  6  1  1  0  0  0  0
  9  8  1  0  0  0  0
  9  3  1  0  0  0  0
 10  1  1  0  0  0  0
 10 13  1  0  0  0  0
 11 10  2  0  0  0  0
 12 11  1  0  0  0  0
 12 14  2  0  0  0  0
 14 15  1  0  0  0  0
 15 13  2  0  0  0  0
 16 17  1  0  0  0  0
 17 19  1  0  0  0  0
 18 17  2  0  0  0  0
 19 24  1  0  0  0  0
 21 20  1  0  0  0  0
 22 23  1  0  0  0  0
 23 20  2  0  0  0  0
 24 22  2  0  0  0  0
 24 25  1  0  0  0  0
 25 21  2  0  0  0  0
M  END
>  <MODEL>
8

>  <REMARK>
 VINA RESULT:      -7.0      2.763      7.769
  Name = 
  6 active torsions:
  status: ('A' for Active; 'I' for Inactive)
    1  A    between atoms: C_2  and  C_4
    2  A    between atoms: C_2  and  N_9
    3  A    between atoms: C_2  and  C_13
    4  A    between atoms: C_5  and  C_25
    5  A    between atoms: O_18  and  C_19
    6  A    between atoms: O_18  and  C_21
                            x       y       z     vdW  Elec       q    Type
                         _______ _______ _______ _____ _____    ______ ____

>  <TORSDO>
F 6

$$$$
=
 OpenBabel11062413543D

 25 27  0  0  1  0  0  0  0  0999 V2000
  188.3190  177.1310  143.8140 C   0  0  1  0  0  3  0  0  0  0  0  0
  189.7080  176.7100  147.3370 C   0  0  0  0  0  3  0  0  0  0  0  0
  191.0800  176.8500  147.1010 C   0  0  0  0  0  0  0  0  0  0  0  0
  190.6410  177.1840  144.7430 C   0  0  0  0  0  3  0  0  0  0  0  0
  191.5450  177.0920  145.8050 C   0  0  0  0  0  3  0  0  0  0  0  0
  189.2680  177.0410  144.9720 C   0  0  0  0  0  0  0  0  0  0  0  0
  188.8040  176.8020  146.2750 C   0  0  0  0  0  3  0  0  0  0  0  0
  192.8450  175.6440  148.0980 O   0  0  0  0  0  1  0  0  0  0  0  0
  192.0410  176.7760  148.2340 C   0  0  0  0  0  2  0  0  0  0  0  0
  187.0360  177.8000  144.2060 C   0  0  0  0  0  0  0  0  0  0  0  0
  186.0530  177.9470  143.2760 N   0  0  0  0  0  0  0  0  0  0  0  0
  184.8630  178.5300  143.5810 C   0  0  0  0  0  3  0  0  0  0  0  0
  186.8240  178.2450  145.5180 C   0  0  0  0  0  3  0  0  0  0  0  0
  184.6190  178.9920  144.8760 C   0  0  0  0  0  3  0  0  0  0  0  0
  185.6090  178.8450  145.8490 C   0  0  0  0  0  3  0  0  0  0  0  0
  188.9310  177.8100  142.6760 N   0  0  0  0  0  2  0  0  0  0  0  0
  189.7340  177.1340  141.7040 C   0  0  0  0  0  0  0  0  0  0  0  0
  189.8810  175.8850  141.7720 O   0  0  0  0  0  0  0  0  0  0  0  0
  190.3460  177.8280  140.6500 O   0  0  0  0  0  0  0  0  0  0  0  0
  189.3220  177.6200  136.5700 C   0  0  0  0  0  3  0  0  0  0  0  0
  188.7290  178.5970  137.3730 C   0  0  0  0  0  3  0  0  0  0  0  0
  190.5680  176.8090  138.4810 C   0  0  0  0  0  3  0  0  0  0  0  0
  190.2420  176.7260  137.1240 C   0  0  0  0  0  3  0  0  0  0  0  0
  189.9760  177.7810  139.2970 C   0  0  0  0  0  0  0  0  0  0  0  0
  189.0550  178.6780  138.7300 C   0  0  0  0  0  3  0  0  0  0  0  0
  1 16  1  6  0  0  0
  1 10  1  0  0  0  0
  1  6  1  0  0  0  0
  3  2  1  0  0  0  0
  3  9  1  0  0  0  0
  4  6  2  0  0  0  0
  4  5  1  0  0  0  0
  5  3  2  0  0  0  0
  6  7  1  0  0  0  0
  7  2  2  0  0  0  0
  8  9  1  0  0  0  0
 10 13  1  0  0  0  0
 11 12  1  0  0  0  0
 11 10  2  0  0  0  0
 12 14  2  0  0  0  0
 13 15  2  0  0  0  0
 14 15  1  0  0  0  0
 17 18  2  0  0  0  0
 17 16  1  0  0  0  0
 19 17  1  0  0  0  0
 20 23  2  0  0  0  0
 20 21  1  0  0  0  0
 21 25  2  0  0  0  0
 22 24  2  0  0  0  0
 23 22  1  0  0  0  0
 24 19  1  0  0  0  0
 25 24  1  0  0  0  0
M  END
>  <MODEL>
9

>  <REMARK>
 VINA RESULT:      -7.0      2.995      5.270
  Name = 
  6 active torsions:
  status: ('A' for Active; 'I' for Inactive)
    1  A    between atoms: C_2  and  C_4
    2  A    between atoms: C_2  and  N_9
    3  A    between atoms: C_2  and  C_13
    4  A    between atoms: C_5  and  C_25
    5  A    between atoms: O_18  and  C_19
    6  A    between atoms: O_18  and  C_21
                            x       y       z     vdW  Elec       q    Type
                         _______ _______ _______ _____ _____    ______ ____

>  <TORSDO>
F 6

$$$$
