=
 OpenBabel11062417533D

 39 43  0  0  1  0  0  0  0  0999 V2000
  186.9650  178.8110  136.4640 O   0  0  0  0  0  0  0  0  0  0  0  0
  187.6180  176.7930  137.5300 C   0  0  2  0  0  3  0  0  0  0  0  0
  188.2130  178.3760  139.4150 C   0  0  1  0  0  3  0  0  0  0  0  0
  184.2090  177.6980  136.9340 C   0  0  0  0  0  2  0  0  0  0  0  0
  189.0780  176.8300  137.0370 C   0  0  1  0  0  3  0  0  0  0  0  0
  181.8480  178.7340  143.5890 O   0  0  0  0  0  0  0  0  0  0  0  0
  183.8330  176.0010  138.7610 C   0  0  0  0  0  1  0  0  0  0  0  0
  188.1810  177.7710  143.1810 N   0  0  2  0  0  0  0  0  0  0  0  0
  184.2510  177.4310  138.4320 C   0  0  2  0  0  3  0  0  0  0  0  0
  181.5830  178.4300  140.7520 C   0  0  0  0  0  3  0  0  0  0  0  0
  186.7800  177.3980  143.3560 C   0  0  0  0  0  2  0  0  0  0  0  0
  189.7920  178.1120  137.5010 C   0  0  0  0  0  2  0  0  0  0  0  0
  183.9970  178.6120  140.6210 C   0  0  0  0  0  2  0  0  0  0  0  0
  181.9710  178.2150  139.2990 C   0  0  0  0  0  3  0  0  0  0  0  0
  186.6920  177.6460  136.7110 C   0  0  0  0  0  0  0  0  0  0  0  0
  188.5420  177.5320  141.7840 C   0  0  0  0  0  2  0  0  0  0  0  0
  184.1920  179.2070  143.5290 C   0  0  2  0  0  3  0  0  0  0  0  0
  186.1840  178.1220  144.5520 C   0  0  0  0  0  2  0  0  0  0  0  0
  184.0790  180.5260  144.2750 C   0  0  0  0  0  1  0  0  0  0  0  0
  183.4720  178.4940  139.2050 C   0  0  2  0  0  3  0  0  0  0  0  0
  189.6820  178.3050  139.0120 C   0  0  0  0  0  2  0  0  0  0  0  0
  182.8260  178.6240  141.4710 N   0  0  0  0  0  0  0  0  0  0  0  0
  185.4030  177.0580  136.2280 C   0  0  0  0  0  2  0  0  0  0  0  0
  182.8900  178.8440  142.8860 C   0  0  0  0  0  0  0  0  0  0  0  0
  187.4880  177.0870  139.0280 C   0  0  0  0  0  2  0  0  0  0  0  0
  188.0530  178.6780  140.9030 C   0  0  0  0  0  2  0  0  0  0  0  0
  184.6690  178.1040  144.4610 C   0  0  0  0  0  2  0  0  0  0  0  0
  190.1180  176.8160  146.3280 C   0  0  0  0  0  2  0  0  0  0  0  0
  192.3390  175.9340  146.3120 O   0  0  0  0  0  0  0  0  0  0  0  0
  189.3080  177.7060  145.3850 C   0  0  0  0  0  2  0  0  0  0  0  0
  190.2870  176.4370  143.4360 C   0  0  0  0  0  3  0  0  0  0  0  0
  191.3480  176.1020  144.1730 C   0  0  0  0  0  3  0  0  0  0  0  0
  189.0150  176.9570  144.0800 C   0  0  2  0  0  3  0  0  0  0  0  0
  191.3350  176.2740  145.6350 C   0  0  0  0  0  0  0  0  0  0  0  0
  189.3390  174.3410  136.7360 C   0  0  0  0  0  2  0  0  0  0  0  0
  189.8440  175.5710  137.4620 C   0  0  0  0  0  3  0  0  0  0  0  0
  191.3100  175.6580  137.0880 C   0  0  0  0  0  2  0  0  0  0  0  0
  190.5200  173.3950  136.6550 C   0  0  0  0  0  2  0  0  0  0  0  0
  191.7680  174.2280  136.8890 C   0  0  0  0  0  2  0  0  0  0  0  0
  1 15  2  0  0  0  0
  2 25  1  1  0  0  0
  3 21  1  1  0  0  0
  3 26  1  0  0  0  0
  4  9  1  0  0  0  0
  5 36  1  1  0  0  0
  5 12  1  0  0  0  0
  5  2  1  0  0  0  0
  8 16  1  6  0  0  0
  8 11  1  0  0  0  0
  8 33  1  0  0  0  0
  9  7  1  6  0  0  0
  9 20  1  0  0  0  0
 10 22  1  0  0  0  0
 11 18  1  0  0  0  0
 12 21  1  0  0  0  0
 13 22  1  0  0  0  0
 14 10  2  0  0  0  0
 15  2  1  0  0  0  0
 17 19  1  1  0  0  0
 17 27  1  0  0  0  0
 20 14  1  1  0  0  0
 20 13  1  0  0  0  0
 22 24  1  0  0  0  0
 23 15  1  0  0  0  0
 23  4  1  0  0  0  0
 24 17  1  0  0  0  0
 24  6  2  0  0  0  0
 25  3  1  0  0  0  0
 26 16  1  0  0  0  0
 27 18  1  0  0  0  0
 30 28  1  0  0  0  0
 31 32  2  0  0  0  0
 32 34  1  0  0  0  0
 33 31  1  6  0  0  0
 33 30  1  0  0  0  0
 34 29  2  0  0  0  0
 34 28  1  0  0  0  0
 35 36  1  0  0  0  0
 37 36  1  0  0  0  0
 38 35  1  0  0  0  0
 38 39  1  0  0  0  0
 39 37  1  0  0  0  0
M  END
>  <MODEL>
1

>  <REMARK>
 VINA RESULT:      -8.9      0.000      0.000
  Name = 
  2 active torsions:
  status: ('A' for Active; 'I' for Inactive)
    1  A    between atoms: C_7  and  C_9
    2  A    between atoms: N_12  and  C_20
                            x       y       z     vdW  Elec       q    Type
                         _______ _______ _______ _____ _____    ______ ____

>  <TORSDO>
F 2

$$$$
=
 OpenBabel11062417533D

 39 43  0  0  1  0  0  0  0  0999 V2000
  186.0770  176.9870  134.5970 O   0  0  0  0  0  0  0  0  0  0  0  0
  186.9400  176.0430  136.5970 C   0  0  2  0  0  3  0  0  0  0  0  0
  186.1360  178.2350  137.5790 C   0  0  1  0  0  3  0  0  0  0  0  0
  183.9600  174.8850  134.9920 C   0  0  0  0  0  2  0  0  0  0  0  0
  188.3560  176.6310  136.4400 C   0  0  1  0  0  3  0  0  0  0  0  0
  178.9840  176.7580  139.7540 O   0  0  0  0  0  0  0  0  0  0  0  0
  183.5380  173.9430  137.2930 C   0  0  0  0  0  1  0  0  0  0  0  0
  184.8540  178.9830  141.0930 N   0  0  2  0  0  0  0  0  0  0  0  0
  183.5060  175.1890  136.4130 C   0  0  2  0  0  3  0  0  0  0  0  0
  179.9790  175.4410  137.4110 C   0  0  0  0  0  3  0  0  0  0  0  0
  183.7340  178.0480  141.1470 C   0  0  0  0  0  2  0  0  0  0  0  0
  188.3180  178.1680  136.3700 C   0  0  0  0  0  2  0  0  0  0  0  0
  182.0090  176.7380  137.6820 C   0  0  0  0  0  2  0  0  0  0  0  0
  180.9540  174.9790  136.3420 C   0  0  0  0  0  3  0  0  0  0  0  0
  186.1690  175.9980  135.3090 C   0  0  0  0  0  0  0  0  0  0  0  0
  185.7930  178.5050  140.0780 C   0  0  0  0  0  2  0  0  0  0  0  0
  180.8230  178.2780  139.9340 C   0  0  2  0  0  3  0  0  0  0  0  0
  182.5000  178.7320  141.7150 C   0  0  0  0  0  2  0  0  0  0  0  0
  179.9600  179.5290  139.9260 C   0  0  0  0  0  1  0  0  0  0  0  0
  182.1610  175.9140  136.4200 C   0  0  2  0  0  3  0  0  0  0  0  0
  187.5640  178.7710  137.5530 C   0  0  0  0  0  2  0  0  0  0  0  0
  180.6810  176.4510  138.1790 N   0  0  0  0  0  0  0  0  0  0  0  0
  185.4780  174.7280  134.9230 C   0  0  0  0  0  2  0  0  0  0  0  0
  180.1020  177.1290  139.3010 C   0  0  0  0  0  0  0  0  0  0  0  0
  186.1380  176.7120  137.7180 C   0  0  0  0  0  2  0  0  0  0  0  0
  185.3110  178.8920  138.6820 C   0  0  0  0  0  2  0  0  0  0  0  0
  181.2590  177.9370  141.3500 C   0  0  0  0  0  2  0  0  0  0  0  0
  186.8910  177.8090  144.1000 C   0  0  0  0  0  2  0  0  0  0  0  0
  186.1870  178.0620  146.3700 O   0  0  0  0  0  0  0  0  0  0  0  0
  186.1700  177.7040  142.7560 C   0  0  0  0  0  2  0  0  0  0  0  0
  184.5840  179.5080  143.5280 C   0  0  0  0  0  3  0  0  0  0  0  0
  184.8250  179.1920  144.8020 C   0  0  0  0  0  3  0  0  0  0  0  0
  185.5020  179.0400  142.4140 C   0  0  2  0  0  3  0  0  0  0  0  0
  185.9660  178.3320  145.1620 C   0  0  0  0  0  0  0  0  0  0  0  0
  189.9060  174.7980  137.2110 C   0  0  0  0  0  2  0  0  0  0  0  0
  189.2920  176.1400  137.5520 C   0  0  0  0  0  3  0  0  0  0  0  0
  190.4780  177.0660  137.7310 C   0  0  0  0  0  2  0  0  0  0  0  0
  191.2420  174.7610  137.9230 C   0  0  0  0  0  2  0  0  0  0  0  0
  191.6000  176.1970  138.2620 C   0  0  0  0  0  2  0  0  0  0  0  0
  1 15  2  0  0  0  0
  2 25  1  1  0  0  0
  3 21  1  1  0  0  0
  3 25  1  0  0  0  0
  3 26  1  0  0  0  0
  4  9  1  0  0  0  0
  5  2  1  0  0  0  0
  5 36  1  1  0  0  0
  8 16  1  6  0  0  0
  8 11  1  0  0  0  0
  8 33  1  0  0  0  0
  9 20  1  0  0  0  0
  9  7  1  1  0  0  0
 10 22  1  0  0  0  0
 11 18  1  0  0  0  0
 12  5  1  0  0  0  0
 12 21  1  0  0  0  0
 13 22  1  0  0  0  0
 14 10  2  0  0  0  0
 15  2  1  0  0  0  0
 17 19  1  1  0  0  0
 17 27  1  0  0  0  0
 20 14  1  1  0  0  0
 20 13  1  0  0  0  0
 22 24  1  0  0  0  0
 23  4  1  0  0  0  0
 23 15  1  0  0  0  0
 24  6  2  0  0  0  0
 24 17  1  0  0  0  0
 26 16  1  0  0  0  0
 27 18  1  0  0  0  0
 28 34  1  0  0  0  0
 30 28  1  0  0  0  0
 31 32  2  0  0  0  0
 32 34  1  0  0  0  0
 33 30  1  1  0  0  0
 33 31  1  0  0  0  0
 34 29  2  0  0  0  0
 35 36  1  0  0  0  0
 35 38  1  0  0  0  0
 36 37  1  0  0  0  0
 37 39  1  0  0  0  0
 38 39  1  0  0  0  0
M  END
>  <MODEL>
2

>  <REMARK>
 VINA RESULT:      -7.5      2.549      3.972
  Name = 
  2 active torsions:
  status: ('A' for Active; 'I' for Inactive)
    1  A    between atoms: C_7  and  C_9
    2  A    between atoms: N_12  and  C_20
                            x       y       z     vdW  Elec       q    Type
                         _______ _______ _______ _____ _____    ______ ____

>  <TORSDO>
F 2

$$$$
=
 OpenBabel11062417533D

 39 43  0  0  1  0  0  0  0  0999 V2000
  187.6570  176.4400  134.7540 O   0  0  0  0  0  0  0  0  0  0  0  0
  188.1400  176.3680  137.0770 C   0  0  2  0  0  3  0  0  0  0  0  0
  186.1530  177.9340  137.1960 C   0  0  1  0  0  3  0  0  0  0  0  0
  186.7340  173.6220  135.2670 C   0  0  0  0  0  2  0  0  0  0  0  0
  189.0950  177.5780  137.0680 C   0  0  1  0  0  3  0  0  0  0  0  0
  180.1950  173.2720  138.1080 O   0  0  0  0  0  0  0  0  0  0  0  0
  186.0550  172.9250  137.5930 C   0  0  0  0  0  1  0  0  0  0  0  0
  183.5930  178.3830  139.9870 N   0  0  2  0  0  0  0  0  0  0  0  0
  185.7510  173.8380  136.4100 C   0  0  2  0  0  3  0  0  0  0  0  0
  182.3910  172.3550  136.5100 C   0  0  0  0  0  3  0  0  0  0  0  0
  183.0740  177.0200  140.0640 C   0  0  0  0  0  2  0  0  0  0  0  0
  188.3860  178.8450  136.5550 C   0  0  0  0  0  2  0  0  0  0  0  0
  183.3890  174.5420  136.8300 C   0  0  0  0  0  2  0  0  0  0  0  0
  183.7600  172.3240  135.8530 C   0  0  0  0  0  3  0  0  0  0  0  0
  187.9480  175.7520  135.7210 C   0  0  0  0  0  0  0  0  0  0  0  0
  184.9220  178.3280  139.3780 C   0  0  0  0  0  2  0  0  0  0  0  0
  180.9630  175.5330  138.2380 C   0  0  2  0  0  3  0  0  0  0  0  0
  181.5560  177.0330  140.1330 C   0  0  0  0  0  2  0  0  0  0  0  0
  179.6830  176.1380  137.6880 C   0  0  0  0  0  1  0  0  0  0  0  0
  184.3070  173.7520  135.9190 C   0  0  2  0  0  3  0  0  0  0  0  0
  187.0980  179.1240  137.3260 C   0  0  0  0  0  2  0  0  0  0  0  0
  182.2580  173.6770  137.0900 N   0  0  0  0  0  0  0  0  0  0  0  0
  188.0830  174.2690  135.5740 C   0  0  0  0  0  2  0  0  0  0  0  0
  181.1000  174.1030  137.8190 C   0  0  0  0  0  0  0  0  0  0  0  0
  186.8020  176.6700  137.7600 C   0  0  0  0  0  2  0  0  0  0  0  0
  184.8070  178.2110  137.8600 C   0  0  0  0  0  2  0  0  0  0  0  0
  181.0120  175.6680  139.7520 C   0  0  0  0  0  2  0  0  0  0  0  0
  184.8540  178.9020  143.5520 C   0  0  0  0  0  2  0  0  0  0  0  0
  183.4300  179.0090  145.4690 O   0  0  0  0  0  0  0  0  0  0  0  0
  184.7520  178.2530  142.1730 C   0  0  0  0  0  2  0  0  0  0  0  0
  182.3360  178.9730  142.0730 C   0  0  0  0  0  3  0  0  0  0  0  0
  182.2770  179.0030  143.4060 C   0  0  0  0  0  3  0  0  0  0  0  0
  183.6670  178.9500  141.3440 C   0  0  2  0  0  3  0  0  0  0  0  0
  183.5070  178.9610  144.2150 C   0  0  0  0  0  0  0  0  0  0  0  0
  188.6950  178.2540  139.4640 C   0  0  0  0  0  2  0  0  0  0  0  0
  189.7260  177.8040  138.4480 C   0  0  0  0  0  3  0  0  0  0  0  0
  190.2880  176.5190  139.0200 C   0  0  0  0  0  2  0  0  0  0  0  0
  189.1990  177.7660  140.8070 C   0  0  0  0  0  2  0  0  0  0  0  0
  190.2160  176.6740  140.5250 C   0  0  0  0  0  2  0  0  0  0  0  0
  1 15  2  0  0  0  0
  2 25  1  6  0  0  0
  3 21  1  1  0  0  0
  3 25  1  0  0  0  0
  3 26  1  0  0  0  0
  4 23  1  0  0  0  0
  4  9  1  0  0  0  0
  5  2  1  0  0  0  0
  5 36  1  1  0  0  0
  8 16  1  1  0  0  0
  8 11  1  0  0  0  0
  8 33  1  0  0  0  0
  9  7  1  1  0  0  0
 10 22  1  0  0  0  0
 11 18  1  0  0  0  0
 12  5  1  0  0  0  0
 12 21  1  0  0  0  0
 13 22  1  0  0  0  0
 14 10  2  0  0  0  0
 15  2  1  0  0  0  0
 17 19  1  1  0  0  0
 17 27  1  0  0  0  0
 20 14  1  1  0  0  0
 20  9  1  0  0  0  0
 20 13  1  0  0  0  0
 22 24  1  0  0  0  0
 23 15  1  0  0  0  0
 24  6  2  0  0  0  0
 24 17  1  0  0  0  0
 26 16  1  0  0  0  0
 27 18  1  0  0  0  0
 28 34  1  0  0  0  0
 30 28  1  0  0  0  0
 31 32  2  0  0  0  0
 32 34  1  0  0  0  0
 33 31  1  1  0  0  0
 33 30  1  0  0  0  0
 34 29  2  0  0  0  0
 35 38  1  0  0  0  0
 36 37  1  0  0  0  0
 36 35  1  0  0  0  0
 37 39  1  0  0  0  0
 39 38  1  0  0  0  0
M  END
>  <MODEL>
3

>  <REMARK>
 VINA RESULT:      -7.4      2.894      5.747
  Name = 
  2 active torsions:
  status: ('A' for Active; 'I' for Inactive)
    1  A    between atoms: C_7  and  C_9
    2  A    between atoms: N_12  and  C_20
                            x       y       z     vdW  Elec       q    Type
                         _______ _______ _______ _____ _____    ______ ____

>  <TORSDO>
F 2

$$$$
=
 OpenBabel11062417533D

 39 43  0  0  1  0  0  0  0  0999 V2000
  184.0500  180.2040  143.6220 O   0  0  0  0  0  0  0  0  0  0  0  0
  184.1800  178.0840  142.5610 C   0  0  2  0  0  3  0  0  0  0  0  0
  186.2900  179.0810  141.5790 C   0  0  1  0  0  3  0  0  0  0  0  0
  184.7570  178.5810  146.0560 C   0  0  0  0  0  2  0  0  0  0  0  0
  183.3950  178.5010  141.3010 C   0  0  1  0  0  3  0  0  0  0  0  0
  191.7280  177.1290  146.5470 O   0  0  0  0  0  0  0  0  0  0  0  0
  185.9340  176.3670  145.7930 C   0  0  0  0  0  1  0  0  0  0  0  0
  189.5190  177.3470  140.5240 N   0  0  2  0  0  0  0  0  0  0  0  0
  186.0190  177.8750  145.5820 C   0  0  2  0  0  3  0  0  0  0  0  0
  189.1060  177.6780  147.5660 C   0  0  0  0  0  3  0  0  0  0  0  0
  189.8860  176.7230  141.7920 C   0  0  0  0  0  2  0  0  0  0  0  0
  184.0820  179.6720  140.5770 C   0  0  0  0  0  2  0  0  0  0  0  0
  188.4730  178.2680  145.3010 C   0  0  0  0  0  2  0  0  0  0  0  0
  187.6190  177.9860  147.5810 C   0  0  0  0  0  3  0  0  0  0  0  0
  183.9450  178.9920  143.7340 C   0  0  0  0  0  0  0  0  0  0  0  0
  188.0800  177.6100  140.5480 C   0  0  0  0  0  2  0  0  0  0  0  0
  191.2740  177.9590  144.3500 C   0  0  2  0  0  3  0  0  0  0  0  0
  191.3620  176.9390  142.0820 C   0  0  0  0  0  2  0  0  0  0  0  0
  192.4270  178.9490  144.3440 C   0  0  0  0  0  1  0  0  0  0  0  0
  187.2690  178.5120  146.1880 C   0  0  2  0  0  3  0  0  0  0  0  0
  185.5490  179.3700  140.2770 C   0  0  0  0  0  2  0  0  0  0  0  0
  189.5300  177.8330  146.1880 N   0  0  0  0  0  0  0  0  0  0  0  0
  183.6130  178.3870  145.0630 C   0  0  0  0  0  2  0  0  0  0  0  0
  190.8770  177.6130  145.7510 C   0  0  0  0  0  0  0  0  0  0  0  0
  185.6740  177.8780  142.2910 C   0  0  0  0  0  2  0  0  0  0  0  0
  187.7840  178.8800  141.3410 C   0  0  0  0  0  2  0  0  0  0  0  0
  191.6350  176.7120  143.5580 C   0  0  0  0  0  2  0  0  0  0  0  0
  191.6140  175.7540  137.7600 C   0  0  0  0  0  2  0  0  0  0  0  0
  190.8040  175.3170  135.5540 O   0  0  0  0  0  0  0  0  0  0  0  0
  191.2540  176.7530  138.8590 C   0  0  0  0  0  2  0  0  0  0  0  0
  188.8170  176.3810  138.3210 C   0  0  0  0  0  3  0  0  0  0  0  0
  189.1360  176.0080  137.0800 C   0  0  0  0  0  3  0  0  0  0  0  0
  189.8620  176.4370  139.4190 C   0  0  2  0  0  3  0  0  0  0  0  0
  190.5280  175.6850  136.7250 C   0  0  0  0  0  0  0  0  0  0  0  0
  181.7260  176.8560  140.3700 C   0  0  0  0  0  2  0  0  0  0  0  0
  183.1720  177.3080  140.3620 C   0  0  0  0  0  3  0  0  0  0  0  0
  183.4470  177.6780  138.9180 C   0  0  0  0  0  2  0  0  0  0  0  0
  181.4750  176.2510  139.0040 C   0  0  0  0  0  2  0  0  0  0  0  0
  182.5710  176.7630  138.0870 C   0  0  0  0  0  2  0  0  0  0  0  0
  1 15  2  0  0  0  0
  2 25  1  6  0  0  0
  2 15  1  0  0  0  0
  3 21  1  6  0  0  0
  3 25  1  0  0  0  0
  5 36  1  6  0  0  0
  5  2  1  0  0  0  0
  8 16  1  1  0  0  0
  8 11  1  0  0  0  0
  9  7  1  1  0  0  0
  9  4  1  0  0  0  0
  9 20  1  0  0  0  0
 10 14  2  0  0  0  0
 11 18  1  0  0  0  0
 12  5  1  0  0  0  0
 13 22  1  0  0  0  0
 15 23  1  0  0  0  0
 16 26  1  0  0  0  0
 17 19  1  1  0  0  0
 17 24  1  0  0  0  0
 18 27  1  0  0  0  0
 20 13  1  6  0  0  0
 20 14  1  0  0  0  0
 21 12  1  0  0  0  0
 22 10  1  0  0  0  0
 23  4  1  0  0  0  0
 24 22  1  0  0  0  0
 24  6  2  0  0  0  0
 26  3  1  0  0  0  0
 27 17  1  0  0  0  0
 28 30  1  0  0  0  0
 29 34  2  0  0  0  0
 30 33  1  0  0  0  0
 32 31  2  0  0  0  0
 33 31  1  6  0  0  0
 33  8  1  0  0  0  0
 34 32  1  0  0  0  0
 34 28  1  0  0  0  0
 36 35  1  0  0  0  0
 37 36  1  0  0  0  0
 38 35  1  0  0  0  0
 39 37  1  0  0  0  0
 39 38  1  0  0  0  0
M  END
>  <MODEL>
4

>  <REMARK>
 VINA RESULT:      -7.2      2.145      7.492
  Name = 
  2 active torsions:
  status: ('A' for Active; 'I' for Inactive)
    1  A    between atoms: C_7  and  C_9
    2  A    between atoms: N_12  and  C_20
                            x       y       z     vdW  Elec       q    Type
                         _______ _______ _______ _____ _____    ______ ____

>  <TORSDO>
F 2

$$$$
=
 OpenBabel11062417533D

 39 43  0  0  1  0  0  0  0  0999 V2000
  187.8310  176.6090  135.2130 O   0  0  0  0  0  0  0  0  0  0  0  0
  188.3100  175.9410  137.4400 C   0  0  2  0  0  3  0  0  0  0  0  0
  187.0350  178.0580  137.9920 C   0  0  1  0  0  3  0  0  0  0  0  0
  185.9560  174.2580  135.3370 C   0  0  0  0  0  2  0  0  0  0  0  0
  189.6400  176.7120  137.5440 C   0  0  1  0  0  3  0  0  0  0  0  0
  179.8100  175.7300  138.6540 O   0  0  0  0  0  0  0  0  0  0  0  0
  185.1240  173.4290  137.5680 C   0  0  0  0  0  1  0  0  0  0  0  0
  184.8820  178.8600  141.0360 N   0  0  2  0  0  0  0  0  0  0  0  0
  185.1470  174.5930  136.5820 C   0  0  2  0  0  3  0  0  0  0  0  0
  181.4810  174.4080  136.7370 C   0  0  0  0  0  3  0  0  0  0  0  0
  183.9040  177.7800  140.9340 C   0  0  0  0  0  2  0  0  0  0  0  0
  189.4310  178.2200  137.3120 C   0  0  0  0  0  2  0  0  0  0  0  0
  183.2150  175.9980  137.3220 C   0  0  0  0  0  2  0  0  0  0  0  0
  182.7280  174.0160  135.9650 C   0  0  0  0  0  3  0  0  0  0  0  0
  187.8740  175.6960  136.0240 C   0  0  0  0  0  0  0  0  0  0  0  0
  186.0840  178.4510  140.3100 C   0  0  0  0  0  2  0  0  0  0  0  0
  181.3530  177.5060  139.0850 C   0  0  2  0  0  3  0  0  0  0  0  0
  182.4970  178.3190  141.1400 C   0  0  0  0  0  2  0  0  0  0  0  0
  180.3690  178.6170  138.7580 C   0  0  0  0  0  1  0  0  0  0  0  0
  183.7600  175.1170  136.2160 C   0  0  2  0  0  3  0  0  0  0  0  0
  188.3520  178.7890  138.2300 C   0  0  0  0  0  2  0  0  0  0  0  0
  181.8530  175.5590  137.5360 N   0  0  0  0  0  0  0  0  0  0  0  0
  187.4550  174.3150  135.6240 C   0  0  0  0  0  2  0  0  0  0  0  0
  180.9480  176.2240  138.4260 C   0  0  0  0  0  0  0  0  0  0  0  0
  187.1910  176.5650  138.2800 C   0  0  0  0  0  2  0  0  0  0  0  0
  185.8990  178.6660  138.8100 C   0  0  0  0  0  2  0  0  0  0  0  0
  181.4830  177.3310  140.5900 C   0  0  0  0  0  2  0  0  0  0  0  0
  186.2510  178.1870  144.5350 C   0  0  0  0  0  2  0  0  0  0  0  0
  185.0080  178.5380  146.5450 O   0  0  0  0  0  0  0  0  0  0  0  0
  185.8830  177.8870  143.0820 C   0  0  0  0  0  2  0  0  0  0  0  0
  183.9930  179.5470  143.2760 C   0  0  0  0  0  3  0  0  0  0  0  0
  183.9550  179.3660  144.5980 C   0  0  0  0  0  3  0  0  0  0  0  0
  185.1890  179.1020  142.4550 C   0  0  2  0  0  3  0  0  0  0  0  0
  185.0550  178.6810  145.2970 C   0  0  0  0  0  0  0  0  0  0  0  0
  191.8220  176.7550  138.8070 C   0  0  0  0  0  2  0  0  0  0  0  0
  190.3420  176.4400  138.8810 C   0  0  0  0  0  3  0  0  0  0  0  0
  189.8160  177.3400  139.9800 C   0  0  0  0  0  2  0  0  0  0  0  0
  192.2320  177.1440  140.2130 C   0  0  0  0  0  2  0  0  0  0  0  0
  190.9610  177.5040  140.9590 C   0  0  0  0  0  2  0  0  0  0  0  0
  1 15  2  0  0  0  0
  2  5  1  0  0  0  0
  2 25  1  1  0  0  0
  3 21  1  1  0  0  0
  3 25  1  0  0  0  0
  3 26  1  0  0  0  0
  4 23  1  0  0  0  0
  4  9  1  0  0  0  0
  5 36  1  1  0  0  0
  8 16  1  6  0  0  0
  8 33  1  0  0  0  0
  9  7  1  1  0  0  0
 10 22  1  0  0  0  0
 11  8  1  0  0  0  0
 11 18  1  0  0  0  0
 12  5  1  0  0  0  0
 12 21  1  0  0  0  0
 13 22  1  0  0  0  0
 14 10  2  0  0  0  0
 15  2  1  0  0  0  0
 17 19  1  1  0  0  0
 17 27  1  0  0  0  0
 20 14  1  1  0  0  0
 20  9  1  0  0  0  0
 20 13  1  0  0  0  0
 22 24  1  0  0  0  0
 23 15  1  0  0  0  0
 24  6  2  0  0  0  0
 24 17  1  0  0  0  0
 26 16  1  0  0  0  0
 27 18  1  0  0  0  0
 28 34  1  0  0  0  0
 30 28  1  0  0  0  0
 31 32  2  0  0  0  0
 32 34  1  0  0  0  0
 33 30  1  1  0  0  0
 33 31  1  0  0  0  0
 34 29  2  0  0  0  0
 35 36  1  0  0  0  0
 35 38  1  0  0  0  0
 36 37  1  0  0  0  0
 37 39  1  0  0  0  0
 38 39  1  0  0  0  0
M  END
>  <MODEL>
5

>  <REMARK>
 VINA RESULT:      -7.0      2.624      4.575
  Name = 
  2 active torsions:
  status: ('A' for Active; 'I' for Inactive)
    1  A    between atoms: C_7  and  C_9
    2  A    between atoms: N_12  and  C_20
                            x       y       z     vdW  Elec       q    Type
                         _______ _______ _______ _____ _____    ______ ____

>  <TORSDO>
F 2

$$$$
=
 OpenBabel11062417533D

 39 43  0  0  1  0  0  0  0  0999 V2000
  189.2150  176.0450  135.0350 O   0  0  0  0  0  0  0  0  0  0  0  0
  188.9480  176.1970  137.3880 C   0  0  2  0  0  3  0  0  0  0  0  0
  186.9200  177.5640  136.7310 C   0  0  1  0  0  3  0  0  0  0  0  0
  188.3760  173.1960  135.5270 C   0  0  0  0  0  2  0  0  0  0  0  0
  189.7710  177.4910  137.5470 C   0  0  1  0  0  3  0  0  0  0  0  0
  181.3180  172.4220  136.2490 O   0  0  0  0  0  0  0  0  0  0  0  0
  187.0520  172.6150  137.5930 C   0  0  0  0  0  1  0  0  0  0  0  0
  183.5880  177.9700  138.5430 N   0  0  2  0  0  0  0  0  0  0  0  0
  187.0720  173.4010  136.2850 C   0  0  2  0  0  3  0  0  0  0  0  0
  183.9620  171.6070  135.5030 C   0  0  0  0  0  3  0  0  0  0  0  0
  183.1680  176.5730  138.5960 C   0  0  0  0  0  2  0  0  0  0  0  0
  189.1720  178.6390  136.7150 C   0  0  0  0  0  2  0  0  0  0  0  0
  184.6540  173.8990  135.8870 C   0  0  0  0  0  2  0  0  0  0  0  0
  185.4670  171.6610  135.3040 C   0  0  0  0  0  3  0  0  0  0  0  0
  189.2350  175.4640  136.1100 C   0  0  0  0  0  0  0  0  0  0  0  0
  185.0420  178.0000  138.3790 C   0  0  0  0  0  2  0  0  0  0  0  0
  181.8460  174.7520  136.3750 C   0  0  2  0  0  3  0  0  0  0  0  0
  181.7080  176.4420  138.1960 C   0  0  0  0  0  2  0  0  0  0  0  0
  180.7650  175.1840  135.4000 C   0  0  0  0  0  1  0  0  0  0  0  0
  185.8640  173.1360  135.3880 C   0  0  2  0  0  3  0  0  0  0  0  0
  187.6910  178.8480  137.0210 C   0  0  0  0  0  2  0  0  0  0  0  0
  183.5620  172.9500  135.8750 N   0  0  0  0  0  0  0  0  0  0  0  0
  189.5130  173.9940  136.1640 C   0  0  0  0  0  2  0  0  0  0  0  0
  182.2070  173.3140  136.1680 C   0  0  0  0  0  0  0  0  0  0  0  0
  187.4460  176.4170  137.5940 C   0  0  0  0  0  2  0  0  0  0  0  0
  185.4180  177.7570  136.9190 C   0  0  0  0  0  2  0  0  0  0  0  0
  181.4080  175.0050  137.8090 C   0  0  0  0  0  2  0  0  0  0  0  0
  183.3390  178.6280  142.2940 C   0  0  0  0  0  2  0  0  0  0  0  0
  181.2940  179.1160  143.4310 O   0  0  0  0  0  0  0  0  0  0  0  0
  183.7050  177.8760  141.0150 C   0  0  0  0  0  2  0  0  0  0  0  0
  181.7050  178.9260  139.8910 C   0  0  0  0  0  3  0  0  0  0  0  0
  181.1090  179.0870  141.0740 C   0  0  0  0  0  3  0  0  0  0  0  0
  183.1920  178.6430  139.7910 C   0  0  2  0  0  3  0  0  0  0  0  0
  181.8700  178.9420  142.3270 C   0  0  0  0  0  0  0  0  0  0  0  0
  188.6910  177.5020  139.8260 C   0  0  0  0  0  2  0  0  0  0  0  0
  189.9190  177.8820  139.0230 C   0  0  0  0  0  3  0  0  0  0  0  0
  191.0540  177.1300  139.6870 C   0  0  0  0  0  2  0  0  0  0  0  0
  189.1800  177.2550  141.2380 C   0  0  0  0  0  2  0  0  0  0  0  0
  190.6790  177.0300  141.1520 C   0  0  0  0  0  2  0  0  0  0  0  0
  1 15  2  0  0  0  0
  2  5  1  0  0  0  0
  2 25  1  6  0  0  0
  3 26  1  1  0  0  0
  3 21  1  0  0  0  0
  3 25  1  0  0  0  0
  4 23  1  0  0  0  0
  4  9  1  0  0  0  0
  5 36  1  1  0  0  0
  8 16  1  1  0  0  0
  8 11  1  0  0  0  0
  8 33  1  0  0  0  0
  9  7  1  1  0  0  0
 10 22  1  0  0  0  0
 12 21  1  0  0  0  0
 12  5  1  0  0  0  0
 14 10  2  0  0  0  0
 15 23  1  0  0  0  0
 15  2  1  0  0  0  0
 17 19  1  6  0  0  0
 17 27  1  0  0  0  0
 18 11  1  0  0  0  0
 20 14  1  1  0  0  0
 20 13  1  0  0  0  0
 20  9  1  0  0  0  0
 22 13  1  0  0  0  0
 22 24  1  0  0  0  0
 24  6  2  0  0  0  0
 24 17  1  0  0  0  0
 26 16  1  0  0  0  0
 27 18  1  0  0  0  0
 28 34  1  0  0  0  0
 30 28  1  0  0  0  0
 31 32  2  0  0  0  0
 32 34  1  0  0  0  0
 33 31  1  1  0  0  0
 33 30  1  0  0  0  0
 34 29  2  0  0  0  0
 35 38  1  0  0  0  0
 36 37  1  0  0  0  0
 36 35  1  0  0  0  0
 37 39  1  0  0  0  0
 39 38  1  0  0  0  0
M  END
>  <MODEL>
6

>  <REMARK>
 VINA RESULT:      -6.8      3.063      6.858
  Name = 
  2 active torsions:
  status: ('A' for Active; 'I' for Inactive)
    1  A    between atoms: C_7  and  C_9
    2  A    between atoms: N_12  and  C_20
                            x       y       z     vdW  Elec       q    Type
                         _______ _______ _______ _____ _____    ______ ____

>  <TORSDO>
F 2

$$$$
