=
 OpenBabel11062415093D

 55 58  0  0  1  0  0  0  0  0999 V2000
  183.4540  177.1730  138.5900 C   0  0  0  0  0  2  0  0  0  0  0  0
  181.4700  177.4050  139.5800 C   0  0  1  0  0  3  0  0  0  0  0  0
  185.3640  178.5530  137.9400 N   0  0  0  0  0  0  0  0  0  0  0  0
  181.1180  179.8990  139.3340 O   0  0  0  0  0  0  0  0  0  0  0  0
  181.0910  178.7710  140.2070 C   0  0  2  0  0  3  0  0  0  0  0  0
  184.1740  178.4930  138.4270 C   0  0  0  0  0  0  0  0  0  0  0  0
  183.4850  179.7740  138.7910 C   0  0  0  0  0  2  0  0  0  0  0  0
  182.8180  177.1010  139.8320 O   0  0  0  0  0  0  0  0  0  0  0  0
  182.0470  179.7600  138.2850 C   0  0  0  0  0  2  0  0  0  0  0  0
  187.2940  177.1660  138.4510 C   0  0  0  0  0  1  0  0  0  0  0  0
  186.1110  177.3870  137.5220 C   0  0  2  0  0  3  0  0  0  0  0  0
  186.5250  177.5040  136.0460 C   0  0  1  0  0  3  0  0  0  0  0  0
  189.1020  178.1770  135.7240 C   0  0  0  0  0  3  0  0  0  0  0  0
  187.9410  177.8710  135.8690 C   0  0  0  0  0  0  0  0  0  0  0  0
  186.1940  176.2440  135.2550 C   0  0  0  0  0  2  0  0  0  0  0  0
  185.1010  172.9960  137.8560 C   0  0  0  0  0  3  0  0  0  0  0  0
  186.4150  173.0830  137.3940 C   0  0  0  0  0  3  0  0  0  0  0  0
  186.7990  174.1320  136.5430 C   0  0  0  0  0  0  0  0  0  0  0  0
  185.8500  175.1080  136.1720 C   0  0  0  0  0  0  0  0  0  0  0  0
  184.1600  173.9590  137.4770 C   0  0  0  0  0  3  0  0  0  0  0  0
  184.5340  175.0110  136.6370 C   0  0  0  0  0  3  0  0  0  0  0  0
  188.2090  174.1950  136.0400 C   0  0  2  0  0  3  0  0  0  0  0  0
  188.5450  173.0050  135.3940 O   0  0  0  0  0  1  0  0  0  0  0  0
  189.0910  174.4290  137.0960 O   0  0  0  0  0  0  0  0  0  0  0  0
  190.3820  175.0940  134.9210 O   0  0  0  0  0  0  0  0  0  0  0  0
  190.6000  174.7150  136.3690 P   0  0  0  0  0  0  0  0  0  0  0  0
  191.3910  175.9880  137.1620 O   0  0  0  0  0  1  0  0  0  0  0  0
  191.5600  173.3200  136.4440 O   0  0  0  0  0  1  0  0  0  0  0  0
  181.7990  179.0660  141.5480 C   0  0  1  0  0  3  0  0  0  0  0  0
  180.8440  179.2180  142.7450 C   0  0  1  0  0  3  0  0  0  0  0  0
  181.3220  178.4900  143.9910 C   0  0  0  0  0  1  0  0  0  0  0  0
  180.6250  180.5670  143.0280 O   0  0  0  0  0  0  0  0  0  0  0  0
  179.6090  180.9080  142.2640 O   0  0  0  0  0  1  0  0  0  0  0  0
  182.9980  178.1480  141.8230 C   0  0  0  0  0  2  0  0  0  0  0  0
  184.2370  178.9250  142.2350 C   0  0  0  0  0  2  0  0  0  0  0  0
  185.4750  178.2680  141.6580 C   0  0  0  0  0  2  0  0  0  0  0  0
  186.7120  179.0210  142.1150 C   0  0  0  0  0  2  0  0  0  0  0  0
  187.9600  177.0960  141.4580 O   0  0  0  0  0  1  0  0  0  0  0  0
  187.8640  178.0790  142.4350 C   0  0  2  0  0  3  0  0  0  0  0  0
  190.0970  178.7690  144.5130 S   0  0  0  0  0  0  0  0  0  0  0  0
  190.7300  177.4280  143.5320 C   0  0  0  0  0  0  0  0  0  0  0  0
  187.6060  177.4100  143.7860 C   0  0  1  0  0  3  0  0  0  0  0  0
  188.6720  176.3890  144.2350 C   0  0  2  0  0  3  0  0  0  0  0  0
  188.6050  177.7660  144.8820 C   0  0  1  0  0  0  0  0  0  0  0  0
  189.9450  176.3650  143.4410 C   0  0  0  0  0  0  0  0  0  0  0  0
  190.2880  175.2580  142.6710 O   0  0  0  0  0  1  0  0  0  0  0  0
  188.4760  178.0190  148.7490 C   0  0  0  0  0  1  0  0  0  0  0  0
  188.0580  177.7880  146.2710 C   0  0  0  0  0  0  0  0  0  0  0  0
  186.8170  177.6540  146.4720 O   0  0  0  0  0  0  0  0  0  0  0  0
  188.9530  177.9410  147.3730 N   0  0  0  0  0  2  0  0  0  0  0  0
  191.8120  177.7000  141.4600 F   0  0  0  0  0  0  0  0  0  0  0  0
  192.0350  177.5420  142.8160 C   0  0  0  0  0  2  0  0  0  0  0  0
  180.5750  176.3040  140.1220 C   0  0  0  0  0  2  0  0  0  0  0  0
  180.2990  174.9940  138.3690 C   0  0  0  0  0  1  0  0  0  0  0  0
  179.6370  175.9350  139.1580 O   0  0  0  0  0  0  0  0  0  0  0  0
  1  8  1  0  0  0  0
  2  8  1  0  0  0  0
  2 53  1  1  0  0  0
  2  5  1  0  0  0  0
  3  6  2  0  0  0  0
  4  5  1  0  0  0  0
  5 29  1  1  0  0  0
  6  1  1  0  0  0  0
  6  7  1  0  0  0  0
  9  7  1  0  0  0  0
  9  4  1  0  0  0  0
 11  3  1  0  0  0  0
 11 10  1  1  0  0  0
 12 15  1  6  0  0  0
 12 11  1  0  0  0  0
 13 14  3  0  0  0  0
 14 12  1  0  0  0  0
 15 19  1  0  0  0  0
 17 16  2  0  0  0  0
 18 17  1  0  0  0  0
 19 18  2  0  0  0  0
 19 21  1  0  0  0  0
 20 16  1  0  0  0  0
 21 20  2  0  0  0  0
 22 23  1  1  0  0  0
 22 18  1  0  0  0  0
 22 24  1  0  0  0  0
 25 26  2  0  0  0  0
 26 28  1  0  0  0  0
 26 24  1  0  0  0  0
 26 27  1  0  0  0  0
 29 34  1  1  0  0  0
 29 30  1  0  0  0  0
 30 32  1  0  0  0  0
 30 31  1  1  0  0  0
 33 32  1  0  0  0  0
 34 35  1  0  0  0  0
 36 37  1  0  0  0  0
 36 35  1  0  0  0  0
 37 39  1  0  0  0  0
 39 38  1  6  0  0  0
 40 44  1  0  0  0  0
 41 40  1  0  0  0  0
 42 39  1  6  0  0  0
 42 43  1  0  0  0  0
 42 44  1  0  0  0  0
 43 45  1  6  0  0  0
 43 44  1  0  0  0  0
 44 48  1  1  0  0  0
 45 41  2  0  0  0  0
 46 45  1  0  0  0  0
 48 49  2  0  0  0  0
 48 50  1  0  0  0  0
 50 47  1  0  0  0  0
 51 52  1  0  0  0  0
 52 41  1  0  0  0  0
 54 55  1  0  0  0  0
 55 53  1  0  0  0  0
M  END
>  <MODEL>
1

>  <REMARK>
 VINA RESULT:      -6.4      0.000      0.000
  Name = 
  21 active torsions:
  status: ('A' for Active; 'I' for Inactive)
    1  A    between atoms: C_1  and  O_6
    2  A    between atoms: C_1  and  C_7
    3  A    between atoms: C_2  and  C_14
    4  A    between atoms: C_2  and  O_16
    5  A    between atoms: C_7  and  C_38
    6  A    between atoms: C_7  and  C_49
    7  A    between atoms: C_12  and  C_34
    8  A    between atoms: C_12  and  C_49
    9  A    between atoms: C_13  and  C_32
   10  A    between atoms: C_15  and  C_24
   11  A    between atoms: C_17  and  C_46
   12  A    between atoms: C_21  and  O_28
   13  A    between atoms: C_21  and  C_36
   14  A    between atoms: C_23  and  C_32
   15  A    between atoms: C_23  and  C_43
   16  A    between atoms: P_25  and  O_28
   17  A    between atoms: C_26  and  C_45
   18  A    between atoms: N_30  and  C_37
   19  A    between atoms: C_32  and  C_37
   20  A    between atoms: C_34  and  C_47
   21  A    between atoms: C_45  and  C_47
                            x       y       z     vdW  Elec       q    Type
                         _______ _______ _______ _____ _____    ______ ____

>  <TORSDO>
F 21

$$$$
=
 OpenBabel11062415093D

 55 58  0  0  1  0  0  0  0  0999 V2000
  184.3400  176.7680  136.6930 C   0  0  0  0  0  2  0  0  0  0  0  0
  186.0520  176.6160  135.2730 C   0  0  1  0  0  3  0  0  0  0  0  0
  182.9060  175.2980  138.0170 N   0  0  0  0  0  0  0  0  0  0  0  0
  185.8760  174.1840  134.5940 O   0  0  0  0  0  0  0  0  0  0  0  0
  186.7250  175.2390  135.0420 C   0  0  2  0  0  3  0  0  0  0  0  0
  183.8430  175.4130  137.1420 C   0  0  0  0  0  0  0  0  0  0  0  0
  184.4080  174.1640  136.5320 C   0  0  0  0  0  2  0  0  0  0  0  0
  185.7350  176.7920  136.6300 O   0  0  0  0  0  0  0  0  0  0  0  0
  184.5420  174.3320  135.0230 C   0  0  0  0  0  2  0  0  0  0  0  0
  182.6100  176.4710  140.1250 C   0  0  0  0  0  1  0  0  0  0  0  0
  182.2620  176.4300  138.6460 C   0  0  2  0  0  3  0  0  0  0  0  0
  180.7460  176.4090  138.3900 C   0  0  1  0  0  3  0  0  0  0  0  0
  179.6430  174.0000  138.8080 C   0  0  0  0  0  3  0  0  0  0  0  0
  180.1390  175.0860  138.6210 C   0  0  0  0  0  0  0  0  0  0  0  0
  180.0140  177.4830  139.1860 C   0  0  0  0  0  2  0  0  0  0  0  0
  180.7730  181.3600  137.4840 C   0  0  0  0  0  3  0  0  0  0  0  0
  180.4430  181.2640  138.8370 C   0  0  0  0  0  3  0  0  0  0  0  0
  180.1900  180.0120  139.4180 C   0  0  0  0  0  0  0  0  0  0  0  0
  180.2870  178.8470  138.6270 C   0  0  0  0  0  0  0  0  0  0  0  0
  180.8570  180.2040  136.7010 C   0  0  0  0  0  3  0  0  0  0  0  0
  180.6140  178.9520  137.2710 C   0  0  0  0  0  3  0  0  0  0  0  0
  179.8150  179.9330  140.8670 C   0  0  2  0  0  3  0  0  0  0  0  0
  179.1710  181.1050  141.2640 O   0  0  0  0  0  1  0  0  0  0  0  0
  180.9510  179.7260  141.6500 O   0  0  0  0  0  0  0  0  0  0  0  0
  181.5680  178.7150  143.9820 O   0  0  0  0  0  1  0  0  0  0  0  0
  180.3900  178.9840  143.0720 P   0  0  0  0  0  0  0  0  0  0  0  0
  179.3000  180.0120  143.8670 O   0  0  0  0  0  1  0  0  0  0  0  0
  179.6200  177.5200  142.7050 O   0  0  0  0  0  0  0  0  0  0  0  0
  187.6410  174.7840  136.2010 C   0  0  1  0  0  3  0  0  0  0  0  0
  188.0930  173.3170  136.1080 C   0  0  1  0  0  3  0  0  0  0  0  0
  189.2000  173.0930  135.0900 C   0  0  0  0  0  1  0  0  0  0  0  0
  188.4890  172.8460  137.3610 O   0  0  0  0  0  0  0  0  0  0  0  0
  187.7260  171.7960  137.5790 O   0  0  0  0  0  1  0  0  0  0  0  0
  188.7800  175.7680  136.5040 C   0  0  0  0  0  2  0  0  0  0  0  0
  188.7990  176.1980  137.9600 C   0  0  0  0  0  2  0  0  0  0  0  0
  189.9880  177.1020  138.2160 C   0  0  0  0  0  2  0  0  0  0  0  0
  189.7540  177.9050  139.4840 C   0  0  0  0  0  2  0  0  0  0  0  0
  190.8560  175.9810  140.3680 O   0  0  0  0  0  1  0  0  0  0  0  0
  190.1660  177.1320  140.7290 C   0  0  2  0  0  3  0  0  0  0  0  0
  189.6170  179.0850  143.1090 S   0  0  0  0  0  0  0  0  0  0  0  0
  190.8250  177.9200  143.6940 C   0  0  0  0  0  0  0  0  0  0  0  0
  188.9140  176.7340  141.5110 C   0  0  1  0  0  3  0  0  0  0  0  0
  189.1490  176.3400  142.9850 C   0  0  2  0  0  3  0  0  0  0  0  0
  188.5270  177.6870  142.6380 C   0  0  1  0  0  0  0  0  0  0  0  0
  190.5070  176.6420  143.5440 C   0  0  0  0  0  0  0  0  0  0  0  0
  191.3740  175.6180  143.9130 O   0  0  0  0  0  1  0  0  0  0  0  0
  184.8080  178.7070  142.2400 C   0  0  0  0  0  1  0  0  0  0  0  0
  187.0640  177.7990  142.9130 C   0  0  0  0  0  0  0  0  0  0  0  0
  186.5530  177.2100  143.9090 O   0  0  0  0  0  0  0  0  0  0  0  0
  186.2500  178.5960  142.0530 N   0  0  0  0  0  2  0  0  0  0  0  0
  192.0990  179.7420  144.4660 F   0  0  0  0  0  0  0  0  0  0  0  0
  192.1320  178.3750  144.2540 C   0  0  0  0  0  2  0  0  0  0  0  0
  186.9580  177.7380  134.7960 C   0  0  0  0  0  2  0  0  0  0  0  0
  187.5930  179.0900  136.4200 C   0  0  0  0  0  1  0  0  0  0  0  0
  186.6170  178.9290  135.4360 O   0  0  0  0  0  0  0  0  0  0  0  0
  1  6  1  0  0  0  0
  2 53  1  1  0  0  0
  2  8  1  0  0  0  0
  3 11  1  0  0  0  0
  4  9  1  0  0  0  0
  4  5  1  0  0  0  0
  5  2  1  0  0  0  0
  5 29  1  1  0  0  0
  6  3  2  0  0  0  0
  7  6  1  0  0  0  0
  8  1  1  0  0  0  0
  9  7  1  0  0  0  0
 11 10  1  1  0  0  0
 12 14  1  1  0  0  0
 12 11  1  0  0  0  0
 12 15  1  0  0  0  0
 14 13  3  0  0  0  0
 16 17  1  0  0  0  0
 17 18  2  0  0  0  0
 18 22  1  0  0  0  0
 19 15  1  0  0  0  0
 19 18  1  0  0  0  0
 20 21  1  0  0  0  0
 20 16  2  0  0  0  0
 21 19  2  0  0  0  0
 22 23  1  1  0  0  0
 22 24  1  0  0  0  0
 24 26  1  0  0  0  0
 26 27  1  0  0  0  0
 26 25  1  0  0  0  0
 28 26  2  0  0  0  0
 29 34  1  6  0  0  0
 30 31  1  6  0  0  0
 30 29  1  0  0  0  0
 30 32  1  0  0  0  0
 32 33  1  0  0  0  0
 34 35  1  0  0  0  0
 35 36  1  0  0  0  0
 36 37  1  0  0  0  0
 37 39  1  0  0  0  0
 39 38  1  6  0  0  0
 40 41  1  0  0  0  0
 41 52  1  0  0  0  0
 42 39  1  6  0  0  0
 42 44  1  0  0  0  0
 42 43  1  0  0  0  0
 43 45  1  6  0  0  0
 44 48  1  1  0  0  0
 44 43  1  0  0  0  0
 44 40  1  0  0  0  0
 45 41  2  0  0  0  0
 45 46  1  0  0  0  0
 48 49  2  0  0  0  0
 50 47  1  0  0  0  0
 50 48  1  0  0  0  0
 52 51  1  0  0  0  0
 53 55  1  0  0  0  0
 55 54  1  0  0  0  0
M  END
>  <MODEL>
2

>  <REMARK>
 VINA RESULT:      -5.8      2.955      7.977
  Name = 
  21 active torsions:
  status: ('A' for Active; 'I' for Inactive)
    1  A    between atoms: C_1  and  O_6
    2  A    between atoms: C_1  and  C_7
    3  A    between atoms: C_2  and  C_14
    4  A    between atoms: C_2  and  O_16
    5  A    between atoms: C_7  and  C_38
    6  A    between atoms: C_7  and  C_49
    7  A    between atoms: C_12  and  C_34
    8  A    between atoms: C_12  and  C_49
    9  A    between atoms: C_13  and  C_32
   10  A    between atoms: C_15  and  C_24
   11  A    between atoms: C_17  and  C_46
   12  A    between atoms: C_21  and  O_28
   13  A    between atoms: C_21  and  C_36
   14  A    between atoms: C_23  and  C_32
   15  A    between atoms: C_23  and  C_43
   16  A    between atoms: P_25  and  O_28
   17  A    between atoms: C_26  and  C_45
   18  A    between atoms: N_30  and  C_37
   19  A    between atoms: C_32  and  C_37
   20  A    between atoms: C_34  and  C_47
   21  A    between atoms: C_45  and  C_47
                            x       y       z     vdW  Elec       q    Type
                         _______ _______ _______ _____ _____    ______ ____

>  <TORSDO>
F 21

$$$$
=
 OpenBabel11062415093D

 55 58  0  0  1  0  0  0  0  0999 V2000
  189.9700  178.0280  141.7640 C   0  0  0  0  0  2  0  0  0  0  0  0
  190.2290  178.3340  143.9580 C   0  0  1  0  0  3  0  0  0  0  0  0
  189.1850  176.3020  140.2230 N   0  0  0  0  0  0  0  0  0  0  0  0
  190.1750  175.9380  144.7700 O   0  0  0  0  0  0  0  0  0  0  0  0
  189.6850  177.2670  144.9410 C   0  0  2  0  0  3  0  0  0  0  0  0
  189.4640  176.6430  141.4330 C   0  0  0  0  0  0  0  0  0  0  0  0
  189.3210  175.6150  142.5160 C   0  0  0  0  0  2  0  0  0  0  0  0
  189.3300  178.5350  142.8980 O   0  0  0  0  0  0  0  0  0  0  0  0
  190.5350  175.6520  143.4380 C   0  0  0  0  0  2  0  0  0  0  0  0
  187.9900  177.8770  138.8100 C   0  0  0  0  0  1  0  0  0  0  0  0
  189.3190  177.1960  139.0940 C   0  0  2  0  0  3  0  0  0  0  0  0
  189.8820  176.4540  137.8720 C   0  0  1  0  0  3  0  0  0  0  0  0
  189.4730  177.7570  135.5630 C   0  0  0  0  0  3  0  0  0  0  0  0
  189.6550  177.1700  136.6040 C   0  0  0  0  0  0  0  0  0  0  0  0
  191.3570  176.1100  138.0380 C   0  0  0  0  0  2  0  0  0  0  0  0
  192.3100  172.6530  135.6610 C   0  0  0  0  0  3  0  0  0  0  0  0
  193.3460  173.4690  136.1200 C   0  0  0  0  0  3  0  0  0  0  0  0
  193.0640  174.6030  136.8970 C   0  0  0  0  0  0  0  0  0  0  0  0
  191.7240  174.9050  137.2240 C   0  0  0  0  0  0  0  0  0  0  0  0
  190.9840  172.9620  135.9780 C   0  0  0  0  0  3  0  0  0  0  0  0
  190.6930  174.0840  136.7570 C   0  0  0  0  0  3  0  0  0  0  0  0
  194.1880  175.4780  137.3610 C   0  0  2  0  0  3  0  0  0  0  0  0
  194.2020  176.6710  136.6380 O   0  0  0  0  0  1  0  0  0  0  0  0
  195.4090  174.8180  137.2140 O   0  0  0  0  0  0  0  0  0  0  0  0
  195.3760  173.0720  139.1610 O   0  0  0  0  0  1  0  0  0  0  0  0
  195.9100  174.4380  138.7920 P   0  0  0  0  0  0  0  0  0  0  0  0
  197.6040  174.4080  138.8670 O   0  0  0  0  0  0  0  0  0  0  0  0
  195.3170  175.5870  139.8880 O   0  0  0  0  0  1  0  0  0  0  0  0
  188.1500  177.2950  145.1150 C   0  0  1  0  0  3  0  0  0  0  0  0
  187.6840  177.5020  146.5660 C   0  0  1  0  0  3  0  0  0  0  0  0
  188.8300  177.5470  147.5640 C   0  0  0  0  0  1  0  0  0  0  0  0
  186.9080  178.6580  146.6710 O   0  0  0  0  0  0  0  0  0  0  0  0
  185.7280  178.2320  147.0680 O   0  0  0  0  0  1  0  0  0  0  0  0
  187.4350  178.1940  144.0980 C   0  0  0  0  0  2  0  0  0  0  0  0
  186.2020  177.5320  143.5070 C   0  0  0  0  0  2  0  0  0  0  0  0
  185.0350  178.4970  143.5320 C   0  0  0  0  0  2  0  0  0  0  0  0
  184.7470  178.9840  142.1220 C   0  0  0  0  0  2  0  0  0  0  0  0
  182.5430  178.4090  142.8360 O   0  0  0  0  0  1  0  0  0  0  0  0
  183.3030  178.7250  141.7160 C   0  0  2  0  0  3  0  0  0  0  0  0
  182.7990  179.6720  138.7790 S   0  0  0  0  0  0  0  0  0  0  0  0
  181.2010  179.5910  139.5540 C   0  0  0  0  0  0  0  0  0  0  0  0
  183.2590  177.5470  140.7410 C   0  0  1  0  0  3  0  0  0  0  0  0
  181.9140  177.3360  140.0160 C   0  0  2  0  0  3  0  0  0  0  0  0
  183.1030  177.9310  139.2730 C   0  0  1  0  0  0  0  0  0  0  0  0
  180.9090  178.4420  140.1450 C   0  0  0  0  0  0  0  0  0  0  0  0
  179.7140  178.2470  140.8310 O   0  0  0  0  0  1  0  0  0  0  0  0
  185.3560  176.7160  136.3620 C   0  0  0  0  0  1  0  0  0  0  0  0
  183.7620  177.0170  138.2940 C   0  0  0  0  0  0  0  0  0  0  0  0
  183.5250  175.7750  138.3190 O   0  0  0  0  0  0  0  0  0  0  0  0
  184.6460  177.5620  137.3140 N   0  0  0  0  0  2  0  0  0  0  0  0
  180.0840  181.1770  140.8870 F   0  0  0  0  0  0  0  0  0  0  0  0
  180.2920  180.7760  139.5800 C   0  0  0  0  0  2  0  0  0  0  0  0
  190.4860  179.6440  144.6820 C   0  0  0  0  0  2  0  0  0  0  0  0
  192.5060  178.9490  144.1310 C   0  0  0  0  0  1  0  0  0  0  0  0
  191.7700  180.1050  144.3930 O   0  0  0  0  0  0  0  0  0  0  0  0
  1  8  1  0  0  0  0
  2 53  1  1  0  0  0
  2  5  1  0  0  0  0
  3  6  2  0  0  0  0
  4  5  1  0  0  0  0
  5 29  1  6  0  0  0
  6  1  1  0  0  0  0
  6  7  1  0  0  0  0
  7  9  1  0  0  0  0
  8  2  1  0  0  0  0
  9  4  1  0  0  0  0
 11 10  1  6  0  0  0
 11  3  1  0  0  0  0
 12 14  1  6  0  0  0
 12 15  1  0  0  0  0
 12 11  1  0  0  0  0
 13 14  3  0  0  0  0
 16 20  2  0  0  0  0
 16 17  1  0  0  0  0
 17 18  2  0  0  0  0
 18 19  1  0  0  0  0
 18 22  1  0  0  0  0
 19 15  1  0  0  0  0
 20 21  1  0  0  0  0
 21 19  2  0  0  0  0
 22 23  1  6  0  0  0
 24 22  1  0  0  0  0
 24 26  1  0  0  0  0
 26 27  2  0  0  0  0
 26 25  1  0  0  0  0
 26 28  1  0  0  0  0
 29 34  1  6  0  0  0
 29 30  1  0  0  0  0
 30 32  1  0  0  0  0
 30 31  1  1  0  0  0
 32 33  1  0  0  0  0
 35 36  1  0  0  0  0
 35 34  1  0  0  0  0
 37 36  1  0  0  0  0
 39 37  1  0  0  0  0
 39 38  1  1  0  0  0
 40 44  1  0  0  0  0
 40 41  1  0  0  0  0
 41 52  1  0  0  0  0
 41 45  2  0  0  0  0
 42 39  1  1  0  0  0
 43 45  1  1  0  0  0
 43 42  1  0  0  0  0
 44 48  1  6  0  0  0
 44 43  1  0  0  0  0
 44 42  1  0  0  0  0
 45 46  1  0  0  0  0
 47 50  1  0  0  0  0
 48 49  2  0  0  0  0
 50 48  1  0  0  0  0
 52 51  1  0  0  0  0
 54 55  1  0  0  0  0
 55 53  1  0  0  0  0
M  END
>  <MODEL>
3

>  <REMARK>
 VINA RESULT:      -5.8      3.533      8.042
  Name = 
  21 active torsions:
  status: ('A' for Active; 'I' for Inactive)
    1  A    between atoms: C_1  and  O_6
    2  A    between atoms: C_1  and  C_7
    3  A    between atoms: C_2  and  C_14
    4  A    between atoms: C_2  and  O_16
    5  A    between atoms: C_7  and  C_38
    6  A    between atoms: C_7  and  C_49
    7  A    between atoms: C_12  and  C_34
    8  A    between atoms: C_12  and  C_49
    9  A    between atoms: C_13  and  C_32
   10  A    between atoms: C_15  and  C_24
   11  A    between atoms: C_17  and  C_46
   12  A    between atoms: C_21  and  O_28
   13  A    between atoms: C_21  and  C_36
   14  A    between atoms: C_23  and  C_32
   15  A    between atoms: C_23  and  C_43
   16  A    between atoms: P_25  and  O_28
   17  A    between atoms: C_26  and  C_45
   18  A    between atoms: N_30  and  C_37
   19  A    between atoms: C_32  and  C_37
   20  A    between atoms: C_34  and  C_47
   21  A    between atoms: C_45  and  C_47
                            x       y       z     vdW  Elec       q    Type
                         _______ _______ _______ _____ _____    ______ ____

>  <TORSDO>
F 21

$$$$
=
 OpenBabel11062415093D

 55 58  0  0  1  0  0  0  0  0999 V2000
  188.7150  176.7200  137.7240 C   0  0  0  0  0  2  0  0  0  0  0  0
  188.2410  175.6170  135.8450 C   0  0  1  0  0  3  0  0  0  0  0  0
  187.7810  178.5150  139.0940 N   0  0  0  0  0  0  0  0  0  0  0  0
  186.6040  177.2180  134.7680 O   0  0  0  0  0  0  0  0  0  0  0  0
  186.8840  175.8690  135.1400 C   0  0  2  0  0  3  0  0  0  0  0  0
  187.7150  177.8160  138.0160 C   0  0  0  0  0  0  0  0  0  0  0  0
  186.6430  178.1410  137.0180 C   0  0  0  0  0  2  0  0  0  0  0  0
  188.0750  175.5770  137.2390 O   0  0  0  0  0  0  0  0  0  0  0  0
  187.2270  178.1610  135.6090 C   0  0  0  0  0  2  0  0  0  0  0  0
  189.5270  177.0090  139.8630 C   0  0  0  0  0  1  0  0  0  0  0  0
  188.7910  178.3160  140.1100 C   0  0  2  0  0  3  0  0  0  0  0  0
  188.1760  178.3980  141.5160 C   0  0  1  0  0  3  0  0  0  0  0  0
  185.6070  179.1700  141.5030 C   0  0  0  0  0  3  0  0  0  0  0  0
  186.7650  178.8230  141.5070 C   0  0  0  0  0  0  0  0  0  0  0  0
  188.3400  177.0970  142.2920 C   0  0  0  0  0  2  0  0  0  0  0  0
  190.9720  177.6880  145.6430 C   0  0  0  0  0  3  0  0  0  0  0  0
  189.5980  177.5870  145.8680 C   0  0  0  0  0  3  0  0  0  0  0  0
  188.7170  177.3940  144.7920 C   0  0  0  0  0  0  0  0  0  0  0  0
  189.2310  177.2880  143.4820 C   0  0  0  0  0  0  0  0  0  0  0  0
  191.4770  177.5930  144.3420 C   0  0  0  0  0  3  0  0  0  0  0  0
  190.6090  177.3940  143.2660 C   0  0  0  0  0  3  0  0  0  0  0  0
  187.2430  177.3110  145.0520 C   0  0  2  0  0  3  0  0  0  0  0  0
  186.6160  176.5760  144.0460 O   0  0  0  0  0  1  0  0  0  0  0  0
  186.6900  178.5900  145.1230 O   0  0  0  0  0  0  0  0  0  0  0  0
  186.2040  177.4500  147.4260 O   0  0  0  0  0  1  0  0  0  0  0  0
  185.7720  178.6070  146.5520 P   0  0  0  0  0  0  0  0  0  0  0  0
  186.0320  180.0590  147.3890 O   0  0  0  0  0  1  0  0  0  0  0  0
  184.1230  178.4510  146.1920 O   0  0  0  0  0  0  0  0  0  0  0  0
  185.6780  175.2040  135.8390 C   0  0  1  0  0  3  0  0  0  0  0  0
  185.8990  173.7260  136.2050 C   0  0  1  0  0  3  0  0  0  0  0  0
  184.9860  173.2400  137.3180 C   0  0  0  0  0  1  0  0  0  0  0  0
  185.7580  172.9150  135.0770 O   0  0  0  0  0  0  0  0  0  0  0  0
  185.8760  171.6860  135.5330 O   0  0  0  0  0  1  0  0  0  0  0  0
  185.0900  176.0450  136.9790 C   0  0  0  0  0  2  0  0  0  0  0  0
  183.7570  176.6710  136.6070 C   0  0  0  0  0  2  0  0  0  0  0  0
  182.6630  176.1300  137.5040 C   0  0  0  0  0  2  0  0  0  0  0  0
  182.9300  176.5460  138.9400 C   0  0  0  0  0  2  0  0  0  0  0  0
  181.2170  175.2340  139.9610 O   0  0  0  0  0  1  0  0  0  0  0  0
  181.6590  176.5390  139.7790 C   0  0  2  0  0  3  0  0  0  0  0  0
  181.8020  179.5870  140.4610 S   0  0  0  0  0  0  0  0  0  0  0  0
  180.9000  178.8250  141.7890 C   0  0  0  0  0  0  0  0  0  0  0  0
  180.5730  177.3330  139.0530 C   0  0  1  0  0  3  0  0  0  0  0  0
  179.5420  178.0330  139.9630 C   0  0  2  0  0  3  0  0  0  0  0  0
  180.6280  178.8420  139.2640 C   0  0  1  0  0  0  0  0  0  0  0  0
  179.8690  178.0770  141.4250 C   0  0  0  0  0  0  0  0  0  0  0  0
  179.0990  177.3810  142.3530 O   0  0  0  0  0  1  0  0  0  0  0  0
  180.7160  180.9530  136.0130 C   0  0  0  0  0  1  0  0  0  0  0  0
  180.1590  179.6720  138.1140 C   0  0  0  0  0  0  0  0  0  0  0  0
  178.9310  179.9400  137.9770 O   0  0  0  0  0  0  0  0  0  0  0  0
  181.1150  180.1780  137.1820 N   0  0  0  0  0  2  0  0  0  0  0  0
  182.4220  179.8340  143.2740 F   0  0  0  0  0  0  0  0  0  0  0  0
  181.3350  178.9810  143.2090 C   0  0  0  0  0  2  0  0  0  0  0  0
  188.8640  174.3210  135.3540 C   0  0  0  0  0  2  0  0  0  0  0  0
  190.7380  173.7180  136.3490 C   0  0  0  0  0  1  0  0  0  0  0  0
  189.3520  173.5870  136.4350 O   0  0  0  0  0  0  0  0  0  0  0  0
  1  6  1  0  0  0  0
  2 53  1  6  0  0  0
  2  8  1  0  0  0  0
  3 11  1  0  0  0  0
  4  5  1  0  0  0  0
  4  9  1  0  0  0  0
  5 29  1  1  0  0  0
  5  2  1  0  0  0  0
  6  3  2  0  0  0  0
  7  6  1  0  0  0  0
  8  1  1  0  0  0  0
  9  7  1  0  0  0  0
 11 10  1  6  0  0  0
 11 12  1  0  0  0  0
 12 14  1  6  0  0  0
 12 15  1  0  0  0  0
 13 14  3  0  0  0  0
 15 19  1  0  0  0  0
 16 17  1  0  0  0  0
 18 22  1  0  0  0  0
 18 17  2  0  0  0  0
 19 18  1  0  0  0  0
 20 16  2  0  0  0  0
 21 19  2  0  0  0  0
 21 20  1  0  0  0  0
 22 23  1  6  0  0  0
 22 24  1  0  0  0  0
 24 26  1  0  0  0  0
 26 27  1  0  0  0  0
 26 25  1  0  0  0  0
 28 26  2  0  0  0  0
 29 30  1  0  0  0  0
 29 34  1  1  0  0  0
 30 31  1  1  0  0  0
 32 33  1  0  0  0  0
 32 30  1  0  0  0  0
 35 34  1  0  0  0  0
 35 36  1  0  0  0  0
 36 37  1  0  0  0  0
 37 39  1  0  0  0  0
 39 38  1  6  0  0  0
 40 41  1  0  0  0  0
 41 52  1  0  0  0  0
 42 44  1  0  0  0  0
 42 39  1  1  0  0  0
 42 43  1  0  0  0  0
 43 45  1  1  0  0  0
 44 48  1  6  0  0  0
 44 43  1  0  0  0  0
 44 40  1  0  0  0  0
 45 41  2  0  0  0  0
 45 46  1  0  0  0  0
 47 50  1  0  0  0  0
 49 48  2  0  0  0  0
 50 48  1  0  0  0  0
 52 51  1  0  0  0  0
 53 55  1  0  0  0  0
 54 55  1  0  0  0  0
M  END
>  <MODEL>
4

>  <REMARK>
 VINA RESULT:      -5.8      3.218      9.247
  Name = 
  21 active torsions:
  status: ('A' for Active; 'I' for Inactive)
    1  A    between atoms: C_1  and  O_6
    2  A    between atoms: C_1  and  C_7
    3  A    between atoms: C_2  and  C_14
    4  A    between atoms: C_2  and  O_16
    5  A    between atoms: C_7  and  C_38
    6  A    between atoms: C_7  and  C_49
    7  A    between atoms: C_12  and  C_34
    8  A    between atoms: C_12  and  C_49
    9  A    between atoms: C_13  and  C_32
   10  A    between atoms: C_15  and  C_24
   11  A    between atoms: C_17  and  C_46
   12  A    between atoms: C_21  and  O_28
   13  A    between atoms: C_21  and  C_36
   14  A    between atoms: C_23  and  C_32
   15  A    between atoms: C_23  and  C_43
   16  A    between atoms: P_25  and  O_28
   17  A    between atoms: C_26  and  C_45
   18  A    between atoms: N_30  and  C_37
   19  A    between atoms: C_32  and  C_37
   20  A    between atoms: C_34  and  C_47
   21  A    between atoms: C_45  and  C_47
                            x       y       z     vdW  Elec       q    Type
                         _______ _______ _______ _____ _____    ______ ____

>  <TORSDO>
F 21

$$$$
=
 OpenBabel11062415093D

 55 58  0  0  1  0  0  0  0  0999 V2000
  189.9460  178.1040  141.4890 C   0  0  0  0  0  2  0  0  0  0  0  0
  190.2080  178.4490  143.6760 C   0  0  1  0  0  3  0  0  0  0  0  0
  189.0210  176.4140  139.9860 N   0  0  0  0  0  0  0  0  0  0  0  0
  189.9230  176.0930  144.5540 O   0  0  0  0  0  0  0  0  0  0  0  0
  189.5570  177.4650  144.6810 C   0  0  2  0  0  3  0  0  0  0  0  0
  189.3160  176.7630  141.1890 C   0  0  0  0  0  0  0  0  0  0  0  0
  189.0670  175.7850  142.2990 C   0  0  0  0  0  2  0  0  0  0  0  0
  189.3430  178.7010  142.5990 O   0  0  0  0  0  0  0  0  0  0  0  0
  190.2690  175.7360  143.2360 C   0  0  0  0  0  2  0  0  0  0  0  0
  187.9610  177.9660  138.4440 C   0  0  0  0  0  1  0  0  0  0  0  0
  189.2490  177.2590  138.8350 C   0  0  2  0  0  3  0  0  0  0  0  0
  189.8610  176.4520  137.6770 C   0  0  1  0  0  3  0  0  0  0  0  0
  189.6020  177.6590  135.2960 C   0  0  0  0  0  3  0  0  0  0  0  0
  189.7180  177.1170  136.3700 C   0  0  0  0  0  0  0  0  0  0  0  0
  191.3170  176.0880  137.9380 C   0  0  0  0  0  2  0  0  0  0  0  0
  192.3810  172.6340  135.6040 C   0  0  0  0  0  3  0  0  0  0  0  0
  193.3930  173.4690  136.0830 C   0  0  0  0  0  3  0  0  0  0  0  0
  193.0740  174.6030  136.8460 C   0  0  0  0  0  0  0  0  0  0  0  0
  191.7220  174.8850  137.1410 C   0  0  0  0  0  0  0  0  0  0  0  0
  191.0430  172.9230  135.8890 C   0  0  0  0  0  3  0  0  0  0  0  0
  190.7150  174.0440  136.6540 C   0  0  0  0  0  3  0  0  0  0  0  0
  194.1730  175.4990  137.3310 C   0  0  2  0  0  3  0  0  0  0  0  0
  194.1250  176.7250  136.6680 O   0  0  0  0  0  1  0  0  0  0  0  0
  195.4150  174.8960  137.1280 O   0  0  0  0  0  0  0  0  0  0  0  0
  195.3910  175.3730  139.6990 O   0  0  0  0  0  1  0  0  0  0  0  0
  195.9390  174.4100  138.6690 P   0  0  0  0  0  0  0  0  0  0  0  0
  195.3650  172.8510  139.0090 O   0  0  0  0  0  1  0  0  0  0  0  0
  197.6320  174.4160  138.7420 O   0  0  0  0  0  0  0  0  0  0  0  0
  188.0300  177.6410  144.8340 C   0  0  1  0  0  3  0  0  0  0  0  0
  187.5730  177.9660  146.2660 C   0  0  1  0  0  3  0  0  0  0  0  0
  186.0610  178.0120  146.4190 C   0  0  0  0  0  1  0  0  0  0  0  0
  188.1220  177.0580  147.1730 O   0  0  0  0  0  0  0  0  0  0  0  0
  188.7450  177.8070  148.0590 O   0  0  0  0  0  1  0  0  0  0  0  0
  187.4070  178.5460  143.7620 C   0  0  0  0  0  2  0  0  0  0  0  0
  186.2250  177.8910  143.0680 C   0  0  0  0  0  2  0  0  0  0  0  0
  185.8790  178.6550  141.8060 C   0  0  0  0  0  2  0  0  0  0  0  0
  184.4350  178.3790  141.4250 C   0  0  0  0  0  2  0  0  0  0  0  0
  184.9800  179.6530  139.4820 O   0  0  0  0  0  1  0  0  0  0  0  0
  184.1860  178.6100  139.9400 C   0  0  2  0  0  3  0  0  0  0  0  0
  182.3720  176.0680  139.7740 S   0  0  0  0  0  0  0  0  0  0  0  0
  183.0640  176.2890  138.1520 C   0  0  0  0  0  0  0  0  0  0  0  0
  182.7160  178.9760  139.7280 C   0  0  1  0  0  3  0  0  0  0  0  0
  182.0930  178.4810  138.4060 C   0  0  2  0  0  3  0  0  0  0  0  0
  181.7520  177.7940  139.7230 C   0  0  1  0  0  0  0  0  0  0  0  0
  182.9020  177.4920  137.6210 C   0  0  0  0  0  0  0  0  0  0  0  0
  183.4290  177.8260  136.3760 O   0  0  0  0  0  1  0  0  0  0  0  0
  178.9320  179.0950  142.0430 C   0  0  0  0  0  1  0  0  0  0  0  0
  180.3830  178.0760  140.2490 C   0  0  0  0  0  0  0  0  0  0  0  0
  179.3610  177.7070  139.6020 O   0  0  0  0  0  0  0  0  0  0  0  0
  180.2400  178.7480  141.5000 N   0  0  0  0  0  2  0  0  0  0  0  0
  183.1160  174.0120  137.5600 F   0  0  0  0  0  0  0  0  0  0  0  0
  183.8270  175.1960  137.4810 C   0  0  0  0  0  2  0  0  0  0  0  0
  190.5790  179.7500  144.3670 C   0  0  0  0  0  2  0  0  0  0  0  0
  192.4740  178.6380  144.1660 C   0  0  0  0  0  1  0  0  0  0  0  0
  191.9620  179.9240  144.3460 O   0  0  0  0  0  0  0  0  0  0  0  0
  1  8  1  0  0  0  0
  2 53  1  1  0  0  0
  2  5  1  0  0  0  0
  3  6  2  0  0  0  0
  4  5  1  0  0  0  0
  5 29  1  6  0  0  0
  6  1  1  0  0  0  0
  6  7  1  0  0  0  0
  7  9  1  0  0  0  0
  8  2  1  0  0  0  0
  9  4  1  0  0  0  0
 11 10  1  6  0  0  0
 11  3  1  0  0  0  0
 12 14  1  6  0  0  0
 12 15  1  0  0  0  0
 12 11  1  0  0  0  0
 13 14  3  0  0  0  0
 16 20  2  0  0  0  0
 16 17  1  0  0  0  0
 17 18  2  0  0  0  0
 18 19  1  0  0  0  0
 18 22  1  0  0  0  0
 19 15  1  0  0  0  0
 20 21  1  0  0  0  0
 21 19  2  0  0  0  0
 22 23  1  6  0  0  0
 24 22  1  0  0  0  0
 24 26  1  0  0  0  0
 26 28  2  0  0  0  0
 26 27  1  0  0  0  0
 26 25  1  0  0  0  0
 29 34  1  6  0  0  0
 29 30  1  0  0  0  0
 30 31  1  6  0  0  0
 30 32  1  0  0  0  0
 32 33  1  0  0  0  0
 35 34  1  0  0  0  0
 36 35  1  0  0  0  0
 37 36  1  0  0  0  0
 39 38  1  1  0  0  0
 39 37  1  0  0  0  0
 41 40  1  0  0  0  0
 42 39  1  6  0  0  0
 43 45  1  6  0  0  0
 43 44  1  0  0  0  0
 43 42  1  0  0  0  0
 44 42  1  0  0  0  0
 44 40  1  0  0  0  0
 44 48  1  1  0  0  0
 45 41  2  0  0  0  0
 46 45  1  0  0  0  0
 48 50  1  0  0  0  0
 49 48  2  0  0  0  0
 50 47  1  0  0  0  0
 52 51  1  0  0  0  0
 52 41  1  0  0  0  0
 54 55  1  0  0  0  0
 55 53  1  0  0  0  0
M  END
>  <MODEL>
5

>  <REMARK>
 VINA RESULT:      -5.7      3.550      7.875
  Name = 
  21 active torsions:
  status: ('A' for Active; 'I' for Inactive)
    1  A    between atoms: C_1  and  O_6
    2  A    between atoms: C_1  and  C_7
    3  A    between atoms: C_2  and  C_14
    4  A    between atoms: C_2  and  O_16
    5  A    between atoms: C_7  and  C_38
    6  A    between atoms: C_7  and  C_49
    7  A    between atoms: C_12  and  C_34
    8  A    between atoms: C_12  and  C_49
    9  A    between atoms: C_13  and  C_32
   10  A    between atoms: C_15  and  C_24
   11  A    between atoms: C_17  and  C_46
   12  A    between atoms: C_21  and  O_28
   13  A    between atoms: C_21  and  C_36
   14  A    between atoms: C_23  and  C_32
   15  A    between atoms: C_23  and  C_43
   16  A    between atoms: P_25  and  O_28
   17  A    between atoms: C_26  and  C_45
   18  A    between atoms: N_30  and  C_37
   19  A    between atoms: C_32  and  C_37
   20  A    between atoms: C_34  and  C_47
   21  A    between atoms: C_45  and  C_47
                            x       y       z     vdW  Elec       q    Type
                         _______ _______ _______ _____ _____    ______ ____

>  <TORSDO>
F 21

$$$$
=
 OpenBabel11062415093D

 55 58  0  0  1  0  0  0  0  0999 V2000
  189.1350  176.3050  138.0590 C   0  0  0  0  0  2  0  0  0  0  0  0
  187.8430  175.7110  136.3420 C   0  0  1  0  0  3  0  0  0  0  0  0
  189.8280  178.3350  139.2300 N   0  0  0  0  0  0  0  0  0  0  0  0
  187.6370  177.9220  135.1290 O   0  0  0  0  0  0  0  0  0  0  0  0
  186.9600  176.7810  135.6520 C   0  0  2  0  0  3  0  0  0  0  0  0
  189.1890  177.8050  138.2460 C   0  0  0  0  0  0  0  0  0  0  0  0
  188.5310  178.7110  137.2490 C   0  0  0  0  0  2  0  0  0  0  0  0
  187.8410  175.8890  137.7350 O   0  0  0  0  0  0  0  0  0  0  0  0
  188.8190  178.2290  135.8310 C   0  0  0  0  0  2  0  0  0  0  0  0
  191.1610  176.3360  139.5940 C   0  0  0  0  0  1  0  0  0  0  0  0
  190.5290  177.5630  140.2310 C   0  0  2  0  0  3  0  0  0  0  0  0
  189.5980  177.2140  141.4040 C   0  0  1  0  0  3  0  0  0  0  0  0
  190.5360  175.2200  142.9330 C   0  0  0  0  0  3  0  0  0  0  0  0
  190.1130  176.1200  142.2460 C   0  0  0  0  0  0  0  0  0  0  0  0
  189.2630  178.4340  142.2540 C   0  0  0  0  0  2  0  0  0  0  0  0
  185.4620  177.8810  144.1910 C   0  0  0  0  0  3  0  0  0  0  0  0
  186.6240  177.8810  144.9640 C   0  0  0  0  0  3  0  0  0  0  0  0
  187.8780  178.0580  144.3570 C   0  0  0  0  0  0  0  0  0  0  0  0
  187.9530  178.2530  142.9610 C   0  0  0  0  0  0  0  0  0  0  0  0
  185.5410  178.0630  142.8070 C   0  0  0  0  0  3  0  0  0  0  0  0
  186.7830  178.2480  142.1950 C   0  0  0  0  0  3  0  0  0  0  0  0
  189.1160  178.0330  145.2010 C   0  0  2  0  0  3  0  0  0  0  0  0
  190.1520  178.7110  144.5600 O   0  0  0  0  0  1  0  0  0  0  0  0
  189.4980  176.7160  145.4620 O   0  0  0  0  0  0  0  0  0  0  0  0
  191.8330  177.1060  146.5720 O   0  0  0  0  0  0  0  0  0  0  0  0
  190.3930  176.7820  146.9040 P   0  0  0  0  0  0  0  0  0  0  0  0
  189.7720  177.9950  147.9140 O   0  0  0  0  0  1  0  0  0  0  0  0
  190.3250  175.2900  147.7060 O   0  0  0  0  0  1  0  0  0  0  0  0
  185.7060  177.1790  136.4620 C   0  0  1  0  0  3  0  0  0  0  0  0
  184.3920  176.5950  135.9170 C   0  0  1  0  0  3  0  0  0  0  0  0
  183.9690  175.3120  136.6140 C   0  0  0  0  0  1  0  0  0  0  0  0
  183.3680  177.5420  135.9870 O   0  0  0  0  0  0  0  0  0  0  0  0
  182.3340  176.9580  135.4180 O   0  0  0  0  0  1  0  0  0  0  0  0
  185.8770  177.0140  137.9780 C   0  0  0  0  0  2  0  0  0  0  0  0
  185.5360  178.2820  138.7400 C   0  0  0  0  0  2  0  0  0  0  0  0
  184.2040  178.1200  139.4440 C   0  0  0  0  0  2  0  0  0  0  0  0
  183.4750  179.4520  139.4680 C   0  0  0  0  0  2  0  0  0  0  0  0
  182.1810  180.2160  137.6140 O   0  0  0  0  0  1  0  0  0  0  0  0
  182.1470  179.3860  138.7270 C   0  0  2  0  0  3  0  0  0  0  0  0
  180.8300  176.9920  140.2470 S   0  0  0  0  0  0  0  0  0  0  0  0
  180.0530  177.0510  138.6490 C   0  0  0  0  0  0  0  0  0  0  0  0
  181.0270  179.8540  139.6580 C   0  0  1  0  0  3  0  0  0  0  0  0
  179.6180  179.3250  139.3200 C   0  0  2  0  0  3  0  0  0  0  0  0
  180.3900  178.7550  140.5030 C   0  0  1  0  0  0  0  0  0  0  0  0
  179.5480  178.2260  138.3020 C   0  0  0  0  0  0  0  0  0  0  0  0
  178.9510  178.4340  137.0620 O   0  0  0  0  0  1  0  0  0  0  0  0
  179.5720  178.6440  144.2910 C   0  0  0  0  0  1  0  0  0  0  0  0
  179.8960  179.1790  141.8470 C   0  0  0  0  0  0  0  0  0  0  0  0
  179.3800  180.3220  142.0070 O   0  0  0  0  0  0  0  0  0  0  0  0
  179.9920  178.2720  142.9450 N   0  0  0  0  0  2  0  0  0  0  0  0
  180.1930  174.7060  138.5010 F   0  0  0  0  0  0  0  0  0  0  0  0
  180.0400  175.8590  137.7510 C   0  0  0  0  0  2  0  0  0  0  0  0
  187.3590  174.3140  135.9920 C   0  0  0  0  0  2  0  0  0  0  0  0
  189.1790  174.1290  134.7590 C   0  0  0  0  0  1  0  0  0  0  0  0
  188.4480  173.4780  135.7530 O   0  0  0  0  0  0  0  0  0  0  0  0
  1  6  1  0  0  0  0
  2 53  1  1  0  0  0
  2  8  1  0  0  0  0
  3 11  1  0  0  0  0
  4  5  1  0  0  0  0
  4  9  1  0  0  0  0
  5  2  1  0  0  0  0
  5 29  1  1  0  0  0
  6  3  2  0  0  0  0
  7  6  1  0  0  0  0
  8  1  1  0  0  0  0
  9  7  1  0  0  0  0
 11 10  1  6  0  0  0
 11 12  1  0  0  0  0
 12 14  1  1  0  0  0
 12 15  1  0  0  0  0
 14 13  3  0  0  0  0
 15 19  1  0  0  0  0
 16 17  1  0  0  0  0
 18 17  2  0  0  0  0
 18 22  1  0  0  0  0
 19 18  1  0  0  0  0
 20 16  2  0  0  0  0
 21 20  1  0  0  0  0
 21 19  2  0  0  0  0
 22 23  1  6  0  0  0
 22 24  1  0  0  0  0
 24 26  1  0  0  0  0
 25 26  2  0  0  0  0
 26 28  1  0  0  0  0
 26 27  1  0  0  0  0
 29 34  1  1  0  0  0
 30 32  1  0  0  0  0
 30 29  1  0  0  0  0
 30 31  1  1  0  0  0
 33 32  1  0  0  0  0
 34 35  1  0  0  0  0
 35 36  1  0  0  0  0
 36 37  1  0  0  0  0
 39 38  1  6  0  0  0
 39 37  1  0  0  0  0
 40 44  1  0  0  0  0
 41 40  1  0  0  0  0
 42 39  1  6  0  0  0
 42 44  1  0  0  0  0
 43 45  1  6  0  0  0
 43 42  1  0  0  0  0
 43 44  1  0  0  0  0
 44 48  1  1  0  0  0
 45 41  2  0  0  0  0
 46 45  1  0  0  0  0
 48 49  2  0  0  0  0
 48 50  1  0  0  0  0
 50 47  1  0  0  0  0
 52 51  1  0  0  0  0
 52 41  1  0  0  0  0
 54 55  1  0  0  0  0
 55 53  1  0  0  0  0
M  END
>  <MODEL>
6

>  <REMARK>
 VINA RESULT:      -5.3      3.537      8.602
  Name = 
  21 active torsions:
  status: ('A' for Active; 'I' for Inactive)
    1  A    between atoms: C_1  and  O_6
    2  A    between atoms: C_1  and  C_7
    3  A    between atoms: C_2  and  C_14
    4  A    between atoms: C_2  and  O_16
    5  A    between atoms: C_7  and  C_38
    6  A    between atoms: C_7  and  C_49
    7  A    between atoms: C_12  and  C_34
    8  A    between atoms: C_12  and  C_49
    9  A    between atoms: C_13  and  C_32
   10  A    between atoms: C_15  and  C_24
   11  A    between atoms: C_17  and  C_46
   12  A    between atoms: C_21  and  O_28
   13  A    between atoms: C_21  and  C_36
   14  A    between atoms: C_23  and  C_32
   15  A    between atoms: C_23  and  C_43
   16  A    between atoms: P_25  and  O_28
   17  A    between atoms: C_26  and  C_45
   18  A    between atoms: N_30  and  C_37
   19  A    between atoms: C_32  and  C_37
   20  A    between atoms: C_34  and  C_47
   21  A    between atoms: C_45  and  C_47
                            x       y       z     vdW  Elec       q    Type
                         _______ _______ _______ _____ _____    ______ ____

>  <TORSDO>
F 21

$$$$
=
 OpenBabel11062415093D

 55 58  0  0  1  0  0  0  0  0999 V2000
  189.2530  176.5180  137.7000 C   0  0  0  0  0  2  0  0  0  0  0  0
  188.4910  175.9020  135.6970 C   0  0  1  0  0  3  0  0  0  0  0  0
  188.5880  177.9500  139.5660 N   0  0  0  0  0  0  0  0  0  0  0  0
  186.8080  177.7400  135.2560 O   0  0  0  0  0  0  0  0  0  0  0  0
  187.0700  176.3370  135.2600 C   0  0  2  0  0  3  0  0  0  0  0  0
  188.3510  177.5290  138.3730 C   0  0  0  0  0  0  0  0  0  0  0  0
  187.1780  178.0990  137.6320 C   0  0  0  0  0  2  0  0  0  0  0  0
  188.5020  175.5340  137.0530 O   0  0  0  0  0  0  0  0  0  0  0  0
  187.5780  178.4450  136.2020 C   0  0  0  0  0  2  0  0  0  0  0  0
  190.4330  176.3700  139.6450 C   0  0  0  0  0  1  0  0  0  0  0  0
  189.7080  177.4990  140.3600 C   0  0  2  0  0  3  0  0  0  0  0  0
  189.2530  177.1110  141.7770 C   0  0  1  0  0  3  0  0  0  0  0  0
  190.8600  175.3110  142.9480 C   0  0  0  0  0  3  0  0  0  0  0  0
  190.1370  176.1220  142.4190 C   0  0  0  0  0  0  0  0  0  0  0  0
  189.0680  178.3280  142.6740 C   0  0  0  0  0  2  0  0  0  0  0  0
  185.9910  177.5600  145.5810 C   0  0  0  0  0  3  0  0  0  0  0  0
  187.3090  177.7210  146.0130 C   0  0  0  0  0  3  0  0  0  0  0  0
  188.3320  177.9710  145.0860 C   0  0  0  0  0  0  0  0  0  0  0  0
  188.0170  178.0760  143.7140 C   0  0  0  0  0  0  0  0  0  0  0  0
  185.6840  177.6540  144.2200 C   0  0  0  0  0  3  0  0  0  0  0  0
  186.6940  177.9100  143.2900 C   0  0  0  0  0  3  0  0  0  0  0  0
  189.7440  178.1180  145.5670 C   0  0  2  0  0  3  0  0  0  0  0  0
  190.4390  179.0190  144.7590 O   0  0  0  0  0  1  0  0  0  0  0  0
  190.3880  176.8800  145.5640 O   0  0  0  0  0  0  0  0  0  0  0  0
  189.3920  176.2310  147.8930 O   0  0  0  0  0  1  0  0  0  0  0  0
  190.7010  176.5290  147.1970 P   0  0  0  0  0  0  0  0  0  0  0  0
  191.7110  175.1730  147.3120 O   0  0  0  0  0  0  0  0  0  0  0  0
  191.4460  177.8530  147.9490 O   0  0  0  0  0  1  0  0  0  0  0  0
  185.9320  175.5440  135.9400 C   0  0  1  0  0  3  0  0  0  0  0  0
  186.2840  174.0800  136.2540 C   0  0  1  0  0  3  0  0  0  0  0  0
  185.6430  173.5670  137.5320 C   0  0  0  0  0  1  0  0  0  0  0  0
  185.9460  173.2540  135.1800 O   0  0  0  0  0  0  0  0  0  0  0  0
  184.6830  173.5310  134.9310 O   0  0  0  0  0  1  0  0  0  0  0  0
  185.2800  176.2900  137.1120 C   0  0  0  0  0  2  0  0  0  0  0  0
  183.9160  176.8540  136.7510 C   0  0  0  0  0  2  0  0  0  0  0  0
  182.8250  175.9850  137.3430 C   0  0  0  0  0  2  0  0  0  0  0  0
  182.9810  175.9300  138.8530 C   0  0  0  0  0  2  0  0  0  0  0  0
  180.9910  175.1160  139.8900 O   0  0  0  0  0  1  0  0  0  0  0  0
  181.6840  176.2770  139.5700 C   0  0  2  0  0  3  0  0  0  0  0  0
  182.1310  179.3310  140.0700 S   0  0  0  0  0  0  0  0  0  0  0  0
  180.9720  178.7920  141.3050 C   0  0  0  0  0  0  0  0  0  0  0  0
  180.8140  177.1350  138.6500 C   0  0  1  0  0  3  0  0  0  0  0  0
  179.7730  178.0250  139.3600 C   0  0  2  0  0  3  0  0  0  0  0  0
  181.0370  178.6390  138.7710 C   0  0  1  0  0  0  0  0  0  0  0  0
  179.9090  178.1470  140.8490 C   0  0  0  0  0  0  0  0  0  0  0  0
  178.9400  177.6260  141.7020 O   0  0  0  0  0  1  0  0  0  0  0  0
  180.3240  181.6370  136.4180 C   0  0  0  0  0  1  0  0  0  0  0  0
  180.8350  179.4240  137.5170 C   0  0  0  0  0  0  0  0  0  0  0  0
  180.9510  178.8660  136.3880 O   0  0  0  0  0  0  0  0  0  0  0  0
  180.4870  180.8050  137.6050 N   0  0  0  0  0  2  0  0  0  0  0  0
  182.5170  178.5950  143.0700 F   0  0  0  0  0  0  0  0  0  0  0  0
  181.2340  179.0090  142.7590 C   0  0  0  0  0  2  0  0  0  0  0  0
  188.9840  174.7510  134.8370 C   0  0  0  0  0  2  0  0  0  0  0  0
  191.1560  175.1300  134.9020 C   0  0  0  0  0  1  0  0  0  0  0  0
  190.1760  174.2460  135.3540 O   0  0  0  0  0  0  0  0  0  0  0  0
  1  6  1  0  0  0  0
  2 53  1  6  0  0  0
  2  8  1  0  0  0  0
  3 11  1  0  0  0  0
  4  5  1  0  0  0  0
  4  9  1  0  0  0  0
  5  2  1  0  0  0  0
  5 29  1  1  0  0  0
  6  3  2  0  0  0  0
  7  6  1  0  0  0  0
  8  1  1  0  0  0  0
  9  7  1  0  0  0  0
 11 10  1  6  0  0  0
 11 12  1  0  0  0  0
 12 14  1  1  0  0  0
 12 15  1  0  0  0  0
 14 13  3  0  0  0  0
 15 19  1  0  0  0  0
 16 17  1  0  0  0  0
 18 22  1  0  0  0  0
 18 17  2  0  0  0  0
 19 18  1  0  0  0  0
 20 16  2  0  0  0  0
 21 19  2  0  0  0  0
 21 20  1  0  0  0  0
 22 23  1  6  0  0  0
 24 22  1  0  0  0  0
 24 26  1  0  0  0  0
 26 27  2  0  0  0  0
 26 25  1  0  0  0  0
 26 28  1  0  0  0  0
 29 30  1  0  0  0  0
 29 34  1  1  0  0  0
 30 31  1  1  0  0  0
 32 30  1  0  0  0  0
 33 32  1  0  0  0  0
 35 34  1  0  0  0  0
 35 36  1  0  0  0  0
 36 37  1  0  0  0  0
 37 39  1  0  0  0  0
 39 38  1  6  0  0  0
 40 41  1  0  0  0  0
 41 52  1  0  0  0  0
 42 44  1  0  0  0  0
 42 43  1  0  0  0  0
 42 39  1  1  0  0  0
 43 45  1  1  0  0  0
 44 48  1  6  0  0  0
 44 43  1  0  0  0  0
 44 40  1  0  0  0  0
 45 41  2  0  0  0  0
 45 46  1  0  0  0  0
 47 50  1  0  0  0  0
 48 50  1  0  0  0  0
 49 48  2  0  0  0  0
 52 51  1  0  0  0  0
 53 55  1  0  0  0  0
 54 55  1  0  0  0  0
M  END
>  <MODEL>
7

>  <REMARK>
 VINA RESULT:      -5.3      3.281      9.175
  Name = 
  21 active torsions:
  status: ('A' for Active; 'I' for Inactive)
    1  A    between atoms: C_1  and  O_6
    2  A    between atoms: C_1  and  C_7
    3  A    between atoms: C_2  and  C_14
    4  A    between atoms: C_2  and  O_16
    5  A    between atoms: C_7  and  C_38
    6  A    between atoms: C_7  and  C_49
    7  A    between atoms: C_12  and  C_34
    8  A    between atoms: C_12  and  C_49
    9  A    between atoms: C_13  and  C_32
   10  A    between atoms: C_15  and  C_24
   11  A    between atoms: C_17  and  C_46
   12  A    between atoms: C_21  and  O_28
   13  A    between atoms: C_21  and  C_36
   14  A    between atoms: C_23  and  C_32
   15  A    between atoms: C_23  and  C_43
   16  A    between atoms: P_25  and  O_28
   17  A    between atoms: C_26  and  C_45
   18  A    between atoms: N_30  and  C_37
   19  A    between atoms: C_32  and  C_37
   20  A    between atoms: C_34  and  C_47
   21  A    between atoms: C_45  and  C_47
                            x       y       z     vdW  Elec       q    Type
                         _______ _______ _______ _____ _____    ______ ____

>  <TORSDO>
F 21

$$$$
=
 OpenBabel11062415093D

 55 58  0  0  1  0  0  0  0  0999 V2000
  186.7930  176.0000  137.3850 C   0  0  0  0  0  2  0  0  0  0  0  0
  188.1470  177.6950  137.8990 C   0  0  1  0  0  3  0  0  0  0  0  0
  186.7390  174.0720  135.8840 N   0  0  0  0  0  0  0  0  0  0  0  0
  189.6550  177.7160  135.8670 O   0  0  0  0  0  0  0  0  0  0  0  0
  189.5720  177.7380  137.2910 C   0  0  2  0  0  3  0  0  0  0  0  0
  187.3460  175.1390  136.2720 C   0  0  0  0  0  0  0  0  0  0  0  0
  188.6010  175.5460  135.5590 C   0  0  0  0  0  2  0  0  0  0  0  0
  187.8050  176.3840  138.2680 O   0  0  0  0  0  0  0  0  0  0  0  0
  188.5750  177.0420  135.2640 C   0  0  0  0  0  2  0  0  0  0  0  0
  185.8030  172.6330  137.6050 C   0  0  0  0  0  1  0  0  0  0  0  0
  185.5040  173.6020  136.4720 C   0  0  2  0  0  3  0  0  0  0  0  0
  184.5830  172.9980  135.4000 C   0  0  1  0  0  3  0  0  0  0  0  0
  184.8980  170.3500  135.1080 C   0  0  0  0  0  3  0  0  0  0  0  0
  184.7540  171.5440  135.2410 C   0  0  0  0  0  0  0  0  0  0  0  0
  183.1180  173.3440  135.6400 C   0  0  0  0  0  2  0  0  0  0  0  0
  182.5400  177.5970  135.3610 C   0  0  0  0  0  3  0  0  0  0  0  0
  181.6260  176.8340  136.0900 C   0  0  0  0  0  3  0  0  0  0  0  0
  181.7900  175.4440  136.1960 C   0  0  0  0  0  0  0  0  0  0  0  0
  182.8960  174.8250  135.5750 C   0  0  0  0  0  0  0  0  0  0  0  0
  183.6290  176.9790  134.7370 C   0  0  0  0  0  3  0  0  0  0  0  0
  183.8050  175.5980  134.8440 C   0  0  0  0  0  3  0  0  0  0  0  0
  180.7860  174.6400  136.9640 C   0  0  2  0  0  3  0  0  0  0  0  0
  180.0200  173.8640  136.0930 O   0  0  0  0  0  1  0  0  0  0  0  0
  179.9570  175.4810  137.7070 O   0  0  0  0  0  0  0  0  0  0  0  0
  181.9300  175.2940  139.4130 O   0  0  0  0  0  0  0  0  0  0  0  0
  180.4200  175.2580  139.3260 P   0  0  0  0  0  0  0  0  0  0  0  0
  179.7810  176.5010  140.2860 O   0  0  0  0  0  1  0  0  0  0  0  0
  179.8620  173.7620  139.8950 O   0  0  0  0  0  1  0  0  0  0  0  0
  190.5630  176.7450  137.9390 C   0  0  1  0  0  3  0  0  0  0  0  0
  191.3740  175.9150  136.9290 C   0  0  1  0  0  3  0  0  0  0  0  0
  192.7870  176.4330  136.7220 C   0  0  0  0  0  1  0  0  0  0  0  0
  191.4040  174.5720  137.3100 O   0  0  0  0  0  0  0  0  0  0  0  0
  190.2770  174.3870  137.9660 O   0  0  0  0  0  1  0  0  0  0  0  0
  191.4120  177.3670  139.0550 C   0  0  0  0  0  2  0  0  0  0  0  0
  191.0780  176.7950  140.4220 C   0  0  0  0  0  2  0  0  0  0  0  0
  190.6000  177.9000  141.3420 C   0  0  0  0  0  2  0  0  0  0  0  0
  191.4560  177.9230  142.5970 C   0  0  0  0  0  2  0  0  0  0  0  0
  191.2460  180.0570  143.6460 O   0  0  0  0  0  1  0  0  0  0  0  0
  190.8100  178.7390  143.7090 C   0  0  2  0  0  3  0  0  0  0  0  0
  189.9010  175.7610  143.9890 S   0  0  0  0  0  0  0  0  0  0  0  0
  188.4840  176.7520  144.4030 C   0  0  0  0  0  0  0  0  0  0  0  0
  191.2110  178.1500  145.0620 C   0  0  1  0  0  3  0  0  0  0  0  0
  190.0400  177.7170  145.9700 C   0  0  2  0  0  3  0  0  0  0  0  0
  190.8790  176.6720  145.2450 C   0  0  1  0  0  0  0  0  0  0  0  0
  188.6840  177.6760  145.3300 C   0  0  0  0  0  0  0  0  0  0  0  0
  187.6800  178.5570  145.7230 O   0  0  0  0  0  1  0  0  0  0  0  0
  192.9140  175.5960  148.3640 C   0  0  0  0  0  1  0  0  0  0  0  0
  191.8210  175.9030  146.1120 C   0  0  0  0  0  0  0  0  0  0  0  0
  192.4280  174.8910  145.6560 O   0  0  0  0  0  0  0  0  0  0  0  0
  192.0450  176.3320  147.4540 N   0  0  0  0  0  2  0  0  0  0  0  0
  186.7040  177.8090  143.2840 F   0  0  0  0  0  0  0  0  0  0  0  0
  187.1830  176.5770  143.6920 C   0  0  0  0  0  2  0  0  0  0  0  0
  188.0530  178.6190  139.1010 C   0  0  0  0  0  2  0  0  0  0  0  0
  186.6120  179.0810  140.7060 C   0  0  0  0  0  1  0  0  0  0  0  0
  187.2910  178.0210  140.1040 O   0  0  0  0  0  0  0  0  0  0  0  0
  1  8  1  0  0  0  0
  2  8  1  0  0  0  0
  2 53  1  1  0  0  0
  3  6  2  0  0  0  0
  3 11  1  0  0  0  0
  4  5  1  0  0  0  0
  5  2  1  0  0  0  0
  5 29  1  1  0  0  0
  6  1  1  0  0  0  0
  7  6  1  0  0  0  0
  9  7  1  0  0  0  0
  9  4  1  0  0  0  0
 11 10  1  1  0  0  0
 12 14  1  1  0  0  0
 12 15  1  0  0  0  0
 12 11  1  0  0  0  0
 13 14  3  0  0  0  0
 16 17  1  0  0  0  0
 17 18  2  0  0  0  0
 18 22  1  0  0  0  0
 19 15  1  0  0  0  0
 19 18  1  0  0  0  0
 20 21  1  0  0  0  0
 20 16  2  0  0  0  0
 21 19  2  0  0  0  0
 22 23  1  6  0  0  0
 22 24  1  0  0  0  0
 24 26  1  0  0  0  0
 26 25  2  0  0  0  0
 26 28  1  0  0  0  0
 26 27  1  0  0  0  0
 29 34  1  6  0  0  0
 30 31  1  1  0  0  0
 30 32  1  0  0  0  0
 30 29  1  0  0  0  0
 32 33  1  0  0  0  0
 34 35  1  0  0  0  0
 35 36  1  0  0  0  0
 36 37  1  0  0  0  0
 37 39  1  0  0  0  0
 39 38  1  1  0  0  0
 40 41  1  0  0  0  0
 40 44  1  0  0  0  0
 41 45  2  0  0  0  0
 42 39  1  6  0  0  0
 42 44  1  0  0  0  0
 42 43  1  0  0  0  0
 43 45  1  6  0  0  0
 44 43  1  0  0  0  0
 44 48  1  1  0  0  0
 45 46  1  0  0  0  0
 48 50  1  0  0  0  0
 49 48  2  0  0  0  0
 50 47  1  0  0  0  0
 51 52  1  0  0  0  0
 52 41  1  0  0  0  0
 53 55  1  0  0  0  0
 55 54  1  0  0  0  0
M  END
>  <MODEL>
8

>  <REMARK>
 VINA RESULT:      -5.2      3.237      7.280
  Name = 
  21 active torsions:
  status: ('A' for Active; 'I' for Inactive)
    1  A    between atoms: C_1  and  O_6
    2  A    between atoms: C_1  and  C_7
    3  A    between atoms: C_2  and  C_14
    4  A    between atoms: C_2  and  O_16
    5  A    between atoms: C_7  and  C_38
    6  A    between atoms: C_7  and  C_49
    7  A    between atoms: C_12  and  C_34
    8  A    between atoms: C_12  and  C_49
    9  A    between atoms: C_13  and  C_32
   10  A    between atoms: C_15  and  C_24
   11  A    between atoms: C_17  and  C_46
   12  A    between atoms: C_21  and  O_28
   13  A    between atoms: C_21  and  C_36
   14  A    between atoms: C_23  and  C_32
   15  A    between atoms: C_23  and  C_43
   16  A    between atoms: P_25  and  O_28
   17  A    between atoms: C_26  and  C_45
   18  A    between atoms: N_30  and  C_37
   19  A    between atoms: C_32  and  C_37
   20  A    between atoms: C_34  and  C_47
   21  A    between atoms: C_45  and  C_47
                            x       y       z     vdW  Elec       q    Type
                         _______ _______ _______ _____ _____    ______ ____

>  <TORSDO>
F 21

$$$$
=
 OpenBabel11062415093D

 55 58  0  0  1  0  0  0  0  0999 V2000
  183.3660  179.7150  138.7490 C   0  0  0  0  0  2  0  0  0  0  0  0
  184.8210  178.6530  140.0630 C   0  0  1  0  0  3  0  0  0  0  0  0
  180.9530  180.0630  138.5730 N   0  0  0  0  0  0  0  0  0  0  0  0
  183.2860  177.0080  141.2210 O   0  0  0  0  0  0  0  0  0  0  0  0
  184.3170  177.9830  141.3660 C   0  0  2  0  0  3  0  0  0  0  0  0
  181.9320  179.4760  139.1680 C   0  0  0  0  0  0  0  0  0  0  0  0
  181.6220  178.5020  140.2650 C   0  0  0  0  0  2  0  0  0  0  0  0
  184.1880  179.8910  139.8650 O   0  0  0  0  0  0  0  0  0  0  0  0
  182.4630  177.2410  140.1010 C   0  0  0  0  0  2  0  0  0  0  0  0
  180.8040  182.4050  137.9400 C   0  0  0  0  0  1  0  0  0  0  0  0
  181.1290  180.9930  137.4800 C   0  0  2  0  0  3  0  0  0  0  0  0
  180.3060  180.5600  136.2550 C   0  0  1  0  0  3  0  0  0  0  0  0
  179.7190  182.5960  134.6110 C   0  0  0  0  0  3  0  0  0  0  0  0
  179.9840  181.6770  135.3500 C   0  0  0  0  0  0  0  0  0  0  0  0
  180.9710  179.4230  135.4890 C   0  0  0  0  0  2  0  0  0  0  0  0
  179.8590  175.6280  137.1840 C   0  0  0  0  0  3  0  0  0  0  0  0
  181.1610  175.8060  136.7120 C   0  0  0  0  0  3  0  0  0  0  0  0
  181.5500  177.0340  136.1530 C   0  0  0  0  0  0  0  0  0  0  0  0
  180.6200  178.0930  136.0870 C   0  0  0  0  0  0  0  0  0  0  0  0
  178.9370  176.6770  137.1070 C   0  0  0  0  0  3  0  0  0  0  0  0
  179.3170  177.9050  136.5600 C   0  0  0  0  0  3  0  0  0  0  0  0
  182.9450  177.1970  135.6310 C   0  0  2  0  0  3  0  0  0  0  0  0
  182.9710  178.1470  134.6100 O   0  0  0  0  0  1  0  0  0  0  0  0
  183.4320  175.9780  135.1590 O   0  0  0  0  0  0  0  0  0  0  0  0
  184.5000  174.3280  136.8850 O   0  0  0  0  0  1  0  0  0  0  0  0
  184.7720  175.6160  136.1400 P   0  0  0  0  0  0  0  0  0  0  0  0
  186.1540  175.4180  135.1780 O   0  0  0  0  0  0  0  0  0  0  0  0
  185.0350  176.8640  137.2560 O   0  0  0  0  0  1  0  0  0  0  0  0
  184.0080  178.9780  142.5070 C   0  0  1  0  0  3  0  0  0  0  0  0
  182.9090  178.5070  143.4740 C   0  0  1  0  0  3  0  0  0  0  0  0
  183.2480  178.7540  144.9350 C   0  0  0  0  0  1  0  0  0  0  0  0
  181.6870  179.1030  143.1550 O   0  0  0  0  0  0  0  0  0  0  0  0
  181.6910  180.2430  143.8140 O   0  0  0  0  0  1  0  0  0  0  0  0
  185.2640  179.5160  143.2070 C   0  0  0  0  0  2  0  0  0  0  0  0
  185.8910  178.4910  144.1360 C   0  0  0  0  0  2  0  0  0  0  0  0
  186.8340  177.5960  143.3570 C   0  0  0  0  0  2  0  0  0  0  0  0
  187.3250  176.4720  144.2520 C   0  0  0  0  0  2  0  0  0  0  0  0
  188.5890  177.4780  146.0070 O   0  0  0  0  0  1  0  0  0  0  0  0
  188.7060  176.7620  144.8230 C   0  0  2  0  0  3  0  0  0  0  0  0
  191.2750  175.2650  143.8560 S   0  0  0  0  0  0  0  0  0  0  0  0
  191.6990  176.0250  145.4060 C   0  0  0  0  0  0  0  0  0  0  0  0
  189.5010  177.5950  143.8170 C   0  0  1  0  0  3  0  0  0  0  0  0
  190.9210  178.0000  144.2650 C   0  0  2  0  0  3  0  0  0  0  0  0
  190.7250  176.9000  143.2300 C   0  0  1  0  0  0  0  0  0  0  0  0
  191.4460  177.3220  145.4950 C   0  0  0  0  0  0  0  0  0  0  0  0
  191.6830  178.0410  146.6640 O   0  0  0  0  0  1  0  0  0  0  0  0
  190.3840  177.4430  139.4060 C   0  0  0  0  0  1  0  0  0  0  0  0
  191.0720  177.2800  141.8280 C   0  0  0  0  0  0  0  0  0  0  0  0
  192.2010  177.7830  141.5630 O   0  0  0  0  0  0  0  0  0  0  0  0
  190.1240  177.0500  140.7860 N   0  0  0  0  0  2  0  0  0  0  0  0
  191.3050  175.1500  147.5550 F   0  0  0  0  0  0  0  0  0  0  0  0
  192.2420  175.2190  146.5400 C   0  0  0  0  0  2  0  0  0  0  0  0
  186.3280  178.8370  140.1070 C   0  0  0  0  0  2  0  0  0  0  0  0
  187.2940  178.4720  138.1570 C   0  0  0  0  0  1  0  0  0  0  0  0
  186.9510  177.8420  139.3540 O   0  0  0  0  0  0  0  0  0  0  0  0
  1  6  1  0  0  0  0
  1  8  1  0  0  0  0
  2 53  1  1  0  0  0
  2  5  1  0  0  0  0
  3  6  2  0  0  0  0
  4  5  1  0  0  0  0
  5 29  1  1  0  0  0
  6  7  1  0  0  0  0
  8  2  1  0  0  0  0
  9  7  1  0  0  0  0
  9  4  1  0  0  0  0
 11 10  1  1  0  0  0
 11  3  1  0  0  0  0
 12 14  1  6  0  0  0
 12 11  1  0  0  0  0
 13 14  3  0  0  0  0
 15 19  1  0  0  0  0
 15 12  1  0  0  0  0
 17 16  2  0  0  0  0
 18 17  1  0  0  0  0
 19 18  2  0  0  0  0
 19 21  1  0  0  0  0
 20 16  1  0  0  0  0
 21 20  2  0  0  0  0
 22 23  1  6  0  0  0
 22 18  1  0  0  0  0
 24 22  1  0  0  0  0
 24 26  1  0  0  0  0
 26 25  1  0  0  0  0
 26 28  1  0  0  0  0
 27 26  2  0  0  0  0
 29 34  1  1  0  0  0
 29 30  1  0  0  0  0
 30 31  1  1  0  0  0
 32 30  1  0  0  0  0
 32 33  1  0  0  0  0
 34 35  1  0  0  0  0
 36 35  1  0  0  0  0
 36 37  1  0  0  0  0
 37 39  1  0  0  0  0
 39 38  1  1  0  0  0
 40 41  1  0  0  0  0
 41 45  2  0  0  0  0
 41 52  1  0  0  0  0
 42 43  1  0  0  0  0
 42 39  1  1  0  0  0
 43 45  1  1  0  0  0
 44 48  1  6  0  0  0
 44 42  1  0  0  0  0
 44 40  1  0  0  0  0
 44 43  1  0  0  0  0
 45 46  1  0  0  0  0
 47 50  1  0  0  0  0
 49 48  2  0  0  0  0
 50 48  1  0  0  0  0
 52 51  1  0  0  0  0
 54 55  1  0  0  0  0
 55 53  1  0  0  0  0
M  END
>  <MODEL>
9

>  <REMARK>
 VINA RESULT:      -5.1      3.176      5.380
  Name = 
  21 active torsions:
  status: ('A' for Active; 'I' for Inactive)
    1  A    between atoms: C_1  and  O_6
    2  A    between atoms: C_1  and  C_7
    3  A    between atoms: C_2  and  C_14
    4  A    between atoms: C_2  and  O_16
    5  A    between atoms: C_7  and  C_38
    6  A    between atoms: C_7  and  C_49
    7  A    between atoms: C_12  and  C_34
    8  A    between atoms: C_12  and  C_49
    9  A    between atoms: C_13  and  C_32
   10  A    between atoms: C_15  and  C_24
   11  A    between atoms: C_17  and  C_46
   12  A    between atoms: C_21  and  O_28
   13  A    between atoms: C_21  and  C_36
   14  A    between atoms: C_23  and  C_32
   15  A    between atoms: C_23  and  C_43
   16  A    between atoms: P_25  and  O_28
   17  A    between atoms: C_26  and  C_45
   18  A    between atoms: N_30  and  C_37
   19  A    between atoms: C_32  and  C_37
   20  A    between atoms: C_34  and  C_47
   21  A    between atoms: C_45  and  C_47
                            x       y       z     vdW  Elec       q    Type
                         _______ _______ _______ _____ _____    ______ ____

>  <TORSDO>
F 21

$$$$
