=
 OpenBabel11062412363D

 51 56  0  0  1  0  0  0  0  0999 V2000
  182.4360  179.1300  142.2520 C   0  0  2  0  0  3  0  0  0  0  0  0
  182.6430  178.5040  143.6220 C   0  0  0  0  0  1  0  0  0  0  0  0
  181.1880  178.6220  141.5770 C   0  0  0  0  0  0  0  0  0  0  0  0
  180.1820  179.3750  141.4770 O   0  0  0  0  0  0  0  0  0  0  0  0
  181.1300  177.2940  141.1250 O   0  0  0  0  0  0  0  0  0  0  0  0
  185.1110  176.9140  134.7770 C   0  0  0  0  0  1  0  0  0  0  0  0
  182.2390  175.9150  139.6580 O   0  0  0  0  0  0  0  0  0  0  0  0
  185.5910  174.8520  136.1260 C   0  0  1  0  0  3  0  0  0  0  0  0
  181.7390  177.9620  137.4280 C   0  0  0  0  0  2  0  0  0  0  0  0
  181.5550  178.1660  138.9300 C   0  0  0  0  0  2  0  0  0  0  0  0
  181.2190  176.8990  139.7500 C   0  0  2  0  0  0  0  0  0  0  0  0
  185.0090  176.2700  136.1550 C   0  0  2  0  0  3  0  0  0  0  0  0
  182.1890  175.3620  138.4590 O   0  0  0  0  0  0  0  0  0  0  0  0
  182.6780  175.7950  135.7490 O   0  0  0  0  0  1  0  0  0  0  0  0
  183.2000  177.7630  137.0270 C   0  0  2  0  0  3  0  0  0  0  0  0
  183.9430  174.1120  137.7030 O   0  0  0  0  0  0  0  0  0  0  0  0
  186.9690  174.9190  135.9040 O   0  0  0  0  0  1  0  0  0  0  0  0
  183.5020  175.4220  137.9820 C   0  0  1  0  0  3  0  0  0  0  0  0
  183.5670  176.3000  136.7100 C   0  0  2  0  0  0  0  0  0  0  0  0
  185.3250  174.1840  137.4760 C   0  0  1  0  0  3  0  0  0  0  0  0
  185.8630  172.8990  137.4880 O   0  0  0  0  0  1  0  0  0  0  0  0
  184.0810  178.3250  137.9390 F   0  0  0  0  0  0  0  0  0  0  0  0
  179.8230  176.3430  139.3650 C   0  0  0  0  0  0  0  0  0  0  0  0
  179.3550  175.5260  140.3780 F   0  0  0  0  0  0  0  0  0  0  0  0
  178.9340  177.3910  139.1980 F   0  0  0  0  0  0  0  0  0  0  0  0
  179.8550  175.6150  138.1890 F   0  0  0  0  0  0  0  0  0  0  0  0
  183.7010  178.9830  141.3940 C   0  0  0  0  0  2  0  0  0  0  0  0
  186.1090  179.0230  141.6910 N   0  0  0  0  0  0  0  0  0  0  0  0
  184.8900  178.4200  142.1710 C   0  0  1  0  0  3  0  0  0  0  0  0
  185.5000  179.4060  142.8770 O   0  0  0  0  0  0  0  0  0  0  0  0
  187.1830  178.0890  142.0130 C   0  0  1  0  0  3  0  0  0  0  0  0
  187.7420  178.3440  139.6550 N   0  0  0  0  0  0  0  0  0  0  0  0
  190.1640  177.0350  140.0420 C   0  0  0  0  0  3  0  0  0  0  0  0
  189.5860  177.0710  138.6590 C   0  0  2  0  0  3  0  0  0  0  0  0
  190.5860  177.1080  137.6710 O   0  0  0  0  0  0  0  0  0  0  0  0
  189.4360  177.4260  141.0510 N   0  0  0  0  0  0  0  0  0  0  0  0
  188.1190  177.9800  140.8500 C   0  0  0  0  0  0  0  0  0  0  0  0
  189.9350  176.8530  136.4430 C   0  0  0  0  0  2  0  0  0  0  0  0
  187.9670  178.2420  137.1900 C   0  0  0  0  0  2  0  0  0  0  0  0
  188.6840  178.3050  138.5350 C   0  0  1  0  0  3  0  0  0  0  0  0
  189.0000  178.0190  136.0720 C   0  0  0  0  0  2  0  0  0  0  0  0
  187.8720  178.4960  143.1610 O   0  0  0  0  0  0  0  0  0  0  0  0
  187.7680  177.4130  144.0390 C   0  0  0  0  0  2  0  0  0  0  0  0
  188.3410  177.7740  145.3970 C   0  0  1  0  0  3  0  0  0  0  0  0
  189.7830  176.8340  147.2690 C   0  0  1  0  0  3  0  0  0  0  0  0
  187.2310  177.7410  146.4530 C   0  0  0  0  0  2  0  0  0  0  0  0
  189.2010  177.9540  147.8920 O   0  0  0  0  0  0  0  0  0  0  0  0
  189.4980  176.8370  145.7620 C   0  0  0  0  0  2  0  0  0  0  0  0
  187.8080  177.7250  147.8830 C   0  0  0  0  0  2  0  0  0  0  0  0
  191.9620  176.2230  146.3780 N   0  0  0  0  0  1  0  0  0  0  0  0
  191.2820  176.8250  147.5100 C   0  0  0  0  0  2  0  0  0  0  0  0
  1  2  1  1  0  0  0
  3  1  1  0  0  0  0
  4  3  2  0  0  0  0
  5  3  1  0  0  0  0
  7 11  1  0  0  0  0
  8 17  1  1  0  0  0
  8 12  1  0  0  0  0
  8 20  1  0  0  0  0
  9 10  1  0  0  0  0
 10 11  1  0  0  0  0
 11  5  1  1  0  0  0
 12  6  1  6  0  0  0
 12 19  1  0  0  0  0
 13  7  1  0  0  0  0
 15  9  1  0  0  0  0
 15 22  1  1  0  0  0
 18 16  1  6  0  0  0
 18 13  1  0  0  0  0
 19 14  1  6  0  0  0
 19 15  1  0  0  0  0
 19 18  1  0  0  0  0
 20 21  1  6  0  0  0
 20 16  1  0  0  0  0
 23 11  1  0  0  0  0
 23 24  1  0  0  0  0
 25 23  1  0  0  0  0
 26 23  1  0  0  0  0
 27  1  1  0  0  0  0
 28 31  1  0  0  0  0
 28 29  1  0  0  0  0
 28 30  1  0  0  0  0
 29 27  1  6  0  0  0
 29 30  1  0  0  0  0
 31 42  1  1  0  0  0
 32 37  2  0  0  0  0
 33 36  2  0  0  0  0
 34 33  1  1  0  0  0
 35 34  1  0  0  0  0
 37 36  1  0  0  0  0
 37 31  1  0  0  0  0
 38 35  1  0  0  0  0
 40 39  1  6  0  0  0
 40 34  1  0  0  0  0
 40 32  1  0  0  0  0
 41 38  1  0  0  0  0
 41 39  1  0  0  0  0
 42 43  1  0  0  0  0
 44 43  1  6  0  0  0
 44 48  1  0  0  0  0
 44 46  1  0  0  0  0
 45 51  1  6  0  0  0
 45 47  1  0  0  0  0
 46 49  1  0  0  0  0
 48 45  1  0  0  0  0
 49 47  1  0  0  0  0
 50 51  1  0  0  0  0
M  END
>  <MODEL>
1

>  <REMARK>
 VINA RESULT:      -8.3      0.000      0.000
  Name = 
  12 active torsions:
  status: ('A' for Active; 'I' for Inactive)
    1  A    between atoms: N_2  and  C_34
    2  A    between atoms: C_3  and  C_12
    3  A    between atoms: C_3  and  C_22
    4  A    between atoms: C_4  and  C_26
    5  A    between atoms: C_7  and  C_37
    6  A    between atoms: C_12  and  C_25
    7  A    between atoms: C_17  and  C_20
    8  A    between atoms: C_17  and  O_47
    9  A    between atoms: C_22  and  O_47
   10  A    between atoms: C_26  and  O_28
   11  A    between atoms: O_28  and  C_34
   12  A    between atoms: C_32  and  C_34
                            x       y       z     vdW  Elec       q    Type
                         _______ _______ _______ _____ _____    ______ ____

>  <TORSDO>
F 12

$$$$
=
 OpenBabel11062412363D

 51 56  0  0  1  0  0  0  0  0999 V2000
  190.6200  176.7280  139.6980 C   0  0  2  0  0  3  0  0  0  0  0  0
  191.6940  177.2210  140.6550 C   0  0  0  0  0  1  0  0  0  0  0  0
  191.2050  176.1070  138.4570 C   0  0  0  0  0  0  0  0  0  0  0  0
  192.0720  176.7360  137.7930 O   0  0  0  0  0  0  0  0  0  0  0  0
  190.7320  174.8620  138.0100 O   0  0  0  0  0  0  0  0  0  0  0  0
  183.8240  172.7120  136.0260 C   0  0  0  0  0  1  0  0  0  0  0  0
  188.6600  175.5530  137.2940 O   0  0  0  0  0  0  0  0  0  0  0  0
  183.7320  175.1350  136.6760 C   0  0  1  0  0  3  0  0  0  0  0  0
  188.2390  172.7990  136.0070 C   0  0  0  0  0  2  0  0  0  0  0  0
  189.3260  173.2000  137.0020 C   0  0  0  0  0  2  0  0  0  0  0  0
  189.7440  174.6880  136.9860 C   0  0  2  0  0  0  0  0  0  0  0  0
  184.5570  173.8440  136.7370 C   0  0  2  0  0  3  0  0  0  0  0  0
  187.8420  175.5930  136.2570 O   0  0  0  0  0  0  0  0  0  0  0  0
  185.9670  174.1340  134.7990 O   0  0  0  0  0  1  0  0  0  0  0  0
  186.8360  172.8190  136.6150 C   0  0  2  0  0  3  0  0  0  0  0  0
  185.7360  176.4400  136.4950 O   0  0  0  0  0  0  0  0  0  0  0  0
  182.5680  174.9800  137.4330 O   0  0  0  0  0  1  0  0  0  0  0  0
  186.5740  175.3460  136.7910 C   0  0  1  0  0  3  0  0  0  0  0  0
  185.9920  174.0400  136.1990 C   0  0  2  0  0  0  0  0  0  0  0  0
  184.5670  176.2780  137.2540 C   0  0  1  0  0  3  0  0  0  0  0  0
  183.8350  177.4640  137.2330 O   0  0  0  0  0  1  0  0  0  0  0  0
  186.8540  172.6540  137.9910 F   0  0  0  0  0  0  0  0  0  0  0  0
  190.4350  175.0560  135.6470 C   0  0  0  0  0  0  0  0  0  0  0  0
  191.7360  174.5880  135.6540 F   0  0  0  0  0  0  0  0  0  0  0  0
  189.7580  174.4630  134.5940 F   0  0  0  0  0  0  0  0  0  0  0  0
  190.4580  176.4230  135.4280 F   0  0  0  0  0  0  0  0  0  0  0  0
  189.6030  177.8420  139.4070 C   0  0  0  0  0  2  0  0  0  0  0  0
  187.9860  178.6800  141.0100 N   0  0  0  0  0  0  0  0  0  0  0  0
  188.2510  177.6110  140.0790 C   0  0  1  0  0  3  0  0  0  0  0  0
  187.3900  178.6100  139.7600 O   0  0  0  0  0  0  0  0  0  0  0  0
  187.0470  178.1460  141.9920 C   0  0  1  0  0  3  0  0  0  0  0  0
  187.1370  177.7350  144.3920 N   0  0  0  0  0  0  0  0  0  0  0  0
  189.9140  177.6400  144.3160 C   0  0  0  0  0  3  0  0  0  0  0  0
  189.2460  177.9510  145.6220 C   0  0  2  0  0  3  0  0  0  0  0  0
  189.9760  177.4550  146.7170 O   0  0  0  0  0  0  0  0  0  0  0  0
  189.2050  177.6280  143.2210 N   0  0  0  0  0  0  0  0  0  0  0  0
  187.7760  177.8160  143.2560 C   0  0  0  0  0  0  0  0  0  0  0  0
  189.4090  178.0480  147.8680 C   0  0  0  0  0  2  0  0  0  0  0  0
  187.1070  177.8030  146.8680 C   0  0  0  0  0  2  0  0  0  0  0  0
  187.8400  177.3390  145.6120 C   0  0  1  0  0  3  0  0  0  0  0  0
  187.9810  177.5220  148.1020 C   0  0  0  0  0  2  0  0  0  0  0  0
  186.0160  179.0570  142.2430 O   0  0  0  0  0  0  0  0  0  0  0  0
  184.9310  178.2660  142.6330 C   0  0  0  0  0  2  0  0  0  0  0  0
  183.6690  178.7040  141.9130 C   0  0  1  0  0  3  0  0  0  0  0  0
  181.1350  178.6670  142.1250 C   0  0  1  0  0  3  0  0  0  0  0  0
  183.4200  177.7940  140.7050 C   0  0  0  0  0  2  0  0  0  0  0  0
  181.3030  179.0230  140.7740 O   0  0  0  0  0  0  0  0  0  0  0  0
  182.4730  178.7100  142.8730 C   0  0  0  0  0  2  0  0  0  0  0  0
  181.9820  177.9440  140.1680 C   0  0  0  0  0  2  0  0  0  0  0  0
  179.9790  180.8020  141.9890 N   0  0  0  0  0  1  0  0  0  0  0  0
  180.1420  179.6030  142.7900 C   0  0  0  0  0  2  0  0  0  0  0  0
  1  2  1  1  0  0  0
  3  1  1  0  0  0  0
  4  3  2  0  0  0  0
  5  3  1  0  0  0  0
  8 12  1  0  0  0  0
  8 20  1  0  0  0  0
  8 17  1  1  0  0  0
  9 15  1  0  0  0  0
  9 10  1  0  0  0  0
 11 10  1  0  0  0  0
 11  7  1  0  0  0  0
 11  5  1  1  0  0  0
 12  6  1  6  0  0  0
 13  7  1  0  0  0  0
 15 22  1  1  0  0  0
 16 18  1  0  0  0  0
 16 20  1  0  0  0  0
 18 13  1  6  0  0  0
 19 14  1  6  0  0  0
 19 15  1  0  0  0  0
 19 12  1  0  0  0  0
 19 18  1  0  0  0  0
 20 21  1  6  0  0  0
 23 24  1  0  0  0  0
 23 11  1  0  0  0  0
 25 23  1  0  0  0  0
 26 23  1  0  0  0  0
 27  1  1  0  0  0  0
 28 31  1  0  0  0  0
 29 27  1  6  0  0  0
 29 28  1  0  0  0  0
 30 29  1  0  0  0  0
 30 28  1  0  0  0  0
 31 42  1  1  0  0  0
 31 37  1  0  0  0  0
 32 40  1  0  0  0  0
 34 33  1  6  0  0  0
 34 35  1  0  0  0  0
 35 38  1  0  0  0  0
 36 37  1  0  0  0  0
 36 33  2  0  0  0  0
 37 32  2  0  0  0  0
 38 41  1  0  0  0  0
 39 41  1  0  0  0  0
 40 34  1  0  0  0  0
 40 39  1  1  0  0  0
 42 43  1  0  0  0  0
 44 43  1  1  0  0  0
 44 48  1  0  0  0  0
 45 51  1  1  0  0  0
 45 48  1  0  0  0  0
 46 44  1  0  0  0  0
 47 45  1  0  0  0  0
 49 46  1  0  0  0  0
 49 47  1  0  0  0  0
 50 51  1  0  0  0  0
M  END
>  <MODEL>
2

>  <REMARK>
 VINA RESULT:      -8.2      2.824      7.869
  Name = 
  12 active torsions:
  status: ('A' for Active; 'I' for Inactive)
    1  A    between atoms: N_2  and  C_34
    2  A    between atoms: C_3  and  C_12
    3  A    between atoms: C_3  and  C_22
    4  A    between atoms: C_4  and  C_26
    5  A    between atoms: C_7  and  C_37
    6  A    between atoms: C_12  and  C_25
    7  A    between atoms: C_17  and  C_20
    8  A    between atoms: C_17  and  O_47
    9  A    between atoms: C_22  and  O_47
   10  A    between atoms: C_26  and  O_28
   11  A    between atoms: O_28  and  C_34
   12  A    between atoms: C_32  and  C_34
                            x       y       z     vdW  Elec       q    Type
                         _______ _______ _______ _____ _____    ______ ____

>  <TORSDO>
F 12

$$$$
=
 OpenBabel11062412363D

 51 56  0  0  1  0  0  0  0  0999 V2000
  183.4840  179.1530  143.2020 C   0  0  2  0  0  3  0  0  0  0  0  0
  183.3610  178.9780  144.7070 C   0  0  0  0  0  1  0  0  0  0  0  0
  182.1680  178.9550  142.4960 C   0  0  0  0  0  0  0  0  0  0  0  0
  181.3110  179.8790  142.5020 O   0  0  0  0  0  0  0  0  0  0  0  0
  181.8780  177.7200  141.8950 O   0  0  0  0  0  0  0  0  0  0  0  0
  184.8460  177.1390  135.0290 C   0  0  0  0  0  1  0  0  0  0  0  0
  182.3430  176.3110  140.1390 O   0  0  0  0  0  0  0  0  0  0  0  0
  184.8050  174.8510  136.0590 C   0  0  1  0  0  3  0  0  0  0  0  0
  182.2660  178.7220  138.2440 C   0  0  0  0  0  2  0  0  0  0  0  0
  182.3150  178.7450  139.7700 C   0  0  0  0  0  2  0  0  0  0  0  0
  181.6930  177.5250  140.4860 C   0  0  2  0  0  0  0  0  0  0  0  0
  184.6970  176.3560  136.3280 C   0  0  2  0  0  3  0  0  0  0  0  0
  181.9960  175.9810  138.9070 O   0  0  0  0  0  0  0  0  0  0  0  0
  182.3030  176.6500  136.2180 O   0  0  0  0  0  1  0  0  0  0  0  0
  183.5420  178.1660  137.6130 C   0  0  2  0  0  3  0  0  0  0  0  0
  183.1860  174.4000  137.7700 O   0  0  0  0  0  0  0  0  0  0  0  0
  186.1040  174.5440  135.6460 O   0  0  0  0  0  1  0  0  0  0  0  0
  183.2050  175.7250  138.2520 C   0  0  1  0  0  3  0  0  0  0  0  0
  183.4030  176.7240  137.0880 C   0  0  2  0  0  0  0  0  0  0  0  0
  184.4910  174.0970  137.3520 C   0  0  1  0  0  3  0  0  0  0  0  0
  184.6030  172.7240  137.1450 O   0  0  0  0  0  1  0  0  0  0  0  0
  184.6450  178.3040  138.4420 F   0  0  0  0  0  0  0  0  0  0  0  0
  180.1600  177.4660  140.2520 C   0  0  0  0  0  0  0  0  0  0  0  0
  179.5560  176.8090  141.3090 F   0  0  0  0  0  0  0  0  0  0  0  0
  179.6500  178.7510  140.1810 F   0  0  0  0  0  0  0  0  0  0  0  0
  179.8350  176.8080  139.0780 F   0  0  0  0  0  0  0  0  0  0  0  0
  184.6170  178.2760  142.6480 C   0  0  0  0  0  2  0  0  0  0  0  0
  186.5160  178.3530  141.1390 N   0  0  0  0  0  0  0  0  0  0  0  0
  185.8220  179.0850  142.1700 C   0  0  1  0  0  3  0  0  0  0  0  0
  185.6750  179.4200  140.8630 O   0  0  0  0  0  0  0  0  0  0  0  0
  187.8900  178.8450  141.1410 C   0  0  1  0  0  3  0  0  0  0  0  0
  188.4020  178.0330  143.3800 N   0  0  0  0  0  0  0  0  0  0  0  0
  190.7680  176.8910  142.4730 C   0  0  0  0  0  3  0  0  0  0  0  0
  190.6440  177.2100  143.9320 C   0  0  2  0  0  3  0  0  0  0  0  0
  191.3510  176.2940  144.7330 O   0  0  0  0  0  0  0  0  0  0  0  0
  189.8690  177.3380  141.6410 N   0  0  0  0  0  0  0  0  0  0  0  0
  188.7070  178.0520  142.1110 C   0  0  0  0  0  0  0  0  0  0  0  0
  191.3930  176.8570  146.0290 C   0  0  0  0  0  2  0  0  0  0  0  0
  189.0280  177.6890  145.7520 C   0  0  0  0  0  2  0  0  0  0  0  0
  189.1590  177.1980  144.3130 C   0  0  1  0  0  3  0  0  0  0  0  0
  189.9850  176.8890  146.6530 C   0  0  0  0  0  2  0  0  0  0  0  0
  188.4460  178.7760  139.8590 O   0  0  0  0  0  0  0  0  0  0  0  0
  187.5570  177.9810  139.1290 C   0  0  0  0  0  2  0  0  0  0  0  0
  188.2760  177.2970  137.9810 C   0  0  1  0  0  3  0  0  0  0  0  0
  190.6080  176.8440  137.0730 C   0  0  1  0  0  3  0  0  0  0  0  0
  188.1140  178.1260  136.7020 C   0  0  0  0  0  2  0  0  0  0  0  0
  189.8020  176.5100  135.9690 O   0  0  0  0  0  0  0  0  0  0  0  0
  189.7530  177.0710  138.3260 C   0  0  0  0  0  2  0  0  0  0  0  0
  189.1180  177.6920  135.6150 C   0  0  0  0  0  2  0  0  0  0  0  0
  190.9800  174.6370  138.0260 N   0  0  0  0  0  1  0  0  0  0  0  0
  191.6190  175.7410  137.3320 C   0  0  0  0  0  2  0  0  0  0  0  0
  1  2  1  1  0  0  0
  3  4  2  0  0  0  0
  3  1  1  0  0  0  0
  5  3  1  0  0  0  0
  7 11  1  0  0  0  0
  8 17  1  1  0  0  0
  8 12  1  0  0  0  0
  8 20  1  0  0  0  0
  9 10  1  0  0  0  0
 10 11  1  0  0  0  0
 11  5  1  1  0  0  0
 12  6  1  6  0  0  0
 12 19  1  0  0  0  0
 13  7  1  0  0  0  0
 15  9  1  0  0  0  0
 15 22  1  1  0  0  0
 18 16  1  6  0  0  0
 18 13  1  0  0  0  0
 19 14  1  6  0  0  0
 19 15  1  0  0  0  0
 19 18  1  0  0  0  0
 20 21  1  6  0  0  0
 20 16  1  0  0  0  0
 23 11  1  0  0  0  0
 23 24  1  0  0  0  0
 25 23  1  0  0  0  0
 26 23  1  0  0  0  0
 27  1  1  0  0  0  0
 28 31  1  0  0  0  0
 28 29  1  0  0  0  0
 29 27  1  6  0  0  0
 30 28  1  0  0  0  0
 30 29  1  0  0  0  0
 31 42  1  6  0  0  0
 31 37  1  0  0  0  0
 32 40  1  0  0  0  0
 34 33  1  6  0  0  0
 34 40  1  0  0  0  0
 34 35  1  0  0  0  0
 35 38  1  0  0  0  0
 36 37  1  0  0  0  0
 36 33  2  0  0  0  0
 37 32  2  0  0  0  0
 38 41  1  0  0  0  0
 39 41  1  0  0  0  0
 40 39  1  1  0  0  0
 43 42  1  0  0  0  0
 44 48  1  0  0  0  0
 44 43  1  1  0  0  0
 45 51  1  1  0  0  0
 45 48  1  0  0  0  0
 46 44  1  0  0  0  0
 47 45  1  0  0  0  0
 49 47  1  0  0  0  0
 49 46  1  0  0  0  0
 51 50  1  0  0  0  0
M  END
>  <MODEL>
3

>  <REMARK>
 VINA RESULT:      -8.1      1.558      5.024
  Name = 
  12 active torsions:
  status: ('A' for Active; 'I' for Inactive)
    1  A    between atoms: N_2  and  C_34
    2  A    between atoms: C_3  and  C_12
    3  A    between atoms: C_3  and  C_22
    4  A    between atoms: C_4  and  C_26
    5  A    between atoms: C_7  and  C_37
    6  A    between atoms: C_12  and  C_25
    7  A    between atoms: C_17  and  C_20
    8  A    between atoms: C_17  and  O_47
    9  A    between atoms: C_22  and  O_47
   10  A    between atoms: C_26  and  O_28
   11  A    between atoms: O_28  and  C_34
   12  A    between atoms: C_32  and  C_34
                            x       y       z     vdW  Elec       q    Type
                         _______ _______ _______ _____ _____    ______ ____

>  <TORSDO>
F 12

$$$$
=
 OpenBabel11062412363D

 51 56  0  0  1  0  0  0  0  0999 V2000
  190.1550  176.9250  140.2210 C   0  0  2  0  0  3  0  0  0  0  0  0
  191.5090  177.4060  140.7180 C   0  0  0  0  0  1  0  0  0  0  0  0
  190.2320  176.3420  138.8330 C   0  0  0  0  0  0  0  0  0  0  0  0
  190.6700  175.1710  138.6710 O   0  0  0  0  0  0  0  0  0  0  0  0
  189.8800  177.1300  137.7260 O   0  0  0  0  0  0  0  0  0  0  0  0
  183.8080  173.0760  136.0000 C   0  0  0  0  0  1  0  0  0  0  0  0
  187.6080  177.1650  137.3800 O   0  0  0  0  0  0  0  0  0  0  0  0
  183.0480  175.1640  137.1660 C   0  0  1  0  0  3  0  0  0  0  0  0
  187.8910  174.7010  135.5730 C   0  0  0  0  0  2  0  0  0  0  0  0
  188.9390  175.2800  136.5220 C   0  0  0  0  0  2  0  0  0  0  0  0
  188.8460  176.8000  136.7890 C   0  0  2  0  0  0  0  0  0  0  0  0
  184.2430  174.2530  136.8650 C   0  0  2  0  0  3  0  0  0  0  0  0
  186.6610  177.0940  136.4610 O   0  0  0  0  0  0  0  0  0  0  0  0
  185.1440  175.3440  134.9100 O   0  0  0  0  0  1  0  0  0  0  0  0
  186.6780  174.1260  136.3040 C   0  0  2  0  0  3  0  0  0  0  0  0
  184.4640  177.0970  137.0800 O   0  0  0  0  0  0  0  0  0  0  0  0
  182.1380  174.4850  137.9810 O   0  0  0  0  0  1  0  0  0  0  0  0
  185.6480  176.3320  137.0490 C   0  0  1  0  0  3  0  0  0  0  0  0
  185.4290  175.0260  136.2470 C   0  0  2  0  0  0  0  0  0  0  0  0
  183.5520  176.4100  137.8950 C   0  0  1  0  0  3  0  0  0  0  0  0
  182.4840  177.2500  138.2040 O   0  0  0  0  0  1  0  0  0  0  0  0
  186.9750  173.7440  137.6030 F   0  0  0  0  0  0  0  0  0  0  0  0
  189.1500  177.6090  135.5010 C   0  0  0  0  0  0  0  0  0  0  0  0
  189.5070  178.9010  135.8400 F   0  0  0  0  0  0  0  0  0  0  0  0
  190.2050  177.0240  134.8200 F   0  0  0  0  0  0  0  0  0  0  0  0
  188.0630  177.6610  134.6460 F   0  0  0  0  0  0  0  0  0  0  0  0
  189.1010  178.0320  140.3650 C   0  0  0  0  0  2  0  0  0  0  0  0
  187.4270  177.4710  142.0280 N   0  0  0  0  0  0  0  0  0  0  0  0
  188.6320  178.2300  141.8050 C   0  0  1  0  0  3  0  0  0  0  0  0
  188.6690  177.0520  142.4780 O   0  0  0  0  0  0  0  0  0  0  0  0
  186.7350  178.1160  143.1400 C   0  0  1  0  0  3  0  0  0  0  0  0
  184.3820  178.5870  143.5680 N   0  0  0  0  0  0  0  0  0  0  0  0
  183.9020  178.8830  140.8460 C   0  0  0  0  0  3  0  0  0  0  0  0
  182.7460  178.5540  141.7430 C   0  0  2  0  0  3  0  0  0  0  0  0
  181.5450  179.1270  141.2850 O   0  0  0  0  0  0  0  0  0  0  0  0
  185.1160  178.8170  141.3160 N   0  0  0  0  0  0  0  0  0  0  0  0
  185.3620  178.5270  142.7070 C   0  0  0  0  0  0  0  0  0  0  0  0
  180.5110  178.5210  142.0340 C   0  0  0  0  0  2  0  0  0  0  0  0
  181.9620  178.5740  144.0960 C   0  0  0  0  0  2  0  0  0  0  0  0
  183.0610  179.0610  143.1550 C   0  0  1  0  0  3  0  0  0  0  0  0
  180.5890  178.9470  143.5110 C   0  0  0  0  0  2  0  0  0  0  0  0
  186.6650  177.2640  144.2470 O   0  0  0  0  0  0  0  0  0  0  0  0
  186.3820  178.1060  145.3260 C   0  0  0  0  0  2  0  0  0  0  0  0
  187.5850  178.2170  146.2430 C   0  0  1  0  0  3  0  0  0  0  0  0
  189.5680  176.8780  147.1060 C   0  0  1  0  0  3  0  0  0  0  0  0
  187.1270  178.1750  147.7050 C   0  0  0  0  0  2  0  0  0  0  0  0
  189.5490  177.9670  147.9970 O   0  0  0  0  0  0  0  0  0  0  0  0
  188.6030  177.1110  145.9370 C   0  0  0  0  0  2  0  0  0  0  0  0
  188.3060  177.9050  148.6620 C   0  0  0  0  0  2  0  0  0  0  0  0
  191.9350  176.7890  147.6580 N   0  0  0  0  0  1  0  0  0  0  0  0
  190.9750  176.6620  146.5770 C   0  0  0  0  0  2  0  0  0  0  0  0
  1 27  1  0  0  0  0
  1  2  1  6  0  0  0
  3  1  1  0  0  0  0
  4  3  2  0  0  0  0
  5  3  1  0  0  0  0
  8 20  1  0  0  0  0
  8 17  1  1  0  0  0
  9 15  1  0  0  0  0
  9 10  1  0  0  0  0
 10 11  1  0  0  0  0
 11  7  1  0  0  0  0
 11  5  1  1  0  0  0
 12  6  1  6  0  0  0
 12  8  1  0  0  0  0
 13  7  1  0  0  0  0
 15 22  1  1  0  0  0
 16 20  1  0  0  0  0
 18 13  1  6  0  0  0
 18 16  1  0  0  0  0
 19 14  1  6  0  0  0
 19 15  1  0  0  0  0
 19 12  1  0  0  0  0
 19 18  1  0  0  0  0
 20 21  1  6  0  0  0
 23 24  1  0  0  0  0
 23 11  1  0  0  0  0
 25 23  1  0  0  0  0
 26 23  1  0  0  0  0
 28 30  1  0  0  0  0
 28 31  1  0  0  0  0
 29 27  1  6  0  0  0
 29 28  1  0  0  0  0
 29 30  1  0  0  0  0
 31 42  1  1  0  0  0
 33 36  2  0  0  0  0
 34 33  1  6  0  0  0
 34 40  1  0  0  0  0
 35 34  1  0  0  0  0
 35 38  1  0  0  0  0
 36 37  1  0  0  0  0
 37 31  1  0  0  0  0
 37 32  2  0  0  0  0
 38 41  1  0  0  0  0
 40 32  1  0  0  0  0
 40 39  1  1  0  0  0
 41 39  1  0  0  0  0
 42 43  1  0  0  0  0
 44 43  1  6  0  0  0
 44 46  1  0  0  0  0
 45 51  1  6  0  0  0
 45 47  1  0  0  0  0
 46 49  1  0  0  0  0
 47 49  1  0  0  0  0
 48 44  1  0  0  0  0
 48 45  1  0  0  0  0
 51 50  1  0  0  0  0
M  END
>  <MODEL>
4

>  <REMARK>
 VINA RESULT:      -8.1      2.677      6.425
  Name = 
  12 active torsions:
  status: ('A' for Active; 'I' for Inactive)
    1  A    between atoms: N_2  and  C_34
    2  A    between atoms: C_3  and  C_12
    3  A    between atoms: C_3  and  C_22
    4  A    between atoms: C_4  and  C_26
    5  A    between atoms: C_7  and  C_37
    6  A    between atoms: C_12  and  C_25
    7  A    between atoms: C_17  and  C_20
    8  A    between atoms: C_17  and  O_47
    9  A    between atoms: C_22  and  O_47
   10  A    between atoms: C_26  and  O_28
   11  A    between atoms: O_28  and  C_34
   12  A    between atoms: C_32  and  C_34
                            x       y       z     vdW  Elec       q    Type
                         _______ _______ _______ _____ _____    ______ ____

>  <TORSDO>
F 12

$$$$
=
 OpenBabel11062412363D

 51 56  0  0  1  0  0  0  0  0999 V2000
  186.8760  176.3810  136.2140 C   0  0  2  0  0  3  0  0  0  0  0  0
  187.9930  176.2120  135.1960 C   0  0  0  0  0  1  0  0  0  0  0  0
  185.5220  176.0680  135.6310 C   0  0  0  0  0  0  0  0  0  0  0  0
  185.1340  176.6710  134.5940 O   0  0  0  0  0  0  0  0  0  0  0  0
  184.6760  175.1570  136.2830 O   0  0  0  0  0  0  0  0  0  0  0  0
  179.8730  178.1490  141.2090 C   0  0  0  0  0  1  0  0  0  0  0  0
  183.1730  176.8500  136.6830 O   0  0  0  0  0  0  0  0  0  0  0  0
  180.5070  179.9280  139.5570 C   0  0  1  0  0  3  0  0  0  0  0  0
  181.7320  175.0330  138.6930 C   0  0  0  0  0  2  0  0  0  0  0  0
  183.1080  174.8140  138.0670 C   0  0  0  0  0  2  0  0  0  0  0  0
  183.3230  175.4380  136.6690 C   0  0  2  0  0  0  0  0  0  0  0  0
  180.8670  178.5510  140.1260 C   0  0  2  0  0  3  0  0  0  0  0  0
  181.8890  177.1380  136.8030 O   0  0  0  0  0  0  0  0  0  0  0  0
  179.7230  177.1170  138.5580 O   0  0  0  0  0  1  0  0  0  0  0  0
  181.6880  176.2400  139.6290 C   0  0  2  0  0  3  0  0  0  0  0  0
  181.2400  179.2500  137.3770 O   0  0  0  0  0  0  0  0  0  0  0  0
  180.6940  180.9020  140.5420 O   0  0  0  0  0  1  0  0  0  0  0  0
  181.8250  178.0590  137.8530 C   0  0  1  0  0  3  0  0  0  0  0  0
  180.9970  177.4770  139.0240 C   0  0  2  0  0  0  0  0  0  0  0  0
  181.4250  180.2230  138.3700 C   0  0  1  0  0  3  0  0  0  0  0  0
  181.1380  181.4810  137.8440 O   0  0  0  0  0  1  0  0  0  0  0  0
  182.9350  176.5530  140.1490 F   0  0  0  0  0  0  0  0  0  0  0  0
  182.4180  174.7540  135.6110 C   0  0  0  0  0  0  0  0  0  0  0  0
  181.4300  174.0260  136.2490 F   0  0  0  0  0  0  0  0  0  0  0  0
  181.8150  175.7180  134.8200 F   0  0  0  0  0  0  0  0  0  0  0  0
  183.1310  173.9030  134.7840 F   0  0  0  0  0  0  0  0  0  0  0  0
  186.9540  177.7640  136.8770 C   0  0  0  0  0  2  0  0  0  0  0  0
  187.0040  178.6990  139.1150 N   0  0  0  0  0  0  0  0  0  0  0  0
  186.2730  177.8130  138.2440 C   0  0  1  0  0  3  0  0  0  0  0  0
  185.8180  179.0660  138.4980 O   0  0  0  0  0  0  0  0  0  0  0  0
  186.6970  178.2790  140.4790 C   0  0  1  0  0  3  0  0  0  0  0  0
  187.9660  177.5940  142.4430 N   0  0  0  0  0  0  0  0  0  0  0  0
  190.3200  177.5600  140.9640 C   0  0  0  0  0  3  0  0  0  0  0  0
  190.4150  177.7040  142.4540 C   0  0  2  0  0  3  0  0  0  0  0  0
  191.5760  177.0980  142.9680 O   0  0  0  0  0  0  0  0  0  0  0  0
  189.1560  177.6630  140.3840 N   0  0  0  0  0  0  0  0  0  0  0  0
  187.9490  177.8180  141.1570 C   0  0  0  0  0  0  0  0  0  0  0  0
  191.6910  177.5430  144.3050 C   0  0  0  0  0  2  0  0  0  0  0  0
  189.1910  177.3730  144.5850 C   0  0  0  0  0  2  0  0  0  0  0  0
  189.1710  177.0720  143.0890 C   0  0  1  0  0  3  0  0  0  0  0  0
  190.5550  176.9660  145.1690 C   0  0  0  0  0  2  0  0  0  0  0  0
  186.1040  179.3210  141.2000 O   0  0  0  0  0  0  0  0  0  0  0  0
  184.8350  178.8410  141.5380 C   0  0  0  0  0  2  0  0  0  0  0  0
  184.5120  179.1660  142.9840 C   0  0  1  0  0  3  0  0  0  0  0  0
  184.7990  178.2660  145.3450 C   0  0  1  0  0  3  0  0  0  0  0  0
  183.0210  178.9290  143.2470 C   0  0  0  0  0  2  0  0  0  0  0  0
  183.8240  179.2630  145.5360 O   0  0  0  0  0  0  0  0  0  0  0  0
  185.3930  178.3450  143.9330 C   0  0  0  0  0  2  0  0  0  0  0  0
  182.7130  178.8760  144.7580 C   0  0  0  0  0  2  0  0  0  0  0  0
  185.6320  179.5520  147.2340 N   0  0  0  0  0  1  0  0  0  0  0  0
  185.9030  178.4120  146.3770 C   0  0  0  0  0  2  0  0  0  0  0  0
  1  2  1  6  0  0  0
  1 27  1  0  0  0  0
  3  1  1  0  0  0  0
  3  5  1  0  0  0  0
  4  3  2  0  0  0  0
  7 13  1  0  0  0  0
  8 12  1  0  0  0  0
  8 17  1  1  0  0  0
  9 15  1  0  0  0  0
 10  9  1  0  0  0  0
 11  5  1  6  0  0  0
 11  7  1  0  0  0  0
 11 10  1  0  0  0  0
 12  6  1  1  0  0  0
 15 22  1  6  0  0  0
 16 18  1  0  0  0  0
 16 20  1  0  0  0  0
 18 13  1  6  0  0  0
 18 19  1  0  0  0  0
 19 14  1  6  0  0  0
 19 15  1  0  0  0  0
 19 12  1  0  0  0  0
 20 21  1  6  0  0  0
 20  8  1  0  0  0  0
 23 24  1  0  0  0  0
 23 11  1  0  0  0  0
 25 23  1  0  0  0  0
 26 23  1  0  0  0  0
 28 31  1  0  0  0  0
 29 27  1  6  0  0  0
 29 30  1  0  0  0  0
 29 28  1  0  0  0  0
 30 28  1  0  0  0  0
 31 37  1  0  0  0  0
 31 42  1  1  0  0  0
 32 40  1  0  0  0  0
 34 33  1  6  0  0  0
 34 35  1  0  0  0  0
 34 40  1  0  0  0  0
 35 38  1  0  0  0  0
 36 33  2  0  0  0  0
 36 37  1  0  0  0  0
 37 32  2  0  0  0  0
 38 41  1  0  0  0  0
 39 41  1  0  0  0  0
 40 39  1  1  0  0  0
 42 43  1  0  0  0  0
 44 43  1  6  0  0  0
 44 46  1  0  0  0  0
 44 48  1  0  0  0  0
 45 47  1  0  0  0  0
 45 51  1  1  0  0  0
 46 49  1  0  0  0  0
 48 45  1  0  0  0  0
 49 47  1  0  0  0  0
 51 50  1  0  0  0  0
M  END
>  <MODEL>
5

>  <REMARK>
 VINA RESULT:      -8.0      2.377      5.731
  Name = 
  12 active torsions:
  status: ('A' for Active; 'I' for Inactive)
    1  A    between atoms: N_2  and  C_34
    2  A    between atoms: C_3  and  C_12
    3  A    between atoms: C_3  and  C_22
    4  A    between atoms: C_4  and  C_26
    5  A    between atoms: C_7  and  C_37
    6  A    between atoms: C_12  and  C_25
    7  A    between atoms: C_17  and  C_20
    8  A    between atoms: C_17  and  O_47
    9  A    between atoms: C_22  and  O_47
   10  A    between atoms: C_26  and  O_28
   11  A    between atoms: O_28  and  C_34
   12  A    between atoms: C_32  and  C_34
                            x       y       z     vdW  Elec       q    Type
                         _______ _______ _______ _____ _____    ______ ____

>  <TORSDO>
F 12

$$$$
=
 OpenBabel11062412363D

 51 56  0  0  1  0  0  0  0  0999 V2000
  189.6660  177.1420  139.5750 C   0  0  2  0  0  3  0  0  0  0  0  0
  191.0840  177.1670  140.1220 C   0  0  0  0  0  1  0  0  0  0  0  0
  189.6360  177.0560  138.0710 C   0  0  0  0  0  0  0  0  0  0  0  0
  189.7790  178.1030  137.3830 O   0  0  0  0  0  0  0  0  0  0  0  0
  189.3830  175.8240  137.4480 O   0  0  0  0  0  0  0  0  0  0  0  0
  196.3450  175.1250  134.7400 C   0  0  0  0  0  1  0  0  0  0  0  0
  191.4450  174.8510  137.7380 O   0  0  0  0  0  0  0  0  0  0  0  0
  196.3840  174.4980  137.1700 C   0  0  1  0  0  3  0  0  0  0  0  0
  191.9290  175.0860  134.7170 C   0  0  0  0  0  2  0  0  0  0  0  0
  190.8280  175.7590  135.5340 C   0  0  0  0  0  2  0  0  0  0  0  0
  190.3810  175.0140  136.8120 C   0  0  2  0  0  0  0  0  0  0  0  0
  195.5850  175.1900  136.0600 C   0  0  2  0  0  3  0  0  0  0  0  0
  192.2690  173.9250  137.2790 O   0  0  0  0  0  0  0  0  0  0  0  0
  194.1810  173.3670  135.3290 O   0  0  0  0  0  1  0  0  0  0  0  0
  193.3270  175.5990  135.0620 C   0  0  2  0  0  3  0  0  0  0  0  0
  194.3560  173.7070  138.1760 O   0  0  0  0  0  0  0  0  0  0  0  0
  197.5460  175.2290  137.4320 O   0  0  0  0  0  1  0  0  0  0  0  0
  193.5380  174.5070  137.3530 C   0  0  1  0  0  3  0  0  0  0  0  0
  194.1490  174.6320  135.9360 C   0  0  2  0  0  0  0  0  0  0  0  0
  195.5230  174.4420  138.4320 C   0  0  1  0  0  3  0  0  0  0  0  0
  196.2320  173.8370  139.4690 O   0  0  0  0  0  1  0  0  0  0  0  0
  193.3040  176.8780  135.5960 F   0  0  0  0  0  0  0  0  0  0  0  0
  189.6910  173.6700  136.4590 C   0  0  0  0  0  0  0  0  0  0  0  0
  188.5950  173.9120  135.6500 F   0  0  0  0  0  0  0  0  0  0  0  0
  190.5770  172.8580  135.7710 F   0  0  0  0  0  0  0  0  0  0  0  0
  189.2660  172.9880  137.5860 F   0  0  0  0  0  0  0  0  0  0  0  0
  188.8480  178.3130  140.1400 C   0  0  0  0  0  2  0  0  0  0  0  0
  186.9070  178.9250  141.4600 N   0  0  0  0  0  0  0  0  0  0  0  0
  187.4520  177.9020  140.6020 C   0  0  1  0  0  3  0  0  0  0  0  0
  186.5250  178.7770  140.1350 O   0  0  0  0  0  0  0  0  0  0  0  0
  185.9070  178.2700  142.2970 C   0  0  1  0  0  3  0  0  0  0  0  0
  187.5330  177.9320  144.0810 N   0  0  0  0  0  0  0  0  0  0  0  0
  185.6210  178.5540  146.0010 C   0  0  0  0  0  3  0  0  0  0  0  0
  186.8100  177.7390  146.4150 C   0  0  2  0  0  3  0  0  0  0  0  0
  187.1880  178.0000  147.7450 O   0  0  0  0  0  0  0  0  0  0  0  0
  185.4040  178.7710  144.7330 N   0  0  0  0  0  0  0  0  0  0  0  0
  186.3380  178.3230  143.7300 C   0  0  0  0  0  0  0  0  0  0  0  0
  188.1110  176.9880  148.0960 C   0  0  0  0  0  2  0  0  0  0  0  0
  189.1230  177.1010  145.7890 C   0  0  0  0  0  2  0  0  0  0  0  0
  187.9750  178.0550  145.4700 C   0  0  1  0  0  3  0  0  0  0  0  0
  189.4180  177.1450  147.2980 C   0  0  0  0  0  2  0  0  0  0  0  0
  184.6530  178.8690  142.1390 O   0  0  0  0  0  0  0  0  0  0  0  0
  183.8730  177.8970  141.5070 C   0  0  0  0  0  2  0  0  0  0  0  0
  182.5310  178.4760  141.1000 C   0  0  1  0  0  3  0  0  0  0  0  0
  180.2330  179.0400  142.0340 C   0  0  1  0  0  3  0  0  0  0  0  0
  181.7600  177.4530  140.2580 C   0  0  0  0  0  2  0  0  0  0  0  0
  180.0040  179.1150  140.6470 O   0  0  0  0  0  0  0  0  0  0  0  0
  181.7320  178.9100  142.3340 C   0  0  0  0  0  2  0  0  0  0  0  0
  180.2680  177.8260  140.1390 C   0  0  0  0  0  2  0  0  0  0  0  0
  179.2790  181.2560  141.7300 N   0  0  0  0  0  1  0  0  0  0  0  0
  179.6750  180.2730  142.7220 C   0  0  0  0  0  2  0  0  0  0  0  0
  1  2  1  6  0  0  0
  1 27  1  0  0  0  0
  3  1  1  0  0  0  0
  4  3  2  0  0  0  0
  5  3  1  0  0  0  0
  8 17  1  1  0  0  0
  8 20  1  0  0  0  0
  9 15  1  0  0  0  0
  9 10  1  0  0  0  0
 10 11  1  0  0  0  0
 11  5  1  1  0  0  0
 11  7  1  0  0  0  0
 12  6  1  6  0  0  0
 12  8  1  0  0  0  0
 13  7  1  0  0  0  0
 15 22  1  1  0  0  0
 15 19  1  0  0  0  0
 16 20  1  0  0  0  0
 18 13  1  6  0  0  0
 18 16  1  0  0  0  0
 19 14  1  6  0  0  0
 19 12  1  0  0  0  0
 19 18  1  0  0  0  0
 20 21  1  1  0  0  0
 23 11  1  0  0  0  0
 23 26  1  0  0  0  0
 24 23  1  0  0  0  0
 25 23  1  0  0  0  0
 28 31  1  0  0  0  0
 29 27  1  6  0  0  0
 29 28  1  0  0  0  0
 30 29  1  0  0  0  0
 30 28  1  0  0  0  0
 31 42  1  1  0  0  0
 31 37  1  0  0  0  0
 32 40  1  0  0  0  0
 34 33  1  6  0  0  0
 34 35  1  0  0  0  0
 35 38  1  0  0  0  0
 36 33  2  0  0  0  0
 37 32  2  0  0  0  0
 37 36  1  0  0  0  0
 39 41  1  0  0  0  0
 40 39  1  1  0  0  0
 40 34  1  0  0  0  0
 41 38  1  0  0  0  0
 43 42  1  0  0  0  0
 44 43  1  1  0  0  0
 44 48  1  0  0  0  0
 45 48  1  0  0  0  0
 45 51  1  1  0  0  0
 46 44  1  0  0  0  0
 47 45  1  0  0  0  0
 49 46  1  0  0  0  0
 49 47  1  0  0  0  0
 50 51  1  0  0  0  0
M  END
>  <MODEL>
6

>  <REMARK>
 VINA RESULT:      -8.0      3.996      9.415
  Name = 
  12 active torsions:
  status: ('A' for Active; 'I' for Inactive)
    1  A    between atoms: N_2  and  C_34
    2  A    between atoms: C_3  and  C_12
    3  A    between atoms: C_3  and  C_22
    4  A    between atoms: C_4  and  C_26
    5  A    between atoms: C_7  and  C_37
    6  A    between atoms: C_12  and  C_25
    7  A    between atoms: C_17  and  C_20
    8  A    between atoms: C_17  and  O_47
    9  A    between atoms: C_22  and  O_47
   10  A    between atoms: C_26  and  O_28
   11  A    between atoms: O_28  and  C_34
   12  A    between atoms: C_32  and  C_34
                            x       y       z     vdW  Elec       q    Type
                         _______ _______ _______ _____ _____    ______ ____

>  <TORSDO>
F 12

$$$$
=
 OpenBabel11062412363D

 51 56  0  0  1  0  0  0  0  0999 V2000
  184.1430  179.4050  143.4770 C   0  0  2  0  0  3  0  0  0  0  0  0
  184.9350  179.3900  144.7750 C   0  0  0  0  0  1  0  0  0  0  0  0
  182.6790  179.1240  143.7000 C   0  0  0  0  0  0  0  0  0  0  0  0
  182.3300  178.2980  144.5870 O   0  0  0  0  0  0  0  0  0  0  0  0
  181.7190  179.7290  142.8740 O   0  0  0  0  0  0  0  0  0  0  0  0
  181.3510  177.9870  135.5860 C   0  0  0  0  0  1  0  0  0  0  0  0
  181.9050  178.0560  141.3090 O   0  0  0  0  0  0  0  0  0  0  0  0
  182.7020  176.2180  136.7450 C   0  0  1  0  0  3  0  0  0  0  0  0
  180.0320  179.6380  139.4640 C   0  0  0  0  0  2  0  0  0  0  0  0
  180.7260  180.1390  140.7280 C   0  0  0  0  0  2  0  0  0  0  0  0
  181.0380  179.0680  141.7990 C   0  0  2  0  0  0  0  0  0  0  0  0
  182.1170  177.6310  136.8550 C   0  0  2  0  0  3  0  0  0  0  0  0
  181.2260  177.2800  140.4830 O   0  0  0  0  0  0  0  0  0  0  0  0
  180.0290  177.1550  137.9690 O   0  0  0  0  0  1  0  0  0  0  0  0
  181.0090  179.3200  138.3320 C   0  0  2  0  0  3  0  0  0  0  0  0
  182.3330  175.8530  139.0860 O   0  0  0  0  0  0  0  0  0  0  0  0
  183.6910  176.1990  135.7570 O   0  0  0  0  0  1  0  0  0  0  0  0
  182.0150  177.2050  139.3320 C   0  0  1  0  0  3  0  0  0  0  0  0
  181.2590  177.8130  138.1260 C   0  0  2  0  0  0  0  0  0  0  0  0
  183.3210  175.8380  138.0910 C   0  0  1  0  0  3  0  0  0  0  0  0
  183.8830  174.5650  138.0170 O   0  0  0  0  0  1  0  0  0  0  0  0
  182.1980  180.0240  138.4460 F   0  0  0  0  0  0  0  0  0  0  0  0
  179.7310  178.4900  142.4030 C   0  0  0  0  0  0  0  0  0  0  0  0
  179.0360  179.4950  143.0500 F   0  0  0  0  0  0  0  0  0  0  0  0
  178.9340  177.9830  141.3900 F   0  0  0  0  0  0  0  0  0  0  0  0
  179.9780  177.4710  143.3060 F   0  0  0  0  0  0  0  0  0  0  0  0
  184.7940  178.4830  142.4360 C   0  0  0  0  0  2  0  0  0  0  0  0
  186.9240  177.8510  141.4600 N   0  0  0  0  0  0  0  0  0  0  0  0
  186.1750  178.9630  141.9910 C   0  0  1  0  0  3  0  0  0  0  0  0
  186.3200  178.8010  140.6510 O   0  0  0  0  0  0  0  0  0  0  0  0
  188.3340  178.2020  141.5990 C   0  0  1  0  0  3  0  0  0  0  0  0
  188.0160  177.6460  143.9500 N   0  0  0  0  0  0  0  0  0  0  0  0
  190.7620  177.4020  144.3090 C   0  0  0  0  0  3  0  0  0  0  0  0
  189.9070  177.6720  145.5100 C   0  0  2  0  0  3  0  0  0  0  0  0
  190.4270  177.0720  146.6720 O   0  0  0  0  0  0  0  0  0  0  0  0
  190.2400  177.4940  143.1170 N   0  0  0  0  0  0  0  0  0  0  0  0
  188.8330  177.7580  142.9380 C   0  0  0  0  0  0  0  0  0  0  0  0
  189.7090  177.6270  147.7550 C   0  0  0  0  0  2  0  0  0  0  0  0
  187.5900  177.5700  146.3890 C   0  0  0  0  0  2  0  0  0  0  0  0
  188.4940  177.1410  145.2380 C   0  0  1  0  0  3  0  0  0  0  0  0
  188.2400  177.1690  147.7250 C   0  0  0  0  0  2  0  0  0  0  0  0
  189.0950  177.6260  140.5760 O   0  0  0  0  0  0  0  0  0  0  0  0
  189.1010  178.5830  139.5570 C   0  0  0  0  0  2  0  0  0  0  0  0
  189.2340  177.9150  138.2020 C   0  0  1  0  0  3  0  0  0  0  0  0
  188.3410  175.9590  136.8430 C   0  0  1  0  0  3  0  0  0  0  0  0
  190.5610  177.1490  138.1310 C   0  0  0  0  0  2  0  0  0  0  0  0
  189.4720  176.3340  136.0950 O   0  0  0  0  0  0  0  0  0  0  0  0
  188.0360  176.9980  137.9300 C   0  0  0  0  0  2  0  0  0  0  0  0
  190.5810  176.1580  136.9500 C   0  0  0  0  0  2  0  0  0  0  0  0
  186.6620  174.4330  135.9660 N   0  0  0  0  0  1  0  0  0  0  0  0
  187.1390  175.8040  135.9280 C   0  0  0  0  0  2  0  0  0  0  0  0
  1  3  1  0  0  0  0
  1  2  1  1  0  0  0
  3  4  2  0  0  0  0
  5  3  1  0  0  0  0
  7 11  1  0  0  0  0
  8 17  1  6  0  0  0
  8 12  1  0  0  0  0
  8 20  1  0  0  0  0
  9 10  1  0  0  0  0
 10 11  1  0  0  0  0
 11 23  1  0  0  0  0
 11  5  1  1  0  0  0
 12  6  1  6  0  0  0
 12 19  1  0  0  0  0
 13  7  1  0  0  0  0
 15 22  1  1  0  0  0
 15  9  1  0  0  0  0
 18 16  1  6  0  0  0
 18 13  1  0  0  0  0
 19 14  1  6  0  0  0
 19 15  1  0  0  0  0
 19 18  1  0  0  0  0
 20 21  1  6  0  0  0
 20 16  1  0  0  0  0
 23 24  1  0  0  0  0
 23 26  1  0  0  0  0
 25 23  1  0  0  0  0
 27  1  1  0  0  0  0
 28 31  1  0  0  0  0
 28 29  1  0  0  0  0
 29 27  1  6  0  0  0
 30 28  1  0  0  0  0
 30 29  1  0  0  0  0
 31 42  1  6  0  0  0
 31 37  1  0  0  0  0
 32 40  1  0  0  0  0
 34 33  1  6  0  0  0
 34 35  1  0  0  0  0
 35 38  1  0  0  0  0
 36 33  2  0  0  0  0
 37 36  1  0  0  0  0
 37 32  2  0  0  0  0
 39 41  1  0  0  0  0
 40 34  1  0  0  0  0
 40 39  1  1  0  0  0
 41 38  1  0  0  0  0
 43 42  1  0  0  0  0
 44 43  1  1  0  0  0
 45 51  1  6  0  0  0
 45 48  1  0  0  0  0
 46 44  1  0  0  0  0
 47 45  1  0  0  0  0
 47 49  1  0  0  0  0
 48 44  1  0  0  0  0
 49 46  1  0  0  0  0
 51 50  1  0  0  0  0
M  END
>  <MODEL>
7

>  <REMARK>
 VINA RESULT:      -7.8      1.983      5.886
  Name = 
  12 active torsions:
  status: ('A' for Active; 'I' for Inactive)
    1  A    between atoms: N_2  and  C_34
    2  A    between atoms: C_3  and  C_12
    3  A    between atoms: C_3  and  C_22
    4  A    between atoms: C_4  and  C_26
    5  A    between atoms: C_7  and  C_37
    6  A    between atoms: C_12  and  C_25
    7  A    between atoms: C_17  and  C_20
    8  A    between atoms: C_17  and  O_47
    9  A    between atoms: C_22  and  O_47
   10  A    between atoms: C_26  and  O_28
   11  A    between atoms: O_28  and  C_34
   12  A    between atoms: C_32  and  C_34
                            x       y       z     vdW  Elec       q    Type
                         _______ _______ _______ _____ _____    ______ ____

>  <TORSDO>
F 12

$$$$
=
 OpenBabel11062412363D

 51 56  0  0  1  0  0  0  0  0999 V2000
  188.5870  177.1850  137.1720 C   0  0  2  0  0  3  0  0  0  0  0  0
  188.6100  178.7060  137.1520 C   0  0  0  0  0  1  0  0  0  0  0  0
  187.1840  176.6370  137.1350 C   0  0  0  0  0  0  0  0  0  0  0  0
  187.0010  175.3890  137.1320 O   0  0  0  0  0  0  0  0  0  0  0  0
  186.0940  177.5160  137.0360 O   0  0  0  0  0  0  0  0  0  0  0  0
  179.4530  175.6530  139.9880 C   0  0  0  0  0  1  0  0  0  0  0  0
  183.9040  178.1480  137.3370 O   0  0  0  0  0  0  0  0  0  0  0  0
  179.4840  178.1380  139.6400 C   0  0  1  0  0  3  0  0  0  0  0  0
  183.1340  175.1890  137.5940 C   0  0  0  0  0  2  0  0  0  0  0  0
  184.5390  175.7860  137.6270 C   0  0  0  0  0  2  0  0  0  0  0  0
  184.7330  177.1050  136.8440 C   0  0  2  0  0  0  0  0  0  0  0  0
  180.3360  176.8670  139.7230 C   0  0  2  0  0  3  0  0  0  0  0  0
  182.6580  177.9100  136.9660 O   0  0  0  0  0  0  0  0  0  0  0  0
  180.4500  176.2620  137.3890 O   0  0  0  0  0  1  0  0  0  0  0  0
  182.2830  175.5970  138.7960 C   0  0  2  0  0  3  0  0  0  0  0  0
  180.9370  179.0350  137.9560 O   0  0  0  0  0  0  0  0  0  0  0  0
  178.9310  178.4100  140.8940 O   0  0  0  0  0  1  0  0  0  0  0  0
  181.9070  178.0280  138.1390 C   0  0  1  0  0  3  0  0  0  0  0  0
  181.2310  176.6780  138.4780 C   0  0  2  0  0  0  0  0  0  0  0  0
  180.3810  179.3020  139.2160 C   0  0  1  0  0  3  0  0  0  0  0  0
  179.6380  180.4800  139.1530 O   0  0  0  0  0  1  0  0  0  0  0  0
  183.0520  175.9400  139.8970 F   0  0  0  0  0  0  0  0  0  0  0  0
  184.5570  176.8770  135.3200 C   0  0  0  0  0  0  0  0  0  0  0  0
  183.2270  177.0410  134.9780 F   0  0  0  0  0  0  0  0  0  0  0  0
  185.3110  177.8040  134.6200 F   0  0  0  0  0  0  0  0  0  0  0  0
  184.9610  175.6110  134.9310 F   0  0  0  0  0  0  0  0  0  0  0  0
  189.4260  176.6470  138.3400 C   0  0  0  0  0  2  0  0  0  0  0  0
  188.9450  177.2390  140.6430 N   0  0  0  0  0  0  0  0  0  0  0  0
  189.6320  177.6740  139.4530 C   0  0  1  0  0  3  0  0  0  0  0  0
  190.3170  177.1180  140.4840 O   0  0  0  0  0  0  0  0  0  0  0  0
  188.6820  178.4410  141.4280 C   0  0  1  0  0  3  0  0  0  0  0  0
  186.5950  178.9160  142.5950 N   0  0  0  0  0  0  0  0  0  0  0  0
  185.1570  178.6160  140.2350 C   0  0  0  0  0  3  0  0  0  0  0  0
  184.4340  178.4460  141.5370 C   0  0  2  0  0  3  0  0  0  0  0  0
  183.0950  178.8710  141.4560 O   0  0  0  0  0  0  0  0  0  0  0  0
  186.4590  178.6910  140.2300 N   0  0  0  0  0  0  0  0  0  0  0  0
  187.2090  178.7080  141.4620 C   0  0  0  0  0  0  0  0  0  0  0  0
  182.4630  178.4020  142.6290 C   0  0  0  0  0  2  0  0  0  0  0  0
  184.5330  178.9350  143.9670 C   0  0  0  0  0  2  0  0  0  0  0  0
  185.1710  179.2490  142.6160 C   0  0  1  0  0  3  0  0  0  0  0  0
  183.0100  179.1320  143.8700 C   0  0  0  0  0  2  0  0  0  0  0  0
  189.1860  178.3100  142.7260 O   0  0  0  0  0  0  0  0  0  0  0  0
  188.7370  177.0580  143.1570 C   0  0  0  0  0  2  0  0  0  0  0  0
  189.2450  176.7650  144.5560 C   0  0  1  0  0  3  0  0  0  0  0  0
  189.6060  177.8640  146.8210 C   0  0  1  0  0  3  0  0  0  0  0  0
  190.7750  176.6650  144.5410 C   0  0  0  0  0  2  0  0  0  0  0  0
  190.3580  176.6820  146.9540 O   0  0  0  0  0  0  0  0  0  0  0  0
  188.7570  177.8310  145.5440 C   0  0  0  0  0  2  0  0  0  0  0  0
  191.3620  176.7470  145.9640 C   0  0  0  0  0  2  0  0  0  0  0  0
  187.4510  177.3520  147.8260 N   0  0  0  0  0  1  0  0  0  0  0  0
  188.7080  178.0480  148.0320 C   0  0  0  0  0  2  0  0  0  0  0  0
  1  2  1  1  0  0  0
  1 27  1  0  0  0  0
  3  1  1  0  0  0  0
  4  3  2  0  0  0  0
  5  3  1  0  0  0  0
  8 12  1  0  0  0  0
  8 17  1  1  0  0  0
  9 10  1  0  0  0  0
  9 15  1  0  0  0  0
 11  5  1  1  0  0  0
 11  7  1  0  0  0  0
 11 10  1  0  0  0  0
 12  6  1  6  0  0  0
 13  7  1  0  0  0  0
 15 22  1  1  0  0  0
 16 18  1  0  0  0  0
 16 20  1  0  0  0  0
 18 13  1  6  0  0  0
 18 19  1  0  0  0  0
 19 14  1  6  0  0  0
 19 15  1  0  0  0  0
 19 12  1  0  0  0  0
 20 21  1  6  0  0  0
 20  8  1  0  0  0  0
 23 11  1  0  0  0  0
 24 23  1  0  0  0  0
 25 23  1  0  0  0  0
 26 23  1  0  0  0  0
 28 31  1  0  0  0  0
 29 27  1  6  0  0  0
 29 30  1  0  0  0  0
 29 28  1  0  0  0  0
 30 28  1  0  0  0  0
 31 37  1  0  0  0  0
 31 42  1  1  0  0  0
 32 40  1  0  0  0  0
 34 33  1  6  0  0  0
 34 40  1  0  0  0  0
 35 34  1  0  0  0  0
 35 38  1  0  0  0  0
 36 33  2  0  0  0  0
 36 37  1  0  0  0  0
 37 32  2  0  0  0  0
 38 41  1  0  0  0  0
 40 39  1  1  0  0  0
 41 39  1  0  0  0  0
 42 43  1  0  0  0  0
 44 43  1  6  0  0  0
 44 48  1  0  0  0  0
 45 47  1  0  0  0  0
 45 51  1  1  0  0  0
 46 44  1  0  0  0  0
 46 49  1  0  0  0  0
 48 45  1  0  0  0  0
 49 47  1  0  0  0  0
 50 51  1  0  0  0  0
M  END
>  <MODEL>
8

>  <REMARK>
 VINA RESULT:      -7.7      1.978      5.807
  Name = 
  12 active torsions:
  status: ('A' for Active; 'I' for Inactive)
    1  A    between atoms: N_2  and  C_34
    2  A    between atoms: C_3  and  C_12
    3  A    between atoms: C_3  and  C_22
    4  A    between atoms: C_4  and  C_26
    5  A    between atoms: C_7  and  C_37
    6  A    between atoms: C_12  and  C_25
    7  A    between atoms: C_17  and  C_20
    8  A    between atoms: C_17  and  O_47
    9  A    between atoms: C_22  and  O_47
   10  A    between atoms: C_26  and  O_28
   11  A    between atoms: O_28  and  C_34
   12  A    between atoms: C_32  and  C_34
                            x       y       z     vdW  Elec       q    Type
                         _______ _______ _______ _____ _____    ______ ____

>  <TORSDO>
F 12

$$$$
=
 OpenBabel11062412363D

 51 56  0  0  1  0  0  0  0  0999 V2000
  184.1270  179.3430  143.2310 C   0  0  2  0  0  3  0  0  0  0  0  0
  184.9990  178.6940  144.2960 C   0  0  0  0  0  1  0  0  0  0  0  0
  182.6620  179.0680  143.4500 C   0  0  0  0  0  0  0  0  0  0  0  0
  182.3060  178.2590  144.3490 O   0  0  0  0  0  0  0  0  0  0  0  0
  181.7080  179.6610  142.6080 O   0  0  0  0  0  0  0  0  0  0  0  0
  181.8610  177.8290  135.3340 C   0  0  0  0  0  1  0  0  0  0  0  0
  181.9610  177.9610  141.0820 O   0  0  0  0  0  0  0  0  0  0  0  0
  183.0550  176.0330  136.6180 C   0  0  1  0  0  3  0  0  0  0  0  0
  180.2950  179.5770  139.0750 C   0  0  0  0  0  2  0  0  0  0  0  0
  180.9040  180.0730  140.3850 C   0  0  0  0  0  2  0  0  0  0  0  0
  181.0930  179.0080  141.4900 C   0  0  2  0  0  0  0  0  0  0  0  0
  182.5110  177.4650  136.6640 C   0  0  2  0  0  3  0  0  0  0  0  0
  181.3230  177.1950  140.2140 O   0  0  0  0  0  0  0  0  0  0  0  0
  180.3270  177.0740  137.6130 O   0  0  0  0  0  1  0  0  0  0  0  0
  181.3480  179.2100  138.0290 C   0  0  2  0  0  3  0  0  0  0  0  0
  182.4880  175.7130  138.9260 O   0  0  0  0  0  0  0  0  0  0  0  0
  184.1170  175.9670  135.7130 O   0  0  0  0  0  1  0  0  0  0  0  0
  182.1990  177.0780  139.1300 C   0  0  1  0  0  3  0  0  0  0  0  0
  181.5620  177.6940  137.8610 C   0  0  2  0  0  0  0  0  0  0  0  0
  183.5520  175.6510  138.0130 C   0  0  1  0  0  3  0  0  0  0  0  0
  184.0740  174.3600  137.9990 O   0  0  0  0  0  1  0  0  0  0  0  0
  182.5470  179.8770  138.2290 F   0  0  0  0  0  0  0  0  0  0  0  0
  179.7230  178.4810  141.9930 C   0  0  0  0  0  0  0  0  0  0  0  0
  179.9260  177.4540  142.8960 F   0  0  0  0  0  0  0  0  0  0  0  0
  179.0370  179.5010  142.6320 F   0  0  0  0  0  0  0  0  0  0  0  0
  178.9310  178.0120  140.9600 F   0  0  0  0  0  0  0  0  0  0  0  0
  184.6210  178.9660  141.8270 C   0  0  0  0  0  2  0  0  0  0  0  0
  186.7070  178.7810  140.6030 N   0  0  0  0  0  0  0  0  0  0  0  0
  186.0390  178.3980  141.8210 C   0  0  1  0  0  3  0  0  0  0  0  0
  186.9490  179.4050  141.8170 O   0  0  0  0  0  0  0  0  0  0  0  0
  187.7580  177.7920  140.3820 C   0  0  1  0  0  3  0  0  0  0  0  0
  188.1980  176.5980  138.3040 N   0  0  0  0  0  0  0  0  0  0  0  0
  188.9670  178.9620  137.0590 C   0  0  0  0  0  3  0  0  0  0  0  0
  189.4560  177.6640  136.4900 C   0  0  2  0  0  3  0  0  0  0  0  0
  189.6000  177.7230  135.0920 O   0  0  0  0  0  0  0  0  0  0  0  0
  188.3770  178.9700  138.2220 N   0  0  0  0  0  0  0  0  0  0  0  0
  188.1040  177.7420  138.9270 C   0  0  0  0  0  0  0  0  0  0  0  0
  190.3230  176.5660  134.7220 C   0  0  0  0  0  2  0  0  0  0  0  0
  189.0530  175.2170  136.4330 C   0  0  0  0  0  2  0  0  0  0  0  0
  188.4640  176.5570  136.8660 C   0  0  1  0  0  3  0  0  0  0  0  0
  189.4780  175.3000  134.9570 C   0  0  0  0  0  2  0  0  0  0  0  0
  188.8920  178.0900  141.1460 O   0  0  0  0  0  0  0  0  0  0  0  0
  189.4040  176.8440  141.5200 C   0  0  0  0  0  2  0  0  0  0  0  0
  190.0590  176.9280  142.8860 C   0  0  1  0  0  3  0  0  0  0  0  0
  189.7340  177.9400  145.1970 C   0  0  1  0  0  3  0  0  0  0  0  0
  191.2710  177.8640  142.8230 C   0  0  0  0  0  2  0  0  0  0  0  0
  191.0850  177.5480  145.2440 O   0  0  0  0  0  0  0  0  0  0  0  0
  189.0460  177.3830  143.9440 C   0  0  0  0  0  2  0  0  0  0  0  0
  191.7390  178.2810  144.2320 C   0  0  0  0  0  2  0  0  0  0  0  0
  187.6210  177.1730  146.1240 N   0  0  0  0  0  1  0  0  0  0  0  0
  189.0080  177.4580  146.4410 C   0  0  0  0  0  2  0  0  0  0  0  0
  1  3  1  0  0  0  0
  1  2  1  1  0  0  0
  3  4  2  0  0  0  0
  5  3  1  0  0  0  0
  7 11  1  0  0  0  0
  8 17  1  6  0  0  0
  8 12  1  0  0  0  0
  8 20  1  0  0  0  0
  9 10  1  0  0  0  0
 10 11  1  0  0  0  0
 11 23  1  0  0  0  0
 11  5  1  1  0  0  0
 12  6  1  6  0  0  0
 12 19  1  0  0  0  0
 13  7  1  0  0  0  0
 15 22  1  1  0  0  0
 15  9  1  0  0  0  0
 18 16  1  6  0  0  0
 18 13  1  0  0  0  0
 19 14  1  6  0  0  0
 19 15  1  0  0  0  0
 19 18  1  0  0  0  0
 20 21  1  6  0  0  0
 20 16  1  0  0  0  0
 23 25  1  0  0  0  0
 23 24  1  0  0  0  0
 26 23  1  0  0  0  0
 27  1  1  0  0  0  0
 28 30  1  0  0  0  0
 28 29  1  0  0  0  0
 29 27  1  6  0  0  0
 30 29  1  0  0  0  0
 31 28  1  0  0  0  0
 31 42  1  1  0  0  0
 32 37  2  0  0  0  0
 33 36  2  0  0  0  0
 34 40  1  0  0  0  0
 34 33  1  6  0  0  0
 35 34  1  0  0  0  0
 36 37  1  0  0  0  0
 37 31  1  0  0  0  0
 38 41  1  0  0  0  0
 38 35  1  0  0  0  0
 40 39  1  1  0  0  0
 40 32  1  0  0  0  0
 41 39  1  0  0  0  0
 42 43  1  0  0  0  0
 44 43  1  6  0  0  0
 44 48  1  0  0  0  0
 45 47  1  0  0  0  0
 45 51  1  1  0  0  0
 46 44  1  0  0  0  0
 46 49  1  0  0  0  0
 48 45  1  0  0  0  0
 49 47  1  0  0  0  0
 50 51  1  0  0  0  0
M  END
>  <MODEL>
9

>  <REMARK>
 VINA RESULT:      -7.7      1.971      2.906
  Name = 
  12 active torsions:
  status: ('A' for Active; 'I' for Inactive)
    1  A    between atoms: N_2  and  C_34
    2  A    between atoms: C_3  and  C_12
    3  A    between atoms: C_3  and  C_22
    4  A    between atoms: C_4  and  C_26
    5  A    between atoms: C_7  and  C_37
    6  A    between atoms: C_12  and  C_25
    7  A    between atoms: C_17  and  C_20
    8  A    between atoms: C_17  and  O_47
    9  A    between atoms: C_22  and  O_47
   10  A    between atoms: C_26  and  O_28
   11  A    between atoms: O_28  and  C_34
   12  A    between atoms: C_32  and  C_34
                            x       y       z     vdW  Elec       q    Type
                         _______ _______ _______ _____ _____    ______ ____

>  <TORSDO>
F 12

$$$$
