=
 OpenBabel11062412423D

 32 34  0  0  1  0  0  0  0  0999 V2000
  187.1830  178.3180  146.2920 N   0  0  0  0  0  2  0  0  0  0  0  0
  185.7620  178.4750  146.3400 C   0  0  0  0  0  0  0  0  0  0  0  0
  185.1940  178.4880  147.4650 O   0  0  0  0  0  0  0  0  0  0  0  0
  191.0470  176.2750  144.1200 C   0  0  0  0  0  3  0  0  0  0  0  0
  191.1050  176.8220  146.4630 C   0  0  0  0  0  0  0  0  0  0  0  0
  191.7850  176.8420  147.7120 N   0  0  0  0  0  1  0  0  0  0  0  0
  191.7300  176.2870  145.3370 C   0  0  0  0  0  3  0  0  0  0  0  0
  189.7530  176.7950  144.0390 C   0  0  0  0  0  0  0  0  0  0  0  0
  187.8470  177.8940  145.1330 N   0  0  0  0  0  2  0  0  0  0  0  0
  189.8460  177.3300  146.3690 N   0  0  0  0  0  0  0  0  0  0  0  0
  189.1600  177.3350  145.1920 C   0  0  0  0  0  0  0  0  0  0  0  0
  189.0320  176.7580  142.7310 C   0  0  0  0  0  2  0  0  0  0  0  0
  189.5440  177.8520  141.8120 C   0  0  0  0  0  2  0  0  0  0  0  0
  189.4800  177.9540  139.2960 N   0  0  0  0  0  1  0  0  0  0  0  0
  189.8770  177.2760  140.4820 C   0  0  0  0  0  0  0  0  0  0  0  0
  190.5340  176.2060  140.4040 O   0  0  0  0  0  0  0  0  0  0  0  0
  182.7780  178.9150  144.0610 C   0  0  0  0  0  3  0  0  0  0  0  0
  184.7870  178.9280  142.7000 C   0  0  0  0  0  0  0  0  0  0  0  0
  184.9490  178.6350  145.1160 C   0  0  0  0  0  0  0  0  0  0  0  0
  185.5570  178.7400  143.8570 C   0  0  0  0  0  3  0  0  0  0  0  0
  183.5540  178.7350  145.2090 C   0  0  0  0  0  3  0  0  0  0  0  0
  183.3940  179.0100  142.8110 C   0  0  0  0  0  3  0  0  0  0  0  0
  186.5610  178.5220  141.1850 O   0  0  0  0  0  0  0  0  0  0  0  0
  185.4330  179.0520  141.3850 C   0  0  0  0  0  0  0  0  0  0  0  0
  184.7890  179.7620  140.3600 O   0  0  0  0  0  0  0  0  0  0  0  0
  182.9830  177.1470  138.3320 C   0  0  0  0  0  2  0  0  0  0  0  0
  181.9880  179.4560  138.1230 C   0  0  0  0  0  3  0  0  0  0  0  0
  185.1840  179.1170  138.1980 O   0  0  0  0  0  1  0  0  0  0  0  0
  184.2120  179.1630  139.1980 C   0  0  1  0  0  0  0  0  0  0  0  0
  181.8790  178.0350  137.9810 N   0  0  0  0  0  2  0  0  0  0  0  0
  183.7620  177.7250  139.5110 C   0  0  0  0  0  2  0  0  0  0  0  0
  183.0590  180.0020  138.7020 C   0  0  0  0  0  3  0  0  0  0  0  0
  1  2  1  0  0  0  0
  2  3  2  0  0  0  0
  4  7  1  0  0  0  0
  5  6  1  0  0  0  0
  7  5  2  0  0  0  0
  8  4  2  0  0  0  0
  8 11  1  0  0  0  0
  9 11  1  0  0  0  0
  9  1  1  0  0  0  0
 10  5  1  0  0  0  0
 11 10  2  0  0  0  0
 12  8  1  0  0  0  0
 13 12  1  0  0  0  0
 14 15  1  0  0  0  0
 15 13  1  0  0  0  0
 16 15  2  0  0  0  0
 17 21  1  0  0  0  0
 18 22  1  0  0  0  0
 18 20  2  0  0  0  0
 19 21  2  0  0  0  0
 19  2  1  0  0  0  0
 20 19  1  0  0  0  0
 22 17  2  0  0  0  0
 23 24  2  0  0  0  0
 24 18  1  0  0  0  0
 25 24  1  0  0  0  0
 26 31  1  0  0  0  0
 27 32  2  0  0  0  0
 29 28  1  6  0  0  0
 29 31  1  0  0  0  0
 29 25  1  0  0  0  0
 30 27  1  0  0  0  0
 30 26  1  0  0  0  0
 32 29  1  0  0  0  0
M  END
>  <MODEL>
1

>  <REMARK>
 VINA RESULT:      -9.3      0.000      0.000
  Name = 
  8 active torsions:
  status: ('A' for Active; 'I' for Inactive)
    1  A    between atoms: O_4  and  C_21
    2  A    between atoms: O_4  and  C_23
    3  A    between atoms: N_6  and  N_24
    4  A    between atoms: C_7  and  C_17
    5  A    between atoms: C_10  and  C_15
    6  A    between atoms: C_14  and  C_21
    7  A    between atoms: C_17  and  C_18
    8  A    between atoms: C_18  and  C_20
                            x       y       z     vdW  Elec       q    Type
                         _______ _______ _______ _____ _____    ______ ____

>  <TORSDO>
F 8

$$$$
=
 OpenBabel11062412423D

 32 34  0  0  1  0  0  0  0  0999 V2000
  190.8310  176.9030  142.7760 N   0  0  0  0  0  2  0  0  0  0  0  0
  190.9590  177.3450  141.4210 C   0  0  0  0  0  0  0  0  0  0  0  0
  192.1140  177.4510  140.9280 O   0  0  0  0  0  0  0  0  0  0  0  0
  188.6140  177.5270  147.0780 C   0  0  0  0  0  3  0  0  0  0  0  0
  190.9170  176.8340  146.9750 C   0  0  0  0  0  0  0  0  0  0  0  0
  192.1320  176.4780  147.6230 N   0  0  0  0  0  1  0  0  0  0  0  0
  189.7980  177.1790  147.7320 C   0  0  0  0  0  3  0  0  0  0  0  0
  188.5590  177.5270  145.6830 C   0  0  0  0  0  0  0  0  0  0  0  0
  189.6700  177.1330  143.5270 N   0  0  0  0  0  2  0  0  0  0  0  0
  190.8490  176.8330  145.6160 N   0  0  0  0  0  0  0  0  0  0  0  0
  189.7040  177.1640  144.9540 C   0  0  0  0  0  0  0  0  0  0  0  0
  187.2890  177.9180  145.0020 C   0  0  0  0  0  2  0  0  0  0  0  0
  186.0910  177.5110  145.8390 C   0  0  0  0  0  2  0  0  0  0  0  0
  184.0810  178.9900  145.4930 N   0  0  0  0  0  1  0  0  0  0  0  0
  185.2900  178.7140  146.1900 C   0  0  0  0  0  0  0  0  0  0  0  0
  185.6640  179.4720  147.1210 O   0  0  0  0  0  0  0  0  0  0  0  0
  188.7460  177.8220  138.3940 C   0  0  0  0  0  3  0  0  0  0  0  0
  187.4390  178.3070  140.3790 C   0  0  0  0  0  0  0  0  0  0  0  0
  189.7830  177.6660  140.5860 C   0  0  0  0  0  0  0  0  0  0  0  0
  188.5640  178.0380  141.1710 C   0  0  0  0  0  3  0  0  0  0  0  0
  189.8610  177.5500  139.1910 C   0  0  0  0  0  3  0  0  0  0  0  0
  187.5390  178.2010  138.9870 C   0  0  0  0  0  3  0  0  0  0  0  0
  185.8320  178.1880  142.1150 O   0  0  0  0  0  0  0  0  0  0  0  0
  186.1610  178.6840  141.0020 C   0  0  0  0  0  0  0  0  0  0  0  0
  185.3130  179.5930  140.3500 O   0  0  0  0  0  0  0  0  0  0  0  0
  182.8520  177.5470  138.3560 C   0  0  0  0  0  2  0  0  0  0  0  0
  182.0620  178.0900  140.6900 C   0  0  0  0  0  3  0  0  0  0  0  0
  183.6220  180.3300  138.9920 O   0  0  0  0  0  1  0  0  0  0  0  0
  184.0560  179.2500  139.7610 C   0  0  1  0  0  0  0  0  0  0  0  0
  181.9770  177.3010  139.4980 N   0  0  0  0  0  2  0  0  0  0  0  0
  184.2190  178.0270  138.8420 C   0  0  0  0  0  2  0  0  0  0  0  0
  183.0330  178.9920  140.8410 C   0  0  0  0  0  3  0  0  0  0  0  0
  1  9  1  0  0  0  0
  2  1  1  0  0  0  0
  3  2  2  0  0  0  0
  4  7  1  0  0  0  0
  5  6  1  0  0  0  0
  5  7  2  0  0  0  0
  8  4  2  0  0  0  0
  9 11  1  0  0  0  0
 10  5  1  0  0  0  0
 11 10  2  0  0  0  0
 11  8  1  0  0  0  0
 12  8  1  0  0  0  0
 12 13  1  0  0  0  0
 13 15  1  0  0  0  0
 14 15  1  0  0  0  0
 15 16  2  0  0  0  0
 17 22  2  0  0  0  0
 17 21  1  0  0  0  0
 18 24  1  0  0  0  0
 18 20  2  0  0  0  0
 19 20  1  0  0  0  0
 19  2  1  0  0  0  0
 21 19  2  0  0  0  0
 22 18  1  0  0  0  0
 24 23  2  0  0  0  0
 25 24  1  0  0  0  0
 26 31  1  0  0  0  0
 26 30  1  0  0  0  0
 27 32  2  0  0  0  0
 29 28  1  6  0  0  0
 29 25  1  0  0  0  0
 29 32  1  0  0  0  0
 30 27  1  0  0  0  0
 31 29  1  0  0  0  0
M  END
>  <MODEL>
2

>  <REMARK>
 VINA RESULT:      -9.2      1.791      4.784
  Name = 
  8 active torsions:
  status: ('A' for Active; 'I' for Inactive)
    1  A    between atoms: O_4  and  C_21
    2  A    between atoms: O_4  and  C_23
    3  A    between atoms: N_6  and  N_24
    4  A    between atoms: C_7  and  C_17
    5  A    between atoms: C_10  and  C_15
    6  A    between atoms: C_14  and  C_21
    7  A    between atoms: C_17  and  C_18
    8  A    between atoms: C_18  and  C_20
                            x       y       z     vdW  Elec       q    Type
                         _______ _______ _______ _____ _____    ______ ____

>  <TORSDO>
F 8

$$$$
=
 OpenBabel11062412423D

 32 34  0  0  1  0  0  0  0  0999 V2000
  185.1040  179.5160  140.5580 N   0  0  0  0  0  2  0  0  0  0  0  0
  184.5420  179.0550  139.3250 C   0  0  0  0  0  0  0  0  0  0  0  0
  183.4110  179.4900  138.9780 O   0  0  0  0  0  0  0  0  0  0  0  0
  186.8640  177.3600  144.5660 C   0  0  0  0  0  3  0  0  0  0  0  0
  184.8360  178.6530  144.6600 C   0  0  0  0  0  0  0  0  0  0  0  0
  183.7300  179.1670  145.3910 N   0  0  0  0  0  1  0  0  0  0  0  0
  185.7860  177.8570  145.3000 C   0  0  0  0  0  3  0  0  0  0  0  0
  186.9840  177.6610  143.2080 C   0  0  0  0  0  0  0  0  0  0  0  0
  186.1240  178.8180  141.2180 N   0  0  0  0  0  2  0  0  0  0  0  0
  184.9680  178.9430  143.3370 N   0  0  0  0  0  0  0  0  0  0  0  0
  186.0140  178.4750  142.6000 C   0  0  0  0  0  0  0  0  0  0  0  0
  188.1370  177.1070  142.4360 C   0  0  0  0  0  2  0  0  0  0  0  0
  189.0040  176.2380  143.3280 C   0  0  0  0  0  2  0  0  0  0  0  0
  191.5030  176.1070  143.6140 N   0  0  0  0  0  1  0  0  0  0  0  0
  190.3210  176.8940  143.5430 C   0  0  0  0  0  0  0  0  0  0  0  0
  190.3940  178.1470  143.6340 O   0  0  0  0  0  0  0  0  0  0  0  0
  185.2000  176.1690  136.9740 C   0  0  0  0  0  3  0  0  0  0  0  0
  187.2840  177.3600  137.3230 C   0  0  0  0  0  0  0  0  0  0  0  0
  185.2510  178.1000  138.4490 C   0  0  0  0  0  0  0  0  0  0  0  0
  186.6200  178.2460  138.1840 C   0  0  0  0  0  3  0  0  0  0  0  0
  184.5440  177.0600  137.8280 C   0  0  0  0  0  3  0  0  0  0  0  0
  186.5660  176.3190  136.7240 C   0  0  0  0  0  3  0  0  0  0  0  0
  189.1860  178.6810  136.8260 O   0  0  0  0  0  0  0  0  0  0  0  0
  188.7180  177.5280  137.0390 C   0  0  0  0  0  0  0  0  0  0  0  0
  189.5550  176.4020  137.0060 O   0  0  0  0  0  0  0  0  0  0  0  0
  193.0140  176.4710  138.5030 C   0  0  0  0  0  2  0  0  0  0  0  0
  191.2130  177.2680  140.0800 C   0  0  0  0  0  3  0  0  0  0  0  0
  190.6330  174.7490  138.1670 O   0  0  0  0  0  1  0  0  0  0  0  0
  190.5830  176.1280  137.9600 C   0  0  1  0  0  0  0  0  0  0  0  0
  192.5920  177.1890  139.7010 N   0  0  0  0  0  2  0  0  0  0  0  0
  191.9450  176.5930  137.4190 C   0  0  0  0  0  2  0  0  0  0  0  0
  190.2590  176.7950  139.2760 C   0  0  0  0  0  3  0  0  0  0  0  0
  1  9  1  0  0  0  0
  2  1  1  0  0  0  0
  3  2  2  0  0  0  0
  4  7  1  0  0  0  0
  5  7  2  0  0  0  0
  5  6  1  0  0  0  0
  8  4  2  0  0  0  0
  9 11  1  0  0  0  0
 10  5  1  0  0  0  0
 11  8  1  0  0  0  0
 11 10  2  0  0  0  0
 12  8  1  0  0  0  0
 12 13  1  0  0  0  0
 13 15  1  0  0  0  0
 15 14  1  0  0  0  0
 15 16  2  0  0  0  0
 17 21  1  0  0  0  0
 18 20  2  0  0  0  0
 19  2  1  0  0  0  0
 20 19  1  0  0  0  0
 21 19  2  0  0  0  0
 22 17  2  0  0  0  0
 22 18  1  0  0  0  0
 23 24  2  0  0  0  0
 24 18  1  0  0  0  0
 25 24  1  0  0  0  0
 25 29  1  0  0  0  0
 26 30  1  0  0  0  0
 29 28  1  1  0  0  0
 29 32  1  0  0  0  0
 30 27  1  0  0  0  0
 31 29  1  0  0  0  0
 31 26  1  0  0  0  0
 32 27  2  0  0  0  0
M  END
>  <MODEL>
3

>  <REMARK>
 VINA RESULT:      -8.8      2.847      6.676
  Name = 
  8 active torsions:
  status: ('A' for Active; 'I' for Inactive)
    1  A    between atoms: O_4  and  C_21
    2  A    between atoms: O_4  and  C_23
    3  A    between atoms: N_6  and  N_24
    4  A    between atoms: C_7  and  C_17
    5  A    between atoms: C_10  and  C_15
    6  A    between atoms: C_14  and  C_21
    7  A    between atoms: C_17  and  C_18
    8  A    between atoms: C_18  and  C_20
                            x       y       z     vdW  Elec       q    Type
                         _______ _______ _______ _____ _____    ______ ____

>  <TORSDO>
F 8

$$$$
=
 OpenBabel11062412423D

 32 34  0  0  1  0  0  0  0  0999 V2000
  185.6350  179.2900  140.3370 N   0  0  0  0  0  2  0  0  0  0  0  0
  186.5260  178.5990  139.4550 C   0  0  0  0  0  0  0  0  0  0  0  0
  186.1810  178.4410  138.2530 O   0  0  0  0  0  0  0  0  0  0  0  0
  183.5240  178.6090  144.6840 C   0  0  0  0  0  3  0  0  0  0  0  0
  182.1870  178.9520  142.7120 C   0  0  0  0  0  0  0  0  0  0  0  0
  180.9160  179.0580  142.0830 N   0  0  0  0  0  1  0  0  0  0  0  0
  182.2680  178.7120  144.0840 C   0  0  0  0  0  3  0  0  0  0  0  0
  184.6810  178.7480  143.9150 C   0  0  0  0  0  0  0  0  0  0  0  0
  185.7260  179.1690  141.7310 N   0  0  0  0  0  2  0  0  0  0  0  0
  183.3220  179.0910  141.9750 N   0  0  0  0  0  0  0  0  0  0  0  0
  184.5600  179.0000  142.5380 C   0  0  0  0  0  0  0  0  0  0  0  0
  186.0150  178.6190  144.5730 C   0  0  0  0  0  2  0  0  0  0  0  0
  185.9310  177.6880  145.7680 C   0  0  0  0  0  2  0  0  0  0  0  0
  185.7190  179.6960  147.2750 N   0  0  0  0  0  1  0  0  0  0  0  0
  186.2980  178.4250  147.0060 C   0  0  0  0  0  0  0  0  0  0  0  0
  187.0980  177.9130  147.8320 O   0  0  0  0  0  0  0  0  0  0  0  0
  190.2190  177.7960  139.5380 C   0  0  0  0  0  3  0  0  0  0  0  0
  189.2190  177.0080  141.6040 C   0  0  0  0  0  0  0  0  0  0  0  0
  187.8340  178.0830  139.9080 C   0  0  0  0  0  0  0  0  0  0  0  0
  187.9700  177.4650  141.1600 C   0  0  0  0  0  3  0  0  0  0  0  0
  188.9710  178.2540  139.1060 C   0  0  0  0  0  3  0  0  0  0  0  0
  190.3410  177.1730  140.7830 C   0  0  0  0  0  3  0  0  0  0  0  0
  188.3330  175.9390  143.5220 O   0  0  0  0  0  0  0  0  0  0  0  0
  189.3560  176.3720  142.9230 C   0  0  0  0  0  0  0  0  0  0  0  0
  190.6260  176.2540  143.5070 O   0  0  0  0  0  0  0  0  0  0  0  0
  190.1740  177.6530  146.9790 C   0  0  0  0  0  2  0  0  0  0  0  0
  191.9810  175.8990  146.8220 C   0  0  0  0  0  3  0  0  0  0  0  0
  191.6680  178.0580  144.4600 O   0  0  0  0  0  1  0  0  0  0  0  0
  191.0100  176.8610  144.7430 C   0  0  1  0  0  0  0  0  0  0  0  0
  191.0610  176.6740  147.5990 N   0  0  0  0  0  2  0  0  0  0  0  0
  189.7630  177.1750  145.5880 C   0  0  0  0  0  2  0  0  0  0  0  0
  191.9630  175.9580  145.4890 C   0  0  0  0  0  3  0  0  0  0  0  0
  1  9  1  0  0  0  0
  2 19  1  0  0  0  0
  2  1  1  0  0  0  0
  3  2  2  0  0  0  0
  5  7  2  0  0  0  0
  6  5  1  0  0  0  0
  7  4  1  0  0  0  0
  8 12  1  0  0  0  0
  8  4  2  0  0  0  0
  9 11  1  0  0  0  0
 10 11  2  0  0  0  0
 10  5  1  0  0  0  0
 11  8  1  0  0  0  0
 12 13  1  0  0  0  0
 13 15  1  0  0  0  0
 15 14  1  0  0  0  0
 15 16  2  0  0  0  0
 17 22  1  0  0  0  0
 18 24  1  0  0  0  0
 19 20  2  0  0  0  0
 20 18  1  0  0  0  0
 21 17  2  0  0  0  0
 21 19  1  0  0  0  0
 22 18  2  0  0  0  0
 24 25  1  0  0  0  0
 24 23  2  0  0  0  0
 25 29  1  0  0  0  0
 26 30  1  0  0  0  0
 27 30  1  0  0  0  0
 29 28  1  6  0  0  0
 29 32  1  0  0  0  0
 29 31  1  0  0  0  0
 31 26  1  0  0  0  0
 32 27  2  0  0  0  0
M  END
>  <MODEL>
4

>  <REMARK>
 VINA RESULT:      -8.7      2.300      8.338
  Name = 
  8 active torsions:
  status: ('A' for Active; 'I' for Inactive)
    1  A    between atoms: O_4  and  C_21
    2  A    between atoms: O_4  and  C_23
    3  A    between atoms: N_6  and  N_24
    4  A    between atoms: C_7  and  C_17
    5  A    between atoms: C_10  and  C_15
    6  A    between atoms: C_14  and  C_21
    7  A    between atoms: C_17  and  C_18
    8  A    between atoms: C_18  and  C_20
                            x       y       z     vdW  Elec       q    Type
                         _______ _______ _______ _____ _____    ______ ____

>  <TORSDO>
F 8

$$$$
=
 OpenBabel11062412423D

 32 34  0  0  1  0  0  0  0  0999 V2000
  184.3680  178.7490  145.7940 N   0  0  0  0  0  0  0  0  0  0  0  0
  185.5790  178.7760  146.5560 C   0  0  0  0  0  0  0  0  0  0  0  0
  185.5500  179.2630  147.7180 O   0  0  0  0  0  0  0  0  0  0  0  0
  181.9780  178.6220  141.5410 C   0  0  0  0  0  3  0  0  0  0  0  0
  180.7730  178.6390  143.6250 C   0  0  0  0  0  0  0  0  0  0  0  0
  179.5460  178.6470  144.3430 N   0  0  0  0  0  1  0  0  0  0  0  0
  180.7640  178.6270  142.2300 C   0  0  0  0  0  3  0  0  0  0  0  0
  183.1830  178.6280  142.2470 C   0  0  0  0  0  0  0  0  0  0  0  0
  184.3690  178.6140  144.3990 N   0  0  0  0  0  0  0  0  0  0  0  0
  181.9540  178.6400  144.3000 N   0  0  0  0  0  0  0  0  0  0  0  0
  183.1520  178.6300  143.6510 C   0  0  0  0  0  0  0  0  0  0  0  0
  184.4710  178.6390  141.4920 C   0  0  0  0  0  2  0  0  0  0  0  0
  184.3060  179.3630  140.1690 C   0  0  0  0  0  2  0  0  0  0  0  0
  183.9710  177.5050  138.5000 N   0  0  0  0  0  1  0  0  0  0  0  0
  184.8090  178.5080  139.0610 C   0  0  0  0  0  0  0  0  0  0  0  0
  185.9660  178.6900  138.5990 O   0  0  0  0  0  0  0  0  0  0  0  0
  188.9770  177.1270  146.4040 C   0  0  0  0  0  3  0  0  0  0  0  0
  188.3110  177.7120  144.1450 C   0  0  0  0  0  0  0  0  0  0  0  0
  186.8510  178.2400  146.0260 C   0  0  0  0  0  0  0  0  0  0  0  0
  187.1200  178.2530  144.6500 C   0  0  0  0  0  3  0  0  0  0  0  0
  187.7850  177.6630  146.8970 C   0  0  0  0  0  3  0  0  0  0  0  0
  189.2390  177.1530  145.0320 C   0  0  0  0  0  3  0  0  0  0  0  0
  187.6410  177.4980  141.8840 O   0  0  0  0  0  0  0  0  0  0  0  0
  188.5800  177.7170  142.6990 C   0  0  0  0  0  0  0  0  0  0  0  0
  189.8810  177.9640  142.2370 O   0  0  0  0  0  0  0  0  0  0  0  0
  190.8610  176.3590  138.9690 C   0  0  0  0  0  2  0  0  0  0  0  0
  192.8030  177.3710  140.2230 C   0  0  0  0  0  3  0  0  0  0  0  0
  190.5210  175.7980  141.8530 O   0  0  0  0  0  1  0  0  0  0  0  0
  190.6070  177.1000  141.3590 C   0  0  1  0  0  0  0  0  0  0  0  0
  192.2270  176.8710  139.0110 N   0  0  0  0  0  2  0  0  0  0  0  0
  189.9850  177.1330  139.9520 C   0  0  0  0  0  2  0  0  0  0  0  0
  192.0620  177.5020  141.3250 C   0  0  0  0  0  3  0  0  0  0  0  0
  1  2  1  0  0  0  0
  2  3  2  0  0  0  0
  4  7  1  0  0  0  0
  4  8  2  0  0  0  0
  5 10  1  0  0  0  0
  5  6  1  0  0  0  0
  7  5  2  0  0  0  0
  8 11  1  0  0  0  0
  9  1  2  0  0  0  0
 11 10  2  0  0  0  0
 11  9  1  0  0  0  0
 12  8  1  0  0  0  0
 13 12  1  0  0  0  0
 14 15  1  0  0  0  0
 15 13  1  0  0  0  0
 16 15  2  0  0  0  0
 17 21  1  0  0  0  0
 18 20  2  0  0  0  0
 18 22  1  0  0  0  0
 19  2  1  0  0  0  0
 19 21  2  0  0  0  0
 20 19  1  0  0  0  0
 22 17  2  0  0  0  0
 23 24  2  0  0  0  0
 24 18  1  0  0  0  0
 25 24  1  0  0  0  0
 26 30  1  0  0  0  0
 26 31  1  0  0  0  0
 27 32  2  0  0  0  0
 29 28  1  1  0  0  0
 29 25  1  0  0  0  0
 30 27  1  0  0  0  0
 31 29  1  0  0  0  0
 32 29  1  0  0  0  0
M  END
>  <MODEL>
5

>  <REMARK>
 VINA RESULT:      -8.6      2.486      6.984
  Name = 
  8 active torsions:
  status: ('A' for Active; 'I' for Inactive)
    1  A    between atoms: O_4  and  C_21
    2  A    between atoms: O_4  and  C_23
    3  A    between atoms: N_6  and  N_24
    4  A    between atoms: C_7  and  C_17
    5  A    between atoms: C_10  and  C_15
    6  A    between atoms: C_14  and  C_21
    7  A    between atoms: C_17  and  C_18
    8  A    between atoms: C_18  and  C_20
                            x       y       z     vdW  Elec       q    Type
                         _______ _______ _______ _____ _____    ______ ____

>  <TORSDO>
F 8

$$$$
=
 OpenBabel11062412423D

 32 34  0  0  1  0  0  0  0  0999 V2000
  187.0800  178.3360  145.9950 N   0  0  0  0  0  0  0  0  0  0  0  0
  185.6610  178.5200  145.9680 C   0  0  0  0  0  0  0  0  0  0  0  0
  185.0480  178.6370  147.0620 O   0  0  0  0  0  0  0  0  0  0  0  0
  191.0370  176.1530  144.1530 C   0  0  0  0  0  3  0  0  0  0  0  0
  191.0210  176.9470  146.4250 C   0  0  0  0  0  0  0  0  0  0  0  0
  191.6660  177.1120  147.6820 N   0  0  0  0  0  1  0  0  0  0  0  0
  191.6860  176.3080  145.3790 C   0  0  0  0  0  3  0  0  0  0  0  0
  189.7380  176.6350  143.9830 C   0  0  0  0  0  0  0  0  0  0  0  0
  187.7830  177.8050  144.9050 N   0  0  0  0  0  0  0  0  0  0  0  0
  189.7570  177.4160  146.2450 N   0  0  0  0  0  0  0  0  0  0  0  0
  189.1030  177.2820  145.0570 C   0  0  0  0  0  0  0  0  0  0  0  0
  189.0540  176.4450  142.6690 C   0  0  0  0  0  2  0  0  0  0  0  0
  189.8480  177.1050  141.5570 C   0  0  0  0  0  2  0  0  0  0  0  0
  188.9270  177.9090  139.3550 N   0  0  0  0  0  1  0  0  0  0  0  0
  188.9630  178.0070  140.7730 C   0  0  0  0  0  0  0  0  0  0  0  0
  188.2250  178.8370  141.3650 O   0  0  0  0  0  0  0  0  0  0  0  0
  184.8330  178.3570  142.2830 C   0  0  0  0  0  3  0  0  0  0  0  0
  182.8050  178.9040  143.4980 C   0  0  0  0  0  0  0  0  0  0  0  0
  184.9040  178.5910  144.7010 C   0  0  0  0  0  0  0  0  0  0  0  0
  183.5300  178.8730  144.6980 C   0  0  0  0  0  3  0  0  0  0  0  0
  185.5460  178.3220  143.4840 C   0  0  0  0  0  3  0  0  0  0  0  0
  183.4670  178.6480  142.2910 C   0  0  0  0  0  3  0  0  0  0  0  0
  180.6080  178.5980  144.3280 O   0  0  0  0  0  0  0  0  0  0  0  0
  181.3620  179.1870  143.5050 C   0  0  0  0  0  0  0  0  0  0  0  0
  180.8330  180.1120  142.5910 O   0  0  0  0  0  0  0  0  0  0  0  0
  179.0380  180.6580  139.3210 C   0  0  0  0  0  2  0  0  0  0  0  0
  180.8050  178.8580  139.2190 C   0  0  0  0  0  3  0  0  0  0  0  0
  178.9340  179.0870  141.8240 O   0  0  0  0  0  1  0  0  0  0  0  0
  180.0880  179.7610  141.4230 C   0  0  1  0  0  0  0  0  0  0  0  0
  179.9410  179.7950  138.5650 N   0  0  0  0  0  2  0  0  0  0  0  0
  179.6740  181.0300  140.6590 C   0  0  0  0  0  2  0  0  0  0  0  0
  180.9010  178.8360  140.5490 C   0  0  0  0  0  3  0  0  0  0  0  0
  2  1  1  0  0  0  0
  2  3  2  0  0  0  0
  4  7  1  0  0  0  0
  5  6  1  0  0  0  0
  7  5  2  0  0  0  0
  8  4  2  0  0  0  0
  8 11  1  0  0  0  0
  9 11  1  0  0  0  0
  9  1  2  0  0  0  0
 10  5  1  0  0  0  0
 11 10  2  0  0  0  0
 12  8  1  0  0  0  0
 13 12  1  0  0  0  0
 14 15  1  0  0  0  0
 15 16  2  0  0  0  0
 15 13  1  0  0  0  0
 17 22  2  0  0  0  0
 17 21  1  0  0  0  0
 18 24  1  0  0  0  0
 18 20  2  0  0  0  0
 19  2  1  0  0  0  0
 20 19  1  0  0  0  0
 21 19  2  0  0  0  0
 22 18  1  0  0  0  0
 24 23  2  0  0  0  0
 25 24  1  0  0  0  0
 26 31  1  0  0  0  0
 27 32  2  0  0  0  0
 29 28  1  1  0  0  0
 29 25  1  0  0  0  0
 30 27  1  0  0  0  0
 30 26  1  0  0  0  0
 31 29  1  0  0  0  0
 32 29  1  0  0  0  0
M  END
>  <MODEL>
6

>  <REMARK>
 VINA RESULT:      -8.5      2.208      2.960
  Name = 
  8 active torsions:
  status: ('A' for Active; 'I' for Inactive)
    1  A    between atoms: O_4  and  C_21
    2  A    between atoms: O_4  and  C_23
    3  A    between atoms: N_6  and  N_24
    4  A    between atoms: C_7  and  C_17
    5  A    between atoms: C_10  and  C_15
    6  A    between atoms: C_14  and  C_21
    7  A    between atoms: C_17  and  C_18
    8  A    between atoms: C_18  and  C_20
                            x       y       z     vdW  Elec       q    Type
                         _______ _______ _______ _____ _____    ______ ____

>  <TORSDO>
F 8

$$$$
=
 OpenBabel11062412423D

 32 34  0  0  1  0  0  0  0  0999 V2000
  189.7740  176.7850  141.7620 N   0  0  0  0  0  2  0  0  0  0  0  0
  189.7550  177.2920  140.4240 C   0  0  0  0  0  0  0  0  0  0  0  0
  190.8490  177.4210  139.8130 O   0  0  0  0  0  0  0  0  0  0  0  0
  188.0830  177.5090  146.2820 C   0  0  0  0  0  3  0  0  0  0  0  0
  190.4000  176.9730  145.9110 C   0  0  0  0  0  0  0  0  0  0  0  0
  191.7110  176.7430  146.4120 N   0  0  0  0  0  1  0  0  0  0  0  0
  189.3630  177.2840  146.7910 C   0  0  0  0  0  3  0  0  0  0  0  0
  187.8510  177.4220  144.9080 C   0  0  0  0  0  0  0  0  0  0  0  0
  188.7050  176.9770  142.6470 N   0  0  0  0  0  2  0  0  0  0  0  0
  190.1590  176.8860  144.5750 N   0  0  0  0  0  0  0  0  0  0  0  0
  188.9180  177.0960  144.0540 C   0  0  0  0  0  0  0  0  0  0  0  0
  186.4780  177.6810  144.3810 C   0  0  0  0  0  2  0  0  0  0  0  0
  185.9430  178.9960  144.9160 C   0  0  0  0  0  2  0  0  0  0  0  0
  183.4340  178.8120  144.7930 N   0  0  0  0  0  1  0  0  0  0  0  0
  184.6250  178.7760  145.5690 C   0  0  0  0  0  0  0  0  0  0  0  0
  184.5640  178.5280  146.8010 O   0  0  0  0  0  0  0  0  0  0  0  0
  187.1100  177.6240  137.7450 C   0  0  0  0  0  3  0  0  0  0  0  0
  186.2470  178.5960  139.7940 C   0  0  0  0  0  0  0  0  0  0  0  0
  188.4960  177.6530  139.7400 C   0  0  0  0  0  0  0  0  0  0  0  0
  187.4550  178.2870  140.4350 C   0  0  0  0  0  3  0  0  0  0  0  0
  188.3080  177.3140  138.3930 C   0  0  0  0  0  3  0  0  0  0  0  0
  186.0830  178.2640  138.4440 C   0  0  0  0  0  3  0  0  0  0  0  0
  185.3670  179.7140  141.6870 O   0  0  0  0  0  0  0  0  0  0  0  0
  185.1560  179.2490  140.5330 C   0  0  0  0  0  0  0  0  0  0  0  0
  183.8840  179.3480  139.9470 O   0  0  0  0  0  0  0  0  0  0  0  0
  180.5940  178.0070  141.2070 C   0  0  0  0  0  2  0  0  0  0  0  0
  180.8780  177.8070  138.7070 C   0  0  0  0  0  3  0  0  0  0  0  0
  183.3860  177.2200  140.6330 O   0  0  0  0  0  1  0  0  0  0  0  0
  182.8320  178.3980  140.1300 C   0  0  1  0  0  0  0  0  0  0  0  0
  180.0400  177.8230  139.8690 N   0  0  0  0  0  2  0  0  0  0  0  0
  181.8080  178.9310  141.1460 C   0  0  0  0  0  2  0  0  0  0  0  0
  182.1790  178.0890  138.8040 C   0  0  0  0  0  3  0  0  0  0  0  0
  1  9  1  0  0  0  0
  2  1  1  0  0  0  0
  3  2  2  0  0  0  0
  4  7  1  0  0  0  0
  5  6  1  0  0  0  0
  5  7  2  0  0  0  0
  8  4  2  0  0  0  0
  9 11  1  0  0  0  0
 10  5  1  0  0  0  0
 11 10  2  0  0  0  0
 11  8  1  0  0  0  0
 12  8  1  0  0  0  0
 12 13  1  0  0  0  0
 13 15  1  0  0  0  0
 14 15  1  0  0  0  0
 15 16  2  0  0  0  0
 17 21  2  0  0  0  0
 17 22  1  0  0  0  0
 18 20  1  0  0  0  0
 18 24  1  0  0  0  0
 19  2  1  0  0  0  0
 19 20  2  0  0  0  0
 21 19  1  0  0  0  0
 22 18  2  0  0  0  0
 24 23  2  0  0  0  0
 25 29  1  0  0  0  0
 25 24  1  0  0  0  0
 27 32  2  0  0  0  0
 27 30  1  0  0  0  0
 29 28  1  1  0  0  0
 29 31  1  0  0  0  0
 30 26  1  0  0  0  0
 31 26  1  0  0  0  0
 32 29  1  0  0  0  0
M  END
>  <MODEL>
7

>  <REMARK>
 VINA RESULT:      -8.5      2.032      4.819
  Name = 
  8 active torsions:
  status: ('A' for Active; 'I' for Inactive)
    1  A    between atoms: O_4  and  C_21
    2  A    between atoms: O_4  and  C_23
    3  A    between atoms: N_6  and  N_24
    4  A    between atoms: C_7  and  C_17
    5  A    between atoms: C_10  and  C_15
    6  A    between atoms: C_14  and  C_21
    7  A    between atoms: C_17  and  C_18
    8  A    between atoms: C_18  and  C_20
                            x       y       z     vdW  Elec       q    Type
                         _______ _______ _______ _____ _____    ______ ____

>  <TORSDO>
F 8

$$$$
=
 OpenBabel11062412423D

 32 34  0  0  1  0  0  0  0  0999 V2000
  190.1190  176.6930  143.9620 N   0  0  0  0  0  2  0  0  0  0  0  0
  190.7430  177.1240  142.7480 C   0  0  0  0  0  0  0  0  0  0  0  0
  191.9970  177.2330  142.7210 O   0  0  0  0  0  0  0  0  0  0  0  0
  186.5700  178.2290  146.9390 C   0  0  0  0  0  3  0  0  0  0  0  0
  188.8300  178.0070  147.7380 C   0  0  0  0  0  0  0  0  0  0  0  0
  189.7900  178.1270  148.7800 N   0  0  0  0  0  1  0  0  0  0  0  0
  187.4990  178.3510  147.9730 C   0  0  0  0  0  3  0  0  0  0  0  0
  186.9760  177.7660  145.6860 C   0  0  0  0  0  0  0  0  0  0  0  0
  188.7620  176.9200  144.2240 N   0  0  0  0  0  2  0  0  0  0  0  0
  189.2110  177.5520  146.5140 N   0  0  0  0  0  0  0  0  0  0  0  0
  188.3230  177.4190  145.4890 C   0  0  0  0  0  0  0  0  0  0  0  0
  185.9710  177.6560  144.5870 C   0  0  0  0  0  2  0  0  0  0  0  0
  185.0590  178.8690  144.5780 C   0  0  0  0  0  2  0  0  0  0  0  0
  182.5940  178.9160  144.0590 N   0  0  0  0  0  1  0  0  0  0  0  0
  183.9260  178.6400  143.6430 C   0  0  0  0  0  0  0  0  0  0  0  0
  184.1450  178.2310  142.4730 O   0  0  0  0  0  0  0  0  0  0  0  0
  188.0320  178.4690  140.4820 C   0  0  0  0  0  3  0  0  0  0  0  0
  189.7020  177.3700  139.1070 C   0  0  0  0  0  0  0  0  0  0  0  0
  189.9610  177.4280  141.5310 C   0  0  0  0  0  0  0  0  0  0  0  0
  190.4260  177.0490  140.2640 C   0  0  0  0  0  3  0  0  0  0  0  0
  188.7640  178.1510  141.6290 C   0  0  0  0  0  3  0  0  0  0  0  0
  188.5000  178.0780  139.2250 C   0  0  0  0  0  3  0  0  0  0  0  0
  189.3960  176.8430  136.8180 O   0  0  0  0  0  0  0  0  0  0  0  0
  190.2030  176.9800  137.7800 C   0  0  0  0  0  0  0  0  0  0  0  0
  191.5760  176.7610  137.5940 O   0  0  0  0  0  0  0  0  0  0  0  0
  193.0050  173.8920  135.6090 C   0  0  0  0  0  2  0  0  0  0  0  0
  194.5410  174.7290  137.4290 C   0  0  0  0  0  3  0  0  0  0  0  0
  191.3840  174.5160  138.0020 O   0  0  0  0  0  1  0  0  0  0  0  0
  192.1700  175.4810  137.3710 C   0  0  1  0  0  0  0  0  0  0  0  0
  194.3300  174.0010  136.2140 N   0  0  0  0  0  2  0  0  0  0  0  0
  192.2100  175.1710  135.8640 C   0  0  0  0  0  2  0  0  0  0  0  0
  193.5530  175.4390  137.9760 C   0  0  0  0  0  3  0  0  0  0  0  0
  1  9  1  0  0  0  0
  2  1  1  0  0  0  0
  3  2  2  0  0  0  0
  4  7  1  0  0  0  0
  5  7  2  0  0  0  0
  5  6  1  0  0  0  0
  8  4  2  0  0  0  0
  9 11  1  0  0  0  0
 10  5  1  0  0  0  0
 11  8  1  0  0  0  0
 11 10  2  0  0  0  0
 12  8  1  0  0  0  0
 13 12  1  0  0  0  0
 15 14  1  0  0  0  0
 15 13  1  0  0  0  0
 16 15  2  0  0  0  0
 17 21  1  0  0  0  0
 18 22  1  0  0  0  0
 18 20  2  0  0  0  0
 19 21  2  0  0  0  0
 19  2  1  0  0  0  0
 20 19  1  0  0  0  0
 22 17  2  0  0  0  0
 23 24  2  0  0  0  0
 24 18  1  0  0  0  0
 25 24  1  0  0  0  0
 26 31  1  0  0  0  0
 26 30  1  0  0  0  0
 27 32  2  0  0  0  0
 29 25  1  0  0  0  0
 29 32  1  0  0  0  0
 29 28  1  1  0  0  0
 30 27  1  0  0  0  0
 31 29  1  0  0  0  0
M  END
>  <MODEL>
8

>  <REMARK>
 VINA RESULT:      -8.5      3.248      7.149
  Name = 
  8 active torsions:
  status: ('A' for Active; 'I' for Inactive)
    1  A    between atoms: O_4  and  C_21
    2  A    between atoms: O_4  and  C_23
    3  A    between atoms: N_6  and  N_24
    4  A    between atoms: C_7  and  C_17
    5  A    between atoms: C_10  and  C_15
    6  A    between atoms: C_14  and  C_21
    7  A    between atoms: C_17  and  C_18
    8  A    between atoms: C_18  and  C_20
                            x       y       z     vdW  Elec       q    Type
                         _______ _______ _______ _____ _____    ______ ____

>  <TORSDO>
F 8

$$$$
=
 OpenBabel11062412423D

 32 34  0  0  1  0  0  0  0  0999 V2000
  190.8450  176.9440  142.8990 N   0  0  0  0  0  2  0  0  0  0  0  0
  190.9250  177.3740  141.5370 C   0  0  0  0  0  0  0  0  0  0  0  0
  192.0630  177.4990  141.0100 O   0  0  0  0  0  0  0  0  0  0  0  0
  188.7210  177.4570  147.2640 C   0  0  0  0  0  3  0  0  0  0  0  0
  191.0190  176.7590  147.0920 C   0  0  0  0  0  0  0  0  0  0  0  0
  192.2460  176.3830  147.7050 N   0  0  0  0  0  1  0  0  0  0  0  0
  189.9170  177.0870  147.8820 C   0  0  0  0  0  3  0  0  0  0  0  0
  188.6370  177.4950  145.8710 C   0  0  0  0  0  0  0  0  0  0  0  0
  189.7010  177.1570  143.6810 N   0  0  0  0  0  2  0  0  0  0  0  0
  190.9220  176.7960  145.7360 N   0  0  0  0  0  0  0  0  0  0  0  0
  189.7650  177.1480  145.1080 C   0  0  0  0  0  0  0  0  0  0  0  0
  187.3540  177.9080  145.2270 C   0  0  0  0  0  2  0  0  0  0  0  0
  186.1750  177.5320  146.1050 C   0  0  0  0  0  2  0  0  0  0  0  0
  184.1540  179.0000  145.7770 N   0  0  0  0  0  1  0  0  0  0  0  0
  185.3880  178.7490  146.4390 C   0  0  0  0  0  0  0  0  0  0  0  0
  185.7970  179.5410  147.3270 O   0  0  0  0  0  0  0  0  0  0  0  0
  187.3640  178.2490  140.6180 C   0  0  0  0  0  3  0  0  0  0  0  0
  188.6410  177.9990  138.5700 C   0  0  0  0  0  0  0  0  0  0  0  0
  189.7180  177.6580  140.7320 C   0  0  0  0  0  0  0  0  0  0  0  0
  189.7790  177.6930  139.3310 C   0  0  0  0  0  3  0  0  0  0  0  0
  188.5040  177.9500  141.3690 C   0  0  0  0  0  3  0  0  0  0  0  0
  187.4330  178.2720  139.2230 C   0  0  0  0  0  3  0  0  0  0  0  0
  188.0940  178.9460  136.4700 O   0  0  0  0  0  0  0  0  0  0  0  0
  188.7160  178.0470  137.1020 C   0  0  0  0  0  0  0  0  0  0  0  0
  189.4770  177.0900  136.4150 O   0  0  0  0  0  0  0  0  0  0  0  0
  189.0330  173.3710  136.8490 C   0  0  0  0  0  2  0  0  0  0  0  0
  186.8630  174.6200  136.5260 C   0  0  0  0  0  3  0  0  0  0  0  0
  189.4430  175.4650  134.8010 O   0  0  0  0  0  1  0  0  0  0  0  0
  189.0270  175.7710  136.0980 C   0  0  1  0  0  0  0  0  0  0  0  0
  187.5790  173.4550  136.9520 N   0  0  0  0  0  2  0  0  0  0  0  0
  189.6500  174.7520  137.0660 C   0  0  0  0  0  2  0  0  0  0  0  0
  187.5180  175.7170  136.1390 C   0  0  0  0  0  3  0  0  0  0  0  0
  1  9  1  0  0  0  0
  2  1  1  0  0  0  0
  3  2  2  0  0  0  0
  4  7  1  0  0  0  0
  5  6  1  0  0  0  0
  5  7  2  0  0  0  0
  8  4  2  0  0  0  0
  9 11  1  0  0  0  0
 10  5  1  0  0  0  0
 11 10  2  0  0  0  0
 11  8  1  0  0  0  0
 12  8  1  0  0  0  0
 12 13  1  0  0  0  0
 13 15  1  0  0  0  0
 14 15  1  0  0  0  0
 15 16  2  0  0  0  0
 17 21  1  0  0  0  0
 18 22  1  0  0  0  0
 18 20  2  0  0  0  0
 19 21  2  0  0  0  0
 19  2  1  0  0  0  0
 20 19  1  0  0  0  0
 22 17  2  0  0  0  0
 23 24  2  0  0  0  0
 24 18  1  0  0  0  0
 25 24  1  0  0  0  0
 26 30  1  0  0  0  0
 26 31  1  0  0  0  0
 27 30  1  0  0  0  0
 29 28  1  6  0  0  0
 29 32  1  0  0  0  0
 29 25  1  0  0  0  0
 29 31  1  0  0  0  0
 32 27  2  0  0  0  0
M  END
>  <MODEL>
9

>  <REMARK>
 VINA RESULT:      -8.5      3.223      5.907
  Name = 
  8 active torsions:
  status: ('A' for Active; 'I' for Inactive)
    1  A    between atoms: O_4  and  C_21
    2  A    between atoms: O_4  and  C_23
    3  A    between atoms: N_6  and  N_24
    4  A    between atoms: C_7  and  C_17
    5  A    between atoms: C_10  and  C_15
    6  A    between atoms: C_14  and  C_21
    7  A    between atoms: C_17  and  C_18
    8  A    between atoms: C_18  and  C_20
                            x       y       z     vdW  Elec       q    Type
                         _______ _______ _______ _____ _____    ______ ____

>  <TORSDO>
F 8

$$$$
