=
 OpenBabel11062412493D

 54 60  0  0  1  0  0  0  0  0999 V2000
  179.6510  176.4730  139.9230 C   0  0  0  0  0  3  0  0  0  0  0  0
  180.4830  174.9190  138.2440 C   0  0  2  0  0  3  0  0  0  0  0  0
  180.9700  178.8520  139.2530 C   0  0  0  0  0  3  0  0  0  0  0  0
  180.5370  176.4170  138.8840 C   0  0  0  0  0  0  0  0  0  0  0  0
  180.2400  178.7110  140.4720 C   0  0  0  0  0  3  0  0  0  0  0  0
  180.6510  175.6130  135.8360 O   0  0  0  0  0  0  0  0  0  0  0  0
  179.5830  177.5260  140.8360 C   0  0  0  0  0  3  0  0  0  0  0  0
  182.7050  176.8530  136.4350 C   0  0  1  0  0  3  0  0  0  0  0  0
  182.7230  177.4800  137.8670 N   0  0  0  0  0  0  0  0  0  0  0  0
  181.0120  174.6480  136.8390 C   0  0  0  0  0  2  0  0  0  0  0  0
  181.4070  176.7270  135.6640 C   0  0  0  0  0  0  0  0  0  0  0  0
  181.4660  177.5860  138.6470 C   0  0  0  0  0  0  0  0  0  0  0  0
  181.2600  177.4370  134.6510 O   0  0  0  0  0  0  0  0  0  0  0  0
  186.4690  179.6690  141.8520 C   0  0  0  0  0  2  0  0  0  0  0  0
  184.6230  178.1990  141.7900 N   0  0  0  0  0  0  0  0  0  0  0  0
  184.3830  178.4200  139.3200 C   0  0  0  0  0  0  0  0  0  0  0  0
  183.9880  178.2560  138.0640 C   0  0  0  0  0  3  0  0  0  0  0  0
  185.6500  178.6980  142.6840 C   0  0  1  0  0  3  0  0  0  0  0  0
  186.0700  179.4690  140.5290 O   0  0  0  0  0  0  0  0  0  0  0  0
  184.9900  178.6090  140.4730 C   0  0  0  0  0  0  0  0  0  0  0  0
  183.3170  177.7360  142.2940 C   0  0  0  0  0  1  0  0  0  0  0  0
  186.4910  177.6550  143.0500 O   0  0  0  0  0  0  0  0  0  0  0  0
  187.4380  177.8970  147.0020 C   0  0  0  0  0  0  0  0  0  0  0  0
  188.5270  177.7140  146.0180 C   0  0  0  0  0  3  0  0  0  0  0  0
  186.0420  178.7660  145.1670 C   0  0  0  0  0  2  0  0  0  0  0  0
  187.7200  177.6410  148.7240 Cl  0  0  0  0  0  0  0  0  0  0  0  0
  188.2610  177.6770  144.7090 C   0  0  0  0  0  0  0  0  0  0  0  0
  186.2700  178.3790  146.5990 C   0  0  0  0  0  3  0  0  0  0  0  0
  186.9110  177.9560  144.2850 N   0  0  0  0  0  0  0  0  0  0  0  0
  191.5770  177.4020  142.0650 C   0  0  0  0  0  3  0  0  0  0  0  0
  190.2880  177.4490  141.5140 C   0  0  0  0  0  0  0  0  0  0  0  0
  190.6930  177.7060  144.2720 C   0  0  0  0  0  3  0  0  0  0  0  0
  189.1900  177.6210  142.3710 C   0  0  0  0  0  3  0  0  0  0  0  0
  189.3880  177.7950  143.7550 C   0  0  0  0  0  0  0  0  0  0  0  0
  191.7750  177.5100  143.4380 C   0  0  0  0  0  3  0  0  0  0  0  0
  190.1250  177.0940  140.0540 C   0  0  0  0  0  2  0  0  0  0  0  0
  188.0190  176.6480  139.0280 F   0  0  0  0  0  0  0  0  0  0  0  0
  189.0380  178.6790  138.4160 C   0  0  0  0  0  1  0  0  0  0  0  0
  188.8100  177.6640  139.5100 C   0  0  2  0  0  3  0  0  0  0  0  0
  179.1090  174.2460  138.3480 C   0  0  0  0  0  2  0  0  0  0  0  0
  178.9310  172.8560  138.6500 F   0  0  0  0  0  0  0  0  0  0  0  0
  184.5440  177.8270  135.0490 O   0  0  0  0  0  0  0  0  0  0  0  0
  184.0830  176.8350  135.6040 C   0  0  0  0  0  0  0  0  0  0  0  0
  184.8410  175.7230  135.4510 O   0  0  0  0  0  0  0  0  0  0  0  0
  189.9230  176.4550  135.0580 C   0  0  0  0  0  1  0  0  0  0  0  0
  188.4900  173.5480  137.0920 C   0  0  0  0  0  3  0  0  0  0  0  0
  186.6990  175.0670  136.4520 C   0  0  0  0  0  0  0  0  0  0  0  0
  188.9700  175.5800  135.8110 C   0  0  0  0  0  0  0  0  0  0  0  0
  189.3840  174.4150  136.4680 C   0  0  0  0  0  3  0  0  0  0  0  0
  184.8400  173.7560  136.9730 C   0  0  0  0  0  2  0  0  0  0  0  0
  187.1340  173.8730  137.0410 C   0  0  0  0  0  0  0  0  0  0  0  0
  185.2820  175.2330  136.6240 C   0  0  2  0  0  3  0  0  0  0  0  0
  187.6260  175.9030  135.8310 C   0  0  0  0  0  3  0  0  0  0  0  0
  186.0560  173.0510  137.4590 N   0  0  0  0  0  2  0  0  0  0  0  0
  1  7  1  0  0  0  0
  2 40  1  6  0  0  0
  2  4  1  0  0  0  0
  3  5  1  0  0  0  0
  4  1  2  0  0  0  0
  5  7  2  0  0  0  0
  6 10  1  0  0  0  0
  8 43  1  6  0  0  0
  8  9  1  0  0  0  0
  9 17  1  0  0  0  0
  9 12  1  0  0  0  0
 10  2  1  0  0  0  0
 11  6  1  0  0  0  0
 11  8  1  0  0  0  0
 12  4  1  0  0  0  0
 12  3  2  0  0  0  0
 13 11  2  0  0  0  0
 14 18  1  0  0  0  0
 15 21  1  0  0  0  0
 15 18  1  0  0  0  0
 16 20  2  0  0  0  0
 17 16  2  0  0  0  0
 18 22  1  6  0  0  0
 19 14  1  0  0  0  0
 20 19  1  0  0  0  0
 20 15  1  0  0  0  0
 22 29  1  0  0  0  0
 23 26  1  0  0  0  0
 24 23  1  0  0  0  0
 25 28  1  0  0  0  0
 27 24  2  0  0  0  0
 28 23  2  0  0  0  0
 29 27  1  0  0  0  0
 29 25  1  0  0  0  0
 30 35  1  0  0  0  0
 31 30  2  0  0  0  0
 31 33  1  0  0  0  0
 33 34  2  0  0  0  0
 34 32  1  0  0  0  0
 34 27  1  0  0  0  0
 35 32  2  0  0  0  0
 36 31  1  0  0  0  0
 37 39  1  0  0  0  0
 39 38  1  6  0  0  0
 39 36  1  0  0  0  0
 40 41  1  0  0  0  0
 42 43  2  0  0  0  0
 44 43  1  0  0  0  0
 45 48  1  0  0  0  0
 47 52  1  0  0  0  0
 47 51  2  0  0  0  0
 48 53  2  0  0  0  0
 48 49  1  0  0  0  0
 49 46  2  0  0  0  0
 50 54  1  0  0  0  0
 51 46  1  0  0  0  0
 51 54  1  0  0  0  0
 52 44  1  6  0  0  0
 52 50  1  0  0  0  0
 53 47  1  0  0  0  0
M  END
>  <MODEL>
1

>  <REMARK>
 VINA RESULT:      -7.7      0.000      0.000
  Name = 
  10 active torsions:
  status: ('A' for Active; 'I' for Inactive)
    1  A    between atoms: C_9  and  C_18
    2  A    between atoms: C_11  and  C_34
    3  A    between atoms: C_21  and  C_37
    4  A    between atoms: C_24  and  N_44
    5  A    between atoms: C_28  and  O_51
    6  A    between atoms: O_31  and  C_33
    7  A    between atoms: O_31  and  C_43
    8  A    between atoms: C_34  and  C_47
    9  A    between atoms: C_36  and  C_43
   10  A    between atoms: N_42  and  O_51
                            x       y       z     vdW  Elec       q    Type
                         _______ _______ _______ _____ _____    ______ ____

>  <TORSDO>
F 10

$$$$
=
 OpenBabel11062412493D

 54 60  0  0  1  0  0  0  0  0999 V2000
  189.6750  176.5310  135.5090 C   0  0  0  0  0  3  0  0  0  0  0  0
  190.8280  175.1230  137.1260 C   0  0  2  0  0  3  0  0  0  0  0  0
  189.1530  178.8510  136.9900 C   0  0  0  0  0  3  0  0  0  0  0  0
  190.0520  176.5240  136.8230 C   0  0  0  0  0  0  0  0  0  0  0  0
  188.5710  178.6280  135.7050 C   0  0  0  0  0  3  0  0  0  0  0  0
  192.6150  176.0820  138.6070 O   0  0  0  0  0  0  0  0  0  0  0  0
  188.8060  177.4690  134.9510 C   0  0  0  0  0  3  0  0  0  0  0  0
  190.8130  177.0620  139.9880 C   0  0  1  0  0  3  0  0  0  0  0  0
  189.5330  177.5090  139.2100 N   0  0  0  0  0  0  0  0  0  0  0  0
  191.7330  174.9770  138.3450 C   0  0  0  0  0  2  0  0  0  0  0  0
  192.1780  177.1400  139.3370 C   0  0  0  0  0  0  0  0  0  0  0  0
  189.5640  177.6290  137.7330 C   0  0  0  0  0  0  0  0  0  0  0  0
  192.9890  177.9770  139.7800 O   0  0  0  0  0  0  0  0  0  0  0  0
  183.9520  179.2460  139.9550 C   0  0  0  0  0  2  0  0  0  0  0  0
  185.2130  177.9800  138.4110 N   0  0  0  0  0  0  0  0  0  0  0  0
  187.3120  178.2530  139.7270 C   0  0  0  0  0  0  0  0  0  0  0  0
  188.5610  178.1450  140.1570 C   0  0  0  0  0  3  0  0  0  0  0  0
  183.8490  178.3580  138.7270 C   0  0  1  0  0  3  0  0  0  0  0  0
  185.2610  179.1040  140.4190 O   0  0  0  0  0  0  0  0  0  0  0  0
  186.0140  178.3630  139.5290 C   0  0  0  0  0  0  0  0  0  0  0  0
  185.6260  177.6520  137.0340 C   0  0  0  0  0  1  0  0  0  0  0  0
  183.1290  177.2280  139.0940 O   0  0  0  0  0  0  0  0  0  0  0  0
  180.4310  177.5680  136.0630 C   0  0  0  0  0  0  0  0  0  0  0  0
  181.2370  176.3310  136.1650 C   0  0  0  0  0  3  0  0  0  0  0  0
  180.9040  177.9690  138.4480 C   0  0  0  0  0  2  0  0  0  0  0  0
  179.5280  177.9420  134.5960 Cl  0  0  0  0  0  0  0  0  0  0  0  0
  182.1000  176.1630  137.1730 C   0  0  0  0  0  0  0  0  0  0  0  0
  180.2860  178.3400  137.1320 C   0  0  0  0  0  3  0  0  0  0  0  0
  182.1170  177.1550  138.2200 N   0  0  0  0  0  0  0  0  0  0  0  0
  183.7590  172.2510  137.2240 C   0  0  0  0  0  3  0  0  0  0  0  0
  184.5930  173.3330  137.5470 C   0  0  0  0  0  0  0  0  0  0  0  0
  181.8630  173.7060  137.0510 C   0  0  0  0  0  3  0  0  0  0  0  0
  184.0380  174.6200  137.6130 C   0  0  0  0  0  3  0  0  0  0  0  0
  182.6570  174.8120  137.4070 C   0  0  0  0  0  0  0  0  0  0  0  0
  182.4080  172.4420  136.9580 C   0  0  0  0  0  3  0  0  0  0  0  0
  186.0840  173.0930  137.5940 C   0  0  0  0  0  2  0  0  0  0  0  0
  187.5720  171.6700  136.3910 F   0  0  0  0  0  0  0  0  0  0  0  0
  187.1350  173.7570  135.3960 C   0  0  0  0  0  1  0  0  0  0  0  0
  186.5920  172.6200  136.2270 C   0  0  2  0  0  3  0  0  0  0  0  0
  191.5960  174.5620  135.9230 C   0  0  0  0  0  2  0  0  0  0  0  0
  192.7080  175.2300  135.3130 F   0  0  0  0  0  0  0  0  0  0  0  0
  191.6820  176.6660  142.3000 O   0  0  0  0  0  0  0  0  0  0  0  0
  190.7420  177.0250  141.5960 C   0  0  0  0  0  0  0  0  0  0  0  0
  189.6420  177.3830  142.2970 O   0  0  0  0  0  0  0  0  0  0  0  0
  184.7440  178.2970  143.6000 C   0  0  0  0  0  1  0  0  0  0  0  0
  187.4420  177.7880  146.2650 C   0  0  0  0  0  3  0  0  0  0  0  0
  188.3330  177.2210  144.0720 C   0  0  0  0  0  0  0  0  0  0  0  0
  186.0320  177.9270  144.2660 C   0  0  0  0  0  0  0  0  0  0  0  0
  186.2180  178.0420  145.6490 C   0  0  0  0  0  3  0  0  0  0  0  0
  190.6100  177.0970  144.5720 C   0  0  0  0  0  2  0  0  0  0  0  0
  188.5090  177.4120  145.4480 C   0  0  0  0  0  0  0  0  0  0  0  0
  189.5390  176.7270  143.4680 C   0  0  2  0  0  3  0  0  0  0  0  0
  187.0940  177.4950  143.4940 C   0  0  0  0  0  3  0  0  0  0  0  0
  189.8630  177.2740  145.8460 N   0  0  0  0  0  2  0  0  0  0  0  0
  1  4  1  0  0  0  0
  2 40  1  6  0  0  0
  2 10  1  0  0  0  0
  3 12  1  0  0  0  0
  4  2  1  0  0  0  0
  4 12  2  0  0  0  0
  5  3  2  0  0  0  0
  6 11  1  0  0  0  0
  7  1  2  0  0  0  0
  7  5  1  0  0  0  0
  8 43  1  1  0  0  0
  9  8  1  0  0  0  0
  9 17  1  0  0  0  0
 10  6  1  0  0  0  0
 11 13  2  0  0  0  0
 11  8  1  0  0  0  0
 12  9  1  0  0  0  0
 14 19  1  0  0  0  0
 15 18  1  0  0  0  0
 15 20  1  0  0  0  0
 16 17  2  0  0  0  0
 18 22  1  1  0  0  0
 18 14  1  0  0  0  0
 20 16  2  0  0  0  0
 20 19  1  0  0  0  0
 21 15  1  0  0  0  0
 23 24  1  0  0  0  0
 23 28  2  0  0  0  0
 24 27  2  0  0  0  0
 26 23  1  0  0  0  0
 27 34  1  0  0  0  0
 27 29  1  0  0  0  0
 28 25  1  0  0  0  0
 29 25  1  0  0  0  0
 29 22  1  0  0  0  0
 30 31  1  0  0  0  0
 31 36  1  0  0  0  0
 31 33  2  0  0  0  0
 32 34  2  0  0  0  0
 34 33  1  0  0  0  0
 35 32  1  0  0  0  0
 35 30  2  0  0  0  0
 39 38  1  1  0  0  0
 39 37  1  0  0  0  0
 39 36  1  0  0  0  0
 41 40  1  0  0  0  0
 43 44  1  0  0  0  0
 43 42  2  0  0  0  0
 45 48  1  0  0  0  0
 47 51  1  0  0  0  0
 48 49  2  0  0  0  0
 49 46  1  0  0  0  0
 50 54  1  0  0  0  0
 51 54  1  0  0  0  0
 51 46  2  0  0  0  0
 52 44  1  6  0  0  0
 52 47  1  0  0  0  0
 52 50  1  0  0  0  0
 53 47  2  0  0  0  0
 53 48  1  0  0  0  0
M  END
>  <MODEL>
2

>  <REMARK>
 VINA RESULT:      -7.5      3.457      9.361
  Name = 
  10 active torsions:
  status: ('A' for Active; 'I' for Inactive)
    1  A    between atoms: C_9  and  C_18
    2  A    between atoms: C_11  and  C_34
    3  A    between atoms: C_21  and  C_37
    4  A    between atoms: C_24  and  N_44
    5  A    between atoms: C_28  and  O_51
    6  A    between atoms: O_31  and  C_33
    7  A    between atoms: O_31  and  C_43
    8  A    between atoms: C_34  and  C_47
    9  A    between atoms: C_36  and  C_43
   10  A    between atoms: N_42  and  O_51
                            x       y       z     vdW  Elec       q    Type
                         _______ _______ _______ _____ _____    ______ ____

>  <TORSDO>
F 10

$$$$
=
 OpenBabel11062412493D

 54 60  0  0  1  0  0  0  0  0999 V2000
  182.8120  179.0020  143.4440 C   0  0  0  0  0  3  0  0  0  0  0  0
  184.8510  179.1070  144.7700 C   0  0  2  0  0  3  0  0  0  0  0  0
  183.7080  177.8600  141.0470 C   0  0  0  0  0  3  0  0  0  0  0  0
  184.1510  178.7440  143.3440 C   0  0  0  0  0  0  0  0  0  0  0  0
  182.4020  178.4240  141.1740 C   0  0  0  0  0  3  0  0  0  0  0  0
  186.4330  177.1580  144.8350 O   0  0  0  0  0  0  0  0  0  0  0  0
  181.9360  179.0130  142.3590 C   0  0  0  0  0  3  0  0  0  0  0  0
  187.2450  177.8630  142.6090 C   0  0  1  0  0  3  0  0  0  0  0  0
  186.1720  178.5050  141.6700 N   0  0  0  0  0  0  0  0  0  0  0  0
  186.2230  178.5480  145.1340 C   0  0  0  0  0  2  0  0  0  0  0  0
  186.8570  176.7860  143.6000 C   0  0  0  0  0  0  0  0  0  0  0  0
  184.7300  178.3810  141.9950 C   0  0  0  0  0  0  0  0  0  0  0  0
  187.2790  175.6300  143.4010 O   0  0  0  0  0  0  0  0  0  0  0  0
  185.8800  177.5070  135.8710 C   0  0  0  0  0  2  0  0  0  0  0  0
  184.5810  177.0900  137.7990 N   0  0  0  0  0  0  0  0  0  0  0  0
  186.2050  178.2590  139.2850 C   0  0  0  0  0  0  0  0  0  0  0  0
  186.7840  178.8160  140.3390 C   0  0  0  0  0  3  0  0  0  0  0  0
  184.5390  176.9830  136.3530 C   0  0  1  0  0  3  0  0  0  0  0  0
  186.4700  178.1180  136.9780 O   0  0  0  0  0  0  0  0  0  0  0  0
  185.7230  177.8860  138.1170 C   0  0  0  0  0  0  0  0  0  0  0  0
  183.7990  176.1900  138.6650 C   0  0  0  0  0  1  0  0  0  0  0  0
  183.5590  177.8320  135.8550 O   0  0  0  0  0  0  0  0  0  0  0  0
  180.3520  175.5400  136.8750 C   0  0  0  0  0  0  0  0  0  0  0  0
  180.1840  177.0080  136.7980 C   0  0  0  0  0  3  0  0  0  0  0  0
  182.3300  175.7770  135.4250 C   0  0  0  0  0  2  0  0  0  0  0  0
  179.1380  174.5280  137.6560 Cl  0  0  0  0  0  0  0  0  0  0  0  0
  181.2000  177.7900  136.4210 C   0  0  0  0  0  0  0  0  0  0  0  0
  181.3660  174.9660  136.2400 C   0  0  0  0  0  3  0  0  0  0  0  0
  182.4110  177.1520  135.9650 N   0  0  0  0  0  0  0  0  0  0  0  0
  179.8130  181.7330  135.6530 C   0  0  0  0  0  3  0  0  0  0  0  0
  180.6490  181.5240  136.7600 C   0  0  0  0  0  0  0  0  0  0  0  0
  180.0430  179.4400  134.9920 C   0  0  0  0  0  3  0  0  0  0  0  0
  181.1790  180.2440  136.9780 C   0  0  0  0  0  3  0  0  0  0  0  0
  180.9150  179.1990  136.0690 C   0  0  0  0  0  0  0  0  0  0  0  0
  179.4970  180.6910  134.7870 C   0  0  0  0  0  3  0  0  0  0  0  0
  180.7630  182.6300  137.7830 C   0  0  0  0  0  2  0  0  0  0  0  0
  182.3790  184.3740  137.5950 F   0  0  0  0  0  0  0  0  0  0  0  0
  180.1380  185.0300  137.3060 C   0  0  0  0  0  1  0  0  0  0  0  0
  181.1680  183.9440  137.1060 C   0  0  2  0  0  3  0  0  0  0  0  0
  183.9390  178.8940  145.9850 C   0  0  0  0  0  2  0  0  0  0  0  0
  184.3720  178.2660  147.1980 F   0  0  0  0  0  0  0  0  0  0  0  0
  189.1490  177.9900  140.9920 O   0  0  0  0  0  0  0  0  0  0  0  0
  188.7890  177.9630  142.1650 C   0  0  0  0  0  0  0  0  0  0  0  0
  189.8110  178.0210  143.0500 O   0  0  0  0  0  0  0  0  0  0  0  0
  189.0490  178.2530  148.1380 C   0  0  0  0  0  1  0  0  0  0  0  0
  191.8370  176.0980  146.6470 C   0  0  0  0  0  3  0  0  0  0  0  0
  190.3820  176.9050  144.8720 C   0  0  0  0  0  0  0  0  0  0  0  0
  189.8840  177.4850  147.1620 C   0  0  0  0  0  0  0  0  0  0  0  0
  191.0010  176.7390  147.5590 C   0  0  0  0  0  3  0  0  0  0  0  0
  191.6790  176.3780  143.0040 C   0  0  0  0  0  2  0  0  0  0  0  0
  191.5310  176.2250  145.2920 C   0  0  0  0  0  0  0  0  0  0  0  0
  190.2210  176.8030  143.4470 C   0  0  2  0  0  3  0  0  0  0  0  0
  189.5760  177.5400  145.8160 C   0  0  0  0  0  3  0  0  0  0  0  0
  192.3370  175.8000  144.2050 N   0  0  0  0  0  2  0  0  0  0  0  0
  2 10  1  0  0  0  0
  2 40  1  1  0  0  0
  3  5  2  0  0  0  0
  3 12  1  0  0  0  0
  4  1  1  0  0  0  0
  4  2  1  0  0  0  0
  5  7  1  0  0  0  0
  6 10  1  0  0  0  0
  7  1  2  0  0  0  0
  8 43  1  6  0  0  0
  8 11  1  0  0  0  0
  9 12  1  0  0  0  0
  9  8  1  0  0  0  0
 11  6  1  0  0  0  0
 12  4  2  0  0  0  0
 13 11  2  0  0  0  0
 14 18  1  0  0  0  0
 14 19  1  0  0  0  0
 15 20  1  0  0  0  0
 15 21  1  0  0  0  0
 16 17  2  0  0  0  0
 17  9  1  0  0  0  0
 18 22  1  6  0  0  0
 18 15  1  0  0  0  0
 19 20  1  0  0  0  0
 20 16  2  0  0  0  0
 22 29  1  0  0  0  0
 23 26  1  0  0  0  0
 24 23  1  0  0  0  0
 25 29  1  0  0  0  0
 25 28  1  0  0  0  0
 27 24  2  0  0  0  0
 28 23  2  0  0  0  0
 29 27  1  0  0  0  0
 30 31  1  0  0  0  0
 31 33  2  0  0  0  0
 31 36  1  0  0  0  0
 32 34  2  0  0  0  0
 34 27  1  0  0  0  0
 34 33  1  0  0  0  0
 35 32  1  0  0  0  0
 35 30  2  0  0  0  0
 39 38  1  1  0  0  0
 39 37  1  0  0  0  0
 39 36  1  0  0  0  0
 40 41  1  0  0  0  0
 42 43  2  0  0  0  0
 43 44  1  0  0  0  0
 46 49  1  0  0  0  0
 47 51  1  0  0  0  0
 47 53  2  0  0  0  0
 48 49  2  0  0  0  0
 48 45  1  0  0  0  0
 50 52  1  0  0  0  0
 50 54  1  0  0  0  0
 51 46  2  0  0  0  0
 52 44  1  6  0  0  0
 52 47  1  0  0  0  0
 53 48  1  0  0  0  0
 54 51  1  0  0  0  0
M  END
>  <MODEL>
3

>  <REMARK>
 VINA RESULT:      -7.5      3.670      9.531
  Name = 
  10 active torsions:
  status: ('A' for Active; 'I' for Inactive)
    1  A    between atoms: C_9  and  C_18
    2  A    between atoms: C_11  and  C_34
    3  A    between atoms: C_21  and  C_37
    4  A    between atoms: C_24  and  N_44
    5  A    between atoms: C_28  and  O_51
    6  A    between atoms: O_31  and  C_33
    7  A    between atoms: O_31  and  C_43
    8  A    between atoms: C_34  and  C_47
    9  A    between atoms: C_36  and  C_43
   10  A    between atoms: N_42  and  O_51
                            x       y       z     vdW  Elec       q    Type
                         _______ _______ _______ _____ _____    ______ ____

>  <TORSDO>
F 10

$$$$
=
 OpenBabel11062412493D

 54 60  0  0  1  0  0  0  0  0999 V2000
  189.8510  176.0100  135.2150 C   0  0  0  0  0  3  0  0  0  0  0  0
  191.0280  174.7280  136.9170 C   0  0  2  0  0  3  0  0  0  0  0  0
  189.4290  178.4680  136.4920 C   0  0  0  0  0  3  0  0  0  0  0  0
  190.2720  176.1140  136.5120 C   0  0  0  0  0  0  0  0  0  0  0  0
  188.7990  178.1430  135.2520 C   0  0  0  0  0  3  0  0  0  0  0  0
  192.8830  175.7750  138.2470 O   0  0  0  0  0  0  0  0  0  0  0  0
  188.9840  176.9140  134.6000 C   0  0  0  0  0  3  0  0  0  0  0  0
  191.1500  176.9200  139.5880 C   0  0  1  0  0  3  0  0  0  0  0  0
  189.8540  177.3250  138.8140 N   0  0  0  0  0  0  0  0  0  0  0  0
  191.9700  174.6720  138.1160 C   0  0  0  0  0  2  0  0  0  0  0  0
  192.4940  176.9050  138.8900 C   0  0  0  0  0  0  0  0  0  0  0  0
  189.8390  177.3090  137.3310 C   0  0  0  0  0  0  0  0  0  0  0  0
  193.3370  177.7580  139.2290 O   0  0  0  0  0  0  0  0  0  0  0  0
  184.3280  179.2130  139.5950 C   0  0  0  0  0  2  0  0  0  0  0  0
  185.5110  177.7780  138.1400 N   0  0  0  0  0  0  0  0  0  0  0  0
  187.6650  178.1510  139.3380 C   0  0  0  0  0  0  0  0  0  0  0  0
  188.9290  178.0680  139.7280 C   0  0  0  0  0  3  0  0  0  0  0  0
  184.1660  178.2070  138.4700 C   0  0  1  0  0  3  0  0  0  0  0  0
  185.6530  179.0980  140.0200 O   0  0  0  0  0  0  0  0  0  0  0  0
  186.3610  178.2600  139.1810 C   0  0  0  0  0  0  0  0  0  0  0  0
  185.8640  177.3060  136.7890 C   0  0  0  0  0  1  0  0  0  0  0  0
  183.4490  177.1300  138.9770 O   0  0  0  0  0  0  0  0  0  0  0  0
  180.3000  175.9040  136.7060 C   0  0  0  0  0  0  0  0  0  0  0  0
  180.0680  176.9160  137.7590 C   0  0  0  0  0  3  0  0  0  0  0  0
  182.6820  176.5320  136.7470 C   0  0  0  0  0  2  0  0  0  0  0  0
  178.9500  175.0620  135.9450 Cl  0  0  0  0  0  0  0  0  0  0  0  0
  181.0850  177.3780  138.4940 C   0  0  0  0  0  0  0  0  0  0  0  0
  181.5280  175.7170  136.2410 C   0  0  0  0  0  3  0  0  0  0  0  0
  182.4200  176.9640  138.1370 N   0  0  0  0  0  0  0  0  0  0  0  0
  179.8600  180.7940  140.7070 C   0  0  0  0  0  3  0  0  0  0  0  0
  180.1170  179.6040  141.4050 C   0  0  0  0  0  0  0  0  0  0  0  0
  180.5630  179.7890  138.6480 C   0  0  0  0  0  3  0  0  0  0  0  0
  180.6000  178.4930  140.6970 C   0  0  0  0  0  3  0  0  0  0  0  0
  180.8680  178.5900  139.3170 C   0  0  0  0  0  0  0  0  0  0  0  0
  180.0630  180.8770  139.3330 C   0  0  0  0  0  3  0  0  0  0  0  0
  179.6590  179.5090  142.8410 C   0  0  0  0  0  2  0  0  0  0  0  0
  179.6670  177.9000  144.6010 F   0  0  0  0  0  0  0  0  0  0  0  0
  181.7420  178.9050  144.1340 C   0  0  0  0  0  1  0  0  0  0  0  0
  180.4300  178.4080  143.5770 C   0  0  2  0  0  3  0  0  0  0  0  0
  191.7420  174.0410  135.7470 C   0  0  0  0  0  2  0  0  0  0  0  0
  193.1650  173.8960  135.6650 F   0  0  0  0  0  0  0  0  0  0  0  0
  192.1450  176.9440  141.8820 O   0  0  0  0  0  0  0  0  0  0  0  0
  191.1330  177.0310  141.1940 C   0  0  0  0  0  0  0  0  0  0  0  0
  190.0020  177.2260  141.9110 O   0  0  0  0  0  0  0  0  0  0  0  0
  185.3090  178.2830  143.7500 C   0  0  0  0  0  1  0  0  0  0  0  0
  188.2330  177.5200  146.0970 C   0  0  0  0  0  3  0  0  0  0  0  0
  188.8710  177.0290  143.8010 C   0  0  0  0  0  0  0  0  0  0  0  0
  186.6380  177.8240  144.2620 C   0  0  0  0  0  0  0  0  0  0  0  0
  186.9670  177.8590  145.6230 C   0  0  0  0  0  3  0  0  0  0  0  0
  191.1780  176.7820  144.0580 C   0  0  0  0  0  2  0  0  0  0  0  0
  189.1930  177.1410  145.1590 C   0  0  0  0  0  0  0  0  0  0  0  0
  189.9850  176.5150  143.0530 C   0  0  2  0  0  3  0  0  0  0  0  0
  187.5950  177.3860  143.3670 C   0  0  0  0  0  3  0  0  0  0  0  0
  190.5720  176.9240  145.4090 N   0  0  0  0  0  2  0  0  0  0  0  0
  1  4  1  0  0  0  0
  2 40  1  6  0  0  0
  2 10  1  0  0  0  0
  3 12  1  0  0  0  0
  4  2  1  0  0  0  0
  4 12  2  0  0  0  0
  5  3  2  0  0  0  0
  6 11  1  0  0  0  0
  7  1  2  0  0  0  0
  7  5  1  0  0  0  0
  8 43  1  1  0  0  0
  9  8  1  0  0  0  0
  9 17  1  0  0  0  0
 10  6  1  0  0  0  0
 11 13  2  0  0  0  0
 11  8  1  0  0  0  0
 12  9  1  0  0  0  0
 14 19  1  0  0  0  0
 15 18  1  0  0  0  0
 15 20  1  0  0  0  0
 16 17  2  0  0  0  0
 18 22  1  1  0  0  0
 18 14  1  0  0  0  0
 20 16  2  0  0  0  0
 20 19  1  0  0  0  0
 21 15  1  0  0  0  0
 23 24  1  0  0  0  0
 24 27  2  0  0  0  0
 25 29  1  0  0  0  0
 26 23  1  0  0  0  0
 27 34  1  0  0  0  0
 28 23  2  0  0  0  0
 28 25  1  0  0  0  0
 29 27  1  0  0  0  0
 29 22  1  0  0  0  0
 30 31  1  0  0  0  0
 31 36  1  0  0  0  0
 32 34  2  0  0  0  0
 32 35  1  0  0  0  0
 33 31  2  0  0  0  0
 34 33  1  0  0  0  0
 35 30  2  0  0  0  0
 36 39  1  0  0  0  0
 39 38  1  1  0  0  0
 39 37  1  0  0  0  0
 41 40  1  0  0  0  0
 43 42  2  0  0  0  0
 43 44  1  0  0  0  0
 45 48  1  0  0  0  0
 47 51  1  0  0  0  0
 48 49  2  0  0  0  0
 49 46  1  0  0  0  0
 50 54  1  0  0  0  0
 51 54  1  0  0  0  0
 51 46  2  0  0  0  0
 52 44  1  6  0  0  0
 52 47  1  0  0  0  0
 52 50  1  0  0  0  0
 53 47  2  0  0  0  0
 53 48  1  0  0  0  0
M  END
>  <MODEL>
4

>  <REMARK>
 VINA RESULT:      -7.2      3.619      9.733
  Name = 
  10 active torsions:
  status: ('A' for Active; 'I' for Inactive)
    1  A    between atoms: C_9  and  C_18
    2  A    between atoms: C_11  and  C_34
    3  A    between atoms: C_21  and  C_37
    4  A    between atoms: C_24  and  N_44
    5  A    between atoms: C_28  and  O_51
    6  A    between atoms: O_31  and  C_33
    7  A    between atoms: O_31  and  C_43
    8  A    between atoms: C_34  and  C_47
    9  A    between atoms: C_36  and  C_43
   10  A    between atoms: N_42  and  O_51
                            x       y       z     vdW  Elec       q    Type
                         _______ _______ _______ _____ _____    ______ ____

>  <TORSDO>
F 10

$$$$
=
 OpenBabel11062412493D

 54 60  0  0  1  0  0  0  0  0999 V2000
  189.7300  176.1540  135.3420 C   0  0  0  0  0  3  0  0  0  0  0  0
  190.8780  174.9040  137.0870 C   0  0  2  0  0  3  0  0  0  0  0  0
  189.2650  178.6260  136.5750 C   0  0  0  0  0  3  0  0  0  0  0  0
  190.1220  176.2790  136.6460 C   0  0  0  0  0  0  0  0  0  0  0  0
  188.6640  178.2800  135.3260 C   0  0  0  0  0  3  0  0  0  0  0  0
  192.6980  175.9810  138.4410 O   0  0  0  0  0  0  0  0  0  0  0  0
  188.8710  177.0440  134.6960 C   0  0  0  0  0  3  0  0  0  0  0  0
  190.9300  177.1330  139.7280 C   0  0  1  0  0  3  0  0  0  0  0  0
  189.6480  177.5190  138.9210 N   0  0  0  0  0  0  0  0  0  0  0  0
  191.7950  174.8700  138.3050 C   0  0  0  0  0  2  0  0  0  0  0  0
  192.2880  177.1170  139.0590 C   0  0  0  0  0  0  0  0  0  0  0  0
  189.6650  177.4820  137.4380 C   0  0  0  0  0  0  0  0  0  0  0  0
  193.1180  177.9810  139.4040 O   0  0  0  0  0  0  0  0  0  0  0  0
  184.0350  179.1260  139.7090 C   0  0  0  0  0  2  0  0  0  0  0  0
  185.2720  177.6650  138.3270 N   0  0  0  0  0  0  0  0  0  0  0  0
  187.4240  178.2480  139.4420 C   0  0  0  0  0  0  0  0  0  0  0  0
  188.6990  178.2680  139.8050 C   0  0  0  0  0  3  0  0  0  0  0  0
  183.9100  178.0360  138.6600 C   0  0  1  0  0  3  0  0  0  0  0  0
  185.3730  179.1200  140.1070 O   0  0  0  0  0  0  0  0  0  0  0  0
  186.1130  178.2690  139.3100 C   0  0  0  0  0  0  0  0  0  0  0  0
  185.6250  177.1210  137.0030 C   0  0  0  0  0  1  0  0  0  0  0  0
  183.2710  176.9570  139.2580 O   0  0  0  0  0  0  0  0  0  0  0  0
  180.4240  175.1920  136.9430 C   0  0  0  0  0  0  0  0  0  0  0  0
  179.9970  176.1010  138.0290 C   0  0  0  0  0  3  0  0  0  0  0  0
  182.6300  176.2890  137.0080 C   0  0  0  0  0  2  0  0  0  0  0  0
  179.2690  174.1190  136.1530 Cl  0  0  0  0  0  0  0  0  0  0  0  0
  180.9030  176.7360  138.7800 C   0  0  0  0  0  0  0  0  0  0  0  0
  181.6620  175.2730  136.4740 C   0  0  0  0  0  3  0  0  0  0  0  0
  182.2920  176.6130  138.4110 N   0  0  0  0  0  0  0  0  0  0  0  0
  180.2090  180.0410  141.3600 C   0  0  0  0  0  3  0  0  0  0  0  0
  180.1080  180.2440  139.9760 C   0  0  0  0  0  0  0  0  0  0  0  0
  180.5810  177.6960  141.0340 C   0  0  0  0  0  3  0  0  0  0  0  0
  180.2540  179.1440  139.1170 C   0  0  0  0  0  3  0  0  0  0  0  0
  180.4500  177.8510  139.6420 C   0  0  0  0  0  0  0  0  0  0  0  0
  180.4650  178.7770  141.8830 C   0  0  0  0  0  3  0  0  0  0  0  0
  180.0640  181.6660  139.4670 C   0  0  0  0  0  2  0  0  0  0  0  0
  182.3030  182.0040  138.7200 F   0  0  0  0  0  0  0  0  0  0  0  0
  180.6300  183.0090  137.4050 C   0  0  0  0  0  1  0  0  0  0  0  0
  181.0120  181.8360  138.2750 C   0  0  2  0  0  3  0  0  0  0  0  0
  191.6220  174.2050  135.9410 C   0  0  0  0  0  2  0  0  0  0  0  0
  192.8020  174.7360  135.3260 F   0  0  0  0  0  0  0  0  0  0  0  0
  191.8680  177.1480  142.0470 O   0  0  0  0  0  0  0  0  0  0  0  0
  190.8770  177.2660  141.3320 C   0  0  0  0  0  0  0  0  0  0  0  0
  189.7370  177.5150  142.0170 O   0  0  0  0  0  0  0  0  0  0  0  0
  184.8220  178.2870  143.3460 C   0  0  0  0  0  1  0  0  0  0  0  0
  187.5030  177.5860  145.9850 C   0  0  0  0  0  3  0  0  0  0  0  0
  188.4150  177.2020  143.7620 C   0  0  0  0  0  0  0  0  0  0  0  0
  186.1070  177.8740  143.9920 C   0  0  0  0  0  0  0  0  0  0  0  0
  186.2810  177.8800  145.3810 C   0  0  0  0  0  3  0  0  0  0  0  0
  190.6890  177.0560  144.2700 C   0  0  0  0  0  2  0  0  0  0  0  0
  188.5790  177.2840  145.1500 C   0  0  0  0  0  0  0  0  0  0  0  0
  189.6300  176.7670  143.1310 C   0  0  2  0  0  3  0  0  0  0  0  0
  187.1790  177.5120  143.1970 C   0  0  0  0  0  3  0  0  0  0  0  0
  189.9310  177.1250  145.5470 N   0  0  0  0  0  2  0  0  0  0  0  0
  1  4  1  0  0  0  0
  2 40  1  6  0  0  0
  2 10  1  0  0  0  0
  3 12  1  0  0  0  0
  4  2  1  0  0  0  0
  4 12  2  0  0  0  0
  5  3  2  0  0  0  0
  6 11  1  0  0  0  0
  7  5  1  0  0  0  0
  7  1  2  0  0  0  0
  8 43  1  1  0  0  0
  9  8  1  0  0  0  0
  9 17  1  0  0  0  0
 10  6  1  0  0  0  0
 11 13  2  0  0  0  0
 11  8  1  0  0  0  0
 12  9  1  0  0  0  0
 14 19  1  0  0  0  0
 15 18  1  0  0  0  0
 15 20  1  0  0  0  0
 16 17  2  0  0  0  0
 18 22  1  1  0  0  0
 18 14  1  0  0  0  0
 20 16  2  0  0  0  0
 20 19  1  0  0  0  0
 21 15  1  0  0  0  0
 23 24  1  0  0  0  0
 24 27  2  0  0  0  0
 25 29  1  0  0  0  0
 26 23  1  0  0  0  0
 27 34  1  0  0  0  0
 28 23  2  0  0  0  0
 28 25  1  0  0  0  0
 29 27  1  0  0  0  0
 29 22  1  0  0  0  0
 30 35  1  0  0  0  0
 31 30  2  0  0  0  0
 32 35  2  0  0  0  0
 33 34  2  0  0  0  0
 33 31  1  0  0  0  0
 34 32  1  0  0  0  0
 36 31  1  0  0  0  0
 39 38  1  1  0  0  0
 39 37  1  0  0  0  0
 39 36  1  0  0  0  0
 41 40  1  0  0  0  0
 43 44  1  0  0  0  0
 43 42  2  0  0  0  0
 45 48  1  0  0  0  0
 47 51  1  0  0  0  0
 48 49  2  0  0  0  0
 49 46  1  0  0  0  0
 50 54  1  0  0  0  0
 51 54  1  0  0  0  0
 51 46  2  0  0  0  0
 52 44  1  6  0  0  0
 52 47  1  0  0  0  0
 52 50  1  0  0  0  0
 53 47  2  0  0  0  0
 53 48  1  0  0  0  0
M  END
>  <MODEL>
5

>  <REMARK>
 VINA RESULT:      -7.1      3.562      9.550
  Name = 
  10 active torsions:
  status: ('A' for Active; 'I' for Inactive)
    1  A    between atoms: C_9  and  C_18
    2  A    between atoms: C_11  and  C_34
    3  A    between atoms: C_21  and  C_37
    4  A    between atoms: C_24  and  N_44
    5  A    between atoms: C_28  and  O_51
    6  A    between atoms: O_31  and  C_33
    7  A    between atoms: O_31  and  C_43
    8  A    between atoms: C_34  and  C_47
    9  A    between atoms: C_36  and  C_43
   10  A    between atoms: N_42  and  O_51
                            x       y       z     vdW  Elec       q    Type
                         _______ _______ _______ _____ _____    ______ ____

>  <TORSDO>
F 10

$$$$
=
 OpenBabel11062412493D

 54 60  0  0  1  0  0  0  0  0999 V2000
  187.9290  174.9040  135.9750 C   0  0  0  0  0  3  0  0  0  0  0  0
  189.7450  173.2830  135.9810 C   0  0  2  0  0  3  0  0  0  0  0  0
  189.2040  177.2470  136.8310 C   0  0  0  0  0  3  0  0  0  0  0  0
  189.2520  174.8030  136.3020 C   0  0  0  0  0  0  0  0  0  0  0  0
  187.7830  177.1560  136.7260 C   0  0  0  0  0  3  0  0  0  0  0  0
  191.9960  173.8870  135.0470 O   0  0  0  0  0  0  0  0  0  0  0  0
  187.1210  175.9900  136.3130 C   0  0  0  0  0  3  0  0  0  0  0  0
  192.4260  175.1330  137.1390 C   0  0  1  0  0  3  0  0  0  0  0  0
  191.1780  175.8110  137.7900 N   0  0  0  0  0  0  0  0  0  0  0  0
  191.2270  172.9570  135.8280 C   0  0  0  0  0  2  0  0  0  0  0  0
  192.5290  174.9880  135.6350 C   0  0  0  0  0  0  0  0  0  0  0  0
  189.9220  175.9560  137.0160 C   0  0  0  0  0  0  0  0  0  0  0  0
  193.3940  175.6620  135.0420 O   0  0  0  0  0  0  0  0  0  0  0  0
  189.3030  179.1260  142.2850 C   0  0  0  0  0  2  0  0  0  0  0  0
  188.3770  177.7550  140.6010 N   0  0  0  0  0  0  0  0  0  0  0  0
  190.6210  177.1480  139.7020 C   0  0  0  0  0  0  0  0  0  0  0  0
  191.5960  176.5840  139.0030 C   0  0  0  0  0  3  0  0  0  0  0  0
  188.0110  178.5030  141.7880 C   0  0  1  0  0  3  0  0  0  0  0  0
  190.3260  178.5060  141.5670 O   0  0  0  0  0  0  0  0  0  0  0  0
  189.8030  177.6970  140.5770 C   0  0  0  0  0  0  0  0  0  0  0  0
  187.4140  177.5110  139.5120 C   0  0  0  0  0  1  0  0  0  0  0  0
  187.5710  177.6240  142.7700 O   0  0  0  0  0  0  0  0  0  0  0  0
  183.7830  178.5810  143.9160 C   0  0  0  0  0  0  0  0  0  0  0  0
  184.7970  178.3130  144.9590 C   0  0  0  0  0  3  0  0  0  0  0  0
  185.6340  179.0360  142.3550 C   0  0  0  0  0  2  0  0  0  0  0  0
  182.0660  178.6340  144.3150 Cl  0  0  0  0  0  0  0  0  0  0  0  0
  186.0620  178.0420  144.6240 C   0  0  0  0  0  0  0  0  0  0  0  0
  184.1770  178.9090  142.6930 C   0  0  0  0  0  3  0  0  0  0  0  0
  186.4310  178.1540  143.2330 N   0  0  0  0  0  0  0  0  0  0  0  0
  188.9160  177.5330  147.7320 C   0  0  0  0  0  3  0  0  0  0  0  0
  189.3760  177.5960  146.4080 C   0  0  0  0  0  0  0  0  0  0  0  0
  186.6700  177.9710  147.0180 C   0  0  0  0  0  3  0  0  0  0  0  0
  188.4540  177.8450  145.3800 C   0  0  0  0  0  3  0  0  0  0  0  0
  187.0970  178.0770  145.6820 C   0  0  0  0  0  0  0  0  0  0  0  0
  187.5670  177.6990  148.0300 C   0  0  0  0  0  3  0  0  0  0  0  0
  190.8020  177.1780  146.1300 C   0  0  0  0  0  2  0  0  0  0  0  0
  191.9620  177.0950  148.2120 F   0  0  0  0  0  0  0  0  0  0  0  0
  192.2980  175.2530  146.7870 C   0  0  0  0  0  1  0  0  0  0  0  0
  191.3350  176.3090  147.2740 C   0  0  2  0  0  3  0  0  0  0  0  0
  189.0120  172.6240  134.8060 C   0  0  0  0  0  2  0  0  0  0  0  0
  188.3460  171.3590  134.8990 F   0  0  0  0  0  0  0  0  0  0  0  0
  194.2750  176.0560  138.5470 O   0  0  0  0  0  0  0  0  0  0  0  0
  193.7850  175.0730  138.0000 C   0  0  0  0  0  0  0  0  0  0  0  0
  194.4960  173.9360  138.1850 O   0  0  0  0  0  0  0  0  0  0  0  0
  193.2530  169.7250  135.4930 C   0  0  0  0  0  1  0  0  0  0  0  0
  196.9080  170.6770  136.1100 C   0  0  0  0  0  3  0  0  0  0  0  0
  195.4530  172.5020  136.8010 C   0  0  0  0  0  0  0  0  0  0  0  0
  194.4770  170.5090  135.8480 C   0  0  0  0  0  0  0  0  0  0  0  0
  195.7680  169.9890  135.6960 C   0  0  0  0  0  3  0  0  0  0  0  0
  196.9740  173.8110  137.9940 C   0  0  0  0  0  2  0  0  0  0  0  0
  196.7270  171.9280  136.7010 C   0  0  0  0  0  0  0  0  0  0  0  0
  195.5350  173.8330  137.3360 C   0  0  2  0  0  3  0  0  0  0  0  0
  194.3390  171.7760  136.3820 C   0  0  0  0  0  3  0  0  0  0  0  0
  197.7250  172.7090  137.3370 N   0  0  0  0  0  2  0  0  0  0  0  0
  1  4  2  0  0  0  0
  1  7  1  0  0  0  0
  2 40  1  6  0  0  0
  2  4  1  0  0  0  0
  3 12  2  0  0  0  0
  4 12  1  0  0  0  0
  5  3  1  0  0  0  0
  6 11  1  0  0  0  0
  6 10  1  0  0  0  0
  7  5  2  0  0  0  0
  8  9  1  0  0  0  0
  8 43  1  6  0  0  0
  9 17  1  0  0  0  0
 10  2  1  0  0  0  0
 11  8  1  0  0  0  0
 12  9  1  0  0  0  0
 13 11  2  0  0  0  0
 15 18  1  0  0  0  0
 16 20  2  0  0  0  0
 17 16  2  0  0  0  0
 18 14  1  0  0  0  0
 18 22  1  1  0  0  0
 19 14  1  0  0  0  0
 20 15  1  0  0  0  0
 20 19  1  0  0  0  0
 21 15  1  0  0  0  0
 22 29  1  0  0  0  0
 23 26  1  0  0  0  0
 23 24  1  0  0  0  0
 25 28  1  0  0  0  0
 25 29  1  0  0  0  0
 27 24  2  0  0  0  0
 27 34  1  0  0  0  0
 28 23  2  0  0  0  0
 29 27  1  0  0  0  0
 30 35  1  0  0  0  0
 31 30  2  0  0  0  0
 32 35  2  0  0  0  0
 33 34  2  0  0  0  0
 33 31  1  0  0  0  0
 34 32  1  0  0  0  0
 36 31  1  0  0  0  0
 36 39  1  0  0  0  0
 39 38  1  6  0  0  0
 39 37  1  0  0  0  0
 40 41  1  0  0  0  0
 43 44  1  0  0  0  0
 43 42  2  0  0  0  0
 45 48  1  0  0  0  0
 46 51  1  0  0  0  0
 47 52  1  0  0  0  0
 48 53  2  0  0  0  0
 49 48  1  0  0  0  0
 49 46  2  0  0  0  0
 51 47  2  0  0  0  0
 51 54  1  0  0  0  0
 52 50  1  0  0  0  0
 52 44  1  1  0  0  0
 53 47  1  0  0  0  0
 54 50  1  0  0  0  0
M  END
>  <MODEL>
6

>  <REMARK>
 VINA RESULT:      -7.1      4.869      8.000
  Name = 
  10 active torsions:
  status: ('A' for Active; 'I' for Inactive)
    1  A    between atoms: C_9  and  C_18
    2  A    between atoms: C_11  and  C_34
    3  A    between atoms: C_21  and  C_37
    4  A    between atoms: C_24  and  N_44
    5  A    between atoms: C_28  and  O_51
    6  A    between atoms: O_31  and  C_33
    7  A    between atoms: O_31  and  C_43
    8  A    between atoms: C_34  and  C_47
    9  A    between atoms: C_36  and  C_43
   10  A    between atoms: N_42  and  O_51
                            x       y       z     vdW  Elec       q    Type
                         _______ _______ _______ _____ _____    ______ ____

>  <TORSDO>
F 10

$$$$
=
 OpenBabel11062412493D

 54 60  0  0  1  0  0  0  0  0999 V2000
  183.9390  178.9340  144.0270 C   0  0  0  0  0  3  0  0  0  0  0  0
  186.1160  178.7990  145.1060 C   0  0  2  0  0  3  0  0  0  0  0  0
  184.4680  177.9260  141.4670 C   0  0  0  0  0  3  0  0  0  0  0  0
  185.2340  178.5960  143.7500 C   0  0  0  0  0  0  0  0  0  0  0  0
  183.2310  178.5650  141.7860 C   0  0  0  0  0  3  0  0  0  0  0  0
  187.5430  176.7490  144.8460 O   0  0  0  0  0  0  0  0  0  0  0  0
  182.9480  179.0890  143.0560 C   0  0  0  0  0  3  0  0  0  0  0  0
  188.1490  177.5700  142.5940 C   0  0  1  0  0  3  0  0  0  0  0  0
  187.0280  178.3540  141.8370 N   0  0  0  0  0  0  0  0  0  0  0  0
  187.4740  178.1230  145.2640 C   0  0  0  0  0  2  0  0  0  0  0  0
  187.7950  176.4470  143.5470 C   0  0  0  0  0  0  0  0  0  0  0  0
  185.6280  178.3020  142.3210 C   0  0  0  0  0  0  0  0  0  0  0  0
  188.1040  175.2850  143.2190 O   0  0  0  0  0  0  0  0  0  0  0  0
  186.0320  177.7980  136.0570 C   0  0  0  0  0  2  0  0  0  0  0  0
  184.9310  177.3160  138.0890 N   0  0  0  0  0  0  0  0  0  0  0  0
  186.7800  178.2810  139.4520 C   0  0  0  0  0  0  0  0  0  0  0  0
  187.5080  178.7260  140.4670 C   0  0  0  0  0  3  0  0  0  0  0  0
  184.7210  177.3160  136.6540 C   0  0  1  0  0  3  0  0  0  0  0  0
  186.7790  178.2930  137.1260 O   0  0  0  0  0  0  0  0  0  0  0  0
  186.1490  178.0210  138.3260 C   0  0  0  0  0  0  0  0  0  0  0  0
  184.1940  176.4000  138.9790 C   0  0  0  0  0  1  0  0  0  0  0  0
  183.7490  178.2530  136.3290 O   0  0  0  0  0  0  0  0  0  0  0  0
  180.4420  175.9150  136.7480 C   0  0  0  0  0  0  0  0  0  0  0  0
  180.2710  177.3820  136.6540 C   0  0  0  0  0  3  0  0  0  0  0  0
  182.6410  176.1900  135.6720 C   0  0  0  0  0  2  0  0  0  0  0  0
  179.1210  174.8830  137.2940 Cl  0  0  0  0  0  0  0  0  0  0  0  0
  181.3280  178.1790  136.4690 C   0  0  0  0  0  0  0  0  0  0  0  0
  181.5580  175.3600  136.2970 C   0  0  0  0  0  3  0  0  0  0  0  0
  182.6080  177.5590  136.2290 N   0  0  0  0  0  0  0  0  0  0  0  0
  180.0500  182.1170  135.5080 C   0  0  0  0  0  3  0  0  0  0  0  0
  180.6950  181.9060  136.7370 C   0  0  0  0  0  0  0  0  0  0  0  0
  180.4060  179.8310  134.8800 C   0  0  0  0  0  3  0  0  0  0  0  0
  181.1940  180.6290  137.0300 C   0  0  0  0  0  3  0  0  0  0  0  0
  181.0910  179.5890  136.0850 C   0  0  0  0  0  0  0  0  0  0  0  0
  179.8890  181.0790  134.5960 C   0  0  0  0  0  3  0  0  0  0  0  0
  180.6310  183.0060  137.7710 C   0  0  0  0  0  2  0  0  0  0  0  0
  182.1970  184.7950  137.6020 F   0  0  0  0  0  0  0  0  0  0  0  0
  179.9320  185.4070  137.4200 C   0  0  0  0  0  1  0  0  0  0  0  0
  180.9790  184.3560  137.1380 C   0  0  2  0  0  3  0  0  0  0  0  0
  185.3340  178.5530  146.4020 C   0  0  0  0  0  2  0  0  0  0  0  0
  185.7820  178.9920  147.6910 F   0  0  0  0  0  0  0  0  0  0  0  0
  190.4980  178.3910  142.3490 O   0  0  0  0  0  0  0  0  0  0  0  0
  189.6360  177.6000  141.9790 C   0  0  0  0  0  0  0  0  0  0  0  0
  190.0510  176.7590  141.0030 O   0  0  0  0  0  0  0  0  0  0  0  0
  188.2310  174.9730  136.5290 C   0  0  0  0  0  1  0  0  0  0  0  0
  191.9240  175.8850  136.9450 C   0  0  0  0  0  3  0  0  0  0  0  0
  190.6640  176.6490  138.8810 C   0  0  0  0  0  0  0  0  0  0  0  0
  189.5010  175.5470  137.0750 C   0  0  0  0  0  0  0  0  0  0  0  0
  190.7230  175.4350  136.4000 C   0  0  0  0  0  3  0  0  0  0  0  0
  192.4150  177.1580  140.3380 C   0  0  0  0  0  2  0  0  0  0  0  0
  191.8810  176.4610  138.2150 C   0  0  0  0  0  0  0  0  0  0  0  0
  190.8630  177.3610  140.1140 C   0  0  2  0  0  3  0  0  0  0  0  0
  189.4860  176.1760  138.3050 C   0  0  0  0  0  3  0  0  0  0  0  0
  192.9970  176.8240  139.0110 N   0  0  0  0  0  2  0  0  0  0  0  0
  2 10  1  0  0  0  0
  2 40  1  1  0  0  0
  3  5  2  0  0  0  0
  3 12  1  0  0  0  0
  4  1  1  0  0  0  0
  4  2  1  0  0  0  0
  5  7  1  0  0  0  0
  6 10  1  0  0  0  0
  7  1  2  0  0  0  0
  8 43  1  6  0  0  0
  8 11  1  0  0  0  0
  9 12  1  0  0  0  0
  9  8  1  0  0  0  0
 11  6  1  0  0  0  0
 12  4  2  0  0  0  0
 13 11  2  0  0  0  0
 14 18  1  0  0  0  0
 14 19  1  0  0  0  0
 15 20  1  0  0  0  0
 15 21  1  0  0  0  0
 16 17  2  0  0  0  0
 17  9  1  0  0  0  0
 18 22  1  1  0  0  0
 18 15  1  0  0  0  0
 19 20  1  0  0  0  0
 20 16  2  0  0  0  0
 23 26  1  0  0  0  0
 24 23  1  0  0  0  0
 25 29  1  0  0  0  0
 25 28  1  0  0  0  0
 27 24  2  0  0  0  0
 28 23  2  0  0  0  0
 29 22  1  0  0  0  0
 29 27  1  0  0  0  0
 30 31  1  0  0  0  0
 31 33  2  0  0  0  0
 31 36  1  0  0  0  0
 32 34  2  0  0  0  0
 34 27  1  0  0  0  0
 34 33  1  0  0  0  0
 35 32  1  0  0  0  0
 35 30  2  0  0  0  0
 39 38  1  1  0  0  0
 39 37  1  0  0  0  0
 39 36  1  0  0  0  0
 40 41  1  0  0  0  0
 43 42  2  0  0  0  0
 44 43  1  0  0  0  0
 45 48  1  0  0  0  0
 46 51  1  0  0  0  0
 47 52  1  0  0  0  0
 48 53  2  0  0  0  0
 49 46  2  0  0  0  0
 49 48  1  0  0  0  0
 51 47  2  0  0  0  0
 51 54  1  0  0  0  0
 52 50  1  0  0  0  0
 52 44  1  1  0  0  0
 53 47  1  0  0  0  0
 54 50  1  0  0  0  0
M  END
>  <MODEL>
7

>  <REMARK>
 VINA RESULT:      -6.9      3.882      8.911
  Name = 
  10 active torsions:
  status: ('A' for Active; 'I' for Inactive)
    1  A    between atoms: C_9  and  C_18
    2  A    between atoms: C_11  and  C_34
    3  A    between atoms: C_21  and  C_37
    4  A    between atoms: C_24  and  N_44
    5  A    between atoms: C_28  and  O_51
    6  A    between atoms: O_31  and  C_33
    7  A    between atoms: O_31  and  C_43
    8  A    between atoms: C_34  and  C_47
    9  A    between atoms: C_36  and  C_43
   10  A    between atoms: N_42  and  O_51
                            x       y       z     vdW  Elec       q    Type
                         _______ _______ _______ _____ _____    ______ ____

>  <TORSDO>
F 10

$$$$
=
 OpenBabel11062412493D

 54 60  0  0  1  0  0  0  0  0999 V2000
  184.2740  178.8240  145.5720 C   0  0  0  0  0  3  0  0  0  0  0  0
  186.7020  178.7190  145.6990 C   0  0  2  0  0  3  0  0  0  0  0  0
  183.7740  178.0980  142.9130 C   0  0  0  0  0  3  0  0  0  0  0  0
  185.3630  178.5930  144.7790 C   0  0  0  0  0  0  0  0  0  0  0  0
  182.7500  178.6280  143.7570 C   0  0  0  0  0  3  0  0  0  0  0  0
  187.9500  176.7920  144.6790 O   0  0  0  0  0  0  0  0  0  0  0  0
  182.9790  179.0110  145.0860 C   0  0  0  0  0  3  0  0  0  0  0  0
  187.6070  177.8590  142.4750 C   0  0  1  0  0  3  0  0  0  0  0  0
  186.2660  178.6420  142.3050 N   0  0  0  0  0  0  0  0  0  0  0  0
  188.0260  178.1140  145.2410 C   0  0  0  0  0  2  0  0  0  0  0  0
  187.6770  176.6320  143.3600 C   0  0  0  0  0  0  0  0  0  0  0  0
  185.1690  178.4600  143.2850 C   0  0  0  0  0  0  0  0  0  0  0  0
  187.8530  175.5260  142.8110 O   0  0  0  0  0  0  0  0  0  0  0  0
  183.4820  178.1170  137.1390 C   0  0  0  0  0  2  0  0  0  0  0  0
  183.2640  177.3120  139.3470 N   0  0  0  0  0  0  0  0  0  0  0  0
  185.2360  178.6150  140.1390 C   0  0  0  0  0  0  0  0  0  0  0  0
  186.1620  179.1710  140.9070 C   0  0  0  0  0  3  0  0  0  0  0  0
  182.5810  177.3250  138.0690 C   0  0  1  0  0  3  0  0  0  0  0  0
  184.4350  178.7240  137.9570 O   0  0  0  0  0  0  0  0  0  0  0  0
  184.3220  178.2660  139.2560 C   0  0  0  0  0  0  0  0  0  0  0  0
  183.0760  176.2150  140.3150 C   0  0  0  0  0  1  0  0  0  0  0  0
  181.3890  178.0290  138.1890 O   0  0  0  0  0  0  0  0  0  0  0  0
  179.4410  175.1490  140.3090 C   0  0  0  0  0  0  0  0  0  0  0  0
  179.2710  176.5640  140.7050 C   0  0  0  0  0  3  0  0  0  0  0  0
  180.1360  175.9460  138.0830 C   0  0  0  0  0  2  0  0  0  0  0  0
  178.9420  173.8410  141.3810 Cl  0  0  0  0  0  0  0  0  0  0  0  0
  179.8570  177.5410  140.0060 C   0  0  0  0  0  0  0  0  0  0  0  0
  179.8580  174.8610  139.0830 C   0  0  0  0  0  3  0  0  0  0  0  0
  180.5380  177.1830  138.7850 N   0  0  0  0  0  0  0  0  0  0  0  0
  179.2300  181.6850  140.7080 C   0  0  0  0  0  3  0  0  0  0  0  0
  179.0640  181.1980  139.4030 C   0  0  0  0  0  0  0  0  0  0  0  0
  179.6230  179.4690  141.5330 C   0  0  0  0  0  3  0  0  0  0  0  0
  179.1870  179.8190  139.1730 C   0  0  0  0  0  3  0  0  0  0  0  0
  179.4260  178.9370  140.2460 C   0  0  0  0  0  0  0  0  0  0  0  0
  179.5290  180.8270  141.7610 C   0  0  0  0  0  3  0  0  0  0  0  0
  178.9740  182.2000  138.2760 C   0  0  0  0  0  2  0  0  0  0  0  0
  181.3500  182.1490  138.4730 F   0  0  0  0  0  0  0  0  0  0  0  0
  180.4940  183.6760  136.9010 C   0  0  0  0  0  1  0  0  0  0  0  0
  180.3290  182.3330  137.5710 C   0  0  2  0  0  3  0  0  0  0  0  0
  186.4970  178.3040  147.1610 C   0  0  0  0  0  2  0  0  0  0  0  0
  187.4390  178.5870  148.2030 F   0  0  0  0  0  0  0  0  0  0  0  0
  189.6910  178.7940  141.4570 O   0  0  0  0  0  0  0  0  0  0  0  0
  188.7330  178.0370  141.3380 C   0  0  0  0  0  0  0  0  0  0  0  0
  188.7090  177.3690  140.1610 O   0  0  0  0  0  0  0  0  0  0  0  0
  186.7640  178.1750  135.4610 C   0  0  0  0  0  1  0  0  0  0  0  0
  190.2130  176.5880  135.9340 C   0  0  0  0  0  3  0  0  0  0  0  0
  189.4020  177.4440  138.0630 C   0  0  0  0  0  0  0  0  0  0  0  0
  188.0510  177.7310  136.0820 C   0  0  0  0  0  0  0  0  0  0  0  0
  189.0530  177.0880  135.3450 C   0  0  0  0  0  3  0  0  0  0  0  0
  190.9250  176.4390  139.5180 C   0  0  0  0  0  2  0  0  0  0  0  0
  190.3550  176.7430  137.3130 C   0  0  0  0  0  0  0  0  0  0  0  0
  189.8220  177.5690  139.4310 C   0  0  2  0  0  3  0  0  0  0  0  0
  188.2510  177.9200  137.4360 C   0  0  0  0  0  3  0  0  0  0  0  0
  191.3650  176.1660  138.1240 N   0  0  0  0  0  2  0  0  0  0  0  0
  2 40  1  1  0  0  0
  3 12  2  0  0  0  0
  3  5  1  0  0  0  0
  4  1  2  0  0  0  0
  4  2  1  0  0  0  0
  5  7  2  0  0  0  0
  6 10  1  0  0  0  0
  7  1  1  0  0  0  0
  8 43  1  6  0  0  0
  8 11  1  0  0  0  0
  9  8  1  0  0  0  0
  9 12  1  0  0  0  0
 10  2  1  0  0  0  0
 11  6  1  0  0  0  0
 12  4  1  0  0  0  0
 13 11  2  0  0  0  0
 14 19  1  0  0  0  0
 14 18  1  0  0  0  0
 15 21  1  0  0  0  0
 16 17  2  0  0  0  0
 17  9  1  0  0  0  0
 18 22  1  1  0  0  0
 18 15  1  0  0  0  0
 19 20  1  0  0  0  0
 20 15  1  0  0  0  0
 20 16  2  0  0  0  0
 22 29  1  0  0  0  0
 23 24  1  0  0  0  0
 23 26  1  0  0  0  0
 25 29  1  0  0  0  0
 25 28  1  0  0  0  0
 27 34  1  0  0  0  0
 27 24  2  0  0  0  0
 28 23  2  0  0  0  0
 29 27  1  0  0  0  0
 30 35  1  0  0  0  0
 31 30  2  0  0  0  0
 32 35  2  0  0  0  0
 33 31  1  0  0  0  0
 33 34  2  0  0  0  0
 34 32  1  0  0  0  0
 36 31  1  0  0  0  0
 39 38  1  1  0  0  0
 39 36  1  0  0  0  0
 39 37  1  0  0  0  0
 40 41  1  0  0  0  0
 43 42  2  0  0  0  0
 44 43  1  0  0  0  0
 45 48  1  0  0  0  0
 46 51  1  0  0  0  0
 47 52  1  0  0  0  0
 48 53  2  0  0  0  0
 49 46  2  0  0  0  0
 49 48  1  0  0  0  0
 51 47  2  0  0  0  0
 51 54  1  0  0  0  0
 52 50  1  0  0  0  0
 52 44  1  1  0  0  0
 53 47  1  0  0  0  0
 54 50  1  0  0  0  0
M  END
>  <MODEL>
8

>  <REMARK>
 VINA RESULT:      -6.9      3.276      8.382
  Name = 
  10 active torsions:
  status: ('A' for Active; 'I' for Inactive)
    1  A    between atoms: C_9  and  C_18
    2  A    between atoms: C_11  and  C_34
    3  A    between atoms: C_21  and  C_37
    4  A    between atoms: C_24  and  N_44
    5  A    between atoms: C_28  and  O_51
    6  A    between atoms: O_31  and  C_33
    7  A    between atoms: O_31  and  C_43
    8  A    between atoms: C_34  and  C_47
    9  A    between atoms: C_36  and  C_43
   10  A    between atoms: N_42  and  O_51
                            x       y       z     vdW  Elec       q    Type
                         _______ _______ _______ _____ _____    ______ ____

>  <TORSDO>
F 10

$$$$
=
 OpenBabel11062412493D

 54 60  0  0  1  0  0  0  0  0999 V2000
  186.4930  178.5030  146.1320 C   0  0  0  0  0  3  0  0  0  0  0  0
  188.8630  178.0170  145.8610 C   0  0  2  0  0  3  0  0  0  0  0  0
  185.4840  178.0530  143.5570 C   0  0  0  0  0  3  0  0  0  0  0  0
  187.3970  178.1640  145.1640 C   0  0  0  0  0  0  0  0  0  0  0  0
  184.7000  178.6720  144.5790 C   0  0  0  0  0  3  0  0  0  0  0  0
  189.6110  176.0000  144.5650 O   0  0  0  0  0  0  0  0  0  0  0  0
  185.1870  178.9200  145.8710 C   0  0  0  0  0  3  0  0  0  0  0  0
  189.1160  177.2610  142.4970 C   0  0  1  0  0  3  0  0  0  0  0  0
  187.9100  178.2510  142.5820 N   0  0  0  0  0  0  0  0  0  0  0  0
  189.9850  177.2500  145.1690 C   0  0  0  0  0  2  0  0  0  0  0  0
  189.1190  175.9770  143.3010 C   0  0  0  0  0  0  0  0  0  0  0  0
  186.9590  178.1700  143.7170 C   0  0  0  0  0  0  0  0  0  0  0  0
  189.0270  174.9000  142.6800 O   0  0  0  0  0  0  0  0  0  0  0  0
  183.9630  179.2730  138.3290 C   0  0  0  0  0  2  0  0  0  0  0  0
  183.9970  178.4430  140.5390 N   0  0  0  0  0  0  0  0  0  0  0  0
  186.4530  178.8020  140.7580 C   0  0  0  0  0  0  0  0  0  0  0  0
  187.6830  178.8880  141.2450 C   0  0  0  0  0  3  0  0  0  0  0  0
  183.0810  178.8250  139.4810 C   0  0  1  0  0  3  0  0  0  0  0  0
  185.2490  179.3900  138.8560 O   0  0  0  0  0  0  0  0  0  0  0  0
  185.2890  178.9100  140.1520 C   0  0  0  0  0  0  0  0  0  0  0  0
  183.6330  177.4340  141.5510 C   0  0  0  0  0  1  0  0  0  0  0  0
  182.3390  179.9270  139.8870 O   0  0  0  0  0  0  0  0  0  0  0  0
  180.3860  180.5510  136.3700 C   0  0  0  0  0  0  0  0  0  0  0  0
  180.0330  179.3650  137.1810 C   0  0  0  0  0  3  0  0  0  0  0  0
  181.3110  181.5670  138.4150 C   0  0  0  0  0  2  0  0  0  0  0  0
  179.8640  180.6890  134.6910 Cl  0  0  0  0  0  0  0  0  0  0  0  0
  180.6180  179.1520  138.3630 C   0  0  0  0  0  0  0  0  0  0  0  0
  180.9960  181.5770  136.9480 C   0  0  0  0  0  3  0  0  0  0  0  0
  181.4950  180.1750  138.8790 N   0  0  0  0  0  0  0  0  0  0  0  0
  179.5180  176.0250  141.0230 C   0  0  0  0  0  3  0  0  0  0  0  0
  179.6300  177.3260  141.5350 C   0  0  0  0  0  0  0  0  0  0  0  0
  179.9490  176.8140  138.8010 C   0  0  0  0  0  3  0  0  0  0  0  0
  179.9130  178.3800  140.6520 C   0  0  0  0  0  3  0  0  0  0  0  0
  180.0320  178.1380  139.2690 C   0  0  0  0  0  0  0  0  0  0  0  0
  179.6980  175.7690  139.6680 C   0  0  0  0  0  3  0  0  0  0  0  0
  179.6570  177.5010  143.0350 C   0  0  0  0  0  2  0  0  0  0  0  0
  181.2620  178.9020  144.1060 F   0  0  0  0  0  0  0  0  0  0  0  0
  179.0320  179.6470  144.2110 C   0  0  0  0  0  1  0  0  0  0  0  0
  180.0820  178.9270  143.3990 C   0  0  2  0  0  3  0  0  0  0  0  0
  188.8160  177.5350  147.3160 C   0  0  0  0  0  2  0  0  0  0  0  0
  188.0540  176.4020  147.7500 F   0  0  0  0  0  0  0  0  0  0  0  0
  191.1540  177.9200  141.2060 O   0  0  0  0  0  0  0  0  0  0  0  0
  190.0700  177.3450  141.2030 C   0  0  0  0  0  0  0  0  0  0  0  0
  189.7500  176.7920  140.0100 O   0  0  0  0  0  0  0  0  0  0  0  0
  186.3190  177.3090  136.2050 C   0  0  0  0  0  1  0  0  0  0  0  0
  189.9850  176.4940  135.4720 C   0  0  0  0  0  3  0  0  0  0  0  0
  189.7260  177.0840  137.8180 C   0  0  0  0  0  0  0  0  0  0  0  0
  187.7960  177.1350  136.3680 C   0  0  0  0  0  0  0  0  0  0  0  0
  188.6240  176.7490  135.3070 C   0  0  0  0  0  3  0  0  0  0  0  0
  191.7930  176.3870  138.6490 C   0  0  0  0  0  2  0  0  0  0  0  0
  190.5160  176.6310  136.7540 C   0  0  0  0  0  0  0  0  0  0  0  0
  190.5180  177.2520  139.0050 C   0  0  2  0  0  3  0  0  0  0  0  0
  188.3670  177.3190  137.6130 C   0  0  0  0  0  3  0  0  0  0  0  0
  191.8210  176.2610  137.1670 N   0  0  0  0  0  2  0  0  0  0  0  0
  2 40  1  1  0  0  0
  3 12  2  0  0  0  0
  3  5  1  0  0  0  0
  4  2  1  0  0  0  0
  4  1  2  0  0  0  0
  5  7  2  0  0  0  0
  6 10  1  0  0  0  0
  7  1  1  0  0  0  0
  8 43  1  6  0  0  0
  8  9  1  0  0  0  0
  8 11  1  0  0  0  0
  9 12  1  0  0  0  0
 10  2  1  0  0  0  0
 11  6  1  0  0  0  0
 12  4  1  0  0  0  0
 13 11  2  0  0  0  0
 14 19  1  0  0  0  0
 14 18  1  0  0  0  0
 15 21  1  0  0  0  0
 16 17  2  0  0  0  0
 17  9  1  0  0  0  0
 18 22  1  1  0  0  0
 18 15  1  0  0  0  0
 19 20  1  0  0  0  0
 20 15  1  0  0  0  0
 20 16  2  0  0  0  0
 23 28  2  0  0  0  0
 23 24  1  0  0  0  0
 24 27  2  0  0  0  0
 25 29  1  0  0  0  0
 26 23  1  0  0  0  0
 27 29  1  0  0  0  0
 27 34  1  0  0  0  0
 28 25  1  0  0  0  0
 29 22  1  0  0  0  0
 30 31  1  0  0  0  0
 31 36  1  0  0  0  0
 32 34  2  0  0  0  0
 32 35  1  0  0  0  0
 33 31  2  0  0  0  0
 34 33  1  0  0  0  0
 35 30  2  0  0  0  0
 36 39  1  0  0  0  0
 39 37  1  0  0  0  0
 39 38  1  1  0  0  0
 40 41  1  0  0  0  0
 43 42  2  0  0  0  0
 44 43  1  0  0  0  0
 45 48  1  0  0  0  0
 46 51  1  0  0  0  0
 47 52  1  0  0  0  0
 48 53  2  0  0  0  0
 49 46  2  0  0  0  0
 49 48  1  0  0  0  0
 50 52  1  0  0  0  0
 51 54  1  0  0  0  0
 51 47  2  0  0  0  0
 52 44  1  1  0  0  0
 53 47  1  0  0  0  0
 54 50  1  0  0  0  0
M  END
>  <MODEL>
9

>  <REMARK>
 VINA RESULT:      -6.5      3.730      8.856
  Name = 
  10 active torsions:
  status: ('A' for Active; 'I' for Inactive)
    1  A    between atoms: C_9  and  C_18
    2  A    between atoms: C_11  and  C_34
    3  A    between atoms: C_21  and  C_37
    4  A    between atoms: C_24  and  N_44
    5  A    between atoms: C_28  and  O_51
    6  A    between atoms: O_31  and  C_33
    7  A    between atoms: O_31  and  C_43
    8  A    between atoms: C_34  and  C_47
    9  A    between atoms: C_36  and  C_43
   10  A    between atoms: N_42  and  O_51
                            x       y       z     vdW  Elec       q    Type
                         _______ _______ _______ _____ _____    ______ ____

>  <TORSDO>
F 10

$$$$
