=
 OpenBabel11062412363D

 51 54  0  0  1  0  0  0  0  0999 V2000
  189.8450  177.5500  142.8770 C   0  0  0  0  0  0  0  0  0  0  0  0
  190.8370  178.1600  143.5160 C   0  0  0  0  0  2  0  0  0  0  0  0
  190.2880  175.2380  142.5560 O   0  0  0  0  0  0  0  0  0  0  0  0
  190.1110  176.3720  142.0280 C   0  0  0  0  0  0  0  0  0  0  0  0
  190.1410  176.5110  140.5360 C   0  0  1  0  0  3  0  0  0  0  0  0
  188.9060  177.2350  140.0190 C   0  0  0  0  0  2  0  0  0  0  0  0
  189.2750  178.5470  139.5070 N   0  0  0  0  0  2  0  0  0  0  0  0
  188.6810  178.6680  138.1840 C   0  0  0  0  0  2  0  0  0  0  0  0
  188.0020  177.3560  137.8020 C   0  0  0  0  0  2  0  0  0  0  0  0
  187.4720  177.3620  136.3680 C   0  0  2  0  0  0  0  0  0  0  0  0
  187.0800  178.6640  136.0150 O   0  0  0  0  0  1  0  0  0  0  0  0
  186.0560  175.9720  134.9620 O   0  0  0  0  0  0  0  0  0  0  0  0
  185.1420  176.8870  135.5230 C   0  0  0  0  0  2  0  0  0  0  0  0
  186.2980  176.3670  136.2930 C   0  0  2  0  0  3  0  0  0  0  0  0
  188.5530  176.9010  135.4330 C   0  0  0  0  0  3  0  0  0  0  0  0
  189.6410  177.4590  135.4060 O   0  0  0  0  0  0  0  0  0  0  0  0
  191.6510  177.3810  140.0140 S   0  0  0  0  0  0  0  0  0  0  0  0
  191.7750  176.4590  138.4480 C   0  0  1  0  0  3  0  0  0  0  0  0
  194.0050  177.0040  137.0710 O   0  0  0  0  0  1  0  0  0  0  0  0
  194.1700  176.6780  139.6060 O   0  0  0  0  0  1  0  0  0  0  0  0
  193.5130  175.8210  138.2470 P   0  0  0  0  0  0  0  0  0  0  0  0
  190.8420  175.3450  138.4610 N   0  0  0  0  0  2  0  0  0  0  0  0
  190.9040  174.7310  137.1410 C   0  0  0  0  0  2  0  0  0  0  0  0
  188.6300  173.9830  137.0720 O   0  0  0  0  0  1  0  0  0  0  0  0
  189.9560  173.5430  137.0540 C   0  0  1  0  0  3  0  0  0  0  0  0
  190.1960  172.8140  135.8880 O   0  0  0  0  0  0  0  0  0  0  0  0
  188.9550  172.2710  135.5410 C   0  0  0  0  0  1  0  0  0  0  0  0
  188.4460  178.0090  143.1220 C   0  0  0  0  0  2  0  0  0  0  0  0
  187.6340  176.8930  143.7590 C   0  0  0  0  0  2  0  0  0  0  0  0
  187.0400  177.3460  145.0840 C   0  0  0  0  0  2  0  0  0  0  0  0
  185.6410  177.9160  144.9040 C   0  0  1  0  0  3  0  0  0  0  0  0
  184.2090  178.8630  143.2000 C   0  0  1  0  0  0  0  0  0  0  0  0
  181.7930  179.1030  142.4560 C   0  0  0  0  0  2  0  0  0  0  0  0
  185.6650  179.4130  145.0860 C   0  0  0  0  0  2  0  0  0  0  0  0
  182.1230  178.7500  141.0010 C   0  0  1  0  0  3  0  0  0  0  0  0
  184.4740  179.3880  141.7800 C   0  0  0  0  0  2  0  0  0  0  0  0
  184.5490  179.9500  144.2080 C   0  0  0  0  0  2  0  0  0  0  0  0
  182.7550  178.4120  143.4190 C   0  0  0  0  0  2  0  0  0  0  0  0
  185.1370  177.6980  143.4930 C   0  0  0  0  0  2  0  0  0  0  0  0
  183.6400  178.6480  140.7320 C   0  0  2  0  0  3  0  0  0  0  0  0
  184.6720  178.4500  138.5790 O   0  0  0  0  0  0  0  0  0  0  0  0
  183.9750  179.1470  139.3630 C   0  0  0  0  0  0  0  0  0  0  0  0
  183.5090  180.3880  138.9530 O   0  0  0  0  0  1  0  0  0  0  0  0
  181.4330  177.4460  140.6340 C   0  0  0  0  0  2  0  0  0  0  0  0
  179.7620  177.7660  139.9920 S   0  0  0  0  0  0  0  0  0  0  0  0
  180.1560  179.5700  137.9310 C   0  0  0  0  0  3  0  0  0  0  0  0
  181.1200  177.3680  137.6120 C   0  0  0  0  0  3  0  0  0  0  0  0
  180.6470  179.9650  136.6830 C   0  0  0  0  0  3  0  0  0  0  0  0
  181.6110  177.7650  136.3650 C   0  0  0  0  0  3  0  0  0  0  0  0
  180.3900  178.2700  138.3950 C   0  0  0  0  0  0  0  0  0  0  0  0
  181.3760  179.0640  135.9000 C   0  0  0  0  0  3  0  0  0  0  0  0
  1 28  1  0  0  0  0
  1  2  2  0  0  0  0
  4  3  2  0  0  0  0
  4  1  1  0  0  0  0
  5  6  1  1  0  0  0
  5  4  1  0  0  0  0
  7  6  1  0  0  0  0
  8  7  1  0  0  0  0
  9  8  1  0  0  0  0
 10 11  1  6  0  0  0
 10  9  1  0  0  0  0
 12 13  1  0  0  0  0
 12 14  1  0  0  0  0
 13 14  1  0  0  0  0
 14 10  1  6  0  0  0
 15 10  1  0  0  0  0
 16 15  2  0  0  0  0
 17  5  1  0  0  0  0
 18 22  1  1  0  0  0
 18 17  1  0  0  0  0
 19 21  1  0  0  0  0
 21 18  1  0  0  0  0
 21 20  1  0  0  0  0
 23 22  1  0  0  0  0
 25 24  1  6  0  0  0
 25 23  1  0  0  0  0
 26 25  1  0  0  0  0
 27 26  1  0  0  0  0
 28 29  1  0  0  0  0
 29 30  1  0  0  0  0
 31 30  1  6  0  0  0
 31 34  1  0  0  0  0
 32 36  1  6  0  0  0
 32 38  1  0  0  0  0
 32 39  1  0  0  0  0
 32 37  1  0  0  0  0
 33 38  1  0  0  0  0
 35 44  1  1  0  0  0
 35 33  1  0  0  0  0
 37 34  1  0  0  0  0
 39 31  1  0  0  0  0
 40 42  1  6  0  0  0
 40 35  1  0  0  0  0
 40 36  1  0  0  0  0
 41 42  2  0  0  0  0
 43 42  1  0  0  0  0
 45 44  1  0  0  0  0
 46 50  1  0  0  0  0
 47 50  2  0  0  0  0
 48 46  2  0  0  0  0
 49 47  1  0  0  0  0
 50 45  1  0  0  0  0
 51 49  2  0  0  0  0
 51 48  1  0  0  0  0
M  END
>  <MODEL>
1

>  <REMARK>
 VINA RESULT:      -5.8      0.000      0.000
  Name = 
  24 active torsions:
  status: ('A' for Active; 'I' for Inactive)
    1  A    between atoms: C_1  and  C_7
    2  A    between atoms: C_4  and  C_35
    3  A    between atoms: C_6  and  C_10
    4  A    between atoms: C_6  and  C_31
    5  A    between atoms: C_7  and  C_16
    6  A    between atoms: C_7  and  C_45
    7  A    between atoms: C_9  and  C_10
    8  A    between atoms: C_9  and  C_35
    9  A    between atoms: C_11  and  C_42
   10  A    between atoms: S_12  and  C_13
   11  A    between atoms: S_12  and  C_27
   12  A    between atoms: C_13  and  C_31
   13  A    between atoms: C_13  and  C_34
   14  A    between atoms: C_16  and  C_29
   15  A    between atoms: C_18  and  O_33
   16  A    between atoms: C_18  and  C_44
   17  A    between atoms: C_20  and  C_28
   18  A    between atoms: N_25  and  C_27
   19  A    between atoms: N_25  and  C_44
   20  A    between atoms: C_27  and  P_49
   21  A    between atoms: C_28  and  S_43
   22  A    between atoms: C_29  and  N_51
   23  A    between atoms: C_34  and  N_51
   24  A    between atoms: S_43  and  C_48
                            x       y       z     vdW  Elec       q    Type
                         _______ _______ _______ _____ _____    ______ ____

>  <TORSDO>
F 24

$$$$
=
 OpenBabel11062412363D

 51 54  0  0  1  0  0  0  0  0999 V2000
  186.7940  177.3340  137.1170 C   0  0  0  0  0  0  0  0  0  0  0  0
  186.2030  178.1870  137.9470 C   0  0  0  0  0  2  0  0  0  0  0  0
  188.4010  178.0360  135.5150 O   0  0  0  0  0  0  0  0  0  0  0  0
  188.1800  177.5650  136.6660 C   0  0  0  0  0  0  0  0  0  0  0  0
  189.3290  177.2730  137.5830 C   0  0  1  0  0  3  0  0  0  0  0  0
  189.2690  178.1280  138.8420 C   0  0  0  0  0  2  0  0  0  0  0  0
  189.8250  177.3930  139.9690 N   0  0  0  0  0  2  0  0  0  0  0  0
  188.9450  177.6310  141.1040 C   0  0  0  0  0  2  0  0  0  0  0  0
  189.7360  178.2640  142.2450 C   0  0  0  0  0  2  0  0  0  0  0  0
  189.9070  177.3210  143.4380 C   0  0  2  0  0  0  0  0  0  0  0  0
  189.1220  177.7720  144.5120 O   0  0  0  0  0  1  0  0  0  0  0  0
  191.6100  176.6150  145.0230 O   0  0  0  0  0  0  0  0  0  0  0  0
  191.7270  178.0200  145.0400 C   0  0  0  0  0  2  0  0  0  0  0  0
  191.4050  177.2790  143.7960 C   0  0  2  0  0  3  0  0  0  0  0  0
  189.4660  175.9390  143.0490 C   0  0  0  0  0  3  0  0  0  0  0  0
  190.2830  175.0770  142.7580 O   0  0  0  0  0  0  0  0  0  0  0  0
  189.3560  175.5070  138.0170 S   0  0  0  0  0  0  0  0  0  0  0  0
  190.8120  175.1590  136.9790 C   0  0  1  0  0  3  0  0  0  0  0  0
  191.1370  173.3340  135.0500 O   0  0  0  0  0  1  0  0  0  0  0  0
  188.7610  174.0560  135.6750 O   0  0  0  0  0  1  0  0  0  0  0  0
  190.2560  174.8210  135.2340 P   0  0  0  0  0  0  0  0  0  0  0  0
  191.7090  176.3030  136.9950 N   0  0  0  0  0  2  0  0  0  0  0  0
  192.9750  175.8510  136.4330 C   0  0  0  0  0  2  0  0  0  0  0  0
  193.7660  176.4370  138.6160 O   0  0  0  0  0  1  0  0  0  0  0  0
  193.9860  175.5780  137.5360 C   0  0  1  0  0  3  0  0  0  0  0  0
  193.8930  174.2510  137.9620 O   0  0  0  0  0  0  0  0  0  0  0  0
  195.1790  173.9250  138.4070 C   0  0  0  0  0  1  0  0  0  0  0  0
  186.0710  176.0840  136.7390 C   0  0  0  0  0  2  0  0  0  0  0  0
  185.4240  176.2480  135.3730 C   0  0  0  0  0  2  0  0  0  0  0  0
  183.9120  176.1060  135.4700 C   0  0  0  0  0  2  0  0  0  0  0  0
  183.2690  177.3520  136.0590 C   0  0  1  0  0  3  0  0  0  0  0  0
  181.6040  178.0110  137.6850 C   0  0  1  0  0  0  0  0  0  0  0  0
  180.9630  179.8260  139.3400 C   0  0  0  0  0  2  0  0  0  0  0  0
  182.0150  177.6980  135.2950 C   0  0  0  0  0  2  0  0  0  0  0  0
  180.6370  178.8150  140.4450 C   0  0  1  0  0  3  0  0  0  0  0  0
  180.5070  177.2380  138.4350 C   0  0  0  0  0  2  0  0  0  0  0  0
  181.0990  178.3760  136.2970 C   0  0  0  0  0  2  0  0  0  0  0  0
  182.0480  179.2910  138.4100 C   0  0  0  0  0  2  0  0  0  0  0  0
  182.8100  177.1130  137.4820 C   0  0  0  0  0  2  0  0  0  0  0  0
  180.6640  177.3510  139.9530 C   0  0  2  0  0  3  0  0  0  0  0  0
  179.1410  176.9030  141.7470 O   0  0  0  0  0  1  0  0  0  0  0  0
  179.6170  176.5360  140.6400 C   0  0  0  0  0  0  0  0  0  0  0  0
  179.1640  175.3650  140.0500 O   0  0  0  0  0  0  0  0  0  0  0  0
  181.6090  179.0020  141.5980 C   0  0  0  0  0  2  0  0  0  0  0  0
  183.2530  178.3620  141.1570 S   0  0  0  0  0  0  0  0  0  0  0  0
  182.9710  178.9090  143.8550 C   0  0  0  0  0  3  0  0  0  0  0  0
  185.1850  178.2320  143.1360 C   0  0  0  0  0  3  0  0  0  0  0  0
  183.4340  179.0270  145.1690 C   0  0  0  0  0  3  0  0  0  0  0  0
  185.6470  178.3490  144.4510 C   0  0  0  0  0  3  0  0  0  0  0  0
  183.8470  178.5140  142.8380 C   0  0  0  0  0  0  0  0  0  0  0  0
  184.7720  178.7460  145.4680 C   0  0  0  0  0  3  0  0  0  0  0  0
  1  2  2  0  0  0  0
  3  4  2  0  0  0  0
  4  1  1  0  0  0  0
  4  5  1  0  0  0  0
  5 17  1  0  0  0  0
  5  6  1  1  0  0  0
  6  7  1  0  0  0  0
  7  8  1  0  0  0  0
  8  9  1  0  0  0  0
  9 10  1  0  0  0  0
 10 11  1  1  0  0  0
 12 13  1  0  0  0  0
 14 10  1  1  0  0  0
 14 12  1  0  0  0  0
 14 13  1  0  0  0  0
 15 10  1  0  0  0  0
 16 15  2  0  0  0  0
 18 22  1  6  0  0  0
 18 17  1  0  0  0  0
 19 21  1  0  0  0  0
 21 20  1  0  0  0  0
 21 18  1  0  0  0  0
 23 22  1  0  0  0  0
 23 25  1  0  0  0  0
 25 26  1  0  0  0  0
 25 24  1  1  0  0  0
 26 27  1  0  0  0  0
 28  1  1  0  0  0  0
 29 30  1  0  0  0  0
 29 28  1  0  0  0  0
 31 30  1  6  0  0  0
 31 39  1  0  0  0  0
 32 37  1  6  0  0  0
 32 38  1  0  0  0  0
 32 36  1  0  0  0  0
 33 35  1  0  0  0  0
 34 31  1  0  0  0  0
 34 37  1  0  0  0  0
 35 44  1  1  0  0  0
 36 40  1  0  0  0  0
 38 33  1  0  0  0  0
 39 32  1  0  0  0  0
 40 35  1  0  0  0  0
 40 42  1  1  0  0  0
 42 41  1  0  0  0  0
 43 42  2  0  0  0  0
 45 44  1  0  0  0  0
 45 50  1  0  0  0  0
 46 48  1  0  0  0  0
 47 49  2  0  0  0  0
 48 51  2  0  0  0  0
 49 51  1  0  0  0  0
 50 47  1  0  0  0  0
 50 46  2  0  0  0  0
M  END
>  <MODEL>
2

>  <REMARK>
 VINA RESULT:      -5.5      2.223      6.684
  Name = 
  24 active torsions:
  status: ('A' for Active; 'I' for Inactive)
    1  A    between atoms: C_1  and  C_7
    2  A    between atoms: C_4  and  C_35
    3  A    between atoms: C_6  and  C_10
    4  A    between atoms: C_6  and  C_31
    5  A    between atoms: C_7  and  C_16
    6  A    between atoms: C_7  and  C_45
    7  A    between atoms: C_9  and  C_10
    8  A    between atoms: C_9  and  C_35
    9  A    between atoms: C_11  and  C_42
   10  A    between atoms: S_12  and  C_13
   11  A    between atoms: S_12  and  C_27
   12  A    between atoms: C_13  and  C_31
   13  A    between atoms: C_13  and  C_34
   14  A    between atoms: C_16  and  C_29
   15  A    between atoms: C_18  and  O_33
   16  A    between atoms: C_18  and  C_44
   17  A    between atoms: C_20  and  C_28
   18  A    between atoms: N_25  and  C_27
   19  A    between atoms: N_25  and  C_44
   20  A    between atoms: C_27  and  P_49
   21  A    between atoms: C_28  and  S_43
   22  A    between atoms: C_29  and  N_51
   23  A    between atoms: C_34  and  N_51
   24  A    between atoms: S_43  and  C_48
                            x       y       z     vdW  Elec       q    Type
                         _______ _______ _______ _____ _____    ______ ____

>  <TORSDO>
F 24

$$$$
=
 OpenBabel11062412363D

 51 54  0  0  1  0  0  0  0  0999 V2000
  186.4660  178.3930  142.3260 C   0  0  0  0  0  0  0  0  0  0  0  0
  186.8970  177.4660  143.1740 C   0  0  0  0  0  2  0  0  0  0  0  0
  186.2320  178.7590  139.9900 O   0  0  0  0  0  0  0  0  0  0  0  0
  186.9960  178.4550  140.9500 C   0  0  0  0  0  0  0  0  0  0  0  0
  188.4480  178.1880  140.6890 C   0  0  1  0  0  3  0  0  0  0  0  0
  189.2080  177.9290  141.9830 C   0  0  0  0  0  2  0  0  0  0  0  0
  190.1070  176.7970  141.8130 N   0  0  0  0  0  2  0  0  0  0  0  0
  190.1230  176.0770  143.0780 C   0  0  0  0  0  2  0  0  0  0  0  0
  191.4050  176.4020  143.8400 C   0  0  0  0  0  2  0  0  0  0  0  0
  191.1420  177.1780  145.1320 C   0  0  2  0  0  0  0  0  0  0  0  0
  192.0270  176.7420  146.1320 O   0  0  0  0  0  1  0  0  0  0  0  0
  189.0840  178.1510  145.9860 O   0  0  0  0  0  0  0  0  0  0  0  0
  189.4120  177.1930  146.9680 C   0  0  0  0  0  2  0  0  0  0  0  0
  189.6700  176.9540  145.5280 C   0  0  2  0  0  3  0  0  0  0  0  0
  191.3570  178.6440  144.8870 C   0  0  0  0  0  3  0  0  0  0  0  0
  191.9240  179.0370  143.8780 O   0  0  0  0  0  0  0  0  0  0  0  0
  188.6360  176.7820  139.5510 S   0  0  0  0  0  0  0  0  0  0  0  0
  189.5770  177.7520  138.3290 C   0  0  1  0  0  3  0  0  0  0  0  0
  192.1750  177.1370  138.5120 O   0  0  0  0  0  1  0  0  0  0  0  0
  190.4610  175.2360  138.4410 O   0  0  0  0  0  1  0  0  0  0  0  0
  190.8380  176.6530  137.5110 P   0  0  0  0  0  0  0  0  0  0  0  0
  188.6700  178.2870  137.3270 N   0  0  0  0  0  2  0  0  0  0  0  0
  187.5890  177.3210  137.1820 C   0  0  0  0  0  2  0  0  0  0  0  0
  187.1650  178.5070  135.1450 O   0  0  0  0  0  1  0  0  0  0  0  0
  186.5450  177.8260  136.1960 C   0  0  1  0  0  3  0  0  0  0  0  0
  185.7980  176.7600  135.6910 O   0  0  0  0  0  0  0  0  0  0  0  0
  186.6840  175.6780  135.6680 C   0  0  0  0  0  1  0  0  0  0  0  0
  185.3590  179.2970  142.7550 C   0  0  0  0  0  2  0  0  0  0  0  0
  184.5610  178.6510  143.8770 C   0  0  0  0  0  2  0  0  0  0  0  0
  183.2090  179.3280  144.0390 C   0  0  0  0  0  2  0  0  0  0  0  0
  182.1030  178.5410  143.3520 C   0  0  1  0  0  3  0  0  0  0  0  0
  180.4930  178.7460  141.5590 C   0  0  1  0  0  0  0  0  0  0  0  0
  179.2160  177.4430  139.7930 C   0  0  0  0  0  2  0  0  0  0  0  0
  180.7710  178.8600  143.9860 C   0  0  0  0  0  2  0  0  0  0  0  0
  179.5300  178.4670  138.6960 C   0  0  1  0  0  3  0  0  0  0  0  0
  179.9860  179.9410  140.7360 C   0  0  0  0  0  2  0  0  0  0  0  0
  179.7430  178.6950  142.8810 C   0  0  0  0  0  2  0  0  0  0  0  0
  180.3300  177.3990  140.8360 C   0  0  0  0  0  2  0  0  0  0  0  0
  181.9570  178.9490  141.9020 C   0  0  0  0  0  2  0  0  0  0  0  0
  180.2160  179.7410  139.2350 C   0  0  2  0  0  3  0  0  0  0  0  0
  178.9310  181.7470  138.9840 O   0  0  0  0  0  1  0  0  0  0  0  0
  179.7670  180.9500  138.4810 C   0  0  0  0  0  0  0  0  0  0  0  0
  180.2790  181.1980  137.2160 O   0  0  0  0  0  0  0  0  0  0  0  0
  180.3970  177.8120  137.6320 C   0  0  0  0  0  2  0  0  0  0  0  0
  182.1590  178.0930  137.9820 S   0  0  0  0  0  0  0  0  0  0  0  0
  182.0250  175.9300  136.2620 C   0  0  0  0  0  3  0  0  0  0  0  0
  183.5530  175.7060  138.1310 C   0  0  0  0  0  3  0  0  0  0  0  0
  182.3780  174.6520  135.8210 C   0  0  0  0  0  3  0  0  0  0  0  0
  183.9060  174.4280  137.6880 C   0  0  0  0  0  3  0  0  0  0  0  0
  182.6100  176.4570  137.4190 C   0  0  0  0  0  0  0  0  0  0  0  0
  183.3190  173.9000  136.5330 C   0  0  0  0  0  3  0  0  0  0  0  0
  1 28  1  0  0  0  0
  1  2  2  0  0  0  0
  3  4  2  0  0  0  0
  4  1  1  0  0  0  0
  5  4  1  0  0  0  0
  5  6  1  1  0  0  0
  7  6  1  0  0  0  0
  7  8  1  0  0  0  0
  8  9  1  0  0  0  0
  9 10  1  0  0  0  0
 10 11  1  1  0  0  0
 12 13  1  0  0  0  0
 14 10  1  1  0  0  0
 14 12  1  0  0  0  0
 14 13  1  0  0  0  0
 15 10  1  0  0  0  0
 16 15  2  0  0  0  0
 17  5  1  0  0  0  0
 18 22  1  6  0  0  0
 18 17  1  0  0  0  0
 21 18  1  0  0  0  0
 21 20  1  0  0  0  0
 21 19  1  0  0  0  0
 23 22  1  0  0  0  0
 25 24  1  6  0  0  0
 25 23  1  0  0  0  0
 26 25  1  0  0  0  0
 27 26  1  0  0  0  0
 28 29  1  0  0  0  0
 29 30  1  0  0  0  0
 31 34  1  0  0  0  0
 31 30  1  1  0  0  0
 32 36  1  6  0  0  0
 32 39  1  0  0  0  0
 32 37  1  0  0  0  0
 33 38  1  0  0  0  0
 35 44  1  6  0  0  0
 35 40  1  0  0  0  0
 35 33  1  0  0  0  0
 37 34  1  0  0  0  0
 38 32  1  0  0  0  0
 39 31  1  0  0  0  0
 40 42  1  6  0  0  0
 40 36  1  0  0  0  0
 42 41  1  0  0  0  0
 43 42  2  0  0  0  0
 44 45  1  0  0  0  0
 46 50  1  0  0  0  0
 48 46  2  0  0  0  0
 48 51  1  0  0  0  0
 49 47  1  0  0  0  0
 50 45  1  0  0  0  0
 50 47  2  0  0  0  0
 51 49  2  0  0  0  0
M  END
>  <MODEL>
3

>  <REMARK>
 VINA RESULT:      -5.5      2.361      5.583
  Name = 
  24 active torsions:
  status: ('A' for Active; 'I' for Inactive)
    1  A    between atoms: C_1  and  C_7
    2  A    between atoms: C_4  and  C_35
    3  A    between atoms: C_6  and  C_10
    4  A    between atoms: C_6  and  C_31
    5  A    between atoms: C_7  and  C_16
    6  A    between atoms: C_7  and  C_45
    7  A    between atoms: C_9  and  C_10
    8  A    between atoms: C_9  and  C_35
    9  A    between atoms: C_11  and  C_42
   10  A    between atoms: S_12  and  C_13
   11  A    between atoms: S_12  and  C_27
   12  A    between atoms: C_13  and  C_31
   13  A    between atoms: C_13  and  C_34
   14  A    between atoms: C_16  and  C_29
   15  A    between atoms: C_18  and  O_33
   16  A    between atoms: C_18  and  C_44
   17  A    between atoms: C_20  and  C_28
   18  A    between atoms: N_25  and  C_27
   19  A    between atoms: N_25  and  C_44
   20  A    between atoms: C_27  and  P_49
   21  A    between atoms: C_28  and  S_43
   22  A    between atoms: C_29  and  N_51
   23  A    between atoms: C_34  and  N_51
   24  A    between atoms: S_43  and  C_48
                            x       y       z     vdW  Elec       q    Type
                         _______ _______ _______ _____ _____    ______ ____

>  <TORSDO>
F 24

$$$$
=
 OpenBabel11062412363D

 51 54  0  0  1  0  0  0  0  0999 V2000
  190.9860  176.8700  139.2920 C   0  0  0  0  0  0  0  0  0  0  0  0
  191.9050  176.3850  138.4650 C   0  0  0  0  0  2  0  0  0  0  0  0
  192.5010  177.7170  140.9130 O   0  0  0  0  0  0  0  0  0  0  0  0
  191.3470  177.2660  140.6670 C   0  0  0  0  0  0  0  0  0  0  0  0
  190.3360  177.1670  141.7690 C   0  0  1  0  0  3  0  0  0  0  0  0
  190.9920  176.8060  143.0960 C   0  0  0  0  0  2  0  0  0  0  0  0
  191.6570  177.9730  143.6550 N   0  0  0  0  0  2  0  0  0  0  0  0
  191.6140  177.8310  145.1030 C   0  0  0  0  0  2  0  0  0  0  0  0
  190.4920  176.8730  145.4940 C   0  0  0  0  0  2  0  0  0  0  0  0
  190.3330  176.7370  147.0090 C   0  0  2  0  0  0  0  0  0  0  0  0
  189.3850  175.7410  147.2960 O   0  0  0  0  0  1  0  0  0  0  0  0
  189.1770  177.9660  148.7590 O   0  0  0  0  0  0  0  0  0  0  0  0
  188.4430  178.3000  147.6020 C   0  0  0  0  0  2  0  0  0  0  0  0
  189.9140  178.1100  147.5670 C   0  0  2  0  0  3  0  0  0  0  0  0
  191.6510  176.3520  147.6160 C   0  0  0  0  0  3  0  0  0  0  0  0
  192.2490  177.1180  148.3590 O   0  0  0  0  0  0  0  0  0  0  0  0
  189.4140  178.7280  141.9220 S   0  0  0  0  0  0  0  0  0  0  0  0
  187.8140  177.9510  141.5340 C   0  0  1  0  0  3  0  0  0  0  0  0
  187.5900  176.0020  143.3540 O   0  0  0  0  0  1  0  0  0  0  0  0
  188.0430  178.3910  144.1560 O   0  0  0  0  0  1  0  0  0  0  0  0
  186.9080  177.5840  143.1190 P   0  0  0  0  0  0  0  0  0  0  0  0
  187.0190  178.8500  140.7130 N   0  0  0  0  0  2  0  0  0  0  0  0
  185.6590  178.8020  141.2340 C   0  0  0  0  0  2  0  0  0  0  0  0
  183.3790  178.3930  140.6270 O   0  0  0  0  0  1  0  0  0  0  0  0
  184.6580  178.6070  140.1050 C   0  0  1  0  0  3  0  0  0  0  0  0
  184.6450  179.7250  139.2680 O   0  0  0  0  0  0  0  0  0  0  0  0
  183.2910  180.0010  139.0570 C   0  0  0  0  0  1  0  0  0  0  0  0
  189.6080  177.1090  138.7700 C   0  0  0  0  0  2  0  0  0  0  0  0
  189.6750  177.7140  137.3760 C   0  0  0  0  0  2  0  0  0  0  0  0
  188.6960  178.8710  137.2420 C   0  0  0  0  0  2  0  0  0  0  0  0
  187.4870  178.4860  136.4020 C   0  0  1  0  0  3  0  0  0  0  0  0
  186.0220  176.6090  135.9770 C   0  0  1  0  0  0  0  0  0  0  0  0
  183.6500  175.9670  135.3380 C   0  0  0  0  0  2  0  0  0  0  0  0
  187.9360  177.8570  135.1060 C   0  0  0  0  0  2  0  0  0  0  0  0
  183.5600  174.8970  136.4330 C   0  0  1  0  0  3  0  0  0  0  0  0
  186.1060  175.1140  136.3200 C   0  0  0  0  0  2  0  0  0  0  0  0
  186.8380  176.8820  134.7230 C   0  0  0  0  0  2  0  0  0  0  0  0
  184.5820  177.1010  135.7560 C   0  0  0  0  0  2  0  0  0  0  0  0
  186.6570  177.4240  137.0890 C   0  0  0  0  0  2  0  0  0  0  0  0
  184.9060  174.6490  137.1480 C   0  0  2  0  0  3  0  0  0  0  0  0
  186.1170  172.7920  138.0560 O   0  0  0  0  0  1  0  0  0  0  0  0
  185.0600  173.2070  137.5120 C   0  0  0  0  0  0  0  0  0  0  0  0
  184.0260  172.3200  137.2510 O   0  0  0  0  0  0  0  0  0  0  0  0
  182.4940  175.3000  137.4400 C   0  0  0  0  0  2  0  0  0  0  0  0
  180.9590  174.3690  137.1520 S   0  0  0  0  0  0  0  0  0  0  0  0
  179.6110  173.9170  139.5260 C   0  0  0  0  0  3  0  0  0  0  0  0
  180.4120  176.1790  139.1740 C   0  0  0  0  0  3  0  0  0  0  0  0
  179.0780  174.2990  140.7610 C   0  0  0  0  0  3  0  0  0  0  0  0
  179.8790  176.5590  140.4100 C   0  0  0  0  0  3  0  0  0  0  0  0
  180.2760  174.8580  138.7310 C   0  0  0  0  0  0  0  0  0  0  0  0
  179.2130  175.6190  141.2040 C   0  0  0  0  0  3  0  0  0  0  0  0
  1  4  1  0  0  0  0
  2  1  2  0  0  0  0
  4  3  2  0  0  0  0
  4  5  1  0  0  0  0
  5 17  1  0  0  0  0
  5  6  1  1  0  0  0
  6  7  1  0  0  0  0
  7  8  1  0  0  0  0
  8  9  1  0  0  0  0
  9 10  1  0  0  0  0
 10 11  1  1  0  0  0
 10 15  1  0  0  0  0
 13 12  1  0  0  0  0
 14 10  1  6  0  0  0
 14 13  1  0  0  0  0
 14 12  1  0  0  0  0
 15 16  2  0  0  0  0
 18 22  1  6  0  0  0
 18 17  1  0  0  0  0
 18 21  1  0  0  0  0
 21 19  1  0  0  0  0
 21 20  1  0  0  0  0
 22 23  1  0  0  0  0
 25 24  1  1  0  0  0
 25 23  1  0  0  0  0
 26 25  1  0  0  0  0
 27 26  1  0  0  0  0
 28  1  1  0  0  0  0
 29 28  1  0  0  0  0
 30 29  1  0  0  0  0
 31 39  1  0  0  0  0
 31 30  1  1  0  0  0
 32 37  1  6  0  0  0
 32 36  1  0  0  0  0
 32 39  1  0  0  0  0
 33 38  1  0  0  0  0
 33 35  1  0  0  0  0
 34 31  1  0  0  0  0
 35 40  1  0  0  0  0
 35 44  1  1  0  0  0
 36 40  1  0  0  0  0
 37 34  1  0  0  0  0
 38 32  1  0  0  0  0
 40 42  1  6  0  0  0
 42 41  1  0  0  0  0
 43 42  2  0  0  0  0
 45 44  1  0  0  0  0
 45 50  1  0  0  0  0
 46 48  1  0  0  0  0
 47 49  2  0  0  0  0
 48 51  2  0  0  0  0
 49 51  1  0  0  0  0
 50 47  1  0  0  0  0
 50 46  2  0  0  0  0
M  END
>  <MODEL>
4

>  <REMARK>
 VINA RESULT:      -5.4      3.141      7.804
  Name = 
  24 active torsions:
  status: ('A' for Active; 'I' for Inactive)
    1  A    between atoms: C_1  and  C_7
    2  A    between atoms: C_4  and  C_35
    3  A    between atoms: C_6  and  C_10
    4  A    between atoms: C_6  and  C_31
    5  A    between atoms: C_7  and  C_16
    6  A    between atoms: C_7  and  C_45
    7  A    between atoms: C_9  and  C_10
    8  A    between atoms: C_9  and  C_35
    9  A    between atoms: C_11  and  C_42
   10  A    between atoms: S_12  and  C_13
   11  A    between atoms: S_12  and  C_27
   12  A    between atoms: C_13  and  C_31
   13  A    between atoms: C_13  and  C_34
   14  A    between atoms: C_16  and  C_29
   15  A    between atoms: C_18  and  O_33
   16  A    between atoms: C_18  and  C_44
   17  A    between atoms: C_20  and  C_28
   18  A    between atoms: N_25  and  C_27
   19  A    between atoms: N_25  and  C_44
   20  A    between atoms: C_27  and  P_49
   21  A    between atoms: C_28  and  S_43
   22  A    between atoms: C_29  and  N_51
   23  A    between atoms: C_34  and  N_51
   24  A    between atoms: S_43  and  C_48
                            x       y       z     vdW  Elec       q    Type
                         _______ _______ _______ _____ _____    ______ ____

>  <TORSDO>
F 24

$$$$
=
 OpenBabel11062412363D

 51 54  0  0  1  0  0  0  0  0999 V2000
  190.1910  176.8940  139.3330 C   0  0  0  0  0  0  0  0  0  0  0  0
  190.6610  175.7330  138.8910 C   0  0  0  0  0  2  0  0  0  0  0  0
  191.9180  177.8150  140.6790 O   0  0  0  0  0  0  0  0  0  0  0  0
  190.7030  177.4820  140.5860 C   0  0  0  0  0  0  0  0  0  0  0  0
  189.7770  177.7170  141.7410 C   0  0  1  0  0  3  0  0  0  0  0  0
  188.4810  178.3780  141.2920 C   0  0  0  0  0  2  0  0  0  0  0  0
  187.3410  177.6770  141.8640 N   0  0  0  0  0  2  0  0  0  0  0  0
  186.2790  178.6600  142.0270 C   0  0  0  0  0  2  0  0  0  0  0  0
  185.0190  177.9740  142.5500 C   0  0  0  0  0  2  0  0  0  0  0  0
  184.2360  178.8490  143.5300 C   0  0  2  0  0  0  0  0  0  0  0  0
  184.7350  180.1610  143.4950 O   0  0  0  0  0  1  0  0  0  0  0  0
  183.8250  179.0730  145.9160 O   0  0  0  0  0  0  0  0  0  0  0  0
  185.2310  179.0060  145.8430 C   0  0  0  0  0  2  0  0  0  0  0  0
  184.3640  178.2210  144.9310 C   0  0  2  0  0  3  0  0  0  0  0  0
  182.7860  178.8610  143.1390 C   0  0  0  0  0  3  0  0  0  0  0  0
  182.0920  179.8510  143.3280 O   0  0  0  0  0  0  0  0  0  0  0  0
  189.4260  176.1500  142.5960 S   0  0  0  0  0  0  0  0  0  0  0  0
  189.8930  176.8070  144.2300 C   0  0  1  0  0  3  0  0  0  0  0  0
  190.9320  179.2690  144.3610 O   0  0  0  0  0  1  0  0  0  0  0  0
  191.9990  177.4050  145.7550 O   0  0  0  0  0  1  0  0  0  0  0  0
  191.5420  177.6620  144.1000 P   0  0  0  0  0  0  0  0  0  0  0  0
  188.8850  177.7520  144.6830 N   0  0  0  0  0  2  0  0  0  0  0  0
  187.9010  176.9860  145.4360 C   0  0  0  0  0  2  0  0  0  0  0  0
  189.3790  176.3740  147.2180 O   0  0  0  0  0  1  0  0  0  0  0  0
  188.1930  177.0540  146.9280 C   0  0  1  0  0  3  0  0  0  0  0  0
  188.2980  178.3830  147.3420 O   0  0  0  0  0  0  0  0  0  0  0  0
  188.4910  178.3150  148.7260 C   0  0  0  0  0  1  0  0  0  0  0  0
  189.2190  177.6440  138.4840 C   0  0  0  0  0  2  0  0  0  0  0  0
  189.1920  177.0590  137.0800 C   0  0  0  0  0  2  0  0  0  0  0  0
  188.4410  177.9770  136.1270 C   0  0  0  0  0  2  0  0  0  0  0  0
  187.1140  177.3690  135.6960 C   0  0  1  0  0  3  0  0  0  0  0  0
  184.8630  177.0170  136.5080 C   0  0  1  0  0  0  0  0  0  0  0  0
  182.4350  176.8170  135.7920 C   0  0  0  0  0  2  0  0  0  0  0  0
  187.0280  175.9350  136.1560 C   0  0  0  0  0  2  0  0  0  0  0  0
  181.9470  177.7520  136.9050 C   0  0  1  0  0  3  0  0  0  0  0  0
  184.2200  177.1290  137.9000 C   0  0  0  0  0  2  0  0  0  0  0  0
  185.5510  175.6660  136.3820 C   0  0  0  0  0  2  0  0  0  0  0  0
  183.8540  177.1760  135.3590 C   0  0  0  0  0  2  0  0  0  0  0  0
  185.9480  178.0680  136.3620 C   0  0  0  0  0  2  0  0  0  0  0  0
  183.0560  178.1240  137.9130 C   0  0  2  0  0  3  0  0  0  0  0  0
  182.3510  177.2290  140.0210 O   0  0  0  0  0  1  0  0  0  0  0  0
  182.5030  178.2480  139.2960 C   0  0  0  0  0  0  0  0  0  0  0  0
  182.1580  179.4990  139.7860 O   0  0  0  0  0  0  0  0  0  0  0  0
  181.3580  179.0080  136.2830 C   0  0  0  0  0  2  0  0  0  0  0  0
  179.7970  179.4540  137.1020 S   0  0  0  0  0  0  0  0  0  0  0  0
  179.4610  181.8340  135.7320 C   0  0  0  0  0  3  0  0  0  0  0  0
  180.8650  181.9350  137.7060 C   0  0  0  0  0  3  0  0  0  0  0  0
  179.6670  183.2000  135.5160 C   0  0  0  0  0  3  0  0  0  0  0  0
  181.0700  183.3020  137.4890 C   0  0  0  0  0  3  0  0  0  0  0  0
  180.0630  181.2010  136.8250 C   0  0  0  0  0  0  0  0  0  0  0  0
  180.4710  183.9350  136.3950 C   0  0  0  0  0  3  0  0  0  0  0  0
  1  4  1  0  0  0  0
  2  1  2  0  0  0  0
  4  3  2  0  0  0  0
  4  5  1  0  0  0  0
  5  6  1  6  0  0  0
  5 17  1  0  0  0  0
  6  7  1  0  0  0  0
  7  8  1  0  0  0  0
  8  9  1  0  0  0  0
  9 10  1  0  0  0  0
 10 11  1  1  0  0  0
 13 12  1  0  0  0  0
 14 10  1  6  0  0  0
 14 13  1  0  0  0  0
 14 12  1  0  0  0  0
 15 16  2  0  0  0  0
 15 10  1  0  0  0  0
 18 17  1  6  0  0  0
 18 22  1  0  0  0  0
 21 18  1  0  0  0  0
 21 19  1  0  0  0  0
 21 20  1  0  0  0  0
 22 23  1  0  0  0  0
 23 25  1  0  0  0  0
 25 24  1  6  0  0  0
 25 26  1  0  0  0  0
 26 27  1  0  0  0  0
 28  1  1  0  0  0  0
 29 28  1  0  0  0  0
 30 29  1  0  0  0  0
 31 30  1  1  0  0  0
 31 34  1  0  0  0  0
 31 39  1  0  0  0  0
 32 38  1  6  0  0  0
 32 36  1  0  0  0  0
 33 35  1  0  0  0  0
 34 37  1  0  0  0  0
 35 44  1  6  0  0  0
 35 40  1  0  0  0  0
 36 40  1  0  0  0  0
 37 32  1  0  0  0  0
 38 33  1  0  0  0  0
 39 32  1  0  0  0  0
 40 42  1  1  0  0  0
 42 43  2  0  0  0  0
 42 41  1  0  0  0  0
 44 45  1  0  0  0  0
 46 50  1  0  0  0  0
 48 46  2  0  0  0  0
 48 51  1  0  0  0  0
 49 47  1  0  0  0  0
 50 45  1  0  0  0  0
 50 47  2  0  0  0  0
 51 49  2  0  0  0  0
M  END
>  <MODEL>
5

>  <REMARK>
 VINA RESULT:      -5.3      2.975      7.103
  Name = 
  24 active torsions:
  status: ('A' for Active; 'I' for Inactive)
    1  A    between atoms: C_1  and  C_7
    2  A    between atoms: C_4  and  C_35
    3  A    between atoms: C_6  and  C_10
    4  A    between atoms: C_6  and  C_31
    5  A    between atoms: C_7  and  C_16
    6  A    between atoms: C_7  and  C_45
    7  A    between atoms: C_9  and  C_10
    8  A    between atoms: C_9  and  C_35
    9  A    between atoms: C_11  and  C_42
   10  A    between atoms: S_12  and  C_13
   11  A    between atoms: S_12  and  C_27
   12  A    between atoms: C_13  and  C_31
   13  A    between atoms: C_13  and  C_34
   14  A    between atoms: C_16  and  C_29
   15  A    between atoms: C_18  and  O_33
   16  A    between atoms: C_18  and  C_44
   17  A    between atoms: C_20  and  C_28
   18  A    between atoms: N_25  and  C_27
   19  A    between atoms: N_25  and  C_44
   20  A    between atoms: C_27  and  P_49
   21  A    between atoms: C_28  and  S_43
   22  A    between atoms: C_29  and  N_51
   23  A    between atoms: C_34  and  N_51
   24  A    between atoms: S_43  and  C_48
                            x       y       z     vdW  Elec       q    Type
                         _______ _______ _______ _____ _____    ______ ____

>  <TORSDO>
F 24

$$$$
=
 OpenBabel11062412363D

 51 54  0  0  1  0  0  0  0  0999 V2000
  186.3380  178.4850  142.2680 C   0  0  0  0  0  0  0  0  0  0  0  0
  186.7640  177.4500  142.9830 C   0  0  0  0  0  2  0  0  0  0  0  0
  185.7950  178.9730  140.0070 O   0  0  0  0  0  0  0  0  0  0  0  0
  186.6720  178.5950  140.8350 C   0  0  0  0  0  0  0  0  0  0  0  0
  188.0620  178.2920  140.3600 C   0  0  1  0  0  3  0  0  0  0  0  0
  189.0730  178.3890  141.4940 C   0  0  0  0  0  2  0  0  0  0  0  0
  189.7130  177.0990  141.7020 N   0  0  0  0  0  2  0  0  0  0  0  0
  190.8490  177.3280  142.5830 C   0  0  0  0  0  2  0  0  0  0  0  0
  190.6690  176.5320  143.8730 C   0  0  0  0  0  2  0  0  0  0  0  0
  190.4380  177.4270  145.0910 C   0  0  2  0  0  0  0  0  0  0  0  0
  190.3530  178.7680  144.6810 O   0  0  0  0  0  1  0  0  0  0  0  0
  191.9020  175.8260  146.1880 O   0  0  0  0  0  0  0  0  0  0  0  0
  191.2090  176.4100  147.2680 C   0  0  0  0  0  2  0  0  0  0  0  0
  191.6020  177.1980  146.0740 C   0  0  2  0  0  3  0  0  0  0  0  0
  189.1550  177.0340  145.7640 C   0  0  0  0  0  3  0  0  0  0  0  0
  188.2860  177.8630  145.9960 O   0  0  0  0  0  0  0  0  0  0  0  0
  188.1210  176.6420  139.5980 S   0  0  0  0  0  0  0  0  0  0  0  0
  189.0000  177.2330  138.1170 C   0  0  1  0  0  3  0  0  0  0  0  0
  188.9900  179.7960  137.3450 O   0  0  0  0  0  1  0  0  0  0  0  0
  188.4620  177.9850  135.6130 O   0  0  0  0  0  1  0  0  0  0  0  0
  187.9160  178.4370  137.1980 P   0  0  0  0  0  0  0  0  0  0  0  0
  190.2360  177.8900  138.5110 N   0  0  0  0  0  2  0  0  0  0  0  0
  191.2850  176.8810  138.4500 C   0  0  0  0  0  2  0  0  0  0  0  0
  191.8980  176.0150  136.3030 O   0  0  0  0  0  1  0  0  0  0  0  0
  190.9910  175.8650  137.3550 C   0  0  1  0  0  3  0  0  0  0  0  0
  191.0670  174.5670  137.8640 O   0  0  0  0  0  0  0  0  0  0  0  0
  190.3780  173.7770  136.9390 C   0  0  0  0  0  1  0  0  0  0  0  0
  185.4260  179.4740  142.9140 C   0  0  0  0  0  2  0  0  0  0  0  0
  184.6830  178.8230  144.0700 C   0  0  0  0  0  2  0  0  0  0  0  0
  183.2650  179.3630  144.1740 C   0  0  0  0  0  2  0  0  0  0  0  0
  182.2920  178.5450  143.3370 C   0  0  1  0  0  3  0  0  0  0  0  0
  180.8340  178.7580  141.4190 C   0  0  1  0  0  0  0  0  0  0  0  0
  179.8290  177.4940  139.4600 C   0  0  0  0  0  2  0  0  0  0  0  0
  180.8880  178.7140  143.8630 C   0  0  0  0  0  2  0  0  0  0  0  0
  180.1510  178.6160  138.4670 C   0  0  1  0  0  3  0  0  0  0  0  0
  180.3040  179.9680  140.6330 C   0  0  0  0  0  2  0  0  0  0  0  0
  179.9780  178.5530  142.6590 C   0  0  0  0  0  2  0  0  0  0  0  0
  180.8460  177.4590  140.5970 C   0  0  0  0  0  2  0  0  0  0  0  0
  182.2400  179.0470  141.9090 C   0  0  0  0  0  2  0  0  0  0  0  0
  180.6790  179.8960  139.1510 C   0  0  2  0  0  3  0  0  0  0  0  0
  180.8130  181.5590  137.4310 O   0  0  0  0  0  0  0  0  0  0  0  0
  180.1990  181.1200  138.4400 C   0  0  0  0  0  0  0  0  0  0  0  0
  179.0640  181.7760  138.8940 O   0  0  0  0  0  1  0  0  0  0  0  0
  181.1590  178.1100  137.4470 C   0  0  0  0  0  2  0  0  0  0  0  0
  182.8500  178.5570  137.9450 S   0  0  0  0  0  0  0  0  0  0  0  0
  184.2980  176.8780  136.2890 C   0  0  0  0  0  3  0  0  0  0  0  0
  183.2180  175.8240  138.1870 C   0  0  0  0  0  3  0  0  0  0  0  0
  184.8080  175.6390  135.8910 C   0  0  0  0  0  3  0  0  0  0  0  0
  183.7300  174.5850  137.7890 C   0  0  0  0  0  3  0  0  0  0  0  0
  183.5010  176.9710  137.4360 C   0  0  0  0  0  0  0  0  0  0  0  0
  184.5250  174.4920  136.6410 C   0  0  0  0  0  3  0  0  0  0  0  0
  1 28  1  0  0  0  0
  1  2  2  0  0  0  0
  3  4  2  0  0  0  0
  4  1  1  0  0  0  0
  5  4  1  0  0  0  0
  5  6  1  1  0  0  0
  6  7  1  0  0  0  0
  7  8  1  0  0  0  0
  8  9  1  0  0  0  0
  9 10  1  0  0  0  0
 10 11  1  6  0  0  0
 10 15  1  0  0  0  0
 12 13  1  0  0  0  0
 14 10  1  6  0  0  0
 14 12  1  0  0  0  0
 14 13  1  0  0  0  0
 15 16  2  0  0  0  0
 17  5  1  0  0  0  0
 18 22  1  1  0  0  0
 18 17  1  0  0  0  0
 20 21  1  0  0  0  0
 21 19  1  0  0  0  0
 21 18  1  0  0  0  0
 23 22  1  0  0  0  0
 25 24  1  6  0  0  0
 25 26  1  0  0  0  0
 25 23  1  0  0  0  0
 27 26  1  0  0  0  0
 28 29  1  0  0  0  0
 29 30  1  0  0  0  0
 31 34  1  0  0  0  0
 31 30  1  1  0  0  0
 32 38  1  6  0  0  0
 32 39  1  0  0  0  0
 32 37  1  0  0  0  0
 33 38  1  0  0  0  0
 35 44  1  6  0  0  0
 35 40  1  0  0  0  0
 35 33  1  0  0  0  0
 36 32  1  0  0  0  0
 37 34  1  0  0  0  0
 39 31  1  0  0  0  0
 40 42  1  6  0  0  0
 40 36  1  0  0  0  0
 41 42  2  0  0  0  0
 42 43  1  0  0  0  0
 44 45  1  0  0  0  0
 46 50  1  0  0  0  0
 48 46  2  0  0  0  0
 48 51  1  0  0  0  0
 49 47  1  0  0  0  0
 50 45  1  0  0  0  0
 50 47  2  0  0  0  0
 51 49  2  0  0  0  0
M  END
>  <MODEL>
6

>  <REMARK>
 VINA RESULT:      -5.1      2.456      5.689
  Name = 
  24 active torsions:
  status: ('A' for Active; 'I' for Inactive)
    1  A    between atoms: C_1  and  C_7
    2  A    between atoms: C_4  and  C_35
    3  A    between atoms: C_6  and  C_10
    4  A    between atoms: C_6  and  C_31
    5  A    between atoms: C_7  and  C_16
    6  A    between atoms: C_7  and  C_45
    7  A    between atoms: C_9  and  C_10
    8  A    between atoms: C_9  and  C_35
    9  A    between atoms: C_11  and  C_42
   10  A    between atoms: S_12  and  C_13
   11  A    between atoms: S_12  and  C_27
   12  A    between atoms: C_13  and  C_31
   13  A    between atoms: C_13  and  C_34
   14  A    between atoms: C_16  and  C_29
   15  A    between atoms: C_18  and  O_33
   16  A    between atoms: C_18  and  C_44
   17  A    between atoms: C_20  and  C_28
   18  A    between atoms: N_25  and  C_27
   19  A    between atoms: N_25  and  C_44
   20  A    between atoms: C_27  and  P_49
   21  A    between atoms: C_28  and  S_43
   22  A    between atoms: C_29  and  N_51
   23  A    between atoms: C_34  and  N_51
   24  A    between atoms: S_43  and  C_48
                            x       y       z     vdW  Elec       q    Type
                         _______ _______ _______ _____ _____    ______ ____

>  <TORSDO>
F 24

$$$$
=
 OpenBabel11062412363D

 51 54  0  0  1  0  0  0  0  0999 V2000
  191.3960  176.6830  138.0710 C   0  0  0  0  0  0  0  0  0  0  0  0
  190.5350  177.3140  137.2810 C   0  0  0  0  0  2  0  0  0  0  0  0
  193.7230  176.7550  137.5990 O   0  0  0  0  0  0  0  0  0  0  0  0
  192.6400  176.1110  137.5200 C   0  0  0  0  0  0  0  0  0  0  0  0
  192.6290  174.7480  136.8930 C   0  0  1  0  0  3  0  0  0  0  0  0
  191.2750  174.4300  136.2740 C   0  0  0  0  0  2  0  0  0  0  0  0
  190.4530  173.6960  137.2250 N   0  0  0  0  0  2  0  0  0  0  0  0
  189.1660  173.4680  136.5840 C   0  0  0  0  0  2  0  0  0  0  0  0
  188.1880  174.5670  136.9890 C   0  0  0  0  0  2  0  0  0  0  0  0
  186.7840  174.3450  136.4230 C   0  0  2  0  0  0  0  0  0  0  0  0
  185.9140  173.9600  137.4560 O   0  0  0  0  0  1  0  0  0  0  0  0
  185.6530  173.1300  134.6460 O   0  0  0  0  0  0  0  0  0  0  0  0
  185.9910  172.1100  135.5600 C   0  0  0  0  0  2  0  0  0  0  0  0
  186.8820  173.2720  135.3210 C   0  0  2  0  0  3  0  0  0  0  0  0
  186.2850  175.6210  135.8080 C   0  0  0  0  0  3  0  0  0  0  0  0
  186.8960  176.1620  134.8970 O   0  0  0  0  0  0  0  0  0  0  0  0
  193.9440  174.6190  135.6430 S   0  0  0  0  0  0  0  0  0  0  0  0
  194.8270  173.3060  136.5450 C   0  0  1  0  0  3  0  0  0  0  0  0
  195.2220  171.1960  134.9460 O   0  0  0  0  0  1  0  0  0  0  0  0
  194.8170  170.7920  137.4420 O   0  0  0  0  0  1  0  0  0  0  0  0
  194.0530  171.6600  136.1460 P   0  0  0  0  0  0  0  0  0  0  0  0
  196.2260  173.2970  136.1500 N   0  0  0  0  0  2  0  0  0  0  0  0
  196.7400  174.6370  136.4020 C   0  0  0  0  0  2  0  0  0  0  0  0
  199.0130  175.1690  136.9360 O   0  0  0  0  0  1  0  0  0  0  0  0
  197.8440  174.6020  137.4490 C   0  0  1  0  0  3  0  0  0  0  0  0
  197.4480  175.2940  138.5960 O   0  0  0  0  0  0  0  0  0  0  0  0
  196.4740  174.4820  139.1870 C   0  0  0  0  0  1  0  0  0  0  0  0
  191.1360  176.6610  139.5410 C   0  0  0  0  0  2  0  0  0  0  0  0
  192.0690  177.6300  140.2500 C   0  0  0  0  0  2  0  0  0  0  0  0
  191.8300  177.6090  141.7520 C   0  0  0  0  0  2  0  0  0  0  0  0
  190.4400  177.0900  142.0900 C   0  0  1  0  0  3  0  0  0  0  0  0
  188.9370  176.8480  143.9700 C   0  0  1  0  0  0  0  0  0  0  0  0
  186.4890  176.8070  144.6420 C   0  0  0  0  0  2  0  0  0  0  0  0
  190.5200  175.6520  142.5400 C   0  0  0  0  0  2  0  0  0  0  0  0
  186.7190  177.7400  145.8360 C   0  0  1  0  0  3  0  0  0  0  0  0
  189.1310  176.9630  145.4900 C   0  0  0  0  0  2  0  0  0  0  0  0
  189.3700  175.4630  143.5130 C   0  0  0  0  0  2  0  0  0  0  0  0
  187.4860  177.0940  143.5230 C   0  0  0  0  0  2  0  0  0  0  0  0
  189.8460  177.8380  143.2640 C   0  0  0  0  0  2  0  0  0  0  0  0
  188.2130  178.0220  146.1050 C   0  0  2  0  0  3  0  0  0  0  0  0
  189.6600  178.1990  148.0060 O   0  0  0  0  0  0  0  0  0  0  0  0
  188.4790  178.1440  147.5710 C   0  0  0  0  0  0  0  0  0  0  0  0
  187.4150  178.2000  148.4590 O   0  0  0  0  0  1  0  0  0  0  0  0
  185.9700  179.0430  145.6060 C   0  0  0  0  0  2  0  0  0  0  0  0
  184.2070  178.8460  146.0080 S   0  0  0  0  0  0  0  0  0  0  0  0
  182.3990  178.7560  143.9150 C   0  0  0  0  0  3  0  0  0  0  0  0
  184.7410  178.6110  143.3020 C   0  0  0  0  0  3  0  0  0  0  0  0
  182.0410  178.6650  142.5670 C   0  0  0  0  0  3  0  0  0  0  0  0
  184.3810  178.5200  141.9530 C   0  0  0  0  0  3  0  0  0  0  0  0
  183.7500  178.7270  144.2830 C   0  0  0  0  0  0  0  0  0  0  0  0
  183.0310  178.5470  141.5850 C   0  0  0  0  0  3  0  0  0  0  0  0
  1 28  1  0  0  0  0
  2  1  2  0  0  0  0
  4  3  2  0  0  0  0
  4  1  1  0  0  0  0
  5  6  1  6  0  0  0
  5  4  1  0  0  0  0
  6  7  1  0  0  0  0
  8  9  1  0  0  0  0
  8  7  1  0  0  0  0
 10  9  1  0  0  0  0
 10 11  1  1  0  0  0
 12 14  1  0  0  0  0
 12 13  1  0  0  0  0
 14 13  1  0  0  0  0
 14 10  1  1  0  0  0
 15 10  1  0  0  0  0
 16 15  2  0  0  0  0
 17  5  1  0  0  0  0
 18 17  1  6  0  0  0
 19 21  1  0  0  0  0
 21 18  1  0  0  0  0
 21 20  1  0  0  0  0
 22 23  1  0  0  0  0
 22 18  1  0  0  0  0
 23 25  1  0  0  0  0
 25 24  1  6  0  0  0
 25 26  1  0  0  0  0
 26 27  1  0  0  0  0
 28 29  1  0  0  0  0
 29 30  1  0  0  0  0
 31 30  1  1  0  0  0
 31 34  1  0  0  0  0
 31 39  1  0  0  0  0
 32 39  1  6  0  0  0
 32 36  1  0  0  0  0
 33 35  1  0  0  0  0
 34 37  1  0  0  0  0
 35 44  1  6  0  0  0
 35 40  1  0  0  0  0
 36 40  1  0  0  0  0
 37 32  1  0  0  0  0
 38 32  1  0  0  0  0
 38 33  1  0  0  0  0
 40 42  1  1  0  0  0
 42 41  2  0  0  0  0
 42 43  1  0  0  0  0
 44 45  1  0  0  0  0
 46 50  1  0  0  0  0
 47 50  2  0  0  0  0
 48 46  2  0  0  0  0
 49 47  1  0  0  0  0
 50 45  1  0  0  0  0
 51 49  2  0  0  0  0
 51 48  1  0  0  0  0
M  END
>  <MODEL>
7

>  <REMARK>
 VINA RESULT:      -4.8      3.294      6.268
  Name = 
  24 active torsions:
  status: ('A' for Active; 'I' for Inactive)
    1  A    between atoms: C_1  and  C_7
    2  A    between atoms: C_4  and  C_35
    3  A    between atoms: C_6  and  C_10
    4  A    between atoms: C_6  and  C_31
    5  A    between atoms: C_7  and  C_16
    6  A    between atoms: C_7  and  C_45
    7  A    between atoms: C_9  and  C_10
    8  A    between atoms: C_9  and  C_35
    9  A    between atoms: C_11  and  C_42
   10  A    between atoms: S_12  and  C_13
   11  A    between atoms: S_12  and  C_27
   12  A    between atoms: C_13  and  C_31
   13  A    between atoms: C_13  and  C_34
   14  A    between atoms: C_16  and  C_29
   15  A    between atoms: C_18  and  O_33
   16  A    between atoms: C_18  and  C_44
   17  A    between atoms: C_20  and  C_28
   18  A    between atoms: N_25  and  C_27
   19  A    between atoms: N_25  and  C_44
   20  A    between atoms: C_27  and  P_49
   21  A    between atoms: C_28  and  S_43
   22  A    between atoms: C_29  and  N_51
   23  A    between atoms: C_34  and  N_51
   24  A    between atoms: S_43  and  C_48
                            x       y       z     vdW  Elec       q    Type
                         _______ _______ _______ _____ _____    ______ ____

>  <TORSDO>
F 24

$$$$
=
 OpenBabel11062412363D

 51 54  0  0  1  0  0  0  0  0999 V2000
  187.9560  178.6680  140.8810 C   0  0  0  0  0  0  0  0  0  0  0  0
  188.6110  179.3640  141.8030 C   0  0  0  0  0  2  0  0  0  0  0  0
  188.1020  177.4860  138.8250 O   0  0  0  0  0  0  0  0  0  0  0  0
  188.6900  177.8810  139.8710 C   0  0  0  0  0  0  0  0  0  0  0  0
  190.1450  177.5760  140.0670 C   0  0  1  0  0  3  0  0  0  0  0  0
  190.5200  177.5690  141.5430 C   0  0  0  0  0  2  0  0  0  0  0  0
  190.5570  176.2020  142.0400 N   0  0  0  0  0  2  0  0  0  0  0  0
  190.5660  176.2810  143.4940 C   0  0  0  0  0  2  0  0  0  0  0  0
  189.1390  176.4460  144.0090 C   0  0  0  0  0  2  0  0  0  0  0  0
  189.0570  177.3490  145.2410 C   0  0  2  0  0  0  0  0  0  0  0  0
  189.5820  178.6150  144.9340 O   0  0  0  0  0  1  0  0  0  0  0  0
  189.0270  176.5260  147.5290 O   0  0  0  0  0  0  0  0  0  0  0  0
  190.0120  177.5350  147.5700 C   0  0  0  0  0  2  0  0  0  0  0  0
  189.8350  176.6640  146.3820 C   0  0  2  0  0  3  0  0  0  0  0  0
  187.6220  177.4970  145.6580 C   0  0  0  0  0  3  0  0  0  0  0  0
  187.0860  178.5960  145.6890 O   0  0  0  0  0  0  0  0  0  0  0  0
  190.5630  175.9800  139.3000 S   0  0  0  0  0  0  0  0  0  0  0  0
  191.5760  176.7460  137.9940 C   0  0  1  0  0  3  0  0  0  0  0  0
  193.9290  176.9620  136.7370 O   0  0  0  0  0  1  0  0  0  0  0  0
  193.9090  176.7630  139.2900 O   0  0  0  0  0  1  0  0  0  0  0  0
  193.2380  175.9080  137.9360 P   0  0  0  0  0  0  0  0  0  0  0  0
  190.9100  176.6010  136.7100 N   0  0  0  0  0  2  0  0  0  0  0  0
  190.1030  175.3900  136.7910 C   0  0  0  0  0  2  0  0  0  0  0  0
  189.4440  174.0390  134.9270 O   0  0  0  0  0  1  0  0  0  0  0  0
  189.2080  175.2580  135.5670 C   0  0  1  0  0  3  0  0  0  0  0  0
  187.8640  175.3450  135.9370 O   0  0  0  0  0  0  0  0  0  0  0  0
  187.4110  176.5410  135.3710 C   0  0  0  0  0  1  0  0  0  0  0  0
  186.4660  178.6080  140.9540 C   0  0  0  0  0  2  0  0  0  0  0  0
  186.0260  178.2620  142.3680 C   0  0  0  0  0  2  0  0  0  0  0  0
  184.7820  179.0480  142.7550 C   0  0  0  0  0  2  0  0  0  0  0  0
  183.5110  178.3340  142.3200 C   0  0  1  0  0  3  0  0  0  0  0  0
  181.7880  178.4430  140.6260 C   0  0  1  0  0  0  0  0  0  0  0  0
  180.1690  177.0440  139.2580 C   0  0  0  0  0  2  0  0  0  0  0  0
  182.3080  178.9880  142.9530 C   0  0  0  0  0  2  0  0  0  0  0  0
  180.5270  177.7630  137.9520 C   0  0  1  0  0  3  0  0  0  0  0  0
  181.3890  179.5170  139.6020 C   0  0  0  0  0  2  0  0  0  0  0  0
  181.1670  178.7800  141.9730 C   0  0  0  0  0  2  0  0  0  0  0  0
  181.3580  177.0250  140.2160 C   0  0  0  0  0  2  0  0  0  0  0  0
  183.2910  178.4640  140.8280 C   0  0  0  0  0  2  0  0  0  0  0  0
  181.4430  178.9880  138.1670 C   0  0  2  0  0  3  0  0  0  0  0  0
  181.1890  179.8870  135.9610 O   0  0  0  0  0  0  0  0  0  0  0  0
  181.1100  180.0800  137.2040 C   0  0  0  0  0  0  0  0  0  0  0  0
  180.7080  181.3180  137.6840 O   0  0  0  0  0  1  0  0  0  0  0  0
  181.1820  176.7760  136.9990 C   0  0  0  0  0  2  0  0  0  0  0  0
  182.9930  176.8680  137.1310 S   0  0  0  0  0  0  0  0  0  0  0  0
  184.4260  174.5030  137.2590 C   0  0  0  0  0  3  0  0  0  0  0  0
  182.0180  174.2770  137.0840 C   0  0  0  0  0  3  0  0  0  0  0  0
  184.5550  173.1120  137.2810 C   0  0  0  0  0  3  0  0  0  0  0  0
  182.1480  172.8850  137.1080 C   0  0  0  0  0  3  0  0  0  0  0  0
  183.1570  175.0860  137.1580 C   0  0  0  0  0  0  0  0  0  0  0  0
  183.4160  172.3010  137.2070 C   0  0  0  0  0  3  0  0  0  0  0  0
  1 28  1  0  0  0  0
  1  2  2  0  0  0  0
  3  4  2  0  0  0  0
  4  5  1  0  0  0  0
  4  1  1  0  0  0  0
  5  6  1  1  0  0  0
  6  7  1  0  0  0  0
  7  8  1  0  0  0  0
  8  9  1  0  0  0  0
  9 10  1  0  0  0  0
 10 11  1  6  0  0  0
 10 15  1  0  0  0  0
 12 13  1  0  0  0  0
 14 10  1  6  0  0  0
 14 12  1  0  0  0  0
 14 13  1  0  0  0  0
 15 16  2  0  0  0  0
 17  5  1  0  0  0  0
 18 22  1  6  0  0  0
 18 17  1  0  0  0  0
 19 21  1  0  0  0  0
 21 18  1  0  0  0  0
 21 20  1  0  0  0  0
 22 23  1  0  0  0  0
 25 24  1  1  0  0  0
 25 26  1  0  0  0  0
 25 23  1  0  0  0  0
 27 26  1  0  0  0  0
 28 29  1  0  0  0  0
 29 30  1  0  0  0  0
 31 30  1  1  0  0  0
 31 34  1  0  0  0  0
 32 36  1  6  0  0  0
 32 39  1  0  0  0  0
 32 37  1  0  0  0  0
 33 38  1  0  0  0  0
 35 44  1  6  0  0  0
 35 40  1  0  0  0  0
 35 33  1  0  0  0  0
 37 34  1  0  0  0  0
 38 32  1  0  0  0  0
 39 31  1  0  0  0  0
 40 42  1  6  0  0  0
 40 36  1  0  0  0  0
 41 42  2  0  0  0  0
 42 43  1  0  0  0  0
 44 45  1  0  0  0  0
 45 50  1  0  0  0  0
 46 48  1  0  0  0  0
 47 49  2  0  0  0  0
 47 50  1  0  0  0  0
 49 51  1  0  0  0  0
 50 46  2  0  0  0  0
 51 48  2  0  0  0  0
M  END
>  <MODEL>
8

>  <REMARK>
 VINA RESULT:      -4.8      2.516      5.421
  Name = 
  24 active torsions:
  status: ('A' for Active; 'I' for Inactive)
    1  A    between atoms: C_1  and  C_7
    2  A    between atoms: C_4  and  C_35
    3  A    between atoms: C_6  and  C_10
    4  A    between atoms: C_6  and  C_31
    5  A    between atoms: C_7  and  C_16
    6  A    between atoms: C_7  and  C_45
    7  A    between atoms: C_9  and  C_10
    8  A    between atoms: C_9  and  C_35
    9  A    between atoms: C_11  and  C_42
   10  A    between atoms: S_12  and  C_13
   11  A    between atoms: S_12  and  C_27
   12  A    between atoms: C_13  and  C_31
   13  A    between atoms: C_13  and  C_34
   14  A    between atoms: C_16  and  C_29
   15  A    between atoms: C_18  and  O_33
   16  A    between atoms: C_18  and  C_44
   17  A    between atoms: C_20  and  C_28
   18  A    between atoms: N_25  and  C_27
   19  A    between atoms: N_25  and  C_44
   20  A    between atoms: C_27  and  P_49
   21  A    between atoms: C_28  and  S_43
   22  A    between atoms: C_29  and  N_51
   23  A    between atoms: C_34  and  N_51
   24  A    between atoms: S_43  and  C_48
                            x       y       z     vdW  Elec       q    Type
                         _______ _______ _______ _____ _____    ______ ____

>  <TORSDO>
F 24

$$$$
=
 OpenBabel11062412363D

 51 54  0  0  1  0  0  0  0  0999 V2000
  187.0560  178.2500  139.3210 C   0  0  0  0  0  0  0  0  0  0  0  0
  188.3130  178.1890  139.7450 C   0  0  0  0  0  2  0  0  0  0  0  0
  185.0710  179.4880  139.7370 O   0  0  0  0  0  0  0  0  0  0  0  0
  185.9890  178.7580  140.2060 C   0  0  0  0  0  0  0  0  0  0  0  0
  185.9740  178.3850  141.6580 C   0  0  1  0  0  3  0  0  0  0  0  0
  187.3830  178.3130  142.2310 C   0  0  0  0  0  2  0  0  0  0  0  0
  187.5410  177.0950  143.0110 N   0  0  0  0  0  2  0  0  0  0  0  0
  188.5580  177.3670  144.0170 C   0  0  0  0  0  2  0  0  0  0  0  0
  189.5820  176.2350  144.0320 C   0  0  0  0  0  2  0  0  0  0  0  0
  191.0100  176.7340  144.2590 C   0  0  2  0  0  0  0  0  0  0  0  0
  191.9030  175.6520  144.2040 O   0  0  0  0  0  1  0  0  0  0  0  0
  191.9590  176.8120  146.4960 O   0  0  0  0  0  0  0  0  0  0  0  0
  190.5880  176.5890  146.7420 C   0  0  0  0  0  2  0  0  0  0  0  0
  191.0510  177.4470  145.6250 C   0  0  2  0  0  3  0  0  0  0  0  0
  191.3680  177.7250  143.1890 C   0  0  0  0  0  3  0  0  0  0  0  0
  191.3880  177.3980  142.0100 O   0  0  0  0  0  0  0  0  0  0  0  0
  184.9650  179.5680  142.6030 S   0  0  0  0  0  0  0  0  0  0  0  0
  184.2390  178.2760  143.6620 C   0  0  1  0  0  3  0  0  0  0  0  0
  185.7020  179.9380  145.1650 O   0  0  0  0  0  1  0  0  0  0  0  0
  183.6090  178.8730  146.1860 O   0  0  0  0  0  1  0  0  0  0  0  0
  185.0330  178.3440  145.3450 P   0  0  0  0  0  0  0  0  0  0  0  0
  182.8070  178.4940  143.7860 N   0  0  0  0  0  2  0  0  0  0  0  0
  182.3450  178.9890  142.4960 C   0  0  0  0  0  2  0  0  0  0  0  0
  180.4790  180.4580  142.8070 O   0  0  0  0  0  1  0  0  0  0  0  0
  180.8310  179.1440  142.4900 C   0  0  1  0  0  3  0  0  0  0  0  0
  180.3130  178.8050  141.2380 O   0  0  0  0  0  0  0  0  0  0  0  0
  180.0250  177.4400  141.3250 C   0  0  0  0  0  1  0  0  0  0  0  0
  186.7600  177.8990  137.9010 C   0  0  0  0  0  2  0  0  0  0  0  0
  187.5890  176.6970  137.4760 C   0  0  0  0  0  2  0  0  0  0  0  0
  186.7070  175.4730  137.2830 C   0  0  0  0  0  2  0  0  0  0  0  0
  185.5040  175.7840  136.4040 C   0  0  1  0  0  3  0  0  0  0  0  0
  183.1290  175.3490  136.2570 C   0  0  1  0  0  0  0  0  0  0  0  0
  180.9150  176.3140  135.4730 C   0  0  0  0  0  2  0  0  0  0  0  0
  185.3150  174.6910  135.3800 C   0  0  0  0  0  2  0  0  0  0  0  0
  180.1990  175.9380  136.7750 C   0  0  1  0  0  3  0  0  0  0  0  0
  182.1990  174.3540  136.9680 C   0  0  0  0  0  2  0  0  0  0  0  0
  183.8240  174.6460  135.1010 C   0  0  0  0  0  2  0  0  0  0  0  0
  182.3960  176.5900  135.7220 C   0  0  0  0  0  2  0  0  0  0  0  0
  184.2230  175.7940  137.2100 C   0  0  0  0  0  2  0  0  0  0  0  0
  181.0630  175.0640  137.7100 C   0  0  2  0  0  3  0  0  0  0  0  0
  179.4340  174.4320  139.3490 O   0  0  0  0  0  1  0  0  0  0  0  0
  180.2220  174.0650  138.4370 C   0  0  0  0  0  0  0  0  0  0  0  0
  180.3090  172.7220  138.1020 O   0  0  0  0  0  0  0  0  0  0  0  0
  179.7640  177.2060  137.4920 C   0  0  0  0  0  2  0  0  0  0  0  0
  179.2020  178.4550  136.2960 S   0  0  0  0  0  0  0  0  0  0  0  0
  179.8310  181.0930  136.8440 C   0  0  0  0  0  3  0  0  0  0  0  0
  181.1830  179.4240  137.9700 C   0  0  0  0  0  3  0  0  0  0  0  0
  180.5640  182.1070  137.4680 C   0  0  0  0  0  3  0  0  0  0  0  0
  181.9140  180.4390  138.5950 C   0  0  0  0  0  3  0  0  0  0  0  0
  180.1420  179.7510  137.0930 C   0  0  0  0  0  0  0  0  0  0  0  0
  181.6060  181.7800  138.3450 C   0  0  0  0  0  3  0  0  0  0  0  0
  1  2  2  0  0  0  0
  1  4  1  0  0  0  0
  3  4  2  0  0  0  0
  4  5  1  0  0  0  0
  5  6  1  1  0  0  0
  5 17  1  0  0  0  0
  6  7  1  0  0  0  0
  7  8  1  0  0  0  0
  8  9  1  0  0  0  0
  9 10  1  0  0  0  0
 10 11  1  6  0  0  0
 12 13  1  0  0  0  0
 14 10  1  6  0  0  0
 14 12  1  0  0  0  0
 14 13  1  0  0  0  0
 15 10  1  0  0  0  0
 16 15  2  0  0  0  0
 18 17  1  6  0  0  0
 18 22  1  0  0  0  0
 18 21  1  0  0  0  0
 19 21  1  0  0  0  0
 21 20  1  0  0  0  0
 23 22  1  0  0  0  0
 25 23  1  0  0  0  0
 25 24  1  6  0  0  0
 26 27  1  0  0  0  0
 26 25  1  0  0  0  0
 28  1  1  0  0  0  0
 29 28  1  0  0  0  0
 30 29  1  0  0  0  0
 31 39  1  0  0  0  0
 31 30  1  1  0  0  0
 32 37  1  6  0  0  0
 32 36  1  0  0  0  0
 32 39  1  0  0  0  0
 33 38  1  0  0  0  0
 33 35  1  0  0  0  0
 34 31  1  0  0  0  0
 35 44  1  1  0  0  0
 35 40  1  0  0  0  0
 36 40  1  0  0  0  0
 37 34  1  0  0  0  0
 38 32  1  0  0  0  0
 40 42  1  6  0  0  0
 42 41  1  0  0  0  0
 43 42  2  0  0  0  0
 45 50  1  0  0  0  0
 45 44  1  0  0  0  0
 46 50  2  0  0  0  0
 46 48  1  0  0  0  0
 47 49  2  0  0  0  0
 48 51  2  0  0  0  0
 50 47  1  0  0  0  0
 51 49  1  0  0  0  0
M  END
>  <MODEL>
9

>  <REMARK>
 VINA RESULT:      -4.7      3.606      8.115
  Name = 
  24 active torsions:
  status: ('A' for Active; 'I' for Inactive)
    1  A    between atoms: C_1  and  C_7
    2  A    between atoms: C_4  and  C_35
    3  A    between atoms: C_6  and  C_10
    4  A    between atoms: C_6  and  C_31
    5  A    between atoms: C_7  and  C_16
    6  A    between atoms: C_7  and  C_45
    7  A    between atoms: C_9  and  C_10
    8  A    between atoms: C_9  and  C_35
    9  A    between atoms: C_11  and  C_42
   10  A    between atoms: S_12  and  C_13
   11  A    between atoms: S_12  and  C_27
   12  A    between atoms: C_13  and  C_31
   13  A    between atoms: C_13  and  C_34
   14  A    between atoms: C_16  and  C_29
   15  A    between atoms: C_18  and  O_33
   16  A    between atoms: C_18  and  C_44
   17  A    between atoms: C_20  and  C_28
   18  A    between atoms: N_25  and  C_27
   19  A    between atoms: N_25  and  C_44
   20  A    between atoms: C_27  and  P_49
   21  A    between atoms: C_28  and  S_43
   22  A    between atoms: C_29  and  N_51
   23  A    between atoms: C_34  and  N_51
   24  A    between atoms: S_43  and  C_48
                            x       y       z     vdW  Elec       q    Type
                         _______ _______ _______ _____ _____    ______ ____

>  <TORSDO>
F 24

$$$$
