=
 OpenBabel11062418143D

 59 64  0  0  1  0  0  0  0  0999 V2000
  188.6500  175.6730  137.4340 C   0  0  1  0  0  3  0  0  0  0  0  0
  188.7540  174.9060  135.0190 C   0  0  0  0  0  2  0  0  0  0  0  0
  190.5800  176.0900  135.9020 C   0  0  0  0  0  2  0  0  0  0  0  0
  189.9860  172.7550  135.0370 C   0  0  0  0  0  1  0  0  0  0  0  0
  189.0710  176.0130  135.9910 C   0  0  2  0  0  3  0  0  0  0  0  0
  190.0850  174.2410  134.7450 C   0  0  2  0  0  3  0  0  0  0  0  0
  191.0710  174.8180  135.5630 O   0  0  0  0  0  0  0  0  0  0  0  0
  189.6450  176.2130  138.4100 C   0  0  0  0  0  3  0  0  0  0  0  0
  189.3970  177.2670  139.1370 C   0  0  0  0  0  0  0  0  0  0  0  0
  189.1640  178.3130  139.8870 C   0  0  0  0  0  3  0  0  0  0  0  0
  186.2850  178.2560  142.3380 C   0  0  0  0  0  0  0  0  0  0  0  0
  188.3300  177.9350  143.5360 C   0  0  0  0  0  0  0  0  0  0  0  0
  188.3860  178.2330  141.1320 C   0  0  0  0  0  0  0  0  0  0  0  0
  189.0530  178.0320  142.3380 C   0  0  0  0  0  3  0  0  0  0  0  0
  186.9700  178.0490  143.5020 N   0  0  0  0  0  0  0  0  0  0  0  0
  186.9930  178.3340  141.1360 C   0  0  0  0  0  3  0  0  0  0  0  0
  188.4080  177.3080  145.9090 C   0  0  0  0  0  3  0  0  0  0  0  0
  189.4610  177.0550  147.3320 S   0  0  0  0  0  0  0  0  0  0  0  0
  190.4700  177.7270  144.9660 N   0  0  0  0  0  0  0  0  0  0  0  0
  189.0530  177.6630  144.8090 C   0  0  0  0  0  0  0  0  0  0  0  0
  190.9370  177.3200  146.2870 C   0  0  2  0  0  3  0  0  0  0  0  0
  191.3910  178.2680  143.9740 C   0  0  0  0  0  2  0  0  0  0  0  0
  191.3900  179.6620  144.0380 O   0  0  0  0  0  1  0  0  0  0  0  0
  192.3840  175.5650  147.2480 C   0  0  0  0  0  2  0  0  0  0  0  0
  191.6960  176.0310  146.2040 C   0  0  0  0  0  3  0  0  0  0  0  0
  184.8040  178.3400  142.3010 C   0  0  0  0  0  0  0  0  0  0  0  0
  184.0110  178.7260  143.4300 N   0  0  0  0  0  2  0  0  0  0  0  0
  184.2060  178.0530  141.2300 O   0  0  0  0  0  0  0  0  0  0  0  0
  184.5170  179.3070  144.6620 C   0  0  0  0  0  2  0  0  0  0  0  0
  183.7070  178.9220  145.7310 O   0  0  0  0  0  1  0  0  0  0  0  0
  187.2910  176.2620  137.8040 C   0  0  0  0  0  2  0  0  0  0  0  0
  186.8060  177.2610  136.7540 C   0  0  2  0  0  3  0  0  0  0  0  0
  185.8980  179.0310  138.0760 O   0  0  0  0  0  1  0  0  0  0  0  0
  187.7740  179.5820  136.8890 O   0  0  0  0  0  0  0  0  0  0  0  0
  186.7930  178.6700  137.2700 C   0  0  0  0  0  0  0  0  0  0  0  0
  185.4820  176.8760  136.1540 C   0  0  0  0  0  0  0  0  0  0  0  0
  185.0280  177.5600  135.1950 O   0  0  0  0  0  0  0  0  0  0  0  0
  184.7170  175.7670  136.6640 N   0  0  0  0  0  0  0  0  0  0  0  0
  184.8180  174.4880  136.0090 C   0  0  0  0  0  0  0  0  0  0  0  0
  185.4100  172.0550  136.0670 C   0  0  0  0  0  0  0  0  0  0  0  0
  184.2900  174.3480  134.6120 C   0  0  0  0  0  2  0  0  0  0  0  0
  183.1530  172.1680  134.9400 C   0  0  0  0  0  0  0  0  0  0  0  0
  186.0190  173.6250  137.8550 O   0  0  0  0  0  1  0  0  0  0  0  0
  186.5070  171.2540  136.3570 O   0  0  0  0  0  1  0  0  0  0  0  0
  183.0930  173.4560  134.5940 C   0  0  0  0  0  3  0  0  0  0  0  0
  184.4020  171.5050  135.3670 C   0  0  0  0  0  3  0  0  0  0  0  0
  185.3880  173.4330  136.6300 C   0  0  0  0  0  0  0  0  0  0  0  0
  182.0360  171.4110  134.8160 F   0  0  0  0  0  0  0  0  0  0  0  0
  182.6540  174.7930  137.6230 C   0  0  0  0  0  2  0  0  0  0  0  0
  181.2650  177.2770  138.2340 C   0  0  1  0  0  3  0  0  0  0  0  0
  180.1840  178.2670  137.8290 C   0  0  0  0  0  1  0  0  0  0  0  0
  180.7410  175.8280  138.1910 C   0  0  1  0  0  3  0  0  0  0  0  0
  183.5850  176.0030  137.5700 C   0  0  2  0  0  3  0  0  0  0  0  0
  182.6570  177.4930  137.0660 S   0  0  0  0  0  0  0  0  0  0  0  0
  181.7360  174.9520  138.6680 O   0  0  0  0  0  0  0  0  0  0  0  0
  179.6170  175.9630  140.5000 C   0  0  0  0  0  0  0  0  0  0  0  0
  179.5300  174.5660  139.8870 C   0  0  0  0  0  2  0  0  0  0  0  0
  179.4380  175.6880  138.9990 C   0  0  2  0  0  3  0  0  0  0  0  0
  179.7480  176.7190  141.4490 O   0  0  0  0  0  0  0  0  0  0  0  0
  1 31  1  1  0  0  0
  1  8  1  0  0  0  0
  2  5  1  0  0  0  0
  3  5  1  0  0  0  0
  5  1  1  1  0  0  0
  6  2  1  0  0  0  0
  6  4  1  1  0  0  0
  6  7  1  0  0  0  0
  7  3  1  0  0  0  0
  8  9  2  0  0  0  0
  9 10  2  0  0  0  0
 10 13  1  0  0  0  0
 11 15  1  0  0  0  0
 12 20  1  0  0  0  0
 13 16  1  0  0  0  0
 13 14  2  0  0  0  0
 14 12  1  0  0  0  0
 15 12  2  0  0  0  0
 16 11  2  0  0  0  0
 17 18  1  0  0  0  0
 19 21  1  0  0  0  0
 20 19  1  0  0  0  0
 20 17  2  0  0  0  0
 21 25  1  6  0  0  0
 21 18  1  0  0  0  0
 22 23  1  0  0  0  0
 22 19  1  0  0  0  0
 25 24  2  0  0  0  0
 26 11  1  0  0  0  0
 26 27  1  0  0  0  0
 27 29  1  0  0  0  0
 28 26  2  0  0  0  0
 29 30  1  0  0  0  0
 32 35  1  0  0  0  0
 32 31  1  1  0  0  0
 34 35  2  0  0  0  0
 35 33  1  0  0  0  0
 36 38  1  0  0  0  0
 36 32  1  0  0  0  0
 37 36  2  0  0  0  0
 39 47  2  0  0  0  0
 39 38  1  0  0  0  0
 40 44  1  0  0  0  0
 40 47  1  0  0  0  0
 41 39  1  0  0  0  0
 42 46  1  0  0  0  0
 45 41  1  0  0  0  0
 45 42  2  0  0  0  0
 46 40  2  0  0  0  0
 47 43  1  0  0  0  0
 48 42  1  0  0  0  0
 49 55  1  0  0  0  0
 50 51  1  6  0  0  0
 52 50  1  0  0  0  0
 52 55  1  1  0  0  0
 52 58  1  0  0  0  0
 53 38  1  6  0  0  0
 53 49  1  0  0  0  0
 54 53  1  0  0  0  0
 54 50  1  0  0  0  0
 56 59  2  0  0  0  0
 57 56  1  0  0  0  0
 58 57  1  1  0  0  0
 58 56  1  0  0  0  0
M  END
>  <MODEL>
1

>  <REMARK>
 VINA RESULT:      -7.9      0.000      0.000
  Name = 
  15 active torsions:
  status: ('A' for Active; 'I' for Inactive)
    1  A    between atoms: C_2  and  N_29
    2  A    between atoms: C_3  and  C_4
    3  A    between atoms: C_4  and  C_15
    4  A    between atoms: C_4  and  C_38
    5  A    between atoms: C_5  and  C_6
    6  A    between atoms: C_7  and  N_49
    7  A    between atoms: C_14  and  C_33
    8  A    between atoms: C_15  and  C_52
    9  A    between atoms: C_18  and  C_50
   10  A    between atoms: C_19  and  C_52
   11  A    between atoms: C_20  and  C_25
   12  A    between atoms: N_31  and  C_43
   13  A    between atoms: C_36  and  N_49
   14  A    between atoms: C_37  and  C_41
   15  A    between atoms: C_52  and  C_59
                            x       y       z     vdW  Elec       q    Type
                         _______ _______ _______ _____ _____    ______ ____

>  <TORSDO>
F 15

$$$$
=
 OpenBabel11062418143D

 59 64  0  0  1  0  0  0  0  0999 V2000
  186.8410  178.2480  142.0750 C   0  0  1  0  0  3  0  0  0  0  0  0
  187.6580  176.4190  143.6300 C   0  0  0  0  0  2  0  0  0  0  0  0
  189.2350  177.8840  142.6890 C   0  0  0  0  0  2  0  0  0  0  0  0
  187.8490  177.4610  145.8710 C   0  0  0  0  0  1  0  0  0  0  0  0
  187.9280  177.1950  142.3660 C   0  0  2  0  0  3  0  0  0  0  0  0
  188.6170  176.9970  144.6470 C   0  0  2  0  0  3  0  0  0  0  0  0
  189.3000  178.0850  144.0780 O   0  0  0  0  0  0  0  0  0  0  0  0
  186.7480  178.5120  140.6070 C   0  0  0  0  0  3  0  0  0  0  0  0
  187.8080  178.6710  139.8650 C   0  0  0  0  0  0  0  0  0  0  0  0
  188.8580  178.8200  139.1000 C   0  0  0  0  0  3  0  0  0  0  0  0
  191.6910  176.4710  138.2300 C   0  0  0  0  0  0  0  0  0  0  0  0
  189.6420  175.5510  137.4090 C   0  0  0  0  0  0  0  0  0  0  0  0
  189.6180  177.6760  138.5740 C   0  0  0  0  0  0  0  0  0  0  0  0
  188.9400  176.6600  137.9030 C   0  0  0  0  0  3  0  0  0  0  0  0
  190.9950  175.4880  137.5860 N   0  0  0  0  0  0  0  0  0  0  0  0
  191.0000  177.5710  138.7450 C   0  0  0  0  0  3  0  0  0  0  0  0
  189.3770  173.2150  136.7010 C   0  0  0  0  0  3  0  0  0  0  0  0
  188.3360  172.0480  135.8350 S   0  0  0  0  0  0  0  0  0  0  0  0
  187.6150  174.5890  136.1310 N   0  0  0  0  0  0  0  0  0  0  0  0
  188.8960  174.4470  136.7450 C   0  0  0  0  0  0  0  0  0  0  0  0
  187.0540  173.3350  135.6400 C   0  0  2  0  0  3  0  0  0  0  0  0
  186.9520  175.8620  135.8800 C   0  0  0  0  0  2  0  0  0  0  0  0
  186.1460  176.1990  136.9680 O   0  0  0  0  0  1  0  0  0  0  0  0
  185.0810  171.9180  136.0820 C   0  0  0  0  0  2  0  0  0  0  0  0
  185.8570  172.9390  136.4490 C   0  0  0  0  0  3  0  0  0  0  0  0
  193.1550  176.3790  138.4550 C   0  0  0  0  0  0  0  0  0  0  0  0
  194.0870  176.0220  137.4270 N   0  0  0  0  0  2  0  0  0  0  0  0
  193.6090  176.6180  139.6060 O   0  0  0  0  0  0  0  0  0  0  0  0
  193.7910  175.9380  136.0070 C   0  0  0  0  0  2  0  0  0  0  0  0
  193.8000  174.6030  135.6020 O   0  0  0  0  0  1  0  0  0  0  0  0
  185.4550  177.8060  142.5400 C   0  0  0  0  0  2  0  0  0  0  0  0
  184.4540  178.9610  142.5030 C   0  0  2  0  0  3  0  0  0  0  0  0
  183.3980  180.4480  144.0450 O   0  0  0  0  0  0  0  0  0  0  0  0
  185.3440  179.5080  144.7960 O   0  0  0  0  0  1  0  0  0  0  0  0
  184.3710  179.6850  143.8150 C   0  0  0  0  0  0  0  0  0  0  0  0
  183.0980  178.5390  142.0130 C   0  0  0  0  0  0  0  0  0  0  0  0
  182.2200  178.2100  142.8590 O   0  0  0  0  0  0  0  0  0  0  0  0
  182.7890  178.4790  140.6070 N   0  0  0  0  0  0  0  0  0  0  0  0
  182.1120  179.5920  139.9910 C   0  0  0  0  0  0  0  0  0  0  0  0
  182.1360  181.5820  138.4710 C   0  0  0  0  0  0  0  0  0  0  0  0
  180.6370  179.7510  140.2110 C   0  0  0  0  0  2  0  0  0  0  0  0
  180.0440  180.3040  137.8670 C   0  0  0  0  0  0  0  0  0  0  0  0
  184.1770  180.4170  139.1860 O   0  0  0  0  0  1  0  0  0  0  0  0
  182.8330  182.7740  138.3230 O   0  0  0  0  0  1  0  0  0  0  0  0
  179.8920  179.5210  138.9370 C   0  0  0  0  0  3  0  0  0  0  0  0
  180.9540  181.4680  137.8400 C   0  0  0  0  0  3  0  0  0  0  0  0
  182.7880  180.4870  139.2400 C   0  0  0  0  0  0  0  0  0  0  0  0
  179.2680  180.0720  136.7800 F   0  0  0  0  0  0  0  0  0  0  0  0
  183.1310  177.3770  138.4170 C   0  0  0  0  0  2  0  0  0  0  0  0
  181.5600  174.9770  138.9090 C   0  0  1  0  0  3  0  0  0  0  0  0
  180.2520  174.2380  138.6750 C   0  0  0  0  0  1  0  0  0  0  0  0
  182.1260  175.5440  137.5920 C   0  0  1  0  0  3  0  0  0  0  0  0
  182.8080  177.1920  139.8990 C   0  0  2  0  0  3  0  0  0  0  0  0
  181.2130  176.3250  140.0950 S   0  0  0  0  0  0  0  0  0  0  0  0
  183.3840  176.1310  137.8310 O   0  0  0  0  0  0  0  0  0  0  0  0
  182.9280  174.9140  135.2320 C   0  0  0  0  0  0  0  0  0  0  0  0
  181.4110  174.8090  135.3810 C   0  0  0  0  0  2  0  0  0  0  0  0
  182.2160  174.4500  136.5120 C   0  0  2  0  0  3  0  0  0  0  0  0
  183.9340  175.1780  134.5940 O   0  0  0  0  0  0  0  0  0  0  0  0
  1  8  1  6  0  0  0
  1 31  1  0  0  0  0
  2  6  1  0  0  0  0
  3  7  1  0  0  0  0
  5  1  1  1  0  0  0
  5  3  1  0  0  0  0
  5  2  1  0  0  0  0
  6  4  1  1  0  0  0
  7  6  1  0  0  0  0
  9  8  2  0  0  0  0
 10  9  2  0  0  0  0
 11 26  1  0  0  0  0
 11 16  1  0  0  0  0
 12 15  1  0  0  0  0
 12 14  2  0  0  0  0
 13 16  2  0  0  0  0
 13 10  1  0  0  0  0
 14 13  1  0  0  0  0
 15 11  2  0  0  0  0
 17 20  2  0  0  0  0
 18 17  1  0  0  0  0
 19 20  1  0  0  0  0
 20 12  1  0  0  0  0
 21 18  1  0  0  0  0
 21 19  1  0  0  0  0
 21 25  1  1  0  0  0
 22 19  1  0  0  0  0
 22 23  1  0  0  0  0
 24 25  2  0  0  0  0
 26 28  2  0  0  0  0
 27 26  1  0  0  0  0
 29 27  1  0  0  0  0
 30 29  1  0  0  0  0
 32 31  1  1  0  0  0
 32 35  1  0  0  0  0
 35 33  2  0  0  0  0
 35 34  1  0  0  0  0
 36 32  1  0  0  0  0
 36 37  2  0  0  0  0
 38 36  1  0  0  0  0
 39 41  1  0  0  0  0
 39 38  1  0  0  0  0
 40 47  1  0  0  0  0
 42 45  2  0  0  0  0
 43 47  1  0  0  0  0
 44 40  1  0  0  0  0
 45 41  1  0  0  0  0
 46 42  1  0  0  0  0
 46 40  2  0  0  0  0
 47 39  2  0  0  0  0
 48 42  1  0  0  0  0
 49 53  1  0  0  0  0
 50 51  1  6  0  0  0
 50 54  1  0  0  0  0
 52 55  1  1  0  0  0
 52 50  1  0  0  0  0
 53 54  1  0  0  0  0
 53 38  1  1  0  0  0
 55 49  1  0  0  0  0
 56 57  1  0  0  0  0
 56 58  1  0  0  0  0
 58 57  1  6  0  0  0
 58 52  1  0  0  0  0
 59 56  2  0  0  0  0
M  END
>  <MODEL>
2

>  <REMARK>
 VINA RESULT:      -7.3      3.077      8.235
  Name = 
  15 active torsions:
  status: ('A' for Active; 'I' for Inactive)
    1  A    between atoms: C_2  and  N_29
    2  A    between atoms: C_3  and  C_4
    3  A    between atoms: C_4  and  C_15
    4  A    between atoms: C_4  and  C_38
    5  A    between atoms: C_5  and  C_6
    6  A    between atoms: C_7  and  N_49
    7  A    between atoms: C_14  and  C_33
    8  A    between atoms: C_15  and  C_52
    9  A    between atoms: C_18  and  C_50
   10  A    between atoms: C_19  and  C_52
   11  A    between atoms: C_20  and  C_25
   12  A    between atoms: N_31  and  C_43
   13  A    between atoms: C_36  and  N_49
   14  A    between atoms: C_37  and  C_41
   15  A    between atoms: C_52  and  C_59
                            x       y       z     vdW  Elec       q    Type
                         _______ _______ _______ _____ _____    ______ ____

>  <TORSDO>
F 15

$$$$
=
 OpenBabel11062418143D

 59 64  0  0  1  0  0  0  0  0999 V2000
  186.8050  178.3650  142.0280 C   0  0  1  0  0  3  0  0  0  0  0  0
  187.4630  176.4820  143.5950 C   0  0  0  0  0  2  0  0  0  0  0  0
  189.1240  177.9790  142.8740 C   0  0  0  0  0  2  0  0  0  0  0  0
  187.4170  177.4450  145.8790 C   0  0  0  0  0  1  0  0  0  0  0  0
  187.8590  177.3020  142.3930 C   0  0  2  0  0  3  0  0  0  0  0  0
  188.3100  177.0240  144.7260 C   0  0  2  0  0  3  0  0  0  0  0  0
  189.0440  178.1310  144.2690 O   0  0  0  0  0  0  0  0  0  0  0  0
  187.0500  178.8950  140.6530 C   0  0  0  0  0  3  0  0  0  0  0  0
  188.1060  178.5640  139.9630 C   0  0  0  0  0  0  0  0  0  0  0  0
  189.1500  178.2350  139.2480 C   0  0  0  0  0  3  0  0  0  0  0  0
  188.1750  175.1560  137.2810 C   0  0  0  0  0  0  0  0  0  0  0  0
  190.5560  175.2200  137.4890 C   0  0  0  0  0  0  0  0  0  0  0  0
  189.2200  176.9780  138.4870 C   0  0  0  0  0  0  0  0  0  0  0  0
  190.4650  176.4090  138.2280 C   0  0  0  0  0  3  0  0  0  0  0  0
  189.4110  174.6290  137.0370 N   0  0  0  0  0  0  0  0  0  0  0  0
  188.0720  176.3500  137.9990 C   0  0  0  0  0  3  0  0  0  0  0  0
  192.0400  173.4120  136.7420 C   0  0  0  0  0  3  0  0  0  0  0  0
  193.7340  172.9240  136.4460 S   0  0  0  0  0  0  0  0  0  0  0  0
  193.1250  175.3780  137.2670 N   0  0  0  0  0  0  0  0  0  0  0  0
  191.8970  174.6550  137.1710 C   0  0  0  0  0  0  0  0  0  0  0  0
  194.2880  174.6290  136.8050 C   0  0  2  0  0  3  0  0  0  0  0  0
  193.2680  176.6900  137.8830 C   0  0  0  0  0  2  0  0  0  0  0  0
  193.9450  176.5710  139.0990 O   0  0  0  0  0  1  0  0  0  0  0  0
  196.1410  175.4340  135.3870 C   0  0  0  0  0  2  0  0  0  0  0  0
  194.8340  175.2260  135.5440 C   0  0  0  0  0  3  0  0  0  0  0  0
  186.9360  174.5310  136.7540 C   0  0  0  0  0  0  0  0  0  0  0  0
  186.1930  175.0660  135.6530 N   0  0  0  0  0  2  0  0  0  0  0  0
  186.5070  173.4800  137.3010 O   0  0  0  0  0  0  0  0  0  0  0  0
  186.6430  176.1190  134.7590 C   0  0  0  0  0  2  0  0  0  0  0  0
  185.7990  177.2250  134.8710 O   0  0  0  0  0  1  0  0  0  0  0  0
  185.3810  177.8120  142.0500 C   0  0  0  0  0  2  0  0  0  0  0  0
  184.3550  178.9110  142.3240 C   0  0  2  0  0  3  0  0  0  0  0  0
  184.8320  180.4710  144.0690 O   0  0  0  0  0  0  0  0  0  0  0  0
  183.8210  178.5370  144.7580 O   0  0  0  0  0  1  0  0  0  0  0  0
  184.3580  179.3480  143.7600 C   0  0  0  0  0  0  0  0  0  0  0  0
  182.9740  178.5460  141.8570 C   0  0  0  0  0  0  0  0  0  0  0  0
  182.0970  178.2550  142.7170 O   0  0  0  0  0  0  0  0  0  0  0  0
  182.6400  178.5000  140.4560 N   0  0  0  0  0  0  0  0  0  0  0  0
  182.0000  179.6400  139.8500 C   0  0  0  0  0  0  0  0  0  0  0  0
  182.1030  181.6690  138.3860 C   0  0  0  0  0  0  0  0  0  0  0  0
  180.5220  179.8190  140.0310 C   0  0  0  0  0  2  0  0  0  0  0  0
  180.0090  180.4430  137.6860 C   0  0  0  0  0  0  0  0  0  0  0  0
  184.1020  180.4500  139.1290 O   0  0  0  0  0  1  0  0  0  0  0  0
  182.8240  182.8520  138.2900 O   0  0  0  0  0  1  0  0  0  0  0  0
  179.8120  179.6360  138.7300 C   0  0  0  0  0  3  0  0  0  0  0  0
  180.9390  181.5920  137.7180 C   0  0  0  0  0  3  0  0  0  0  0  0
  182.7140  180.5430  139.1440 C   0  0  0  0  0  0  0  0  0  0  0  0
  179.2620  180.2540  136.5710 F   0  0  0  0  0  0  0  0  0  0  0  0
  182.7900  177.3980  138.2450 C   0  0  0  0  0  2  0  0  0  0  0  0
  181.2560  175.0040  138.8670 C   0  0  1  0  0  3  0  0  0  0  0  0
  179.9300  174.2710  138.7450 C   0  0  0  0  0  1  0  0  0  0  0  0
  181.7110  175.5700  137.5070 C   0  0  1  0  0  3  0  0  0  0  0  0
  182.5930  177.2130  139.7490 C   0  0  2  0  0  3  0  0  0  0  0  0
  181.0170  176.3530  140.0790 S   0  0  0  0  0  0  0  0  0  0  0  0
  182.9870  176.1510  137.6390 O   0  0  0  0  0  0  0  0  0  0  0  0
  182.8380  173.4520  136.5820 C   0  0  0  0  0  0  0  0  0  0  0  0
  182.8590  174.6090  135.5850 C   0  0  0  0  0  2  0  0  0  0  0  0
  181.7040  174.4760  136.4230 C   0  0  2  0  0  3  0  0  0  0  0  0
  183.3410  172.4740  137.1130 O   0  0  0  0  0  0  0  0  0  0  0  0
  1  8  1  6  0  0  0
  1 31  1  0  0  0  0
  2  6  1  0  0  0  0
  3  7  1  0  0  0  0
  5  1  1  1  0  0  0
  5  3  1  0  0  0  0
  5  2  1  0  0  0  0
  6  4  1  1  0  0  0
  7  6  1  0  0  0  0
  9  8  2  0  0  0  0
 10  9  2  0  0  0  0
 11 16  1  0  0  0  0
 12 14  2  0  0  0  0
 13 10  1  0  0  0  0
 14 13  1  0  0  0  0
 15 11  2  0  0  0  0
 15 12  1  0  0  0  0
 16 13  2  0  0  0  0
 17 20  2  0  0  0  0
 18 17  1  0  0  0  0
 18 21  1  0  0  0  0
 19 22  1  0  0  0  0
 20 19  1  0  0  0  0
 20 12  1  0  0  0  0
 21 25  1  6  0  0  0
 21 19  1  0  0  0  0
 22 23  1  0  0  0  0
 24 25  2  0  0  0  0
 26 11  1  0  0  0  0
 26 28  2  0  0  0  0
 27 26  1  0  0  0  0
 29 30  1  0  0  0  0
 29 27  1  0  0  0  0
 32 31  1  1  0  0  0
 32 35  1  0  0  0  0
 35 33  2  0  0  0  0
 35 34  1  0  0  0  0
 36 32  1  0  0  0  0
 36 37  2  0  0  0  0
 38 36  1  0  0  0  0
 39 41  1  0  0  0  0
 39 38  1  0  0  0  0
 40 47  1  0  0  0  0
 42 46  1  0  0  0  0
 42 45  2  0  0  0  0
 43 47  1  0  0  0  0
 44 40  1  0  0  0  0
 45 41  1  0  0  0  0
 46 40  2  0  0  0  0
 47 39  2  0  0  0  0
 48 42  1  0  0  0  0
 49 53  1  0  0  0  0
 50 51  1  6  0  0  0
 50 54  1  0  0  0  0
 52 55  1  1  0  0  0
 52 50  1  0  0  0  0
 53 54  1  0  0  0  0
 53 38  1  1  0  0  0
 55 49  1  0  0  0  0
 56 59  2  0  0  0  0
 57 56  1  0  0  0  0
 58 57  1  6  0  0  0
 58 56  1  0  0  0  0
 58 52  1  0  0  0  0
M  END
>  <MODEL>
3

>  <REMARK>
 VINA RESULT:      -7.3      3.315      7.666
  Name = 
  15 active torsions:
  status: ('A' for Active; 'I' for Inactive)
    1  A    between atoms: C_2  and  N_29
    2  A    between atoms: C_3  and  C_4
    3  A    between atoms: C_4  and  C_15
    4  A    between atoms: C_4  and  C_38
    5  A    between atoms: C_5  and  C_6
    6  A    between atoms: C_7  and  N_49
    7  A    between atoms: C_14  and  C_33
    8  A    between atoms: C_15  and  C_52
    9  A    between atoms: C_18  and  C_50
   10  A    between atoms: C_19  and  C_52
   11  A    between atoms: C_20  and  C_25
   12  A    between atoms: N_31  and  C_43
   13  A    between atoms: C_36  and  N_49
   14  A    between atoms: C_37  and  C_41
   15  A    between atoms: C_52  and  C_59
                            x       y       z     vdW  Elec       q    Type
                         _______ _______ _______ _____ _____    ______ ____

>  <TORSDO>
F 15

$$$$
=
 OpenBabel11062418143D

 59 64  0  0  1  0  0  0  0  0999 V2000
  188.7260  177.1340  141.8270 C   0  0  1  0  0  3  0  0  0  0  0  0
  191.2270  177.2720  142.2210 C   0  0  0  0  0  2  0  0  0  0  0  0
  189.7920  178.4150  143.6880 C   0  0  0  0  0  2  0  0  0  0  0  0
  191.7520  175.5280  143.9030 C   0  0  0  0  0  1  0  0  0  0  0  0
  189.9190  178.0210  142.2330 C   0  0  2  0  0  3  0  0  0  0  0  0
  191.5350  177.0130  143.6790 C   0  0  2  0  0  3  0  0  0  0  0  0
  190.4600  177.4570  144.4680 O   0  0  0  0  0  0  0  0  0  0  0  0
  187.7940  176.9500  142.9810 C   0  0  0  0  0  3  0  0  0  0  0  0
  186.8070  177.7710  143.2090 C   0  0  0  0  0  0  0  0  0  0  0  0
  185.8020  178.5730  143.4490 C   0  0  0  0  0  3  0  0  0  0  0  0
  182.1110  178.7130  142.6390 C   0  0  0  0  0  0  0  0  0  0  0  0
  183.2930  177.8910  140.7300 C   0  0  0  0  0  0  0  0  0  0  0  0
  184.5180  178.4610  142.7410 C   0  0  0  0  0  0  0  0  0  0  0  0
  184.5040  177.9890  141.4300 C   0  0  0  0  0  3  0  0  0  0  0  0
  182.1340  178.2560  141.3520 N   0  0  0  0  0  0  0  0  0  0  0  0
  183.3140  178.8340  143.3410 C   0  0  0  0  0  3  0  0  0  0  0  0
  183.3350  176.1560  138.9930 C   0  0  0  0  0  3  0  0  0  0  0  0
  183.3650  175.8320  137.2350 S   0  0  0  0  0  0  0  0  0  0  0  0
  183.2480  178.3120  138.1820 N   0  0  0  0  0  0  0  0  0  0  0  0
  183.3010  177.4400  139.3110 C   0  0  0  0  0  0  0  0  0  0  0  0
  183.1680  177.6180  136.9020 C   0  0  2  0  0  3  0  0  0  0  0  0
  183.3900  179.7610  138.2460 C   0  0  0  0  0  2  0  0  0  0  0  0
  182.1640  180.3430  138.5730 O   0  0  0  0  0  1  0  0  0  0  0  0
  181.7100  178.0100  134.9480 C   0  0  0  0  0  2  0  0  0  0  0  0
  181.8300  177.8360  136.2650 C   0  0  0  0  0  3  0  0  0  0  0  0
  180.8540  179.1450  143.2980 C   0  0  0  0  0  0  0  0  0  0  0  0
  179.8970  180.0100  142.6740 N   0  0  0  0  0  2  0  0  0  0  0  0
  180.6100  178.7410  144.4660 O   0  0  0  0  0  0  0  0  0  0  0  0
  179.8840  180.3870  141.2710 C   0  0  0  0  0  2  0  0  0  0  0  0
  179.4120  181.6940  141.1400 O   0  0  0  0  0  1  0  0  0  0  0  0
  187.9110  177.7320  140.6820 C   0  0  0  0  0  2  0  0  0  0  0  0
  188.7560  177.9070  139.4220 C   0  0  2  0  0  3  0  0  0  0  0  0
  186.8770  178.8040  138.2500 O   0  0  0  0  0  1  0  0  0  0  0  0
  188.8840  179.7710  137.7320 O   0  0  0  0  0  0  0  0  0  0  0  0
  188.1200  178.8420  138.4340 C   0  0  0  0  0  0  0  0  0  0  0  0
  189.1310  176.5980  138.7860 C   0  0  0  0  0  0  0  0  0  0  0  0
  188.9280  175.5300  139.4270 O   0  0  0  0  0  0  0  0  0  0  0  0
  189.7350  176.5390  137.4790 N   0  0  0  0  0  0  0  0  0  0  0  0
  188.9020  176.2840  136.3330 C   0  0  0  0  0  0  0  0  0  0  0  0
  187.1780  174.8940  135.1630 C   0  0  0  0  0  0  0  0  0  0  0  0
  188.8860  177.2820  135.2140 C   0  0  0  0  0  2  0  0  0  0  0  0
  186.4320  177.2860  134.8530 C   0  0  0  0  0  0  0  0  0  0  0  0
  188.3120  174.1710  137.2190 O   0  0  0  0  0  1  0  0  0  0  0  0
  186.9920  173.5750  134.7670 O   0  0  0  0  0  1  0  0  0  0  0  0
  187.5540  177.9530  135.1330 C   0  0  0  0  0  3  0  0  0  0  0  0
  186.4010  175.8320  134.5940 C   0  0  0  0  0  3  0  0  0  0  0  0
  188.1560  175.1610  136.2530 C   0  0  0  0  0  0  0  0  0  0  0  0
  185.2790  177.9860  134.7180 F   0  0  0  0  0  0  0  0  0  0  0  0
  191.5340  174.9450  136.8870 C   0  0  0  0  0  2  0  0  0  0  0  0
  193.6940  176.1710  138.4040 C   0  0  1  0  0  3  0  0  0  0  0  0
  194.5580  176.1290  139.6550 C   0  0  0  0  0  1  0  0  0  0  0  0
  193.6080  174.7840  137.7370 C   0  0  1  0  0  3  0  0  0  0  0  0
  191.1870  176.3620  137.3430 C   0  0  2  0  0  3  0  0  0  0  0  0
  192.0340  176.7440  138.9150 S   0  0  0  0  0  0  0  0  0  0  0  0
  192.8860  174.8830  136.5310 O   0  0  0  0  0  0  0  0  0  0  0  0
  195.4500  174.2320  136.0300 C   0  0  0  0  0  0  0  0  0  0  0  0
  194.9150  172.9870  136.7360 C   0  0  0  0  0  2  0  0  0  0  0  0
  195.0110  174.1950  137.5020 C   0  0  2  0  0  3  0  0  0  0  0  0
  195.8790  174.8150  135.0480 O   0  0  0  0  0  0  0  0  0  0  0  0
  1 31  1  6  0  0  0
  1  8  1  0  0  0  0
  2  5  1  0  0  0  0
  2  6  1  0  0  0  0
  3  7  1  0  0  0  0
  5  1  1  1  0  0  0
  5  3  1  0  0  0  0
  6  4  1  6  0  0  0
  6  7  1  0  0  0  0
  8  9  2  0  0  0  0
  9 10  2  0  0  0  0
 11 26  1  0  0  0  0
 11 16  1  0  0  0  0
 12 15  1  0  0  0  0
 12 14  2  0  0  0  0
 13 16  2  0  0  0  0
 13 10  1  0  0  0  0
 14 13  1  0  0  0  0
 15 11  2  0  0  0  0
 17 20  2  0  0  0  0
 18 17  1  0  0  0  0
 19 22  1  0  0  0  0
 19 20  1  0  0  0  0
 20 12  1  0  0  0  0
 21 25  1  1  0  0  0
 21 18  1  0  0  0  0
 21 19  1  0  0  0  0
 22 23  1  0  0  0  0
 24 25  2  0  0  0  0
 26 28  2  0  0  0  0
 27 26  1  0  0  0  0
 29 27  1  0  0  0  0
 30 29  1  0  0  0  0
 32 31  1  1  0  0  0
 33 35  1  0  0  0  0
 34 35  2  0  0  0  0
 35 32  1  0  0  0  0
 36 32  1  0  0  0  0
 36 37  2  0  0  0  0
 38 36  1  0  0  0  0
 39 38  1  0  0  0  0
 40 47  1  0  0  0  0
 41 39  1  0  0  0  0
 42 45  2  0  0  0  0
 44 40  1  0  0  0  0
 45 41  1  0  0  0  0
 46 42  1  0  0  0  0
 46 40  2  0  0  0  0
 47 39  2  0  0  0  0
 47 43  1  0  0  0  0
 48 42  1  0  0  0  0
 49 53  1  0  0  0  0
 50 54  1  0  0  0  0
 50 51  1  1  0  0  0
 52 55  1  6  0  0  0
 52 50  1  0  0  0  0
 53 38  1  1  0  0  0
 53 54  1  0  0  0  0
 55 49  1  0  0  0  0
 56 57  1  0  0  0  0
 56 58  1  0  0  0  0
 58 57  1  6  0  0  0
 58 52  1  0  0  0  0
 59 56  2  0  0  0  0
M  END
>  <MODEL>
4

>  <REMARK>
 VINA RESULT:      -6.3      3.195      8.583
  Name = 
  15 active torsions:
  status: ('A' for Active; 'I' for Inactive)
    1  A    between atoms: C_2  and  N_29
    2  A    between atoms: C_3  and  C_4
    3  A    between atoms: C_4  and  C_15
    4  A    between atoms: C_4  and  C_38
    5  A    between atoms: C_5  and  C_6
    6  A    between atoms: C_7  and  N_49
    7  A    between atoms: C_14  and  C_33
    8  A    between atoms: C_15  and  C_52
    9  A    between atoms: C_18  and  C_50
   10  A    between atoms: C_19  and  C_52
   11  A    between atoms: C_20  and  C_25
   12  A    between atoms: N_31  and  C_43
   13  A    between atoms: C_36  and  N_49
   14  A    between atoms: C_37  and  C_41
   15  A    between atoms: C_52  and  C_59
                            x       y       z     vdW  Elec       q    Type
                         _______ _______ _______ _____ _____    ______ ____

>  <TORSDO>
F 15

$$$$
=
 OpenBabel11062418143D

 59 64  0  0  1  0  0  0  0  0999 V2000
  187.2490  177.7680  142.1080 C   0  0  1  0  0  3  0  0  0  0  0  0
  187.4680  178.1730  144.6020 C   0  0  0  0  0  2  0  0  0  0  0  0
  187.8040  175.9970  143.7820 C   0  0  0  0  0  2  0  0  0  0  0  0
  189.8850  178.5130  145.0300 C   0  0  0  0  0  1  0  0  0  0  0  0
  186.9730  177.2370  143.5280 C   0  0  2  0  0  3  0  0  0  0  0  0
  188.7340  177.5280  145.1200 C   0  0  2  0  0  3  0  0  0  0  0  0
  189.0270  176.3900  144.3510 O   0  0  0  0  0  0  0  0  0  0  0  0
  186.4430  178.9980  141.8430 C   0  0  0  0  0  3  0  0  0  0  0  0
  185.5520  179.0490  140.8920 C   0  0  0  0  0  0  0  0  0  0  0  0
  184.6450  179.1180  139.9530 C   0  0  0  0  0  3  0  0  0  0  0  0
  181.1520  178.5350  141.2790 C   0  0  0  0  0  0  0  0  0  0  0  0
  181.5200  177.0960  139.4050 C   0  0  0  0  0  0  0  0  0  0  0  0
  183.2840  178.5880  140.1310 C   0  0  0  0  0  0  0  0  0  0  0  0
  182.8200  177.6020  139.2640 C   0  0  0  0  0  3  0  0  0  0  0  0
  180.7240  177.5760  140.4050 N   0  0  0  0  0  0  0  0  0  0  0  0
  182.4380  179.0620  141.1360 C   0  0  0  0  0  3  0  0  0  0  0  0
  181.5540  175.9500  137.2330 C   0  0  0  0  0  3  0  0  0  0  0  0
  180.7860  174.6960  136.2170 S   0  0  0  0  0  0  0  0  0  0  0  0
  179.9590  175.1620  138.7000 N   0  0  0  0  0  0  0  0  0  0  0  0
  181.0180  176.0830  138.4350 C   0  0  0  0  0  0  0  0  0  0  0  0
  179.7240  174.2080  137.6220 C   0  0  2  0  0  3  0  0  0  0  0  0
  179.0840  175.2160  139.8640 C   0  0  0  0  0  2  0  0  0  0  0  0
  179.5810  174.3840  140.8680 O   0  0  0  0  0  1  0  0  0  0  0  0
  180.4990  171.9100  137.1590 C   0  0  0  0  0  2  0  0  0  0  0  0
  180.1080  172.8240  138.0480 C   0  0  0  0  0  3  0  0  0  0  0  0
  180.2700  179.0820  142.3390 C   0  0  0  0  0  0  0  0  0  0  0  0
  180.4740  178.8340  143.7360 N   0  0  0  0  0  2  0  0  0  0  0  0
  179.2860  179.7950  142.0040 O   0  0  0  0  0  0  0  0  0  0  0  0
  181.6620  178.2420  144.3270 C   0  0  0  0  0  2  0  0  0  0  0  0
  182.7070  179.1660  144.3090 O   0  0  0  0  0  1  0  0  0  0  0  0
  188.7150  178.1370  141.8930 C   0  0  0  0  0  2  0  0  0  0  0  0
  189.3980  177.1820  140.9140 C   0  0  2  0  0  3  0  0  0  0  0  0
  191.6800  177.3550  140.2290 O   0  0  0  0  0  0  0  0  0  0  0  0
  191.3750  176.7040  142.4010 O   0  0  0  0  0  1  0  0  0  0  0  0
  190.8760  177.0790  141.1550 C   0  0  0  0  0  0  0  0  0  0  0  0
  189.0900  177.5020  139.4780 C   0  0  0  0  0  0  0  0  0  0  0  0
  188.9820  178.7110  139.1340 O   0  0  0  0  0  0  0  0  0  0  0  0
  188.8930  176.4630  138.5000 N   0  0  0  0  0  0  0  0  0  0  0  0
  189.9950  176.0790  137.6550 C   0  0  0  0  0  0  0  0  0  0  0  0
  191.6840  176.6410  135.8940 C   0  0  0  0  0  0  0  0  0  0  0  0
  190.5970  174.7170  137.8290 C   0  0  0  0  0  2  0  0  0  0  0  0
  192.9710  175.4220  137.6920 C   0  0  0  0  0  0  0  0  0  0  0  0
  189.7950  178.1070  136.4540 O   0  0  0  0  0  1  0  0  0  0  0  0
  191.7150  177.1280  134.5940 O   0  0  0  0  0  1  0  0  0  0  0  0
  191.9860  174.8260  138.3670 C   0  0  0  0  0  3  0  0  0  0  0  0
  192.7860  176.0220  136.3550 C   0  0  0  0  0  3  0  0  0  0  0  0
  190.4720  176.9190  136.7110 C   0  0  0  0  0  0  0  0  0  0  0  0
  194.2200  175.4040  138.2190 F   0  0  0  0  0  0  0  0  0  0  0  0
  187.5420  174.7520  137.3290 C   0  0  0  0  0  2  0  0  0  0  0  0
  185.2650  176.4250  136.6300 C   0  0  1  0  0  3  0  0  0  0  0  0
  184.5480  177.2170  135.5480 C   0  0  0  0  0  1  0  0  0  0  0  0
  185.6620  175.0230  136.1260 C   0  0  1  0  0  3  0  0  0  0  0  0
  187.5340  176.0690  138.1020 C   0  0  2  0  0  3  0  0  0  0  0  0
  186.7490  177.3820  137.1060 S   0  0  0  0  0  0  0  0  0  0  0  0
  186.2300  174.2840  137.1830 O   0  0  0  0  0  0  0  0  0  0  0  0
  184.2730  172.8600  136.0530 C   0  0  0  0  0  0  0  0  0  0  0  0
  184.8970  173.2010  134.7000 C   0  0  0  0  0  2  0  0  0  0  0  0
  184.4520  174.2900  135.5190 C   0  0  2  0  0  3  0  0  0  0  0  0
  183.9200  172.0660  136.9090 O   0  0  0  0  0  0  0  0  0  0  0  0
  1  8  1  1  0  0  0
  2  6  1  0  0  0  0
  3  7  1  0  0  0  0
  5  1  1  6  0  0  0
  5  3  1  0  0  0  0
  5  2  1  0  0  0  0
  6  4  1  6  0  0  0
  7  6  1  0  0  0  0
  9  8  2  0  0  0  0
 10 13  1  0  0  0  0
 10  9  2  0  0  0  0
 11 26  1  0  0  0  0
 12 15  1  0  0  0  0
 13 16  2  0  0  0  0
 14 12  2  0  0  0  0
 14 13  1  0  0  0  0
 15 11  2  0  0  0  0
 16 11  1  0  0  0  0
 17 20  2  0  0  0  0
 18 17  1  0  0  0  0
 18 21  1  0  0  0  0
 19 22  1  0  0  0  0
 20 19  1  0  0  0  0
 20 12  1  0  0  0  0
 21 25  1  1  0  0  0
 21 19  1  0  0  0  0
 22 23  1  0  0  0  0
 24 25  2  0  0  0  0
 26 27  1  0  0  0  0
 27 29  1  0  0  0  0
 28 26  2  0  0  0  0
 30 29  1  0  0  0  0
 31  1  1  0  0  0  0
 32 35  1  0  0  0  0
 32 31  1  1  0  0  0
 33 35  2  0  0  0  0
 35 34  1  0  0  0  0
 36 32  1  0  0  0  0
 37 36  2  0  0  0  0
 38 36  1  0  0  0  0
 39 41  1  0  0  0  0
 39 38  1  0  0  0  0
 40 46  2  0  0  0  0
 40 47  1  0  0  0  0
 41 45  1  0  0  0  0
 42 48  1  0  0  0  0
 42 45  2  0  0  0  0
 43 47  1  0  0  0  0
 44 40  1  0  0  0  0
 46 42  1  0  0  0  0
 47 39  2  0  0  0  0
 49 53  1  0  0  0  0
 50 51  1  6  0  0  0
 50 54  1  0  0  0  0
 52 50  1  0  0  0  0
 52 55  1  1  0  0  0
 53 38  1  6  0  0  0
 54 53  1  0  0  0  0
 55 49  1  0  0  0  0
 56 59  2  0  0  0  0
 57 56  1  0  0  0  0
 58 57  1  6  0  0  0
 58 56  1  0  0  0  0
 58 52  1  0  0  0  0
M  END
>  <MODEL>
5

>  <REMARK>
 VINA RESULT:      -5.9      3.289      8.216
  Name = 
  15 active torsions:
  status: ('A' for Active; 'I' for Inactive)
    1  A    between atoms: C_2  and  N_29
    2  A    between atoms: C_3  and  C_4
    3  A    between atoms: C_4  and  C_15
    4  A    between atoms: C_4  and  C_38
    5  A    between atoms: C_5  and  C_6
    6  A    between atoms: C_7  and  N_49
    7  A    between atoms: C_14  and  C_33
    8  A    between atoms: C_15  and  C_52
    9  A    between atoms: C_18  and  C_50
   10  A    between atoms: C_19  and  C_52
   11  A    between atoms: C_20  and  C_25
   12  A    between atoms: N_31  and  C_43
   13  A    between atoms: C_36  and  N_49
   14  A    between atoms: C_37  and  C_41
   15  A    between atoms: C_52  and  C_59
                            x       y       z     vdW  Elec       q    Type
                         _______ _______ _______ _____ _____    ______ ____

>  <TORSDO>
F 15

$$$$
=
 OpenBabel11062418143D

 59 64  0  0  1  0  0  0  0  0999 V2000
  188.4460  177.6040  140.8630 C   0  0  1  0  0  3  0  0  0  0  0  0
  190.8170  177.1220  141.6240 C   0  0  0  0  0  2  0  0  0  0  0  0
  189.4580  178.4830  142.9720 C   0  0  0  0  0  2  0  0  0  0  0  0
  190.6560  175.2060  143.1890 C   0  0  0  0  0  1  0  0  0  0  0  0
  189.7270  178.1570  141.5180 C   0  0  2  0  0  3  0  0  0  0  0  0
  190.8180  176.7110  143.0800 C   0  0  2  0  0  3  0  0  0  0  0  0
  189.7570  177.3490  143.7450 O   0  0  0  0  0  0  0  0  0  0  0  0
  187.2620  177.8430  141.7430 C   0  0  0  0  0  3  0  0  0  0  0  0
  186.2780  178.6180  141.3820 C   0  0  0  0  0  0  0  0  0  0  0  0
  185.2730  179.3790  141.0350 C   0  0  0  0  0  3  0  0  0  0  0  0
  182.9030  177.1290  139.1340 C   0  0  0  0  0  0  0  0  0  0  0  0
  182.3310  179.4080  138.6910 C   0  0  0  0  0  0  0  0  0  0  0  0
  184.1900  178.9050  140.1610 C   0  0  0  0  0  0  0  0  0  0  0  0
  183.3800  179.8380  139.5160 C   0  0  0  0  0  3  0  0  0  0  0  0
  182.1220  178.0690  138.5240 N   0  0  0  0  0  0  0  0  0  0  0  0
  183.9390  177.5440  139.9740 C   0  0  0  0  0  3  0  0  0  0  0  0
  181.0420  181.4980  138.7030 C   0  0  0  0  0  3  0  0  0  0  0  0
  179.9540  182.5640  137.7670 S   0  0  0  0  0  0  0  0  0  0  0  0
  180.9550  180.3380  136.7130 N   0  0  0  0  0  0  0  0  0  0  0  0
  181.4390  180.4160  138.0540 C   0  0  0  0  0  0  0  0  0  0  0  0
  180.1790  181.5010  136.2970 C   0  0  2  0  0  3  0  0  0  0  0  0
  181.0880  179.1720  135.8490 C   0  0  0  0  0  2  0  0  0  0  0  0
  179.8400  178.5760  135.6630 O   0  0  0  0  0  1  0  0  0  0  0  0
  180.8450  183.6150  135.2090 C   0  0  0  0  0  2  0  0  0  0  0  0
  180.9170  182.2840  135.2540 C   0  0  0  0  0  3  0  0  0  0  0  0
  182.6470  175.6750  138.9810 C   0  0  0  0  0  0  0  0  0  0  0  0
  181.4930  175.0200  139.5200 N   0  0  0  0  0  2  0  0  0  0  0  0
  183.4850  174.9740  138.3530 O   0  0  0  0  0  0  0  0  0  0  0  0
  180.3190  175.6810  140.0640 C   0  0  0  0  0  2  0  0  0  0  0  0
  179.3500  175.8140  139.0700 O   0  0  0  0  0  1  0  0  0  0  0  0
  188.1450  178.2600  139.5170 C   0  0  0  0  0  2  0  0  0  0  0  0
  189.1020  177.7780  138.4290 C   0  0  2  0  0  3  0  0  0  0  0  0
  189.8510  178.4690  136.2680 O   0  0  0  0  0  0  0  0  0  0  0  0
  187.8760  179.4040  136.9460 O   0  0  0  0  0  1  0  0  0  0  0  0
  188.9720  178.5710  137.1610 C   0  0  0  0  0  0  0  0  0  0  0  0
  188.9960  176.3000  138.1730 C   0  0  0  0  0  0  0  0  0  0  0  0
  188.7510  175.5310  139.1440 O   0  0  0  0  0  0  0  0  0  0  0  0
  189.1920  175.7460  136.8580 N   0  0  0  0  0  0  0  0  0  0  0  0
  188.0400  175.4620  136.0400 C   0  0  0  0  0  0  0  0  0  0  0  0
  186.1430  173.9570  135.4020 C   0  0  0  0  0  0  0  0  0  0  0  0
  187.5590  176.5100  135.0810 C   0  0  0  0  0  2  0  0  0  0  0  0
  185.1390  176.2670  135.5650 C   0  0  0  0  0  0  0  0  0  0  0  0
  187.9680  173.2550  136.8890 O   0  0  0  0  0  1  0  0  0  0  0  0
  185.9440  172.6480  134.9800 O   0  0  0  0  0  1  0  0  0  0  0  0
  186.2290  177.0360  135.5080 C   0  0  0  0  0  3  0  0  0  0  0  0
  185.1430  174.8340  135.2080 C   0  0  0  0  0  3  0  0  0  0  0  0
  187.4090  174.2710  136.1190 C   0  0  0  0  0  0  0  0  0  0  0  0
  183.9550  176.8450  135.8850 F   0  0  0  0  0  0  0  0  0  0  0  0
  191.3390  174.8810  137.7320 C   0  0  0  0  0  2  0  0  0  0  0  0
  192.9390  175.2260  135.3250 C   0  0  1  0  0  3  0  0  0  0  0  0
  193.9800  176.0570  134.5940 C   0  0  0  0  0  1  0  0  0  0  0  0
  193.3720  174.9350  136.7750 C   0  0  1  0  0  3  0  0  0  0  0  0
  190.4760  175.1320  136.4970 C   0  0  2  0  0  3  0  0  0  0  0  0
  191.3760  176.1760  135.2990 S   0  0  0  0  0  0  0  0  0  0  0  0
  192.4340  174.0800  137.3870 O   0  0  0  0  0  0  0  0  0  0  0  0
  195.0550  173.4870  138.0740 C   0  0  0  0  0  0  0  0  0  0  0  0
  195.5420  174.9230  137.8860 C   0  0  0  0  0  2  0  0  0  0  0  0
  194.7890  174.3320  136.8180 C   0  0  2  0  0  3  0  0  0  0  0  0
  194.9440  172.4610  138.7250 O   0  0  0  0  0  0  0  0  0  0  0  0
  1 31  1  6  0  0  0
  1  8  1  0  0  0  0
  2  6  1  0  0  0  0
  3  7  1  0  0  0  0
  5  1  1  1  0  0  0
  5  2  1  0  0  0  0
  5  3  1  0  0  0  0
  6  4  1  6  0  0  0
  6  7  1  0  0  0  0
  9  8  2  0  0  0  0
 10  9  2  0  0  0  0
 11 16  1  0  0  0  0
 12 14  2  0  0  0  0
 13 10  1  0  0  0  0
 14 13  1  0  0  0  0
 15 12  1  0  0  0  0
 15 11  2  0  0  0  0
 16 13  2  0  0  0  0
 18 17  1  0  0  0  0
 19 20  1  0  0  0  0
 20 12  1  0  0  0  0
 20 17  2  0  0  0  0
 21 25  1  6  0  0  0
 21 19  1  0  0  0  0
 21 18  1  0  0  0  0
 22 19  1  0  0  0  0
 23 22  1  0  0  0  0
 24 25  2  0  0  0  0
 26 11  1  0  0  0  0
 26 27  1  0  0  0  0
 27 29  1  0  0  0  0
 28 26  2  0  0  0  0
 30 29  1  0  0  0  0
 32 31  1  1  0  0  0
 33 35  2  0  0  0  0
 34 35  1  0  0  0  0
 35 32  1  0  0  0  0
 36 32  1  0  0  0  0
 36 37  2  0  0  0  0
 38 36  1  0  0  0  0
 39 47  2  0  0  0  0
 39 38  1  0  0  0  0
 40 47  1  0  0  0  0
 41 45  1  0  0  0  0
 41 39  1  0  0  0  0
 42 48  1  0  0  0  0
 44 40  1  0  0  0  0
 45 42  2  0  0  0  0
 46 40  2  0  0  0  0
 46 42  1  0  0  0  0
 47 43  1  0  0  0  0
 50 51  1  1  0  0  0
 50 52  1  0  0  0  0
 52 58  1  0  0  0  0
 52 55  1  6  0  0  0
 53 38  1  1  0  0  0
 53 49  1  0  0  0  0
 54 50  1  0  0  0  0
 54 53  1  0  0  0  0
 55 49  1  0  0  0  0
 56 59  2  0  0  0  0
 57 56  1  0  0  0  0
 58 57  1  1  0  0  0
 58 56  1  0  0  0  0
M  END
>  <MODEL>
6

>  <REMARK>
 VINA RESULT:      -5.7      3.357      9.005
  Name = 
  15 active torsions:
  status: ('A' for Active; 'I' for Inactive)
    1  A    between atoms: C_2  and  N_29
    2  A    between atoms: C_3  and  C_4
    3  A    between atoms: C_4  and  C_15
    4  A    between atoms: C_4  and  C_38
    5  A    between atoms: C_5  and  C_6
    6  A    between atoms: C_7  and  N_49
    7  A    between atoms: C_14  and  C_33
    8  A    between atoms: C_15  and  C_52
    9  A    between atoms: C_18  and  C_50
   10  A    between atoms: C_19  and  C_52
   11  A    between atoms: C_20  and  C_25
   12  A    between atoms: N_31  and  C_43
   13  A    between atoms: C_36  and  N_49
   14  A    between atoms: C_37  and  C_41
   15  A    between atoms: C_52  and  C_59
                            x       y       z     vdW  Elec       q    Type
                         _______ _______ _______ _____ _____    ______ ____

>  <TORSDO>
F 15

$$$$
=
 OpenBabel11062418143D

 59 64  0  0  1  0  0  0  0  0999 V2000
  189.1190  177.8860  139.9590 C   0  0  1  0  0  3  0  0  0  0  0  0
  186.6870  177.2380  140.2760 C   0  0  0  0  0  2  0  0  0  0  0  0
  187.5660  178.9840  141.5800 C   0  0  0  0  0  2  0  0  0  0  0  0
  185.3740  178.7940  138.8630 C   0  0  0  0  0  1  0  0  0  0  0  0
  187.9640  177.6640  140.9550 C   0  0  2  0  0  3  0  0  0  0  0  0
  185.8190  178.4770  140.2780 C   0  0  2  0  0  3  0  0  0  0  0  0
  186.5510  179.5580  140.7970 O   0  0  0  0  0  0  0  0  0  0  0  0
  190.4020  177.3680  140.5210 C   0  0  0  0  0  3  0  0  0  0  0  0
  190.8800  177.7920  141.6580 C   0  0  0  0  0  0  0  0  0  0  0  0
  191.3700  178.1930  142.8020 C   0  0  0  0  0  3  0  0  0  0  0  0
  191.2670  176.4460  146.1540 C   0  0  0  0  0  0  0  0  0  0  0  0
  189.1240  177.4140  145.7180 C   0  0  0  0  0  0  0  0  0  0  0  0
  190.9020  177.6610  144.0900 C   0  0  0  0  0  0  0  0  0  0  0  0
  189.5870  177.8970  144.4850 C   0  0  0  0  0  3  0  0  0  0  0  0
  189.9750  176.7040  146.5150 N   0  0  0  0  0  0  0  0  0  0  0  0
  191.7460  176.9400  144.9370 C   0  0  0  0  0  3  0  0  0  0  0  0
  187.4690  178.1550  147.3740 C   0  0  0  0  0  3  0  0  0  0  0  0
  185.7350  178.4420  147.6970 S   0  0  0  0  0  0  0  0  0  0  0  0
  186.5810  177.6180  145.3150 N   0  0  0  0  0  0  0  0  0  0  0  0
  187.7340  177.7240  146.1520 C   0  0  0  0  0  0  0  0  0  0  0  0
  185.3480  178.0750  145.9490 C   0  0  2  0  0  3  0  0  0  0  0  0
  186.5670  176.9970  143.9970 C   0  0  0  0  0  2  0  0  0  0  0  0
  186.9840  175.6690  144.0950 O   0  0  0  0  0  1  0  0  0  0  0  0
  183.8500  179.3060  144.4220 C   0  0  0  0  0  2  0  0  0  0  0  0
  184.8540  179.3300  145.2980 C   0  0  0  0  0  3  0  0  0  0  0  0
  192.1990  175.7080  147.0420 C   0  0  0  0  0  0  0  0  0  0  0  0
  192.7750  176.2770  148.2230 N   0  0  0  0  0  2  0  0  0  0  0  0
  192.5090  174.5230  146.7460 O   0  0  0  0  0  0  0  0  0  0  0  0
  192.3680  177.5250  148.8480 C   0  0  0  0  0  2  0  0  0  0  0  0
  193.1930  177.7940  149.9410 O   0  0  0  0  0  1  0  0  0  0  0  0
  188.8910  177.1740  138.6270 C   0  0  0  0  0  2  0  0  0  0  0  0
  189.3720  178.0180  137.4480 C   0  0  2  0  0  3  0  0  0  0  0  0
  189.1470  180.3880  137.6370 O   0  0  0  0  0  1  0  0  0  0  0  0
  187.3050  179.3100  136.8130 O   0  0  0  0  0  0  0  0  0  0  0  0
  188.6050  179.3010  137.3140 C   0  0  0  0  0  0  0  0  0  0  0  0
  189.4010  177.2490  136.1560 C   0  0  0  0  0  0  0  0  0  0  0  0
  189.4640  177.8880  135.0700 O   0  0  0  0  0  0  0  0  0  0  0  0
  189.3330  175.8100  136.1330 N   0  0  0  0  0  0  0  0  0  0  0  0
  190.5550  175.0530  136.0290 C   0  0  0  0  0  0  0  0  0  0  0  0
  192.5010  173.9050  137.1070 C   0  0  0  0  0  0  0  0  0  0  0  0
  190.9950  174.5770  134.6770 C   0  0  0  0  0  2  0  0  0  0  0  0
  191.6480  172.2860  135.3670 C   0  0  0  0  0  0  0  0  0  0  0  0
  190.9660  175.3770  138.3350 O   0  0  0  0  0  1  0  0  0  0  0  0
  193.5360  174.2050  137.9830 O   0  0  0  0  0  1  0  0  0  0  0  0
  190.9110  173.0880  134.5960 C   0  0  0  0  0  3  0  0  0  0  0  0
  192.6160  172.7900  136.3640 C   0  0  0  0  0  3  0  0  0  0  0  0
  191.3020  174.7860  137.1210 C   0  0  0  0  0  0  0  0  0  0  0  0
  191.5700  170.9470  135.1710 F   0  0  0  0  0  0  0  0  0  0  0  0
  186.9150  176.1350  135.7190 C   0  0  0  0  0  2  0  0  0  0  0  0
  185.9940  173.4980  136.5390 C   0  0  1  0  0  3  0  0  0  0  0  0
  185.3330  172.6570  137.6190 C   0  0  0  0  0  1  0  0  0  0  0  0
  185.1990  174.7920  136.2730 C   0  0  1  0  0  3  0  0  0  0  0  0
  188.0630  175.1340  135.8390 C   0  0  2  0  0  3  0  0  0  0  0  0
  187.6840  173.8880  137.1190 S   0  0  0  0  0  0  0  0  0  0  0  0
  185.7840  175.4930  135.2000 O   0  0  0  0  0  0  0  0  0  0  0  0
  182.8990  175.7210  135.5970 C   0  0  0  0  0  0  0  0  0  0  0  0
  182.8920  175.1020  136.9940 C   0  0  0  0  0  2  0  0  0  0  0  0
  183.7160  174.4830  135.9970 C   0  0  2  0  0  3  0  0  0  0  0  0
  182.5440  176.5630  134.7870 O   0  0  0  0  0  0  0  0  0  0  0  0
  1 31  1  6  0  0  0
  1  8  1  0  0  0  0
  2  6  1  0  0  0  0
  2  5  1  0  0  0  0
  5  1  1  6  0  0  0
  5  3  1  0  0  0  0
  6  4  1  6  0  0  0
  6  7  1  0  0  0  0
  7  3  1  0  0  0  0
  8  9  2  0  0  0  0
  9 10  2  0  0  0  0
 10 13  1  0  0  0  0
 11 15  1  0  0  0  0
 11 26  1  0  0  0  0
 12 20  1  0  0  0  0
 12 15  2  0  0  0  0
 13 14  2  0  0  0  0
 13 16  1  0  0  0  0
 14 12  1  0  0  0  0
 16 11  2  0  0  0  0
 17 18  1  0  0  0  0
 19 21  1  0  0  0  0
 19 20  1  0  0  0  0
 20 17  2  0  0  0  0
 21 25  1  6  0  0  0
 21 18  1  0  0  0  0
 22 23  1  0  0  0  0
 22 19  1  0  0  0  0
 24 25  2  0  0  0  0
 26 27  1  0  0  0  0
 27 29  1  0  0  0  0
 28 26  2  0  0  0  0
 29 30  1  0  0  0  0
 32 31  1  1  0  0  0
 34 35  2  0  0  0  0
 35 32  1  0  0  0  0
 35 33  1  0  0  0  0
 36 32  1  0  0  0  0
 37 36  2  0  0  0  0
 38 36  1  0  0  0  0
 39 38  1  0  0  0  0
 39 47  2  0  0  0  0
 40 47  1  0  0  0  0
 40 44  1  0  0  0  0
 41 39  1  0  0  0  0
 42 46  1  0  0  0  0
 45 41  1  0  0  0  0
 45 42  2  0  0  0  0
 46 40  2  0  0  0  0
 47 43  1  0  0  0  0
 48 42  1  0  0  0  0
 49 53  1  0  0  0  0
 50 54  1  0  0  0  0
 50 51  1  1  0  0  0
 52 55  1  6  0  0  0
 52 50  1  0  0  0  0
 53 38  1  1  0  0  0
 53 54  1  0  0  0  0
 55 49  1  0  0  0  0
 56 58  1  0  0  0  0
 56 57  1  0  0  0  0
 58 52  1  0  0  0  0
 58 57  1  1  0  0  0
 59 56  2  0  0  0  0
M  END
>  <MODEL>
7

>  <REMARK>
 VINA RESULT:      -5.4      3.000      6.218
  Name = 
  15 active torsions:
  status: ('A' for Active; 'I' for Inactive)
    1  A    between atoms: C_2  and  N_29
    2  A    between atoms: C_3  and  C_4
    3  A    between atoms: C_4  and  C_15
    4  A    between atoms: C_4  and  C_38
    5  A    between atoms: C_5  and  C_6
    6  A    between atoms: C_7  and  N_49
    7  A    between atoms: C_14  and  C_33
    8  A    between atoms: C_15  and  C_52
    9  A    between atoms: C_18  and  C_50
   10  A    between atoms: C_19  and  C_52
   11  A    between atoms: C_20  and  C_25
   12  A    between atoms: N_31  and  C_43
   13  A    between atoms: C_36  and  N_49
   14  A    between atoms: C_37  and  C_41
   15  A    between atoms: C_52  and  C_59
                            x       y       z     vdW  Elec       q    Type
                         _______ _______ _______ _____ _____    ______ ____

>  <TORSDO>
F 15

$$$$
=
 OpenBabel11062418143D

 59 64  0  0  1  0  0  0  0  0999 V2000
  188.1180  175.7540  137.2920 C   0  0  1  0  0  3  0  0  0  0  0  0
  188.9570  174.9450  135.0400 C   0  0  0  0  0  2  0  0  0  0  0  0
  189.9120  176.8810  135.9670 C   0  0  0  0  0  2  0  0  0  0  0  0
  190.9730  173.5810  135.5100 C   0  0  0  0  0  1  0  0  0  0  0  0
  188.5930  176.1440  135.8790 C   0  0  2  0  0  3  0  0  0  0  0  0
  190.4700  174.9290  135.0280 C   0  0  2  0  0  3  0  0  0  0  0  0
  190.9530  175.9430  135.8720 O   0  0  0  0  0  0  0  0  0  0  0  0
  189.1790  176.0540  138.3020 C   0  0  0  0  0  3  0  0  0  0  0  0
  189.1140  177.0950  139.0830 C   0  0  0  0  0  0  0  0  0  0  0  0
  189.0640  178.1260  139.8870 C   0  0  0  0  0  3  0  0  0  0  0  0
  186.1640  178.3700  142.3010 C   0  0  0  0  0  0  0  0  0  0  0  0
  188.1450  177.8180  143.5220 C   0  0  0  0  0  0  0  0  0  0  0  0
  188.2650  178.1240  141.1210 C   0  0  0  0  0  0  0  0  0  0  0  0
  188.8900  177.8430  142.3340 C   0  0  0  0  0  3  0  0  0  0  0  0
  186.8060  178.0810  143.4720 N   0  0  0  0  0  0  0  0  0  0  0  0
  186.8920  178.3780  141.1090 C   0  0  0  0  0  3  0  0  0  0  0  0
  190.1250  177.2750  144.8700 C   0  0  0  0  0  3  0  0  0  0  0  0
  190.7230  176.8260  146.4930 S   0  0  0  0  0  0  0  0  0  0  0  0
  188.1470  177.3110  146.0550 N   0  0  0  0  0  0  0  0  0  0  0  0
  188.8170  177.4600  144.8020 C   0  0  0  0  0  0  0  0  0  0  0  0
  189.0440  177.0540  147.1760 C   0  0  2  0  0  3  0  0  0  0  0  0
  186.7000  177.2780  146.2230 C   0  0  0  0  0  2  0  0  0  0  0  0
  186.2980  178.3150  147.0670 O   0  0  0  0  0  1  0  0  0  0  0  0
  190.1110  178.4490  148.9110 C   0  0  0  0  0  2  0  0  0  0  0  0
  189.0680  178.2240  148.1120 C   0  0  0  0  0  3  0  0  0  0  0  0
  184.7020  178.6160  142.2470 C   0  0  0  0  0  0  0  0  0  0  0  0
  183.9490  179.1230  143.3550 N   0  0  0  0  0  2  0  0  0  0  0  0
  184.0830  178.3630  141.1790 O   0  0  0  0  0  0  0  0  0  0  0  0
  184.5070  179.6850  144.5730 C   0  0  0  0  0  2  0  0  0  0  0  0
  183.8720  179.1270  145.6830 O   0  0  0  0  0  1  0  0  0  0  0  0
  186.8640  176.5130  137.7200 C   0  0  0  0  0  2  0  0  0  0  0  0
  186.4500  177.5500  136.6770 C   0  0  2  0  0  3  0  0  0  0  0  0
  185.8020  179.0740  138.3990 O   0  0  0  0  0  1  0  0  0  0  0  0
  186.7840  180.0450  136.5750 O   0  0  0  0  0  0  0  0  0  0  0  0
  186.3190  178.9260  137.2630 C   0  0  0  0  0  0  0  0  0  0  0  0
  185.2170  177.1500  135.9160 C   0  0  0  0  0  0  0  0  0  0  0  0
  184.9810  177.7030  134.8060 O   0  0  0  0  0  0  0  0  0  0  0  0
  184.2930  176.1740  136.4360 N   0  0  0  0  0  0  0  0  0  0  0  0
  184.3990  174.8060  135.9960 C   0  0  0  0  0  0  0  0  0  0  0  0
  184.8830  172.3970  136.4790 C   0  0  0  0  0  0  0  0  0  0  0  0
  183.9940  174.4650  134.5940 C   0  0  0  0  0  2  0  0  0  0  0  0
  182.7430  172.3950  135.1400 C   0  0  0  0  0  0  0  0  0  0  0  0
  185.3930  174.2080  138.0580 O   0  0  0  0  0  1  0  0  0  0  0  0
  185.9150  171.6210  136.9900 O   0  0  0  0  0  1  0  0  0  0  0  0
  182.7670  173.6140  134.5980 C   0  0  0  0  0  3  0  0  0  0  0  0
  183.9200  171.7720  135.7790 C   0  0  0  0  0  3  0  0  0  0  0  0
  184.8670  173.8450  136.8220 C   0  0  0  0  0  0  0  0  0  0  0  0
  181.6100  171.6580  135.0270 F   0  0  0  0  0  0  0  0  0  0  0  0
  183.1780  178.0220  137.6480 C   0  0  0  0  0  2  0  0  0  0  0  0
  181.2080  176.4410  139.0960 C   0  0  1  0  0  3  0  0  0  0  0  0
  180.8030  175.8060  140.4160 C   0  0  0  0  0  1  0  0  0  0  0  0
  181.6480  177.9060  139.2900 C   0  0  1  0  0  3  0  0  0  0  0  0
  183.0500  176.6060  137.0890 C   0  0  2  0  0  3  0  0  0  0  0  0
  182.5810  175.4420  138.4150 S   0  0  0  0  0  0  0  0  0  0  0  0
  181.9170  178.4900  138.0370 O   0  0  0  0  0  0  0  0  0  0  0  0
  179.8310  179.7220  139.1890 C   0  0  0  0  0  0  0  0  0  0  0  0
  180.9670  180.0840  140.1450 C   0  0  0  0  0  2  0  0  0  0  0  0
  180.5820  178.7050  140.0620 C   0  0  2  0  0  3  0  0  0  0  0  0
  178.9870  180.0120  138.3570 O   0  0  0  0  0  0  0  0  0  0  0  0
  1 31  1  1  0  0  0
  1  8  1  0  0  0  0
  2  5  1  0  0  0  0
  5  3  1  0  0  0  0
  5  1  1  1  0  0  0
  6  2  1  0  0  0  0
  6  4  1  1  0  0  0
  6  7  1  0  0  0  0
  7  3  1  0  0  0  0
  8  9  2  0  0  0  0
  9 10  2  0  0  0  0
 10 13  1  0  0  0  0
 11 15  1  0  0  0  0
 12 20  1  0  0  0  0
 13 14  2  0  0  0  0
 14 12  1  0  0  0  0
 15 12  2  0  0  0  0
 16 13  1  0  0  0  0
 16 11  2  0  0  0  0
 17 18  1  0  0  0  0
 18 21  1  0  0  0  0
 19 22  1  0  0  0  0
 19 21  1  0  0  0  0
 20 17  2  0  0  0  0
 20 19  1  0  0  0  0
 21 25  1  1  0  0  0
 22 23  1  0  0  0  0
 25 24  2  0  0  0  0
 26 11  1  0  0  0  0
 26 27  1  0  0  0  0
 27 29  1  0  0  0  0
 28 26  2  0  0  0  0
 29 30  1  0  0  0  0
 32 35  1  0  0  0  0
 32 31  1  1  0  0  0
 34 35  2  0  0  0  0
 35 33  1  0  0  0  0
 36 38  1  0  0  0  0
 36 32  1  0  0  0  0
 37 36  2  0  0  0  0
 39 38  1  0  0  0  0
 39 47  2  0  0  0  0
 40 47  1  0  0  0  0
 40 44  1  0  0  0  0
 41 45  1  0  0  0  0
 41 39  1  0  0  0  0
 42 46  1  0  0  0  0
 45 42  2  0  0  0  0
 46 40  2  0  0  0  0
 47 43  1  0  0  0  0
 48 42  1  0  0  0  0
 49 55  1  0  0  0  0
 50 52  1  0  0  0  0
 50 51  1  1  0  0  0
 52 55  1  6  0  0  0
 52 58  1  0  0  0  0
 53 38  1  1  0  0  0
 53 49  1  0  0  0  0
 53 54  1  0  0  0  0
 54 50  1  0  0  0  0
 56 58  1  0  0  0  0
 56 57  1  0  0  0  0
 58 57  1  1  0  0  0
 59 56  2  0  0  0  0
M  END
>  <MODEL>
8

>  <REMARK>
 VINA RESULT:      -5.3      1.570      2.102
  Name = 
  15 active torsions:
  status: ('A' for Active; 'I' for Inactive)
    1  A    between atoms: C_2  and  N_29
    2  A    between atoms: C_3  and  C_4
    3  A    between atoms: C_4  and  C_15
    4  A    between atoms: C_4  and  C_38
    5  A    between atoms: C_5  and  C_6
    6  A    between atoms: C_7  and  N_49
    7  A    between atoms: C_14  and  C_33
    8  A    between atoms: C_15  and  C_52
    9  A    between atoms: C_18  and  C_50
   10  A    between atoms: C_19  and  C_52
   11  A    between atoms: C_20  and  C_25
   12  A    between atoms: N_31  and  C_43
   13  A    between atoms: C_36  and  N_49
   14  A    between atoms: C_37  and  C_41
   15  A    between atoms: C_52  and  C_59
                            x       y       z     vdW  Elec       q    Type
                         _______ _______ _______ _____ _____    ______ ____

>  <TORSDO>
F 15

$$$$
=
 OpenBabel11062418143D

 59 64  0  0  1  0  0  0  0  0999 V2000
  187.0970  178.3640  141.5780 C   0  0  1  0  0  3  0  0  0  0  0  0
  187.9440  176.5450  143.1280 C   0  0  0  0  0  2  0  0  0  0  0  0
  189.3950  178.3010  142.5570 C   0  0  0  0  0  2  0  0  0  0  0  0
  187.6200  177.4020  145.4310 C   0  0  0  0  0  1  0  0  0  0  0  0
  188.2790  177.4590  141.9780 C   0  0  2  0  0  3  0  0  0  0  0  0
  188.6310  177.1640  144.3250 C   0  0  2  0  0  3  0  0  0  0  0  0
  189.2130  178.3860  143.9470 O   0  0  0  0  0  0  0  0  0  0  0  0
  187.1120  178.6260  140.1070 C   0  0  0  0  0  3  0  0  0  0  0  0
  188.2140  178.5900  139.4100 C   0  0  0  0  0  0  0  0  0  0  0  0
  189.3040  178.5470  138.6890 C   0  0  0  0  0  3  0  0  0  0  0  0
  191.7510  175.8010  137.8100 C   0  0  0  0  0  0  0  0  0  0  0  0
  189.5480  175.1030  137.1940 C   0  0  0  0  0  0  0  0  0  0  0  0
  189.8750  177.2830  138.2000 C   0  0  0  0  0  0  0  0  0  0  0  0
  189.0280  176.3220  137.6510 C   0  0  0  0  0  3  0  0  0  0  0  0
  190.8910  174.8770  137.2870 N   0  0  0  0  0  0  0  0  0  0  0  0
  191.2420  177.0120  138.2870 C   0  0  0  0  0  3  0  0  0  0  0  0
  188.7890  172.7810  136.9420 C   0  0  0  0  0  3  0  0  0  0  0  0
  187.5840  171.6990  136.1840 S   0  0  0  0  0  0  0  0  0  0  0  0
  187.4820  174.3340  135.8480 N   0  0  0  0  0  0  0  0  0  0  0  0
  188.6230  174.0640  136.6630 C   0  0  0  0  0  0  0  0  0  0  0  0
  186.6820  173.1530  135.5420 C   0  0  2  0  0  3  0  0  0  0  0  0
  187.1790  175.6270  135.2480 C   0  0  0  0  0  2  0  0  0  0  0  0
  186.2780  176.3240  136.0550 O   0  0  0  0  0  1  0  0  0  0  0  0
  185.2310  172.9880  137.5330 C   0  0  0  0  0  2  0  0  0  0  0  0
  185.3510  173.2250  136.2260 C   0  0  0  0  0  3  0  0  0  0  0  0
  193.2040  175.5350  137.9440 C   0  0  0  0  0  0  0  0  0  0  0  0
  193.8730  174.4630  137.2680 N   0  0  0  0  0  2  0  0  0  0  0  0
  193.8920  176.2800  138.6930 O   0  0  0  0  0  0  0  0  0  0  0  0
  193.3110  173.6530  136.2010 C   0  0  0  0  0  2  0  0  0  0  0  0
  193.3180  174.3770  135.0080 O   0  0  0  0  0  1  0  0  0  0  0  0
  185.7420  177.7430  141.9100 C   0  0  0  0  0  2  0  0  0  0  0  0
  184.5990  178.7290  141.6780 C   0  0  2  0  0  3  0  0  0  0  0  0
  182.9110  178.4370  143.3440 O   0  0  0  0  0  0  0  0  0  0  0  0
  184.3510  180.1730  143.7280 O   0  0  0  0  0  1  0  0  0  0  0  0
  183.9020  179.1060  142.9540 C   0  0  0  0  0  0  0  0  0  0  0  0
  183.6270  178.2580  140.6330 C   0  0  0  0  0  0  0  0  0  0  0  0
  183.8560  177.1700  140.0350 O   0  0  0  0  0  0  0  0  0  0  0  0
  182.4610  179.0300  140.2840 N   0  0  0  0  0  0  0  0  0  0  0  0
  181.1960  178.6990  140.8900 C   0  0  0  0  0  0  0  0  0  0  0  0
  179.5890  176.9970  141.7790 C   0  0  0  0  0  0  0  0  0  0  0  0
  180.2940  179.8130  141.3300 C   0  0  0  0  0  2  0  0  0  0  0  0
  179.6520  178.8300  143.5150 C   0  0  0  0  0  0  0  0  0  0  0  0
  181.5890  176.4020  140.4840 O   0  0  0  0  0  1  0  0  0  0  0  0
  178.9310  175.8540  141.3430 O   0  0  0  0  0  1  0  0  0  0  0  0
  180.1840  179.8370  142.8190 C   0  0  0  0  0  3  0  0  0  0  0  0
  179.1200  177.6050  142.8830 C   0  0  0  0  0  3  0  0  0  0  0  0
  180.8170  177.4130  141.0480 C   0  0  0  0  0  0  0  0  0  0  0  0
  179.5170  178.9700  144.8560 F   0  0  0  0  0  0  0  0  0  0  0  0
  181.9760  181.2840  139.3860 C   0  0  0  0  0  2  0  0  0  0  0  0
  181.4980  180.5350  136.6150 C   0  0  1  0  0  3  0  0  0  0  0  0
  180.4730  180.2700  135.5240 C   0  0  0  0  0  1  0  0  0  0  0  0
  181.1980  181.8530  137.3560 C   0  0  1  0  0  3  0  0  0  0  0  0
  182.4620  179.8690  139.0790 C   0  0  2  0  0  3  0  0  0  0  0  0
  181.4340  179.1180  137.7700 S   0  0  0  0  0  0  0  0  0  0  0  0
  182.2220  182.1160  138.2870 O   0  0  0  0  0  0  0  0  0  0  0  0
  181.0610  184.4010  137.0370 C   0  0  0  0  0  0  0  0  0  0  0  0
  179.7840  183.6870  136.5970 C   0  0  0  0  0  2  0  0  0  0  0  0
  181.0310  183.0200  136.3650 C   0  0  2  0  0  3  0  0  0  0  0  0
  181.6520  185.3390  137.5470 O   0  0  0  0  0  0  0  0  0  0  0  0
  1  8  1  6  0  0  0
  1 31  1  0  0  0  0
  2  6  1  0  0  0  0
  3  7  1  0  0  0  0
  5  1  1  1  0  0  0
  5  3  1  0  0  0  0
  5  2  1  0  0  0  0
  6  4  1  1  0  0  0
  7  6  1  0  0  0  0
  9  8  2  0  0  0  0
 10  9  2  0  0  0  0
 11 26  1  0  0  0  0
 11 16  1  0  0  0  0
 12 15  1  0  0  0  0
 12 14  2  0  0  0  0
 13 16  2  0  0  0  0
 13 10  1  0  0  0  0
 14 13  1  0  0  0  0
 15 11  2  0  0  0  0
 18 17  1  0  0  0  0
 19 20  1  0  0  0  0
 20 17  2  0  0  0  0
 20 12  1  0  0  0  0
 21 19  1  0  0  0  0
 21 18  1  0  0  0  0
 21 25  1  1  0  0  0
 22 19  1  0  0  0  0
 22 23  1  0  0  0  0
 25 24  2  0  0  0  0
 26 28  2  0  0  0  0
 27 26  1  0  0  0  0
 29 27  1  0  0  0  0
 30 29  1  0  0  0  0
 32 31  1  1  0  0  0
 32 35  1  0  0  0  0
 35 33  2  0  0  0  0
 35 34  1  0  0  0  0
 36 32  1  0  0  0  0
 37 36  2  0  0  0  0
 38 36  1  0  0  0  0
 38 39  1  0  0  0  0
 39 47  2  0  0  0  0
 39 41  1  0  0  0  0
 40 46  2  0  0  0  0
 41 45  1  0  0  0  0
 42 48  1  0  0  0  0
 43 47  1  0  0  0  0
 44 40  1  0  0  0  0
 45 42  2  0  0  0  0
 46 42  1  0  0  0  0
 47 40  1  0  0  0  0
 50 51  1  6  0  0  0
 50 52  1  0  0  0  0
 50 54  1  0  0  0  0
 52 55  1  1  0  0  0
 53 49  1  0  0  0  0
 53 38  1  1  0  0  0
 54 53  1  0  0  0  0
 55 49  1  0  0  0  0
 56 59  2  0  0  0  0
 57 56  1  0  0  0  0
 58 57  1  1  0  0  0
 58 56  1  0  0  0  0
 58 52  1  0  0  0  0
M  END
>  <MODEL>
9

>  <REMARK>
 VINA RESULT:      -5.2      3.691      8.605
  Name = 
  15 active torsions:
  status: ('A' for Active; 'I' for Inactive)
    1  A    between atoms: C_2  and  N_29
    2  A    between atoms: C_3  and  C_4
    3  A    between atoms: C_4  and  C_15
    4  A    between atoms: C_4  and  C_38
    5  A    between atoms: C_5  and  C_6
    6  A    between atoms: C_7  and  N_49
    7  A    between atoms: C_14  and  C_33
    8  A    between atoms: C_15  and  C_52
    9  A    between atoms: C_18  and  C_50
   10  A    between atoms: C_19  and  C_52
   11  A    between atoms: C_20  and  C_25
   12  A    between atoms: N_31  and  C_43
   13  A    between atoms: C_36  and  N_49
   14  A    between atoms: C_37  and  C_41
   15  A    between atoms: C_52  and  C_59
                            x       y       z     vdW  Elec       q    Type
                         _______ _______ _______ _____ _____    ______ ____

>  <TORSDO>
F 15

$$$$
