=
 OpenBabel11062417113D

 36 40  0  0  1  0  0  0  0  0999 V2000
  184.3090  177.8270  138.8870 C   0  0  2  0  0  3  0  0  0  0  0  0
  183.5960  177.3970  141.2320 O   0  0  0  0  0  0  0  0  0  0  0  0
  186.2080  178.0430  143.6100 C   0  0  0  0  0  2  0  0  0  0  0  0
  186.5090  178.4660  142.2550 N   0  0  0  0  0  0  0  0  0  0  0  0
  181.9030  178.4280  139.7620 C   0  0  0  0  0  2  0  0  0  0  0  0
  185.6110  178.6780  141.3480 C   0  0  0  0  0  0  0  0  0  0  0  0
  183.8510  178.8390  143.1240 C   0  0  0  0  0  0  0  0  0  0  0  0
  181.3370  178.4740  138.3400 C   0  0  0  0  0  2  0  0  0  0  0  0
  182.6960  179.1950  143.4840 O   0  0  0  0  0  0  0  0  0  0  0  0
  184.1340  178.6170  141.6710 C   0  0  2  0  0  3  0  0  0  0  0  0
  184.8820  179.1050  139.0750 O   0  0  0  0  0  0  0  0  0  0  0  0
  184.7070  178.9070  145.4040 C   0  0  0  0  0  3  0  0  0  0  0  0
  183.8740  177.6860  137.4230 C   0  0  0  0  0  2  0  0  0  0  0  0
  182.7690  176.7350  137.2580 N   0  0  0  0  0  0  0  0  0  0  0  0
  186.0210  178.9980  139.9180 C   0  0  2  0  0  3  0  0  0  0  0  0
  183.1630  177.5560  139.8970 C   0  0  1  0  0  3  0  0  0  0  0  0
  181.3980  177.1140  137.6350 C   0  0  0  0  0  2  0  0  0  0  0  0
  184.9240  178.6370  144.1100 C   0  0  0  0  0  0  0  0  0  0  0  0
  183.6590  172.6990  136.2530 C   0  0  0  0  0  0  0  0  0  0  0  0
  182.0060  175.6530  134.5940 C   0  0  0  0  0  1  0  0  0  0  0  0
  183.7600  174.5550  137.7970 C   0  0  0  0  0  3  0  0  0  0  0  0
  182.6790  174.8330  135.6420 C   0  0  0  0  0  0  0  0  0  0  0  0
  183.0630  175.3740  136.8920 C   0  0  0  0  0  0  0  0  0  0  0  0
  182.9800  173.5020  135.3350 C   0  0  0  0  0  3  0  0  0  0  0  0
  184.0560  173.2280  137.4810 C   0  0  0  0  0  3  0  0  0  0  0  0
  184.2150  170.1880  135.6530 C   0  0  0  0  0  3  0  0  0  0  0  0
  183.9620  171.3340  135.9270 C   0  0  0  0  0  0  0  0  0  0  0  0
  188.1970  177.3170  137.3580 C   0  0  0  0  0  2  0  0  0  0  0  0
  189.5010  177.8230  139.3700 N   0  0  0  0  0  2  0  0  0  0  0  0
  188.3130  178.3040  140.1010 C   0  0  0  0  0  2  0  0  0  0  0  0
  187.0430  178.0750  139.3810 N   0  0  2  0  0  0  0  0  0  0  0  0
  187.2770  178.3760  137.9660 C   0  0  0  0  0  2  0  0  0  0  0  0
  189.1460  176.7680  138.4220 C   0  0  0  0  0  2  0  0  0  0  0  0
  186.4170  177.5670  146.6450 O   0  0  0  0  0  0  0  0  0  0  0  0
  185.6630  178.7270  146.5090 C   0  0  0  0  0  0  0  0  0  0  0  0
  185.8020  179.6510  147.3510 O   0  0  0  0  0  1  0  0  0  0  0  0
  1 13  1  6  0  0  0
  1 11  1  0  0  0  0
  1 16  1  0  0  0  0
  3 18  1  0  0  0  0
  4  3  1  0  0  0  0
  6 10  1  0  0  0  0
  6  4  2  0  0  0  0
  7  9  2  0  0  0  0
  7 18  1  0  0  0  0
  8  5  1  0  0  0  0
 10  2  1  1  0  0  0
 10  7  1  0  0  0  0
 12 35  1  0  0  0  0
 14 13  1  0  0  0  0
 14 17  1  0  0  0  0
 15 11  1  6  0  0  0
 15  6  1  0  0  0  0
 16  5  1  1  0  0  0
 16  2  1  0  0  0  0
 17  8  1  0  0  0  0
 18 12  2  0  0  0  0
 19 25  1  0  0  0  0
 20 22  1  0  0  0  0
 22 23  2  0  0  0  0
 23 14  1  0  0  0  0
 23 21  1  0  0  0  0
 24 22  1  0  0  0  0
 24 19  2  0  0  0  0
 25 21  2  0  0  0  0
 26 27  3  0  0  0  0
 27 19  1  0  0  0  0
 28 32  1  0  0  0  0
 28 33  1  0  0  0  0
 29 30  1  0  0  0  0
 31 32  1  6  0  0  0
 31 15  1  0  0  0  0
 31 30  1  0  0  0  0
 33 29  1  0  0  0  0
 35 34  2  0  0  0  0
 35 36  1  0  0  0  0
M  END
>  <MODEL>
1

>  <REMARK>
 VINA RESULT:      -7.8      0.000      0.000
  Name = 
  4 active torsions:
  status: ('A' for Active; 'I' for Inactive)
    1  A    between atoms: C_3  and  C_26
    2  A    between atoms: C_20  and  C_27
    3  A    between atoms: N_21  and  C_31
    4  A    between atoms: N_29  and  C_30
                            x       y       z     vdW  Elec       q    Type
                         _______ _______ _______ _____ _____    ______ ____

>  <TORSDO>
F 4

$$$$
=
 OpenBabel11062417113D

 36 40  0  0  1  0  0  0  0  0999 V2000
  183.0660  178.5590  140.3740 C   0  0  2  0  0  3  0  0  0  0  0  0
  183.3860  177.8310  142.7320 O   0  0  0  0  0  0  0  0  0  0  0  0
  186.8500  177.5320  143.6260 C   0  0  0  0  0  2  0  0  0  0  0  0
  186.6140  178.1420  142.3310 N   0  0  0  0  0  0  0  0  0  0  0  0
  181.5320  179.4100  142.3320 C   0  0  0  0  0  2  0  0  0  0  0  0
  185.4910  178.6800  141.9810 C   0  0  0  0  0  0  0  0  0  0  0  0
  184.8030  178.8190  144.3860 C   0  0  0  0  0  0  0  0  0  0  0  0
  180.4250  179.8260  141.3590 C   0  0  0  0  0  2  0  0  0  0  0  0
  184.0570  179.3040  145.2790 O   0  0  0  0  0  0  0  0  0  0  0  0
  184.3470  178.8290  142.9600 C   0  0  2  0  0  3  0  0  0  0  0  0
  183.9600  179.6540  140.3710 O   0  0  0  0  0  0  0  0  0  0  0  0
  186.5690  178.3000  145.9820 C   0  0  0  0  0  3  0  0  0  0  0  0
  182.0070  178.7780  139.2860 C   0  0  0  0  0  2  0  0  0  0  0  0
  180.7460  178.0920  139.5880 N   0  0  0  0  0  0  0  0  0  0  0  0
  185.2890  179.1850  140.5590 C   0  0  2  0  0  3  0  0  0  0  0  0
  182.4610  178.3150  141.7800 C   0  0  1  0  0  3  0  0  0  0  0  0
  179.8270  178.6350  140.6010 C   0  0  0  0  0  2  0  0  0  0  0  0
  186.1150  178.2440  144.7230 C   0  0  0  0  0  0  0  0  0  0  0  0
  180.0130  174.2270  137.9720 C   0  0  0  0  0  0  0  0  0  0  0  0
  180.1300  177.7720  136.6960 C   0  0  0  0  0  1  0  0  0  0  0  0
  180.5910  175.6550  139.8340 C   0  0  0  0  0  3  0  0  0  0  0  0
  180.1720  176.6260  137.6490 C   0  0  0  0  0  0  0  0  0  0  0  0
  180.4980  176.7940  139.0160 C   0  0  0  0  0  0  0  0  0  0  0  0
  179.9320  175.3450  137.1420 C   0  0  0  0  0  3  0  0  0  0  0  0
  180.3490  174.3820  139.3170 C   0  0  0  0  0  3  0  0  0  0  0  0
  179.5530  171.8170  136.9930 C   0  0  0  0  0  3  0  0  0  0  0  0
  179.7630  172.9170  137.4400 C   0  0  0  0  0  0  0  0  0  0  0  0
  185.4580  177.5490  137.1820 C   0  0  0  0  0  2  0  0  0  0  0  0
  187.6960  177.6640  138.1760 N   0  0  0  0  0  2  0  0  0  0  0  0
  187.1760  178.2020  139.4480 C   0  0  0  0  0  2  0  0  0  0  0  0
  185.7020  178.2110  139.5270 N   0  0  2  0  0  0  0  0  0  0  0  0
  185.1910  178.6370  138.2210 C   0  0  0  0  0  2  0  0  0  0  0  0
  186.7240  176.7730  137.5430 C   0  0  0  0  0  2  0  0  0  0  0  0
  189.0550  178.0410  145.8800 O   0  0  0  0  0  0  0  0  0  0  0  0
  187.8380  177.7440  146.4810 C   0  0  0  0  0  0  0  0  0  0  0  0
  187.8170  176.9810  147.4820 O   0  0  0  0  0  1  0  0  0  0  0  0
  1 13  1  6  0  0  0
  1 16  1  0  0  0  0
  2 10  1  0  0  0  0
  3 18  1  0  0  0  0
  4  3  1  0  0  0  0
  6  4  2  0  0  0  0
  7 18  1  0  0  0  0
  7  9  2  0  0  0  0
  8  5  1  0  0  0  0
 10  6  1  6  0  0  0
 10  7  1  0  0  0  0
 11  1  1  0  0  0  0
 12 35  1  0  0  0  0
 13 14  1  0  0  0  0
 14 17  1  0  0  0  0
 15 11  1  6  0  0  0
 15  6  1  0  0  0  0
 16  5  1  1  0  0  0
 16  2  1  0  0  0  0
 17  8  1  0  0  0  0
 18 12  2  0  0  0  0
 19 25  1  0  0  0  0
 20 22  1  0  0  0  0
 22 23  2  0  0  0  0
 23 14  1  0  0  0  0
 23 21  1  0  0  0  0
 24 22  1  0  0  0  0
 24 19  2  0  0  0  0
 25 21  2  0  0  0  0
 26 27  3  0  0  0  0
 27 19  1  0  0  0  0
 28 33  1  0  0  0  0
 28 32  1  0  0  0  0
 29 30  1  0  0  0  0
 30 31  1  0  0  0  0
 31 32  1  6  0  0  0
 31 15  1  0  0  0  0
 33 29  1  0  0  0  0
 34 35  2  0  0  0  0
 35 36  1  0  0  0  0
M  END
>  <MODEL>
2

>  <REMARK>
 VINA RESULT:      -7.2      2.386      2.849
  Name = 
  4 active torsions:
  status: ('A' for Active; 'I' for Inactive)
    1  A    between atoms: C_3  and  C_26
    2  A    between atoms: C_20  and  C_27
    3  A    between atoms: N_21  and  C_31
    4  A    between atoms: N_29  and  C_30
                            x       y       z     vdW  Elec       q    Type
                         _______ _______ _______ _____ _____    ______ ____

>  <TORSDO>
F 4

$$$$
=
 OpenBabel11062417113D

 36 40  0  0  1  0  0  0  0  0999 V2000
  184.2010  178.3150  139.7700 C   0  0  2  0  0  3  0  0  0  0  0  0
  184.1880  177.5240  142.1290 O   0  0  0  0  0  0  0  0  0  0  0  0
  187.4710  177.4550  143.5810 C   0  0  0  0  0  2  0  0  0  0  0  0
  187.4020  178.0940  142.2800 N   0  0  0  0  0  0  0  0  0  0  0  0
  182.3030  178.9720  141.4660 C   0  0  0  0  0  2  0  0  0  0  0  0
  186.3120  178.5580  141.7610 C   0  0  0  0  0  0  0  0  0  0  0  0
  185.2300  178.5530  144.0210 C   0  0  0  0  0  0  0  0  0  0  0  0
  181.3410  179.3400  140.3330 C   0  0  0  0  0  2  0  0  0  0  0  0
  184.3100  178.9450  144.7890 O   0  0  0  0  0  0  0  0  0  0  0  0
  185.0150  178.5820  142.5390 C   0  0  2  0  0  3  0  0  0  0  0  0
  184.9920  179.4740  139.9430 O   0  0  0  0  0  0  0  0  0  0  0  0
  186.7450  178.1080  145.8750 C   0  0  0  0  0  3  0  0  0  0  0  0
  183.3210  178.4950  138.5270 C   0  0  0  0  0  2  0  0  0  0  0  0
  182.0880  177.7040  138.5970 N   0  0  0  0  0  0  0  0  0  0  0  0
  186.3060  179.1000  140.3390 C   0  0  2  0  0  3  0  0  0  0  0  0
  183.3950  177.9730  141.0490 C   0  0  1  0  0  3  0  0  0  0  0  0
  180.9740  178.1370  139.4560 C   0  0  0  0  0  2  0  0  0  0  0  0
  186.5100  178.0670  144.5570 C   0  0  0  0  0  0  0  0  0  0  0  0
  182.0070  173.8640  136.7690 C   0  0  0  0  0  0  0  0  0  0  0  0
  180.1540  177.1280  136.4110 C   0  0  0  0  0  1  0  0  0  0  0  0
  182.9600  175.4230  138.3510 C   0  0  0  0  0  3  0  0  0  0  0  0
  181.1090  176.1120  136.9400 C   0  0  0  0  0  0  0  0  0  0  0  0
  182.0430  176.4140  137.9590 C   0  0  0  0  0  0  0  0  0  0  0  0
  181.1000  174.8410  136.3560 C   0  0  0  0  0  3  0  0  0  0  0  0
  182.9420  174.1580  137.7620 C   0  0  0  0  0  3  0  0  0  0  0  0
  181.9700  171.4700  135.6540 C   0  0  0  0  0  3  0  0  0  0  0  0
  181.9880  172.5630  136.1630 C   0  0  0  0  0  0  0  0  0  0  0  0
  187.1670  177.6180  136.9960 C   0  0  0  0  0  2  0  0  0  0  0  0
  189.1900  177.8500  138.3610 N   0  0  0  0  0  2  0  0  0  0  0  0
  188.4230  178.2980  139.5400 C   0  0  0  0  0  2  0  0  0  0  0  0
  186.9600  178.2000  139.3660 N   0  0  2  0  0  0  0  0  0  0  0  0
  186.6460  178.6420  138.0040 C   0  0  0  0  0  2  0  0  0  0  0  0
  188.4090  176.9190  137.5470 C   0  0  0  0  0  2  0  0  0  0  0  0
  189.2300  178.0000  146.1480 O   0  0  0  0  0  0  0  0  0  0  0  0
  187.9560  177.6320  146.5650 C   0  0  0  0  0  0  0  0  0  0  0  0
  187.8310  176.8730  147.5610 O   0  0  0  0  0  1  0  0  0  0  0  0
  1 13  1  6  0  0  0
  1 11  1  0  0  0  0
  1 16  1  0  0  0  0
  2 10  1  0  0  0  0
  3 18  1  0  0  0  0
  4  3  1  0  0  0  0
  6  4  2  0  0  0  0
  7 18  1  0  0  0  0
  7  9  2  0  0  0  0
  8  5  1  0  0  0  0
 10  6  1  6  0  0  0
 10  7  1  0  0  0  0
 12 35  1  0  0  0  0
 13 14  1  0  0  0  0
 14 17  1  0  0  0  0
 15 11  1  6  0  0  0
 15  6  1  0  0  0  0
 16  5  1  1  0  0  0
 16  2  1  0  0  0  0
 17  8  1  0  0  0  0
 18 12  2  0  0  0  0
 19 25  1  0  0  0  0
 20 22  1  0  0  0  0
 22 23  2  0  0  0  0
 23 21  1  0  0  0  0
 23 14  1  0  0  0  0
 24 19  2  0  0  0  0
 24 22  1  0  0  0  0
 25 21  2  0  0  0  0
 26 27  3  0  0  0  0
 27 19  1  0  0  0  0
 28 33  1  0  0  0  0
 28 32  1  0  0  0  0
 29 30  1  0  0  0  0
 31 32  1  6  0  0  0
 31 30  1  0  0  0  0
 31 15  1  0  0  0  0
 33 29  1  0  0  0  0
 34 35  2  0  0  0  0
 35 36  1  0  0  0  0
M  END
>  <MODEL>
3

>  <REMARK>
 VINA RESULT:      -7.2      1.423      1.819
  Name = 
  4 active torsions:
  status: ('A' for Active; 'I' for Inactive)
    1  A    between atoms: C_3  and  C_26
    2  A    between atoms: C_20  and  C_27
    3  A    between atoms: N_21  and  C_31
    4  A    between atoms: N_29  and  C_30
                            x       y       z     vdW  Elec       q    Type
                         _______ _______ _______ _____ _____    ______ ____

>  <TORSDO>
F 4

$$$$
=
 OpenBabel11062417113D

 36 40  0  0  1  0  0  0  0  0999 V2000
  185.4640  178.1950  140.2000 C   0  0  2  0  0  3  0  0  0  0  0  0
  184.8950  177.5230  142.5280 O   0  0  0  0  0  0  0  0  0  0  0  0
  187.7630  177.4700  144.6880 C   0  0  0  0  0  2  0  0  0  0  0  0
  188.0070  178.0440  143.3790 N   0  0  0  0  0  0  0  0  0  0  0  0
  183.2510  178.9690  141.3910 C   0  0  0  0  0  2  0  0  0  0  0  0
  187.0760  178.5010  142.6060 C   0  0  0  0  0  0  0  0  0  0  0  0
  185.5120  178.6270  144.5590 C   0  0  0  0  0  0  0  0  0  0  0  0
  182.5800  179.2960  140.0530 C   0  0  0  0  0  2  0  0  0  0  0  0
  184.4540  179.0730  145.0800 O   0  0  0  0  0  0  0  0  0  0  0  0
  185.6380  178.5860  143.0670 C   0  0  2  0  0  3  0  0  0  0  0  0
  186.2270  179.3470  140.4970 O   0  0  0  0  0  0  0  0  0  0  0  0
  186.5560  178.2490  146.7270 C   0  0  0  0  0  3  0  0  0  0  0  0
  184.8920  178.3280  138.7830 C   0  0  0  0  0  2  0  0  0  0  0  0
  183.6530  177.5630  138.6070 N   0  0  0  0  0  0  0  0  0  0  0  0
  187.4070  178.9710  141.1970 C   0  0  2  0  0  3  0  0  0  0  0  0
  184.3800  177.9310  141.2770 C   0  0  1  0  0  3  0  0  0  0  0  0
  182.3860  178.0580  139.1710 C   0  0  0  0  0  2  0  0  0  0  0  0
  186.6240  178.1460  145.3930 C   0  0  0  0  0  0  0  0  0  0  0  0
  183.7690  173.6490  136.9460 C   0  0  0  0  0  0  0  0  0  0  0  0
  185.8030  176.8130  136.6930 C   0  0  0  0  0  1  0  0  0  0  0  0
  182.7680  175.2820  138.4210 C   0  0  0  0  0  3  0  0  0  0  0  0
  184.7130  175.8790  137.0980 C   0  0  0  0  0  0  0  0  0  0  0  0
  183.7170  176.2440  138.0340 C   0  0  0  0  0  0  0  0  0  0  0  0
  184.7290  174.5870  136.5630 C   0  0  0  0  0  3  0  0  0  0  0  0
  182.7930  173.9950  137.8800 C   0  0  0  0  0  3  0  0  0  0  0  0
  183.8160  171.2150  135.9220 C   0  0  0  0  0  3  0  0  0  0  0  0
  183.7950  172.3260  136.3900 C   0  0  0  0  0  0  0  0  0  0  0  0
  189.3810  177.5900  138.3140 C   0  0  0  0  0  2  0  0  0  0  0  0
  190.5610  177.1710  140.4220 N   0  0  0  0  0  2  0  0  0  0  0  0
  189.4480  177.7070  141.2280 C   0  0  0  0  0  2  0  0  0  0  0  0
  188.2380  178.0120  140.4390 N   0  0  2  0  0  0  0  0  0  0  0  0
  188.6730  178.6290  139.1820 C   0  0  0  0  0  2  0  0  0  0  0  0
  190.0680  176.5460  139.1940 C   0  0  0  0  0  2  0  0  0  0  0  0
  187.9300  176.4490  147.7900 O   0  0  0  0  0  0  0  0  0  0  0  0
  187.5660  177.7870  147.6940 C   0  0  0  0  0  0  0  0  0  0  0  0
  188.1160  178.6280  148.4500 O   0  0  0  0  0  1  0  0  0  0  0  0
  1 13  1  6  0  0  0
  1 11  1  0  0  0  0
  1 16  1  0  0  0  0
  3 18  1  0  0  0  0
  4  3  1  0  0  0  0
  6 10  1  0  0  0  0
  6  4  2  0  0  0  0
  7  9  2  0  0  0  0
  7 18  1  0  0  0  0
  8  5  1  0  0  0  0
 10  2  1  1  0  0  0
 10  7  1  0  0  0  0
 12 35  1  0  0  0  0
 14 13  1  0  0  0  0
 14 17  1  0  0  0  0
 15 11  1  6  0  0  0
 15  6  1  0  0  0  0
 16  5  1  1  0  0  0
 16  2  1  0  0  0  0
 17  8  1  0  0  0  0
 18 12  2  0  0  0  0
 19 25  1  0  0  0  0
 20 22  1  0  0  0  0
 22 23  2  0  0  0  0
 23 21  1  0  0  0  0
 23 14  1  0  0  0  0
 24 19  2  0  0  0  0
 24 22  1  0  0  0  0
 25 21  2  0  0  0  0
 26 27  3  0  0  0  0
 27 19  1  0  0  0  0
 28 32  1  0  0  0  0
 28 33  1  0  0  0  0
 29 30  1  0  0  0  0
 31 32  1  6  0  0  0
 31 15  1  0  0  0  0
 31 30  1  0  0  0  0
 33 29  1  0  0  0  0
 35 34  2  0  0  0  0
 35 36  1  0  0  0  0
M  END
>  <MODEL>
4

>  <REMARK>
 VINA RESULT:      -6.9      1.603      2.058
  Name = 
  4 active torsions:
  status: ('A' for Active; 'I' for Inactive)
    1  A    between atoms: C_3  and  C_26
    2  A    between atoms: C_20  and  C_27
    3  A    between atoms: N_21  and  C_31
    4  A    between atoms: N_29  and  C_30
                            x       y       z     vdW  Elec       q    Type
                         _______ _______ _______ _____ _____    ______ ____

>  <TORSDO>
F 4

$$$$
=
 OpenBabel11062417113D

 36 40  0  0  1  0  0  0  0  0999 V2000
  184.9790  178.5640  141.3000 C   0  0  2  0  0  3  0  0  0  0  0  0
  185.9290  177.2950  143.2190 O   0  0  0  0  0  0  0  0  0  0  0  0
  189.4180  176.5600  142.7950 C   0  0  0  0  0  2  0  0  0  0  0  0
  188.8690  177.4640  141.8030 N   0  0  0  0  0  0  0  0  0  0  0  0
  184.2900  179.0490  143.7900 C   0  0  0  0  0  2  0  0  0  0  0  0
  187.7820  178.1450  141.9690 C   0  0  0  0  0  0  0  0  0  0  0  0
  187.9270  177.7780  144.4430 C   0  0  0  0  0  0  0  0  0  0  0  0
  183.0010  179.7530  143.3550 C   0  0  0  0  0  2  0  0  0  0  0  0
  187.5820  178.0960  145.6130 O   0  0  0  0  0  0  0  0  0  0  0  0
  187.0450  178.1450  143.2900 C   0  0  2  0  0  3  0  0  0  0  0  0
  185.9720  179.5650  141.2010 O   0  0  0  0  0  0  0  0  0  0  0  0
  190.0170  176.7850  145.2060 C   0  0  0  0  0  3  0  0  0  0  0  0
  183.6710  179.0990  140.7050 C   0  0  0  0  0  2  0  0  0  0  0  0
  182.4890  178.4520  141.2840 N   0  0  0  0  0  0  0  0  0  0  0  0
  187.2100  178.9740  140.8280 C   0  0  2  0  0  3  0  0  0  0  0  0
  184.8270  178.0480  142.7540 C   0  0  1  0  0  3  0  0  0  0  0  0
  182.0290  178.8120  142.6350 C   0  0  0  0  0  2  0  0  0  0  0  0
  189.1810  177.0510  144.1930 C   0  0  0  0  0  0  0  0  0  0  0  0
  180.7900  175.1370  139.2300 C   0  0  0  0  0  0  0  0  0  0  0  0
  179.5490  178.0010  141.3440 C   0  0  0  0  0  1  0  0  0  0  0  0
  182.7060  176.4760  139.8440 C   0  0  0  0  0  3  0  0  0  0  0  0
  180.4960  177.0910  140.6380 C   0  0  0  0  0  0  0  0  0  0  0  0
  181.8890  177.3400  140.5930 C   0  0  0  0  0  0  0  0  0  0  0  0
  179.9610  175.9930  139.9560 C   0  0  0  0  0  3  0  0  0  0  0  0
  182.1620  175.3830  139.1680 C   0  0  0  0  0  3  0  0  0  0  0  0
  179.7600  173.0670  137.9540 C   0  0  0  0  0  3  0  0  0  0  0  0
  180.2300  174.0120  138.5360 C   0  0  0  0  0  0  0  0  0  0  0  0
  185.9260  178.0290  137.4270 C   0  0  0  0  0  2  0  0  0  0  0  0
  188.3780  178.0430  137.4280 N   0  0  0  0  0  2  0  0  0  0  0  0
  188.4410  178.3030  138.8790 C   0  0  0  0  0  2  0  0  0  0  0  0
  187.1280  178.2350  139.5510 N   0  0  2  0  0  0  0  0  0  0  0  0
  186.1490  178.8840  138.6740 C   0  0  0  0  0  2  0  0  0  0  0  0
  187.1970  177.2510  137.0860 C   0  0  0  0  0  2  0  0  0  0  0  0
  192.0550  175.7800  146.2490 O   0  0  0  0  0  1  0  0  0  0  0  0
  191.2860  176.0430  145.1230 C   0  0  0  0  0  0  0  0  0  0  0  0
  191.6800  175.6340  144.0000 O   0  0  0  0  0  0  0  0  0  0  0  0
  1 13  1  1  0  0  0
  1 16  1  0  0  0  0
  2 10  1  0  0  0  0
  3 18  1  0  0  0  0
  4  6  2  0  0  0  0
  4  3  1  0  0  0  0
  7  9  2  0  0  0  0
  8  5  1  0  0  0  0
 10  6  1  6  0  0  0
 10  7  1  0  0  0  0
 11  1  1  0  0  0  0
 13 14  1  0  0  0  0
 14 17  1  0  0  0  0
 15 11  1  1  0  0  0
 15  6  1  0  0  0  0
 16  2  1  0  0  0  0
 16  5  1  1  0  0  0
 17  8  1  0  0  0  0
 18  7  1  0  0  0  0
 18 12  2  0  0  0  0
 19 24  1  0  0  0  0
 21 23  2  0  0  0  0
 22 20  1  0  0  0  0
 23 22  1  0  0  0  0
 23 14  1  0  0  0  0
 24 22  2  0  0  0  0
 25 19  2  0  0  0  0
 25 21  1  0  0  0  0
 26 27  3  0  0  0  0
 27 19  1  0  0  0  0
 28 32  1  0  0  0  0
 29 30  1  0  0  0  0
 30 31  1  0  0  0  0
 31 32  1  6  0  0  0
 31 15  1  0  0  0  0
 33 28  1  0  0  0  0
 33 29  1  0  0  0  0
 35 12  1  0  0  0  0
 35 34  1  0  0  0  0
 36 35  2  0  0  0  0
M  END
>  <MODEL>
5

>  <REMARK>
 VINA RESULT:      -6.7      2.811      4.399
  Name = 
  4 active torsions:
  status: ('A' for Active; 'I' for Inactive)
    1  A    between atoms: C_3  and  C_26
    2  A    between atoms: C_20  and  C_27
    3  A    between atoms: N_21  and  C_31
    4  A    between atoms: N_29  and  C_30
                            x       y       z     vdW  Elec       q    Type
                         _______ _______ _______ _____ _____    ______ ____

>  <TORSDO>
F 4

$$$$
=
 OpenBabel11062417113D

 36 40  0  0  1  0  0  0  0  0999 V2000
  187.2760  177.0900  137.9700 C   0  0  2  0  0  3  0  0  0  0  0  0
  187.1620  174.6590  137.4500 O   0  0  0  0  0  0  0  0  0  0  0  0
  183.8070  173.5340  136.8390 C   0  0  0  0  0  2  0  0  0  0  0  0
  183.9480  174.9740  136.9500 N   0  0  0  0  0  0  0  0  0  0  0  0
  189.0880  175.8750  136.5020 C   0  0  0  0  0  2  0  0  0  0  0  0
  185.0670  175.6040  136.7910 C   0  0  0  0  0  0  0  0  0  0  0  0
  186.0300  173.6070  135.6230 C   0  0  0  0  0  0  0  0  0  0  0  0
  190.1100  176.9900  136.7420 C   0  0  0  0  0  2  0  0  0  0  0  0
  186.9100  173.1030  134.8760 O   0  0  0  0  0  0  0  0  0  0  0  0
  186.3220  174.8850  136.3480 C   0  0  2  0  0  3  0  0  0  0  0  0
  186.4850  177.5680  136.9010 O   0  0  0  0  0  0  0  0  0  0  0  0
  184.4170  171.8600  135.0940 C   0  0  0  0  0  3  0  0  0  0  0  0
  188.2210  178.2070  138.4300 C   0  0  0  0  0  2  0  0  0  0  0  0
  189.4440  177.6840  139.0490 N   0  0  0  0  0  0  0  0  0  0  0  0
  185.1500  177.1020  137.0480 C   0  0  2  0  0  3  0  0  0  0  0  0
  188.0120  175.7770  137.5970 C   0  0  1  0  0  3  0  0  0  0  0  0
  190.5150  177.1130  138.2160 C   0  0  0  0  0  2  0  0  0  0  0  0
  184.7200  172.9600  135.7960 C   0  0  0  0  0  0  0  0  0  0  0  0
  189.5670  177.3460  143.2870 C   0  0  0  0  0  0  0  0  0  0  0  0
  192.0560  177.5030  140.4600 C   0  0  0  0  0  1  0  0  0  0  0  0
  188.3220  177.5920  141.2300 C   0  0  0  0  0  3  0  0  0  0  0  0
  190.7450  177.4530  141.1680 C   0  0  0  0  0  0  0  0  0  0  0  0
  189.5130  177.5730  140.4830 C   0  0  0  0  0  0  0  0  0  0  0  0
  190.7600  177.3410  142.5620 C   0  0  0  0  0  3  0  0  0  0  0  0
  188.3490  177.4780  142.6210 C   0  0  0  0  0  3  0  0  0  0  0  0
  189.6180  177.1300  145.9190 C   0  0  0  0  0  3  0  0  0  0  0  0
  189.5950  177.2280  144.7170 C   0  0  0  0  0  0  0  0  0  0  0  0
  184.1790  179.3770  139.8750 C   0  0  0  0  0  2  0  0  0  0  0  0
  182.2980  177.9230  139.2800 N   0  0  0  0  0  2  0  0  0  0  0  0
  183.1070  177.1630  138.3070 C   0  0  0  0  0  2  0  0  0  0  0  0
  184.5420  177.5100  138.3320 N   0  0  2  0  0  0  0  0  0  0  0  0
  184.6420  178.9660  138.4780 C   0  0  0  0  0  2  0  0  0  0  0  0
  183.1210  178.4020  140.3900 C   0  0  0  0  0  2  0  0  0  0  0  0
  181.9830  171.5370  134.6120 O   0  0  0  0  0  0  0  0  0  0  0  0
  183.1680  171.0830  135.1780 C   0  0  0  0  0  0  0  0  0  0  0  0
  183.1790  169.9770  135.7780 O   0  0  0  0  0  1  0  0  0  0  0  0
  1 13  1  6  0  0  0
  2 16  1  0  0  0  0
  3  4  1  0  0  0  0
  5  8  1  0  0  0  0
  6  4  2  0  0  0  0
  7 18  1  0  0  0  0
  8 17  1  0  0  0  0
  9  7  2  0  0  0  0
 10  7  1  1  0  0  0
 10  6  1  0  0  0  0
 10  2  1  0  0  0  0
 11 15  1  0  0  0  0
 11  1  1  0  0  0  0
 12 35  1  0  0  0  0
 12 18  2  0  0  0  0
 13 14  1  0  0  0  0
 14 23  1  0  0  0  0
 15  6  1  1  0  0  0
 15 31  1  0  0  0  0
 16  5  1  6  0  0  0
 16  1  1  0  0  0  0
 17 14  1  0  0  0  0
 18  3  1  0  0  0  0
 19 27  1  0  0  0  0
 20 22  1  0  0  0  0
 21 25  2  0  0  0  0
 22 24  1  0  0  0  0
 23 22  2  0  0  0  0
 23 21  1  0  0  0  0
 24 19  2  0  0  0  0
 25 19  1  0  0  0  0
 27 26  3  0  0  0  0
 28 33  1  0  0  0  0
 29 33  1  0  0  0  0
 30 29  1  0  0  0  0
 31 30  1  6  0  0  0
 31 32  1  0  0  0  0
 32 28  1  0  0  0  0
 34 35  2  0  0  0  0
 35 36  1  0  0  0  0
M  END
>  <MODEL>
6

>  <REMARK>
 VINA RESULT:      -6.6      3.607      8.874
  Name = 
  4 active torsions:
  status: ('A' for Active; 'I' for Inactive)
    1  A    between atoms: C_3  and  C_26
    2  A    between atoms: C_20  and  C_27
    3  A    between atoms: N_21  and  C_31
    4  A    between atoms: N_29  and  C_30
                            x       y       z     vdW  Elec       q    Type
                         _______ _______ _______ _____ _____    ______ ____

>  <TORSDO>
F 4

$$$$
=
 OpenBabel11062417113D

 36 40  0  0  1  0  0  0  0  0999 V2000
  183.6690  177.9010  139.0520 C   0  0  2  0  0  3  0  0  0  0  0  0
  183.7310  175.5440  138.2560 O   0  0  0  0  0  0  0  0  0  0  0  0
  180.4570  174.0950  137.9800 C   0  0  0  0  0  2  0  0  0  0  0  0
  180.4630  175.5200  138.2470 N   0  0  0  0  0  0  0  0  0  0  0  0
  185.3540  177.0790  137.2080 C   0  0  0  0  0  2  0  0  0  0  0  0
  181.4730  176.2950  138.0150 C   0  0  0  0  0  0  0  0  0  0  0  0
  182.4510  174.5660  136.4870 C   0  0  0  0  0  0  0  0  0  0  0  0
  186.2800  178.2770  137.4410 C   0  0  0  0  0  2  0  0  0  0  0  0
  183.2560  174.2550  135.5680 O   0  0  0  0  0  0  0  0  0  0  0  0
  182.7150  175.7840  137.3170 C   0  0  2  0  0  3  0  0  0  0  0  0
  182.6800  178.3930  138.1700 O   0  0  0  0  0  0  0  0  0  0  0  0
  180.9670  172.7040  135.9730 C   0  0  0  0  0  3  0  0  0  0  0  0
  184.5510  179.0680  139.5110 C   0  0  0  0  0  2  0  0  0  0  0  0
  185.9020  178.6340  139.8860 N   0  0  0  0  0  0  0  0  0  0  0  0
  181.4390  177.7550  138.4420 C   0  0  2  0  0  3  0  0  0  0  0  0
  184.4730  176.7350  138.4210 C   0  0  1  0  0  3  0  0  0  0  0  0
  186.8880  178.2890  138.8480 C   0  0  0  0  0  2  0  0  0  0  0  0
  181.2560  173.7510  136.7570 C   0  0  0  0  0  0  0  0  0  0  0  0
  186.6980  177.8780  143.9950 C   0  0  0  0  0  0  0  0  0  0  0  0
  188.6760  178.0600  140.7910 C   0  0  0  0  0  1  0  0  0  0  0  0
  185.1600  178.4440  142.2180 C   0  0  0  0  0  3  0  0  0  0  0  0
  187.5060  178.0730  141.7150 C   0  0  0  0  0  0  0  0  0  0  0  0
  186.1980  178.3790  141.2710 C   0  0  0  0  0  0  0  0  0  0  0  0
  187.7430  177.8250  143.0710 C   0  0  0  0  0  3  0  0  0  0  0  0
  185.4080  178.1940  143.5690 C   0  0  0  0  0  3  0  0  0  0  0  0
  187.1660  177.4050  146.5510 C   0  0  0  0  0  3  0  0  0  0  0  0
  186.9520  177.6200  145.3840 C   0  0  0  0  0  0  0  0  0  0  0  0
  180.4310  179.6010  141.5540 C   0  0  0  0  0  2  0  0  0  0  0  0
  178.9380  177.6920  141.1860 N   0  0  0  0  0  2  0  0  0  0  0  0
  179.7270  177.2120  140.0350 C   0  0  0  0  0  2  0  0  0  0  0  0
  180.9920  177.9470  139.8380 N   0  0  2  0  0  0  0  0  0  0  0  0
  180.7190  179.3680  140.0720 C   0  0  0  0  0  2  0  0  0  0  0  0
  179.7920  178.3570  142.1700 C   0  0  0  0  0  2  0  0  0  0  0  0
  178.9310  171.5400  135.1030 O   0  0  0  0  0  0  0  0  0  0  0  0
  179.8330  171.7770  136.1330 C   0  0  0  0  0  0  0  0  0  0  0  0
  179.6820  171.1820  137.2310 O   0  0  0  0  0  1  0  0  0  0  0  0
  1 13  1  6  0  0  0
  2 16  1  0  0  0  0
  3  4  1  0  0  0  0
  5  8  1  0  0  0  0
  6  4  2  0  0  0  0
  7 18  1  0  0  0  0
  8 17  1  0  0  0  0
  9  7  2  0  0  0  0
 10  7  1  1  0  0  0
 10  6  1  0  0  0  0
 10  2  1  0  0  0  0
 11 15  1  0  0  0  0
 11  1  1  0  0  0  0
 12 35  1  0  0  0  0
 12 18  2  0  0  0  0
 13 14  1  0  0  0  0
 14 23  1  0  0  0  0
 15  6  1  1  0  0  0
 15 31  1  0  0  0  0
 16  5  1  6  0  0  0
 16  1  1  0  0  0  0
 17 14  1  0  0  0  0
 18  3  1  0  0  0  0
 19 27  1  0  0  0  0
 20 22  1  0  0  0  0
 21 25  2  0  0  0  0
 22 24  1  0  0  0  0
 23 22  2  0  0  0  0
 23 21  1  0  0  0  0
 24 19  2  0  0  0  0
 25 19  1  0  0  0  0
 27 26  3  0  0  0  0
 28 33  1  0  0  0  0
 29 33  1  0  0  0  0
 30 29  1  0  0  0  0
 31 30  1  6  0  0  0
 31 32  1  0  0  0  0
 32 28  1  0  0  0  0
 34 35  2  0  0  0  0
 35 36  1  0  0  0  0
M  END
>  <MODEL>
7

>  <REMARK>
 VINA RESULT:      -6.2      3.159      8.571
  Name = 
  4 active torsions:
  status: ('A' for Active; 'I' for Inactive)
    1  A    between atoms: C_3  and  C_26
    2  A    between atoms: C_20  and  C_27
    3  A    between atoms: N_21  and  C_31
    4  A    between atoms: N_29  and  C_30
                            x       y       z     vdW  Elec       q    Type
                         _______ _______ _______ _____ _____    ______ ____

>  <TORSDO>
F 4

$$$$
=
 OpenBabel11062417113D

 36 40  0  0  1  0  0  0  0  0999 V2000
  186.0060  177.2390  137.3550 C   0  0  2  0  0  3  0  0  0  0  0  0
  185.4680  174.8140  137.2070 O   0  0  0  0  0  0  0  0  0  0  0  0
  181.9340  174.1790  137.2590 C   0  0  0  0  0  2  0  0  0  0  0  0
  182.2920  175.5800  137.1430 N   0  0  0  0  0  0  0  0  0  0  0  0
  187.3600  175.5860  135.8240 C   0  0  0  0  0  2  0  0  0  0  0  0
  183.4460  176.0000  136.7350 C   0  0  0  0  0  0  0  0  0  0  0  0
  183.9120  173.7510  135.7320 C   0  0  0  0  0  0  0  0  0  0  0  0
  188.5540  176.5430  135.7520 C   0  0  0  0  0  2  0  0  0  0  0  0
  184.5770  173.0280  134.9430 O   0  0  0  0  0  0  0  0  0  0  0  0
  184.4960  175.0420  136.2190 C   0  0  2  0  0  3  0  0  0  0  0  0
  185.1230  177.7100  136.3580 O   0  0  0  0  0  0  0  0  0  0  0  0
  182.0050  172.2360  135.6970 C   0  0  0  0  0  3  0  0  0  0  0  0
  187.1610  178.2370  137.5100 C   0  0  0  0  0  2  0  0  0  0  0  0
  188.3840  177.6010  138.0100 N   0  0  0  0  0  0  0  0  0  0  0  0
  183.7790  177.4840  136.7630 C   0  0  2  0  0  3  0  0  0  0  0  0
  186.4790  175.7910  137.0680 C   0  0  1  0  0  3  0  0  0  0  0  0
  189.2110  176.7720  137.1180 C   0  0  0  0  0  2  0  0  0  0  0  0
  182.5720  173.3470  136.1840 C   0  0  0  0  0  0  0  0  0  0  0  0
  189.1660  177.7680  142.1880 C   0  0  0  0  0  0  0  0  0  0  0  0
  190.9370  176.5300  139.0990 C   0  0  0  0  0  1  0  0  0  0  0  0
  187.7500  178.2530  140.2900 C   0  0  0  0  0  3  0  0  0  0  0  0
  189.8690  177.1160  139.9590 C   0  0  0  0  0  0  0  0  0  0  0  0
  188.6750  177.6500  139.4200 C   0  0  0  0  0  0  0  0  0  0  0  0
  190.1020  177.1800  141.3360 C   0  0  0  0  0  3  0  0  0  0  0  0
  187.9920  178.3110  141.6630 C   0  0  0  0  0  3  0  0  0  0  0  0
  189.6250  177.8760  144.7870 C   0  0  0  0  0  3  0  0  0  0  0  0
  189.4150  177.8270  143.6000 C   0  0  0  0  0  0  0  0  0  0  0  0
  181.9790  179.7290  139.1780 C   0  0  0  0  0  2  0  0  0  0  0  0
  182.4200  177.5530  140.2180 N   0  0  0  0  0  2  0  0  0  0  0  0
  183.2030  177.0830  139.0590 C   0  0  0  0  0  2  0  0  0  0  0  0
  183.4560  178.1330  138.0510 N   0  0  2  0  0  0  0  0  0  0  0  0
  182.2240  178.9150  137.9090 C   0  0  0  0  0  2  0  0  0  0  0  0
  182.5520  178.9990  140.3930 C   0  0  0  0  0  2  0  0  0  0  0  0
  179.5960  171.7590  135.2220 O   0  0  0  0  0  0  0  0  0  0  0  0
  180.6930  171.6840  136.0730 C   0  0  0  0  0  0  0  0  0  0  0  0
  180.5630  171.1280  137.1930 O   0  0  0  0  0  1  0  0  0  0  0  0
  1 13  1  6  0  0  0
  4  3  1  0  0  0  0
  6 15  1  0  0  0  0
  6  4  2  0  0  0  0
  7 18  1  0  0  0  0
  8  5  1  0  0  0  0
  8 17  1  0  0  0  0
  9  7  2  0  0  0  0
 10  7  1  1  0  0  0
 10  6  1  0  0  0  0
 10  2  1  0  0  0  0
 11  1  1  0  0  0  0
 12 35  1  0  0  0  0
 12 18  2  0  0  0  0
 13 14  1  0  0  0  0
 14 23  1  0  0  0  0
 15 11  1  1  0  0  0
 15 31  1  0  0  0  0
 16  5  1  6  0  0  0
 16  2  1  0  0  0  0
 16  1  1  0  0  0  0
 17 14  1  0  0  0  0
 18  3  1  0  0  0  0
 19 27  1  0  0  0  0
 20 22  1  0  0  0  0
 21 25  2  0  0  0  0
 22 24  1  0  0  0  0
 23 22  2  0  0  0  0
 23 21  1  0  0  0  0
 24 19  2  0  0  0  0
 25 19  1  0  0  0  0
 27 26  3  0  0  0  0
 28 33  1  0  0  0  0
 29 33  1  0  0  0  0
 30 29  1  0  0  0  0
 31 32  1  6  0  0  0
 31 30  1  0  0  0  0
 32 28  1  0  0  0  0
 34 35  2  0  0  0  0
 35 36  1  0  0  0  0
M  END
>  <MODEL>
8

>  <REMARK>
 VINA RESULT:      -5.9      3.664      8.444
  Name = 
  4 active torsions:
  status: ('A' for Active; 'I' for Inactive)
    1  A    between atoms: C_3  and  C_26
    2  A    between atoms: C_20  and  C_27
    3  A    between atoms: N_21  and  C_31
    4  A    between atoms: N_29  and  C_30
                            x       y       z     vdW  Elec       q    Type
                         _______ _______ _______ _____ _____    ______ ____

>  <TORSDO>
F 4

$$$$
=
 OpenBabel11062417113D

 36 40  0  0  1  0  0  0  0  0999 V2000
  186.8390  177.6420  138.2640 C   0  0  2  0  0  3  0  0  0  0  0  0
  186.5760  175.3470  137.3390 O   0  0  0  0  0  0  0  0  0  0  0  0
  183.1680  174.2170  137.3980 C   0  0  0  0  0  2  0  0  0  0  0  0
  183.3440  175.6160  137.7410 N   0  0  0  0  0  0  0  0  0  0  0  0
  188.2020  176.7970  136.1820 C   0  0  0  0  0  2  0  0  0  0  0  0
  184.3890  176.3100  137.4260 C   0  0  0  0  0  0  0  0  0  0  0  0
  185.0040  174.6060  135.6950 C   0  0  0  0  0  0  0  0  0  0  0  0
  189.2610  177.8890  136.3610 C   0  0  0  0  0  2  0  0  0  0  0  0
  185.6590  174.2860  134.6670 O   0  0  0  0  0  0  0  0  0  0  0  0
  185.4820  175.7390  136.5500 C   0  0  2  0  0  3  0  0  0  0  0  0
  185.8030  178.2770  137.5420 O   0  0  0  0  0  0  0  0  0  0  0  0
  183.2960  172.9220  135.2710 C   0  0  0  0  0  3  0  0  0  0  0  0
  187.8780  178.6930  138.6720 C   0  0  0  0  0  2  0  0  0  0  0  0
  189.2150  178.1160  138.8500 N   0  0  0  0  0  0  0  0  0  0  0  0
  184.5470  177.7360  137.9320 C   0  0  2  0  0  3  0  0  0  0  0  0
  187.4440  176.4530  137.4750 C   0  0  1  0  0  3  0  0  0  0  0  0
  190.0320  177.7540  137.6790 C   0  0  0  0  0  2  0  0  0  0  0  0
  183.7780  173.8840  136.0680 C   0  0  0  0  0  0  0  0  0  0  0  0
  190.4240  177.0310  142.7810 C   0  0  0  0  0  0  0  0  0  0  0  0
  191.9190  176.9690  139.3210 C   0  0  0  0  0  1  0  0  0  0  0  0
  188.7930  177.9680  141.2630 C   0  0  0  0  0  3  0  0  0  0  0  0
  190.9200  177.1680  140.4090 C   0  0  0  0  0  0  0  0  0  0  0  0
  189.6500  177.7450  140.1710 C   0  0  0  0  0  0  0  0  0  0  0  0
  191.2940  176.8170  141.7100 C   0  0  0  0  0  3  0  0  0  0  0  0
  189.1760  177.6130  142.5570 C   0  0  0  0  0  3  0  0  0  0  0  0
  191.1490  176.3590  145.2300 C   0  0  0  0  0  3  0  0  0  0  0  0
  190.8180  176.6650  144.1120 C   0  0  0  0  0  0  0  0  0  0  0  0
  184.9960  178.9930  141.4440 C   0  0  0  0  0  2  0  0  0  0  0  0
  182.6120  178.8790  140.8880 N   0  0  0  0  0  2  0  0  0  0  0  0
  182.8780  178.2510  139.5800 C   0  0  0  0  0  2  0  0  0  0  0  0
  184.2930  177.8750  139.3820 N   0  0  2  0  0  0  0  0  0  0  0  0
  185.1180  178.9590  139.9210 C   0  0  0  0  0  2  0  0  0  0  0  0
  183.6190  178.4910  141.8750 C   0  0  0  0  0  2  0  0  0  0  0  0
  182.0340  171.2200  136.6010 O   0  0  0  0  0  1  0  0  0  0  0  0
  182.1060  172.0910  135.5210 C   0  0  0  0  0  0  0  0  0  0  0  0
  181.1270  172.1770  134.7350 O   0  0  0  0  0  0  0  0  0  0  0  0
  1 13  1  6  0  0  0
  2 16  1  0  0  0  0
  3  4  1  0  0  0  0
  5  8  1  0  0  0  0
  6  4  2  0  0  0  0
  7 18  1  0  0  0  0
  8 17  1  0  0  0  0
  9  7  2  0  0  0  0
 10  7  1  1  0  0  0
 10  2  1  0  0  0  0
 10  6  1  0  0  0  0
 11 15  1  0  0  0  0
 11  1  1  0  0  0  0
 12 35  1  0  0  0  0
 12 18  2  0  0  0  0
 13 14  1  0  0  0  0
 14 23  1  0  0  0  0
 15  6  1  1  0  0  0
 15 31  1  0  0  0  0
 16  5  1  6  0  0  0
 16  1  1  0  0  0  0
 17 14  1  0  0  0  0
 18  3  1  0  0  0  0
 19 27  1  0  0  0  0
 20 22  1  0  0  0  0
 21 25  2  0  0  0  0
 22 24  1  0  0  0  0
 23 22  2  0  0  0  0
 23 21  1  0  0  0  0
 24 19  2  0  0  0  0
 25 19  1  0  0  0  0
 27 26  3  0  0  0  0
 28 33  1  0  0  0  0
 29 33  1  0  0  0  0
 30 29  1  0  0  0  0
 31 30  1  6  0  0  0
 31 32  1  0  0  0  0
 32 28  1  0  0  0  0
 35 34  1  0  0  0  0
 36 35  2  0  0  0  0
M  END
>  <MODEL>
9

>  <REMARK>
 VINA RESULT:      -5.6      3.235      8.501
  Name = 
  4 active torsions:
  status: ('A' for Active; 'I' for Inactive)
    1  A    between atoms: C_3  and  C_26
    2  A    between atoms: C_20  and  C_27
    3  A    between atoms: N_21  and  C_31
    4  A    between atoms: N_29  and  C_30
                            x       y       z     vdW  Elec       q    Type
                         _______ _______ _______ _____ _____    ______ ____

>  <TORSDO>
F 4

$$$$
