=
 OpenBabel11062416313D

 29 31  0  0  0  0  0  0  0  0999 V2000
  189.7130  177.8640  137.5170 C   0  0  0  0  0  3  0  0  0  0  0  0
  188.7810  178.5150  138.3240 C   0  0  0  0  0  3  0  0  0  0  0  0
  189.4780  177.1380  140.1940 C   0  0  0  0  0  0  0  0  0  0  0  0
  190.4000  176.5140  139.3420 C   0  0  0  0  0  3  0  0  0  0  0  0
  190.4970  176.8840  138.0370 N   0  0  0  0  0  0  0  0  0  0  0  0
  188.6590  178.1520  139.6720 C   0  0  0  0  0  0  0  0  0  0  0  0
  187.7110  178.8090  140.5230 N   0  0  0  0  0  2  0  0  0  0  0  0
  186.2700  178.6410  140.4040 C   0  0  0  0  0  2  0  0  0  0  0  0
  185.5950  179.4790  141.3830 N   0  0  0  0  0  2  0  0  0  0  0  0
  184.6030  178.6500  142.0480 C   0  0  0  0  0  2  0  0  0  0  0  0
  185.0840  178.2520  143.4020 C   0  0  0  0  0  0  0  0  0  0  0  0
  184.0970  178.2050  144.5210 C   0  0  0  0  0  2  0  0  0  0  0  0
  186.6500  177.8780  146.0390 C   0  0  0  0  0  3  0  0  0  0  0  0
  185.8550  179.7170  147.4600 O   0  0  0  0  0  1  0  0  0  0  0  0
  185.6360  178.9040  146.3570 C   0  0  0  0  0  0  0  0  0  0  0  0
  186.3350  177.8090  143.5470 C   0  0  0  0  0  3  0  0  0  0  0  0
  184.5100  179.0760  145.6610 C   0  0  0  0  0  3  0  0  0  0  0  0
  186.9540  177.4040  144.8230 C   0  0  0  0  0  3  0  0  0  0  0  0
  189.3510  176.7710  141.5780 N   0  0  0  0  0  2  0  0  0  0  0  0
  190.0790  177.2750  142.7090 C   0  0  0  0  0  0  0  0  0  0  0  0
  190.9390  179.1920  143.9240 C   0  0  0  0  0  3  0  0  0  0  0  0
  190.6320  176.4290  143.6820 C   0  0  0  0  0  3  0  0  0  0  0  0
  191.4860  178.3430  144.8890 C   0  0  0  0  0  3  0  0  0  0  0  0
  190.2380  178.6580  142.8400 C   0  0  0  0  0  3  0  0  0  0  0  0
  191.3360  176.9540  144.7750 C   0  0  0  0  0  0  0  0  0  0  0  0
  192.2570  174.8830  145.4740 O   0  0  0  0  0  0  0  0  0  0  0  0
  192.6470  175.6610  148.1710 C   0  0  0  0  0  1  0  0  0  0  0  0
  192.0830  176.5110  147.1350 N   0  0  0  0  0  2  0  0  0  0  0  0
  191.9130  176.0560  145.7900 C   0  0  0  0  0  0  0  0  0  0  0  0
  1  5  2  0  0  0  0
  1  2  1  0  0  0  0
  2  6  2  0  0  0  0
  3 19  1  0  0  0  0
  4  3  2  0  0  0  0
  5  4  1  0  0  0  0
  6  3  1  0  0  0  0
  6  7  1  0  0  0  0
  8  7  1  0  0  0  0
  8  9  1  0  0  0  0
  9 10  1  0  0  0  0
 10 11  1  0  0  0  0
 11 16  2  0  0  0  0
 11 12  1  0  0  0  0
 12 17  1  0  0  0  0
 13 15  1  0  0  0  0
 15 14  1  0  0  0  0
 16 18  1  0  0  0  0
 17 15  2  0  0  0  0
 18 13  2  0  0  0  0
 19 20  1  0  0  0  0
 20 24  2  0  0  0  0
 20 22  1  0  0  0  0
 21 23  2  0  0  0  0
 22 25  2  0  0  0  0
 24 21  1  0  0  0  0
 25 23  1  0  0  0  0
 25 29  1  0  0  0  0
 26 29  2  0  0  0  0
 28 27  1  0  0  0  0
 29 28  1  0  0  0  0
M  END
>  <MODEL>
1

>  <REMARK>
 VINA RESULT:      -8.6      0.000      0.000
  Name = 
  8 active torsions:
  status: ('A' for Active; 'I' for Inactive)
    1  A    between atoms: C_1  and  C_20
    2  A    between atoms: C_7  and  N_26
    3  A    between atoms: N_9  and  C_23
    4  A    between atoms: N_9  and  C_27
    5  A    between atoms: C_11  and  N_26
    6  A    between atoms: N_14  and  C_20
    7  A    between atoms: N_14  and  C_23
    8  A    between atoms: C_21  and  C_29
                            x       y       z     vdW  Elec       q    Type
                         _______ _______ _______ _____ _____    ______ ____

>  <TORSDO>
F 8

$$$$
=
 OpenBabel11062416313D

 29 31  0  0  0  0  0  0  0  0999 V2000
  191.1800  176.1670  147.3380 C   0  0  0  0  0  3  0  0  0  0  0  0
  189.9040  176.7270  147.3460 C   0  0  0  0  0  3  0  0  0  0  0  0
  190.2130  177.4020  145.0380 C   0  0  0  0  0  0  0  0  0  0  0  0
  191.4900  176.8240  145.0800 C   0  0  0  0  0  3  0  0  0  0  0  0
  191.9420  176.2260  146.2140 N   0  0  0  0  0  0  0  0  0  0  0  0
  189.4130  177.3510  146.1910 C   0  0  0  0  0  0  0  0  0  0  0  0
  188.1030  177.9320  146.1730 N   0  0  0  0  0  2  0  0  0  0  0  0
  187.1590  177.8240  147.2760 C   0  0  0  0  0  2  0  0  0  0  0  0
  185.8020  177.9870  146.7780 N   0  0  0  0  0  2  0  0  0  0  0  0
  185.8100  179.1210  145.8690 C   0  0  0  0  0  2  0  0  0  0  0  0
  185.1000  178.7760  144.6030 C   0  0  0  0  0  0  0  0  0  0  0  0
  185.8430  178.0100  143.5590 C   0  0  0  0  0  2  0  0  0  0  0  0
  183.3880  178.7640  142.0310 C   0  0  0  0  0  3  0  0  0  0  0  0
  184.9150  179.6100  140.3040 O   0  0  0  0  0  1  0  0  0  0  0  0
  184.7610  179.0330  141.5570 C   0  0  0  0  0  0  0  0  0  0  0  0
  183.7940  179.0260  144.4970 C   0  0  0  0  0  3  0  0  0  0  0  0
  185.8590  178.7290  142.2510 C   0  0  0  0  0  3  0  0  0  0  0  0
  182.9680  178.7620  143.3030 C   0  0  0  0  0  3  0  0  0  0  0  0
  189.7050  178.0400  143.8540 N   0  0  0  0  0  2  0  0  0  0  0  0
  190.0800  177.8190  142.4860 C   0  0  0  0  0  0  0  0  0  0  0  0
  191.8400  177.3980  140.8690 C   0  0  0  0  0  3  0  0  0  0  0  0
  189.1400  177.7990  141.4450 C   0  0  0  0  0  3  0  0  0  0  0  0
  190.8980  177.3790  139.8390 C   0  0  0  0  0  3  0  0  0  0  0  0
  191.4310  177.6170  142.1870 C   0  0  0  0  0  3  0  0  0  0  0  0
  189.5400  177.5790  140.1190 C   0  0  0  0  0  0  0  0  0  0  0  0
  187.7800  178.5500  138.8600 O   0  0  0  0  0  0  0  0  0  0  0  0
  187.4710  176.3550  137.0940 C   0  0  0  0  0  1  0  0  0  0  0  0
  188.4390  176.4200  138.1780 N   0  0  0  0  0  2  0  0  0  0  0  0
  188.5430  177.5600  139.0350 C   0  0  0  0  0  0  0  0  0  0  0  0
  1  2  1  0  0  0  0
  3  4  2  0  0  0  0
  3  6  1  0  0  0  0
  4  5  1  0  0  0  0
  5  1  2  0  0  0  0
  6  2  2  0  0  0  0
  7  6  1  0  0  0  0
  7  8  1  0  0  0  0
  9  8  1  0  0  0  0
 10  9  1  0  0  0  0
 11 10  1  0  0  0  0
 12 11  1  0  0  0  0
 13 18  2  0  0  0  0
 14 15  1  0  0  0  0
 15 13  1  0  0  0  0
 15 17  2  0  0  0  0
 16 11  2  0  0  0  0
 17 12  1  0  0  0  0
 18 16  1  0  0  0  0
 19  3  1  0  0  0  0
 20 19  1  0  0  0  0
 21 24  2  0  0  0  0
 22 20  2  0  0  0  0
 23 25  2  0  0  0  0
 23 21  1  0  0  0  0
 24 20  1  0  0  0  0
 25 22  1  0  0  0  0
 26 29  2  0  0  0  0
 27 28  1  0  0  0  0
 28 29  1  0  0  0  0
 29 25  1  0  0  0  0
M  END
>  <MODEL>
2

>  <REMARK>
 VINA RESULT:      -8.6      2.876      6.171
  Name = 
  8 active torsions:
  status: ('A' for Active; 'I' for Inactive)
    1  A    between atoms: C_1  and  C_20
    2  A    between atoms: C_7  and  N_26
    3  A    between atoms: N_9  and  C_23
    4  A    between atoms: N_9  and  C_27
    5  A    between atoms: C_11  and  N_26
    6  A    between atoms: N_14  and  C_20
    7  A    between atoms: N_14  and  C_23
    8  A    between atoms: C_21  and  C_29
                            x       y       z     vdW  Elec       q    Type
                         _______ _______ _______ _____ _____    ______ ____

>  <TORSDO>
F 8

$$$$
=
 OpenBabel11062416313D

 29 31  0  0  0  0  0  0  0  0999 V2000
  188.7320  176.7220  137.2730 C   0  0  0  0  0  3  0  0  0  0  0  0
  189.4730  176.6430  138.4520 C   0  0  0  0  0  3  0  0  0  0  0  0
  187.8480  178.0760  139.5400 C   0  0  0  0  0  0  0  0  0  0  0  0
  187.1390  178.1250  138.3310 C   0  0  0  0  0  3  0  0  0  0  0  0
  187.5900  177.4570  137.2370 N   0  0  0  0  0  0  0  0  0  0  0  0
  189.0320  177.3230  139.5950 C   0  0  0  0  0  0  0  0  0  0  0  0
  189.7740  177.2540  140.8190 N   0  0  0  0  0  2  0  0  0  0  0  0
  191.2230  177.3700  140.8910 C   0  0  0  0  0  2  0  0  0  0  0  0
  191.6470  177.3840  142.2830 N   0  0  0  0  0  2  0  0  0  0  0  0
  190.5910  178.0280  143.0470 C   0  0  0  0  0  2  0  0  0  0  0  0
  190.4760  177.4050  144.3980 C   0  0  0  0  0  0  0  0  0  0  0  0
  189.1180  177.0350  144.8950 C   0  0  0  0  0  2  0  0  0  0  0  0
  190.7280  176.6450  147.3810 C   0  0  0  0  0  3  0  0  0  0  0  0
  189.0620  178.0650  148.4940 O   0  0  0  0  0  1  0  0  0  0  0  0
  189.5130  177.4810  147.3180 C   0  0  0  0  0  0  0  0  0  0  0  0
  191.5850  177.0630  145.0570 C   0  0  0  0  0  3  0  0  0  0  0  0
  188.8100  177.6860  146.2030 C   0  0  0  0  0  3  0  0  0  0  0  0
  191.6270  176.4640  146.4040 C   0  0  0  0  0  3  0  0  0  0  0  0
  187.3980  178.7700  140.7160 N   0  0  0  0  0  2  0  0  0  0  0  0
  186.0980  178.7510  141.3250 C   0  0  0  0  0  0  0  0  0  0  0  0
  183.6880  178.6600  141.0470 C   0  0  0  0  0  3  0  0  0  0  0  0
  185.9200  178.7990  142.7150 C   0  0  0  0  0  3  0  0  0  0  0  0
  183.5200  178.7080  142.4320 C   0  0  0  0  0  3  0  0  0  0  0  0
  184.9720  178.6810  140.4970 C   0  0  0  0  0  3  0  0  0  0  0  0
  184.6360  178.7780  143.2770 C   0  0  0  0  0  0  0  0  0  0  0  0
  183.3490  179.1590  145.2330 O   0  0  0  0  0  0  0  0  0  0  0  0
  185.4350  178.5400  147.0500 C   0  0  0  0  0  1  0  0  0  0  0  0
  185.5570  178.5040  145.6010 N   0  0  0  0  0  2  0  0  0  0  0  0
  184.4630  178.8290  144.7400 C   0  0  0  0  0  0  0  0  0  0  0  0
  1  2  1  0  0  0  0
  2  6  2  0  0  0  0
  3  6  1  0  0  0  0
  3 19  1  0  0  0  0
  4  3  2  0  0  0  0
  5  1  2  0  0  0  0
  5  4  1  0  0  0  0
  6  7  1  0  0  0  0
  7  8  1  0  0  0  0
  8  9  1  0  0  0  0
  9 10  1  0  0  0  0
 10 11  1  0  0  0  0
 11 12  1  0  0  0  0
 11 16  2  0  0  0  0
 12 17  1  0  0  0  0
 15 13  1  0  0  0  0
 15 14  1  0  0  0  0
 16 18  1  0  0  0  0
 17 15  2  0  0  0  0
 18 13  2  0  0  0  0
 19 20  1  0  0  0  0
 20 22  1  0  0  0  0
 21 23  2  0  0  0  0
 22 25  2  0  0  0  0
 23 25  1  0  0  0  0
 24 21  1  0  0  0  0
 24 20  2  0  0  0  0
 25 29  1  0  0  0  0
 28 27  1  0  0  0  0
 29 26  2  0  0  0  0
 29 28  1  0  0  0  0
M  END
>  <MODEL>
3

>  <REMARK>
 VINA RESULT:      -8.4      1.982      5.499
  Name = 
  8 active torsions:
  status: ('A' for Active; 'I' for Inactive)
    1  A    between atoms: C_1  and  C_20
    2  A    between atoms: C_7  and  N_26
    3  A    between atoms: N_9  and  C_23
    4  A    between atoms: N_9  and  C_27
    5  A    between atoms: C_11  and  N_26
    6  A    between atoms: N_14  and  C_20
    7  A    between atoms: N_14  and  C_23
    8  A    between atoms: C_21  and  C_29
                            x       y       z     vdW  Elec       q    Type
                         _______ _______ _______ _____ _____    ______ ____

>  <TORSDO>
F 8

$$$$
=
 OpenBabel11062416313D

 29 31  0  0  0  0  0  0  0  0999 V2000
  188.6780  178.0370  148.4770 C   0  0  0  0  0  3  0  0  0  0  0  0
  187.4640  178.1870  147.8080 C   0  0  0  0  0  3  0  0  0  0  0  0
  188.4480  177.1620  145.8440 C   0  0  0  0  0  0  0  0  0  0  0  0
  189.6470  177.0330  146.5590 C   0  0  0  0  0  3  0  0  0  0  0  0
  189.7370  177.4670  147.8430 N   0  0  0  0  0  0  0  0  0  0  0  0
  187.3440  177.7490  146.4820 C   0  0  0  0  0  0  0  0  0  0  0  0
  186.1060  177.8900  145.7750 N   0  0  0  0  0  2  0  0  0  0  0  0
  185.1540  178.9640  146.0210 C   0  0  0  0  0  2  0  0  0  0  0  0
  184.7230  179.5380  144.7560 N   0  0  0  0  0  2  0  0  0  0  0  0
  183.4410  178.9370  144.4260 C   0  0  0  0  0  2  0  0  0  0  0  0
  183.3600  178.6600  142.9620 C   0  0  0  0  0  0  0  0  0  0  0  0
  184.5720  178.1250  142.2730 C   0  0  0  0  0  2  0  0  0  0  0  0
  182.8400  178.7420  139.9180 C   0  0  0  0  0  3  0  0  0  0  0  0
  184.7660  179.9770  139.0250 O   0  0  0  0  0  1  0  0  0  0  0  0
  184.2230  179.2370  140.0670 C   0  0  0  0  0  0  0  0  0  0  0  0
  182.1820  178.7540  142.3430 C   0  0  0  0  0  3  0  0  0  0  0  0
  184.9890  178.9930  141.1320 C   0  0  0  0  0  3  0  0  0  0  0  0
  181.9550  178.5330  140.9020 C   0  0  0  0  0  3  0  0  0  0  0  0
  188.3200  176.7110  144.4850 N   0  0  0  0  0  2  0  0  0  0  0  0
  189.2120  176.9270  143.3810 C   0  0  0  0  0  0  0  0  0  0  0  0
  191.4940  177.0320  142.5600 C   0  0  0  0  0  3  0  0  0  0  0  0
  188.7500  177.2290  142.0910 C   0  0  0  0  0  3  0  0  0  0  0  0
  191.0260  177.3330  141.2790 C   0  0  0  0  0  3  0  0  0  0  0  0
  190.5890  176.8300  143.6060 C   0  0  0  0  0  3  0  0  0  0  0  0
  189.6500  177.4330  141.0350 C   0  0  0  0  0  0  0  0  0  0  0  0
  188.7290  178.9100  139.4240 O   0  0  0  0  0  0  0  0  0  0  0  0
  188.6690  177.0090  137.3220 C   0  0  0  0  0  1  0  0  0  0  0  0
  189.1490  176.7440  138.6690 N   0  0  0  0  0  2  0  0  0  0  0  0
  189.1530  177.7500  139.6850 C   0  0  0  0  0  0  0  0  0  0  0  0
  2  1  2  0  0  0  0
  3  6  2  0  0  0  0
  3  4  1  0  0  0  0
  4  5  2  0  0  0  0
  5  1  1  0  0  0  0
  6  2  1  0  0  0  0
  7  8  1  0  0  0  0
  7  6  1  0  0  0  0
  9  8  1  0  0  0  0
 10  9  1  0  0  0  0
 11 10  1  0  0  0  0
 12 11  1  0  0  0  0
 13 15  1  0  0  0  0
 13 18  2  0  0  0  0
 14 15  1  0  0  0  0
 15 17  2  0  0  0  0
 16 11  2  0  0  0  0
 17 12  1  0  0  0  0
 18 16  1  0  0  0  0
 19  3  1  0  0  0  0
 20 24  1  0  0  0  0
 20 19  1  0  0  0  0
 21 24  2  0  0  0  0
 22 20  2  0  0  0  0
 23 21  1  0  0  0  0
 25 23  2  0  0  0  0
 25 22  1  0  0  0  0
 26 29  2  0  0  0  0
 27 28  1  0  0  0  0
 28 29  1  0  0  0  0
 29 25  1  0  0  0  0
M  END
>  <MODEL>
4

>  <REMARK>
 VINA RESULT:      -8.2      2.982      6.361
  Name = 
  8 active torsions:
  status: ('A' for Active; 'I' for Inactive)
    1  A    between atoms: C_1  and  C_20
    2  A    between atoms: C_7  and  N_26
    3  A    between atoms: N_9  and  C_23
    4  A    between atoms: N_9  and  C_27
    5  A    between atoms: C_11  and  N_26
    6  A    between atoms: N_14  and  C_20
    7  A    between atoms: N_14  and  C_23
    8  A    between atoms: C_21  and  C_29
                            x       y       z     vdW  Elec       q    Type
                         _______ _______ _______ _____ _____    ______ ____

>  <TORSDO>
F 8

$$$$
=
 OpenBabel11062416313D

 29 31  0  0  0  0  0  0  0  0999 V2000
  184.1890  176.8450  136.1310 C   0  0  0  0  0  3  0  0  0  0  0  0
  184.0380  177.4430  137.3810 C   0  0  0  0  0  3  0  0  0  0  0  0
  186.3920  178.0260  137.3570 C   0  0  0  0  0  0  0  0  0  0  0  0
  186.4920  177.4120  136.1000 C   0  0  0  0  0  3  0  0  0  0  0  0
  185.4030  176.8410  135.5210 N   0  0  0  0  0  0  0  0  0  0  0  0
  185.1450  178.0380  138.0020 C   0  0  0  0  0  0  0  0  0  0  0  0
  185.0150  178.6630  139.2860 N   0  0  0  0  0  2  0  0  0  0  0  0
  183.7410  179.0790  139.8550 C   0  0  0  0  0  2  0  0  0  0  0  0
  183.8050  179.0110  141.3060 N   0  0  0  0  0  2  0  0  0  0  0  0
  185.2100  179.0450  141.6770 C   0  0  0  0  0  2  0  0  0  0  0  0
  185.4040  178.4470  143.0300 C   0  0  0  0  0  0  0  0  0  0  0  0
  184.2450  178.4300  143.9710 C   0  0  0  0  0  2  0  0  0  0  0  0
  186.4450  177.5880  145.8080 C   0  0  0  0  0  3  0  0  0  0  0  0
  185.6610  179.3690  147.3070 O   0  0  0  0  0  1  0  0  0  0  0  0
  185.5290  178.7120  146.0910 C   0  0  0  0  0  0  0  0  0  0  0  0
  186.5460  177.8160  143.3080 C   0  0  0  0  0  3  0  0  0  0  0  0
  184.5670  179.1140  145.2580 C   0  0  0  0  0  3  0  0  0  0  0  0
  186.8870  177.2000  144.6050 C   0  0  0  0  0  3  0  0  0  0  0  0
  187.5230  178.6410  137.9970 N   0  0  0  0  0  2  0  0  0  0  0  0
  188.6370  178.0100  138.6480 C   0  0  0  0  0  0  0  0  0  0  0  0
  190.7590  176.8500  138.4480 C   0  0  0  0  0  3  0  0  0  0  0  0
  188.7340  177.9150  140.0440 C   0  0  0  0  0  3  0  0  0  0  0  0
  190.8480  176.7600  139.8380 C   0  0  0  0  0  3  0  0  0  0  0  0
  189.6570  177.4730  137.8560 C   0  0  0  0  0  3  0  0  0  0  0  0
  189.8360  177.2920  140.6470 C   0  0  0  0  0  0  0  0  0  0  0  0
  189.8070  176.0800  142.6850 O   0  0  0  0  0  0  0  0  0  0  0  0
  190.2450  178.3360  144.3450 C   0  0  0  0  0  1  0  0  0  0  0  0
  190.1480  178.3780  142.8940 N   0  0  0  0  0  2  0  0  0  0  0  0
  189.9260  177.1990  142.1150 C   0  0  0  0  0  0  0  0  0  0  0  0
  1  2  1  0  0  0  0
  2  6  2  0  0  0  0
  3 19  1  0  0  0  0
  3  6  1  0  0  0  0
  4  3  2  0  0  0  0
  5  4  1  0  0  0  0
  5  1  2  0  0  0  0
  6  7  1  0  0  0  0
  7  8  1  0  0  0  0
  8  9  1  0  0  0  0
  9 10  1  0  0  0  0
 10 11  1  0  0  0  0
 11 16  2  0  0  0  0
 11 12  1  0  0  0  0
 12 17  1  0  0  0  0
 13 15  1  0  0  0  0
 15 14  1  0  0  0  0
 16 18  1  0  0  0  0
 17 15  2  0  0  0  0
 18 13  2  0  0  0  0
 19 20  1  0  0  0  0
 20 22  1  0  0  0  0
 21 23  2  0  0  0  0
 22 25  2  0  0  0  0
 23 25  1  0  0  0  0
 24 21  1  0  0  0  0
 24 20  2  0  0  0  0
 25 29  1  0  0  0  0
 28 27  1  0  0  0  0
 29 26  2  0  0  0  0
 29 28  1  0  0  0  0
M  END
>  <MODEL>
5

>  <REMARK>
 VINA RESULT:      -8.1      2.253      3.833
  Name = 
  8 active torsions:
  status: ('A' for Active; 'I' for Inactive)
    1  A    between atoms: C_1  and  C_20
    2  A    between atoms: C_7  and  N_26
    3  A    between atoms: N_9  and  C_23
    4  A    between atoms: N_9  and  C_27
    5  A    between atoms: C_11  and  N_26
    6  A    between atoms: N_14  and  C_20
    7  A    between atoms: N_14  and  C_23
    8  A    between atoms: C_21  and  C_29
                            x       y       z     vdW  Elec       q    Type
                         _______ _______ _______ _____ _____    ______ ____

>  <TORSDO>
F 8

$$$$
=
 OpenBabel11062416313D

 29 31  0  0  0  0  0  0  0  0999 V2000
  188.5940  176.5680  137.2140 C   0  0  0  0  0  3  0  0  0  0  0  0
  189.3140  176.4870  138.4050 C   0  0  0  0  0  3  0  0  0  0  0  0
  187.8160  178.1190  139.3910 C   0  0  0  0  0  0  0  0  0  0  0  0
  187.1250  178.1640  138.1720 C   0  0  0  0  0  3  0  0  0  0  0  0
  187.5230  177.3990  137.1220 N   0  0  0  0  0  0  0  0  0  0  0  0
  188.9270  177.2660  139.5030 C   0  0  0  0  0  0  0  0  0  0  0  0
  189.6480  177.1980  140.7400 N   0  0  0  0  0  2  0  0  0  0  0  0
  191.0950  177.3310  140.8370 C   0  0  0  0  0  2  0  0  0  0  0  0
  191.5170  177.1070  142.2110 N   0  0  0  0  0  2  0  0  0  0  0  0
  190.7280  177.9900  143.0540 C   0  0  0  0  0  2  0  0  0  0  0  0
  190.5450  177.3880  144.4070 C   0  0  0  0  0  0  0  0  0  0  0  0
  189.1660  177.0100  144.8350 C   0  0  0  0  0  2  0  0  0  0  0  0
  190.6420  176.6790  147.4120 C   0  0  0  0  0  3  0  0  0  0  0  0
  188.9020  178.0990  148.4070 O   0  0  0  0  0  1  0  0  0  0  0  0
  189.4230  177.5010  147.2680 C   0  0  0  0  0  0  0  0  0  0  0  0
  191.6200  177.0700  145.1310 C   0  0  0  0  0  3  0  0  0  0  0  0
  188.7800  177.6790  146.1120 C   0  0  0  0  0  3  0  0  0  0  0  0
  191.5940  176.4930  146.4890 C   0  0  0  0  0  3  0  0  0  0  0  0
  187.4200  178.9140  140.5210 N   0  0  0  0  0  2  0  0  0  0  0  0
  186.3330  178.6970  141.4340 C   0  0  0  0  0  0  0  0  0  0  0  0
  185.6010  178.0900  143.6670 C   0  0  0  0  0  3  0  0  0  0  0  0
  184.9920  178.8560  141.0540 C   0  0  0  0  0  3  0  0  0  0  0  0
  184.2690  178.2520  143.2810 C   0  0  0  0  0  3  0  0  0  0  0  0
  186.6280  178.3130  142.7460 C   0  0  0  0  0  3  0  0  0  0  0  0
  183.9540  178.6360  141.9710 C   0  0  0  0  0  0  0  0  0  0  0  0
  182.2400  178.7670  140.3370 O   0  0  0  0  0  0  0  0  0  0  0  0
  180.1370  179.1910  142.1890 C   0  0  0  0  0  1  0  0  0  0  0  0
  181.5360  179.0170  142.5460 N   0  0  0  0  0  2  0  0  0  0  0  0
  182.5500  178.8070  141.5600 C   0  0  0  0  0  0  0  0  0  0  0  0
  1  2  1  0  0  0  0
  2  6  2  0  0  0  0
  3  6  1  0  0  0  0
  3 19  1  0  0  0  0
  4  3  2  0  0  0  0
  5  1  2  0  0  0  0
  5  4  1  0  0  0  0
  6  7  1  0  0  0  0
  7  8  1  0  0  0  0
  8  9  1  0  0  0  0
  9 10  1  0  0  0  0
 10 11  1  0  0  0  0
 11 12  1  0  0  0  0
 11 16  2  0  0  0  0
 12 17  1  0  0  0  0
 15 13  1  0  0  0  0
 15 14  1  0  0  0  0
 16 18  1  0  0  0  0
 17 15  2  0  0  0  0
 18 13  2  0  0  0  0
 19 20  1  0  0  0  0
 20 24  1  0  0  0  0
 22 20  2  0  0  0  0
 22 25  1  0  0  0  0
 23 21  1  0  0  0  0
 24 21  2  0  0  0  0
 25 23  2  0  0  0  0
 26 29  2  0  0  0  0
 27 28  1  0  0  0  0
 29 25  1  0  0  0  0
 29 28  1  0  0  0  0
M  END
>  <MODEL>
6

>  <REMARK>
 VINA RESULT:      -8.1      2.484      6.343
  Name = 
  8 active torsions:
  status: ('A' for Active; 'I' for Inactive)
    1  A    between atoms: C_1  and  C_20
    2  A    between atoms: C_7  and  N_26
    3  A    between atoms: N_9  and  C_23
    4  A    between atoms: N_9  and  C_27
    5  A    between atoms: C_11  and  N_26
    6  A    between atoms: N_14  and  C_20
    7  A    between atoms: N_14  and  C_23
    8  A    between atoms: C_21  and  C_29
                            x       y       z     vdW  Elec       q    Type
                         _______ _______ _______ _____ _____    ______ ____

>  <TORSDO>
F 8

$$$$
=
 OpenBabel11062416313D

 29 31  0  0  0  0  0  0  0  0999 V2000
  187.6940  176.5570  137.2320 C   0  0  0  0  0  3  0  0  0  0  0  0
  188.5190  176.8380  138.3200 C   0  0  0  0  0  3  0  0  0  0  0  0
  186.7780  178.2490  139.2440 C   0  0  0  0  0  0  0  0  0  0  0  0
  185.9860  177.9360  138.1300 C   0  0  0  0  0  3  0  0  0  0  0  0
  186.4540  177.1080  137.1590 N   0  0  0  0  0  0  0  0  0  0  0  0
  188.0620  177.6900  139.3350 C   0  0  0  0  0  0  0  0  0  0  0  0
  188.8900  177.9920  140.4650 N   0  0  0  0  0  2  0  0  0  0  0  0
  190.2160  177.4250  140.6670 C   0  0  0  0  0  2  0  0  0  0  0  0
  190.1610  176.3950  141.6920 N   0  0  0  0  0  2  0  0  0  0  0  0
  189.0480  176.7220  142.5700 C   0  0  0  0  0  2  0  0  0  0  0  0
  189.5470  177.0480  143.9370 C   0  0  0  0  0  0  0  0  0  0  0  0
  190.9840  177.4170  144.1000 C   0  0  0  0  0  2  0  0  0  0  0  0
  190.1740  177.1290  146.9610 C   0  0  0  0  0  3  0  0  0  0  0  0
  192.1190  175.6490  147.1980 O   0  0  0  0  0  1  0  0  0  0  0  0
  191.3310  176.4310  146.3660 C   0  0  0  0  0  0  0  0  0  0  0  0
  188.6760  177.1470  144.9440 C   0  0  0  0  0  3  0  0  0  0  0  0
  191.6770  176.5290  145.0800 C   0  0  0  0  0  3  0  0  0  0  0  0
  189.0240  177.4380  146.3480 C   0  0  0  0  0  3  0  0  0  0  0  0
  186.3120  179.1200  140.2890 N   0  0  0  0  0  2  0  0  0  0  0  0
  185.1760  178.9560  141.1520 C   0  0  0  0  0  0  0  0  0  0  0  0
  182.7870  178.5920  141.3740 C   0  0  0  0  0  3  0  0  0  0  0  0
  185.2860  178.9910  142.5500 C   0  0  0  0  0  3  0  0  0  0  0  0
  182.9040  178.6270  142.7650 C   0  0  0  0  0  3  0  0  0  0  0  0
  183.9190  178.7560  140.5720 C   0  0  0  0  0  3  0  0  0  0  0  0
  184.1560  178.8270  143.3640 C   0  0  0  0  0  0  0  0  0  0  0  0
  183.2570  179.0080  145.5520 O   0  0  0  0  0  0  0  0  0  0  0  0
  185.7480  178.7710  146.8830 C   0  0  0  0  0  1  0  0  0  0  0  0
  185.5720  178.7400  145.4400 N   0  0  0  0  0  2  0  0  0  0  0  0
  184.2840  178.8650  144.8310 C   0  0  0  0  0  0  0  0  0  0  0  0
  1  2  1  0  0  0  0
  2  6  2  0  0  0  0
  3  6  1  0  0  0  0
  3 19  1  0  0  0  0
  4  3  2  0  0  0  0
  5  1  2  0  0  0  0
  5  4  1  0  0  0  0
  6  7  1  0  0  0  0
  7  8  1  0  0  0  0
  8  9  1  0  0  0  0
  9 10  1  0  0  0  0
 10 11  1  0  0  0  0
 11 12  1  0  0  0  0
 11 16  2  0  0  0  0
 12 17  1  0  0  0  0
 15 13  1  0  0  0  0
 15 14  1  0  0  0  0
 16 18  1  0  0  0  0
 17 15  2  0  0  0  0
 18 13  2  0  0  0  0
 19 20  1  0  0  0  0
 20 22  1  0  0  0  0
 21 23  2  0  0  0  0
 22 25  2  0  0  0  0
 23 25  1  0  0  0  0
 24 20  2  0  0  0  0
 24 21  1  0  0  0  0
 25 29  1  0  0  0  0
 28 27  1  0  0  0  0
 29 28  1  0  0  0  0
 29 26  2  0  0  0  0
M  END
>  <MODEL>
7

>  <REMARK>
 VINA RESULT:      -8.0      1.894      5.852
  Name = 
  8 active torsions:
  status: ('A' for Active; 'I' for Inactive)
    1  A    between atoms: C_1  and  C_20
    2  A    between atoms: C_7  and  N_26
    3  A    between atoms: N_9  and  C_23
    4  A    between atoms: N_9  and  C_27
    5  A    between atoms: C_11  and  N_26
    6  A    between atoms: N_14  and  C_20
    7  A    between atoms: N_14  and  C_23
    8  A    between atoms: C_21  and  C_29
                            x       y       z     vdW  Elec       q    Type
                         _______ _______ _______ _____ _____    ______ ____

>  <TORSDO>
F 8

$$$$
=
 OpenBabel11062416313D

 29 31  0  0  0  0  0  0  0  0999 V2000
  190.4460  176.8810  138.2740 C   0  0  0  0  0  3  0  0  0  0  0  0
  190.4790  176.6570  139.6500 C   0  0  0  0  0  3  0  0  0  0  0  0
  188.6500  178.2250  139.9240 C   0  0  0  0  0  0  0  0  0  0  0  0
  188.6560  178.4150  138.5340 C   0  0  0  0  0  3  0  0  0  0  0  0
  189.5430  177.7490  137.7490 N   0  0  0  0  0  0  0  0  0  0  0  0
  189.5770  177.3320  140.4840 C   0  0  0  0  0  0  0  0  0  0  0  0
  189.5890  177.1160  141.9010 N   0  0  0  0  0  2  0  0  0  0  0  0
  190.2720  176.0010  142.5410 C   0  0  0  0  0  2  0  0  0  0  0  0
  190.6570  176.3710  143.8930 N   0  0  0  0  0  2  0  0  0  0  0  0
  190.0300  177.6500  144.1850 C   0  0  0  0  0  2  0  0  0  0  0  0
  189.1150  177.5240  145.3560 C   0  0  0  0  0  0  0  0  0  0  0  0
  187.6990  177.1220  145.1090 C   0  0  0  0  0  2  0  0  0  0  0  0
  187.5470  177.8990  147.9910 C   0  0  0  0  0  3  0  0  0  0  0  0
  185.6420  179.3090  147.3460 O   0  0  0  0  0  1  0  0  0  0  0  0
  186.6500  178.4410  146.9500 C   0  0  0  0  0  0  0  0  0  0  0  0
  189.6140  177.6260  146.5890 C   0  0  0  0  0  3  0  0  0  0  0  0
  186.7360  178.1230  145.6570 C   0  0  0  0  0  3  0  0  0  0  0  0
  188.8300  177.5470  147.8370 C   0  0  0  0  0  3  0  0  0  0  0  0
  187.7250  178.9130  140.7820 N   0  0  0  0  0  2  0  0  0  0  0  0
  186.3130  178.6970  140.9350 C   0  0  0  0  0  0  0  0  0  0  0  0
  184.4260  178.3490  142.4210 C   0  0  0  0  0  3  0  0  0  0  0  0
  185.4430  178.6210  139.8370 C   0  0  0  0  0  3  0  0  0  0  0  0
  183.5670  178.2740  141.3230 C   0  0  0  0  0  3  0  0  0  0  0  0
  185.7930  178.5600  142.2260 C   0  0  0  0  0  3  0  0  0  0  0  0
  184.0690  178.4100  140.0220 C   0  0  0  0  0  0  0  0  0  0  0  0
  182.6230  179.3780  138.4110 O   0  0  0  0  0  0  0  0  0  0  0  0
  182.0210  176.9410  137.0940 C   0  0  0  0  0  1  0  0  0  0  0  0
  182.9050  177.0690  138.2410 N   0  0  0  0  0  2  0  0  0  0  0  0
  183.1660  178.3310  138.8600 C   0  0  0  0  0  0  0  0  0  0  0  0
  1  2  1  0  0  0  0
  2  6  2  0  0  0  0
  3  6  1  0  0  0  0
  3 19  1  0  0  0  0
  4  3  2  0  0  0  0
  5  1  2  0  0  0  0
  5  4  1  0  0  0  0
  6  7  1  0  0  0  0
  7  8  1  0  0  0  0
  8  9  1  0  0  0  0
  9 10  1  0  0  0  0
 10 11  1  0  0  0  0
 11 16  2  0  0  0  0
 12 11  1  0  0  0  0
 12 17  1  0  0  0  0
 15 14  1  0  0  0  0
 15 13  1  0  0  0  0
 16 18  1  0  0  0  0
 17 15  2  0  0  0  0
 18 13  2  0  0  0  0
 19 20  1  0  0  0  0
 20 24  1  0  0  0  0
 22 25  1  0  0  0  0
 22 20  2  0  0  0  0
 23 21  1  0  0  0  0
 24 21  2  0  0  0  0
 25 23  2  0  0  0  0
 26 29  2  0  0  0  0
 27 28  1  0  0  0  0
 28 29  1  0  0  0  0
 29 25  1  0  0  0  0
M  END
>  <MODEL>
8

>  <REMARK>
 VINA RESULT:      -8.0      2.691      6.437
  Name = 
  8 active torsions:
  status: ('A' for Active; 'I' for Inactive)
    1  A    between atoms: C_1  and  C_20
    2  A    between atoms: C_7  and  N_26
    3  A    between atoms: N_9  and  C_23
    4  A    between atoms: N_9  and  C_27
    5  A    between atoms: C_11  and  N_26
    6  A    between atoms: N_14  and  C_20
    7  A    between atoms: N_14  and  C_23
    8  A    between atoms: C_21  and  C_29
                            x       y       z     vdW  Elec       q    Type
                         _______ _______ _______ _____ _____    ______ ____

>  <TORSDO>
F 8

$$$$
=
 OpenBabel11062416313D

 29 31  0  0  0  0  0  0  0  0999 V2000
  189.1010  177.9860  148.0870 C   0  0  0  0  0  3  0  0  0  0  0  0
  187.7500  178.1470  147.7810 C   0  0  0  0  0  3  0  0  0  0  0  0
  188.1470  177.1390  145.6130 C   0  0  0  0  0  0  0  0  0  0  0  0
  189.4970  176.9990  145.9670 C   0  0  0  0  0  3  0  0  0  0  0  0
  189.9400  177.4210  147.1810 N   0  0  0  0  0  0  0  0  0  0  0  0
  187.2660  177.7230  146.5370 C   0  0  0  0  0  0  0  0  0  0  0  0
  185.8810  177.8740  146.2000 N   0  0  0  0  0  2  0  0  0  0  0  0
  185.1970  179.1590  146.1570 C   0  0  0  0  0  2  0  0  0  0  0  0
  183.9320  179.0190  145.4540 N   0  0  0  0  0  2  0  0  0  0  0  0
  184.1260  179.5430  144.1110 C   0  0  0  0  0  2  0  0  0  0  0  0
  183.0870  179.0010  143.1880 C   0  0  0  0  0  0  0  0  0  0  0  0
  183.5320  178.3630  141.9140 C   0  0  0  0  0  2  0  0  0  0  0  0
  180.5860  178.5160  141.4410 C   0  0  0  0  0  3  0  0  0  0  0  0
  181.1450  179.5890  139.3030 O   0  0  0  0  0  1  0  0  0  0  0  0
  181.5930  179.0470  140.5000 C   0  0  0  0  0  0  0  0  0  0  0  0
  181.8140  178.9650  143.5860 C   0  0  0  0  0  3  0  0  0  0  0  0
  182.9080  179.0120  140.7230 C   0  0  0  0  0  3  0  0  0  0  0  0
  180.6790  178.4810  142.7770 C   0  0  0  0  0  3  0  0  0  0  0  0
  187.6460  176.7020  144.3380 N   0  0  0  0  0  2  0  0  0  0  0  0
  187.9640  177.2030  143.0300 C   0  0  0  0  0  0  0  0  0  0  0  0
  187.3590  178.6290  141.1610 C   0  0  0  0  0  3  0  0  0  0  0  0
  189.1180  176.8100  142.3370 C   0  0  0  0  0  3  0  0  0  0  0  0
  188.5100  178.2320  140.4780 C   0  0  0  0  0  3  0  0  0  0  0  0
  187.0880  178.1160  142.4320 C   0  0  0  0  0  3  0  0  0  0  0  0
  189.3990  177.3190  141.0610 C   0  0  0  0  0  0  0  0  0  0  0  0
  190.5470  176.0010  139.4580 O   0  0  0  0  0  0  0  0  0  0  0  0
  193.0990  177.1240  139.9670 C   0  0  0  0  0  1  0  0  0  0  0  0
  191.8730  177.5060  140.6480 N   0  0  0  0  0  2  0  0  0  0  0  0
  190.6140  176.8980  140.3430 C   0  0  0  0  0  0  0  0  0  0  0  0
  2  1  1  0  0  0  0
  3  4  2  0  0  0  0
  3  6  1  0  0  0  0
  4  5  1  0  0  0  0
  5  1  2  0  0  0  0
  6  2  2  0  0  0  0
  7  6  1  0  0  0  0
  8  7  1  0  0  0  0
  9  8  1  0  0  0  0
 10  9  1  0  0  0  0
 11 16  2  0  0  0  0
 11 10  1  0  0  0  0
 12 11  1  0  0  0  0
 13 18  2  0  0  0  0
 14 15  1  0  0  0  0
 15 17  2  0  0  0  0
 15 13  1  0  0  0  0
 17 12  1  0  0  0  0
 18 16  1  0  0  0  0
 19  3  1  0  0  0  0
 20 19  1  0  0  0  0
 21 24  2  0  0  0  0
 22 20  2  0  0  0  0
 23 25  2  0  0  0  0
 23 21  1  0  0  0  0
 24 20  1  0  0  0  0
 25 22  1  0  0  0  0
 26 29  2  0  0  0  0
 27 28  1  0  0  0  0
 29 28  1  0  0  0  0
 29 25  1  0  0  0  0
M  END
>  <MODEL>
9

>  <REMARK>
 VINA RESULT:      -8.0      3.219      6.138
  Name = 
  8 active torsions:
  status: ('A' for Active; 'I' for Inactive)
    1  A    between atoms: C_1  and  C_20
    2  A    between atoms: C_7  and  N_26
    3  A    between atoms: N_9  and  C_23
    4  A    between atoms: N_9  and  C_27
    5  A    between atoms: C_11  and  N_26
    6  A    between atoms: N_14  and  C_20
    7  A    between atoms: N_14  and  C_23
    8  A    between atoms: C_21  and  C_29
                            x       y       z     vdW  Elec       q    Type
                         _______ _______ _______ _____ _____    ______ ____

>  <TORSDO>
F 8

$$$$
