=
 OpenBabel11062412163D

 69 76  0  0  1  0  0  0  0  0999 V2000
  189.3970  176.1020  142.1130 C   0  0  0  0  0  2  0  0  0  0  0  0
  189.8470  177.4970  141.6380 C   0  0  2  0  0  0  0  0  0  0  0  0
  189.6590  177.8680  144.2370 C   0  0  1  0  0  3  0  0  0  0  0  0
  189.6760  178.4910  142.8310 C   0  0  1  0  0  3  0  0  0  0  0  0
  190.4430  179.6560  142.7730 O   0  0  0  0  0  1  0  0  0  0  0  0
  188.6950  176.6760  144.3180 C   0  0  0  0  0  2  0  0  0  0  0  0
  188.2470  176.1980  143.0080 N   0  0  0  0  0  2  0  0  0  0  0  0
  192.0570  178.4010  144.7480 O   0  0  0  0  0  0  0  0  0  0  0  0
  191.2300  176.2950  145.0970 O   0  0  0  0  0  1  0  0  0  0  0  0
  191.0210  177.4770  144.7210 C   0  0  0  0  0  0  0  0  0  0  0  0
  187.6300  178.4890  140.7060 C   0  0  0  0  0  0  0  0  0  0  0  0
  188.9280  177.8930  140.5680 N   0  0  0  0  0  2  0  0  0  0  0  0
  186.8920  178.5830  139.6880 O   0  0  0  0  0  0  0  0  0  0  0  0
  187.1150  178.9490  142.0350 C   0  0  0  0  0  2  0  0  0  0  0  0
  183.6030  178.5760  143.4650 C   0  0  0  0  0  3  0  0  0  0  0  0
  185.6290  178.8160  142.1520 C   0  0  0  0  0  0  0  0  0  0  0  0
  184.9960  178.6740  143.3990 C   0  0  0  0  0  0  0  0  0  0  0  0
  185.7380  178.6430  144.5770 O   0  0  0  0  0  1  0  0  0  0  0  0
  184.8610  178.8280  140.9810 C   0  0  0  0  0  3  0  0  0  0  0  0
  183.4700  178.7050  141.0430 C   0  0  0  0  0  0  0  0  0  0  0  0
  182.8420  178.5980  142.2920 C   0  0  0  0  0  3  0  0  0  0  0  0
  182.6860  178.7520  139.7670 C   0  0  0  0  0  2  0  0  0  0  0  0
  182.5140  177.3710  139.1360 C   0  0  1  0  0  3  0  0  0  0  0  0
  183.1200  176.4170  139.9550 O   0  0  0  0  0  1  0  0  0  0  0  0
  180.4910  176.1080  139.9450 C   0  0  0  0  0  1  0  0  0  0  0  0
  181.0390  177.0100  138.8490 C   0  0  0  0  0  0  0  0  0  0  0  0
  180.1990  178.2860  138.8360 C   0  0  0  0  0  1  0  0  0  0  0  0
  180.9520  176.2610  137.4940 C   0  0  1  0  0  0  0  0  0  0  0  0
  180.4630  174.3030  135.1610 O   0  0  0  0  0  1  0  0  0  0  0  0
  181.3170  174.7920  137.4150 C   0  0  2  0  0  3  0  0  0  0  0  0
  180.3370  174.0580  136.5300 C   0  0  1  0  0  0  0  0  0  0  0  0
  179.8450  175.2400  137.3280 C   0  0  2  0  0  3  0  0  0  0  0  0
  181.2230  176.9790  136.3250 O   0  0  0  0  0  1  0  0  0  0  0  0
  179.8320  172.6980  136.9850 C   0  0  0  0  0  2  0  0  0  0  0  0
  180.8270  171.5920  136.6310 C   0  0  1  0  0  3  0  0  0  0  0  0
  181.1410  169.7740  135.0770 O   0  0  0  0  0  1  0  0  0  0  0  0
  179.1610  171.0840  134.8190 C   0  0  0  0  0  1  0  0  0  0  0  0
  180.1770  170.4990  135.7840 C   0  0  2  0  0  3  0  0  0  0  0  0
  181.9740  172.1510  135.9260 N   0  0  0  0  0  2  0  0  0  0  0  0
  183.2550  171.5180  135.9440 C   0  0  0  0  0  0  0  0  0  0  0  0
  183.4350  170.4600  136.6090 O   0  0  0  0  0  0  0  0  0  0  0  0
  184.4100  172.1590  135.2420 C   0  0  0  0  0  3  0  0  0  0  0  0
  185.6030  172.2470  136.1770 C   0  0  0  0  0  2  0  0  0  0  0  0
  184.7630  173.4760  135.9130 C   0  0  0  0  0  2  0  0  0  0  0  0
  192.2500  176.9270  141.8860 C   0  0  0  0  0  2  0  0  0  0  0  0
  191.2710  177.3570  141.0800 C   0  0  0  0  0  0  0  0  0  0  0  0
  191.5880  177.4280  139.6130 C   0  0  0  0  0  2  0  0  0  0  0  0
  192.8220  176.6110  139.2680 C   0  0  0  0  0  2  0  0  0  0  0  0
  195.0630  175.1160  136.1210 C   0  0  0  0  0  2  0  0  0  0  0  0
  191.5870  174.9950  135.9560 C   0  0  2  0  0  3  0  0  0  0  0  0
  191.8240  172.1140  135.7270 O   0  0  0  0  0  1  0  0  0  0  0  0
  194.5520  176.5380  136.1630 C   0  0  0  0  0  0  0  0  0  0  0  0
  195.1680  177.4250  135.3980 C   0  0  0  0  0  2  0  0  0  0  0  0
  190.9180  174.8300  138.2440 O   0  0  0  0  0  0  0  0  0  0  0  0
  194.1840  172.7020  135.8410 C   0  0  2  0  0  3  0  0  0  0  0  0
  193.4890  176.9920  136.9710 O   0  0  0  0  0  0  0  0  0  0  0  0
  192.8280  174.2900  135.3540 C   0  0  1  0  0  3  0  0  0  0  0  0
  191.7160  175.3430  137.4150 C   0  0  0  0  0  0  0  0  0  0  0  0
  192.7830  176.2060  137.8690 N   0  0  0  0  0  0  0  0  0  0  0  0
  193.9550  174.1100  136.3530 C   0  0  2  0  0  3  0  0  0  0  0  0
  192.8580  172.7870  135.0610 C   0  0  2  0  0  3  0  0  0  0  0  0
  195.2130  172.1110  138.0180 C   0  0  0  0  0  1  0  0  0  0  0  0
  194.1850  171.6970  136.9900 C   0  0  0  0  0  2  0  0  0  0  0  0
  190.3680  174.3560  135.6700 O   0  0  0  0  0  0  0  0  0  0  0  0
  188.1210  174.8210  135.4280 O   0  0  0  0  0  0  0  0  0  0  0  0
  189.3580  175.2990  135.9080 C   0  0  2  0  0  3  0  0  0  0  0  0
  188.7980  175.7530  134.6150 C   0  0  2  0  0  3  0  0  0  0  0  0
  186.8530  176.8140  134.6710 C   0  0  0  0  0  1  0  0  0  0  0  0
  188.2320  177.0190  134.7790 O   0  0  0  0  0  0  0  0  0  0  0  0
  1  7  1  0  0  0  0
  2 12  1  6  0  0  0
  2  1  1  0  0  0  0
  2  4  1  0  0  0  0
  3  6  1  0  0  0  0
  3 10  1  6  0  0  0
  4  5  1  1  0  0  0
  4  3  1  0  0  0  0
  7  6  1  0  0  0  0
 10  8  2  0  0  0  0
 10  9  1  0  0  0  0
 11 14  1  0  0  0  0
 12 11  1  0  0  0  0
 13 11  2  0  0  0  0
 14 16  1  0  0  0  0
 16 17  2  0  0  0  0
 17 15  1  0  0  0  0
 17 18  1  0  0  0  0
 19 20  2  0  0  0  0
 19 16  1  0  0  0  0
 20 21  1  0  0  0  0
 21 15  2  0  0  0  0
 22 20  1  0  0  0  0
 23 22  1  0  0  0  0
 23 24  1  1  0  0  0
 26 23  1  0  0  0  0
 26 25  1  0  0  0  0
 27 26  1  0  0  0  0
 28 26  1  0  0  0  0
 29 31  1  0  0  0  0
 30 28  1  0  0  0  0
 31 34  1  0  0  0  0
 31 32  1  0  0  0  0
 31 30  1  0  0  0  0
 32 30  1  0  0  0  0
 32 28  1  0  0  0  0
 33 28  1  0  0  0  0
 35 34  1  0  0  0  0
 36 38  1  0  0  0  0
 37 38  1  0  0  0  0
 38 35  1  0  0  0  0
 39 40  1  0  0  0  0
 39 35  1  0  0  0  0
 40 41  2  0  0  0  0
 42 44  1  0  0  0  0
 42 40  1  0  0  0  0
 42 43  1  0  0  0  0
 44 43  1  0  0  0  0
 46  2  1  0  0  0  0
 46 45  2  0  0  0  0
 47 46  1  0  0  0  0
 48 47  1  0  0  0  0
 49 52  1  0  0  0  0
 49 60  1  0  0  0  0
 50 58  1  0  0  0  0
 52 56  1  0  0  0  0
 53 52  2  0  0  0  0
 55 60  1  0  0  0  0
 55 63  1  0  0  0  0
 56 59  1  0  0  0  0
 57 50  1  0  0  0  0
 57 60  1  0  0  0  0
 58 59  1  0  0  0  0
 58 54  2  0  0  0  0
 59 48  1  0  0  0  0
 61 57  1  0  0  0  0
 61 51  1  0  0  0  0
 61 55  1  0  0  0  0
 63 62  1  0  0  0  0
 64 66  1  0  0  0  0
 64 50  1  0  0  0  0
 65 66  1  0  0  0  0
 67 69  1  0  0  0  0
 67 65  1  0  0  0  0
 67 66  1  0  0  0  0
 68 69  1  0  0  0  0
M  END
>  <MODEL>
1

>  <REMARK>
 VINA RESULT:      -6.2      0.000      0.000
  Name = 
  21 active torsions:
  status: ('A' for Active; 'I' for Inactive)
    1  A    between atoms: C_2  and  C_52
    2  A    between atoms: N_3  and  C_42
    3  A    between atoms: C_5  and  C_35
    4  A    between atoms: C_5  and  C_42
    5  A    between atoms: C_6  and  C_33
    6  A    between atoms: C_6  and  N_59
    7  A    between atoms: C_7  and  N_24
    8  A    between atoms: C_7  and  C_43
    9  A    between atoms: C_9  and  C_22
   10  A    between atoms: C_13  and  C_21
   11  A    between atoms: C_15  and  C_16
   12  A    between atoms: C_15  and  C_62
   13  A    between atoms: C_16  and  C_52
   14  A    between atoms: C_17  and  C_21
   15  A    between atoms: C_18  and  C_63
   16  A    between atoms: C_19  and  O_45
   17  A    between atoms: C_20  and  O_45
   18  A    between atoms: C_33  and  C_43
   19  A    between atoms: C_42  and  C_50
   20  A    between atoms: C_46  and  C_67
   21  A    between atoms: O_64  and  C_69
                            x       y       z     vdW  Elec       q    Type
                         _______ _______ _______ _____ _____    ______ ____

>  <TORSDO>
F 21

$$$$
=
 OpenBabel11062412163D

 69 76  0  0  1  0  0  0  0  0999 V2000
  181.3290  174.0280  138.2300 C   0  0  0  0  0  2  0  0  0  0  0  0
  182.4690  174.1160  137.1970 C   0  0  2  0  0  0  0  0  0  0  0  0
  180.3550  174.0310  135.6320 C   0  0  1  0  0  3  0  0  0  0  0  0
  181.8690  173.8070  135.7890 C   0  0  1  0  0  3  0  0  0  0  0  0
  182.5940  174.2840  134.6960 O   0  0  0  0  0  1  0  0  0  0  0  0
  179.5630  173.3710  136.7690 C   0  0  0  0  0  2  0  0  0  0  0  0
  180.4000  172.9520  137.8970 N   0  0  0  0  0  2  0  0  0  0  0  0
  178.9330  176.0080  136.2360 O   0  0  0  0  0  1  0  0  0  0  0  0
  180.6310  176.2130  134.7150 O   0  0  0  0  0  0  0  0  0  0  0  0
  179.9860  175.4760  135.5040 C   0  0  0  0  0  0  0  0  0  0  0  0
  184.5420  172.6070  136.7580 C   0  0  0  0  0  0  0  0  0  0  0  0
  183.4250  173.0580  137.5370 N   0  0  0  0  0  2  0  0  0  0  0  0
  185.1420  171.5550  137.1080 O   0  0  0  0  0  0  0  0  0  0  0  0
  184.9750  173.3240  135.5160 C   0  0  0  0  0  2  0  0  0  0  0  0
  188.7250  172.8940  135.0070 C   0  0  0  0  0  3  0  0  0  0  0  0
  186.4490  173.5810  135.4850 C   0  0  0  0  0  0  0  0  0  0  0  0
  187.3590  172.6050  135.0420 C   0  0  0  0  0  0  0  0  0  0  0  0
  186.9160  171.3530  134.6230 O   0  0  0  0  0  1  0  0  0  0  0  0
  186.9220  174.8260  135.9150 C   0  0  0  0  0  3  0  0  0  0  0  0
  188.2900  175.1090  135.9050 C   0  0  0  0  0  0  0  0  0  0  0  0
  189.1900  174.1430  135.4310 C   0  0  0  0  0  3  0  0  0  0  0  0
  188.7490  176.4640  136.3470 C   0  0  0  0  0  2  0  0  0  0  0  0
  189.3950  176.4400  137.7320 C   0  0  1  0  0  3  0  0  0  0  0  0
  190.6940  175.9370  137.6200 O   0  0  0  0  0  1  0  0  0  0  0  0
  190.7690  178.1480  138.9720 C   0  0  0  0  0  1  0  0  0  0  0  0
  189.3840  177.8140  138.4370 C   0  0  0  0  0  0  0  0  0  0  0  0
  189.0050  178.8970  137.4270 C   0  0  0  0  0  1  0  0  0  0  0  0
  188.3860  177.7720  139.6230 C   0  0  1  0  0  0  0  0  0  0  0  0
  186.8820  178.0220  142.3040 O   0  0  0  0  0  1  0  0  0  0  0  0
  188.8660  177.3720  141.0030 C   0  0  2  0  0  3  0  0  0  0  0  0
  188.2360  178.2580  142.0510 C   0  0  1  0  0  0  0  0  0  0  0  0
  188.5190  178.8400  140.6880 C   0  0  2  0  0  3  0  0  0  0  0  0
  187.0600  177.4170  139.3560 O   0  0  0  0  0  1  0  0  0  0  0  0
  189.1110  178.7730  143.1830 C   0  0  0  0  0  2  0  0  0  0  0  0
  189.5280  177.6380  144.1190 C   0  0  1  0  0  3  0  0  0  0  0  0
  191.4310  176.4040  144.9380 O   0  0  0  0  0  1  0  0  0  0  0  0
  191.8820  178.4670  143.8230 C   0  0  0  0  0  1  0  0  0  0  0  0
  190.9890  177.2420  143.9110 C   0  0  2  0  0  3  0  0  0  0  0  0
  189.3100  178.0230  145.5080 N   0  0  0  0  0  2  0  0  0  0  0  0
  188.0440  177.8580  146.1500 C   0  0  0  0  0  0  0  0  0  0  0  0
  187.0590  177.3980  145.5100 O   0  0  0  0  0  0  0  0  0  0  0  0
  187.8640  178.3140  147.5640 C   0  0  0  0  0  3  0  0  0  0  0  0
  189.1040  177.9860  148.3770 C   0  0  0  0  0  2  0  0  0  0  0  0
  187.8710  177.1190  148.5030 C   0  0  0  0  0  2  0  0  0  0  0  0
  183.3640  176.2360  136.2690 C   0  0  0  0  0  2  0  0  0  0  0  0
  183.1330  175.4920  137.3570 C   0  0  0  0  0  0  0  0  0  0  0  0
  183.3060  176.1690  138.6870 C   0  0  0  0  0  2  0  0  0  0  0  0
  181.9690  176.4110  139.3690 C   0  0  0  0  0  2  0  0  0  0  0  0
  183.4200  180.2460  138.7760 C   0  0  0  0  0  2  0  0  0  0  0  0
  180.4080  179.7980  140.4660 C   0  0  2  0  0  3  0  0  0  0  0  0
  179.1560  181.4020  138.4000 O   0  0  0  0  0  1  0  0  0  0  0  0
  183.7090  179.4420  140.0230 C   0  0  0  0  0  0  0  0  0  0  0  0
  184.7630  179.7960  140.7410 C   0  0  0  0  0  2  0  0  0  0  0  0
  179.5320  177.7810  139.5310 O   0  0  0  0  0  0  0  0  0  0  0  0
  181.4600  181.4660  137.6150 C   0  0  2  0  0  3  0  0  0  0  0  0
  182.9570  178.3340  140.4630 O   0  0  0  0  0  0  0  0  0  0  0  0
  181.1640  180.8810  139.6560 C   0  0  1  0  0  3  0  0  0  0  0  0
  180.5560  178.4010  139.9240 C   0  0  0  0  0  0  0  0  0  0  0  0
  181.8650  177.8000  139.7950 N   0  0  0  0  0  0  0  0  0  0  0  0
  181.9370  180.3160  138.4790 C   0  0  2  0  0  3  0  0  0  0  0  0
  180.4480  181.8500  138.7110 C   0  0  2  0  0  3  0  0  0  0  0  0
  181.0780  179.4650  136.2010 C   0  0  0  0  0  1  0  0  0  0  0  0
  180.8350  180.9520  136.3210 C   0  0  0  0  0  2  0  0  0  0  0  0
  179.0690  180.1190  140.7440 O   0  0  0  0  0  0  0  0  0  0  0  0
  180.0820  180.8210  142.6940 O   0  0  0  0  0  0  0  0  0  0  0  0
  178.9550  180.1810  142.1410 C   0  0  2  0  0  3  0  0  0  0  0  0
  180.0610  179.4130  142.7570 C   0  0  2  0  0  3  0  0  0  0  0  0
  180.5870  177.9970  144.3790 C   0  0  0  0  0  1  0  0  0  0  0  0
  179.6790  179.0040  144.0360 O   0  0  0  0  0  0  0  0  0  0  0  0
  2 46  1  1  0  0  0
  2 12  1  0  0  0  0
  2  1  1  0  0  0  0
  3 10  1  1  0  0  0
  3  4  1  0  0  0  0
  3  6  1  0  0  0  0
  4  5  1  6  0  0  0
  4  2  1  0  0  0  0
  6  7  1  0  0  0  0
  7  1  1  0  0  0  0
  9 10  2  0  0  0  0
 10  8  1  0  0  0  0
 11 13  2  0  0  0  0
 11 12  1  0  0  0  0
 14 11  1  0  0  0  0
 15 17  2  0  0  0  0
 15 21  1  0  0  0  0
 16 14  1  0  0  0  0
 16 19  2  0  0  0  0
 17 16  1  0  0  0  0
 18 17  1  0  0  0  0
 20 19  1  0  0  0  0
 20 22  1  0  0  0  0
 21 20  2  0  0  0  0
 22 23  1  0  0  0  0
 23 24  1  6  0  0  0
 23 26  1  0  0  0  0
 26 25  1  0  0  0  0
 26 28  1  0  0  0  0
 27 26  1  0  0  0  0
 28 32  1  0  0  0  0
 28 30  1  0  0  0  0
 30 31  1  0  0  0  0
 31 29  1  0  0  0  0
 31 34  1  0  0  0  0
 32 30  1  0  0  0  0
 32 31  1  0  0  0  0
 33 28  1  0  0  0  0
 34 35  1  0  0  0  0
 35 39  1  0  0  0  0
 37 38  1  0  0  0  0
 38 35  1  0  0  0  0
 38 36  1  0  0  0  0
 39 40  1  0  0  0  0
 40 42  1  0  0  0  0
 41 40  2  0  0  0  0
 42 43  1  0  0  0  0
 42 44  1  0  0  0  0
 43 44  1  0  0  0  0
 45 46  2  0  0  0  0
 46 47  1  0  0  0  0
 47 48  1  0  0  0  0
 48 59  1  0  0  0  0
 49 52  1  0  0  0  0
 50 64  1  0  0  0  0
 51 61  1  0  0  0  0
 52 56  1  0  0  0  0
 52 53  2  0  0  0  0
 54 58  2  0  0  0  0
 55 60  1  0  0  0  0
 55 61  1  0  0  0  0
 57 50  1  0  0  0  0
 58 50  1  0  0  0  0
 59 58  1  0  0  0  0
 59 56  1  0  0  0  0
 60 49  1  0  0  0  0
 60 57  1  0  0  0  0
 61 57  1  0  0  0  0
 62 63  1  0  0  0  0
 63 55  1  0  0  0  0
 64 66  1  0  0  0  0
 65 67  1  0  0  0  0
 66 65  1  0  0  0  0
 66 67  1  0  0  0  0
 67 69  1  0  0  0  0
 69 68  1  0  0  0  0
M  END
>  <MODEL>
2

>  <REMARK>
 VINA RESULT:      -5.6      3.021     11.890
  Name = 
  21 active torsions:
  status: ('A' for Active; 'I' for Inactive)
    1  A    between atoms: C_2  and  C_52
    2  A    between atoms: N_3  and  C_42
    3  A    between atoms: C_5  and  C_35
    4  A    between atoms: C_5  and  C_42
    5  A    between atoms: C_6  and  C_33
    6  A    between atoms: C_6  and  N_59
    7  A    between atoms: C_7  and  N_24
    8  A    between atoms: C_7  and  C_43
    9  A    between atoms: C_9  and  C_22
   10  A    between atoms: C_13  and  C_21
   11  A    between atoms: C_15  and  C_16
   12  A    between atoms: C_15  and  C_62
   13  A    between atoms: C_16  and  C_52
   14  A    between atoms: C_17  and  C_21
   15  A    between atoms: C_18  and  C_63
   16  A    between atoms: C_19  and  O_45
   17  A    between atoms: C_20  and  O_45
   18  A    between atoms: C_33  and  C_43
   19  A    between atoms: C_42  and  C_50
   20  A    between atoms: C_46  and  C_67
   21  A    between atoms: O_64  and  C_69
                            x       y       z     vdW  Elec       q    Type
                         _______ _______ _______ _____ _____    ______ ____

>  <TORSDO>
F 21

$$$$
=
 OpenBabel11062412163D

 69 76  0  0  1  0  0  0  0  0999 V2000
  188.4700  178.3890  145.0570 C   0  0  0  0  0  2  0  0  0  0  0  0
  187.2550  177.5270  144.6610 C   0  0  2  0  0  0  0  0  0  0  0  0
  186.7970  177.9240  147.2220 C   0  0  1  0  0  3  0  0  0  0  0  0
  186.5430  177.0640  145.9720 C   0  0  1  0  0  3  0  0  0  0  0  0
  185.2040  176.6920  145.8440 O   0  0  0  0  0  1  0  0  0  0  0  0
  188.2930  178.2000  147.4280 C   0  0  0  0  0  2  0  0  0  0  0  0
  189.1130  177.8670  146.2600 N   0  0  0  0  0  2  0  0  0  0  0  0
  186.5860  180.3780  147.7020 O   0  0  0  0  0  1  0  0  0  0  0  0
  184.8420  179.2150  146.7850 O   0  0  0  0  0  0  0  0  0  0  0  0
  186.0220  179.2050  147.2190 C   0  0  0  0  0  0  0  0  0  0  0  0
  188.7110  176.3070  142.8830 C   0  0  0  0  0  0  0  0  0  0  0  0
  187.7850  176.3430  143.9780 N   0  0  0  0  0  2  0  0  0  0  0  0
  188.9080  175.2140  142.2880 O   0  0  0  0  0  0  0  0  0  0  0  0
  189.4030  177.5450  142.3990 C   0  0  0  0  0  2  0  0  0  0  0  0
  188.6710  178.7320  138.8540 C   0  0  0  0  0  3  0  0  0  0  0  0
  189.3930  177.6610  140.9070 C   0  0  0  0  0  0  0  0  0  0  0  0
  188.6330  178.6430  140.2480 C   0  0  0  0  0  0  0  0  0  0  0  0
  187.8490  179.5420  140.9670 O   0  0  0  0  0  1  0  0  0  0  0  0
  190.1610  176.7600  140.1590 C   0  0  0  0  0  3  0  0  0  0  0  0
  190.1810  176.8310  138.7640 C   0  0  0  0  0  0  0  0  0  0  0  0
  189.4460  177.8340  138.1140 C   0  0  0  0  0  3  0  0  0  0  0  0
  191.0380  175.8650  138.0060 C   0  0  0  0  0  2  0  0  0  0  0  0
  190.2160  174.8210  137.2500 C   0  0  1  0  0  3  0  0  0  0  0  0
  188.8590  175.0600  137.4760 O   0  0  0  0  0  1  0  0  0  0  0  0
  189.2480  174.7980  134.9250 C   0  0  0  0  0  1  0  0  0  0  0  0
  190.5330  174.7700  135.7390 C   0  0  0  0  0  0  0  0  0  0  0  0
  191.3520  176.0010  135.3530 C   0  0  0  0  0  1  0  0  0  0  0  0
  191.2980  173.4590  135.4220 C   0  0  1  0  0  0  0  0  0  0  0  0
  193.2430  171.0700  135.2630 O   0  0  0  0  0  1  0  0  0  0  0  0
  192.8000  173.4890  135.2170 C   0  0  2  0  0  3  0  0  0  0  0  0
  193.4410  172.3000  135.8940 C   0  0  1  0  0  0  0  0  0  0  0  0
  192.1940  172.8920  136.5030 C   0  0  2  0  0  3  0  0  0  0  0  0
  190.6410  172.4760  134.6750 O   0  0  0  0  0  1  0  0  0  0  0  0
  194.7270  172.5210  136.6750 C   0  0  0  0  0  2  0  0  0  0  0  0
  195.8590  172.9820  135.7570 C   0  0  1  0  0  3  0  0  0  0  0  0
  196.6270  175.0190  134.7190 O   0  0  0  0  0  1  0  0  0  0  0  0
  197.1200  174.7370  137.0390 C   0  0  0  0  0  1  0  0  0  0  0  0
  196.1380  174.4760  135.9110 C   0  0  2  0  0  3  0  0  0  0  0  0
  197.0720  172.2200  136.0270 N   0  0  0  0  0  2  0  0  0  0  0  0
  197.1290  170.8020  135.8560 C   0  0  0  0  0  0  0  0  0  0  0  0
  196.1050  170.1620  135.4910 O   0  0  0  0  0  0  0  0  0  0  0  0
  198.3860  170.0640  136.1930 C   0  0  0  0  0  3  0  0  0  0  0  0
  198.3580  169.6280  137.6480 C   0  0  0  0  0  2  0  0  0  0  0  0
  199.1780  170.8320  137.2390 C   0  0  0  0  0  2  0  0  0  0  0  0
  186.7160  179.6340  143.4670 C   0  0  0  0  0  2  0  0  0  0  0  0
  186.4000  178.3520  143.6890 C   0  0  0  0  0  0  0  0  0  0  0  0
  185.3800  177.7400  142.7710 C   0  0  0  0  0  2  0  0  0  0  0  0
  184.8390  178.7570  141.7800 C   0  0  0  0  0  2  0  0  0  0  0  0
  180.8200  179.6880  141.3970 C   0  0  0  0  0  2  0  0  0  0  0  0
  182.2180  177.2590  139.3310 C   0  0  2  0  0  3  0  0  0  0  0  0
  181.4310  178.9030  137.0760 O   0  0  0  0  0  1  0  0  0  0  0  0
  181.3230  178.5700  142.2800 C   0  0  0  0  0  0  0  0  0  0  0  0
  180.5230  178.1570  143.2500 C   0  0  0  0  0  2  0  0  0  0  0  0
  184.4990  177.9400  139.1220 O   0  0  0  0  0  0  0  0  0  0  0  0
  180.5670  180.2750  138.8930 C   0  0  2  0  0  3  0  0  0  0  0  0
  182.5860  177.9530  142.1630 O   0  0  0  0  0  0  0  0  0  0  0  0
  181.0150  178.2340  139.3690 C   0  0  1  0  0  3  0  0  0  0  0  0
  183.4980  177.8300  139.8800 C   0  0  0  0  0  0  0  0  0  0  0  0
  183.5610  178.3080  141.2430 N   0  0  0  0  0  0  0  0  0  0  0  0
  181.3540  179.5780  139.9850 C   0  0  2  0  0  3  0  0  0  0  0  0
  180.4930  178.9450  138.1180 C   0  0  2  0  0  3  0  0  0  0  0  0
  180.7670  181.7500  136.9100 C   0  0  0  0  0  1  0  0  0  0  0  0
  181.4070  181.3590  138.2230 C   0  0  0  0  0  2  0  0  0  0  0  0
  182.4100  176.6300  138.0880 O   0  0  0  0  0  0  0  0  0  0  0  0
  183.3990  174.5590  137.8640 O   0  0  0  0  0  0  0  0  0  0  0  0
  182.2570  175.2540  138.3100 C   0  0  2  0  0  3  0  0  0  0  0  0
  182.2770  174.5440  137.0110 C   0  0  2  0  0  3  0  0  0  0  0  0
  181.5730  172.7910  135.8510 C   0  0  0  0  0  1  0  0  0  0  0  0
  181.6020  173.3280  137.1420 O   0  0  0  0  0  0  0  0  0  0  0  0
  1  7  1  0  0  0  0
  2 46  1  6  0  0  0
  2  1  1  0  0  0  0
  2  4  1  0  0  0  0
  3 10  1  6  0  0  0
  3  6  1  0  0  0  0
  4  5  1  6  0  0  0
  4  3  1  0  0  0  0
  7  6  1  0  0  0  0
  9 10  2  0  0  0  0
 10  8  1  0  0  0  0
 11 12  1  0  0  0  0
 12  2  1  0  0  0  0
 13 11  2  0  0  0  0
 14 11  1  0  0  0  0
 15 17  1  0  0  0  0
 16 14  1  0  0  0  0
 17 16  2  0  0  0  0
 17 18  1  0  0  0  0
 19 16  1  0  0  0  0
 20 19  2  0  0  0  0
 21 20  1  0  0  0  0
 21 15  2  0  0  0  0
 22 20  1  0  0  0  0
 23 24  1  6  0  0  0
 23 22  1  0  0  0  0
 25 26  1  0  0  0  0
 26 23  1  0  0  0  0
 27 26  1  0  0  0  0
 28 26  1  0  0  0  0
 28 32  1  0  0  0  0
 29 31  1  0  0  0  0
 30 28  1  0  0  0  0
 30 31  1  0  0  0  0
 30 32  1  0  0  0  0
 31 32  1  0  0  0  0
 31 34  1  0  0  0  0
 33 28  1  0  0  0  0
 35 38  1  0  0  0  0
 35 39  1  0  0  0  0
 35 34  1  0  0  0  0
 36 38  1  0  0  0  0
 38 37  1  0  0  0  0
 40 39  1  0  0  0  0
 40 42  1  0  0  0  0
 41 40  2  0  0  0  0
 42 44  1  0  0  0  0
 42 43  1  0  0  0  0
 44 43  1  0  0  0  0
 45 46  2  0  0  0  0
 47 46  1  0  0  0  0
 48 47  1  0  0  0  0
 49 52  1  0  0  0  0
 50 57  1  0  0  0  0
 50 58  1  0  0  0  0
 51 61  1  0  0  0  0
 52 53  2  0  0  0  0
 54 58  2  0  0  0  0
 55 60  1  0  0  0  0
 56 52  1  0  0  0  0
 57 60  1  0  0  0  0
 58 59  1  0  0  0  0
 59 48  1  0  0  0  0
 59 56  1  0  0  0  0
 60 49  1  0  0  0  0
 61 55  1  0  0  0  0
 61 57  1  0  0  0  0
 62 63  1  0  0  0  0
 63 55  1  0  0  0  0
 64 66  1  0  0  0  0
 64 50  1  0  0  0  0
 65 66  1  0  0  0  0
 67 69  1  0  0  0  0
 67 65  1  0  0  0  0
 67 66  1  0  0  0  0
 68 69  1  0  0  0  0
M  END
>  <MODEL>
3

>  <REMARK>
 VINA RESULT:      -5.0      2.551     10.620
  Name = 
  21 active torsions:
  status: ('A' for Active; 'I' for Inactive)
    1  A    between atoms: C_2  and  C_52
    2  A    between atoms: N_3  and  C_42
    3  A    between atoms: C_5  and  C_35
    4  A    between atoms: C_5  and  C_42
    5  A    between atoms: C_6  and  C_33
    6  A    between atoms: C_6  and  N_59
    7  A    between atoms: C_7  and  N_24
    8  A    between atoms: C_7  and  C_43
    9  A    between atoms: C_9  and  C_22
   10  A    between atoms: C_13  and  C_21
   11  A    between atoms: C_15  and  C_16
   12  A    between atoms: C_15  and  C_62
   13  A    between atoms: C_16  and  C_52
   14  A    between atoms: C_17  and  C_21
   15  A    between atoms: C_18  and  C_63
   16  A    between atoms: C_19  and  O_45
   17  A    between atoms: C_20  and  O_45
   18  A    between atoms: C_33  and  C_43
   19  A    between atoms: C_42  and  C_50
   20  A    between atoms: C_46  and  C_67
   21  A    between atoms: O_64  and  C_69
                            x       y       z     vdW  Elec       q    Type
                         _______ _______ _______ _____ _____    ______ ____

>  <TORSDO>
F 21

$$$$
=
 OpenBabel11062412163D

 69 76  0  0  1  0  0  0  0  0999 V2000
  184.5650  177.0740  142.8020 C   0  0  0  0  0  2  0  0  0  0  0  0
  183.9200  178.4140  143.2060 C   0  0  2  0  0  0  0  0  0  0  0  0
  186.1190  179.2340  142.0140 C   0  0  1  0  0  3  0  0  0  0  0  0
  184.9820  179.5410  143.0050 C   0  0  1  0  0  3  0  0  0  0  0  0
  184.4830  180.8360  142.8570 O   0  0  0  0  0  1  0  0  0  0  0  0
  186.7550  177.8630  142.2870 C   0  0  0  0  0  2  0  0  0  0  0  0
  185.9690  177.0270  143.1980 N   0  0  0  0  0  2  0  0  0  0  0  0
  186.4900  178.8330  139.5650 O   0  0  0  0  0  0  0  0  0  0  0  0
  184.6060  179.9060  140.2990 O   0  0  0  0  0  1  0  0  0  0  0  0
  185.6930  179.3400  140.5830 C   0  0  0  0  0  0  0  0  0  0  0  0
  184.4450  178.7010  145.7380 C   0  0  0  0  0  0  0  0  0  0  0  0
  183.6110  178.3170  144.6360 N   0  0  0  0  0  2  0  0  0  0  0  0
  184.1040  178.3660  146.9040 O   0  0  0  0  0  0  0  0  0  0  0  0
  185.7310  179.4410  145.5290 C   0  0  0  0  0  2  0  0  0  0  0  0
  188.0220  178.4360  148.4020 C   0  0  0  0  0  3  0  0  0  0  0  0
  186.8630  178.8540  146.3130 C   0  0  0  0  0  0  0  0  0  0  0  0
  186.9610  179.0200  147.7060 C   0  0  0  0  0  0  0  0  0  0  0  0
  186.0050  179.7490  148.4070 O   0  0  0  0  0  1  0  0  0  0  0  0
  187.8470  178.1290  145.6300 C   0  0  0  0  0  3  0  0  0  0  0  0
  188.9230  177.5650  146.3200 C   0  0  0  0  0  0  0  0  0  0  0  0
  188.9960  177.7060  147.7140 C   0  0  0  0  0  3  0  0  0  0  0  0
  189.9360  176.7730  145.5530 C   0  0  0  0  0  2  0  0  0  0  0  0
  190.3900  177.4840  144.2780 C   0  0  1  0  0  3  0  0  0  0  0  0
  191.5670  178.1870  144.5430 O   0  0  0  0  0  1  0  0  0  0  0  0
  191.9710  175.9480  143.0590 C   0  0  0  0  0  1  0  0  0  0  0  0
  190.5650  176.5310  143.0750 C   0  0  0  0  0  0  0  0  0  0  0  0
  189.5830  175.3670  143.2060 C   0  0  0  0  0  1  0  0  0  0  0  0
  190.3350  177.3200  141.7600 C   0  0  1  0  0  0  0  0  0  0  0  0
  190.1880  178.3690  138.8630 O   0  0  0  0  0  1  0  0  0  0  0  0
  191.4700  177.4910  140.7710 C   0  0  2  0  0  3  0  0  0  0  0  0
  190.9600  177.3150  139.3590 C   0  0  1  0  0  0  0  0  0  0  0  0
  190.3000  176.5320  140.4680 C   0  0  2  0  0  3  0  0  0  0  0  0
  189.4320  178.3890  141.7820 O   0  0  0  0  0  1  0  0  0  0  0  0
  191.7980  176.5020  138.3850 C   0  0  0  0  0  2  0  0  0  0  0  0
  190.9640  175.4070  137.7190 C   0  0  1  0  0  3  0  0  0  0  0  0
  189.3530  176.6340  136.4090 O   0  0  0  0  0  1  0  0  0  0  0  0
  190.2010  174.6130  135.4600 C   0  0  0  0  0  1  0  0  0  0  0  0
  190.4900  175.8250  136.3280 C   0  0  2  0  0  3  0  0  0  0  0  0
  191.7290  174.1700  137.6320 N   0  0  0  0  0  2  0  0  0  0  0  0
  193.1040  174.1560  137.2400 C   0  0  0  0  0  0  0  0  0  0  0  0
  193.6870  175.2290  136.9230 O   0  0  0  0  0  0  0  0  0  0  0  0
  193.8290  172.8530  137.1220 C   0  0  0  0  0  3  0  0  0  0  0  0
  195.2110  172.9690  137.7410 C   0  0  0  0  0  2  0  0  0  0  0  0
  195.0540  173.0140  136.2370 C   0  0  0  0  0  2  0  0  0  0  0  0
  181.6610  179.3790  142.8530 C   0  0  0  0  0  2  0  0  0  0  0  0
  182.6220  178.5640  142.3990 C   0  0  0  0  0  0  0  0  0  0  0  0
  182.4640  178.0510  140.9960 C   0  0  0  0  0  2  0  0  0  0  0  0
  181.0000  177.9000  140.6180 C   0  0  0  0  0  2  0  0  0  0  0  0
  182.0640  178.3870  136.6440 C   0  0  0  0  0  2  0  0  0  0  0  0
  180.8860  175.2960  137.7340 C   0  0  2  0  0  3  0  0  0  0  0  0
  183.4160  174.1710  136.8750 O   0  0  0  0  0  1  0  0  0  0  0  0
  180.6530  178.5850  137.1460 C   0  0  0  0  0  0  0  0  0  0  0  0
  179.8410  179.3170  136.4000 C   0  0  0  0  0  2  0  0  0  0  0  0
  181.5490  175.2180  140.0290 O   0  0  0  0  0  0  0  0  0  0  0  0
  183.7740  176.4930  136.2350 C   0  0  2  0  0  3  0  0  0  0  0  0
  180.1450  178.0720  138.3580 O   0  0  0  0  0  0  0  0  0  0  0  0
  181.7440  175.9050  136.5970 C   0  0  1  0  0  3  0  0  0  0  0  0
  181.1080  175.9250  139.0840 C   0  0  0  0  0  0  0  0  0  0  0  0
  180.8800  177.3400  139.2790 N   0  0  0  0  0  0  0  0  0  0  0  0
  182.6290  177.0460  137.0610 C   0  0  2  0  0  3  0  0  0  0  0  0
  182.9730  175.1930  136.0240 C   0  0  2  0  0  3  0  0  0  0  0  0
  185.9530  177.5100  136.8390 C   0  0  0  0  0  1  0  0  0  0  0  0
  185.0330  176.3360  137.0840 C   0  0  0  0  0  2  0  0  0  0  0  0
  180.9210  173.8930  137.7930 O   0  0  0  0  0  0  0  0  0  0  0  0
  178.9760  172.6530  137.7390 O   0  0  0  0  0  0  0  0  0  0  0  0
  179.8720  173.4340  136.9820 C   0  0  2  0  0  3  0  0  0  0  0  0
  179.9000  171.9540  136.9360 C   0  0  2  0  0  3  0  0  0  0  0  0
  179.2220  170.1260  135.8810 C   0  0  0  0  0  1  0  0  0  0  0  0
  179.2730  171.5190  135.7660 O   0  0  0  0  0  0  0  0  0  0  0  0
  1  7  1  0  0  0  0
  1  2  1  0  0  0  0
  2 46  1  6  0  0  0
  2 12  1  0  0  0  0
  3 10  1  6  0  0  0
  3  6  1  0  0  0  0
  3  4  1  0  0  0  0
  4  5  1  6  0  0  0
  4  2  1  0  0  0  0
  6  7  1  0  0  0  0
  8 10  2  0  0  0  0
  9 10  1  0  0  0  0
 11 13  2  0  0  0  0
 12 11  1  0  0  0  0
 14 11  1  0  0  0  0
 14 16  1  0  0  0  0
 16 17  1  0  0  0  0
 17 15  2  0  0  0  0
 17 18  1  0  0  0  0
 19 16  2  0  0  0  0
 19 20  1  0  0  0  0
 20 21  2  0  0  0  0
 21 15  1  0  0  0  0
 22 20  1  0  0  0  0
 23 24  1  1  0  0  0
 23 22  1  0  0  0  0
 25 26  1  0  0  0  0
 26 27  1  0  0  0  0
 26 23  1  0  0  0  0
 28 33  1  0  0  0  0
 28 26  1  0  0  0  0
 29 31  1  0  0  0  0
 30 28  1  0  0  0  0
 31 32  1  0  0  0  0
 31 30  1  0  0  0  0
 32 30  1  0  0  0  0
 32 28  1  0  0  0  0
 34 31  1  0  0  0  0
 35 34  1  0  0  0  0
 37 38  1  0  0  0  0
 38 36  1  0  0  0  0
 38 35  1  0  0  0  0
 39 35  1  0  0  0  0
 40 39  1  0  0  0  0
 41 40  2  0  0  0  0
 42 40  1  0  0  0  0
 42 43  1  0  0  0  0
 44 42  1  0  0  0  0
 44 43  1  0  0  0  0
 46 45  2  0  0  0  0
 47 46  1  0  0  0  0
 48 47  1  0  0  0  0
 49 60  1  0  0  0  0
 49 52  1  0  0  0  0
 50 64  1  0  0  0  0
 50 58  1  0  0  0  0
 52 56  1  0  0  0  0
 53 52  2  0  0  0  0
 55 60  1  0  0  0  0
 55 63  1  0  0  0  0
 56 59  1  0  0  0  0
 57 60  1  0  0  0  0
 57 50  1  0  0  0  0
 58 59  1  0  0  0  0
 58 54  2  0  0  0  0
 59 48  1  0  0  0  0
 61 55  1  0  0  0  0
 61 57  1  0  0  0  0
 61 51  1  0  0  0  0
 62 63  1  0  0  0  0
 66 65  1  0  0  0  0
 66 64  1  0  0  0  0
 67 66  1  0  0  0  0
 67 65  1  0  0  0  0
 69 68  1  0  0  0  0
 69 67  1  0  0  0  0
M  END
>  <MODEL>
4

>  <REMARK>
 VINA RESULT:      -4.7      2.316      9.690
  Name = 
  21 active torsions:
  status: ('A' for Active; 'I' for Inactive)
    1  A    between atoms: C_2  and  C_52
    2  A    between atoms: N_3  and  C_42
    3  A    between atoms: C_5  and  C_35
    4  A    between atoms: C_5  and  C_42
    5  A    between atoms: C_6  and  C_33
    6  A    between atoms: C_6  and  N_59
    7  A    between atoms: C_7  and  N_24
    8  A    between atoms: C_7  and  C_43
    9  A    between atoms: C_9  and  C_22
   10  A    between atoms: C_13  and  C_21
   11  A    between atoms: C_15  and  C_16
   12  A    between atoms: C_15  and  C_62
   13  A    between atoms: C_16  and  C_52
   14  A    between atoms: C_17  and  C_21
   15  A    between atoms: C_18  and  C_63
   16  A    between atoms: C_19  and  O_45
   17  A    between atoms: C_20  and  O_45
   18  A    between atoms: C_33  and  C_43
   19  A    between atoms: C_42  and  C_50
   20  A    between atoms: C_46  and  C_67
   21  A    between atoms: O_64  and  C_69
                            x       y       z     vdW  Elec       q    Type
                         _______ _______ _______ _____ _____    ______ ____

>  <TORSDO>
F 21

$$$$
=
 OpenBabel11062412163D

 69 76  0  0  1  0  0  0  0  0999 V2000
  188.1170  176.8420  144.7910 C   0  0  0  0  0  2  0  0  0  0  0  0
  188.6100  177.6340  143.5640 C   0  0  2  0  0  0  0  0  0  0  0  0
  190.3720  178.3450  145.3860 C   0  0  1  0  0  3  0  0  0  0  0  0
  189.6730  178.6680  144.0530 C   0  0  1  0  0  3  0  0  0  0  0  0
  190.5630  179.1380  143.0860 O   0  0  0  0  0  1  0  0  0  0  0  0
  189.3620  177.9730  146.4810 C   0  0  0  0  0  2  0  0  0  0  0  0
  188.0170  177.7030  145.9650 N   0  0  0  0  0  2  0  0  0  0  0  0
  191.7690  176.7790  144.0100 O   0  0  0  0  0  0  0  0  0  0  0  0
  191.9850  176.8410  146.2880 O   0  0  0  0  0  1  0  0  0  0  0  0
  191.4210  177.2850  145.2560 C   0  0  0  0  0  0  0  0  0  0  0  0
  187.2500  178.8480  141.7080 C   0  0  0  0  0  0  0  0  0  0  0  0
  187.4530  178.3680  143.0450 N   0  0  0  0  0  2  0  0  0  0  0  0
  186.2890  179.6320  141.4820 O   0  0  0  0  0  0  0  0  0  0  0  0
  188.1830  178.4840  140.5930 C   0  0  0  0  0  2  0  0  0  0  0  0
  187.4630  178.7160  136.8600 C   0  0  0  0  0  3  0  0  0  0  0  0
  187.4930  178.4190  139.2670 C   0  0  0  0  0  0  0  0  0  0  0  0
  188.1350  178.8150  138.0800 C   0  0  0  0  0  0  0  0  0  0  0  0
  189.4420  179.2930  138.1010 O   0  0  0  0  0  1  0  0  0  0  0  0
  186.1730  177.9560  139.2200 C   0  0  0  0  0  3  0  0  0  0  0  0
  185.4890  177.8790  138.0030 C   0  0  0  0  0  0  0  0  0  0  0  0
  186.1470  178.2440  136.8200 C   0  0  0  0  0  3  0  0  0  0  0  0
  184.0880  177.3510  137.9970 C   0  0  0  0  0  2  0  0  0  0  0  0
  183.9110  176.1750  137.0360 C   0  0  1  0  0  3  0  0  0  0  0  0
  184.4720  175.0310  137.6080 O   0  0  0  0  0  1  0  0  0  0  0  0
  181.7850  177.2440  136.2120 C   0  0  0  0  0  1  0  0  0  0  0  0
  182.4410  175.9360  136.6270 C   0  0  0  0  0  0  0  0  0  0  0  0
  182.3980  174.9940  135.4240 C   0  0  0  0  0  1  0  0  0  0  0  0
  181.6640  175.3480  137.8340 C   0  0  1  0  0  0  0  0  0  0  0  0
  179.9230  174.8120  140.3230 O   0  0  0  0  0  1  0  0  0  0  0  0
  181.7260  176.0360  139.1830 C   0  0  2  0  0  3  0  0  0  0  0  0
  180.3600  176.0430  139.8280 C   0  0  1  0  0  0  0  0  0  0  0  0
  180.4490  176.1080  138.3220 C   0  0  2  0  0  3  0  0  0  0  0  0
  181.5170  173.9590  137.9100 O   0  0  0  0  0  1  0  0  0  0  0  0
  179.8930  177.3150  140.5160 C   0  0  0  0  0  2  0  0  0  0  0  0
  181.0160  178.3510  140.5840 C   0  0  1  0  0  3  0  0  0  0  0  0
  179.6000  179.3710  138.9200 O   0  0  0  0  0  1  0  0  0  0  0  0
  181.8780  180.0870  138.9840 C   0  0  0  0  0  1  0  0  0  0  0  0
  180.6770  179.6050  139.7790 C   0  0  2  0  0  3  0  0  0  0  0  0
  181.2910  178.7090  141.9690 N   0  0  0  0  0  2  0  0  0  0  0  0
  182.6110  178.6560  142.5170 C   0  0  0  0  0  0  0  0  0  0  0  0
  183.5790  178.2600  141.8120 O   0  0  0  0  0  0  0  0  0  0  0  0
  182.8290  178.9900  143.9590 C   0  0  0  0  0  3  0  0  0  0  0  0
  184.0640  179.8610  144.1100 C   0  0  0  0  0  2  0  0  0  0  0  0
  184.1370  178.3870  144.4430 C   0  0  0  0  0  2  0  0  0  0  0  0
  188.6230  175.3640  142.5620 C   0  0  0  0  0  2  0  0  0  0  0  0
  189.0950  176.6160  142.5210 C   0  0  0  0  0  0  0  0  0  0  0  0
  189.8730  177.0040  141.2960 C   0  0  0  0  0  2  0  0  0  0  0  0
  189.8830  175.8880  140.2640 C   0  0  0  0  0  2  0  0  0  0  0  0
  193.6900  175.7970  138.6340 C   0  0  0  0  0  2  0  0  0  0  0  0
  190.9640  176.4740  136.5760 C   0  0  2  0  0  3  0  0  0  0  0  0
  191.7070  174.1340  135.0340 O   0  0  0  0  0  1  0  0  0  0  0  0
  193.0430  177.0660  139.1350 C   0  0  0  0  0  0  0  0  0  0  0  0
  193.8430  178.0760  139.4380 C   0  0  0  0  0  2  0  0  0  0  0  0
  189.1630  175.3010  137.6220 O   0  0  0  0  0  0  0  0  0  0  0  0
  193.4830  174.0960  136.6990 C   0  0  2  0  0  3  0  0  0  0  0  0
  191.6570  177.2460  139.3260 O   0  0  0  0  0  0  0  0  0  0  0  0
  192.4160  175.9430  136.4840 C   0  0  1  0  0  3  0  0  0  0  0  0
  190.2030  175.9950  137.7840 C   0  0  0  0  0  0  0  0  0  0  0  0
  190.6930  176.2710  139.1160 N   0  0  0  0  0  0  0  0  0  0  0  0
  192.8040  175.0580  137.6530 C   0  0  2  0  0  3  0  0  0  0  0  0
  192.8240  174.8300  135.5150 C   0  0  2  0  0  3  0  0  0  0  0  0
  194.0330  171.6940  136.4240 C   0  0  0  0  0  1  0  0  0  0  0  0
  192.9890  172.6690  136.9190 C   0  0  0  0  0  2  0  0  0  0  0  0
  190.2220  176.3280  135.3920 O   0  0  0  0  0  0  0  0  0  0  0  0
  188.8380  174.5890  134.7770 O   0  0  0  0  0  0  0  0  0  0  0  0
  189.0710  175.6030  135.7280 C   0  0  2  0  0  3  0  0  0  0  0  0
  188.0620  175.7600  134.6560 C   0  0  2  0  0  3  0  0  0  0  0  0
  186.3530  174.3490  134.5940 C   0  0  0  0  0  1  0  0  0  0  0  0
  186.7890  175.5380  135.1860 O   0  0  0  0  0  0  0  0  0  0  0  0
  1  7  1  0  0  0  0
  2 46  1  6  0  0  0
  2  4  1  0  0  0  0
  2  1  1  0  0  0  0
  3 10  1  6  0  0  0
  3  6  1  0  0  0  0
  4  5  1  6  0  0  0
  4  3  1  0  0  0  0
  7  6  1  0  0  0  0
  8 10  2  0  0  0  0
 10  9  1  0  0  0  0
 11 12  1  0  0  0  0
 12  2  1  0  0  0  0
 13 11  2  0  0  0  0
 14 11  1  0  0  0  0
 15 17  1  0  0  0  0
 16 14  1  0  0  0  0
 17 18  1  0  0  0  0
 17 16  2  0  0  0  0
 19 16  1  0  0  0  0
 20 19  2  0  0  0  0
 21 15  2  0  0  0  0
 21 20  1  0  0  0  0
 22 20  1  0  0  0  0
 23 24  1  1  0  0  0
 23 22  1  0  0  0  0
 25 26  1  0  0  0  0
 26 23  1  0  0  0  0
 26 28  1  0  0  0  0
 27 26  1  0  0  0  0
 28 33  1  0  0  0  0
 28 32  1  0  0  0  0
 28 30  1  0  0  0  0
 30 31  1  0  0  0  0
 31 29  1  0  0  0  0
 31 34  1  0  0  0  0
 32 30  1  0  0  0  0
 32 31  1  0  0  0  0
 34 35  1  0  0  0  0
 35 39  1  0  0  0  0
 36 38  1  0  0  0  0
 37 38  1  0  0  0  0
 38 35  1  0  0  0  0
 39 40  1  0  0  0  0
 40 42  1  0  0  0  0
 41 40  2  0  0  0  0
 42 43  1  0  0  0  0
 42 44  1  0  0  0  0
 43 44  1  0  0  0  0
 46 45  2  0  0  0  0
 47 46  1  0  0  0  0
 48 47  1  0  0  0  0
 49 52  1  0  0  0  0
 50 58  1  0  0  0  0
 51 61  1  0  0  0  0
 52 56  1  0  0  0  0
 52 53  2  0  0  0  0
 54 58  2  0  0  0  0
 55 63  1  0  0  0  0
 55 60  1  0  0  0  0
 57 50  1  0  0  0  0
 57 60  1  0  0  0  0
 58 59  1  0  0  0  0
 59 56  1  0  0  0  0
 59 48  1  0  0  0  0
 60 49  1  0  0  0  0
 61 57  1  0  0  0  0
 61 55  1  0  0  0  0
 62 63  1  0  0  0  0
 64 66  1  0  0  0  0
 64 50  1  0  0  0  0
 65 66  1  0  0  0  0
 67 65  1  0  0  0  0
 67 69  1  0  0  0  0
 67 66  1  0  0  0  0
 68 69  1  0  0  0  0
M  END
>  <MODEL>
5

>  <REMARK>
 VINA RESULT:      -4.3      2.446      4.797
  Name = 
  21 active torsions:
  status: ('A' for Active; 'I' for Inactive)
    1  A    between atoms: C_2  and  C_52
    2  A    between atoms: N_3  and  C_42
    3  A    between atoms: C_5  and  C_35
    4  A    between atoms: C_5  and  C_42
    5  A    between atoms: C_6  and  C_33
    6  A    between atoms: C_6  and  N_59
    7  A    between atoms: C_7  and  N_24
    8  A    between atoms: C_7  and  C_43
    9  A    between atoms: C_9  and  C_22
   10  A    between atoms: C_13  and  C_21
   11  A    between atoms: C_15  and  C_16
   12  A    between atoms: C_15  and  C_62
   13  A    between atoms: C_16  and  C_52
   14  A    between atoms: C_17  and  C_21
   15  A    between atoms: C_18  and  C_63
   16  A    between atoms: C_19  and  O_45
   17  A    between atoms: C_20  and  O_45
   18  A    between atoms: C_33  and  C_43
   19  A    between atoms: C_42  and  C_50
   20  A    between atoms: C_46  and  C_67
   21  A    between atoms: O_64  and  C_69
                            x       y       z     vdW  Elec       q    Type
                         _______ _______ _______ _____ _____    ______ ____

>  <TORSDO>
F 21

$$$$
=
 OpenBabel11062412163D

 69 76  0  0  1  0  0  0  0  0999 V2000
  188.4370  178.5180  145.0730 C   0  0  0  0  0  2  0  0  0  0  0  0
  187.3510  177.5350  144.5930 C   0  0  2  0  0  0  0  0  0  0  0  0
  186.7350  177.7880  147.1400 C   0  0  1  0  0  3  0  0  0  0  0  0
  186.6400  176.9480  145.8540 C   0  0  1  0  0  3  0  0  0  0  0  0
  185.3600  176.4280  145.6510 O   0  0  0  0  0  1  0  0  0  0  0  0
  188.1780  178.2270  147.4260 C   0  0  0  0  0  2  0  0  0  0  0  0
  189.0830  178.0320  146.2900 N   0  0  0  0  0  2  0  0  0  0  0  0
  186.2260  180.1890  147.6590 O   0  0  0  0  0  1  0  0  0  0  0  0
  184.6560  178.8530  146.6660 O   0  0  0  0  0  0  0  0  0  0  0  0
  185.8160  178.9700  147.1370 C   0  0  0  0  0  0  0  0  0  0  0  0
  188.8120  176.5250  142.6930 C   0  0  0  0  0  0  0  0  0  0  0  0
  188.0460  176.4450  143.9030 N   0  0  0  0  0  2  0  0  0  0  0  0
  189.1760  175.4570  142.1310 O   0  0  0  0  0  0  0  0  0  0  0  0
  189.1410  177.8420  142.0580 C   0  0  0  0  0  2  0  0  0  0  0  0
  191.5480  177.4170  139.1350 C   0  0  0  0  0  3  0  0  0  0  0  0
  189.6940  177.6890  140.6750 C   0  0  0  0  0  0  0  0  0  0  0  0
  191.0760  177.5810  140.4400 C   0  0  0  0  0  0  0  0  0  0  0  0
  191.9850  177.6230  141.4940 O   0  0  0  0  0  1  0  0  0  0  0  0
  188.8020  177.6600  139.5960 C   0  0  0  0  0  3  0  0  0  0  0  0
  189.2740  177.5200  138.2880 C   0  0  0  0  0  0  0  0  0  0  0  0
  190.6510  177.3800  138.0640 C   0  0  0  0  0  3  0  0  0  0  0  0
  188.2820  177.4650  137.1670 C   0  0  0  0  0  2  0  0  0  0  0  0
  188.5550  176.3130  136.2010 C   0  0  1  0  0  3  0  0  0  0  0  0
  189.8120  176.4940  135.6200 O   0  0  0  0  0  1  0  0  0  0  0  0
  188.6070  175.0320  138.3690 C   0  0  0  0  0  1  0  0  0  0  0  0
  188.4370  174.9210  136.8600 C   0  0  0  0  0  0  0  0  0  0  0  0
  187.0440  174.3510  136.5920 C   0  0  0  0  0  1  0  0  0  0  0  0
  189.5450  173.9940  136.2980 C   0  0  1  0  0  0  0  0  0  0  0  0
  192.0990  172.3680  135.7080 O   0  0  0  0  0  1  0  0  0  0  0  0
  190.9690  174.5010  136.1770 C   0  0  2  0  0  3  0  0  0  0  0  0
  191.9420  173.4270  136.6040 C   0  0  1  0  0  0  0  0  0  0  0  0
  190.5880  173.4810  137.2690 C   0  0  2  0  0  3  0  0  0  0  0  0
  189.1900  173.0580  135.3220 O   0  0  0  0  0  1  0  0  0  0  0  0
  193.1210  173.8280  137.4760 C   0  0  0  0  0  2  0  0  0  0  0  0
  194.4490  173.5810  136.7570 C   0  0  1  0  0  3  0  0  0  0  0  0
  194.8680  175.7380  137.7520 O   0  0  0  0  0  1  0  0  0  0  0  0
  196.0900  175.2080  135.7700 C   0  0  0  0  0  1  0  0  0  0  0  0
  195.4630  174.6860  137.0500 C   0  0  2  0  0  3  0  0  0  0  0  0
  194.9980  172.2870  137.1400 N   0  0  0  0  0  2  0  0  0  0  0  0
  195.1380  171.2160  136.2040 C   0  0  0  0  0  0  0  0  0  0  0  0
  194.7520  171.3580  135.0110 O   0  0  0  0  0  0  0  0  0  0  0  0
  195.6650  169.8930  136.6630 C   0  0  0  0  0  3  0  0  0  0  0  0
  196.0800  169.9770  138.1210 C   0  0  0  0  0  2  0  0  0  0  0  0
  197.1340  170.0170  137.0360 C   0  0  0  0  0  2  0  0  0  0  0  0
  186.6290  179.6040  143.4290 C   0  0  0  0  0  2  0  0  0  0  0  0
  186.4490  178.2900  143.6050 C   0  0  0  0  0  0  0  0  0  0  0  0
  185.5420  177.5960  142.6280 C   0  0  0  0  0  2  0  0  0  0  0  0
  184.1120  178.0960  142.7420 C   0  0  0  0  0  2  0  0  0  0  0  0
  183.7720  176.8050  138.8210 C   0  0  0  0  0  2  0  0  0  0  0  0
  181.6830  179.3410  139.9740 C   0  0  2  0  0  3  0  0  0  0  0  0
  179.4430  177.6230  139.3170 O   0  0  0  0  0  1  0  0  0  0  0  0
  184.6460  177.9680  139.2290 C   0  0  0  0  0  0  0  0  0  0  0  0
  185.6220  178.3120  138.4050 C   0  0  0  0  0  2  0  0  0  0  0  0
  181.4550  178.8680  142.3050 O   0  0  0  0  0  0  0  0  0  0  0  0
  181.2730  176.1870  138.5980 C   0  0  2  0  0  3  0  0  0  0  0  0
  184.5140  178.6960  140.4300 O   0  0  0  0  0  0  0  0  0  0  0  0
  181.7370  178.2620  138.8640 C   0  0  1  0  0  3  0  0  0  0  0  0
  182.2220  178.8900  141.3060 C   0  0  0  0  0  0  0  0  0  0  0  0
  183.5860  178.4260  141.4240 N   0  0  0  0  0  0  0  0  0  0  0  0
  182.3540  176.9570  139.3290 C   0  0  2  0  0  3  0  0  0  0  0  0
  180.4940  177.5010  138.3970 C   0  0  2  0  0  3  0  0  0  0  0  0
  179.7490  174.2340  138.7080 C   0  0  0  0  0  1  0  0  0  0  0  0
  180.5980  175.1800  139.5260 C   0  0  0  0  0  2  0  0  0  0  0  0
  180.4370  179.9790  140.0960 O   0  0  0  0  0  0  0  0  0  0  0  0
  179.4850  182.0800  140.1340 O   0  0  0  0  0  0  0  0  0  0  0  0
  180.6690  181.3490  139.9100 C   0  0  2  0  0  3  0  0  0  0  0  0
  179.8360  181.8400  138.7900 C   0  0  2  0  0  3  0  0  0  0  0  0
  181.2040  182.5170  137.1820 C   0  0  0  0  0  1  0  0  0  0  0  0
  180.4260  182.9830  138.2460 O   0  0  0  0  0  0  0  0  0  0  0  0
  1  7  1  0  0  0  0
  2 46  1  6  0  0  0
  2  1  1  0  0  0  0
  2  4  1  0  0  0  0
  3 10  1  6  0  0  0
  3  6  1  0  0  0  0
  4  5  1  6  0  0  0
  4  3  1  0  0  0  0
  7  6  1  0  0  0  0
  9 10  2  0  0  0  0
 10  8  1  0  0  0  0
 11 12  1  0  0  0  0
 12  2  1  0  0  0  0
 13 11  2  0  0  0  0
 14 11  1  0  0  0  0
 15 17  1  0  0  0  0
 16 14  1  0  0  0  0
 17 16  2  0  0  0  0
 17 18  1  0  0  0  0
 19 16  1  0  0  0  0
 20 19  2  0  0  0  0
 21 20  1  0  0  0  0
 21 15  2  0  0  0  0
 22 20  1  0  0  0  0
 23 24  1  1  0  0  0
 23 26  1  0  0  0  0
 23 22  1  0  0  0  0
 26 25  1  0  0  0  0
 27 26  1  0  0  0  0
 28 26  1  0  0  0  0
 28 32  1  0  0  0  0
 29 31  1  0  0  0  0
 30 28  1  0  0  0  0
 30 31  1  0  0  0  0
 30 32  1  0  0  0  0
 31 32  1  0  0  0  0
 31 34  1  0  0  0  0
 33 28  1  0  0  0  0
 35 38  1  0  0  0  0
 35 39  1  0  0  0  0
 35 34  1  0  0  0  0
 37 38  1  0  0  0  0
 38 36  1  0  0  0  0
 40 42  1  0  0  0  0
 40 39  1  0  0  0  0
 41 40  2  0  0  0  0
 42 44  1  0  0  0  0
 42 43  1  0  0  0  0
 44 43  1  0  0  0  0
 45 46  2  0  0  0  0
 47 48  1  0  0  0  0
 47 46  1  0  0  0  0
 49 52  1  0  0  0  0
 49 60  1  0  0  0  0
 50 64  1  0  0  0  0
 50 58  1  0  0  0  0
 52 56  1  0  0  0  0
 53 52  2  0  0  0  0
 55 60  1  0  0  0  0
 55 63  1  0  0  0  0
 56 59  1  0  0  0  0
 57 60  1  0  0  0  0
 57 50  1  0  0  0  0
 58 59  1  0  0  0  0
 58 54  2  0  0  0  0
 59 48  1  0  0  0  0
 61 55  1  0  0  0  0
 61 57  1  0  0  0  0
 61 51  1  0  0  0  0
 62 63  1  0  0  0  0
 66 64  1  0  0  0  0
 66 65  1  0  0  0  0
 67 66  1  0  0  0  0
 67 65  1  0  0  0  0
 68 69  1  0  0  0  0
 69 67  1  0  0  0  0
M  END
>  <MODEL>
6

>  <REMARK>
 VINA RESULT:      -3.8      2.843      9.976
  Name = 
  21 active torsions:
  status: ('A' for Active; 'I' for Inactive)
    1  A    between atoms: C_2  and  C_52
    2  A    between atoms: N_3  and  C_42
    3  A    between atoms: C_5  and  C_35
    4  A    between atoms: C_5  and  C_42
    5  A    between atoms: C_6  and  C_33
    6  A    between atoms: C_6  and  N_59
    7  A    between atoms: C_7  and  N_24
    8  A    between atoms: C_7  and  C_43
    9  A    between atoms: C_9  and  C_22
   10  A    between atoms: C_13  and  C_21
   11  A    between atoms: C_15  and  C_16
   12  A    between atoms: C_15  and  C_62
   13  A    between atoms: C_16  and  C_52
   14  A    between atoms: C_17  and  C_21
   15  A    between atoms: C_18  and  C_63
   16  A    between atoms: C_19  and  O_45
   17  A    between atoms: C_20  and  O_45
   18  A    between atoms: C_33  and  C_43
   19  A    between atoms: C_42  and  C_50
   20  A    between atoms: C_46  and  C_67
   21  A    between atoms: O_64  and  C_69
                            x       y       z     vdW  Elec       q    Type
                         _______ _______ _______ _____ _____    ______ ____

>  <TORSDO>
F 21

$$$$
=
 OpenBabel11062412163D

 69 76  0  0  1  0  0  0  0  0999 V2000
  184.6940  177.0940  142.6330 C   0  0  0  0  0  2  0  0  0  0  0  0
  183.8810  178.3700  142.9300 C   0  0  2  0  0  0  0  0  0  0  0  0
  186.0330  179.3760  141.7970 C   0  0  1  0  0  3  0  0  0  0  0  0
  184.8180  179.6000  142.7150 C   0  0  1  0  0  3  0  0  0  0  0  0
  184.1840  180.8190  142.4700 O   0  0  0  0  0  1  0  0  0  0  0  0
  186.8050  178.1050  142.1770 C   0  0  0  0  0  2  0  0  0  0  0  0
  186.0720  177.2310  143.0970 N   0  0  0  0  0  2  0  0  0  0  0  0
  184.6200  180.1240  139.8630 O   0  0  0  0  0  1  0  0  0  0  0  0
  186.3290  178.6340  139.5520 O   0  0  0  0  0  0  0  0  0  0  0  0
  185.6740  179.3590  140.3430 C   0  0  0  0  0  0  0  0  0  0  0  0
  184.2760  178.7670  145.4700 C   0  0  0  0  0  0  0  0  0  0  0  0
  183.5100  178.3110  144.3460 N   0  0  0  0  0  2  0  0  0  0  0  0
  183.8950  178.4600  146.6320 O   0  0  0  0  0  0  0  0  0  0  0  0
  185.5420  179.5490  145.2930 C   0  0  0  0  0  2  0  0  0  0  0  0
  187.7960  178.4890  148.1750 C   0  0  0  0  0  3  0  0  0  0  0  0
  186.6820  178.9800  146.0770 C   0  0  0  0  0  0  0  0  0  0  0  0
  186.7240  179.0540  147.4800 C   0  0  0  0  0  0  0  0  0  0  0  0
  185.7010  179.6730  148.1930 O   0  0  0  0  0  1  0  0  0  0  0  0
  187.7320  178.3650  145.3830 C   0  0  0  0  0  3  0  0  0  0  0  0
  188.8180  177.8210  146.0740 C   0  0  0  0  0  0  0  0  0  0  0  0
  188.8370  177.8690  147.4760 C   0  0  0  0  0  3  0  0  0  0  0  0
  189.9040  177.1470  145.2930 C   0  0  0  0  0  2  0  0  0  0  0  0
  189.9580  177.6190  143.8400 C   0  0  1  0  0  3  0  0  0  0  0  0
  190.7820  178.7430  143.7570 O   0  0  0  0  0  1  0  0  0  0  0  0
  191.7780  175.9800  143.2520 C   0  0  0  0  0  1  0  0  0  0  0  0
  190.4100  176.5170  142.8560 C   0  0  0  0  0  0  0  0  0  0  0  0
  189.4220  175.3530  142.9120 C   0  0  0  0  0  1  0  0  0  0  0  0
  190.5010  177.1140  141.4280 C   0  0  1  0  0  0  0  0  0  0  0  0
  191.2100  177.8940  138.5290 O   0  0  0  0  0  1  0  0  0  0  0  0
  191.8360  177.5870  140.8880 C   0  0  2  0  0  3  0  0  0  0  0  0
  191.9880  177.1770  139.4420 C   0  0  1  0  0  0  0  0  0  0  0  0
  191.1940  176.2860  140.3660 C   0  0  2  0  0  3  0  0  0  0  0  0
  189.4040  177.8320  140.9420 O   0  0  0  0  0  1  0  0  0  0  0  0
  193.3290  176.6260  138.9840 C   0  0  0  0  0  2  0  0  0  0  0  0
  193.1830  175.8200  137.6930 C   0  0  1  0  0  3  0  0  0  0  0  0
  195.4780  175.2640  138.1810 O   0  0  0  0  0  1  0  0  0  0  0  0
  194.6400  174.6040  136.0450 C   0  0  0  0  0  1  0  0  0  0  0  0
  194.3300  174.8270  137.5150 C   0  0  2  0  0  3  0  0  0  0  0  0
  191.9080  175.1150  137.6770 N   0  0  0  0  0  2  0  0  0  0  0  0
  191.0170  175.1860  136.5620 C   0  0  0  0  0  0  0  0  0  0  0  0
  191.3030  175.8990  135.5610 O   0  0  0  0  0  0  0  0  0  0  0  0
  189.6990  174.4790  136.6190 C   0  0  0  0  0  3  0  0  0  0  0  0
  188.6770  175.2160  135.7710 C   0  0  0  0  0  2  0  0  0  0  0  0
  188.6570  175.3690  137.2760 C   0  0  0  0  0  2  0  0  0  0  0  0
  181.5110  178.9500  142.4770 C   0  0  0  0  0  2  0  0  0  0  0  0
  182.6190  178.3270  142.0560 C   0  0  0  0  0  0  0  0  0  0  0  0
  182.6220  177.8450  140.6330 C   0  0  0  0  0  2  0  0  0  0  0  0
  181.2560  177.3290  140.2150 C   0  0  0  0  0  2  0  0  0  0  0  0
  182.1910  178.7810  136.4500 C   0  0  0  0  0  2  0  0  0  0  0  0
  181.6480  175.3690  136.8810 C   0  0  2  0  0  3  0  0  0  0  0  0
  184.3470  174.9440  135.9120 O   0  0  0  0  0  1  0  0  0  0  0  0
  180.7700  178.6010  136.9300 C   0  0  0  0  0  0  0  0  0  0  0  0
  179.8280  179.2940  136.3100 C   0  0  0  0  0  2  0  0  0  0  0  0
  182.3190  174.9710  139.1390 O   0  0  0  0  0  0  0  0  0  0  0  0
  184.2390  177.3710  135.7450 C   0  0  2  0  0  3  0  0  0  0  0  0
  180.3770  177.7710  138.0010 O   0  0  0  0  0  0  0  0  0  0  0  0
  182.3660  176.3420  135.9130 C   0  0  1  0  0  3  0  0  0  0  0  0
  181.7450  175.7520  138.3340 C   0  0  0  0  0  0  0  0  0  0  0  0
  181.2440  177.0290  138.7890 N   0  0  0  0  0  0  0  0  0  0  0  0
  183.0110  177.5190  136.6200 C   0  0  2  0  0  3  0  0  0  0  0  0
  183.7090  176.0080  135.2590 C   0  0  2  0  0  3  0  0  0  0  0  0
  186.7180  177.3410  135.6880 C   0  0  0  0  0  1  0  0  0  0  0  0
  185.5070  177.2970  136.5920 C   0  0  0  0  0  2  0  0  0  0  0  0
  181.9570  174.0140  136.6690 O   0  0  0  0  0  0  0  0  0  0  0  0
  180.8320  172.1700  137.4760 O   0  0  0  0  0  0  0  0  0  0  0  0
  180.7380  173.3210  136.6690 C   0  0  2  0  0  3  0  0  0  0  0  0
  180.9390  171.9760  136.0840 C   0  0  2  0  0  3  0  0  0  0  0  0
  179.3600  170.4600  136.4280 C   0  0  0  0  0  1  0  0  0  0  0  0
  179.7240  171.5100  135.5790 O   0  0  0  0  0  0  0  0  0  0  0  0
  1  2  1  0  0  0  0
  1  7  1  0  0  0  0
  2 46  1  6  0  0  0
  2 12  1  0  0  0  0
  3 10  1  6  0  0  0
  3  6  1  0  0  0  0
  3  4  1  0  0  0  0
  4  5  1  6  0  0  0
  4  2  1  0  0  0  0
  6  7  1  0  0  0  0
  8 10  1  0  0  0  0
  9 10  2  0  0  0  0
 11 13  2  0  0  0  0
 12 11  1  0  0  0  0
 14 11  1  0  0  0  0
 14 16  1  0  0  0  0
 16 17  2  0  0  0  0
 17 15  1  0  0  0  0
 17 18  1  0  0  0  0
 19 20  2  0  0  0  0
 19 16  1  0  0  0  0
 20 21  1  0  0  0  0
 21 15  2  0  0  0  0
 22 20  1  0  0  0  0
 23 24  1  1  0  0  0
 23 22  1  0  0  0  0
 26 27  1  0  0  0  0
 26 25  1  0  0  0  0
 26 23  1  0  0  0  0
 28 26  1  0  0  0  0
 29 31  1  0  0  0  0
 30 28  1  0  0  0  0
 31 32  1  0  0  0  0
 31 30  1  0  0  0  0
 32 30  1  0  0  0  0
 32 28  1  0  0  0  0
 33 28  1  0  0  0  0
 34 31  1  0  0  0  0
 35 34  1  0  0  0  0
 37 38  1  0  0  0  0
 38 35  1  0  0  0  0
 38 36  1  0  0  0  0
 39 35  1  0  0  0  0
 40 42  1  0  0  0  0
 40 39  1  0  0  0  0
 41 40  2  0  0  0  0
 42 44  1  0  0  0  0
 43 42  1  0  0  0  0
 43 44  1  0  0  0  0
 46 45  2  0  0  0  0
 47 46  1  0  0  0  0
 48 47  1  0  0  0  0
 49 60  1  0  0  0  0
 49 52  1  0  0  0  0
 50 58  1  0  0  0  0
 52 56  1  0  0  0  0
 53 52  2  0  0  0  0
 55 63  1  0  0  0  0
 55 60  1  0  0  0  0
 56 59  1  0  0  0  0
 57 60  1  0  0  0  0
 57 50  1  0  0  0  0
 58 59  1  0  0  0  0
 58 54  2  0  0  0  0
 59 48  1  0  0  0  0
 61 55  1  0  0  0  0
 61 51  1  0  0  0  0
 61 57  1  0  0  0  0
 62 63  1  0  0  0  0
 64 50  1  0  0  0  0
 66 64  1  0  0  0  0
 66 65  1  0  0  0  0
 67 66  1  0  0  0  0
 67 65  1  0  0  0  0
 69 67  1  0  0  0  0
 69 68  1  0  0  0  0
M  END
>  <MODEL>
7

>  <REMARK>
 VINA RESULT:      -3.8      2.264      9.619
  Name = 
  21 active torsions:
  status: ('A' for Active; 'I' for Inactive)
    1  A    between atoms: C_2  and  C_52
    2  A    between atoms: N_3  and  C_42
    3  A    between atoms: C_5  and  C_35
    4  A    between atoms: C_5  and  C_42
    5  A    between atoms: C_6  and  C_33
    6  A    between atoms: C_6  and  N_59
    7  A    between atoms: C_7  and  N_24
    8  A    between atoms: C_7  and  C_43
    9  A    between atoms: C_9  and  C_22
   10  A    between atoms: C_13  and  C_21
   11  A    between atoms: C_15  and  C_16
   12  A    between atoms: C_15  and  C_62
   13  A    between atoms: C_16  and  C_52
   14  A    between atoms: C_17  and  C_21
   15  A    between atoms: C_18  and  C_63
   16  A    between atoms: C_19  and  O_45
   17  A    between atoms: C_20  and  O_45
   18  A    between atoms: C_33  and  C_43
   19  A    between atoms: C_42  and  C_50
   20  A    between atoms: C_46  and  C_67
   21  A    between atoms: O_64  and  C_69
                            x       y       z     vdW  Elec       q    Type
                         _______ _______ _______ _____ _____    ______ ____

>  <TORSDO>
F 21

$$$$
=
 OpenBabel11062412163D

 69 76  0  0  1  0  0  0  0  0999 V2000
  188.5140  176.8310  141.1550 C   0  0  0  0  0  2  0  0  0  0  0  0
  189.8340  177.4350  140.6360 C   0  0  2  0  0  0  0  0  0  0  0  0
  190.3180  177.2700  143.2180 C   0  0  1  0  0  3  0  0  0  0  0  0
  190.6570  177.9270  141.8690 C   0  0  1  0  0  3  0  0  0  0  0  0
  192.0330  178.0620  141.6740 O   0  0  0  0  0  1  0  0  0  0  0  0
  188.8050  177.2630  143.4820 C   0  0  0  0  0  2  0  0  0  0  0  0
  188.0050  177.5850  142.2970 N   0  0  0  0  0  2  0  0  0  0  0  0
  192.0150  175.6590  144.1230 O   0  0  0  0  0  1  0  0  0  0  0  0
  190.3270  174.9310  142.7600 O   0  0  0  0  0  0  0  0  0  0  0  0
  190.8810  175.8890  143.3560 C   0  0  0  0  0  0  0  0  0  0  0  0
  189.0260  178.6130  138.4620 C   0  0  0  0  0  0  0  0  0  0  0  0
  189.4710  178.6010  139.8260 N   0  0  0  0  0  2  0  0  0  0  0  0
  188.9470  179.7160  137.8570 O   0  0  0  0  0  0  0  0  0  0  0  0
  188.7070  177.3460  137.7290 C   0  0  0  0  0  2  0  0  0  0  0  0
  186.5960  178.0100  134.6280 C   0  0  0  0  0  3  0  0  0  0  0  0
  187.5420  177.4970  136.8020 C   0  0  0  0  0  0  0  0  0  0  0  0
  187.7080  177.9030  135.4660 C   0  0  0  0  0  0  0  0  0  0  0  0
  188.9730  178.1900  134.9600 O   0  0  0  0  0  1  0  0  0  0  0  0
  186.2570  177.2300  137.2910 C   0  0  0  0  0  3  0  0  0  0  0  0
  185.1400  177.3600  136.4610 C   0  0  0  0  0  0  0  0  0  0  0  0
  185.3170  177.7330  135.1210 C   0  0  0  0  0  3  0  0  0  0  0  0
  183.7880  177.0360  137.0180 C   0  0  0  0  0  2  0  0  0  0  0  0
  183.6240  175.5480  137.3290 C   0  0  1  0  0  3  0  0  0  0  0  0
  183.4670  175.3860  138.7070 O   0  0  0  0  0  1  0  0  0  0  0  0
  182.7900  174.8320  135.0630 C   0  0  0  0  0  1  0  0  0  0  0  0
  182.4670  174.8840  136.5490 C   0  0  0  0  0  0  0  0  0  0  0  0
  182.2900  173.4460  137.0360 C   0  0  0  0  0  1  0  0  0  0  0  0
  181.1730  175.7140  136.7520 C   0  0  1  0  0  0  0  0  0  0  0  0
  179.0190  177.8270  137.3920 O   0  0  0  0  0  1  0  0  0  0  0  0
  180.9320  176.4350  138.0630 C   0  0  2  0  0  3  0  0  0  0  0  0
  180.3530  177.8060  137.8050 C   0  0  1  0  0  0  0  0  0  0  0  0
  181.3060  177.2220  136.7910 C   0  0  2  0  0  3  0  0  0  0  0  0
  180.0040  175.2770  136.1190 O   0  0  0  0  0  1  0  0  0  0  0  0
  180.8860  178.9780  138.6130 C   0  0  0  0  0  2  0  0  0  0  0  0
  179.7450  179.8410  139.1540 C   0  0  1  0  0  3  0  0  0  0  0  0
  180.2620  179.4500  141.4770 O   0  0  0  0  0  1  0  0  0  0  0  0
  179.0200  181.4250  140.9660 C   0  0  0  0  0  1  0  0  0  0  0  0
  180.0910  180.4470  140.5130 C   0  0  2  0  0  3  0  0  0  0  0  0
  179.4170  180.8990  138.2070 N   0  0  0  0  0  2  0  0  0  0  0  0
  180.3970  181.8310  137.7440 C   0  0  0  0  0  0  0  0  0  0  0  0
  181.5810  181.7790  138.1770 O   0  0  0  0  0  0  0  0  0  0  0  0
  179.9960  182.9260  136.8080 C   0  0  0  0  0  3  0  0  0  0  0  0
  181.0700  183.9980  136.7710 C   0  0  0  0  0  2  0  0  0  0  0  0
  179.8090  184.2260  137.5730 C   0  0  0  0  0  2  0  0  0  0  0  0
  189.7530  175.5150  139.0660 C   0  0  0  0  0  2  0  0  0  0  0  0
  190.5130  176.3760  139.7550 C   0  0  0  0  0  0  0  0  0  0  0  0
  191.9760  176.4070  139.4150 C   0  0  0  0  0  2  0  0  0  0  0  0
  192.2040  176.2700  137.9190 C   0  0  0  0  0  2  0  0  0  0  0  0
  193.7310  173.8520  134.9220 C   0  0  0  0  0  2  0  0  0  0  0  0
  195.1310  173.7180  138.1070 C   0  0  2  0  0  3  0  0  0  0  0  0
  197.6450  174.5070  136.8980 O   0  0  0  0  0  1  0  0  0  0  0  0
  192.6530  173.3940  135.8770 C   0  0  0  0  0  0  0  0  0  0  0  0
  191.9020  172.3720  135.4990 C   0  0  0  0  0  2  0  0  0  0  0  0
  194.7760  175.9170  138.9720 O   0  0  0  0  0  0  0  0  0  0  0  0
  196.2510  174.4220  134.9040 C   0  0  2  0  0  3  0  0  0  0  0  0
  192.3730  173.9870  137.1260 O   0  0  0  0  0  0  0  0  0  0  0  0
  195.5000  173.4070  136.6350 C   0  0  1  0  0  3  0  0  0  0  0  0
  194.3080  174.9660  138.2910 C   0  0  0  0  0  0  0  0  0  0  0  0
  193.0240  175.0990  137.6400 N   0  0  0  0  0  0  0  0  0  0  0  0
  194.9330  174.4120  135.6520 C   0  0  2  0  0  3  0  0  0  0  0  0
  196.9010  173.6540  136.0700 C   0  0  2  0  0  3  0  0  0  0  0  0
  196.0050  176.7780  135.6390 C   0  0  0  0  0  1  0  0  0  0  0  0
  196.7610  175.8490  134.7160 C   0  0  0  0  0  2  0  0  0  0  0  0
  196.2180  173.6660  138.9960 O   0  0  0  0  0  0  0  0  0  0  0  0
  197.6470  175.4730  139.1120 O   0  0  0  0  0  0  0  0  0  0  0  0
  196.3890  174.9650  139.4950 C   0  0  2  0  0  3  0  0  0  0  0  0
  197.5370  174.9830  140.4300 C   0  0  2  0  0  3  0  0  0  0  0  0
  197.8350  175.5600  142.5490 C   0  0  0  0  0  1  0  0  0  0  0  0
  197.3890  176.0510  141.3180 O   0  0  0  0  0  0  0  0  0  0  0  0
  1  7  1  0  0  0  0
  2 46  1  6  0  0  0
  2  1  1  0  0  0  0
  2  4  1  0  0  0  0
  3 10  1  6  0  0  0
  3  6  1  0  0  0  0
  4  5  1  6  0  0  0
  4  3  1  0  0  0  0
  7  6  1  0  0  0  0
  9 10  2  0  0  0  0
 10  8  1  0  0  0  0
 11 12  1  0  0  0  0
 12  2  1  0  0  0  0
 13 11  2  0  0  0  0
 14 11  1  0  0  0  0
 15 21  2  0  0  0  0
 15 17  1  0  0  0  0
 16 19  1  0  0  0  0
 16 14  1  0  0  0  0
 17 16  2  0  0  0  0
 18 17  1  0  0  0  0
 20 22  1  0  0  0  0
 20 19  2  0  0  0  0
 21 20  1  0  0  0  0
 22 23  1  0  0  0  0
 23 24  1  1  0  0  0
 25 26  1  0  0  0  0
 26 28  1  0  0  0  0
 26 27  1  0  0  0  0
 26 23  1  0  0  0  0
 28 32  1  0  0  0  0
 28 30  1  0  0  0  0
 29 31  1  0  0  0  0
 31 30  1  0  0  0  0
 31 34  1  0  0  0  0
 32 31  1  0  0  0  0
 32 30  1  0  0  0  0
 33 28  1  0  0  0  0
 34 35  1  0  0  0  0
 35 38  1  0  0  0  0
 38 37  1  0  0  0  0
 38 36  1  0  0  0  0
 39 35  1  0  0  0  0
 40 41  2  0  0  0  0
 40 39  1  0  0  0  0
 42 44  1  0  0  0  0
 42 40  1  0  0  0  0
 43 42  1  0  0  0  0
 43 44  1  0  0  0  0
 45 46  2  0  0  0  0
 47 46  1  0  0  0  0
 48 47  1  0  0  0  0
 49 60  1  0  0  0  0
 49 52  1  0  0  0  0
 50 58  1  0  0  0  0
 50 64  1  0  0  0  0
 52 56  1  0  0  0  0
 53 52  2  0  0  0  0
 55 60  1  0  0  0  0
 55 61  1  0  0  0  0
 56 59  1  0  0  0  0
 57 50  1  0  0  0  0
 58 54  2  0  0  0  0
 59 48  1  0  0  0  0
 59 58  1  0  0  0  0
 60 57  1  0  0  0  0
 61 57  1  0  0  0  0
 61 51  1  0  0  0  0
 63 55  1  0  0  0  0
 63 62  1  0  0  0  0
 64 66  1  0  0  0  0
 65 66  1  0  0  0  0
 65 67  1  0  0  0  0
 66 67  1  0  0  0  0
 67 69  1  0  0  0  0
 69 68  1  0  0  0  0
M  END
>  <MODEL>
8

>  <REMARK>
 VINA RESULT:      -3.7      3.001      6.399
  Name = 
  21 active torsions:
  status: ('A' for Active; 'I' for Inactive)
    1  A    between atoms: C_2  and  C_52
    2  A    between atoms: N_3  and  C_42
    3  A    between atoms: C_5  and  C_35
    4  A    between atoms: C_5  and  C_42
    5  A    between atoms: C_6  and  C_33
    6  A    between atoms: C_6  and  N_59
    7  A    between atoms: C_7  and  N_24
    8  A    between atoms: C_7  and  C_43
    9  A    between atoms: C_9  and  C_22
   10  A    between atoms: C_13  and  C_21
   11  A    between atoms: C_15  and  C_16
   12  A    between atoms: C_15  and  C_62
   13  A    between atoms: C_16  and  C_52
   14  A    between atoms: C_17  and  C_21
   15  A    between atoms: C_18  and  C_63
   16  A    between atoms: C_19  and  O_45
   17  A    between atoms: C_20  and  O_45
   18  A    between atoms: C_33  and  C_43
   19  A    between atoms: C_42  and  C_50
   20  A    between atoms: C_46  and  C_67
   21  A    between atoms: O_64  and  C_69
                            x       y       z     vdW  Elec       q    Type
                         _______ _______ _______ _____ _____    ______ ____

>  <TORSDO>
F 21

$$$$
=
 OpenBabel11062412163D

 69 76  0  0  1  0  0  0  0  0999 V2000
  184.9800  176.9420  143.2540 C   0  0  0  0  0  2  0  0  0  0  0  0
  184.2730  178.2620  143.6170 C   0  0  2  0  0  0  0  0  0  0  0  0
  186.4280  179.1460  142.3900 C   0  0  1  0  0  3  0  0  0  0  0  0
  185.2810  179.4310  143.3740 C   0  0  1  0  0  3  0  0  0  0  0  0
  184.7190  180.6950  143.1860 O   0  0  0  0  0  1  0  0  0  0  0  0
  187.1290  177.8170  142.7050 C   0  0  0  0  0  2  0  0  0  0  0  0
  186.3860  176.9750  143.6460 N   0  0  0  0  0  2  0  0  0  0  0  0
  186.7890  178.6360  139.9600 O   0  0  0  0  0  0  0  0  0  0  0  0
  184.9020  179.7300  140.6540 O   0  0  0  0  0  1  0  0  0  0  0  0
  185.9940  179.1840  140.9570 C   0  0  0  0  0  0  0  0  0  0  0  0
  184.8120  178.6120  146.1380 C   0  0  0  0  0  0  0  0  0  0  0  0
  183.9730  178.1980  145.0500 N   0  0  0  0  0  2  0  0  0  0  0  0
  184.4790  178.3040  147.3140 O   0  0  0  0  0  0  0  0  0  0  0  0
  186.0930  179.3520  145.9040 C   0  0  0  0  0  2  0  0  0  0  0  0
  188.5340  177.9840  148.4900 C   0  0  0  0  0  3  0  0  0  0  0  0
  187.2680  178.6790  146.5400 C   0  0  0  0  0  0  0  0  0  0  0  0
  187.4340  178.6440  147.9360 C   0  0  0  0  0  0  0  0  0  0  0  0
  186.5070  179.2500  148.7800 O   0  0  0  0  0  1  0  0  0  0  0  0
  188.2230  178.0750  145.7140 C   0  0  0  0  0  3  0  0  0  0  0  0
  189.3370  177.4350  146.2640 C   0  0  0  0  0  0  0  0  0  0  0  0
  189.4790  177.3760  147.6580 C   0  0  0  0  0  3  0  0  0  0  0  0
  190.3190  176.7780  145.3430 C   0  0  0  0  0  2  0  0  0  0  0  0
  190.5600  177.5890  144.0700 C   0  0  1  0  0  3  0  0  0  0  0  0
  191.6180  178.4750  144.2880 O   0  0  0  0  0  1  0  0  0  0  0  0
  192.2850  176.3560  142.7130 C   0  0  0  0  0  1  0  0  0  0  0  0
  190.8100  176.7120  142.8240 C   0  0  0  0  0  0  0  0  0  0  0  0
  190.0270  175.4060  142.9600 C   0  0  0  0  0  1  0  0  0  0  0  0
  190.3870  177.4950  141.5540 C   0  0  1  0  0  0  0  0  0  0  0  0
  189.5780  178.4530  138.7360 O   0  0  0  0  0  1  0  0  0  0  0  0
  191.1160  177.2670  140.2450 C   0  0  2  0  0  3  0  0  0  0  0  0
  190.1310  177.2230  139.1010 C   0  0  1  0  0  0  0  0  0  0  0  0
  189.6890  176.7230  140.4550 C   0  0  2  0  0  3  0  0  0  0  0  0
  189.8980  178.7960  141.7140 O   0  0  0  0  0  1  0  0  0  0  0  0
  190.3140  176.1580  138.0320 C   0  0  0  0  0  2  0  0  0  0  0  0
  189.1150  176.1170  137.0830 C   0  0  1  0  0  3  0  0  0  0  0  0
  190.8280  176.4570  135.4190 O   0  0  0  0  0  1  0  0  0  0  0  0
  189.1300  178.1290  135.5770 C   0  0  0  0  0  1  0  0  0  0  0  0
  189.4730  176.6550  135.6980 C   0  0  2  0  0  3  0  0  0  0  0  0
  188.6060  174.7560  136.9710 N   0  0  0  0  0  2  0  0  0  0  0  0
  187.5670  174.4100  136.0520 C   0  0  0  0  0  0  0  0  0  0  0  0
  187.0350  175.2950  135.3270 O   0  0  0  0  0  0  0  0  0  0  0  0
  187.0490  173.0060  136.0110 C   0  0  0  0  0  3  0  0  0  0  0  0
  187.5310  172.2400  137.2300 C   0  0  0  0  0  2  0  0  0  0  0  0
  188.2050  172.0260  135.8930 C   0  0  0  0  0  2  0  0  0  0  0  0
  181.9370  179.0330  143.2890 C   0  0  0  0  0  2  0  0  0  0  0  0
  182.9670  178.3240  142.8110 C   0  0  0  0  0  0  0  0  0  0  0  0
  182.8570  177.8480  141.3900 C   0  0  0  0  0  2  0  0  0  0  0  0
  181.4810  177.2740  141.0990 C   0  0  0  0  0  2  0  0  0  0  0  0
  182.3310  179.6990  137.8500 C   0  0  0  0  0  2  0  0  0  0  0  0
  180.0270  177.1130  137.4970 C   0  0  2  0  0  3  0  0  0  0  0  0
  181.7470  176.0310  135.4290 O   0  0  0  0  0  1  0  0  0  0  0  0
  181.1890  179.9710  138.8010 C   0  0  0  0  0  0  0  0  0  0  0  0
  180.7160  181.2070  138.8420 C   0  0  0  0  0  2  0  0  0  0  0  0
  180.7700  175.4760  139.0710 O   0  0  0  0  0  0  0  0  0  0  0  0
  183.0190  178.0270  136.0040 C   0  0  2  0  0  3  0  0  0  0  0  0
  180.6070  179.0170  139.6610 O   0  0  0  0  0  0  0  0  0  0  0  0
  180.9700  177.9870  136.6330 C   0  0  1  0  0  3  0  0  0  0  0  0
  180.6040  176.7010  138.8250 C   0  0  0  0  0  0  0  0  0  0  0  0
  181.0250  177.6990  139.7820 N   0  0  0  0  0  0  0  0  0  0  0  0
  182.2940  178.2860  137.3100 C   0  0  2  0  0  3  0  0  0  0  0  0
  181.7220  177.4330  135.4200 C   0  0  2  0  0  3  0  0  0  0  0  0
  185.1470  177.5710  137.1930 C   0  0  0  0  0  1  0  0  0  0  0  0
  184.1500  177.0200  136.1990 C   0  0  0  0  0  2  0  0  0  0  0  0
  179.4570  176.0290  136.8090 O   0  0  0  0  0  0  0  0  0  0  0  0
  180.5080  173.9780  136.6980 O   0  0  0  0  0  0  0  0  0  0  0  0
  179.8020  174.8740  137.5250 C   0  0  2  0  0  3  0  0  0  0  0  0
  179.1430  173.7000  136.9110 C   0  0  2  0  0  3  0  0  0  0  0  0
  178.9430  171.5040  137.1360 C   0  0  0  0  0  1  0  0  0  0  0  0
  179.0120  172.6930  137.8690 O   0  0  0  0  0  0  0  0  0  0  0  0
  1  2  1  0  0  0  0
  1  7  1  0  0  0  0
  2 46  1  6  0  0  0
  2 12  1  0  0  0  0
  3 10  1  6  0  0  0
  3  6  1  0  0  0  0
  3  4  1  0  0  0  0
  4  5  1  6  0  0  0
  4  2  1  0  0  0  0
  6  7  1  0  0  0  0
  8 10  2  0  0  0  0
  9 10  1  0  0  0  0
 11 13  2  0  0  0  0
 12 11  1  0  0  0  0
 14 11  1  0  0  0  0
 14 16  1  0  0  0  0
 16 17  2  0  0  0  0
 17 15  1  0  0  0  0
 17 18  1  0  0  0  0
 19 20  2  0  0  0  0
 19 16  1  0  0  0  0
 20 21  1  0  0  0  0
 21 15  2  0  0  0  0
 22 20  1  0  0  0  0
 23 24  1  1  0  0  0
 23 22  1  0  0  0  0
 25 26  1  0  0  0  0
 26 27  1  0  0  0  0
 26 23  1  0  0  0  0
 28 33  1  0  0  0  0
 28 26  1  0  0  0  0
 29 31  1  0  0  0  0
 30 32  1  0  0  0  0
 30 28  1  0  0  0  0
 31 30  1  0  0  0  0
 31 32  1  0  0  0  0
 32 28  1  0  0  0  0
 34 31  1  0  0  0  0
 35 34  1  0  0  0  0
 36 38  1  0  0  0  0
 37 38  1  0  0  0  0
 38 35  1  0  0  0  0
 39 35  1  0  0  0  0
 40 39  1  0  0  0  0
 41 40  2  0  0  0  0
 42 40  1  0  0  0  0
 42 43  1  0  0  0  0
 44 42  1  0  0  0  0
 44 43  1  0  0  0  0
 46 45  2  0  0  0  0
 47 46  1  0  0  0  0
 48 47  1  0  0  0  0
 49 52  1  0  0  0  0
 50 58  1  0  0  0  0
 52 53  2  0  0  0  0
 52 56  1  0  0  0  0
 55 63  1  0  0  0  0
 55 60  1  0  0  0  0
 56 59  1  0  0  0  0
 57 60  1  0  0  0  0
 57 50  1  0  0  0  0
 58 54  2  0  0  0  0
 58 59  1  0  0  0  0
 59 48  1  0  0  0  0
 60 49  1  0  0  0  0
 61 51  1  0  0  0  0
 61 55  1  0  0  0  0
 61 57  1  0  0  0  0
 63 62  1  0  0  0  0
 64 50  1  0  0  0  0
 64 66  1  0  0  0  0
 65 67  1  0  0  0  0
 65 66  1  0  0  0  0
 67 66  1  0  0  0  0
 67 69  1  0  0  0  0
 68 69  1  0  0  0  0
M  END
>  <MODEL>
9

>  <REMARK>
 VINA RESULT:      -3.6      2.879      9.423
  Name = 
  21 active torsions:
  status: ('A' for Active; 'I' for Inactive)
    1  A    between atoms: C_2  and  C_52
    2  A    between atoms: N_3  and  C_42
    3  A    between atoms: C_5  and  C_35
    4  A    between atoms: C_5  and  C_42
    5  A    between atoms: C_6  and  C_33
    6  A    between atoms: C_6  and  N_59
    7  A    between atoms: C_7  and  N_24
    8  A    between atoms: C_7  and  C_43
    9  A    between atoms: C_9  and  C_22
   10  A    between atoms: C_13  and  C_21
   11  A    between atoms: C_15  and  C_16
   12  A    between atoms: C_15  and  C_62
   13  A    between atoms: C_16  and  C_52
   14  A    between atoms: C_17  and  C_21
   15  A    between atoms: C_18  and  C_63
   16  A    between atoms: C_19  and  O_45
   17  A    between atoms: C_20  and  O_45
   18  A    between atoms: C_33  and  C_43
   19  A    between atoms: C_42  and  C_50
   20  A    between atoms: C_46  and  C_67
   21  A    between atoms: O_64  and  C_69
                            x       y       z     vdW  Elec       q    Type
                         _______ _______ _______ _____ _____    ______ ____

>  <TORSDO>
F 21

$$$$
