=
 OpenBabel11062417023D

 47 51  0  0  1  0  0  0  0  0999 V2000
  189.3380  177.3880  140.9820 N   0  0  0  0  0  0  0  0  0  0  0  0
  187.4680  178.7140  138.4810 N   0  0  0  0  0  2  0  0  0  0  0  0
  188.2250  177.7190  140.3070 C   0  0  0  0  0  0  0  0  0  0  0  0
  186.4800  178.7020  139.3840 N   0  0  0  0  0  0  0  0  0  0  0  0
  188.5020  178.0920  139.0720 C   0  0  0  0  0  0  0  0  0  0  0  0
  186.9160  178.1000  140.5230 C   0  0  0  0  0  0  0  0  0  0  0  0
  189.8490  178.0070  138.8080 C   0  0  0  0  0  3  0  0  0  0  0  0
  190.3310  177.5340  140.0460 C   0  0  0  0  0  0  0  0  0  0  0  0
  191.7780  177.2330  140.3000 C   0  0  0  0  0  0  0  0  0  0  0  0
  192.1590  176.6290  141.6360 C   0  0  0  0  0  2  0  0  0  0  0  0
  192.3950  178.1070  141.3700 C   0  0  0  0  0  2  0  0  0  0  0  0
  193.8080  177.5650  139.0750 O   0  0  0  0  0  0  0  0  0  0  0  0
  192.6830  176.9910  139.1380 C   0  0  0  0  0  0  0  0  0  0  0  0
  192.2480  176.1560  138.1040 O   0  0  0  0  0  0  0  0  0  0  0  0
  192.6590  174.7940  137.9890 C   0  0  2  0  0  3  0  0  0  0  0  0
  194.1450  174.7490  137.5800 C   0  0  1  0  0  3  0  0  0  0  0  0
  195.2150  172.7980  138.7390 O   0  0  0  0  0  0  0  0  0  0  0  0
  195.7560  174.9380  139.3740 O   0  0  0  0  0  1  0  0  0  0  0  0
  195.0830  174.1790  138.6180 C   0  0  0  0  0  0  0  0  0  0  0  0
  194.3680  174.2140  136.2900 O   0  0  0  0  0  0  0  0  0  0  0  0
  195.2720  175.0410  135.6020 C   0  0  0  0  0  2  0  0  0  0  0  0
  195.0130  176.3760  135.9300 O   0  0  0  0  0  1  0  0  0  0  0  0
  191.7980  174.1020  136.9370 C   0  0  0  0  0  2  0  0  0  0  0  0
  190.6170  173.6330  137.5070 O   0  0  0  0  0  0  0  0  0  0  0  0
  188.1600  173.5210  136.2220 O   0  0  0  0  0  0  0  0  0  0  0  0
  189.3920  174.3250  136.5710 P   0  0  0  0  0  0  0  0  0  0  0  0
  189.5240  175.7530  136.0900 O   0  0  0  0  0  0  0  0  0  0  0  0
  186.1220  178.0050  141.7060 N   0  0  0  0  0  2  0  0  0  0  0  0
  185.3440  179.1130  142.2360 C   0  0  0  0  0  2  0  0  0  0  0  0
  183.7800  179.1680  144.1960 C   0  0  0  0  0  3  0  0  0  0  0  0
  183.5040  178.9450  145.5480 C   0  0  0  0  0  3  0  0  0  0  0  0
  185.7800  178.1780  145.8770 C   0  0  0  0  0  3  0  0  0  0  0  0
  185.0550  178.8910  143.6830 C   0  0  0  0  0  0  0  0  0  0  0  0
  184.5040  178.4470  146.3860 C   0  0  0  0  0  3  0  0  0  0  0  0
  186.0580  178.3990  144.5250 C   0  0  0  0  0  3  0  0  0  0  0  0
  189.5400  177.1080  142.4030 C   0  0  2  0  0  3  0  0  0  0  0  0
  187.7680  175.7770  143.3030 O   0  0  0  0  0  1  0  0  0  0  0  0
  189.0530  175.7100  142.7600 C   0  0  0  0  0  2  0  0  0  0  0  0
  188.9190  178.2060  143.2740 C   0  0  0  0  0  2  0  0  0  0  0  0
  192.0830  178.2620  144.9460 N   0  0  0  0  0  2  0  0  0  0  0  0
  189.6180  178.4190  144.6220 C   0  0  2  0  0  3  0  0  0  0  0  0
  190.9890  179.0180  144.4560 C   0  0  0  0  0  0  0  0  0  0  0  0
  189.7320  177.1110  145.4280 C   0  0  0  0  0  2  0  0  0  0  0  0
  191.8120  176.8000  147.1500 O   0  0  0  0  0  0  0  0  0  0  0  0
  191.4680  176.8420  145.6850 S   0  0  0  0  0  0  0  0  0  0  0  0
  191.1630  180.1430  143.9150 O   0  0  0  0  0  0  0  0  0  0  0  0
  191.9470  175.6030  144.9750 O   0  0  0  0  0  0  0  0  0  0  0  0
  1 36  1  0  0  0  0
  2  5  1  0  0  0  0
  2  4  1  0  0  0  0
  3  6  1  0  0  0  0
  3  1  1  0  0  0  0
  4  6  2  0  0  0  0
  5  3  2  0  0  0  0
  6 28  1  0  0  0  0
  7  5  1  0  0  0  0
  7  8  2  0  0  0  0
  8  9  1  0  0  0  0
  8  1  1  0  0  0  0
  9 11  1  0  0  0  0
  9 10  1  0  0  0  0
 11 10  1  0  0  0  0
 12 13  2  0  0  0  0
 13  9  1  0  0  0  0
 14 13  1  0  0  0  0
 15 23  1  6  0  0  0
 15 14  1  0  0  0  0
 16 20  1  6  0  0  0
 16 15  1  0  0  0  0
 16 19  1  0  0  0  0
 19 17  2  0  0  0  0
 19 18  1  0  0  0  0
 21 22  1  0  0  0  0
 21 20  1  0  0  0  0
 23 24  1  0  0  0  0
 25 26  2  0  0  0  0
 26 24  1  0  0  0  0
 27 26  2  0  0  0  0
 28 29  1  0  0  0  0
 29 33  1  0  0  0  0
 30 31  1  0  0  0  0
 31 34  2  0  0  0  0
 32 34  1  0  0  0  0
 33 30  2  0  0  0  0
 33 35  1  0  0  0  0
 35 32  2  0  0  0  0
 36 38  1  1  0  0  0
 36 39  1  0  0  0  0
 38 37  1  0  0  0  0
 40 45  1  0  0  0  0
 41 39  1  6  0  0  0
 41 43  1  0  0  0  0
 42 41  1  0  0  0  0
 42 40  1  0  0  0  0
 43 45  1  0  0  0  0
 45 44  2  0  0  0  0
 46 42  2  0  0  0  0
 47 45  2  0  0  0  0
M  END
>  <MODEL>
1

>  <REMARK>
 VINA RESULT:      -6.9      0.000      0.000
  Name = 
  18 active torsions:
  status: ('A' for Active; 'I' for Inactive)
    1  A    between atoms: C_2  and  N_3
    2  A    between atoms: C_2  and  C_38
    3  A    between atoms: C_2  and  C_42
    4  A    between atoms: C_4  and  C_42
    5  A    between atoms: C_6  and  C_32
    6  A    between atoms: C_6  and  N_37
    7  A    between atoms: C_13  and  O_33
    8  A    between atoms: O_14  and  C_17
    9  A    between atoms: O_14  and  C_44
   10  A    between atoms: C_17  and  C_23
   11  A    between atoms: O_19  and  P_22
   12  A    between atoms: O_19  and  C_34
   13  A    between atoms: C_23  and  C_35
   14  A    between atoms: C_26  and  N_37
   15  A    between atoms: C_27  and  C_45
   16  A    between atoms: O_33  and  C_45
   17  A    between atoms: C_34  and  C_44
   18  A    between atoms: C_44  and  C_45
                            x       y       z     vdW  Elec       q    Type
                         _______ _______ _______ _____ _____    ______ ____

>  <TORSDO>
F 18

$$$$
=
 OpenBabel11062417023D

 47 51  0  0  1  0  0  0  0  0999 V2000
  187.8890  178.0000  139.4720 N   0  0  0  0  0  0  0  0  0  0  0  0
  184.7570  178.6890  140.5790 N   0  0  0  0  0  2  0  0  0  0  0  0
  186.6010  178.3720  139.3960 C   0  0  0  0  0  0  0  0  0  0  0  0
  184.4020  178.5060  139.3010 N   0  0  0  0  0  0  0  0  0  0  0  0
  186.0990  178.6200  140.5910 C   0  0  0  0  0  0  0  0  0  0  0  0
  185.5150  178.3020  138.5480 C   0  0  0  0  0  0  0  0  0  0  0  0
  187.0430  178.4610  141.5790 C   0  0  0  0  0  3  0  0  0  0  0  0
  188.1670  178.0890  140.8120 C   0  0  0  0  0  0  0  0  0  0  0  0
  189.5130  177.8170  141.4130 C   0  0  0  0  0  0  0  0  0  0  0  0
  190.7110  177.7610  140.4870 C   0  0  0  0  0  2  0  0  0  0  0  0
  190.0910  176.4760  141.0120 C   0  0  0  0  0  2  0  0  0  0  0  0
  190.5800  179.0630  143.1570 O   0  0  0  0  0  0  0  0  0  0  0  0
  189.7520  178.1600  142.8460 C   0  0  0  0  0  0  0  0  0  0  0  0
  189.0770  177.4370  143.8350 O   0  0  0  0  0  0  0  0  0  0  0  0
  188.6130  178.0350  145.0450 C   0  0  2  0  0  3  0  0  0  0  0  0
  189.5750  177.6630  146.1920 C   0  0  1  0  0  3  0  0  0  0  0  0
  188.2850  176.4620  147.9780 O   0  0  0  0  0  0  0  0  0  0  0  0
  189.0290  178.6030  148.3530 O   0  0  0  0  0  1  0  0  0  0  0  0
  188.9510  177.6150  147.5670 C   0  0  0  0  0  0  0  0  0  0  0  0
  190.3830  176.5360  145.9190 O   0  0  0  0  0  0  0  0  0  0  0  0
  191.6530  176.7360  146.4850 C   0  0  0  0  0  2  0  0  0  0  0  0
  192.2760  175.4970  146.6660 O   0  0  0  0  0  1  0  0  0  0  0  0
  187.2080  177.5240  145.3460 C   0  0  0  0  0  2  0  0  0  0  0  0
  186.2570  178.3000  144.6860 O   0  0  0  0  0  0  0  0  0  0  0  0
  183.7470  178.9490  145.6750 O   0  0  0  0  0  0  0  0  0  0  0  0
  185.2370  178.8530  145.9150 P   0  0  0  0  0  0  0  0  0  0  0  0
  185.8140  179.2420  147.2580 O   0  0  0  0  0  0  0  0  0  0  0  0
  185.4640  177.9930  137.1540 N   0  0  0  0  0  2  0  0  0  0  0  0
  184.3200  177.3610  136.5180 C   0  0  0  0  0  2  0  0  0  0  0  0
  184.2170  175.0960  137.5900 C   0  0  0  0  0  3  0  0  0  0  0  0
  184.3820  173.7090  137.5380 C   0  0  0  0  0  3  0  0  0  0  0  0
  185.1470  173.8950  135.2450 C   0  0  0  0  0  3  0  0  0  0  0  0
  184.5120  175.8830  136.4680 C   0  0  0  0  0  0  0  0  0  0  0  0
  184.8440  173.1100  136.3650 C   0  0  0  0  0  3  0  0  0  0  0  0
  184.9810  175.2820  135.2950 C   0  0  0  0  0  3  0  0  0  0  0  0
  188.7820  177.4530  138.4500 C   0  0  2  0  0  3  0  0  0  0  0  0
  189.0450  179.7450  137.8170 O   0  0  0  0  0  1  0  0  0  0  0  0
  188.9840  178.4440  137.3120 C   0  0  0  0  0  2  0  0  0  0  0  0
  188.2970  176.0770  137.9760 C   0  0  0  0  0  2  0  0  0  0  0  0
  190.5000  173.3960  137.0980 N   0  0  0  0  0  2  0  0  0  0  0  0
  189.1340  175.4640  136.8470 C   0  0  2  0  0  3  0  0  0  0  0  0
  189.2100  173.9640  136.9530 C   0  0  0  0  0  0  0  0  0  0  0  0
  190.5620  176.0420  136.8050 C   0  0  0  0  0  2  0  0  0  0  0  0
  192.5840  174.4900  135.8600 O   0  0  0  0  0  0  0  0  0  0  0  0
  191.6560  174.6620  137.0320 S   0  0  0  0  0  0  0  0  0  0  0  0
  188.1790  173.2400  136.9080 O   0  0  0  0  0  0  0  0  0  0  0  0
  192.4220  174.7720  138.3250 O   0  0  0  0  0  0  0  0  0  0  0  0
  1  8  1  0  0  0  0
  2  5  1  0  0  0  0
  3  1  1  0  0  0  0
  3  5  2  0  0  0  0
  4  2  1  0  0  0  0
  5  7  1  0  0  0  0
  6  4  2  0  0  0  0
  6  3  1  0  0  0  0
  8  9  1  0  0  0  0
  8  7  2  0  0  0  0
  9 13  1  0  0  0  0
 10 11  1  0  0  0  0
 10  9  1  0  0  0  0
 11  9  1  0  0  0  0
 13 12  2  0  0  0  0
 13 14  1  0  0  0  0
 14 15  1  0  0  0  0
 15 23  1  1  0  0  0
 15 16  1  0  0  0  0
 16 20  1  6  0  0  0
 16 19  1  0  0  0  0
 19 17  2  0  0  0  0
 19 18  1  0  0  0  0
 20 21  1  0  0  0  0
 21 22  1  0  0  0  0
 24 23  1  0  0  0  0
 24 26  1  0  0  0  0
 25 26  2  0  0  0  0
 26 27  2  0  0  0  0
 28  6  1  0  0  0  0
 29 28  1  0  0  0  0
 31 30  1  0  0  0  0
 32 35  2  0  0  0  0
 32 34  1  0  0  0  0
 33 29  1  0  0  0  0
 33 30  2  0  0  0  0
 34 31  2  0  0  0  0
 35 33  1  0  0  0  0
 36 38  1  6  0  0  0
 36  1  1  0  0  0  0
 38 37  1  0  0  0  0
 39 36  1  0  0  0  0
 41 42  1  0  0  0  0
 41 39  1  1  0  0  0
 42 40  1  0  0  0  0
 43 41  1  0  0  0  0
 43 45  1  0  0  0  0
 44 45  2  0  0  0  0
 45 40  1  0  0  0  0
 45 47  2  0  0  0  0
 46 42  2  0  0  0  0
M  END
>  <MODEL>
2

>  <REMARK>
 VINA RESULT:      -6.8      3.816      8.252
  Name = 
  18 active torsions:
  status: ('A' for Active; 'I' for Inactive)
    1  A    between atoms: C_2  and  N_3
    2  A    between atoms: C_2  and  C_38
    3  A    between atoms: C_2  and  C_42
    4  A    between atoms: C_4  and  C_42
    5  A    between atoms: C_6  and  C_32
    6  A    between atoms: C_6  and  N_37
    7  A    between atoms: C_13  and  O_33
    8  A    between atoms: O_14  and  C_17
    9  A    between atoms: O_14  and  C_44
   10  A    between atoms: C_17  and  C_23
   11  A    between atoms: O_19  and  P_22
   12  A    between atoms: O_19  and  C_34
   13  A    between atoms: C_23  and  C_35
   14  A    between atoms: C_26  and  N_37
   15  A    between atoms: C_27  and  C_45
   16  A    between atoms: O_33  and  C_45
   17  A    between atoms: C_34  and  C_44
   18  A    between atoms: C_44  and  C_45
                            x       y       z     vdW  Elec       q    Type
                         _______ _______ _______ _____ _____    ______ ____

>  <TORSDO>
F 18

$$$$
=
 OpenBabel11062417023D

 47 51  0  0  1  0  0  0  0  0999 V2000
  189.4590  177.3510  140.8320 N   0  0  0  0  0  0  0  0  0  0  0  0
  187.5700  178.6790  138.3470 N   0  0  0  0  0  2  0  0  0  0  0  0
  188.3400  177.6980  140.1760 C   0  0  0  0  0  0  0  0  0  0  0  0
  186.6020  178.7100  139.2710 N   0  0  0  0  0  0  0  0  0  0  0  0
  188.6000  178.0400  138.9280 C   0  0  0  0  0  0  0  0  0  0  0  0
  187.0470  178.1180  140.4110 C   0  0  0  0  0  0  0  0  0  0  0  0
  189.9380  177.9150  138.6360 C   0  0  0  0  0  3  0  0  0  0  0  0
  190.4340  177.4530  139.8730 C   0  0  0  0  0  0  0  0  0  0  0  0
  191.8780  177.1180  140.1020 C   0  0  0  0  0  0  0  0  0  0  0  0
  192.3130  176.7510  141.5060 C   0  0  0  0  0  2  0  0  0  0  0  0
  192.6030  178.1370  140.9540 C   0  0  0  0  0  2  0  0  0  0  0  0
  193.4960  177.3810  138.3570 O   0  0  0  0  0  0  0  0  0  0  0  0
  192.6950  176.6110  138.9600 C   0  0  0  0  0  0  0  0  0  0  0  0
  192.5270  175.2860  138.5450 O   0  0  0  0  0  0  0  0  0  0  0  0
  193.2630  174.7200  137.4600 C   0  0  2  0  0  3  0  0  0  0  0  0
  192.3310  173.8010  136.6440 C   0  0  1  0  0  3  0  0  0  0  0  0
  189.9760  173.6200  137.4910 O   0  0  0  0  0  1  0  0  0  0  0  0
  190.4720  175.1050  135.8100 O   0  0  0  0  0  0  0  0  0  0  0  0
  190.8790  174.2180  136.6150 C   0  0  0  0  0  0  0  0  0  0  0  0
  192.8300  173.4700  135.3640 O   0  0  0  0  0  0  0  0  0  0  0  0
  192.4480  172.1550  135.0500 C   0  0  0  0  0  2  0  0  0  0  0  0
  193.0870  171.2710  135.9260 O   0  0  0  0  0  1  0  0  0  0  0  0
  194.4370  173.9230  138.0190 C   0  0  0  0  0  2  0  0  0  0  0  0
  195.4070  174.7810  138.5330 O   0  0  0  0  0  0  0  0  0  0  0  0
  197.2970  172.9450  137.6600 O   0  0  0  0  0  0  0  0  0  0  0  0
  196.8160  174.3790  137.6900 P   0  0  0  0  0  0  0  0  0  0  0  0
  197.5900  175.4520  136.9570 O   0  0  0  0  0  0  0  0  0  0  0  0
  186.2760  178.0660  141.6120 N   0  0  0  0  0  2  0  0  0  0  0  0
  185.4390  179.1630  142.0720 C   0  0  0  0  0  2  0  0  0  0  0  0
  185.9860  178.4540  144.4140 C   0  0  0  0  0  3  0  0  0  0  0  0
  185.6260  178.2700  145.7530 C   0  0  0  0  0  3  0  0  0  0  0  0
  183.3920  179.0680  145.2520 C   0  0  0  0  0  3  0  0  0  0  0  0
  185.0500  178.9510  143.4960 C   0  0  0  0  0  0  0  0  0  0  0  0
  184.3300  178.5800  146.1700 C   0  0  0  0  0  3  0  0  0  0  0  0
  183.7510  179.2530  143.9140 C   0  0  0  0  0  3  0  0  0  0  0  0
  189.6840  177.0920  142.2540 C   0  0  2  0  0  3  0  0  0  0  0  0
  187.9480  175.7080  143.1440 O   0  0  0  0  0  1  0  0  0  0  0  0
  189.2470  175.6830  142.6300 C   0  0  0  0  0  2  0  0  0  0  0  0
  189.0360  178.1790  143.1210 C   0  0  0  0  0  2  0  0  0  0  0  0
  192.1770  178.1510  144.8360 N   0  0  0  0  0  2  0  0  0  0  0  0
  189.7260  178.4110  144.4690 C   0  0  2  0  0  3  0  0  0  0  0  0
  191.1270  178.9380  144.3010 C   0  0  0  0  0  0  0  0  0  0  0  0
  189.7670  177.1320  145.3270 C   0  0  0  0  0  2  0  0  0  0  0  0
  191.8070  176.7920  147.0910 O   0  0  0  0  0  0  0  0  0  0  0  0
  191.4840  176.7920  145.6210 S   0  0  0  0  0  0  0  0  0  0  0  0
  191.3610  180.0310  143.7200 O   0  0  0  0  0  0  0  0  0  0  0  0
  191.9130  175.5040  144.9670 O   0  0  0  0  0  0  0  0  0  0  0  0
  1 36  1  0  0  0  0
  2  5  1  0  0  0  0
  2  4  1  0  0  0  0
  3  6  1  0  0  0  0
  3  1  1  0  0  0  0
  4  6  2  0  0  0  0
  5  3  2  0  0  0  0
  6 28  1  0  0  0  0
  7  5  1  0  0  0  0
  7  8  2  0  0  0  0
  8  9  1  0  0  0  0
  8  1  1  0  0  0  0
  9 11  1  0  0  0  0
  9 10  1  0  0  0  0
 11 10  1  0  0  0  0
 12 13  2  0  0  0  0
 13  9  1  0  0  0  0
 14 13  1  0  0  0  0
 15 23  1  1  0  0  0
 15 14  1  0  0  0  0
 16 20  1  6  0  0  0
 16 15  1  0  0  0  0
 18 19  2  0  0  0  0
 19 16  1  0  0  0  0
 19 17  1  0  0  0  0
 21 20  1  0  0  0  0
 21 22  1  0  0  0  0
 23 24  1  0  0  0  0
 25 26  2  0  0  0  0
 26 24  1  0  0  0  0
 27 26  2  0  0  0  0
 28 29  1  0  0  0  0
 29 33  1  0  0  0  0
 30 31  1  0  0  0  0
 31 34  2  0  0  0  0
 32 34  1  0  0  0  0
 33 35  1  0  0  0  0
 33 30  2  0  0  0  0
 35 32  2  0  0  0  0
 36 38  1  1  0  0  0
 36 39  1  0  0  0  0
 38 37  1  0  0  0  0
 40 45  1  0  0  0  0
 41 39  1  6  0  0  0
 41 43  1  0  0  0  0
 42 41  1  0  0  0  0
 42 40  1  0  0  0  0
 43 45  1  0  0  0  0
 45 44  2  0  0  0  0
 46 42  2  0  0  0  0
 47 45  2  0  0  0  0
M  END
>  <MODEL>
3

>  <REMARK>
 VINA RESULT:      -6.6      1.469      2.976
  Name = 
  18 active torsions:
  status: ('A' for Active; 'I' for Inactive)
    1  A    between atoms: C_2  and  N_3
    2  A    between atoms: C_2  and  C_38
    3  A    between atoms: C_2  and  C_42
    4  A    between atoms: C_4  and  C_42
    5  A    between atoms: C_6  and  C_32
    6  A    between atoms: C_6  and  N_37
    7  A    between atoms: C_13  and  O_33
    8  A    between atoms: O_14  and  C_17
    9  A    between atoms: O_14  and  C_44
   10  A    between atoms: C_17  and  C_23
   11  A    between atoms: O_19  and  P_22
   12  A    between atoms: O_19  and  C_34
   13  A    between atoms: C_23  and  C_35
   14  A    between atoms: C_26  and  N_37
   15  A    between atoms: C_27  and  C_45
   16  A    between atoms: O_33  and  C_45
   17  A    between atoms: C_34  and  C_44
   18  A    between atoms: C_44  and  C_45
                            x       y       z     vdW  Elec       q    Type
                         _______ _______ _______ _____ _____    ______ ____

>  <TORSDO>
F 18

$$$$
=
 OpenBabel11062417023D

 47 51  0  0  1  0  0  0  0  0999 V2000
  189.8260  177.2320  138.4140 N   0  0  0  0  0  0  0  0  0  0  0  0
  190.8120  177.1900  141.6600 N   0  0  0  0  0  2  0  0  0  0  0  0
  189.8880  177.6260  139.6960 C   0  0  0  0  0  0  0  0  0  0  0  0
  189.6960  177.8970  141.8760 N   0  0  0  0  0  0  0  0  0  0  0  0
  190.9030  177.0640  140.3250 C   0  0  0  0  0  0  0  0  0  0  0  0
  189.1000  178.1770  140.6870 C   0  0  0  0  0  0  0  0  0  0  0  0
  191.6340  176.2560  139.4850 C   0  0  0  0  0  3  0  0  0  0  0  0
  190.9210  176.4170  138.2790 C   0  0  0  0  0  0  0  0  0  0  0  0
  191.3240  175.7550  136.9960 C   0  0  0  0  0  0  0  0  0  0  0  0
  192.2130  176.5270  136.0420 C   0  0  0  0  0  2  0  0  0  0  0  0
  190.7220  176.4060  135.7680 C   0  0  0  0  0  2  0  0  0  0  0  0
  190.5030  173.5800  137.5680 O   0  0  0  0  0  0  0  0  0  0  0  0
  191.3480  174.2640  136.9240 C   0  0  0  0  0  0  0  0  0  0  0  0
  192.3470  173.6400  136.1690 O   0  0  0  0  0  0  0  0  0  0  0  0
  193.4550  172.9650  136.7650 C   0  0  2  0  0  3  0  0  0  0  0  0
  194.6260  173.9570  136.9170 C   0  0  1  0  0  3  0  0  0  0  0  0
  194.9280  175.4930  138.8780 O   0  0  0  0  0  0  0  0  0  0  0  0
  195.5640  173.2920  139.0460 O   0  0  0  0  0  1  0  0  0  0  0  0
  195.0700  174.2170  138.3380 C   0  0  0  0  0  0  0  0  0  0  0  0
  195.7090  173.7020  136.0450 O   0  0  0  0  0  0  0  0  0  0  0  0
  196.5930  174.7940  136.0840 C   0  0  0  0  0  2  0  0  0  0  0  0
  197.9040  174.3190  136.1800 O   0  0  0  0  0  1  0  0  0  0  0  0
  193.8620  171.7960  135.8740 C   0  0  0  0  0  2  0  0  0  0  0  0
  193.5970  170.5850  136.5100 O   0  0  0  0  0  0  0  0  0  0  0  0
  195.1090  169.8780  138.7270 O   0  0  0  0  0  0  0  0  0  0  0  0
  195.0600  170.1630  137.2420 P   0  0  0  0  0  0  0  0  0  0  0  0
  196.3190  170.0600  136.4110 O   0  0  0  0  0  0  0  0  0  0  0  0
  187.8440  178.8480  140.5850 N   0  0  0  0  0  2  0  0  0  0  0  0
  186.5670  178.1900  140.8080 C   0  0  0  0  0  2  0  0  0  0  0  0
  186.6920  177.6030  143.2430 C   0  0  0  0  0  3  0  0  0  0  0  0
  186.2950  177.7940  144.5700 C   0  0  0  0  0  3  0  0  0  0  0  0
  184.7670  179.5350  143.8530 C   0  0  0  0  0  3  0  0  0  0  0  0
  186.1310  178.3820  142.2210 C   0  0  0  0  0  0  0  0  0  0  0  0
  185.3350  178.7610  144.8730 C   0  0  0  0  0  3  0  0  0  0  0  0
  185.1640  179.3460  142.5260 C   0  0  0  0  0  3  0  0  0  0  0  0
  188.7850  177.4360  137.4070 C   0  0  2  0  0  3  0  0  0  0  0  0
  187.1120  179.1420  137.2760 O   0  0  0  0  0  1  0  0  0  0  0  0
  188.4900  178.9180  137.2150 C   0  0  0  0  0  2  0  0  0  0  0  0
  187.5350  176.6070  137.7320 C   0  0  0  0  0  2  0  0  0  0  0  0
  184.7650  174.7510  136.4330 N   0  0  0  0  0  2  0  0  0  0  0  0
  187.0640  175.6960  136.5930 C   0  0  2  0  0  3  0  0  0  0  0  0
  185.6020  175.8850  136.2880 C   0  0  0  0  0  0  0  0  0  0  0  0
  187.3300  174.2080  136.8940 C   0  0  0  0  0  2  0  0  0  0  0  0
  185.6820  172.3320  135.8210 O   0  0  0  0  0  0  0  0  0  0  0  0
  185.7440  173.4120  136.8680 S   0  0  0  0  0  0  0  0  0  0  0  0
  185.1380  176.9960  135.9150 O   0  0  0  0  0  0  0  0  0  0  0  0
  185.3710  172.8780  138.2260 O   0  0  0  0  0  0  0  0  0  0  0  0
  1  3  1  0  0  0  0
  2  4  1  0  0  0  0
  3  5  2  0  0  0  0
  3  6  1  0  0  0  0
  5  2  1  0  0  0  0
  6  4  2  0  0  0  0
  7  5  1  0  0  0  0
  8  1  1  0  0  0  0
  8  7  2  0  0  0  0
  9  8  1  0  0  0  0
 10  9  1  0  0  0  0
 11 10  1  0  0  0  0
 11  9  1  0  0  0  0
 13  9  1  0  0  0  0
 13 12  2  0  0  0  0
 14 15  1  0  0  0  0
 14 13  1  0  0  0  0
 15 23  1  6  0  0  0
 15 16  1  0  0  0  0
 16 20  1  6  0  0  0
 16 19  1  0  0  0  0
 19 17  2  0  0  0  0
 19 18  1  0  0  0  0
 20 21  1  0  0  0  0
 21 22  1  0  0  0  0
 23 24  1  0  0  0  0
 24 26  1  0  0  0  0
 26 25  2  0  0  0  0
 27 26  2  0  0  0  0
 28  6  1  0  0  0  0
 28 29  1  0  0  0  0
 29 33  1  0  0  0  0
 30 31  1  0  0  0  0
 31 34  2  0  0  0  0
 32 34  1  0  0  0  0
 33 35  1  0  0  0  0
 33 30  2  0  0  0  0
 35 32  2  0  0  0  0
 36 38  1  1  0  0  0
 36 39  1  0  0  0  0
 36  1  1  0  0  0  0
 38 37  1  0  0  0  0
 40 45  1  0  0  0  0
 41 43  1  0  0  0  0
 41 39  1  1  0  0  0
 42 40  1  0  0  0  0
 42 41  1  0  0  0  0
 44 45  2  0  0  0  0
 45 43  1  0  0  0  0
 45 47  2  0  0  0  0
 46 42  2  0  0  0  0
M  END
>  <MODEL>
4

>  <REMARK>
 VINA RESULT:      -6.6      3.458      5.826
  Name = 
  18 active torsions:
  status: ('A' for Active; 'I' for Inactive)
    1  A    between atoms: C_2  and  N_3
    2  A    between atoms: C_2  and  C_38
    3  A    between atoms: C_2  and  C_42
    4  A    between atoms: C_4  and  C_42
    5  A    between atoms: C_6  and  C_32
    6  A    between atoms: C_6  and  N_37
    7  A    between atoms: C_13  and  O_33
    8  A    between atoms: O_14  and  C_17
    9  A    between atoms: O_14  and  C_44
   10  A    between atoms: C_17  and  C_23
   11  A    between atoms: O_19  and  P_22
   12  A    between atoms: O_19  and  C_34
   13  A    between atoms: C_23  and  C_35
   14  A    between atoms: C_26  and  N_37
   15  A    between atoms: C_27  and  C_45
   16  A    between atoms: O_33  and  C_45
   17  A    between atoms: C_34  and  C_44
   18  A    between atoms: C_44  and  C_45
                            x       y       z     vdW  Elec       q    Type
                         _______ _______ _______ _____ _____    ______ ____

>  <TORSDO>
F 18

$$$$
=
 OpenBabel11062417023D

 47 51  0  0  1  0  0  0  0  0999 V2000
  185.1890  177.0420  137.8610 N   0  0  0  0  0  0  0  0  0  0  0  0
  183.6860  174.1150  137.0370 N   0  0  0  0  0  2  0  0  0  0  0  0
  184.9770  175.9080  137.1760 C   0  0  0  0  0  0  0  0  0  0  0  0
  184.8460  173.8360  136.4300 N   0  0  0  0  0  0  0  0  0  0  0  0
  183.7980  175.3860  137.4580 C   0  0  0  0  0  0  0  0  0  0  0  0
  185.6660  174.9180  136.5030 C   0  0  0  0  0  0  0  0  0  0  0  0
  183.1000  176.1670  138.3500 C   0  0  0  0  0  3  0  0  0  0  0  0
  184.0190  177.2160  138.5560 C   0  0  0  0  0  0  0  0  0  0  0  0
  183.7370  178.3880  139.4480 C   0  0  0  0  0  0  0  0  0  0  0  0
  184.2690  178.3530  140.8660 C   0  0  0  0  0  2  0  0  0  0  0  0
  182.8020  178.0610  140.5920 C   0  0  0  0  0  2  0  0  0  0  0  0
  184.3560  180.6270  138.8680 O   0  0  0  0  0  0  0  0  0  0  0  0
  183.4740  179.7220  138.8310 C   0  0  0  0  0  0  0  0  0  0  0  0
  182.2230  179.9660  138.2550 O   0  0  0  0  0  0  0  0  0  0  0  0
  181.2980  180.9110  138.7930 C   0  0  2  0  0  3  0  0  0  0  0  0
  179.8730  180.3300  138.7000 C   0  0  1  0  0  3  0  0  0  0  0  0
  179.8000  177.8850  138.1380 O   0  0  0  0  0  1  0  0  0  0  0  0
  179.4550  179.4450  136.4870 O   0  0  0  0  0  0  0  0  0  0  0  0
  179.6980  179.2060  137.7050 C   0  0  0  0  0  0  0  0  0  0  0  0
  179.2870  180.0440  139.9550 O   0  0  0  0  0  0  0  0  0  0  0  0
  179.4350  181.1620  140.7930 C   0  0  0  0  0  2  0  0  0  0  0  0
  179.8860  180.7390  142.0470 O   0  0  0  0  0  1  0  0  0  0  0  0
  181.3940  182.2090  137.9970 C   0  0  0  0  0  2  0  0  0  0  0  0
  180.1240  182.6520  137.6350 O   0  0  0  0  0  0  0  0  0  0  0  0
  179.9610  185.4210  137.7440 O   0  0  0  0  0  0  0  0  0  0  0  0
  180.3850  184.1870  136.9780 P   0  0  0  0  0  0  0  0  0  0  0  0
  181.0510  184.3280  135.6270 O   0  0  0  0  0  0  0  0  0  0  0  0
  187.0100  174.9100  136.0200 N   0  0  0  0  0  2  0  0  0  0  0  0
  188.0410  174.0290  136.5450 C   0  0  0  0  0  2  0  0  0  0  0  0
  189.5360  175.6700  135.3800 C   0  0  0  0  0  3  0  0  0  0  0  0
  190.8000  176.2170  135.1380 C   0  0  0  0  0  3  0  0  0  0  0  0
  191.7760  174.6160  136.6760 C   0  0  0  0  0  3  0  0  0  0  0  0
  189.3910  174.6000  136.2740 C   0  0  0  0  0  0  0  0  0  0  0  0
  191.9180  175.6910  135.7880 C   0  0  0  0  0  3  0  0  0  0  0  0
  190.5130  174.0690  136.9190 C   0  0  0  0  0  3  0  0  0  0  0  0
  186.4010  177.8460  138.0160 C   0  0  2  0  0  3  0  0  0  0  0  0
  187.4730  179.6180  136.8180 O   0  0  0  0  0  1  0  0  0  0  0  0
  186.8990  178.3540  136.6690 C   0  0  0  0  0  2  0  0  0  0  0  0
  187.4710  177.0820  138.8070 C   0  0  0  0  0  2  0  0  0  0  0  0
  190.4370  177.1310  140.8100 N   0  0  0  0  0  2  0  0  0  0  0  0
  188.4170  177.9740  139.6200 C   0  0  2  0  0  3  0  0  0  0  0  0
  189.8370  177.4770  139.5730 C   0  0  0  0  0  0  0  0  0  0  0  0
  187.9730  178.1010  141.0900 C   0  0  0  0  0  2  0  0  0  0  0  0
  189.8580  178.5170  143.0040 O   0  0  0  0  0  0  0  0  0  0  0  0
  189.3180  177.4730  142.0640 S   0  0  0  0  0  0  0  0  0  0  0  0
  190.4730  177.3770  138.4890 O   0  0  0  0  0  0  0  0  0  0  0  0
  188.9260  176.2210  142.8050 O   0  0  0  0  0  0  0  0  0  0  0  0
  1 36  1  0  0  0  0
  1  8  1  0  0  0  0
  2  5  1  0  0  0  0
  3  5  2  0  0  0  0
  3  1  1  0  0  0  0
  4  6  2  0  0  0  0
  4  2  1  0  0  0  0
  5  7  1  0  0  0  0
  6  3  1  0  0  0  0
  7  8  2  0  0  0  0
  8  9  1  0  0  0  0
  9 11  1  0  0  0  0
  9 10  1  0  0  0  0
 11 10  1  0  0  0  0
 13 12  2  0  0  0  0
 13  9  1  0  0  0  0
 14 15  1  0  0  0  0
 14 13  1  0  0  0  0
 15 23  1  6  0  0  0
 16 19  1  6  0  0  0
 16 15  1  0  0  0  0
 16 20  1  0  0  0  0
 18 19  2  0  0  0  0
 19 17  1  0  0  0  0
 20 21  1  0  0  0  0
 21 22  1  0  0  0  0
 24 23  1  0  0  0  0
 26 24  1  0  0  0  0
 26 25  2  0  0  0  0
 27 26  2  0  0  0  0
 28  6  1  0  0  0  0
 28 29  1  0  0  0  0
 30 33  1  0  0  0  0
 31 30  2  0  0  0  0
 31 34  1  0  0  0  0
 32 35  1  0  0  0  0
 33 29  1  0  0  0  0
 33 35  2  0  0  0  0
 34 32  2  0  0  0  0
 36 38  1  6  0  0  0
 36 39  1  0  0  0  0
 38 37  1  0  0  0  0
 40 45  1  0  0  0  0
 41 39  1  6  0  0  0
 41 43  1  0  0  0  0
 42 41  1  0  0  0  0
 42 40  1  0  0  0  0
 43 45  1  0  0  0  0
 45 47  2  0  0  0  0
 45 44  2  0  0  0  0
 46 42  2  0  0  0  0
M  END
>  <MODEL>
5

>  <REMARK>
 VINA RESULT:      -6.6      6.070     10.371
  Name = 
  18 active torsions:
  status: ('A' for Active; 'I' for Inactive)
    1  A    between atoms: C_2  and  N_3
    2  A    between atoms: C_2  and  C_38
    3  A    between atoms: C_2  and  C_42
    4  A    between atoms: C_4  and  C_42
    5  A    between atoms: C_6  and  C_32
    6  A    between atoms: C_6  and  N_37
    7  A    between atoms: C_13  and  O_33
    8  A    between atoms: O_14  and  C_17
    9  A    between atoms: O_14  and  C_44
   10  A    between atoms: C_17  and  C_23
   11  A    between atoms: O_19  and  P_22
   12  A    between atoms: O_19  and  C_34
   13  A    between atoms: C_23  and  C_35
   14  A    between atoms: C_26  and  N_37
   15  A    between atoms: C_27  and  C_45
   16  A    between atoms: O_33  and  C_45
   17  A    between atoms: C_34  and  C_44
   18  A    between atoms: C_44  and  C_45
                            x       y       z     vdW  Elec       q    Type
                         _______ _______ _______ _____ _____    ______ ____

>  <TORSDO>
F 18

$$$$
=
 OpenBabel11062417023D

 47 51  0  0  1  0  0  0  0  0999 V2000
  187.9140  178.2190  140.4740 N   0  0  0  0  0  0  0  0  0  0  0  0
  184.7880  178.3660  141.7840 N   0  0  0  0  0  2  0  0  0  0  0  0
  186.6100  178.5320  140.5370 C   0  0  0  0  0  0  0  0  0  0  0  0
  184.4050  178.5810  140.5200 N   0  0  0  0  0  0  0  0  0  0  0  0
  186.1320  178.3620  141.7560 C   0  0  0  0  0  0  0  0  0  0  0  0
  185.5040  178.6820  139.7260 C   0  0  0  0  0  0  0  0  0  0  0  0
  187.1090  177.9440  142.6290 C   0  0  0  0  0  3  0  0  0  0  0  0
  188.2250  177.8910  141.7690 C   0  0  0  0  0  0  0  0  0  0  0  0
  189.5990  177.5090  142.2340 C   0  0  0  0  0  0  0  0  0  0  0  0
  190.4980  176.7640  141.2690 C   0  0  0  0  0  2  0  0  0  0  0  0
  189.7880  176.0150  142.3860 C   0  0  0  0  0  2  0  0  0  0  0  0
  191.3910  178.8050  143.1520 O   0  0  0  0  0  0  0  0  0  0  0  0
  190.2430  178.3020  143.3220 C   0  0  0  0  0  0  0  0  0  0  0  0
  189.5760  178.4400  144.5440 O   0  0  0  0  0  0  0  0  0  0  0  0
  189.5080  177.3880  145.5070 C   0  0  2  0  0  3  0  0  0  0  0  0
  188.1880  177.5100  146.2940 C   0  0  1  0  0  3  0  0  0  0  0  0
  188.3200  176.2510  148.4620 O   0  0  0  0  0  0  0  0  0  0  0  0
  188.4620  178.5440  148.4640 O   0  0  0  0  0  1  0  0  0  0  0  0
  188.3290  177.4770  147.7980 C   0  0  0  0  0  0  0  0  0  0  0  0
  187.3500  178.5580  145.8480 O   0  0  0  0  0  0  0  0  0  0  0  0
  186.0090  178.1670  146.0040 C   0  0  0  0  0  2  0  0  0  0  0  0
  185.4130  178.9600  146.9900 O   0  0  0  0  0  1  0  0  0  0  0  0
  190.7010  177.5010  146.4510 C   0  0  0  0  0  2  0  0  0  0  0  0
  191.7050  176.6110  146.0740 O   0  0  0  0  0  0  0  0  0  0  0  0
  191.3330  174.5610  147.9070 O   0  0  0  0  0  0  0  0  0  0  0  0
  192.1040  175.7970  147.5000 P   0  0  0  0  0  0  0  0  0  0  0  0
  193.2390  176.2980  148.3640 O   0  0  0  0  0  0  0  0  0  0  0  0
  185.4270  178.8300  138.3070 N   0  0  0  0  0  2  0  0  0  0  0  0
  185.2380  177.7120  137.3970 C   0  0  0  0  0  2  0  0  0  0  0  0
  182.7380  177.9010  137.3340 C   0  0  0  0  0  3  0  0  0  0  0  0
  181.4640  177.3470  137.4910 C   0  0  0  0  0  3  0  0  0  0  0  0
  182.4720  175.2430  138.1530 C   0  0  0  0  0  3  0  0  0  0  0  0
  183.8790  177.1250  137.5810 C   0  0  0  0  0  0  0  0  0  0  0  0
  181.3330  176.0180  137.8970 C   0  0  0  0  0  3  0  0  0  0  0  0
  183.7460  175.7960  137.9960 C   0  0  0  0  0  3  0  0  0  0  0  0
  188.8000  178.0700  139.3190 C   0  0  2  0  0  3  0  0  0  0  0  0
  188.2710  179.4530  137.4410 O   0  0  0  0  0  1  0  0  0  0  0  0
  189.0180  179.4050  138.6200 C   0  0  0  0  0  2  0  0  0  0  0  0
  188.2960  176.9690  138.3780 C   0  0  0  0  0  2  0  0  0  0  0  0
  189.5200  174.5960  135.9940 N   0  0  0  0  0  2  0  0  0  0  0  0
  189.1300  176.7930  137.1040 C   0  0  2  0  0  3  0  0  0  0  0  0
  188.6210  175.6620  136.2500 C   0  0  0  0  0  0  0  0  0  0  0  0
  190.6210  176.5600  137.4150 C   0  0  0  0  0  2  0  0  0  0  0  0
  192.1150  175.0880  135.6860 O   0  0  0  0  0  0  0  0  0  0  0  0
  191.0270  174.9780  136.7200 S   0  0  0  0  0  0  0  0  0  0  0  0
  187.4540  175.6590  135.7750 O   0  0  0  0  0  0  0  0  0  0  0  0
  191.3880  173.9800  137.7900 O   0  0  0  0  0  0  0  0  0  0  0  0
  1  3  1  0  0  0  0
  1  8  1  0  0  0  0
  3  5  2  0  0  0  0
  4  2  1  0  0  0  0
  5  2  1  0  0  0  0
  5  7  1  0  0  0  0
  6  4  2  0  0  0  0
  6  3  1  0  0  0  0
  8  9  1  0  0  0  0
  8  7  2  0  0  0  0
  9 11  1  0  0  0  0
  9 13  1  0  0  0  0
 10  9  1  0  0  0  0
 10 11  1  0  0  0  0
 12 13  2  0  0  0  0
 13 14  1  0  0  0  0
 14 15  1  0  0  0  0
 15 16  1  0  0  0  0
 15 23  1  1  0  0  0
 16 20  1  1  0  0  0
 16 19  1  0  0  0  0
 19 17  2  0  0  0  0
 19 18  1  0  0  0  0
 20 21  1  0  0  0  0
 21 22  1  0  0  0  0
 24 23  1  0  0  0  0
 24 26  1  0  0  0  0
 26 25  2  0  0  0  0
 26 27  2  0  0  0  0
 28  6  1  0  0  0  0
 29 33  1  0  0  0  0
 29 28  1  0  0  0  0
 30 31  2  0  0  0  0
 30 33  1  0  0  0  0
 31 34  1  0  0  0  0
 33 35  2  0  0  0  0
 34 32  2  0  0  0  0
 35 32  1  0  0  0  0
 36 39  1  6  0  0  0
 36  1  1  0  0  0  0
 37 38  1  0  0  0  0
 38 36  1  0  0  0  0
 40 42  1  0  0  0  0
 40 45  1  0  0  0  0
 41 43  1  0  0  0  0
 41 39  1  1  0  0  0
 42 41  1  0  0  0  0
 44 45  2  0  0  0  0
 45 43  1  0  0  0  0
 45 47  2  0  0  0  0
 46 42  2  0  0  0  0
M  END
>  <MODEL>
6

>  <REMARK>
 VINA RESULT:      -6.4      3.648      8.344
  Name = 
  18 active torsions:
  status: ('A' for Active; 'I' for Inactive)
    1  A    between atoms: C_2  and  N_3
    2  A    between atoms: C_2  and  C_38
    3  A    between atoms: C_2  and  C_42
    4  A    between atoms: C_4  and  C_42
    5  A    between atoms: C_6  and  C_32
    6  A    between atoms: C_6  and  N_37
    7  A    between atoms: C_13  and  O_33
    8  A    between atoms: O_14  and  C_17
    9  A    between atoms: O_14  and  C_44
   10  A    between atoms: C_17  and  C_23
   11  A    between atoms: O_19  and  P_22
   12  A    between atoms: O_19  and  C_34
   13  A    between atoms: C_23  and  C_35
   14  A    between atoms: C_26  and  N_37
   15  A    between atoms: C_27  and  C_45
   16  A    between atoms: O_33  and  C_45
   17  A    between atoms: C_34  and  C_44
   18  A    between atoms: C_44  and  C_45
                            x       y       z     vdW  Elec       q    Type
                         _______ _______ _______ _____ _____    ______ ____

>  <TORSDO>
F 18

$$$$
=
 OpenBabel11062417023D

 47 51  0  0  1  0  0  0  0  0999 V2000
  187.6060  176.5310  137.2390 N   0  0  0  0  0  0  0  0  0  0  0  0
  184.6980  175.3730  135.9290 N   0  0  0  0  0  2  0  0  0  0  0  0
  186.2860  176.2980  137.1640 C   0  0  0  0  0  0  0  0  0  0  0  0
  184.1240  176.2840  136.7250 N   0  0  0  0  0  0  0  0  0  0  0  0
  186.0060  175.3990  136.2400 C   0  0  0  0  0  0  0  0  0  0  0  0
  185.0760  176.8760  137.4940 C   0  0  0  0  0  0  0  0  0  0  0  0
  187.1450  174.9250  135.6330 C   0  0  0  0  0  3  0  0  0  0  0  0
  188.1340  175.6600  136.3200 C   0  0  0  0  0  0  0  0  0  0  0  0
  189.6020  175.5000  136.0590 C   0  0  0  0  0  0  0  0  0  0  0  0
  190.3080  176.5790  135.2630 C   0  0  0  0  0  2  0  0  0  0  0  0
  189.9300  175.2630  134.6000 C   0  0  0  0  0  2  0  0  0  0  0  0
  189.9170  173.6510  137.5470 O   0  0  0  0  0  0  0  0  0  0  0  0
  190.4190  174.6700  136.9920 C   0  0  0  0  0  0  0  0  0  0  0  0
  191.7310  175.0650  137.2750 O   0  0  0  0  0  0  0  0  0  0  0  0
  192.8040  174.8870  136.3500 C   0  0  2  0  0  3  0  0  0  0  0  0
  193.6390  173.6630  136.7770 C   0  0  1  0  0  3  0  0  0  0  0  0
  193.5950  171.1680  136.5080 O   0  0  0  0  0  1  0  0  0  0  0  0
  193.1580  172.5170  134.7010 O   0  0  0  0  0  0  0  0  0  0  0  0
  193.4510  172.4270  135.9280 C   0  0  0  0  0  0  0  0  0  0  0  0
  195.0010  173.9540  137.0210 O   0  0  0  0  0  0  0  0  0  0  0  0
  195.5620  172.9130  137.7800 C   0  0  0  0  0  2  0  0  0  0  0  0
  195.0830  172.9920  139.0910 O   0  0  0  0  0  1  0  0  0  0  0  0
  193.6700  176.1430  136.3460 C   0  0  0  0  0  2  0  0  0  0  0  0
  193.9180  176.5590  135.0400 O   0  0  0  0  0  0  0  0  0  0  0  0
  195.8160  178.5590  135.3530 O   0  0  0  0  0  0  0  0  0  0  0  0
  195.5170  177.1040  135.0670 P   0  0  0  0  0  0  0  0  0  0  0  0
  196.6500  176.1350  134.8150 O   0  0  0  0  0  0  0  0  0  0  0  0
  184.7940  177.9520  138.3900 N   0  0  0  0  0  2  0  0  0  0  0  0
  183.6510  177.9620  139.2890 C   0  0  0  0  0  2  0  0  0  0  0  0
  183.1940  178.2430  141.7390 C   0  0  0  0  0  3  0  0  0  0  0  0
  183.6000  178.6080  143.0260 C   0  0  0  0  0  3  0  0  0  0  0  0
  185.7730  179.2350  142.1510 C   0  0  0  0  0  3  0  0  0  0  0  0
  184.0790  178.3680  140.6590 C   0  0  0  0  0  0  0  0  0  0  0  0
  184.8900  179.1010  143.2310 C   0  0  0  0  0  3  0  0  0  0  0  0
  185.3680  178.8690  140.8640 C   0  0  0  0  0  3  0  0  0  0  0  0
  188.3490  177.5620  137.9630 C   0  0  2  0  0  3  0  0  0  0  0  0
  187.8130  179.6220  136.8710 O   0  0  0  0  0  1  0  0  0  0  0  0
  188.8180  178.6630  137.0210 C   0  0  0  0  0  2  0  0  0  0  0  0
  189.4870  176.9440  138.7850 C   0  0  0  0  0  2  0  0  0  0  0  0
  191.1920  176.9200  141.9320 N   0  0  0  0  0  2  0  0  0  0  0  0
  189.9710  177.8120  139.9520 C   0  0  2  0  0  3  0  0  0  0  0  0
  191.2410  177.2790  140.5620 C   0  0  0  0  0  0  0  0  0  0  0  0
  188.9020  177.9530  141.0520 C   0  0  0  0  0  2  0  0  0  0  0  0
  189.6970  178.3240  143.6240 O   0  0  0  0  0  0  0  0  0  0  0  0
  189.6290  177.2920  142.5300 S   0  0  0  0  0  0  0  0  0  0  0  0
  192.3020  177.1610  139.8930 O   0  0  0  0  0  0  0  0  0  0  0  0
  188.9100  176.0510  142.9930 O   0  0  0  0  0  0  0  0  0  0  0  0
  1 36  1  0  0  0  0
  2  5  1  0  0  0  0
  2  4  1  0  0  0  0
  3  1  1  0  0  0  0
  3  6  1  0  0  0  0
  4  6  2  0  0  0  0
  5  3  2  0  0  0  0
  6 28  1  0  0  0  0
  7  5  1  0  0  0  0
  7  8  2  0  0  0  0
  8  1  1  0  0  0  0
  9  8  1  0  0  0  0
  9 13  1  0  0  0  0
 10  9  1  0  0  0  0
 11 10  1  0  0  0  0
 11  9  1  0  0  0  0
 13 14  1  0  0  0  0
 13 12  2  0  0  0  0
 15 23  1  1  0  0  0
 15 16  1  0  0  0  0
 15 14  1  0  0  0  0
 16 19  1  6  0  0  0
 16 20  1  0  0  0  0
 18 19  2  0  0  0  0
 19 17  1  0  0  0  0
 20 21  1  0  0  0  0
 21 22  1  0  0  0  0
 24 26  1  0  0  0  0
 24 23  1  0  0  0  0
 26 25  2  0  0  0  0
 27 26  2  0  0  0  0
 28 29  1  0  0  0  0
 29 33  1  0  0  0  0
 30 31  1  0  0  0  0
 31 34  2  0  0  0  0
 32 34  1  0  0  0  0
 33 35  1  0  0  0  0
 33 30  2  0  0  0  0
 35 32  2  0  0  0  0
 36 38  1  6  0  0  0
 36 39  1  0  0  0  0
 37 38  1  0  0  0  0
 40 45  1  0  0  0  0
 41 39  1  6  0  0  0
 41 42  1  0  0  0  0
 41 43  1  0  0  0  0
 42 40  1  0  0  0  0
 43 45  1  0  0  0  0
 45 47  2  0  0  0  0
 45 44  2  0  0  0  0
 46 42  2  0  0  0  0
M  END
>  <MODEL>
7

>  <REMARK>
 VINA RESULT:      -6.3      2.727      4.682
  Name = 
  18 active torsions:
  status: ('A' for Active; 'I' for Inactive)
    1  A    between atoms: C_2  and  N_3
    2  A    between atoms: C_2  and  C_38
    3  A    between atoms: C_2  and  C_42
    4  A    between atoms: C_4  and  C_42
    5  A    between atoms: C_6  and  C_32
    6  A    between atoms: C_6  and  N_37
    7  A    between atoms: C_13  and  O_33
    8  A    between atoms: O_14  and  C_17
    9  A    between atoms: O_14  and  C_44
   10  A    between atoms: C_17  and  C_23
   11  A    between atoms: O_19  and  P_22
   12  A    between atoms: O_19  and  C_34
   13  A    between atoms: C_23  and  C_35
   14  A    between atoms: C_26  and  N_37
   15  A    between atoms: C_27  and  C_45
   16  A    between atoms: O_33  and  C_45
   17  A    between atoms: C_34  and  C_44
   18  A    between atoms: C_44  and  C_45
                            x       y       z     vdW  Elec       q    Type
                         _______ _______ _______ _____ _____    ______ ____

>  <TORSDO>
F 18

$$$$
=
 OpenBabel11062417023D

 47 51  0  0  1  0  0  0  0  0999 V2000
  187.7620  176.4150  137.1710 N   0  0  0  0  0  0  0  0  0  0  0  0
  190.1950  174.0900  137.6010 N   0  0  0  0  0  2  0  0  0  0  0  0
  188.9920  175.9400  137.4250 C   0  0  0  0  0  0  0  0  0  0  0  0
  190.8250  175.0590  138.2780 N   0  0  0  0  0  0  0  0  0  0  0  0
  189.0990  174.6700  137.0830 C   0  0  0  0  0  0  0  0  0  0  0  0
  190.1060  176.2090  138.1930 C   0  0  0  0  0  0  0  0  0  0  0  0
  187.9320  174.1940  136.5320 C   0  0  0  0  0  3  0  0  0  0  0  0
  187.1240  175.3480  136.5910 C   0  0  0  0  0  0  0  0  0  0  0  0
  185.7160  175.3880  136.0750 C   0  0  0  0  0  0  0  0  0  0  0  0
  185.4890  175.1520  134.5960 C   0  0  0  0  0  2  0  0  0  0  0  0
  185.4440  176.5630  135.1600 C   0  0  0  0  0  2  0  0  0  0  0  0
  184.6480  174.0950  137.7840 O   0  0  0  0  0  0  0  0  0  0  0  0
  184.5910  175.0940  137.0120 C   0  0  0  0  0  0  0  0  0  0  0  0
  183.4600  175.9160  136.9880 O   0  0  0  0  0  0  0  0  0  0  0  0
  182.2080  175.4870  136.4520 C   0  0  2  0  0  3  0  0  0  0  0  0
  181.3450  176.7250  136.1350 C   0  0  1  0  0  3  0  0  0  0  0  0
  178.9350  176.4000  136.7520 O   0  0  0  0  0  0  0  0  0  0  0  0
  180.3070  177.6300  138.1240 O   0  0  0  0  0  1  0  0  0  0  0  0
  180.1750  176.9520  137.0640 C   0  0  0  0  0  0  0  0  0  0  0  0
  182.0950  177.9020  135.9050 O   0  0  0  0  0  0  0  0  0  0  0  0
  181.7750  178.4060  134.6320 C   0  0  0  0  0  2  0  0  0  0  0  0
  180.9390  179.5180  134.7770 O   0  0  0  0  0  1  0  0  0  0  0  0
  181.5060  174.6010  137.4760 C   0  0  0  0  0  2  0  0  0  0  0  0
  181.5430  173.2680  137.0710 O   0  0  0  0  0  0  0  0  0  0  0  0
  179.6760  171.2180  137.1940 O   0  0  0  0  0  0  0  0  0  0  0  0
  180.0450  172.6430  137.5430 P   0  0  0  0  0  0  0  0  0  0  0  0
  179.0780  173.5050  138.3230 O   0  0  0  0  0  0  0  0  0  0  0  0
  190.4720  177.4070  138.8800 N   0  0  0  0  0  2  0  0  0  0  0  0
  191.5390  177.4680  139.8650 C   0  0  0  0  0  2  0  0  0  0  0  0
  191.7360  177.6680  142.3570 C   0  0  0  0  0  3  0  0  0  0  0  0
  191.2080  177.5150  143.6430 C   0  0  0  0  0  3  0  0  0  0  0  0
  189.1790  176.5920  142.6900 C   0  0  0  0  0  3  0  0  0  0  0  0
  190.9830  177.2880  141.2370 C   0  0  0  0  0  0  0  0  0  0  0  0
  189.9290  176.9800  143.8070 C   0  0  0  0  0  3  0  0  0  0  0  0
  189.7050  176.7460  141.4030 C   0  0  0  0  0  3  0  0  0  0  0  0
  187.1340  177.6800  137.5520 C   0  0  2  0  0  3  0  0  0  0  0  0
  188.7160  179.4680  137.7120 O   0  0  0  0  0  1  0  0  0  0  0  0
  187.8020  178.8550  136.8510 C   0  0  0  0  0  2  0  0  0  0  0  0
  187.0870  177.8330  139.0770 C   0  0  0  0  0  2  0  0  0  0  0  0
  184.5710  178.3290  141.5740 N   0  0  0  0  0  2  0  0  0  0  0  0
  186.0000  178.7870  139.5850 C   0  0  2  0  0  3  0  0  0  0  0  0
  185.8420  178.7160  141.0810 C   0  0  0  0  0  0  0  0  0  0  0  0
  184.6360  178.5190  138.9200 C   0  0  0  0  0  2  0  0  0  0  0  0
  182.3630  179.0810  140.2990 O   0  0  0  0  0  0  0  0  0  0  0  0
  183.5170  178.1170  140.2380 S   0  0  0  0  0  0  0  0  0  0  0  0
  186.7900  178.9930  141.8640 O   0  0  0  0  0  0  0  0  0  0  0  0
  183.0360  176.6930  140.1410 O   0  0  0  0  0  0  0  0  0  0  0  0
  1  3  1  0  0  0  0
  1 36  1  0  0  0  0
  2  4  1  0  0  0  0
  3  6  1  0  0  0  0
  5  3  2  0  0  0  0
  5  2  1  0  0  0  0
  6  4  2  0  0  0  0
  6 28  1  0  0  0  0
  7  8  2  0  0  0  0
  7  5  1  0  0  0  0
  8  1  1  0  0  0  0
  9  8  1  0  0  0  0
  9 13  1  0  0  0  0
 10 11  1  0  0  0  0
 10  9  1  0  0  0  0
 11  9  1  0  0  0  0
 13 12  2  0  0  0  0
 14 13  1  0  0  0  0
 15 14  1  0  0  0  0
 15 23  1  1  0  0  0
 16 20  1  1  0  0  0
 16 15  1  0  0  0  0
 16 19  1  0  0  0  0
 17 19  2  0  0  0  0
 19 18  1  0  0  0  0
 21 22  1  0  0  0  0
 21 20  1  0  0  0  0
 24 23  1  0  0  0  0
 24 26  1  0  0  0  0
 25 26  2  0  0  0  0
 26 27  2  0  0  0  0
 28 29  1  0  0  0  0
 29 33  1  0  0  0  0
 30 31  1  0  0  0  0
 31 34  2  0  0  0  0
 32 34  1  0  0  0  0
 33 35  1  0  0  0  0
 33 30  2  0  0  0  0
 35 32  2  0  0  0  0
 36 38  1  6  0  0  0
 36 39  1  0  0  0  0
 38 37  1  0  0  0  0
 41 39  1  6  0  0  0
 41 42  1  0  0  0  0
 42 40  1  0  0  0  0
 42 46  2  0  0  0  0
 43 41  1  0  0  0  0
 43 45  1  0  0  0  0
 45 44  2  0  0  0  0
 45 40  1  0  0  0  0
 47 45  2  0  0  0  0
M  END
>  <MODEL>
8

>  <REMARK>
 VINA RESULT:      -6.1      5.445      9.019
  Name = 
  18 active torsions:
  status: ('A' for Active; 'I' for Inactive)
    1  A    between atoms: C_2  and  N_3
    2  A    between atoms: C_2  and  C_38
    3  A    between atoms: C_2  and  C_42
    4  A    between atoms: C_4  and  C_42
    5  A    between atoms: C_6  and  C_32
    6  A    between atoms: C_6  and  N_37
    7  A    between atoms: C_13  and  O_33
    8  A    between atoms: O_14  and  C_17
    9  A    between atoms: O_14  and  C_44
   10  A    between atoms: C_17  and  C_23
   11  A    between atoms: O_19  and  P_22
   12  A    between atoms: O_19  and  C_34
   13  A    between atoms: C_23  and  C_35
   14  A    between atoms: C_26  and  N_37
   15  A    between atoms: C_27  and  C_45
   16  A    between atoms: O_33  and  C_45
   17  A    between atoms: C_34  and  C_44
   18  A    between atoms: C_44  and  C_45
                            x       y       z     vdW  Elec       q    Type
                         _______ _______ _______ _____ _____    ______ ____

>  <TORSDO>
F 18

$$$$
=
 OpenBabel11062417023D

 47 51  0  0  1  0  0  0  0  0999 V2000
  184.5690  178.5260  141.9280 N   0  0  0  0  0  0  0  0  0  0  0  0
  182.2050  178.9440  144.3250 N   0  0  0  0  0  2  0  0  0  0  0  0
  184.0420  178.5280  143.1630 C   0  0  0  0  0  0  0  0  0  0  0  0
  183.2460  179.0110  145.1630 N   0  0  0  0  0  0  0  0  0  0  0  0
  182.7270  178.6300  143.1270 C   0  0  0  0  0  0  0  0  0  0  0  0
  184.3940  178.7660  144.4770 C   0  0  0  0  0  0  0  0  0  0  0  0
  182.2580  178.6710  141.8350 C   0  0  0  0  0  3  0  0  0  0  0  0
  183.4660  178.5790  141.1140 C   0  0  0  0  0  0  0  0  0  0  0  0
  183.5240  178.5500  139.6160 C   0  0  0  0  0  0  0  0  0  0  0  0
  184.1160  179.7470  138.9000 C   0  0  0  0  0  2  0  0  0  0  0  0
  182.6080  179.5610  138.9590 C   0  0  0  0  0  2  0  0  0  0  0  0
  183.0610  176.2060  139.4670 O   0  0  0  0  0  0  0  0  0  0  0  0
  183.5510  177.2320  138.9150 C   0  0  0  0  0  0  0  0  0  0  0  0
  184.1660  177.1450  137.6620 O   0  0  0  0  0  0  0  0  0  0  0  0
  183.9250  176.0650  136.7600 C   0  0  2  0  0  3  0  0  0  0  0  0
  185.2400  175.7110  136.0360 C   0  0  1  0  0  3  0  0  0  0  0  0
  186.6420  177.7920  135.9710 O   0  0  0  0  0  0  0  0  0  0  0  0
  187.2880  176.0230  137.2860 O   0  0  0  0  0  1  0  0  0  0  0  0
  186.4500  176.5060  136.4710 C   0  0  0  0  0  0  0  0  0  0  0  0
  185.4980  174.3230  135.9610 O   0  0  0  0  0  0  0  0  0  0  0  0
  184.7240  173.6620  136.9310 C   0  0  0  0  0  2  0  0  0  0  0  0
  185.5510  173.2650  137.9860 O   0  0  0  0  0  1  0  0  0  0  0  0
  182.8620  176.4870  135.7510 C   0  0  0  0  0  2  0  0  0  0  0  0
  181.6150  176.5700  136.3650 O   0  0  0  0  0  0  0  0  0  0  0  0
  181.0730  174.1500  137.6100 O   0  0  0  0  0  0  0  0  0  0  0  0
  181.0300  174.9850  136.3500 P   0  0  0  0  0  0  0  0  0  0  0  0
  180.4540  174.4040  135.0780 O   0  0  0  0  0  0  0  0  0  0  0  0
  185.6890  178.8470  145.0730 N   0  0  0  0  0  2  0  0  0  0  0  0
  185.9020  179.1140  146.4860 C   0  0  0  0  0  2  0  0  0  0  0  0
  187.5780  178.6020  148.2800 C   0  0  0  0  0  3  0  0  0  0  0  0
  188.7550  177.9860  148.7150 C   0  0  0  0  0  3  0  0  0  0  0  0
  189.1150  177.1160  146.4810 C   0  0  0  0  0  3  0  0  0  0  0  0
  187.1660  178.4710  146.9460 C   0  0  0  0  0  0  0  0  0  0  0  0
  189.5210  177.2410  147.8150 C   0  0  0  0  0  3  0  0  0  0  0  0
  187.9370  177.7310  146.0440 C   0  0  0  0  0  3  0  0  0  0  0  0
  185.9600  178.6230  141.4880 C   0  0  2  0  0  3  0  0  0  0  0  0
  187.0650  178.6390  139.3660 O   0  0  0  0  0  1  0  0  0  0  0  0
  186.1640  177.9190  140.1540 C   0  0  0  0  0  2  0  0  0  0  0  0
  186.9190  178.1360  142.5820 C   0  0  0  0  0  2  0  0  0  0  0  0
  189.9530  176.4900  143.5250 N   0  0  0  0  0  2  0  0  0  0  0  0
  188.1930  177.4660  142.0570 C   0  0  2  0  0  3  0  0  0  0  0  0
  188.6600  176.3570  142.9620 C   0  0  0  0  0  0  0  0  0  0  0  0
  189.3410  178.4750  141.8610 C   0  0  0  0  0  2  0  0  0  0  0  0
  191.9070  177.6200  142.1200 O   0  0  0  0  0  0  0  0  0  0  0  0
  190.6630  177.9250  142.9100 S   0  0  0  0  0  0  0  0  0  0  0  0
  187.9420  175.3500  143.2060 O   0  0  0  0  0  0  0  0  0  0  0  0
  190.9420  178.9140  144.0120 O   0  0  0  0  0  0  0  0  0  0  0  0
  1  3  1  0  0  0  0
  2  4  1  0  0  0  0
  3  6  1  0  0  0  0
  5  3  2  0  0  0  0
  5  2  1  0  0  0  0
  6 28  1  0  0  0  0
  6  4  2  0  0  0  0
  7  5  1  0  0  0  0
  8  7  2  0  0  0  0
  8  1  1  0  0  0  0
  9  8  1  0  0  0  0
 10 11  1  0  0  0  0
 10  9  1  0  0  0  0
 11  9  1  0  0  0  0
 13 12  2  0  0  0  0
 13  9  1  0  0  0  0
 14 13  1  0  0  0  0
 15 23  1  6  0  0  0
 15 14  1  0  0  0  0
 16 20  1  1  0  0  0
 16 19  1  0  0  0  0
 16 15  1  0  0  0  0
 17 19  2  0  0  0  0
 19 18  1  0  0  0  0
 20 21  1  0  0  0  0
 21 22  1  0  0  0  0
 23 24  1  0  0  0  0
 26 24  1  0  0  0  0
 26 25  2  0  0  0  0
 27 26  2  0  0  0  0
 28 29  1  0  0  0  0
 29 33  1  0  0  0  0
 30 31  1  0  0  0  0
 32 34  1  0  0  0  0
 33 30  2  0  0  0  0
 34 31  2  0  0  0  0
 35 32  2  0  0  0  0
 35 33  1  0  0  0  0
 36 38  1  6  0  0  0
 36  1  1  0  0  0  0
 36 39  1  0  0  0  0
 37 38  1  0  0  0  0
 41 39  1  1  0  0  0
 41 42  1  0  0  0  0
 42 46  2  0  0  0  0
 42 40  1  0  0  0  0
 43 41  1  0  0  0  0
 43 45  1  0  0  0  0
 44 45  2  0  0  0  0
 45 40  1  0  0  0  0
 45 47  2  0  0  0  0
M  END
>  <MODEL>
9

>  <REMARK>
 VINA RESULT:      -6.1      4.075      7.058
  Name = 
  18 active torsions:
  status: ('A' for Active; 'I' for Inactive)
    1  A    between atoms: C_2  and  N_3
    2  A    between atoms: C_2  and  C_38
    3  A    between atoms: C_2  and  C_42
    4  A    between atoms: C_4  and  C_42
    5  A    between atoms: C_6  and  C_32
    6  A    between atoms: C_6  and  N_37
    7  A    between atoms: C_13  and  O_33
    8  A    between atoms: O_14  and  C_17
    9  A    between atoms: O_14  and  C_44
   10  A    between atoms: C_17  and  C_23
   11  A    between atoms: O_19  and  P_22
   12  A    between atoms: O_19  and  C_34
   13  A    between atoms: C_23  and  C_35
   14  A    between atoms: C_26  and  N_37
   15  A    between atoms: C_27  and  C_45
   16  A    between atoms: O_33  and  C_45
   17  A    between atoms: C_34  and  C_44
   18  A    between atoms: C_44  and  C_45
                            x       y       z     vdW  Elec       q    Type
                         _______ _______ _______ _____ _____    ______ ____

>  <TORSDO>
F 18

$$$$
