=
 OpenBabel11062417383D

 57 63  0  0  1  0  0  0  0  0999 V2000
  190.5280  175.3530  137.8550 C   0  0  0  0  0  0  0  0  0  0  0  0
  192.3680  174.3720  137.0120 C   0  0  0  0  0  0  0  0  0  0  0  0
  192.8630  175.3650  137.7480 C   0  0  0  0  0  0  0  0  0  0  0  0
  191.8480  177.0260  139.2760 C   0  0  0  0  0  3  0  0  0  0  0  0
  194.4100  173.4190  136.1550 F   0  0  0  0  0  0  0  0  0  0  0  0
  190.9010  172.5300  135.5260 C   0  0  0  0  0  3  0  0  0  0  0  0
  188.6500  176.5030  139.1150 C   0  0  0  0  0  2  0  0  0  0  0  0
  190.7600  177.6130  140.1360 C   0  0  1  0  0  3  0  0  0  0  0  0
  194.3080  175.6940  137.9410 C   0  0  0  0  0  1  0  0  0  0  0  0
  189.1030  175.8360  137.8220 C   0  0  1  0  0  3  0  0  0  0  0  0
  191.7280  176.0520  138.3640 C   0  0  0  0  0  0  0  0  0  0  0  0
  193.0560  173.4340  136.2260 C   0  0  0  0  0  0  0  0  0  0  0  0
  189.0540  178.8250  139.0480 O   0  0  0  0  0  0  0  0  0  0  0  0
  190.9820  174.3770  137.0700 C   0  0  0  0  0  0  0  0  0  0  0  0
  189.4510  177.7310  139.4160 C   0  0  0  0  0  0  0  0  0  0  0  0
  190.2250  173.4730  136.3190 C   0  0  0  0  0  3  0  0  0  0  0  0
  192.3070  172.5090  135.4810 C   0  0  0  0  0  3  0  0  0  0  0  0
  187.8710  176.5320  135.7410 C   0  0  0  0  0  0  0  0  0  0  0  0
  188.8710  176.7080  136.6180 C   0  0  0  0  0  3  0  0  0  0  0  0
  187.7280  177.4880  134.6030 C   0  0  0  0  0  2  0  0  0  0  0  0
  186.7200  178.5750  134.9340 C   0  0  0  0  0  1  0  0  0  0  0  0
  186.8310  175.4560  135.8970 C   0  0  0  0  0  2  0  0  0  0  0  0
  185.9560  175.6580  137.1330 C   0  0  0  0  0  2  0  0  0  0  0  0
  183.4540  175.3660  137.0900 C   0  0  0  0  0  3  0  0  0  0  0  0
  182.3240  174.5420  137.0810 C   0  0  0  0  0  3  0  0  0  0  0  0
  182.4710  173.1460  137.1040 C   0  0  0  0  0  3  0  0  0  0  0  0
  183.8920  171.2260  137.1670 F   0  0  0  0  0  0  0  0  0  0  0  0
  184.7350  174.7960  137.1130 C   0  0  0  0  0  0  0  0  0  0  0  0
  184.8780  173.4010  137.1430 C   0  0  0  0  0  3  0  0  0  0  0  0
  183.7480  172.5760  137.1360 C   0  0  0  0  0  0  0  0  0  0  0  0
  190.6470  176.8480  141.4650 C   0  0  1  0  0  3  0  0  0  0  0  0
  191.9160  176.6730  142.0270 O   0  0  0  0  0  1  0  0  0  0  0  0
  189.7690  177.5850  142.4650 C   0  0  0  0  0  2  0  0  0  0  0  0
  186.3700  178.7610  142.7950 C   0  0  0  0  0  3  0  0  0  0  0  0
  188.3570  177.1530  142.2790 C   0  0  0  0  0  3  0  0  0  0  0  0
  187.3730  177.9610  142.5520 C   0  0  0  0  0  0  0  0  0  0  0  0
  180.6420  177.8450  139.5080 C   0  0  0  0  0  2  0  0  0  0  0  0
  183.9180  178.9520  142.6370 C   0  0  0  0  0  0  0  0  0  0  0  0
  185.1380  178.1960  140.6160 C   0  0  0  0  0  2  0  0  0  0  0  0
  181.4990  179.1030  139.6410 C   0  0  0  0  0  2  0  0  0  0  0  0
  178.9900  179.5650  141.5170 O   0  0  0  0  0  0  0  0  0  0  0  0
  182.6610  178.9840  141.8360 C   0  0  0  0  0  0  0  0  0  0  0  0
  179.2680  177.8940  143.2960 O   0  0  0  0  0  0  0  0  0  0  0  0
  180.2000  177.2430  140.8430 C   0  0  1  0  0  3  0  0  0  0  0  0
  185.1020  178.6810  142.0420 C   0  0  0  0  0  0  0  0  0  0  0  0
  182.7210  178.8790  140.4900 C   0  0  0  0  0  0  0  0  0  0  0  0
  183.9900  178.6530  139.8490 N   0  0  0  0  0  0  0  0  0  0  0  0
  179.8970  178.5060  142.0780 S   0  0  0  0  0  0  0  0  0  0  0  0
  181.4170  179.2140  142.5240 N   0  0  0  0  0  2  0  0  0  0  0  0
  183.9040  180.6490  144.4850 O   0  0  0  0  0  1  0  0  0  0  0  0
  182.9020  178.5880  144.8320 O   0  0  0  0  0  0  0  0  0  0  0  0
  183.8630  179.3090  144.1040 C   0  0  1  0  0  0  0  0  0  0  0  0
  184.2540  178.3170  145.1240 C   0  0  0  0  0  2  0  0  0  0  0  0
  178.9560  175.8880  139.3170 O   0  0  0  0  0  1  0  0  0  0  0  0
  178.9640  176.3880  140.6170 C   0  0  0  0  0  2  0  0  0  0  0  0
  184.1470  178.7490  138.4040 C   0  0  0  0  0  2  0  0  0  0  0  0
  185.5030  178.7190  138.0690 O   0  0  0  0  0  1  0  0  0  0  0  0
  1 11  1  0  0  0  0
  2 14  1  0  0  0  0
  2  3  2  0  0  0  0
  3  9  1  0  0  0  0
  3 11  1  0  0  0  0
  4  8  1  0  0  0  0
  5 12  1  0  0  0  0
  6 16  2  0  0  0  0
  7 15  1  0  0  0  0
  8 31  1  1  0  0  0
 10 19  1  6  0  0  0
 10  1  1  0  0  0  0
 10  7  1  0  0  0  0
 11  4  2  0  0  0  0
 12  2  1  0  0  0  0
 13 15  2  0  0  0  0
 14  1  2  0  0  0  0
 15  8  1  0  0  0  0
 16 14  1  0  0  0  0
 17  6  1  0  0  0  0
 17 12  2  0  0  0  0
 18 22  1  0  0  0  0
 18 19  2  0  0  0  0
 20 21  1  0  0  0  0
 20 18  1  0  0  0  0
 22 23  1  0  0  0  0
 24 28  1  0  0  0  0
 25 24  2  0  0  0  0
 25 26  1  0  0  0  0
 26 30  2  0  0  0  0
 28 23  1  0  0  0  0
 28 29  2  0  0  0  0
 30 29  1  0  0  0  0
 30 27  1  0  0  0  0
 31 32  1  1  0  0  0
 31 33  1  0  0  0  0
 35 33  1  0  0  0  0
 35 36  2  0  0  0  0
 36 34  2  0  0  0  0
 37 40  1  0  0  0  0
 37 44  1  0  0  0  0
 38 52  1  0  0  0  0
 39 45  1  0  0  0  0
 40 46  1  0  0  0  0
 41 48  2  0  0  0  0
 42 49  1  0  0  0  0
 42 38  1  0  0  0  0
 44 55  1  6  0  0  0
 44 48  1  0  0  0  0
 45 38  2  0  0  0  0
 45 34  1  0  0  0  0
 46 42  2  0  0  0  0
 47 46  1  0  0  0  0
 47 39  1  0  0  0  0
 48 49  1  0  0  0  0
 48 43  2  0  0  0  0
 51 53  1  0  0  0  0
 52 50  1  1  0  0  0
 52 51  1  0  0  0  0
 52 53  1  0  0  0  0
 54 55  1  0  0  0  0
 56 47  1  0  0  0  0
 57 56  1  0  0  0  0
M  END
>  <MODEL>
1

>  <REMARK>
 VINA RESULT:      -6.9      0.000      0.000
  Name = 
  12 active torsions:
  status: ('A' for Active; 'I' for Inactive)
    1  A    between atoms: C_1  and  C_6
    2  A    between atoms: C_1  and  C_45
    3  A    between atoms: C_5  and  C_35
    4  A    between atoms: C_6  and  C_13
    5  A    between atoms: C_13  and  C_41
    6  A    between atoms: C_15  and  C_27
    7  A    between atoms: C_15  and  C_57
    8  A    between atoms: C_16  and  C_32
    9  A    between atoms: C_17  and  N_39
   10  A    between atoms: C_25  and  C_30
   11  A    between atoms: C_33  and  C_40
   12  A    between atoms: C_49  and  C_57
                            x       y       z     vdW  Elec       q    Type
                         _______ _______ _______ _____ _____    ______ ____

>  <TORSDO>
F 12

$$$$
=
 OpenBabel11062417383D

 57 63  0  0  1  0  0  0  0  0999 V2000
  185.3370  174.6110  136.4710 C   0  0  0  0  0  0  0  0  0  0  0  0
  185.0150  172.4180  136.0900 C   0  0  0  0  0  0  0  0  0  0  0  0
  186.1230  172.6860  135.4030 C   0  0  0  0  0  0  0  0  0  0  0  0
  187.5470  174.6990  135.1810 C   0  0  0  0  0  2  0  0  0  0  0  0
  184.7640  170.0720  135.5920 F   0  0  0  0  0  0  0  0  0  0  0  0
  182.6460  172.3480  137.5510 C   0  0  0  0  0  3  0  0  0  0  0  0
  186.0600  177.0020  136.9140 C   0  0  0  0  0  2  0  0  0  0  0  0
  188.0590  176.0640  135.5550 C   0  0  1  0  0  3  0  0  0  0  0  0
  186.9280  171.7180  134.5970 C   0  0  0  0  0  1  0  0  0  0  0  0
  184.9030  176.0350  136.6930 C   0  0  1  0  0  3  0  0  0  0  0  0
  186.4300  174.1010  135.6140 C   0  0  0  0  0  0  0  0  0  0  0  0
  184.3220  171.2010  136.1980 C   0  0  2  0  0  3  0  0  0  0  0  0
  186.7840  177.9250  134.8690 O   0  0  0  0  0  0  0  0  0  0  0  0
  184.5460  173.5660  136.7120 C   0  0  0  0  0  0  0  0  0  0  0  0
  186.9610  177.0710  135.7220 C   0  0  0  0  0  0  0  0  0  0  0  0
  183.3500  173.5570  137.4350 C   0  0  0  0  0  3  0  0  0  0  0  0
  183.1290  171.1770  136.9370 C   0  0  0  0  0  3  0  0  0  0  0  0
  182.7160  176.8720  135.7710 C   0  0  0  0  0  0  0  0  0  0  0  0
  183.9870  176.4830  135.5870 C   0  0  0  0  0  3  0  0  0  0  0  0
  181.9190  177.3280  134.5940 C   0  0  0  0  0  2  0  0  0  0  0  0
  181.6690  178.8250  134.6580 C   0  0  0  0  0  1  0  0  0  0  0  0
  182.0760  176.9460  137.1310 C   0  0  0  0  0  2  0  0  0  0  0  0
  180.8410  176.0520  137.2480 C   0  0  0  0  0  2  0  0  0  0  0  0
  180.1470  177.0570  139.4520 C   0  0  0  0  0  3  0  0  0  0  0  0
  179.7120  176.9120  140.7740 C   0  0  0  0  0  3  0  0  0  0  0  0
  179.5050  175.6310  141.3090 C   0  0  0  0  0  3  0  0  0  0  0  0
  179.5390  173.2560  141.0430 F   0  0  0  0  0  0  0  0  0  0  0  0
  180.3670  175.9200  138.6600 C   0  0  0  0  0  0  0  0  0  0  0  0
  180.1650  174.6430  139.2010 C   0  0  0  0  0  3  0  0  0  0  0  0
  179.7320  174.4960  140.5230 C   0  0  0  0  0  0  0  0  0  0  0  0
  188.9860  175.9790  136.7800 C   0  0  1  0  0  3  0  0  0  0  0  0
  189.8220  174.8630  136.6710 O   0  0  0  0  0  1  0  0  0  0  0  0
  189.8490  177.2230  136.9180 C   0  0  0  0  0  2  0  0  0  0  0  0
  188.5390  178.5170  140.0250 C   0  0  0  0  0  3  0  0  0  0  0  0
  190.2040  177.4090  138.3510 C   0  0  0  0  0  3  0  0  0  0  0  0
  189.3690  177.9750  139.1750 C   0  0  0  0  0  0  0  0  0  0  0  0
  188.6360  177.3050  146.5810 C   0  0  0  0  0  2  0  0  0  0  0  0
  187.3880  178.2580  142.1890 C   0  0  0  0  0  0  0  0  0  0  0  0
  189.8000  177.6920  142.1020 C   0  0  0  0  0  2  0  0  0  0  0  0
  188.3010  176.3680  145.4210 C   0  0  0  0  0  2  0  0  0  0  0  0
  185.5320  177.0830  146.7810 O   0  0  0  0  0  0  0  0  0  0  0  0
  187.3470  177.7570  143.5930 C   0  0  0  0  0  0  0  0  0  0  0  0
  185.2520  179.4800  146.3270 O   0  0  0  0  0  0  0  0  0  0  0  0
  187.7820  178.5740  146.6290 C   0  0  1  0  0  3  0  0  0  0  0  0
  188.5150  178.1340  141.4520 C   0  0  0  0  0  0  0  0  0  0  0  0
  188.3900  177.0530  144.0850 C   0  0  0  0  0  0  0  0  0  0  0  0
  189.5670  176.8670  143.2770 N   0  0  0  0  0  0  0  0  0  0  0  0
  186.1060  178.2730  146.0660 S   0  0  0  0  0  0  0  0  0  0  0  0
  186.1460  177.9690  144.3590 N   0  0  0  0  0  2  0  0  0  0  0  0
  185.5860  180.0010  142.0960 O   0  0  0  0  0  1  0  0  0  0  0  0
  186.1320  178.8320  140.1700 O   0  0  0  0  0  0  0  0  0  0  0  0
  186.1310  178.8290  141.5750 C   0  0  1  0  0  0  0  0  0  0  0  0
  185.2220  177.9600  140.8030 C   0  0  0  0  0  2  0  0  0  0  0  0
  188.5360  178.2960  148.8800 O   0  0  0  0  0  1  0  0  0  0  0  0
  187.7960  179.1290  148.0440 C   0  0  0  0  0  2  0  0  0  0  0  0
  190.6240  175.9420  143.6640 C   0  0  0  0  0  2  0  0  0  0  0  0
  191.7980  176.6490  143.9400 O   0  0  0  0  0  1  0  0  0  0  0  0
  1 10  1  0  0  0  0
  1 14  1  0  0  0  0
  2 12  1  0  0  0  0
  2 14  1  0  0  0  0
  3 11  1  0  0  0  0
  3  2  2  0  0  0  0
  4  8  1  0  0  0  0
  4 11  1  0  0  0  0
  8 15  1  0  0  0  0
  8 31  1  1  0  0  0
  9  3  1  0  0  0  0
 10 19  1  6  0  0  0
 10  7  1  0  0  0  0
 11  1  2  0  0  0  0
 12  5  1  6  0  0  0
 12 17  1  0  0  0  0
 13 15  2  0  0  0  0
 14 16  2  0  0  0  0
 15  7  1  0  0  0  0
 16  6  1  0  0  0  0
 17  6  2  0  0  0  0
 18 22  1  0  0  0  0
 19 18  2  0  0  0  0
 20 21  1  0  0  0  0
 20 18  1  0  0  0  0
 22 23  1  0  0  0  0
 23 28  1  0  0  0  0
 24 25  1  0  0  0  0
 25 26  2  0  0  0  0
 28 29  1  0  0  0  0
 28 24  2  0  0  0  0
 29 30  2  0  0  0  0
 30 27  1  0  0  0  0
 30 26  1  0  0  0  0
 31 32  1  6  0  0  0
 31 33  1  0  0  0  0
 33 35  1  0  0  0  0
 34 45  1  0  0  0  0
 35 36  2  0  0  0  0
 36 34  2  0  0  0  0
 37 44  1  0  0  0  0
 38 42  1  0  0  0  0
 39 47  1  0  0  0  0
 40 37  1  0  0  0  0
 42 46  2  0  0  0  0
 42 49  1  0  0  0  0
 44 55  1  1  0  0  0
 45 39  1  0  0  0  0
 45 38  2  0  0  0  0
 46 40  1  0  0  0  0
 47 56  1  0  0  0  0
 47 46  1  0  0  0  0
 48 43  2  0  0  0  0
 48 44  1  0  0  0  0
 48 41  2  0  0  0  0
 49 48  1  0  0  0  0
 51 53  1  0  0  0  0
 51 52  1  0  0  0  0
 52 50  1  1  0  0  0
 52 38  1  0  0  0  0
 53 52  1  0  0  0  0
 55 54  1  0  0  0  0
 56 57  1  0  0  0  0
M  END
>  <MODEL>
2

>  <REMARK>
 VINA RESULT:      -6.8      3.322      6.728
  Name = 
  12 active torsions:
  status: ('A' for Active; 'I' for Inactive)
    1  A    between atoms: C_1  and  C_6
    2  A    between atoms: C_1  and  C_45
    3  A    between atoms: C_5  and  C_35
    4  A    between atoms: C_6  and  C_13
    5  A    between atoms: C_13  and  C_41
    6  A    between atoms: C_15  and  C_27
    7  A    between atoms: C_15  and  C_57
    8  A    between atoms: C_16  and  C_32
    9  A    between atoms: C_17  and  N_39
   10  A    between atoms: C_25  and  C_30
   11  A    between atoms: C_33  and  C_40
   12  A    between atoms: C_49  and  C_57
                            x       y       z     vdW  Elec       q    Type
                         _______ _______ _______ _____ _____    ______ ____

>  <TORSDO>
F 12

$$$$
=
 OpenBabel11062417383D

 57 63  0  0  1  0  0  0  0  0999 V2000
  190.1700  177.2950  144.9580 C   0  0  0  0  0  0  0  0  0  0  0  0
  191.6030  176.2260  146.3240 C   0  0  0  0  0  0  0  0  0  0  0  0
  191.6210  175.4810  145.2210 C   0  0  0  0  0  0  0  0  0  0  0  0
  190.5930  175.7220  142.9820 C   0  0  0  0  0  2  0  0  0  0  0  0
  193.1420  174.9830  147.7020 F   0  0  0  0  0  0  0  0  0  0  0  0
  191.1630  177.9920  148.4310 C   0  0  0  0  0  3  0  0  0  0  0  0
  188.7900  178.4140  143.1470 C   0  0  0  0  0  2  0  0  0  0  0  0
  189.9000  176.4530  141.8630 C   0  0  1  0  0  3  0  0  0  0  0  0
  192.4300  174.2450  144.9950 C   0  0  0  0  0  1  0  0  0  0  0  0
  188.9350  178.0890  144.6290 C   0  0  1  0  0  3  0  0  0  0  0  0
  190.7280  176.1200  144.2540 C   0  0  0  0  0  0  0  0  0  0  0  0
  192.2910  176.0250  147.5310 C   0  0  0  0  0  0  0  0  0  0  0  0
  187.5650  176.7340  142.0360 O   0  0  0  0  0  0  0  0  0  0  0  0
  190.7320  177.2940  146.1670 C   0  0  2  0  0  3  0  0  0  0  0  0
  188.6670  177.1750  142.3170 C   0  0  0  0  0  0  0  0  0  0  0  0
  190.4820  178.1830  147.2170 C   0  0  0  0  0  3  0  0  0  0  0  0
  192.0620  176.9210  148.5870 C   0  0  0  0  0  3  0  0  0  0  0  0
  186.4910  177.9680  145.2160 C   0  0  0  0  0  0  0  0  0  0  0  0
  187.7120  177.4140  145.1880 C   0  0  0  0  0  3  0  0  0  0  0  0
  185.3490  177.1810  145.7680 C   0  0  0  0  0  2  0  0  0  0  0  0
  184.7670  177.8600  146.9950 C   0  0  0  0  0  1  0  0  0  0  0  0
  186.2000  179.3280  144.6410 C   0  0  0  0  0  2  0  0  0  0  0  0
  184.7470  179.4780  144.1910 C   0  0  0  0  0  2  0  0  0  0  0  0
  185.5740  179.3060  141.8170 C   0  0  0  0  0  3  0  0  0  0  0  0
  185.3690  178.9530  140.4790 C   0  0  0  0  0  3  0  0  0  0  0  0
  184.1430  178.4020  140.0760 C   0  0  0  0  0  3  0  0  0  0  0  0
  181.9320  177.6780  140.6210 F   0  0  0  0  0  0  0  0  0  0  0  0
  184.5540  179.0990  142.7580 C   0  0  0  0  0  0  0  0  0  0  0  0
  183.3280  178.5550  142.3500 C   0  0  0  0  0  3  0  0  0  0  0  0
  183.1220  178.2040  141.0120 C   0  0  0  0  0  0  0  0  0  0  0  0
  190.8880  177.3640  141.1160 C   0  0  1  0  0  3  0  0  0  0  0  0
  192.1770  177.2000  141.6350 O   0  0  0  0  0  1  0  0  0  0  0  0
  190.9200  177.0560  139.6270 C   0  0  0  0  0  2  0  0  0  0  0  0
  188.7140  175.8450  137.0370 C   0  0  0  0  0  3  0  0  0  0  0  0
  189.5570  177.2520  139.0640 C   0  0  0  0  0  3  0  0  0  0  0  0
  189.1510  176.5520  138.0430 C   0  0  0  0  0  0  0  0  0  0  0  0
  182.2070  174.3980  136.8940 C   0  0  0  0  0  2  0  0  0  0  0  0
  186.3890  176.4110  136.4430 C   0  0  0  0  0  0  0  0  0  0  0  0
  186.8240  174.1330  137.3190 C   0  0  0  0  0  2  0  0  0  0  0  0
  183.2620  174.2550  135.7970 C   0  0  0  0  0  2  0  0  0  0  0  0
  181.5220  176.7770  134.9980 O   0  0  0  0  0  0  0  0  0  0  0  0
  184.9770  176.0140  136.1800 C   0  0  0  0  0  0  0  0  0  0  0  0
  182.0250  178.4210  136.7520 O   0  0  0  0  0  0  0  0  0  0  0  0
  182.0800  175.8130  137.4610 C   0  0  1  0  0  3  0  0  0  0  0  0
  187.2860  175.4990  136.8830 C   0  0  0  0  0  0  0  0  0  0  0  0
  184.6230  174.7110  136.2470 C   0  0  0  0  0  0  0  0  0  0  0  0
  185.5940  173.7300  136.6540 N   0  0  0  0  0  0  0  0  0  0  0  0
  182.3650  177.0630  136.2090 S   0  0  0  0  0  0  0  0  0  0  0  0
  184.0440  177.0330  135.7740 N   0  0  0  0  0  2  0  0  0  0  0  0
  186.7920  178.7870  137.1390 O   0  0  0  0  0  1  0  0  0  0  0  0
  188.0030  177.9040  135.3710 O   0  0  0  0  0  0  0  0  0  0  0  0
  186.8250  177.8240  136.1330 C   0  0  1  0  0  0  0  0  0  0  0  0
  186.8110  178.3160  134.7420 C   0  0  0  0  0  2  0  0  0  0  0  0
  180.4300  174.8850  138.9210 O   0  0  0  0  0  1  0  0  0  0  0  0
  180.7080  175.9720  138.0960 C   0  0  0  0  0  2  0  0  0  0  0  0
  185.3360  172.3010  136.5360 C   0  0  0  0  0  2  0  0  0  0  0  0
  186.3940  171.6790  135.8680 O   0  0  0  0  0  1  0  0  0  0  0  0
  1 14  1  0  0  0  0
  2 12  1  0  0  0  0
  3  2  2  0  0  0  0
  4 11  1  0  0  0  0
  6 17  1  0  0  0  0
  7 10  1  0  0  0  0
  8 31  1  1  0  0  0
  8 15  1  0  0  0  0
  8  4  1  0  0  0  0
  9  3  1  0  0  0  0
 10  1  1  0  0  0  0
 10 19  1  6  0  0  0
 11  1  2  0  0  0  0
 11  3  1  0  0  0  0
 12  5  1  0  0  0  0
 12 17  2  0  0  0  0
 13 15  2  0  0  0  0
 14  2  1  0  0  0  0
 14 16  1  1  0  0  0
 15  7  1  0  0  0  0
 16  6  2  0  0  0  0
 18 20  1  0  0  0  0
 19 18  2  0  0  0  0
 20 21  1  0  0  0  0
 22 18  1  0  0  0  0
 23 22  1  0  0  0  0
 24 28  1  0  0  0  0
 25 24  2  0  0  0  0
 26 25  1  0  0  0  0
 26 30  2  0  0  0  0
 27 30  1  0  0  0  0
 28 23  1  0  0  0  0
 29 28  2  0  0  0  0
 30 29  1  0  0  0  0
 31 32  1  1  0  0  0
 33 31  1  0  0  0  0
 34 36  2  0  0  0  0
 35 33  1  0  0  0  0
 36 35  2  0  0  0  0
 37 44  1  0  0  0  0
 38 45  2  0  0  0  0
 40 46  1  0  0  0  0
 40 37  1  0  0  0  0
 41 48  2  0  0  0  0
 42 46  2  0  0  0  0
 42 38  1  0  0  0  0
 44 55  1  6  0  0  0
 45 34  1  0  0  0  0
 45 39  1  0  0  0  0
 46 47  1  0  0  0  0
 47 39  1  0  0  0  0
 48 43  2  0  0  0  0
 48 44  1  0  0  0  0
 49 42  1  0  0  0  0
 49 48  1  0  0  0  0
 51 52  1  0  0  0  0
 52 38  1  0  0  0  0
 52 50  1  1  0  0  0
 53 51  1  0  0  0  0
 53 52  1  0  0  0  0
 55 54  1  0  0  0  0
 56 47  1  0  0  0  0
 57 56  1  0  0  0  0
M  END
>  <MODEL>
3

>  <REMARK>
 VINA RESULT:      -6.7      3.541      7.673
  Name = 
  12 active torsions:
  status: ('A' for Active; 'I' for Inactive)
    1  A    between atoms: C_1  and  C_6
    2  A    between atoms: C_1  and  C_45
    3  A    between atoms: C_5  and  C_35
    4  A    between atoms: C_6  and  C_13
    5  A    between atoms: C_13  and  C_41
    6  A    between atoms: C_15  and  C_27
    7  A    between atoms: C_15  and  C_57
    8  A    between atoms: C_16  and  C_32
    9  A    between atoms: C_17  and  N_39
   10  A    between atoms: C_25  and  C_30
   11  A    between atoms: C_33  and  C_40
   12  A    between atoms: C_49  and  C_57
                            x       y       z     vdW  Elec       q    Type
                         _______ _______ _______ _____ _____    ______ ____

>  <TORSDO>
F 12

$$$$
=
 OpenBabel11062417383D

 57 63  0  0  1  0  0  0  0  0999 V2000
  184.2790  175.4170  136.4970 C   0  0  0  0  0  0  0  0  0  0  0  0
  183.5620  173.3060  136.2030 C   0  0  0  0  0  0  0  0  0  0  0  0
  184.6800  173.3500  135.4820 C   0  0  0  0  0  0  0  0  0  0  0  0
  186.4320  175.0680  135.1550 C   0  0  0  0  0  2  0  0  0  0  0  0
  182.8850  171.0280  135.7960 F   0  0  0  0  0  0  0  0  0  0  0  0
  181.2610  173.7060  137.7180 C   0  0  0  0  0  3  0  0  0  0  0  0
  185.4270  177.6540  136.8370 C   0  0  0  0  0  2  0  0  0  0  0  0
  187.1890  176.3310  135.4680 C   0  0  1  0  0  3  0  0  0  0  0  0
  185.2770  172.2290  134.6940 C   0  0  0  0  0  1  0  0  0  0  0  0
  184.1110  176.9020  136.6770 C   0  0  1  0  0  3  0  0  0  0  0  0
  185.2390  174.6940  135.6350 C   0  0  0  0  0  0  0  0  0  0  0  0
  182.6670  172.2370  136.3710 C   0  0  2  0  0  3  0  0  0  0  0  0
  186.2460  178.3680  134.7440 O   0  0  0  0  0  0  0  0  0  0  0  0
  183.3230  174.5380  136.7930 C   0  0  0  0  0  0  0  0  0  0  0  0
  186.2930  177.5230  135.6230 C   0  0  0  0  0  0  0  0  0  0  0  0
  182.1660  174.7660  137.5430 C   0  0  0  0  0  3  0  0  0  0  0  0
  181.5110  172.4480  137.1370 C   0  0  0  0  0  3  0  0  0  0  0  0
  182.0450  178.0120  135.7650 C   0  0  0  0  0  0  0  0  0  0  0  0
  183.2580  177.4720  135.5770 C   0  0  0  0  0  3  0  0  0  0  0  0
  181.3110  178.5750  134.5940 C   0  0  0  0  0  2  0  0  0  0  0  0
  179.8240  178.6810  134.8880 C   0  0  0  0  0  1  0  0  0  0  0  0
  181.4180  178.1490  137.1260 C   0  0  0  0  0  2  0  0  0  0  0  0
  181.6800  179.5160  137.7590 C   0  0  0  0  0  2  0  0  0  0  0  0
  180.0370  180.3090  139.4970 C   0  0  0  0  0  3  0  0  0  0  0  0
  179.6080  180.3740  140.8280 C   0  0  0  0  0  3  0  0  0  0  0  0
  180.3420  179.7300  141.8350 C   0  0  0  0  0  3  0  0  0  0  0  0
  182.2200  178.4040  142.4900 F   0  0  0  0  0  0  0  0  0  0  0  0
  181.1980  179.5900  139.1720 C   0  0  0  0  0  0  0  0  0  0  0  0
  181.9320  178.9540  140.1830 C   0  0  0  0  0  3  0  0  0  0  0  0
  181.5040  179.0200  141.5130 C   0  0  0  0  0  0  0  0  0  0  0  0
  188.1200  176.1210  136.6740 C   0  0  1  0  0  3  0  0  0  0  0  0
  188.7290  174.8640  136.5960 O   0  0  0  0  0  1  0  0  0  0  0  0
  189.2060  177.1850  136.7380 C   0  0  0  0  0  2  0  0  0  0  0  0
  188.3880  178.6110  139.9530 C   0  0  0  0  0  3  0  0  0  0  0  0
  189.7050  177.2830  138.1360 C   0  0  0  0  0  3  0  0  0  0  0  0
  189.0450  177.9600  139.0320 C   0  0  0  0  0  0  0  0  0  0  0  0
  188.7440  177.3170  146.4840 C   0  0  0  0  0  2  0  0  0  0  0  0
  187.3210  178.3010  142.1530 C   0  0  0  0  0  0  0  0  0  0  0  0
  189.7390  177.7850  141.9720 C   0  0  0  0  0  2  0  0  0  0  0  0
  188.3860  176.3880  145.3240 C   0  0  0  0  0  2  0  0  0  0  0  0
  185.6540  177.0290  146.7920 O   0  0  0  0  0  0  0  0  0  0  0  0
  187.3400  177.7810  143.5500 C   0  0  0  0  0  0  0  0  0  0  0  0
  185.3110  179.4260  146.3810 O   0  0  0  0  0  0  0  0  0  0  0  0
  187.8670  178.5670  146.5800 C   0  0  1  0  0  3  0  0  0  0  0  0
  188.4230  178.2090  141.3740 C   0  0  0  0  0  0  0  0  0  0  0  0
  188.4140  177.0920  143.9950 C   0  0  0  0  0  0  0  0  0  0  0  0
  189.5640  176.9400  143.1430 N   0  0  0  0  0  0  0  0  0  0  0  0
  186.1790  178.2400  146.0730 S   0  0  0  0  0  0  0  0  0  0  0  0
  186.1630  177.9580  144.3620 N   0  0  0  0  0  2  0  0  0  0  0  0
  185.4700  179.9950  142.1640 O   0  0  0  0  0  1  0  0  0  0  0  0
  185.9920  178.8990  140.1880 O   0  0  0  0  0  0  0  0  0  0  0  0
  186.0310  178.8540  141.5920 C   0  0  1  0  0  0  0  0  0  0  0  0
  185.1250  177.9840  140.8200 C   0  0  0  0  0  2  0  0  0  0  0  0
  189.0660  178.6440  148.6460 O   0  0  0  0  0  1  0  0  0  0  0  0
  187.9210  179.1040  148.0010 C   0  0  0  0  0  2  0  0  0  0  0  0
  190.6530  176.0320  143.4810 C   0  0  0  0  0  2  0  0  0  0  0  0
  190.4220  174.7780  142.9090 O   0  0  0  0  0  1  0  0  0  0  0  0
  1 10  1  0  0  0  0
  1 14  1  0  0  0  0
  2 12  1  0  0  0  0
  2 14  1  0  0  0  0
  3 11  1  0  0  0  0
  3  2  2  0  0  0  0
  4  8  1  0  0  0  0
  4 11  1  0  0  0  0
  8 15  1  0  0  0  0
  8 31  1  1  0  0  0
  9  3  1  0  0  0  0
 10 19  1  6  0  0  0
 10  7  1  0  0  0  0
 11  1  2  0  0  0  0
 12  5  1  6  0  0  0
 12 17  1  0  0  0  0
 13 15  2  0  0  0  0
 14 16  2  0  0  0  0
 15  7  1  0  0  0  0
 16  6  1  0  0  0  0
 17  6  2  0  0  0  0
 18 22  1  0  0  0  0
 19 18  2  0  0  0  0
 20 21  1  0  0  0  0
 20 18  1  0  0  0  0
 22 23  1  0  0  0  0
 23 28  1  0  0  0  0
 24 25  1  0  0  0  0
 25 26  2  0  0  0  0
 28 24  2  0  0  0  0
 28 29  1  0  0  0  0
 29 30  2  0  0  0  0
 30 26  1  0  0  0  0
 30 27  1  0  0  0  0
 31 32  1  6  0  0  0
 31 33  1  0  0  0  0
 33 35  1  0  0  0  0
 34 45  1  0  0  0  0
 35 36  2  0  0  0  0
 36 34  2  0  0  0  0
 37 44  1  0  0  0  0
 38 42  1  0  0  0  0
 39 47  1  0  0  0  0
 40 37  1  0  0  0  0
 42 46  2  0  0  0  0
 42 49  1  0  0  0  0
 44 55  1  1  0  0  0
 45 39  1  0  0  0  0
 45 38  2  0  0  0  0
 46 40  1  0  0  0  0
 47 56  1  0  0  0  0
 47 46  1  0  0  0  0
 48 43  2  0  0  0  0
 48 44  1  0  0  0  0
 48 41  2  0  0  0  0
 49 48  1  0  0  0  0
 51 53  1  0  0  0  0
 51 52  1  0  0  0  0
 52 38  1  0  0  0  0
 52 50  1  1  0  0  0
 53 52  1  0  0  0  0
 55 54  1  0  0  0  0
 57 56  1  0  0  0  0
M  END
>  <MODEL>
4

>  <REMARK>
 VINA RESULT:      -6.6      3.514      7.415
  Name = 
  12 active torsions:
  status: ('A' for Active; 'I' for Inactive)
    1  A    between atoms: C_1  and  C_6
    2  A    between atoms: C_1  and  C_45
    3  A    between atoms: C_5  and  C_35
    4  A    between atoms: C_6  and  C_13
    5  A    between atoms: C_13  and  C_41
    6  A    between atoms: C_15  and  C_27
    7  A    between atoms: C_15  and  C_57
    8  A    between atoms: C_16  and  C_32
    9  A    between atoms: C_17  and  N_39
   10  A    between atoms: C_25  and  C_30
   11  A    between atoms: C_33  and  C_40
   12  A    between atoms: C_49  and  C_57
                            x       y       z     vdW  Elec       q    Type
                         _______ _______ _______ _____ _____    ______ ____

>  <TORSDO>
F 12

$$$$
=
 OpenBabel11062417383D

 57 63  0  0  1  0  0  0  0  0999 V2000
  190.7290  177.3460  140.9600 C   0  0  0  0  0  0  0  0  0  0  0  0
  191.2330  176.7200  138.8590 C   0  0  0  0  0  0  0  0  0  0  0  0
  189.9240  176.4920  138.9380 C   0  0  0  0  0  0  0  0  0  0  0  0
  188.2170  176.9340  140.6750 C   0  0  0  0  0  3  0  0  0  0  0  0
  191.6550  175.9990  136.5980 F   0  0  0  0  0  0  0  0  0  0  0  0
  193.9500  177.2360  139.1870 C   0  0  0  0  0  3  0  0  0  0  0  0
  189.8470  178.1870  143.1850 C   0  0  0  0  0  2  0  0  0  0  0  0
  187.6660  177.5630  141.9280 C   0  0  1  0  0  3  0  0  0  0  0  0
  189.0470  175.9570  137.8530 C   0  0  0  0  0  1  0  0  0  0  0  0
  190.9830  177.5010  142.4350 C   0  0  1  0  0  3  0  0  0  0  0  0
  189.4950  176.8990  140.2770 C   0  0  0  0  0  0  0  0  0  0  0  0
  192.1020  176.4880  137.7810 C   0  0  0  0  0  0  0  0  0  0  0  0
  188.2950  176.6040  143.9880 O   0  0  0  0  0  0  0  0  0  0  0  0
  191.7070  177.2150  140.0650 C   0  0  0  0  0  0  0  0  0  0  0  0
  188.5760  177.4010  143.1080 C   0  0  0  0  0  0  0  0  0  0  0  0
  193.0690  177.4650  140.2570 C   0  0  0  0  0  3  0  0  0  0  0  0
  193.4690  176.7520  137.9560 C   0  0  0  0  0  3  0  0  0  0  0  0
  191.6800  176.0070  144.3360 C   0  0  0  0  0  0  0  0  0  0  0  0
  191.3530  176.1770  143.0460 C   0  0  0  0  0  3  0  0  0  0  0  0
  191.9960  174.6340  144.8300 C   0  0  0  0  0  2  0  0  0  0  0  0
  191.3130  173.5820  143.9740 C   0  0  0  0  0  1  0  0  0  0  0  0
  191.6650  177.1330  145.3350 C   0  0  0  0  0  2  0  0  0  0  0  0
  191.3230  176.6600  146.7480 C   0  0  0  0  0  2  0  0  0  0  0  0
  190.0340  178.0600  148.3980 C   0  0  0  0  0  3  0  0  0  0  0  0
  188.8270  178.5970  148.8600 C   0  0  0  0  0  3  0  0  0  0  0  0
  187.6290  178.3200  148.1820 C   0  0  0  0  0  3  0  0  0  0  0  0
  186.4790  177.2310  146.3920 F   0  0  0  0  0  0  0  0  0  0  0  0
  190.0460  177.2520  147.2520 C   0  0  0  0  0  0  0  0  0  0  0  0
  188.8470  176.9720  146.5820 C   0  0  0  0  0  3  0  0  0  0  0  0
  187.6390  177.5060  147.0440 C   0  0  0  0  0  0  0  0  0  0  0  0
  187.2720  179.0270  141.6710 C   0  0  1  0  0  3  0  0  0  0  0  0
  187.3070  179.2990  140.3000 O   0  0  0  0  0  1  0  0  0  0  0  0
  185.8760  179.3320  142.1930 C   0  0  0  0  0  2  0  0  0  0  0  0
  183.9400  178.8910  139.1770 C   0  0  0  0  0  3  0  0  0  0  0  0
  184.9060  178.4050  141.5490 C   0  0  0  0  0  3  0  0  0  0  0  0
  184.4200  178.6650  140.3690 C   0  0  0  0  0  0  0  0  0  0  0  0
  182.4960  173.5820  135.4100 C   0  0  0  0  0  2  0  0  0  0  0  0
  182.3270  177.2630  138.2690 C   0  0  0  0  0  0  0  0  0  0  0  0
  184.6370  177.2070  137.3710 C   0  0  0  0  0  2  0  0  0  0  0  0
  182.3360  175.0700  135.1010 C   0  0  0  0  0  2  0  0  0  0  0  0
  179.4160  173.9890  135.6770 O   0  0  0  0  0  0  0  0  0  0  0  0
  181.9350  176.2410  137.2570 C   0  0  0  0  0  0  0  0  0  0  0  0
  179.4650  173.3970  138.0600 O   0  0  0  0  0  0  0  0  0  0  0  0
  181.7730  173.1240  136.6790 C   0  0  1  0  0  3  0  0  0  0  0  0
  183.5710  177.7940  138.2580 C   0  0  0  0  0  0  0  0  0  0  0  0
  182.7770  175.9450  136.2410 C   0  0  0  0  0  0  0  0  0  0  0  0
  184.0780  176.5580  136.1950 N   0  0  0  0  0  0  0  0  0  0  0  0
  180.2400  174.0170  136.9330 S   0  0  0  0  0  0  0  0  0  0  0  0
  180.6210  175.6580  137.3470 N   0  0  0  0  0  2  0  0  0  0  0  0
  181.2120  177.1750  140.5150 O   0  0  0  0  0  1  0  0  0  0  0  0
  181.1880  179.1580  139.3150 O   0  0  0  0  0  0  0  0  0  0  0  0
  181.2910  177.7580  139.2520 C   0  0  1  0  0  0  0  0  0  0  0  0
  180.0890  178.4640  138.7690 C   0  0  0  0  0  2  0  0  0  0  0  0
  182.7400  170.9380  136.6610 O   0  0  0  0  0  1  0  0  0  0  0  0
  181.5310  171.6260  136.5990 C   0  0  0  0  0  2  0  0  0  0  0  0
  184.9360  176.4480  135.0220 C   0  0  0  0  0  2  0  0  0  0  0  0
  186.1320  177.1360  135.2400 O   0  0  0  0  0  1  0  0  0  0  0  0
  1 10  1  0  0  0  0
  2  3  2  0  0  0  0
  2 14  1  0  0  0  0
  3 11  1  0  0  0  0
  4  8  1  0  0  0  0
  5 12  1  0  0  0  0
  6 16  2  0  0  0  0
  8 31  1  6  0  0  0
  8 15  1  0  0  0  0
  9  3  1  0  0  0  0
 10 19  1  1  0  0  0
 10  7  1  0  0  0  0
 11  4  2  0  0  0  0
 11  1  1  0  0  0  0
 12 17  2  0  0  0  0
 12  2  1  0  0  0  0
 14 16  1  0  0  0  0
 14  1  2  0  0  0  0
 15  7  1  0  0  0  0
 15 13  2  0  0  0  0
 17  6  1  0  0  0  0
 18 20  1  0  0  0  0
 18 22  1  0  0  0  0
 19 18  2  0  0  0  0
 21 20  1  0  0  0  0
 22 23  1  0  0  0  0
 23 28  1  0  0  0  0
 24 25  1  0  0  0  0
 26 25  2  0  0  0  0
 27 30  1  0  0  0  0
 28 24  2  0  0  0  0
 29 30  2  0  0  0  0
 29 28  1  0  0  0  0
 30 26  1  0  0  0  0
 31 32  1  6  0  0  0
 31 33  1  0  0  0  0
 34 36  2  0  0  0  0
 35 33  1  0  0  0  0
 36 35  2  0  0  0  0
 37 44  1  0  0  0  0
 38 52  1  0  0  0  0
 39 45  1  0  0  0  0
 40 37  1  0  0  0  0
 40 46  1  0  0  0  0
 41 48  2  0  0  0  0
 42 49  1  0  0  0  0
 42 38  1  0  0  0  0
 44 55  1  6  0  0  0
 44 48  1  0  0  0  0
 45 38  2  0  0  0  0
 45 34  1  0  0  0  0
 46 42  2  0  0  0  0
 47 46  1  0  0  0  0
 47 39  1  0  0  0  0
 48 49  1  0  0  0  0
 48 43  2  0  0  0  0
 52 51  1  0  0  0  0
 52 50  1  1  0  0  0
 53 52  1  0  0  0  0
 53 51  1  0  0  0  0
 55 54  1  0  0  0  0
 56 57  1  0  0  0  0
 56 47  1  0  0  0  0
M  END
>  <MODEL>
5

>  <REMARK>
 VINA RESULT:      -5.9      3.360      7.112
  Name = 
  12 active torsions:
  status: ('A' for Active; 'I' for Inactive)
    1  A    between atoms: C_1  and  C_6
    2  A    between atoms: C_1  and  C_45
    3  A    between atoms: C_5  and  C_35
    4  A    between atoms: C_6  and  C_13
    5  A    between atoms: C_13  and  C_41
    6  A    between atoms: C_15  and  C_27
    7  A    between atoms: C_15  and  C_57
    8  A    between atoms: C_16  and  C_32
    9  A    between atoms: C_17  and  N_39
   10  A    between atoms: C_25  and  C_30
   11  A    between atoms: C_33  and  C_40
   12  A    between atoms: C_49  and  C_57
                            x       y       z     vdW  Elec       q    Type
                         _______ _______ _______ _____ _____    ______ ____

>  <TORSDO>
F 12

$$$$
=
 OpenBabel11062417383D

 57 63  0  0  1  0  0  0  0  0999 V2000
  190.1450  177.3750  145.2520 C   0  0  0  0  0  0  0  0  0  0  0  0
  191.6090  176.2880  146.5690 C   0  0  0  0  0  0  0  0  0  0  0  0
  191.6200  175.5730  145.4470 C   0  0  0  0  0  0  0  0  0  0  0  0
  190.5590  175.8600  143.2290 C   0  0  0  0  0  2  0  0  0  0  0  0
  193.1810  175.0280  147.8930 F   0  0  0  0  0  0  0  0  0  0  0  0
  191.1770  177.9930  148.7280 C   0  0  0  0  0  3  0  0  0  0  0  0
  188.7270  178.5240  143.4900 C   0  0  0  0  0  2  0  0  0  0  0  0
  189.8420  176.6110  142.1400 C   0  0  1  0  0  3  0  0  0  0  0  0
  192.4400  174.3530  145.1780 C   0  0  0  0  0  1  0  0  0  0  0  0
  188.8960  178.1620  144.9610 C   0  0  1  0  0  3  0  0  0  0  0  0
  190.7070  176.2260  144.5090 C   0  0  0  0  0  0  0  0  0  0  0  0
  192.3160  176.0640  147.7620 C   0  0  0  0  0  0  0  0  0  0  0  0
  187.5060  176.8600  142.3510 O   0  0  0  0  0  0  0  0  0  0  0  0
  190.7230  177.3500  146.4520 C   0  0  2  0  0  3  0  0  0  0  0  0
  188.6070  177.3070  142.6290 C   0  0  0  0  0  0  0  0  0  0  0  0
  190.4780  178.2070  147.5290 C   0  0  0  0  0  3  0  0  0  0  0  0
  192.0910  176.9290  148.8440 C   0  0  0  0  0  3  0  0  0  0  0  0
  186.4480  177.9660  145.5090 C   0  0  0  0  0  0  0  0  0  0  0  0
  187.6890  177.4580  145.5180 C   0  0  0  0  0  3  0  0  0  0  0  0
  185.3260  177.1530  146.0630 C   0  0  0  0  0  2  0  0  0  0  0  0
  184.9220  177.6560  147.4380 C   0  0  0  0  0  1  0  0  0  0  0  0
  186.1180  179.2970  144.8880 C   0  0  0  0  0  2  0  0  0  0  0  0
  184.6320  179.4380  144.5560 C   0  0  0  0  0  2  0  0  0  0  0  0
  183.0790  178.6000  142.7590 C   0  0  0  0  0  3  0  0  0  0  0  0
  182.8230  178.2840  141.4200 C   0  0  0  0  0  3  0  0  0  0  0  0
  183.8230  178.4610  140.4520 C   0  0  0  0  0  3  0  0  0  0  0  0
  186.0500  179.1180  139.8870 F   0  0  0  0  0  0  0  0  0  0  0  0
  184.3340  179.1030  143.1300 C   0  0  0  0  0  0  0  0  0  0  0  0
  185.3330  179.2720  142.1610 C   0  0  0  0  0  3  0  0  0  0  0  0
  185.0790  178.9550  140.8220 C   0  0  0  0  0  0  0  0  0  0  0  0
  190.8090  177.5540  141.4040 C   0  0  1  0  0  3  0  0  0  0  0  0
  192.1110  177.3710  141.8800 O   0  0  0  0  0  1  0  0  0  0  0  0
  190.8000  177.3070  139.9030 C   0  0  0  0  0  2  0  0  0  0  0  0
  188.8360  176.4130  137.0070 C   0  0  0  0  0  3  0  0  0  0  0  0
  189.4750  176.7530  139.5120 C   0  0  0  0  0  3  0  0  0  0  0  0
  189.1620  176.5990  138.2570 C   0  0  0  0  0  0  0  0  0  0  0  0
  184.7100  171.3520  135.6550 C   0  0  0  0  0  2  0  0  0  0  0  0
  186.6160  175.5470  136.3760 C   0  0  0  0  0  0  0  0  0  0  0  0
  188.4860  173.9240  136.4880 C   0  0  0  0  0  2  0  0  0  0  0  0
  185.4710  172.2720  134.7010 C   0  0  0  0  0  2  0  0  0  0  0  0
  182.4520  173.2230  134.5940 O   0  0  0  0  0  0  0  0  0  0  0  0
  185.7420  174.4660  135.8380 C   0  0  0  0  0  0  0  0  0  0  0  0
  182.0380  174.1280  136.8390 O   0  0  0  0  0  0  0  0  0  0  0  0
  183.8010  172.0870  136.6430 C   0  0  1  0  0  3  0  0  0  0  0  0
  187.9330  175.3220  136.5860 C   0  0  0  0  0  0  0  0  0  0  0  0
  186.2920  173.3020  135.4270 C   0  0  0  0  0  0  0  0  0  0  0  0
  187.7050  173.0850  135.5930 N   0  0  0  0  0  0  0  0  0  0  0  0
  183.0780  173.5590  135.9180 S   0  0  0  0  0  0  0  0  0  0  0  0
  184.3350  174.7330  135.6910 N   0  0  0  0  0  2  0  0  0  0  0  0
  185.7210  177.3270  137.9020 O   0  0  0  0  0  1  0  0  0  0  0  0
  186.6610  177.9410  135.8740 O   0  0  0  0  0  0  0  0  0  0  0  0
  186.0280  176.9210  136.6050 C   0  0  1  0  0  0  0  0  0  0  0  0
  185.3370  177.6230  135.5070 C   0  0  0  0  0  2  0  0  0  0  0  0
  182.0610  170.5580  136.0540 O   0  0  0  0  0  1  0  0  0  0  0  0
  182.7270  171.1310  137.1340 C   0  0  0  0  0  2  0  0  0  0  0  0
  188.3840  171.9520  134.9770 C   0  0  0  0  0  2  0  0  0  0  0  0
  189.7680  172.1260  135.0550 O   0  0  0  0  0  1  0  0  0  0  0  0
  1 14  1  0  0  0  0
  2 12  1  0  0  0  0
  3  2  2  0  0  0  0
  4 11  1  0  0  0  0
  6 17  1  0  0  0  0
  7 10  1  0  0  0  0
  8 31  1  1  0  0  0
  8 15  1  0  0  0  0
  8  4  1  0  0  0  0
  9  3  1  0  0  0  0
 10  1  1  0  0  0  0
 10 19  1  6  0  0  0
 11  1  2  0  0  0  0
 11  3  1  0  0  0  0
 12  5  1  0  0  0  0
 12 17  2  0  0  0  0
 13 15  2  0  0  0  0
 14  2  1  0  0  0  0
 14 16  1  1  0  0  0
 15  7  1  0  0  0  0
 16  6  2  0  0  0  0
 18 19  2  0  0  0  0
 18 20  1  0  0  0  0
 20 21  1  0  0  0  0
 22 18  1  0  0  0  0
 23 22  1  0  0  0  0
 24 28  1  0  0  0  0
 25 24  2  0  0  0  0
 26 30  2  0  0  0  0
 26 25  1  0  0  0  0
 27 30  1  0  0  0  0
 28 23  1  0  0  0  0
 29 28  2  0  0  0  0
 30 29  1  0  0  0  0
 31 32  1  1  0  0  0
 33 31  1  0  0  0  0
 34 36  2  0  0  0  0
 35 33  1  0  0  0  0
 36 35  2  0  0  0  0
 37 44  1  0  0  0  0
 38 45  2  0  0  0  0
 38 52  1  0  0  0  0
 39 45  1  0  0  0  0
 40 46  1  0  0  0  0
 40 37  1  0  0  0  0
 41 48  2  0  0  0  0
 42 38  1  0  0  0  0
 44 55  1  6  0  0  0
 45 34  1  0  0  0  0
 46 47  1  0  0  0  0
 46 42  2  0  0  0  0
 47 39  1  0  0  0  0
 48 44  1  0  0  0  0
 48 43  2  0  0  0  0
 49 42  1  0  0  0  0
 49 48  1  0  0  0  0
 51 52  1  0  0  0  0
 52 50  1  1  0  0  0
 53 51  1  0  0  0  0
 53 52  1  0  0  0  0
 54 55  1  0  0  0  0
 56 57  1  0  0  0  0
 56 47  1  0  0  0  0
M  END
>  <MODEL>
6

>  <REMARK>
 VINA RESULT:      -5.7      4.013      8.284
  Name = 
  12 active torsions:
  status: ('A' for Active; 'I' for Inactive)
    1  A    between atoms: C_1  and  C_6
    2  A    between atoms: C_1  and  C_45
    3  A    between atoms: C_5  and  C_35
    4  A    between atoms: C_6  and  C_13
    5  A    between atoms: C_13  and  C_41
    6  A    between atoms: C_15  and  C_27
    7  A    between atoms: C_15  and  C_57
    8  A    between atoms: C_16  and  C_32
    9  A    between atoms: C_17  and  N_39
   10  A    between atoms: C_25  and  C_30
   11  A    between atoms: C_33  and  C_40
   12  A    between atoms: C_49  and  C_57
                            x       y       z     vdW  Elec       q    Type
                         _______ _______ _______ _____ _____    ______ ____

>  <TORSDO>
F 12

$$$$
=
 OpenBabel11062417383D

 57 63  0  0  1  0  0  0  0  0999 V2000
  189.8430  176.6500  144.0100 C   0  0  0  0  0  0  0  0  0  0  0  0
  190.8120  176.6540  146.0390 C   0  0  0  0  0  0  0  0  0  0  0  0
  189.9980  177.7050  146.0890 C   0  0  0  0  0  0  0  0  0  0  0  0
  188.3000  178.6240  144.5400 C   0  0  0  0  0  3  0  0  0  0  0  0
  191.7980  176.7740  148.2360 F   0  0  0  0  0  0  0  0  0  0  0  0
  192.4310  174.4670  145.4470 C   0  0  0  0  0  3  0  0  0  0  0  0
  188.4420  176.7480  141.8970 C   0  0  0  0  0  2  0  0  0  0  0  0
  187.3670  178.6010  143.3590 C   0  0  1  0  0  3  0  0  0  0  0  0
  189.8060  178.6280  147.2490 C   0  0  0  0  0  1  0  0  0  0  0  0
  189.8010  176.4490  142.5190 C   0  0  1  0  0  3  0  0  0  0  0  0
  189.2960  177.7690  144.8070 C   0  0  0  0  0  0  0  0  0  0  0  0
  191.6970  176.1800  147.0220 C   0  0  0  0  0  0  0  0  0  0  0  0
  188.3010  179.0050  141.2310 O   0  0  0  0  0  0  0  0  0  0  0  0
  190.7250  176.0380  144.7990 C   0  0  0  0  0  0  0  0  0  0  0  0
  188.0450  178.1770  142.0910 C   0  0  0  0  0  0  0  0  0  0  0  0
  191.5400  174.9500  144.4750 C   0  0  0  0  0  3  0  0  0  0  0  0
  192.5080  175.0770  146.7130 C   0  0  0  0  0  3  0  0  0  0  0  0
  191.2840  177.0460  140.5760 C   0  0  0  0  0  0  0  0  0  0  0  0
  190.9130  177.2130  141.8540 C   0  0  0  0  0  3  0  0  0  0  0  0
  192.3840  177.8910  140.0230 C   0  0  0  0  0  2  0  0  0  0  0  0
  193.1740  177.1290  138.9730 C   0  0  0  0  0  1  0  0  0  0  0  0
  190.5860  176.0930  139.6430 C   0  0  0  0  0  2  0  0  0  0  0  0
  189.4880  176.7710  138.8250 C   0  0  0  0  0  2  0  0  0  0  0  0
  189.4500  177.6740  136.4730 C   0  0  0  0  0  3  0  0  0  0  0  0
  189.6400  177.5000  135.0980 C   0  0  0  0  0  3  0  0  0  0  0  0
  190.0650  176.2590  134.5990 C   0  0  0  0  0  3  0  0  0  0  0  0
  190.7050  173.9900  134.9910 F   0  0  0  0  0  0  0  0  0  0  0  0
  189.6940  176.6090  137.3530 C   0  0  0  0  0  0  0  0  0  0  0  0
  190.1130  175.3700  136.8490 C   0  0  0  0  0  3  0  0  0  0  0  0
  190.3010  175.1940  135.4740 C   0  0  0  0  0  0  0  0  0  0  0  0
  186.1130  177.7700  143.6750 C   0  0  1  0  0  3  0  0  0  0  0  0
  186.2230  177.2000  144.9480 O   0  0  0  0  0  1  0  0  0  0  0  0
  184.8510  178.6180  143.6280 C   0  0  0  0  0  2  0  0  0  0  0  0
  184.1600  179.1080  140.1180 C   0  0  0  0  0  3  0  0  0  0  0  0
  183.9790  178.1270  142.5270 C   0  0  0  0  0  3  0  0  0  0  0  0
  184.0700  178.6330  141.3310 C   0  0  0  0  0  0  0  0  0  0  0  0
  182.8930  174.9180  135.0880 C   0  0  0  0  0  2  0  0  0  0  0  0
  182.6070  178.0840  138.5000 C   0  0  0  0  0  0  0  0  0  0  0  0
  185.0200  177.5720  138.2510 C   0  0  0  0  0  2  0  0  0  0  0  0
  183.1380  176.4270  135.0630 C   0  0  0  0  0  2  0  0  0  0  0  0
  180.0260  176.0490  134.6140 O   0  0  0  0  0  0  0  0  0  0  0  0
  182.3440  177.3470  137.2320 C   0  0  0  0  0  0  0  0  0  0  0  0
  179.2280  175.1360  136.7500 O   0  0  0  0  0  0  0  0  0  0  0  0
  181.7420  174.4850  135.9980 C   0  0  1  0  0  3  0  0  0  0  0  0
  183.8750  178.2800  138.9280 C   0  0  0  0  0  0  0  0  0  0  0  0
  183.3770  176.9930  136.4350 C   0  0  0  0  0  0  0  0  0  0  0  0
  184.7270  177.2570  136.8610 N   0  0  0  0  0  0  0  0  0  0  0  0
  180.4160  175.6920  136.0200 S   0  0  0  0  0  0  0  0  0  0  0  0
  180.9760  177.1080  136.8500 N   0  0  0  0  0  2  0  0  0  0  0  0
  181.1910  180.0490  139.1550 O   0  0  0  0  0  1  0  0  0  0  0  0
  180.2630  177.9250  139.1800 O   0  0  0  0  0  0  0  0  0  0  0  0
  181.4440  178.6820  139.2570 C   0  0  1  0  0  0  0  0  0  0  0  0
  180.8940  177.9920  140.4390 C   0  0  0  0  0  2  0  0  0  0  0  0
  182.1140  172.1240  135.9670 O   0  0  0  0  0  1  0  0  0  0  0  0
  181.2390  173.1230  135.5480 C   0  0  0  0  0  2  0  0  0  0  0  0
  185.8600  177.1000  135.9580 C   0  0  0  0  0  2  0  0  0  0  0  0
  186.4770  175.8660  136.1800 O   0  0  0  0  0  1  0  0  0  0  0  0
  1 14  2  0  0  0  0
  1 11  1  0  0  0  0
  2  3  2  0  0  0  0
  2 12  1  0  0  0  0
  3  9  1  0  0  0  0
  4 11  2  0  0  0  0
  6 17  1  0  0  0  0
  7 15  1  0  0  0  0
  7 10  1  0  0  0  0
  8 31  1  1  0  0  0
  8  4  1  0  0  0  0
 10 19  1  6  0  0  0
 10  1  1  0  0  0  0
 11  3  1  0  0  0  0
 12  5  1  0  0  0  0
 13 15  2  0  0  0  0
 14  2  1  0  0  0  0
 15  8  1  0  0  0  0
 16 14  1  0  0  0  0
 16  6  2  0  0  0  0
 17 12  2  0  0  0  0
 18 19  2  0  0  0  0
 20 18  1  0  0  0  0
 21 20  1  0  0  0  0
 22 18  1  0  0  0  0
 23 22  1  0  0  0  0
 24 28  1  0  0  0  0
 25 24  2  0  0  0  0
 26 25  1  0  0  0  0
 26 30  2  0  0  0  0
 27 30  1  0  0  0  0
 28 23  1  0  0  0  0
 29 28  2  0  0  0  0
 30 29  1  0  0  0  0
 31 32  1  1  0  0  0
 33 31  1  0  0  0  0
 34 36  2  0  0  0  0
 35 33  1  0  0  0  0
 36 35  2  0  0  0  0
 37 44  1  0  0  0  0
 38 45  2  0  0  0  0
 38 52  1  0  0  0  0
 39 45  1  0  0  0  0
 40 37  1  0  0  0  0
 40 46  1  0  0  0  0
 41 48  2  0  0  0  0
 42 38  1  0  0  0  0
 44 55  1  6  0  0  0
 44 48  1  0  0  0  0
 45 34  1  0  0  0  0
 46 47  1  0  0  0  0
 46 42  2  0  0  0  0
 47 39  1  0  0  0  0
 48 43  2  0  0  0  0
 48 49  1  0  0  0  0
 49 42  1  0  0  0  0
 51 52  1  0  0  0  0
 51 53  1  0  0  0  0
 52 50  1  6  0  0  0
 52 53  1  0  0  0  0
 55 54  1  0  0  0  0
 56 57  1  0  0  0  0
 56 47  1  0  0  0  0
M  END
>  <MODEL>
7

>  <REMARK>
 VINA RESULT:      -5.6      3.273      6.607
  Name = 
  12 active torsions:
  status: ('A' for Active; 'I' for Inactive)
    1  A    between atoms: C_1  and  C_6
    2  A    between atoms: C_1  and  C_45
    3  A    between atoms: C_5  and  C_35
    4  A    between atoms: C_6  and  C_13
    5  A    between atoms: C_13  and  C_41
    6  A    between atoms: C_15  and  C_27
    7  A    between atoms: C_15  and  C_57
    8  A    between atoms: C_16  and  C_32
    9  A    between atoms: C_17  and  N_39
   10  A    between atoms: C_25  and  C_30
   11  A    between atoms: C_33  and  C_40
   12  A    between atoms: C_49  and  C_57
                            x       y       z     vdW  Elec       q    Type
                         _______ _______ _______ _____ _____    ______ ____

>  <TORSDO>
F 12

$$$$
=
 OpenBabel11062417383D

 57 63  0  0  1  0  0  0  0  0999 V2000
  187.9840  177.4180  143.8470 C   0  0  0  0  0  0  0  0  0  0  0  0
  189.6920  177.1050  145.2770 C   0  0  0  0  0  0  0  0  0  0  0  0
  188.9620  178.0430  145.8760 C   0  0  0  0  0  0  0  0  0  0  0  0
  186.7770  179.0900  145.3660 C   0  0  0  0  0  3  0  0  0  0  0  0
  191.4810  176.8740  146.8770 F   0  0  0  0  0  0  0  0  0  0  0  0
  190.9460  175.2470  143.6260 C   0  0  0  0  0  3  0  0  0  0  0  0
  185.8480  177.8060  142.5350 C   0  0  0  0  0  2  0  0  0  0  0  0
  185.4460  179.2160  144.6740 C   0  0  1  0  0  3  0  0  0  0  0  0
  189.2500  178.6900  147.1920 C   0  0  0  0  0  1  0  0  0  0  0  0
  187.3440  177.5190  142.4890 C   0  0  1  0  0  3  0  0  0  0  0  0
  187.8010  178.2970  145.0220 C   0  0  0  0  0  0  0  0  0  0  0  0
  190.9010  176.5300  145.7000 C   0  0  0  0  0  0  0  0  0  0  0  0
  185.4380  180.1270  142.4990 O   0  0  0  0  0  0  0  0  0  0  0  0
  189.1140  176.7470  144.0680 C   0  0  0  0  0  0  0  0  0  0  0  0
  185.5550  179.1230  143.1820 C   0  0  0  0  0  0  0  0  0  0  0  0
  189.7350  175.8290  143.2160 C   0  0  0  0  0  3  0  0  0  0  0  0
  191.5250  175.5940  144.8610 C   0  0  0  0  0  3  0  0  0  0  0  0
  188.8600  178.1620  140.5860 C   0  0  0  0  0  0  0  0  0  0  0  0
  188.0880  178.5040  141.6290 C   0  0  0  0  0  3  0  0  0  0  0  0
  189.5210  179.2380  139.7890 C   0  0  0  0  0  2  0  0  0  0  0  0
  189.0410  179.2140  138.3480 C   0  0  0  0  0  1  0  0  0  0  0  0
  189.0300  176.7380  140.1310 C   0  0  0  0  0  2  0  0  0  0  0  0
  190.4880  176.3860  139.8330 C   0  0  0  0  0  2  0  0  0  0  0  0
  191.9770  175.6780  137.9280 C   0  0  0  0  0  3  0  0  0  0  0  0
  192.1470  175.2910  136.5940 C   0  0  0  0  0  3  0  0  0  0  0  0
  191.0360  175.1940  135.7430 C   0  0  0  0  0  3  0  0  0  0  0  0
  188.6800  175.3980  135.3980 F   0  0  0  0  0  0  0  0  0  0  0  0
  190.6910  175.9610  138.4140 C   0  0  0  0  0  0  0  0  0  0  0  0
  189.5850  175.8700  137.5580 C   0  0  0  0  0  3  0  0  0  0  0  0
  189.7550  175.4840  136.2240 C   0  0  0  0  0  0  0  0  0  0  0  0
  184.4320  178.2230  145.2640 C   0  0  1  0  0  3  0  0  0  0  0  0
  184.6410  178.0840  146.6400 O   0  0  0  0  0  1  0  0  0  0  0  0
  182.9990  178.6790  145.0330 C   0  0  0  0  0  2  0  0  0  0  0  0
  182.2150  179.0070  141.5230 C   0  0  0  0  0  3  0  0  0  0  0  0
  182.4300  177.9230  143.8850 C   0  0  0  0  0  3  0  0  0  0  0  0
  182.3160  178.4790  142.7130 C   0  0  0  0  0  0  0  0  0  0  0  0
  182.7650  174.8930  136.3050 C   0  0  0  0  0  2  0  0  0  0  0  0
  181.2180  177.7400  139.6600 C   0  0  0  0  0  0  0  0  0  0  0  0
  183.6910  177.8000  139.8060 C   0  0  0  0  0  2  0  0  0  0  0  0
  182.6540  176.4170  136.3380 C   0  0  0  0  0  2  0  0  0  0  0  0
  179.8260  175.3670  135.3760 O   0  0  0  0  0  0  0  0  0  0  0  0
  181.3370  177.0250  138.3560 C   0  0  0  0  0  0  0  0  0  0  0  0
  178.9340  174.1920  137.3400 O   0  0  0  0  0  0  0  0  0  0  0  0
  181.6170  174.1660  137.0080 C   0  0  1  0  0  3  0  0  0  0  0  0
  182.3220  178.1960  140.2930 C   0  0  0  0  0  0  0  0  0  0  0  0
  182.5360  176.9550  137.7380 C   0  0  0  0  0  0  0  0  0  0  0  0
  183.7030  177.4960  138.3830 N   0  0  0  0  0  0  0  0  0  0  0  0
  180.0610  175.0380  136.8240 S   0  0  0  0  0  0  0  0  0  0  0  0
  180.1390  176.5020  137.7510 N   0  0  0  0  0  2  0  0  0  0  0  0
  179.2500  179.2600  139.9900 O   0  0  0  0  0  1  0  0  0  0  0  0
  178.9310  176.9650  140.0510 O   0  0  0  0  0  0  0  0  0  0  0  0
  179.8430  178.0200  140.2200 C   0  0  1  0  0  0  0  0  0  0  0  0
  179.3390  177.2460  141.3710 C   0  0  0  0  0  2  0  0  0  0  0  0
  182.7870  172.2730  136.1350 O   0  0  0  0  0  1  0  0  0  0  0  0
  181.5210  172.7490  136.4650 C   0  0  0  0  0  2  0  0  0  0  0  0
  184.9700  177.6440  137.6790 C   0  0  0  0  0  2  0  0  0  0  0  0
  185.7470  178.6270  138.2970 O   0  0  0  0  0  1  0  0  0  0  0  0
  1 14  2  0  0  0  0
  1 11  1  0  0  0  0
  2 12  1  0  0  0  0
  2  3  2  0  0  0  0
  3  9  1  0  0  0  0
  6 17  1  0  0  0  0
  7 15  1  0  0  0  0
  8 31  1  1  0  0  0
  8  4  1  0  0  0  0
 10 19  1  6  0  0  0
 10  7  1  0  0  0  0
 10  1  1  0  0  0  0
 11  4  2  0  0  0  0
 11  3  1  0  0  0  0
 12  5  1  0  0  0  0
 13 15  2  0  0  0  0
 14  2  1  0  0  0  0
 15  8  1  0  0  0  0
 16  6  2  0  0  0  0
 16 14  1  0  0  0  0
 17 12  2  0  0  0  0
 18 19  2  0  0  0  0
 20 18  1  0  0  0  0
 21 20  1  0  0  0  0
 22 18  1  0  0  0  0
 23 22  1  0  0  0  0
 24 28  1  0  0  0  0
 25 24  2  0  0  0  0
 26 30  2  0  0  0  0
 26 25  1  0  0  0  0
 27 30  1  0  0  0  0
 28 23  1  0  0  0  0
 29 28  2  0  0  0  0
 30 29  1  0  0  0  0
 31 32  1  1  0  0  0
 33 31  1  0  0  0  0
 34 36  2  0  0  0  0
 35 33  1  0  0  0  0
 36 35  2  0  0  0  0
 37 40  1  0  0  0  0
 37 44  1  0  0  0  0
 38 52  1  0  0  0  0
 38 45  2  0  0  0  0
 39 45  1  0  0  0  0
 40 46  1  0  0  0  0
 41 48  2  0  0  0  0
 42 38  1  0  0  0  0
 44 55  1  6  0  0  0
 45 34  1  0  0  0  0
 46 42  2  0  0  0  0
 46 47  1  0  0  0  0
 47 39  1  0  0  0  0
 48 44  1  0  0  0  0
 48 43  2  0  0  0  0
 48 49  1  0  0  0  0
 49 42  1  0  0  0  0
 51 52  1  0  0  0  0
 51 53  1  0  0  0  0
 52 50  1  6  0  0  0
 52 53  1  0  0  0  0
 54 55  1  0  0  0  0
 56 57  1  0  0  0  0
 56 47  1  0  0  0  0
M  END
>  <MODEL>
8

>  <REMARK>
 VINA RESULT:      -5.5      2.873      6.660
  Name = 
  12 active torsions:
  status: ('A' for Active; 'I' for Inactive)
    1  A    between atoms: C_1  and  C_6
    2  A    between atoms: C_1  and  C_45
    3  A    between atoms: C_5  and  C_35
    4  A    between atoms: C_6  and  C_13
    5  A    between atoms: C_13  and  C_41
    6  A    between atoms: C_15  and  C_27
    7  A    between atoms: C_15  and  C_57
    8  A    between atoms: C_16  and  C_32
    9  A    between atoms: C_17  and  N_39
   10  A    between atoms: C_25  and  C_30
   11  A    between atoms: C_33  and  C_40
   12  A    between atoms: C_49  and  C_57
                            x       y       z     vdW  Elec       q    Type
                         _______ _______ _______ _____ _____    ______ ____

>  <TORSDO>
F 12

$$$$
=
 OpenBabel11062417383D

 57 63  0  0  1  0  0  0  0  0999 V2000
  186.3380  174.0960  136.5410 C   0  0  0  0  0  0  0  0  0  0  0  0
  185.8650  171.9790  135.9450 C   0  0  0  0  0  0  0  0  0  0  0  0
  187.0590  172.1900  135.3960 C   0  0  0  0  0  0  0  0  0  0  0  0
  188.6720  174.0660  135.4860 C   0  0  0  0  0  2  0  0  0  0  0  0
  185.4620  169.7130  135.2270 F   0  0  0  0  0  0  0  0  0  0  0  0
  183.3580  172.0280  137.1540 C   0  0  0  0  0  3  0  0  0  0  0  0
  187.2190  176.3650  137.2540 C   0  0  0  0  0  2  0  0  0  0  0  0
  189.2600  175.3430  136.0240 C   0  0  1  0  0  3  0  0  0  0  0  0
  187.8560  171.2120  134.5940 C   0  0  0  0  0  1  0  0  0  0  0  0
  186.0110  175.5340  136.8390 C   0  0  1  0  0  3  0  0  0  0  0  0
  187.4660  173.5490  135.7550 C   0  0  0  0  0  0  0  0  0  0  0  0
  185.0600  170.8310  135.8800 C   0  0  2  0  0  3  0  0  0  0  0  0
  188.2350  177.3650  135.3770 O   0  0  0  0  0  0  0  0  0  0  0  0
  185.4370  173.1170  136.6130 C   0  0  0  0  0  0  0  0  0  0  0  0
  188.2440  176.4360  136.1670 C   0  0  0  0  0  0  0  0  0  0  0  0
  184.1750  173.1700  137.2120 C   0  0  0  0  0  3  0  0  0  0  0  0
  183.7980  170.8660  136.4940 C   0  0  0  0  0  3  0  0  0  0  0  0
  184.0680  176.7540  135.8060 C   0  0  0  0  0  0  0  0  0  0  0  0
  185.2600  176.1510  135.6900 C   0  0  0  0  0  3  0  0  0  0  0  0
  183.4400  177.3590  134.5940 C   0  0  0  0  0  2  0  0  0  0  0  0
  182.0390  177.8580  134.9030 C   0  0  0  0  0  1  0  0  0  0  0  0
  183.3640  176.9210  137.1250 C   0  0  0  0  0  2  0  0  0  0  0  0
  183.4310  178.3550  137.6500 C   0  0  0  0  0  2  0  0  0  0  0  0
  183.3670  178.2640  140.1680 C   0  0  0  0  0  3  0  0  0  0  0  0
  182.6760  178.4140  141.3750 C   0  0  0  0  0  3  0  0  0  0  0  0
  181.3290  178.8080  141.3690 C   0  0  0  0  0  3  0  0  0  0  0  0
  179.3670  179.4250  140.1520 F   0  0  0  0  0  0  0  0  0  0  0  0
  182.7140  178.5180  138.9520 C   0  0  0  0  0  0  0  0  0  0  0  0
  181.3660  178.9040  138.9510 C   0  0  0  0  0  3  0  0  0  0  0  0
  180.6740  179.0520  140.1580 C   0  0  0  0  0  0  0  0  0  0  0  0
  190.0400  175.0760  137.3220 C   0  0  1  0  0  3  0  0  0  0  0  0
  190.7640  173.8850  137.2100 O   0  0  0  0  0  1  0  0  0  0  0  0
  191.0080  176.2060  137.6380 C   0  0  0  0  0  2  0  0  0  0  0  0
  190.3400  178.0940  140.6430 C   0  0  0  0  0  3  0  0  0  0  0  0
  191.2810  176.2140  139.1010 C   0  0  0  0  0  3  0  0  0  0  0  0
  190.8160  177.1650  139.8590 C   0  0  0  0  0  0  0  0  0  0  0  0
  188.8700  177.4370  147.1130 C   0  0  0  0  0  2  0  0  0  0  0  0
  188.7050  177.8540  142.4710 C   0  0  0  0  0  0  0  0  0  0  0  0
  191.1050  177.6200  143.0460 C   0  0  0  0  0  2  0  0  0  0  0  0
  188.9550  176.3730  146.0200 C   0  0  0  0  0  2  0  0  0  0  0  0
  185.8660  176.8060  146.5650 O   0  0  0  0  0  0  0  0  0  0  0  0
  188.3570  177.4660  143.8680 C   0  0  0  0  0  0  0  0  0  0  0  0
  185.4450  179.0980  145.7890 O   0  0  0  0  0  0  0  0  0  0  0  0
  187.8950  178.5760  146.8060 C   0  0  1  0  0  3  0  0  0  0  0  0
  189.9910  177.8270  142.0540 C   0  0  0  0  0  0  0  0  0  0  0  0
  189.3100  176.9540  144.6790 C   0  0  0  0  0  0  0  0  0  0  0  0
  190.6690  176.8670  144.2130 N   0  0  0  0  0  0  0  0  0  0  0  0
  186.4680  178.0030  145.8850 S   0  0  0  0  0  0  0  0  0  0  0  0
  186.9830  177.5710  144.2860 N   0  0  0  0  0  2  0  0  0  0  0  0
  187.6590  177.7280  140.1940 O   0  0  0  0  0  1  0  0  0  0  0  0
  186.3040  178.0550  142.0470 O   0  0  0  0  0  0  0  0  0  0  0  0
  187.5930  178.1950  141.5060 C   0  0  1  0  0  0  0  0  0  0  0  0
  186.7310  179.3660  141.7520 C   0  0  0  0  0  2  0  0  0  0  0  0
  187.8450  178.4440  149.1920 O   0  0  0  0  0  1  0  0  0  0  0  0
  187.4800  179.2390  148.1090 C   0  0  0  0  0  2  0  0  0  0  0  0
  191.6870  176.1320  144.9510 C   0  0  0  0  0  2  0  0  0  0  0  0
  191.7490  176.5940  146.2680 O   0  0  0  0  0  1  0  0  0  0  0  0
  1 14  1  0  0  0  0
  1 10  1  0  0  0  0
  2 14  1  0  0  0  0
  3 11  1  0  0  0  0
  3  2  2  0  0  0  0
  4 11  1  0  0  0  0
  4  8  1  0  0  0  0
  6 16  1  0  0  0  0
  8 15  1  0  0  0  0
  8 31  1  1  0  0  0
  9  3  1  0  0  0  0
 10 19  1  6  0  0  0
 10  7  1  0  0  0  0
 11  1  2  0  0  0  0
 12  5  1  6  0  0  0
 12  2  1  0  0  0  0
 12 17  1  0  0  0  0
 13 15  2  0  0  0  0
 14 16  2  0  0  0  0
 15  7  1  0  0  0  0
 17  6  2  0  0  0  0
 18 22  1  0  0  0  0
 19 18  2  0  0  0  0
 20 21  1  0  0  0  0
 20 18  1  0  0  0  0
 22 23  1  0  0  0  0
 23 28  1  0  0  0  0
 24 25  1  0  0  0  0
 26 25  2  0  0  0  0
 27 30  1  0  0  0  0
 28 24  2  0  0  0  0
 29 28  1  0  0  0  0
 29 30  2  0  0  0  0
 30 26  1  0  0  0  0
 31 32  1  6  0  0  0
 31 33  1  0  0  0  0
 33 35  1  0  0  0  0
 34 45  1  0  0  0  0
 35 36  2  0  0  0  0
 36 34  2  0  0  0  0
 38 42  1  0  0  0  0
 39 47  1  0  0  0  0
 40 37  1  0  0  0  0
 42 49  1  0  0  0  0
 42 46  2  0  0  0  0
 43 48  2  0  0  0  0
 44 37  1  0  0  0  0
 44 55  1  1  0  0  0
 45 38  2  0  0  0  0
 45 39  1  0  0  0  0
 46 40  1  0  0  0  0
 47 46  1  0  0  0  0
 47 56  1  0  0  0  0
 48 41  2  0  0  0  0
 48 44  1  0  0  0  0
 49 48  1  0  0  0  0
 52 50  1  6  0  0  0
 52 53  1  0  0  0  0
 52 51  1  0  0  0  0
 52 38  1  0  0  0  0
 53 51  1  0  0  0  0
 55 54  1  0  0  0  0
 56 57  1  0  0  0  0
M  END
>  <MODEL>
9

>  <REMARK>
 VINA RESULT:      -5.3      3.260      6.897
  Name = 
  12 active torsions:
  status: ('A' for Active; 'I' for Inactive)
    1  A    between atoms: C_1  and  C_6
    2  A    between atoms: C_1  and  C_45
    3  A    between atoms: C_5  and  C_35
    4  A    between atoms: C_6  and  C_13
    5  A    between atoms: C_13  and  C_41
    6  A    between atoms: C_15  and  C_27
    7  A    between atoms: C_15  and  C_57
    8  A    between atoms: C_16  and  C_32
    9  A    between atoms: C_17  and  N_39
   10  A    between atoms: C_25  and  C_30
   11  A    between atoms: C_33  and  C_40
   12  A    between atoms: C_49  and  C_57
                            x       y       z     vdW  Elec       q    Type
                         _______ _______ _______ _____ _____    ______ ____

>  <TORSDO>
F 12

$$$$
