=
 OpenBabel11062415163D

 41 45  0  0  1  0  0  0  0  0999 V2000
  188.7240  177.2310  144.3740 C   0  0  0  0  0  3  0  0  0  0  0  0
  189.0350  177.8090  147.9860 N   0  0  0  0  0  0  0  0  0  0  0  0
  190.9670  176.6820  145.0850 C   0  0  0  0  0  3  0  0  0  0  0  0
  191.6360  176.9070  147.4140 N   0  0  0  0  0  1  0  0  0  0  0  0
  190.0160  176.7900  144.0630 C   0  0  0  0  0  0  0  0  0  0  0  0
  187.8000  178.2590  148.3230 C   0  0  0  0  0  3  0  0  0  0  0  0
  187.0690  178.0070  146.0250 C   0  0  0  0  0  0  0  0  0  0  0  0
  186.8050  178.3670  147.3530 C   0  0  0  0  0  3  0  0  0  0  0  0
  190.6410  177.0140  146.4000 C   0  0  0  0  0  0  0  0  0  0  0  0
  188.3680  177.5560  145.6900 C   0  0  0  0  0  0  0  0  0  0  0  0
  189.3470  177.4580  146.7100 C   0  0  0  0  0  0  0  0  0  0  0  0
  183.8860  178.6590  144.1460 C   0  0  2  0  0  3  0  0  0  0  0  0
  184.6030  178.1750  145.3900 C   0  0  0  0  0  2  0  0  0  0  0  0
  186.2650  178.4440  143.6640 C   0  0  0  0  0  2  0  0  0  0  0  0
  186.0120  178.1160  145.0520 N   0  0  0  0  0  0  0  0  0  0  0  0
  184.9070  178.6290  143.0180 C   0  0  1  0  0  3  0  0  0  0  0  0
  183.4290  180.0870  144.3610 C   0  0  0  0  0  1  0  0  0  0  0  0
  184.6360  177.5450  142.1760 O   0  0  0  0  0  0  0  0  0  0  0  0
  184.1940  178.0920  141.0150 N   0  0  0  0  0  0  0  0  0  0  0  0
  181.7060  178.1360  140.7380 C   0  0  0  0  0  0  0  0  0  0  0  0
  181.9430  176.1770  138.7350 C   0  0  0  0  0  3  0  0  0  0  0  0
  182.9820  177.6040  140.4120 C   0  0  0  0  0  0  0  0  0  0  0  0
  183.0770  176.6090  139.4280 C   0  0  0  0  0  3  0  0  0  0  0  0
  180.6990  176.7420  139.0170 C   0  0  0  0  0  3  0  0  0  0  0  0
  180.5840  177.7170  140.0120 C   0  0  0  0  0  3  0  0  0  0  0  0
  181.5000  179.0520  141.7780 O   0  0  0  0  0  0  0  0  0  0  0  0
  180.2480  179.6790  142.0130 C   0  0  0  0  0  2  0  0  0  0  0  0
  179.8140  179.4400  143.4450 C   0  0  0  0  0  2  0  0  0  0  0  0
  179.7120  178.0130  143.6990 N   0  0  0  0  0  1  0  0  0  0  0  0
  184.3420  179.9220  139.5680 O   0  0  0  0  0  1  0  0  0  0  0  0
  185.0860  178.9810  140.2790 C   0  0  0  0  0  2  0  0  0  0  0  0
  190.3330  175.2470  142.2840 O   0  0  0  0  0  0  0  0  0  0  0  0
  190.3700  176.4510  142.6680 C   0  0  0  0  0  0  0  0  0  0  0  0
  190.6090  175.8130  138.7880 C   0  0  0  0  0  1  0  0  0  0  0  0
  190.7090  177.5390  141.6860 C   0  0  1  0  0  3  0  0  0  0  0  0
  190.7660  177.1530  139.3270 N   0  0  0  0  0  0  0  0  0  0  0  0
  192.7500  177.8460  140.4280 N   0  0  0  0  0  1  0  0  0  0  0  0
  191.5550  177.0290  140.5420 C   0  0  1  0  0  3  0  0  0  0  0  0
  188.9530  178.7010  138.8270 C   0  0  0  0  0  1  0  0  0  0  0  0
  189.4950  178.0910  141.1140 N   0  0  0  0  0  2  0  0  0  0  0  0
  189.4400  177.5970  139.7450 C   0  0  2  0  0  3  0  0  0  0  0  0
  1 10  1  0  0  0  0
  2  6  1  0  0  0  0
  3  9  2  0  0  0  0
  5  1  2  0  0  0  0
  5  3  1  0  0  0  0
  7  8  1  0  0  0  0
  8  6  2  0  0  0  0
  9 11  1  0  0  0  0
  9  4  1  0  0  0  0
 10  7  2  0  0  0  0
 10 11  1  0  0  0  0
 11  2  2  0  0  0  0
 12 17  1  1  0  0  0
 12 13  1  0  0  0  0
 14 15  1  0  0  0  0
 15 13  1  0  0  0  0
 15  7  1  0  0  0  0
 16 18  1  6  0  0  0
 16 14  1  0  0  0  0
 16 12  1  0  0  0  0
 19 18  1  0  0  0  0
 20 26  1  0  0  0  0
 21 24  2  0  0  0  0
 21 23  1  0  0  0  0
 22 20  1  0  0  0  0
 22 19  1  0  0  0  0
 23 22  2  0  0  0  0
 24 25  1  0  0  0  0
 25 20  2  0  0  0  0
 26 27  1  0  0  0  0
 27 28  1  0  0  0  0
 28 29  1  0  0  0  0
 30 31  1  0  0  0  0
 31 19  1  0  0  0  0
 32 33  2  0  0  0  0
 33  5  1  0  0  0  0
 34 36  1  0  0  0  0
 35 33  1  1  0  0  0
 36 41  1  0  0  0  0
 36 38  1  0  0  0  0
 38 37  1  6  0  0  0
 38 35  1  0  0  0  0
 40 35  1  0  0  0  0
 41 39  1  6  0  0  0
 41 40  1  0  0  0  0
M  END
>  <MODEL>
1

>  <REMARK>
 VINA RESULT:      -8.8      0.000      0.000
  Name = 
  10 active torsions:
  status: ('A' for Active; 'I' for Inactive)
    1  A    between atoms: C_2  and  C_39
    2  A    between atoms: C_3  and  O_20
    3  A    between atoms: C_11  and  C_32
    4  A    between atoms: C_12  and  C_32
    5  A    between atoms: C_16  and  N_22
    6  A    between atoms: O_20  and  C_39
    7  A    between atoms: C_21  and  N_26
    8  A    between atoms: N_22  and  O_28
    9  A    between atoms: N_22  and  C_29
   10  A    between atoms: O_28  and  C_36
                            x       y       z     vdW  Elec       q    Type
                         _______ _______ _______ _____ _____    ______ ____

>  <TORSDO>
F 10

$$$$
=
 OpenBabel11062415163D

 41 45  0  0  1  0  0  0  0  0999 V2000
  185.6650  177.7700  142.6010 C   0  0  0  0  0  3  0  0  0  0  0  0
  182.7950  179.1990  144.3900 N   0  0  0  0  0  0  0  0  0  0  0  0
  186.2360  178.0620  144.9300 C   0  0  0  0  0  3  0  0  0  0  0  0
  184.6290  178.9800  146.5100 N   0  0  0  0  0  1  0  0  0  0  0  0
  186.5990  177.6620  143.6380 C   0  0  0  0  0  0  0  0  0  0  0  0
  181.8710  179.3370  143.4070 C   0  0  0  0  0  3  0  0  0  0  0  0
  183.4170  178.3830  141.8020 C   0  0  0  0  0  0  0  0  0  0  0  0
  182.1660  178.9370  142.1060 C   0  0  0  0  0  3  0  0  0  0  0  0
  184.9630  178.5680  145.1880 C   0  0  0  0  0  0  0  0  0  0  0  0
  184.3740  178.2620  142.8370 C   0  0  0  0  0  0  0  0  0  0  0  0
  184.0290  178.6780  144.1470 C   0  0  0  0  0  0  0  0  0  0  0  0
  183.3140  176.9540  138.3330 C   0  0  2  0  0  3  0  0  0  0  0  0
  183.0640  176.8150  139.8210 C   0  0  0  0  0  2  0  0  0  0  0  0
  184.3870  178.8050  139.5010 C   0  0  0  0  0  2  0  0  0  0  0  0
  183.6820  177.9650  140.4480 N   0  0  0  0  0  0  0  0  0  0  0  0
  184.3130  178.0910  138.1660 C   0  0  1  0  0  3  0  0  0  0  0  0
  182.0180  177.3310  137.6450 C   0  0  0  0  0  1  0  0  0  0  0  0
  185.5680  177.5620  137.8460 O   0  0  0  0  0  0  0  0  0  0  0  0
  185.3510  176.7290  136.7970 N   0  0  0  0  0  0  0  0  0  0  0  0
  187.1810  175.0210  136.8590 C   0  0  0  0  0  0  0  0  0  0  0  0
  185.2340  173.0170  137.1760 C   0  0  0  0  0  3  0  0  0  0  0  0
  185.8020  175.3640  136.8640 C   0  0  0  0  0  0  0  0  0  0  0  0
  184.8450  174.3480  136.9980 C   0  0  0  0  0  3  0  0  0  0  0  0
  186.5890  172.6900  137.2270 C   0  0  0  0  0  3  0  0  0  0  0  0
  187.5550  173.6890  137.0700 C   0  0  0  0  0  3  0  0  0  0  0  0
  188.2020  175.9520  136.6230 O   0  0  0  0  0  0  0  0  0  0  0  0
  188.9450  176.5590  137.6690 C   0  0  0  0  0  2  0  0  0  0  0  0
  189.3600  177.9570  137.2610 C   0  0  0  0  0  2  0  0  0  0  0  0
  188.7370  178.9330  138.1380 N   0  0  0  0  0  1  0  0  0  0  0  0
  185.9880  177.7330  134.7840 O   0  0  0  0  0  1  0  0  0  0  0  0
  184.8950  177.3010  135.5350 C   0  0  0  0  0  2  0  0  0  0  0  0
  188.2070  175.9160  143.5560 O   0  0  0  0  0  0  0  0  0  0  0  0
  187.9550  177.1400  143.3660 C   0  0  0  0  0  0  0  0  0  0  0  0
  191.7840  176.2110  143.4170 C   0  0  0  0  0  1  0  0  0  0  0  0
  189.0170  178.0430  142.8010 C   0  0  1  0  0  3  0  0  0  0  0  0
  191.3270  177.4260  142.7630 N   0  0  0  0  0  0  0  0  0  0  0  0
  190.6690  179.3470  143.9880 N   0  0  0  0  0  1  0  0  0  0  0  0
  190.2930  177.9970  143.6100 C   0  0  1  0  0  3  0  0  0  0  0  0
  191.4960  177.4330  140.3330 C   0  0  0  0  0  1  0  0  0  0  0  0
  189.3490  177.6370  141.4470 N   0  0  0  0  0  2  0  0  0  0  0  0
  190.6630  177.0160  141.5300 C   0  0  2  0  0  3  0  0  0  0  0  0
  1 10  2  0  0  0  0
  1  5  1  0  0  0  0
  3  9  1  0  0  0  0
  5  3  2  0  0  0  0
  6  2  2  0  0  0  0
  7  8  2  0  0  0  0
  7 10  1  0  0  0  0
  8  6  1  0  0  0  0
  9  4  1  0  0  0  0
 10 11  1  0  0  0  0
 11  2  1  0  0  0  0
 11  9  2  0  0  0  0
 12 17  1  6  0  0  0
 12 13  1  0  0  0  0
 13 15  1  0  0  0  0
 14 15  1  0  0  0  0
 15  7  1  0  0  0  0
 16 18  1  1  0  0  0
 16 12  1  0  0  0  0
 16 14  1  0  0  0  0
 19 22  1  0  0  0  0
 19 18  1  0  0  0  0
 20 22  2  0  0  0  0
 20 25  1  0  0  0  0
 21 24  1  0  0  0  0
 22 23  1  0  0  0  0
 23 21  2  0  0  0  0
 25 24  2  0  0  0  0
 26 20  1  0  0  0  0
 26 27  1  0  0  0  0
 28 27  1  0  0  0  0
 28 29  1  0  0  0  0
 30 31  1  0  0  0  0
 31 19  1  0  0  0  0
 33 32  2  0  0  0  0
 33  5  1  0  0  0  0
 35 33  1  1  0  0  0
 35 38  1  0  0  0  0
 36 34  1  0  0  0  0
 36 38  1  0  0  0  0
 38 37  1  6  0  0  0
 40 41  1  0  0  0  0
 40 35  1  0  0  0  0
 41 39  1  6  0  0  0
 41 36  1  0  0  0  0
M  END
>  <MODEL>
2

>  <REMARK>
 VINA RESULT:      -8.6      2.808      5.981
  Name = 
  10 active torsions:
  status: ('A' for Active; 'I' for Inactive)
    1  A    between atoms: C_2  and  C_39
    2  A    between atoms: C_3  and  O_20
    3  A    between atoms: C_11  and  C_32
    4  A    between atoms: C_12  and  C_32
    5  A    between atoms: C_16  and  N_22
    6  A    between atoms: O_20  and  C_39
    7  A    between atoms: C_21  and  N_26
    8  A    between atoms: N_22  and  O_28
    9  A    between atoms: N_22  and  C_29
   10  A    between atoms: O_28  and  C_36
                            x       y       z     vdW  Elec       q    Type
                         _______ _______ _______ _____ _____    ______ ____

>  <TORSDO>
F 10

$$$$
=
 OpenBabel11062415163D

 41 45  0  0  1  0  0  0  0  0999 V2000
  186.2510  177.5830  143.2340 C   0  0  0  0  0  3  0  0  0  0  0  0
  183.5770  179.1740  145.1830 N   0  0  0  0  0  0  0  0  0  0  0  0
  186.8360  177.5490  145.5780 C   0  0  0  0  0  3  0  0  0  0  0  0
  185.3500  178.4950  147.2570 N   0  0  0  0  0  1  0  0  0  0  0  0
  187.1550  177.2450  144.2480 C   0  0  0  0  0  0  0  0  0  0  0  0
  182.6860  179.5350  144.2260 C   0  0  0  0  0  3  0  0  0  0  0  0
  184.1070  178.5640  142.5180 C   0  0  0  0  0  0  0  0  0  0  0  0
  182.9370  179.2400  142.8870 C   0  0  0  0  0  3  0  0  0  0  0  0
  185.6370  178.1860  145.8960 C   0  0  0  0  0  0  0  0  0  0  0  0
  185.0330  178.2100  143.5300 C   0  0  0  0  0  0  0  0  0  0  0  0
  184.7340  178.5260  144.8790 C   0  0  0  0  0  0  0  0  0  0  0  0
  183.8150  177.7140  138.8750 C   0  0  2  0  0  3  0  0  0  0  0  0
  183.4180  177.4740  140.3170 C   0  0  0  0  0  2  0  0  0  0  0  0
  185.3380  178.9330  140.3360 C   0  0  0  0  0  2  0  0  0  0  0  0
  184.3270  178.2610  141.1270 N   0  0  0  0  0  0  0  0  0  0  0  0
  185.1390  178.4650  138.9090 C   0  0  1  0  0  3  0  0  0  0  0  0
  182.7700  178.5870  138.2110 C   0  0  0  0  0  1  0  0  0  0  0  0
  186.1750  177.5950  138.5520 O   0  0  0  0  0  0  0  0  0  0  0  0
  186.3800  177.8030  137.2270 N   0  0  0  0  0  0  0  0  0  0  0  0
  186.9930  175.6080  136.1900 C   0  0  0  0  0  0  0  0  0  0  0  0
  184.6440  175.7350  134.6490 C   0  0  0  0  0  3  0  0  0  0  0  0
  186.1370  176.7380  136.2910 C   0  0  0  0  0  0  0  0  0  0  0  0
  184.9830  176.7950  135.4950 C   0  0  0  0  0  3  0  0  0  0  0  0
  185.4560  174.6020  134.5940 C   0  0  0  0  0  3  0  0  0  0  0  0
  186.6230  174.5410  135.3630 C   0  0  0  0  0  3  0  0  0  0  0  0
  188.2180  175.5110  136.8630 O   0  0  0  0  0  0  0  0  0  0  0  0
  189.4670  175.7020  136.2170 C   0  0  0  0  0  2  0  0  0  0  0  0
  190.2190  174.3880  136.1530 C   0  0  0  0  0  2  0  0  0  0  0  0
  190.3650  173.8370  137.4890 N   0  0  0  0  0  1  0  0  0  0  0  0
  188.3670  179.0300  137.3480 O   0  0  0  0  0  1  0  0  0  0  0  0
  187.0800  179.0140  136.8110 C   0  0  0  0  0  2  0  0  0  0  0  0
  188.4710  175.7140  142.9960 O   0  0  0  0  0  0  0  0  0  0  0  0
  188.4340  176.5820  143.9140 C   0  0  0  0  0  0  0  0  0  0  0  0
  191.7510  177.4490  141.9740 C   0  0  0  0  0  1  0  0  0  0  0  0
  189.7020  176.9850  144.6150 C   0  0  1  0  0  3  0  0  0  0  0  0
  191.6820  177.5890  143.4190 N   0  0  0  0  0  0  0  0  0  0  0  0
  191.7440  175.7170  144.8730 N   0  0  0  0  0  1  0  0  0  0  0  0
  190.9320  176.4490  143.9180 C   0  0  1  0  0  3  0  0  0  0  0  0
  191.7260  179.8790  144.2490 C   0  0  0  0  0  1  0  0  0  0  0  0
  189.8180  178.4310  144.6460 N   0  0  0  0  0  2  0  0  0  0  0  0
  190.8620  178.7660  143.6880 C   0  0  2  0  0  3  0  0  0  0  0  0
  1 10  2  0  0  0  0
  1  5  1  0  0  0  0
  3  9  1  0  0  0  0
  5  3  2  0  0  0  0
  6  2  2  0  0  0  0
  7  8  2  0  0  0  0
  7 10  1  0  0  0  0
  8  6  1  0  0  0  0
  9  4  1  0  0  0  0
 10 11  1  0  0  0  0
 11  2  1  0  0  0  0
 11  9  2  0  0  0  0
 12 17  1  1  0  0  0
 12 16  1  0  0  0  0
 12 13  1  0  0  0  0
 13 15  1  0  0  0  0
 14 15  1  0  0  0  0
 15  7  1  0  0  0  0
 16 18  1  1  0  0  0
 16 14  1  0  0  0  0
 19 18  1  0  0  0  0
 20 22  1  0  0  0  0
 20 26  1  0  0  0  0
 21 23  1  0  0  0  0
 22 19  1  0  0  0  0
 23 22  2  0  0  0  0
 24 21  2  0  0  0  0
 24 25  1  0  0  0  0
 25 20  2  0  0  0  0
 27 26  1  0  0  0  0
 28 27  1  0  0  0  0
 28 29  1  0  0  0  0
 31 19  1  0  0  0  0
 31 30  1  0  0  0  0
 32 33  2  0  0  0  0
 33  5  1  0  0  0  0
 34 36  1  0  0  0  0
 35 33  1  6  0  0  0
 35 40  1  0  0  0  0
 36 41  1  0  0  0  0
 36 38  1  0  0  0  0
 38 35  1  0  0  0  0
 38 37  1  1  0  0  0
 41 39  1  1  0  0  0
 41 40  1  0  0  0  0
M  END
>  <MODEL>
3

>  <REMARK>
 VINA RESULT:      -8.6      2.938      5.998
  Name = 
  10 active torsions:
  status: ('A' for Active; 'I' for Inactive)
    1  A    between atoms: C_2  and  C_39
    2  A    between atoms: C_3  and  O_20
    3  A    between atoms: C_11  and  C_32
    4  A    between atoms: C_12  and  C_32
    5  A    between atoms: C_16  and  N_22
    6  A    between atoms: O_20  and  C_39
    7  A    between atoms: C_21  and  N_26
    8  A    between atoms: N_22  and  O_28
    9  A    between atoms: N_22  and  C_29
   10  A    between atoms: O_28  and  C_36
                            x       y       z     vdW  Elec       q    Type
                         _______ _______ _______ _____ _____    ______ ____

>  <TORSDO>
F 10

$$$$
=
 OpenBabel11062415163D

 41 45  0  0  1  0  0  0  0  0999 V2000
  186.4020  178.2720  142.7220 C   0  0  0  0  0  3  0  0  0  0  0  0
  185.8090  178.1750  146.3440 N   0  0  0  0  0  0  0  0  0  0  0  0
  184.1120  178.8940  143.1780 C   0  0  0  0  0  3  0  0  0  0  0  0
  183.2630  178.9740  145.4560 N   0  0  0  0  0  1  0  0  0  0  0  0
  185.1400  178.6580  142.2560 C   0  0  0  0  0  0  0  0  0  0  0  0
  187.0120  177.7830  146.8320 C   0  0  0  0  0  3  0  0  0  0  0  0
  187.9220  177.7340  144.5850 C   0  0  0  0  0  0  0  0  0  0  0  0
  188.0790  177.5550  145.9660 C   0  0  0  0  0  3  0  0  0  0  0  0
  184.3340  178.7420  144.5460 C   0  0  0  0  0  0  0  0  0  0  0  0
  186.6540  178.1270  144.0930 C   0  0  0  0  0  0  0  0  0  0  0  0
  185.5980  178.3520  145.0120 C   0  0  0  0  0  0  0  0  0  0  0  0
  191.2410  176.8670  143.0640 C   0  0  2  0  0  3  0  0  0  0  0  0
  190.4290  177.5090  144.1710 C   0  0  0  0  0  2  0  0  0  0  0  0
  188.9060  176.9850  142.3760 C   0  0  0  0  0  2  0  0  0  0  0  0
  189.0510  177.5040  143.7210 N   0  0  0  0  0  0  0  0  0  0  0  0
  190.3110  176.7290  141.8670 C   0  0  1  0  0  3  0  0  0  0  0  0
  191.6810  175.4870  143.5090 C   0  0  0  0  0  1  0  0  0  0  0  0
  190.6450  177.6900  140.9070 O   0  0  0  0  0  0  0  0  0  0  0  0
  190.2320  177.1740  139.7220 N   0  0  0  0  0  0  0  0  0  0  0  0
  190.7230  175.3940  138.0310 C   0  0  0  0  0  0  0  0  0  0  0  0
  193.4330  176.1410  138.1030 C   0  0  0  0  0  3  0  0  0  0  0  0
  191.1530  176.4240  138.9100 C   0  0  0  0  0  0  0  0  0  0  0  0
  192.5130  176.7650  138.9500 C   0  0  0  0  0  3  0  0  0  0  0  0
  192.9990  175.1700  137.2000 C   0  0  0  0  0  3  0  0  0  0  0  0
  191.6500  174.8010  137.1660 C   0  0  0  0  0  3  0  0  0  0  0  0
  189.4070  174.9120  137.9990 O   0  0  0  0  0  0  0  0  0  0  0  0
  188.7750  174.4820  136.8040 C   0  0  0  0  0  2  0  0  0  0  0  0
  187.6710  175.4490  136.4280 C   0  0  0  0  0  2  0  0  0  0  0  0
  188.2300  176.5820  135.7120 N   0  0  0  0  0  1  0  0  0  0  0  0
  189.0050  178.9530  138.8290 O   0  0  0  0  0  1  0  0  0  0  0  0
  188.9460  177.6060  139.1840 C   0  0  0  0  0  2  0  0  0  0  0  0
  185.8670  179.0260  140.0240 O   0  0  0  0  0  0  0  0  0  0  0  0
  184.8970  178.8070  140.8050 C   0  0  0  0  0  0  0  0  0  0  0  0
  184.2280  177.4330  137.1740 C   0  0  0  0  0  1  0  0  0  0  0  0
  183.5120  178.6310  140.2460 C   0  0  1  0  0  3  0  0  0  0  0  0
  183.1210  177.7160  138.0720 N   0  0  0  0  0  0  0  0  0  0  0  0
  182.4060  179.9300  138.5330 N   0  0  0  0  0  1  0  0  0  0  0  0
  183.4490  178.9490  138.7690 C   0  0  1  0  0  3  0  0  0  0  0  0
  181.9120  175.7660  138.8900 C   0  0  0  0  0  1  0  0  0  0  0  0
  183.0770  177.2570  140.4120 N   0  0  0  0  0  2  0  0  0  0  0  0
  183.1190  176.6630  139.0820 C   0  0  2  0  0  3  0  0  0  0  0  0
  1 10  1  0  0  0  0
  2  6  1  0  0  0  0
  3  9  2  0  0  0  0
  5  1  2  0  0  0  0
  5  3  1  0  0  0  0
  7  8  1  0  0  0  0
  8  6  2  0  0  0  0
  9 11  1  0  0  0  0
  9  4  1  0  0  0  0
 10  7  2  0  0  0  0
 10 11  1  0  0  0  0
 11  2  2  0  0  0  0
 12 17  1  1  0  0  0
 12 13  1  0  0  0  0
 14 15  1  0  0  0  0
 15 13  1  0  0  0  0
 15  7  1  0  0  0  0
 16 18  1  6  0  0  0
 16 14  1  0  0  0  0
 16 12  1  0  0  0  0
 19 18  1  0  0  0  0
 20 22  1  0  0  0  0
 21 23  1  0  0  0  0
 22 23  2  0  0  0  0
 22 19  1  0  0  0  0
 24 21  2  0  0  0  0
 25 24  1  0  0  0  0
 25 20  2  0  0  0  0
 26 20  1  0  0  0  0
 27 26  1  0  0  0  0
 28 27  1  0  0  0  0
 29 28  1  0  0  0  0
 30 31  1  0  0  0  0
 31 19  1  0  0  0  0
 32 33  2  0  0  0  0
 33  5  1  0  0  0  0
 34 36  1  0  0  0  0
 35 40  1  0  0  0  0
 35 33  1  6  0  0  0
 36 38  1  0  0  0  0
 36 41  1  0  0  0  0
 38 37  1  1  0  0  0
 38 35  1  0  0  0  0
 41 39  1  6  0  0  0
 41 40  1  0  0  0  0
M  END
>  <MODEL>
4

>  <REMARK>
 VINA RESULT:      -8.3      2.185      7.594
  Name = 
  10 active torsions:
  status: ('A' for Active; 'I' for Inactive)
    1  A    between atoms: C_2  and  C_39
    2  A    between atoms: C_3  and  O_20
    3  A    between atoms: C_11  and  C_32
    4  A    between atoms: C_12  and  C_32
    5  A    between atoms: C_16  and  N_22
    6  A    between atoms: O_20  and  C_39
    7  A    between atoms: C_21  and  N_26
    8  A    between atoms: N_22  and  O_28
    9  A    between atoms: N_22  and  C_29
   10  A    between atoms: O_28  and  C_36
                            x       y       z     vdW  Elec       q    Type
                         _______ _______ _______ _____ _____    ______ ____

>  <TORSDO>
F 10

$$$$
=
 OpenBabel11062415163D

 41 45  0  0  1  0  0  0  0  0999 V2000
  185.6720  177.7830  142.5810 C   0  0  0  0  0  3  0  0  0  0  0  0
  182.4940  179.1570  143.8040 N   0  0  0  0  0  0  0  0  0  0  0  0
  185.8040  178.1080  144.9720 C   0  0  0  0  0  3  0  0  0  0  0  0
  183.9190  179.0010  146.2230 N   0  0  0  0  0  1  0  0  0  0  0  0
  186.4050  177.7070  143.7710 C   0  0  0  0  0  0  0  0  0  0  0  0
  181.7600  179.2640  142.6680 C   0  0  0  0  0  3  0  0  0  0  0  0
  183.5920  178.3340  141.3810 C   0  0  0  0  0  0  0  0  0  0  0  0
  182.2950  178.8600  141.4470 C   0  0  0  0  0  3  0  0  0  0  0  0
  184.4950  178.5860  144.9880 C   0  0  0  0  0  0  0  0  0  0  0  0
  184.3490  178.2450  142.5740 C   0  0  0  0  0  0  0  0  0  0  0  0
  183.7620  178.6640  143.7950 C   0  0  0  0  0  0  0  0  0  0  0  0
  184.0970  177.2290  137.8300 C   0  0  2  0  0  3  0  0  0  0  0  0
  183.3520  177.1280  139.1450 C   0  0  0  0  0  2  0  0  0  0  0  0
  185.3290  178.4490  139.5430 C   0  0  0  0  0  2  0  0  0  0  0  0
  184.1070  177.9110  140.1030 N   0  0  0  0  0  0  0  0  0  0  0  0
  185.4350  177.8870  138.1390 C   0  0  1  0  0  3  0  0  0  0  0  0
  183.3160  178.1180  136.8840 C   0  0  0  0  0  1  0  0  0  0  0  0
  186.4470  176.9240  138.0940 O   0  0  0  0  0  0  0  0  0  0  0  0
  187.5640  177.5920  137.7080 N   0  0  0  0  0  0  0  0  0  0  0  0
  189.9600  176.8690  137.6490 C   0  0  0  0  0  0  0  0  0  0  0  0
  190.1490  177.4360  140.3960 C   0  0  0  0  0  3  0  0  0  0  0  0
  188.8180  177.3240  138.3610 C   0  0  0  0  0  0  0  0  0  0  0  0
  188.9250  177.5770  139.7360 C   0  0  0  0  0  3  0  0  0  0  0  0
  191.2830  177.0440  139.6840 C   0  0  0  0  0  3  0  0  0  0  0  0
  191.1860  176.7640  138.3170 C   0  0  0  0  0  3  0  0  0  0  0  0
  189.9230  176.4890  136.3010 O   0  0  0  0  0  0  0  0  0  0  0  0
  189.2750  175.3080  135.8520 C   0  0  0  0  0  2  0  0  0  0  0  0
  190.2160  174.1270  135.9730 C   0  0  0  0  0  2  0  0  0  0  0  0
  189.9670  173.4220  137.2180 N   0  0  0  0  0  1  0  0  0  0  0  0
  188.3110  179.7460  137.1900 O   0  0  0  0  0  1  0  0  0  0  0  0
  187.4170  178.7420  136.8220 C   0  0  0  0  0  2  0  0  0  0  0  0
  188.1410  176.3190  142.9320 O   0  0  0  0  0  0  0  0  0  0  0  0
  187.7990  177.2140  143.7560 C   0  0  0  0  0  0  0  0  0  0  0  0
  191.4900  175.8590  144.0010 C   0  0  0  0  0  1  0  0  0  0  0  0
  188.8280  177.8210  144.6700 C   0  0  1  0  0  3  0  0  0  0  0  0
  191.0860  177.0410  144.7430 N   0  0  0  0  0  0  0  0  0  0  0  0
  189.7580  176.9060  146.7040 N   0  0  0  0  0  1  0  0  0  0  0  0
  189.7520  176.7800  145.2580 C   0  0  1  0  0  3  0  0  0  0  0  0
  192.0490  179.1410  143.9710 C   0  0  0  0  0  1  0  0  0  0  0  0
  189.6500  178.7660  143.9380 N   0  0  0  0  0  2  0  0  0  0  0  0
  190.9450  178.1200  143.7720 C   0  0  2  0  0  3  0  0  0  0  0  0
  1  5  1  0  0  0  0
  3  9  1  0  0  0  0
  5  3  2  0  0  0  0
  6  2  2  0  0  0  0
  7  8  2  0  0  0  0
  7 10  1  0  0  0  0
  8  6  1  0  0  0  0
  9  4  1  0  0  0  0
 10  1  2  0  0  0  0
 10 11  1  0  0  0  0
 11  2  1  0  0  0  0
 11  9  2  0  0  0  0
 12 17  1  6  0  0  0
 12 16  1  0  0  0  0
 12 13  1  0  0  0  0
 13 15  1  0  0  0  0
 14 15  1  0  0  0  0
 15  7  1  0  0  0  0
 16 18  1  1  0  0  0
 16 14  1  0  0  0  0
 19 18  1  0  0  0  0
 19 22  1  0  0  0  0
 20 25  2  0  0  0  0
 20 22  1  0  0  0  0
 22 23  2  0  0  0  0
 23 21  1  0  0  0  0
 24 21  2  0  0  0  0
 25 24  1  0  0  0  0
 26 20  1  0  0  0  0
 27 28  1  0  0  0  0
 27 26  1  0  0  0  0
 28 29  1  0  0  0  0
 31 30  1  0  0  0  0
 31 19  1  0  0  0  0
 32 33  2  0  0  0  0
 33  5  1  0  0  0  0
 34 36  1  0  0  0  0
 35 33  1  6  0  0  0
 35 38  1  0  0  0  0
 36 38  1  0  0  0  0
 38 37  1  1  0  0  0
 40 35  1  0  0  0  0
 41 40  1  0  0  0  0
 41 39  1  1  0  0  0
 41 36  1  0  0  0  0
M  END
>  <MODEL>
5

>  <REMARK>
 VINA RESULT:      -8.3      2.380      7.036
  Name = 
  10 active torsions:
  status: ('A' for Active; 'I' for Inactive)
    1  A    between atoms: C_2  and  C_39
    2  A    between atoms: C_3  and  O_20
    3  A    between atoms: C_11  and  C_32
    4  A    between atoms: C_12  and  C_32
    5  A    between atoms: C_16  and  N_22
    6  A    between atoms: O_20  and  C_39
    7  A    between atoms: C_21  and  N_26
    8  A    between atoms: N_22  and  O_28
    9  A    between atoms: N_22  and  C_29
   10  A    between atoms: O_28  and  C_36
                            x       y       z     vdW  Elec       q    Type
                         _______ _______ _______ _____ _____    ______ ____

>  <TORSDO>
F 10

$$$$
=
 OpenBabel11062415163D

 41 45  0  0  1  0  0  0  0  0999 V2000
  185.7360  177.7970  142.7880 C   0  0  0  0  0  3  0  0  0  0  0  0
  183.1890  179.1680  145.0490 N   0  0  0  0  0  0  0  0  0  0  0  0
  186.6420  177.9430  145.0230 C   0  0  0  0  0  3  0  0  0  0  0  0
  185.3020  178.7960  146.8670 N   0  0  0  0  0  1  0  0  0  0  0  0
  186.8060  177.6130  143.6720 C   0  0  0  0  0  0  0  0  0  0  0  0
  182.1370  179.3790  144.2190 C   0  0  0  0  0  3  0  0  0  0  0  0
  183.4130  178.4930  142.3570 C   0  0  0  0  0  0  0  0  0  0  0  0
  182.2330  179.0490  142.8690 C   0  0  0  0  0  3  0  0  0  0  0  0
  185.4320  178.4560  145.4890 C   0  0  0  0  0  0  0  0  0  0  0  0
  184.5050  178.2960  143.2350 C   0  0  0  0  0  0  0  0  0  0  0  0
  184.3620  178.6410  144.6030 C   0  0  0  0  0  0  0  0  0  0  0  0
  182.7510  177.8980  138.7110 C   0  0  2  0  0  3  0  0  0  0  0  0
  182.3090  177.8180  140.1580 C   0  0  0  0  0  2  0  0  0  0  0  0
  184.6580  178.3600  140.1570 C   0  0  0  0  0  2  0  0  0  0  0  0
  183.4710  178.1500  140.9590 N   0  0  0  0  0  0  0  0  0  0  0  0
  184.2670  178.0380  138.7290 C   0  0  1  0  0  3  0  0  0  0  0  0
  182.1480  179.1340  138.0760 C   0  0  0  0  0  1  0  0  0  0  0  0
  184.8490  176.8250  138.3440 O   0  0  0  0  0  0  0  0  0  0  0  0
  185.5700  177.1090  137.2300 N   0  0  0  0  0  0  0  0  0  0  0  0
  187.8740  176.1370  137.3480 C   0  0  0  0  0  0  0  0  0  0  0  0
  188.9240  178.7450  137.3030 C   0  0  0  0  0  3  0  0  0  0  0  0
  186.9980  177.2550  137.3210 C   0  0  0  0  0  0  0  0  0  0  0  0
  187.5400  178.5490  137.3250 C   0  0  0  0  0  3  0  0  0  0  0  0
  189.7820  177.6450  137.2720 C   0  0  0  0  0  3  0  0  0  0  0  0
  189.2570  176.3500  137.2930 C   0  0  0  0  0  3  0  0  0  0  0  0
  187.4260  174.8140  137.4540 O   0  0  0  0  0  0  0  0  0  0  0  0
  187.1680  173.9970  136.3220 C   0  0  0  0  0  2  0  0  0  0  0  0
  185.9030  173.1920  136.5460 C   0  0  0  0  0  2  0  0  0  0  0  0
  185.6830  173.0030  137.9690 N   0  0  0  0  0  1  0  0  0  0  0  0
  185.5640  177.0940  134.8920 O   0  0  0  0  0  1  0  0  0  0  0  0
  184.8570  177.5060  136.0210 C   0  0  0  0  0  2  0  0  0  0  0  0
  188.2840  175.8360  143.1230 O   0  0  0  0  0  0  0  0  0  0  0  0
  188.0960  177.0840  143.1780 C   0  0  0  0  0  0  0  0  0  0  0  0
  191.9430  176.2850  143.4660 C   0  0  0  0  0  1  0  0  0  0  0  0
  189.1600  178.0230  142.6790 C   0  0  1  0  0  3  0  0  0  0  0  0
  191.4860  177.4840  142.7850 N   0  0  0  0  0  0  0  0  0  0  0  0
  190.6910  179.3810  143.9660 N   0  0  0  0  0  1  0  0  0  0  0  0
  190.3840  178.0200  143.5660 C   0  0  1  0  0  3  0  0  0  0  0  0
  191.8050  177.5000  140.3700 C   0  0  0  0  0  1  0  0  0  0  0  0
  189.5880  177.6310  141.3490 N   0  0  0  0  0  2  0  0  0  0  0  0
  190.9150  177.0540  141.5130 C   0  0  2  0  0  3  0  0  0  0  0  0
  1 10  2  0  0  0  0
  1  5  1  0  0  0  0
  3  9  1  0  0  0  0
  5  3  2  0  0  0  0
  6  2  2  0  0  0  0
  7  8  2  0  0  0  0
  7 10  1  0  0  0  0
  8  6  1  0  0  0  0
  9  4  1  0  0  0  0
 10 11  1  0  0  0  0
 11  2  1  0  0  0  0
 11  9  2  0  0  0  0
 12 17  1  1  0  0  0
 12 16  1  0  0  0  0
 12 13  1  0  0  0  0
 13 15  1  0  0  0  0
 14 15  1  0  0  0  0
 15  7  1  0  0  0  0
 16 18  1  1  0  0  0
 16 14  1  0  0  0  0
 19 22  1  0  0  0  0
 19 18  1  0  0  0  0
 20 26  1  0  0  0  0
 21 23  1  0  0  0  0
 22 23  2  0  0  0  0
 22 20  1  0  0  0  0
 24 25  1  0  0  0  0
 24 21  2  0  0  0  0
 25 20  2  0  0  0  0
 27 28  1  0  0  0  0
 27 26  1  0  0  0  0
 28 29  1  0  0  0  0
 30 31  1  0  0  0  0
 31 19  1  0  0  0  0
 32 33  2  0  0  0  0
 33  5  1  0  0  0  0
 35 33  1  1  0  0  0
 35 38  1  0  0  0  0
 36 34  1  0  0  0  0
 36 38  1  0  0  0  0
 38 37  1  6  0  0  0
 40 41  1  0  0  0  0
 40 35  1  0  0  0  0
 41 39  1  6  0  0  0
 41 36  1  0  0  0  0
M  END
>  <MODEL>
6

>  <REMARK>
 VINA RESULT:      -8.2      2.732      5.879
  Name = 
  10 active torsions:
  status: ('A' for Active; 'I' for Inactive)
    1  A    between atoms: C_2  and  C_39
    2  A    between atoms: C_3  and  O_20
    3  A    between atoms: C_11  and  C_32
    4  A    between atoms: C_12  and  C_32
    5  A    between atoms: C_16  and  N_22
    6  A    between atoms: O_20  and  C_39
    7  A    between atoms: C_21  and  N_26
    8  A    between atoms: N_22  and  O_28
    9  A    between atoms: N_22  and  C_29
   10  A    between atoms: O_28  and  C_36
                            x       y       z     vdW  Elec       q    Type
                         _______ _______ _______ _____ _____    ______ ____

>  <TORSDO>
F 10

$$$$
=
 OpenBabel11062415163D

 41 45  0  0  1  0  0  0  0  0999 V2000
  188.7520  177.6160  140.8790 C   0  0  0  0  0  3  0  0  0  0  0  0
  192.0010  177.2180  142.5410 N   0  0  0  0  0  0  0  0  0  0  0  0
  190.4980  177.5060  139.2130 C   0  0  0  0  0  3  0  0  0  0  0  0
  192.8290  177.2370  139.8540 N   0  0  0  0  0  1  0  0  0  0  0  0
  189.1410  177.6400  139.5350 C   0  0  0  0  0  0  0  0  0  0  0  0
  191.6650  177.2110  143.8550 C   0  0  0  0  0  3  0  0  0  0  0  0
  189.3220  177.4300  143.2680 C   0  0  0  0  0  0  0  0  0  0  0  0
  190.3290  177.3190  144.2370 C   0  0  0  0  0  3  0  0  0  0  0  0
  191.4560  177.3560  140.2140 C   0  0  0  0  0  0  0  0  0  0  0  0
  189.6950  177.4520  141.9030 C   0  0  0  0  0  0  0  0  0  0  0  0
  191.0650  177.3350  141.5610 C   0  0  0  0  0  0  0  0  0  0  0  0
  186.0930  177.5620  145.1770 C   0  0  2  0  0  3  0  0  0  0  0  0
  187.4410  176.9210  144.9160 C   0  0  0  0  0  2  0  0  0  0  0  0
  187.0090  178.4460  143.0980 C   0  0  0  0  0  2  0  0  0  0  0  0
  187.9500  177.5230  143.6990 N   0  0  0  0  0  0  0  0  0  0  0  0
  185.7450  178.3620  143.9290 C   0  0  1  0  0  3  0  0  0  0  0  0
  186.2140  178.5100  146.3530 C   0  0  0  0  0  1  0  0  0  0  0  0
  184.7530  177.6890  143.2080 O   0  0  0  0  0  0  0  0  0  0  0  0
  183.8620  178.6440  142.8410 N   0  0  0  0  0  0  0  0  0  0  0  0
  182.1600  178.8950  141.0230 C   0  0  0  0  0  0  0  0  0  0  0  0
  184.2540  179.1700  139.1670 C   0  0  0  0  0  3  0  0  0  0  0  0
  183.5100  178.7970  141.4550 C   0  0  0  0  0  0  0  0  0  0  0  0
  184.5400  178.9120  140.5110 C   0  0  0  0  0  3  0  0  0  0  0  0
  182.9300  179.3220  138.7550 C   0  0  0  0  0  3  0  0  0  0  0  0
  181.8910  179.1860  139.6800 C   0  0  0  0  0  3  0  0  0  0  0  0
  181.0650  178.6870  141.8730 O   0  0  0  0  0  0  0  0  0  0  0  0
  180.2810  179.7500  142.3910 C   0  0  0  0  0  2  0  0  0  0  0  0
  179.4450  179.2550  143.5530 C   0  0  0  0  0  2  0  0  0  0  0  0
  179.7840  177.8750  143.8530 N   0  0  0  0  0  1  0  0  0  0  0  0
  182.8370  179.0490  144.9030 O   0  0  0  0  0  1  0  0  0  0  0  0
  183.4780  179.6530  143.8230 C   0  0  0  0  0  2  0  0  0  0  0  0
  187.8290  178.9740  138.0720 O   0  0  0  0  0  0  0  0  0  0  0  0
  188.1290  177.8130  138.4710 C   0  0  0  0  0  0  0  0  0  0  0  0
  186.8310  177.8570  134.7510 C   0  0  0  0  0  1  0  0  0  0  0  0
  187.5060  176.6120  137.8140 C   0  0  1  0  0  3  0  0  0  0  0  0
  186.8010  176.6310  135.5300 N   0  0  0  0  0  0  0  0  0  0  0  0
  185.1890  176.2530  137.2280 N   0  0  0  0  0  1  0  0  0  0  0  0
  186.3850  176.9950  136.8740 C   0  0  1  0  0  3  0  0  0  0  0  0
  188.3680  174.9050  134.8230 C   0  0  0  0  0  1  0  0  0  0  0  0
  188.4990  175.8970  137.0350 N   0  0  0  0  0  2  0  0  0  0  0  0
  188.1810  176.1690  135.6400 C   0  0  2  0  0  3  0  0  0  0  0  0
  1 10  1  0  0  0  0
  2  6  1  0  0  0  0
  3  5  1  0  0  0  0
  3  9  2  0  0  0  0
  4  9  1  0  0  0  0
  5  1  2  0  0  0  0
  6  8  2  0  0  0  0
  7 15  1  0  0  0  0
  7  8  1  0  0  0  0
  9 11  1  0  0  0  0
 10  7  2  0  0  0  0
 11 10  1  0  0  0  0
 11  2  2  0  0  0  0
 12 17  1  1  0  0  0
 13 12  1  0  0  0  0
 14 15  1  0  0  0  0
 14 16  1  0  0  0  0
 15 13  1  0  0  0  0
 16 18  1  6  0  0  0
 16 12  1  0  0  0  0
 19 18  1  0  0  0  0
 19 31  1  0  0  0  0
 20 22  1  0  0  0  0
 20 26  1  0  0  0  0
 21 23  1  0  0  0  0
 22 19  1  0  0  0  0
 23 22  2  0  0  0  0
 24 21  2  0  0  0  0
 24 25  1  0  0  0  0
 25 20  2  0  0  0  0
 26 27  1  0  0  0  0
 27 28  1  0  0  0  0
 28 29  1  0  0  0  0
 31 30  1  0  0  0  0
 32 33  2  0  0  0  0
 33  5  1  0  0  0  0
 34 36  1  0  0  0  0
 35 33  1  6  0  0  0
 36 41  1  0  0  0  0
 36 38  1  0  0  0  0
 38 37  1  1  0  0  0
 38 35  1  0  0  0  0
 40 35  1  0  0  0  0
 41 39  1  6  0  0  0
 41 40  1  0  0  0  0
M  END
>  <MODEL>
7

>  <REMARK>
 VINA RESULT:      -8.1      2.299      4.407
  Name = 
  10 active torsions:
  status: ('A' for Active; 'I' for Inactive)
    1  A    between atoms: C_2  and  C_39
    2  A    between atoms: C_3  and  O_20
    3  A    between atoms: C_11  and  C_32
    4  A    between atoms: C_12  and  C_32
    5  A    between atoms: C_16  and  N_22
    6  A    between atoms: O_20  and  C_39
    7  A    between atoms: C_21  and  N_26
    8  A    between atoms: N_22  and  O_28
    9  A    between atoms: N_22  and  C_29
   10  A    between atoms: O_28  and  C_36
                            x       y       z     vdW  Elec       q    Type
                         _______ _______ _______ _____ _____    ______ ____

>  <TORSDO>
F 10

$$$$
=
 OpenBabel11062415163D

 41 45  0  0  1  0  0  0  0  0999 V2000
  186.2090  178.3790  142.3900 C   0  0  0  0  0  3  0  0  0  0  0  0
  186.2210  178.0770  146.0490 N   0  0  0  0  0  0  0  0  0  0  0  0
  183.9980  178.8530  143.2430 C   0  0  0  0  0  3  0  0  0  0  0  0
  183.5300  178.7790  145.6290 N   0  0  0  0  0  1  0  0  0  0  0  0
  184.8710  178.7180  142.1550 C   0  0  0  0  0  0  0  0  0  0  0  0
  187.5050  177.7270  146.3150 C   0  0  0  0  0  3  0  0  0  0  0  0
  188.0350  177.8350  143.9510 C   0  0  0  0  0  0  0  0  0  0  0  0
  188.4250  177.5990  145.2760 C   0  0  0  0  0  3  0  0  0  0  0  0
  184.4470  178.6480  144.5460 C   0  0  0  0  0  0  0  0  0  0  0  0
  186.6870  178.1820  143.6930 C   0  0  0  0  0  0  0  0  0  0  0  0
  185.7870  178.3060  144.7800 C   0  0  0  0  0  0  0  0  0  0  0  0
  191.1540  177.6340  141.8730 C   0  0  2  0  0  3  0  0  0  0  0  0
  190.3360  178.3080  142.9560 C   0  0  0  0  0  2  0  0  0  0  0  0
  188.8810  176.7550  141.8230 C   0  0  0  0  0  2  0  0  0  0  0  0
  189.0170  177.7090  142.9050 N   0  0  0  0  0  0  0  0  0  0  0  0
  190.1780  176.8120  141.0420 C   0  0  1  0  0  3  0  0  0  0  0  0
  192.1590  176.7020  142.5180 C   0  0  0  0  0  1  0  0  0  0  0  0
  189.9600  177.4520  139.8170 O   0  0  0  0  0  0  0  0  0  0  0  0
  190.5100  176.6360  138.8820 N   0  0  0  0  0  0  0  0  0  0  0  0
  188.3100  176.0770  137.8250 C   0  0  0  0  0  0  0  0  0  0  0  0
  189.4780  173.7620  136.7350 C   0  0  0  0  0  3  0  0  0  0  0  0
  189.6650  175.7620  138.1110 C   0  0  0  0  0  0  0  0  0  0  0  0
  190.2230  174.5900  137.5790 C   0  0  0  0  0  3  0  0  0  0  0  0
  188.1640  174.1030  136.4100 C   0  0  0  0  0  3  0  0  0  0  0  0
  187.5870  175.2550  136.9520 C   0  0  0  0  0  3  0  0  0  0  0  0
  187.6380  177.1650  138.3970 O   0  0  0  0  0  0  0  0  0  0  0  0
  186.9840  178.1580  137.6210 C   0  0  0  0  0  2  0  0  0  0  0  0
  187.9780  178.8180  136.6870 C   0  0  0  0  0  2  0  0  0  0  0  0
  188.8870  179.6580  137.4470 N   0  0  0  0  0  1  0  0  0  0  0  0
  192.4570  176.8350  137.6020 O   0  0  0  0  0  1  0  0  0  0  0  0
  191.9600  176.4820  138.8570 C   0  0  0  0  0  2  0  0  0  0  0  0
  184.9800  179.7410  140.0140 O   0  0  0  0  0  0  0  0  0  0  0  0
  184.3870  178.9220  140.7730 C   0  0  0  0  0  0  0  0  0  0  0  0
  181.7690  180.3690  138.2090 C   0  0  0  0  0  1  0  0  0  0  0  0
  183.2360  178.1120  140.2450 C   0  0  1  0  0  3  0  0  0  0  0  0
  181.7060  178.9780  138.6250 N   0  0  0  0  0  0  0  0  0  0  0  0
  180.8830  178.3340  140.7540 N   0  0  0  0  0  1  0  0  0  0  0  0
  181.9930  178.9500  140.0500 C   0  0  1  0  0  3  0  0  0  0  0  0
  182.2850  177.3460  136.9110 C   0  0  0  0  0  1  0  0  0  0  0  0
  183.5780  177.5380  138.9570 N   0  0  0  0  0  2  0  0  0  0  0  0
  182.8150  178.2920  137.9710 C   0  0  2  0  0  3  0  0  0  0  0  0
  1 10  1  0  0  0  0
  2  6  1  0  0  0  0
  3  9  2  0  0  0  0
  5  1  2  0  0  0  0
  5  3  1  0  0  0  0
  7  8  1  0  0  0  0
  8  6  2  0  0  0  0
  9 11  1  0  0  0  0
  9  4  1  0  0  0  0
 10  7  2  0  0  0  0
 10 11  1  0  0  0  0
 11  2  2  0  0  0  0
 12 17  1  1  0  0  0
 12 13  1  0  0  0  0
 14 15  1  0  0  0  0
 15 13  1  0  0  0  0
 15  7  1  0  0  0  0
 16 18  1  6  0  0  0
 16 14  1  0  0  0  0
 16 12  1  0  0  0  0
 19 18  1  0  0  0  0
 20 22  1  0  0  0  0
 20 26  1  0  0  0  0
 21 23  1  0  0  0  0
 22 19  1  0  0  0  0
 23 22  2  0  0  0  0
 24 21  2  0  0  0  0
 24 25  1  0  0  0  0
 25 20  2  0  0  0  0
 27 26  1  0  0  0  0
 28 29  1  0  0  0  0
 28 27  1  0  0  0  0
 30 31  1  0  0  0  0
 31 19  1  0  0  0  0
 32 33  2  0  0  0  0
 33  5  1  0  0  0  0
 34 36  1  0  0  0  0
 35 33  1  6  0  0  0
 36 38  1  0  0  0  0
 38 35  1  0  0  0  0
 38 37  1  1  0  0  0
 40 35  1  0  0  0  0
 41 39  1  6  0  0  0
 41 36  1  0  0  0  0
 41 40  1  0  0  0  0
M  END
>  <MODEL>
8

>  <REMARK>
 VINA RESULT:      -8.1      2.293      7.296
  Name = 
  10 active torsions:
  status: ('A' for Active; 'I' for Inactive)
    1  A    between atoms: C_2  and  C_39
    2  A    between atoms: C_3  and  O_20
    3  A    between atoms: C_11  and  C_32
    4  A    between atoms: C_12  and  C_32
    5  A    between atoms: C_16  and  N_22
    6  A    between atoms: O_20  and  C_39
    7  A    between atoms: C_21  and  N_26
    8  A    between atoms: N_22  and  O_28
    9  A    between atoms: N_22  and  C_29
   10  A    between atoms: O_28  and  C_36
                            x       y       z     vdW  Elec       q    Type
                         _______ _______ _______ _____ _____    ______ ____

>  <TORSDO>
F 10

$$$$
=
 OpenBabel11062415163D

 41 45  0  0  1  0  0  0  0  0999 V2000
  186.1750  178.4110  142.5910 C   0  0  0  0  0  3  0  0  0  0  0  0
  186.1240  178.0740  146.2470 N   0  0  0  0  0  0  0  0  0  0  0  0
  183.9420  178.8430  143.4070 C   0  0  0  0  0  3  0  0  0  0  0  0
  183.4320  178.7390  145.7840 N   0  0  0  0  0  1  0  0  0  0  0  0
  184.8360  178.7310  142.3350 C   0  0  0  0  0  0  0  0  0  0  0  0
  187.4080  177.7420  146.5330 C   0  0  0  0  0  3  0  0  0  0  0  0
  187.9810  177.8800  144.1810 C   0  0  0  0  0  0  0  0  0  0  0  0
  188.3490  177.6380  145.5110 C   0  0  0  0  0  3  0  0  0  0  0  0
  184.3700  178.6320  144.7170 C   0  0  0  0  0  0  0  0  0  0  0  0
  186.6330  178.2090  143.9010 C   0  0  0  0  0  0  0  0  0  0  0  0
  185.7100  178.3090  144.9730 C   0  0  0  0  0  0  0  0  0  0  0  0
  191.1330  177.5450  142.1730 C   0  0  2  0  0  3  0  0  0  0  0  0
  190.3730  178.1490  143.3360 C   0  0  0  0  0  2  0  0  0  0  0  0
  188.7600  177.0500  141.9190 C   0  0  0  0  0  2  0  0  0  0  0  0
  188.9840  177.7790  143.1520 N   0  0  0  0  0  0  0  0  0  0  0  0
  190.0890  177.0350  141.1900 C   0  0  1  0  0  3  0  0  0  0  0  0
  191.9550  176.3750  142.6720 C   0  0  0  0  0  1  0  0  0  0  0  0
  190.0290  177.8950  140.0880 O   0  0  0  0  0  0  0  0  0  0  0  0
  190.0320  177.0860  138.9990 N   0  0  0  0  0  0  0  0  0  0  0  0
  188.4950  175.7070  137.5830 C   0  0  0  0  0  0  0  0  0  0  0  0
  186.7110  177.8780  137.4910 C   0  0  0  0  0  3  0  0  0  0  0  0
  188.8320  176.9310  138.2210 C   0  0  0  0  0  0  0  0  0  0  0  0
  187.9400  178.0110  138.1420 C   0  0  0  0  0  3  0  0  0  0  0  0
  186.3580  176.6580  136.9140 C   0  0  0  0  0  3  0  0  0  0  0  0
  187.2470  175.5790  136.9630 C   0  0  0  0  0  3  0  0  0  0  0  0
  189.3660  174.6110  137.5170 O   0  0  0  0  0  0  0  0  0  0  0  0
  189.4860  173.7930  136.3630 C   0  0  0  0  0  2  0  0  0  0  0  0
  190.8280  174.0290  135.7010 C   0  0  0  0  0  2  0  0  0  0  0  0
  191.8780  173.3830  136.4690 N   0  0  0  0  0  1  0  0  0  0  0  0
  192.0040  176.7180  137.7970 O   0  0  0  0  0  1  0  0  0  0  0  0
  191.1740  176.2010  138.7910 C   0  0  0  0  0  2  0  0  0  0  0  0
  184.9890  179.7510  140.1950 O   0  0  0  0  0  0  0  0  0  0  0  0
  184.3750  178.9410  140.9460 C   0  0  0  0  0  0  0  0  0  0  0  0
  181.8100  180.4210  138.3480 C   0  0  0  0  0  1  0  0  0  0  0  0
  183.2210  178.1450  140.4020 C   0  0  1  0  0  3  0  0  0  0  0  0
  181.7240  179.0300  138.7620 N   0  0  0  0  0  0  0  0  0  0  0  0
  180.8650  178.3950  140.8790 N   0  0  0  0  0  1  0  0  0  0  0  0
  181.9910  178.9980  140.1900 C   0  0  1  0  0  3  0  0  0  0  0  0
  182.3050  177.3930  137.0550 C   0  0  0  0  0  1  0  0  0  0  0  0
  183.5730  177.5680  139.1180 N   0  0  0  0  0  2  0  0  0  0  0  0
  182.8330  178.3310  138.1230 C   0  0  2  0  0  3  0  0  0  0  0  0
  1 10  1  0  0  0  0
  2  6  1  0  0  0  0
  3  9  2  0  0  0  0
  5  1  2  0  0  0  0
  5  3  1  0  0  0  0
  7  8  1  0  0  0  0
  8  6  2  0  0  0  0
  9 11  1  0  0  0  0
  9  4  1  0  0  0  0
 10  7  2  0  0  0  0
 10 11  1  0  0  0  0
 11  2  2  0  0  0  0
 12 17  1  1  0  0  0
 12 13  1  0  0  0  0
 14 15  1  0  0  0  0
 15 13  1  0  0  0  0
 15  7  1  0  0  0  0
 16 18  1  6  0  0  0
 16 14  1  0  0  0  0
 16 12  1  0  0  0  0
 19 18  1  0  0  0  0
 20 22  1  0  0  0  0
 21 23  1  0  0  0  0
 22 19  1  0  0  0  0
 23 22  2  0  0  0  0
 24 25  1  0  0  0  0
 24 21  2  0  0  0  0
 25 20  2  0  0  0  0
 26 20  1  0  0  0  0
 27 26  1  0  0  0  0
 28 27  1  0  0  0  0
 28 29  1  0  0  0  0
 30 31  1  0  0  0  0
 31 19  1  0  0  0  0
 32 33  2  0  0  0  0
 33  5  1  0  0  0  0
 34 36  1  0  0  0  0
 35 33  1  6  0  0  0
 36 38  1  0  0  0  0
 38 35  1  0  0  0  0
 38 37  1  1  0  0  0
 40 35  1  0  0  0  0
 41 39  1  6  0  0  0
 41 36  1  0  0  0  0
 41 40  1  0  0  0  0
M  END
>  <MODEL>
9

>  <REMARK>
 VINA RESULT:      -7.9      2.399      7.570
  Name = 
  10 active torsions:
  status: ('A' for Active; 'I' for Inactive)
    1  A    between atoms: C_2  and  C_39
    2  A    between atoms: C_3  and  O_20
    3  A    between atoms: C_11  and  C_32
    4  A    between atoms: C_12  and  C_32
    5  A    between atoms: C_16  and  N_22
    6  A    between atoms: O_20  and  C_39
    7  A    between atoms: C_21  and  N_26
    8  A    between atoms: N_22  and  O_28
    9  A    between atoms: N_22  and  C_29
   10  A    between atoms: O_28  and  C_36
                            x       y       z     vdW  Elec       q    Type
                         _______ _______ _______ _____ _____    ______ ____

>  <TORSDO>
F 10

$$$$
