=
 OpenBabel11062414493D

 33 35  0  0  1  0  0  0  0  0999 V2000
  186.7490  178.4400  146.4830 C   0  0  0  0  0  2  0  0  0  0  0  0
  185.2670  178.5170  146.1490 C   0  0  0  0  0  2  0  0  0  0  0  0
  185.0590  179.2440  144.8340 C   0  0  0  0  0  2  0  0  0  0  0  0
  183.8320  178.6960  144.1380 C   0  0  0  0  0  2  0  0  0  0  0  0
  185.6870  178.1750  142.5980 C   0  0  0  0  0  1  0  0  0  0  0  0
  184.1790  178.2760  142.7220 C   0  0  2  0  0  3  0  0  0  0  0  0
  183.7010  179.2370  141.8230 O   0  0  0  0  0  0  0  0  0  0  0  0
  181.2540  179.5720  139.6410 N   0  0  0  0  0  2  0  0  0  0  0  0
  184.7250  179.8500  139.5310 O   0  0  0  0  0  1  0  0  0  0  0  0
  182.4240  179.8930  138.8490 C   0  0  0  0  0  2  0  0  0  0  0  0
  181.6610  178.7960  140.7460 C   0  0  0  0  0  0  0  0  0  0  0  0
  183.5850  179.0460  139.4020 C   0  0  2  0  0  0  0  0  0  0  0  0
  180.8510  178.3820  141.6140 O   0  0  0  0  0  0  0  0  0  0  0  0
  183.1120  178.5170  140.7760 C   0  0  1  0  0  3  0  0  0  0  0  0
  185.2750  177.9340  137.8720 C   0  0  0  0  0  1  0  0  0  0  0  0
  182.8680  177.7850  137.3200 C   0  0  0  0  0  1  0  0  0  0  0  0
  183.8740  177.8640  138.4590 C   0  0  0  0  0  3  0  0  0  0  0  0
  187.4610  177.3760  145.6540 C   0  0  0  0  0  2  0  0  0  0  0  0
  189.6510  178.4300  144.8360 C   0  0  0  0  0  2  0  0  0  0  0  0
  189.9160  176.9340  144.7140 C   0  0  1  0  0  3  0  0  0  0  0  0
  188.9850  177.4680  145.7960 C   0  0  2  0  0  0  0  0  0  0  0  0
  189.0850  176.3950  147.6830 O   0  0  0  0  0  1  0  0  0  0  0  0
  189.5450  177.4760  147.0840 O   0  0  0  0  0  0  0  0  0  0  0  0
  189.1690  176.3710  143.5120 C   0  0  0  0  0  2  0  0  0  0  0  0
  189.9670  176.5540  142.2570 C   0  0  0  0  0  0  0  0  0  0  0  0
  191.1860  176.5310  142.3270 O   0  0  0  0  0  0  0  0  0  0  0  0
  188.7260  178.2000  140.8730 C   0  0  0  0  0  2  0  0  0  0  0  0
  190.4470  176.6140  139.4980 S   0  0  0  0  0  0  0  0  0  0  0  0
  188.5430  178.5350  139.4150 C   0  0  0  0  0  2  0  0  0  0  0  0
  189.8230  178.1330  138.7150 C   0  0  2  0  0  3  0  0  0  0  0  0
  189.3160  176.8060  140.9220 C   0  0  1  0  0  3  0  0  0  0  0  0
  188.5750  178.7460  136.7760 O   0  0  0  0  0  1  0  0  0  0  0  0
  189.5680  177.8840  137.2400 C   0  0  0  0  0  2  0  0  0  0  0  0
  2  1  1  0  0  0  0
  3  2  1  0  0  0  0
  4  3  1  0  0  0  0
  6  5  1  1  0  0  0
  6  4  1  0  0  0  0
  7  6  1  0  0  0  0
  8 11  1  0  0  0  0
 10 12  1  0  0  0  0
 10  8  1  0  0  0  0
 11 14  1  0  0  0  0
 11 13  2  0  0  0  0
 12  9  1  1  0  0  0
 12 14  1  0  0  0  0
 14  7  1  1  0  0  0
 15 17  1  0  0  0  0
 16 17  1  0  0  0  0
 17 12  1  0  0  0  0
 18  1  1  0  0  0  0
 19 21  1  0  0  0  0
 20 24  1  6  0  0  0
 20 19  1  0  0  0  0
 20 21  1  0  0  0  0
 21 18  1  6  0  0  0
 21 23  1  0  0  0  0
 23 22  1  0  0  0  0
 25 26  2  0  0  0  0
 25 24  1  0  0  0  0
 27 31  1  0  0  0  0
 28 31  1  0  0  0  0
 29 27  1  0  0  0  0
 30 33  1  6  0  0  0
 30 29  1  0  0  0  0
 30 28  1  0  0  0  0
 31 25  1  1  0  0  0
 32 33  1  0  0  0  0
M  END
>  <MODEL>
1

>  <REMARK>
 VINA RESULT:      -7.1      0.000      0.000
  Name = 
  14 active torsions:
  status: ('A' for Active; 'I' for Inactive)
    1  A    between atoms: C_4  and  C_9
    2  A    between atoms: C_4  and  C_25
    3  A    between atoms: C_9  and  O_23
    4  A    between atoms: C_10  and  C_25
    5  A    between atoms: C_10  and  C_28
    6  A    between atoms: C_12  and  C_13
    7  A    between atoms: C_12  and  C_30
    8  A    between atoms: C_13  and  C_27
    9  A    between atoms: C_16  and  C_28
   10  A    between atoms: C_16  and  C_31
   11  A    between atoms: C_17  and  C_22
   12  A    between atoms: O_18  and  C_31
   13  A    between atoms: O_23  and  C_33
   14  A    between atoms: C_24  and  C_26
                            x       y       z     vdW  Elec       q    Type
                         _______ _______ _______ _____ _____    ______ ____

>  <TORSDO>
F 14

$$$$
=
 OpenBabel11062414493D

 33 35  0  0  1  0  0  0  0  0999 V2000
  187.0420  178.0240  144.9140 C   0  0  0  0  0  2  0  0  0  0  0  0
  185.7990  178.2260  145.7670 C   0  0  0  0  0  2  0  0  0  0  0  0
  184.7030  178.8870  144.9540 C   0  0  0  0  0  2  0  0  0  0  0  0
  184.7110  178.3330  143.5450 C   0  0  0  0  0  2  0  0  0  0  0  0
  182.3190  178.9270  143.6460 C   0  0  0  0  0  1  0  0  0  0  0  0
  183.5460  178.9010  142.7550 C   0  0  2  0  0  3  0  0  0  0  0  0
  183.2980  178.0870  141.6440 O   0  0  0  0  0  0  0  0  0  0  0  0
  183.4990  178.4820  138.3790 N   0  0  0  0  0  2  0  0  0  0  0  0
  181.1300  177.1740  140.5730 O   0  0  0  0  0  1  0  0  0  0  0  0
  182.2200  177.8170  138.5340 C   0  0  0  0  0  2  0  0  0  0  0  0
  183.8280  179.1090  139.5970 C   0  0  0  0  0  0  0  0  0  0  0  0
  181.6360  178.2820  139.8810 C   0  0  2  0  0  0  0  0  0  0  0  0
  184.8950  179.7550  139.7570 O   0  0  0  0  0  0  0  0  0  0  0  0
  182.8040  178.9410  140.6500 C   0  0  1  0  0  3  0  0  0  0  0  0
  180.1830  180.0880  140.9100 C   0  0  0  0  0  1  0  0  0  0  0  0
  179.2480  178.6690  139.1120 C   0  0  0  0  0  1  0  0  0  0  0  0
  180.5190  179.3140  139.6450 C   0  0  0  0  0  3  0  0  0  0  0  0
  187.9210  176.8990  145.4510 C   0  0  0  0  0  2  0  0  0  0  0  0
  189.8730  178.3730  144.6800 C   0  0  0  0  0  2  0  0  0  0  0  0
  190.4860  176.9780  144.7330 C   0  0  1  0  0  3  0  0  0  0  0  0
  189.3620  177.3650  145.6880 C   0  0  2  0  0  0  0  0  0  0  0  0
  188.8490  177.1130  147.7840 O   0  0  0  0  0  1  0  0  0  0  0  0
  189.7850  177.6150  147.0020 O   0  0  0  0  0  0  0  0  0  0  0  0
  190.0020  176.1540  143.5470 C   0  0  0  0  0  2  0  0  0  0  0  0
  190.5320  176.7120  142.2610 C   0  0  0  0  0  0  0  0  0  0  0  0
  191.6850  177.1120  142.2240 O   0  0  0  0  0  0  0  0  0  0  0  0
  188.5600  177.8290  141.2470 C   0  0  0  0  0  2  0  0  0  0  0  0
  190.6020  177.3320  139.5300 S   0  0  0  0  0  0  0  0  0  0  0  0
  188.0770  178.2400  139.8800 C   0  0  0  0  0  2  0  0  0  0  0  0
  189.3130  178.5220  139.0530 C   0  0  2  0  0  3  0  0  0  0  0  0
  189.6780  176.8310  141.0260 C   0  0  1  0  0  3  0  0  0  0  0  0
  188.2310  179.4600  137.1440 O   0  0  0  0  0  1  0  0  0  0  0  0
  189.0060  178.3830  137.5730 C   0  0  0  0  0  2  0  0  0  0  0  0
  1 18  1  0  0  0  0
  1  2  1  0  0  0  0
  3  2  1  0  0  0  0
  4  3  1  0  0  0  0
  6  4  1  0  0  0  0
  6  5  1  1  0  0  0
  7  6  1  0  0  0  0
  8 10  1  0  0  0  0
  8 11  1  0  0  0  0
 10 12  1  0  0  0  0
 11 13  2  0  0  0  0
 11 14  1  0  0  0  0
 12  9  1  1  0  0  0
 12 14  1  0  0  0  0
 14  7  1  1  0  0  0
 16 17  1  0  0  0  0
 17 12  1  0  0  0  0
 17 15  1  0  0  0  0
 19 20  1  0  0  0  0
 19 21  1  0  0  0  0
 20 24  1  6  0  0  0
 20 21  1  0  0  0  0
 21 18  1  6  0  0  0
 21 23  1  0  0  0  0
 23 22  1  0  0  0  0
 25 24  1  0  0  0  0
 26 25  2  0  0  0  0
 28 31  1  0  0  0  0
 29 27  1  0  0  0  0
 30 33  1  6  0  0  0
 30 28  1  0  0  0  0
 30 29  1  0  0  0  0
 31 27  1  0  0  0  0
 31 25  1  1  0  0  0
 32 33  1  0  0  0  0
M  END
>  <MODEL>
2

>  <REMARK>
 VINA RESULT:      -7.1      1.150      2.234
  Name = 
  14 active torsions:
  status: ('A' for Active; 'I' for Inactive)
    1  A    between atoms: C_4  and  C_9
    2  A    between atoms: C_4  and  C_25
    3  A    between atoms: C_9  and  O_23
    4  A    between atoms: C_10  and  C_25
    5  A    between atoms: C_10  and  C_28
    6  A    between atoms: C_12  and  C_13
    7  A    between atoms: C_12  and  C_30
    8  A    between atoms: C_13  and  C_27
    9  A    between atoms: C_16  and  C_28
   10  A    between atoms: C_16  and  C_31
   11  A    between atoms: C_17  and  C_22
   12  A    between atoms: O_18  and  C_31
   13  A    between atoms: O_23  and  C_33
   14  A    between atoms: C_24  and  C_26
                            x       y       z     vdW  Elec       q    Type
                         _______ _______ _______ _____ _____    ______ ____

>  <TORSDO>
F 14

$$$$
=
 OpenBabel11062414493D

 33 35  0  0  1  0  0  0  0  0999 V2000
  184.1310  179.2450  143.1340 C   0  0  0  0  0  2  0  0  0  0  0  0
  184.1260  178.7630  144.5770 C   0  0  0  0  0  2  0  0  0  0  0  0
  185.4960  178.9450  145.1990 C   0  0  0  0  0  2  0  0  0  0  0  0
  186.2080  177.6100  145.2600 C   0  0  0  0  0  2  0  0  0  0  0  0
  187.3380  177.3300  143.0850 C   0  0  0  0  0  1  0  0  0  0  0  0
  187.5420  177.6970  144.5410 C   0  0  2  0  0  3  0  0  0  0  0  0
  188.4440  176.8000  145.1260 O   0  0  0  0  0  0  0  0  0  0  0  0
  191.2010  176.6390  146.9230 N   0  0  0  0  0  2  0  0  0  0  0  0
  190.3500  175.9110  143.6250 O   0  0  0  0  0  1  0  0  0  0  0  0
  191.6340  176.1190  145.6420 C   0  0  0  0  0  2  0  0  0  0  0  0
  190.0500  177.4270  146.7200 C   0  0  0  0  0  0  0  0  0  0  0  0
  190.8080  176.8440  144.5630 C   0  0  2  0  0  0  0  0  0  0  0  0
  189.4480  177.9980  147.6660 O   0  0  0  0  0  0  0  0  0  0  0  0
  189.6320  177.5190  145.3060 C   0  0  1  0  0  3  0  0  0  0  0  0
  191.0590  179.3020  143.9890 C   0  0  0  0  0  1  0  0  0  0  0  0
  191.8930  177.6010  142.3970 C   0  0  0  0  0  1  0  0  0  0  0  0
  191.6700  177.9140  143.8690 C   0  0  0  0  0  3  0  0  0  0  0  0
  184.0360  178.0850  142.1480 C   0  0  0  0  0  2  0  0  0  0  0  0
  183.3180  177.4430  139.7720 C   0  0  0  0  0  2  0  0  0  0  0  0
  184.0190  178.7830  139.5760 C   0  0  1  0  0  3  0  0  0  0  0  0
  183.2800  178.4800  140.8750 C   0  0  2  0  0  0  0  0  0  0  0  0
  181.1310  178.1770  140.9740 O   0  0  0  0  0  1  0  0  0  0  0  0
  182.0420  179.1300  140.9970 O   0  0  0  0  0  0  0  0  0  0  0  0
  185.5260  178.6010  139.6930 C   0  0  0  0  0  2  0  0  0  0  0  0
  186.1180  178.2030  138.3750 C   0  0  0  0  0  0  0  0  0  0  0  0
  185.3660  177.9270  137.4530 O   0  0  0  0  0  0  0  0  0  0  0  0
  188.3490  178.4230  139.4410 C   0  0  0  0  0  2  0  0  0  0  0  0
  188.1550  176.4490  137.5890 S   0  0  0  0  0  0  0  0  0  0  0  0
  189.7310  177.8400  139.2930 C   0  0  0  0  0  2  0  0  0  0  0  0
  189.5520  176.4370  138.7540 C   0  0  2  0  0  3  0  0  0  0  0  0
  187.6050  178.0960  138.1630 C   0  0  1  0  0  3  0  0  0  0  0  0
  190.8830  174.5840  138.0560 O   0  0  0  0  0  1  0  0  0  0  0  0
  190.8110  175.9760  138.0430 C   0  0  0  0  0  2  0  0  0  0  0  0
  1  2  1  0  0  0  0
  2  3  1  0  0  0  0
  3  4  1  0  0  0  0
  6  5  1  6  0  0  0
  6  7  1  0  0  0  0
  6  4  1  0  0  0  0
 10  8  1  0  0  0  0
 11  8  1  0  0  0  0
 11 13  2  0  0  0  0
 12  9  1  6  0  0  0
 12 14  1  0  0  0  0
 12 10  1  0  0  0  0
 14  7  1  1  0  0  0
 14 11  1  0  0  0  0
 16 17  1  0  0  0  0
 17 15  1  0  0  0  0
 17 12  1  0  0  0  0
 18  1  1  0  0  0  0
 19 21  1  0  0  0  0
 20 24  1  1  0  0  0
 20 19  1  0  0  0  0
 20 21  1  0  0  0  0
 21 23  1  0  0  0  0
 21 18  1  1  0  0  0
 22 23  1  0  0  0  0
 25 24  1  0  0  0  0
 26 25  2  0  0  0  0
 28 31  1  0  0  0  0
 28 30  1  0  0  0  0
 29 27  1  0  0  0  0
 30 33  1  6  0  0  0
 30 29  1  0  0  0  0
 31 25  1  1  0  0  0
 31 27  1  0  0  0  0
 33 32  1  0  0  0  0
M  END
>  <MODEL>
3

>  <REMARK>
 VINA RESULT:      -7.0      2.813      7.176
  Name = 
  14 active torsions:
  status: ('A' for Active; 'I' for Inactive)
    1  A    between atoms: C_4  and  C_9
    2  A    between atoms: C_4  and  C_25
    3  A    between atoms: C_9  and  O_23
    4  A    between atoms: C_10  and  C_25
    5  A    between atoms: C_10  and  C_28
    6  A    between atoms: C_12  and  C_13
    7  A    between atoms: C_12  and  C_30
    8  A    between atoms: C_13  and  C_27
    9  A    between atoms: C_16  and  C_28
   10  A    between atoms: C_16  and  C_31
   11  A    between atoms: C_17  and  C_22
   12  A    between atoms: O_18  and  C_31
   13  A    between atoms: O_23  and  C_33
   14  A    between atoms: C_24  and  C_26
                            x       y       z     vdW  Elec       q    Type
                         _______ _______ _______ _____ _____    ______ ____

>  <TORSDO>
F 14

$$$$
=
 OpenBabel11062414493D

 33 35  0  0  1  0  0  0  0  0999 V2000
  190.1240  178.3650  144.9090 C   0  0  0  0  0  2  0  0  0  0  0  0
  191.3220  177.9040  144.0930 C   0  0  0  0  0  2  0  0  0  0  0  0
  190.8970  176.8690  143.0690 C   0  0  0  0  0  2  0  0  0  0  0  0
  191.5450  177.1770  141.7360 C   0  0  0  0  0  2  0  0  0  0  0  0
  189.1150  177.2130  141.3090 C   0  0  0  0  0  1  0  0  0  0  0  0
  190.4820  177.3250  140.6620 C   0  0  2  0  0  3  0  0  0  0  0  0
  190.6340  176.3060  139.7150 O   0  0  0  0  0  0  0  0  0  0  0  0
  192.1950  175.6720  136.8830 N   0  0  0  0  0  2  0  0  0  0  0  0
  188.8640  175.8430  137.8890 O   0  0  0  0  0  1  0  0  0  0  0  0
  190.8030  175.5090  136.5140 C   0  0  0  0  0  2  0  0  0  0  0  0
  192.2610  176.4870  138.0320 C   0  0  0  0  0  0  0  0  0  0  0  0
  189.9940  176.4950  137.3770 C   0  0  2  0  0  0  0  0  0  0  0  0
  193.3510  176.7880  138.5830 O   0  0  0  0  0  0  0  0  0  0  0  0
  190.9420  176.9510  138.5110 C   0  0  1  0  0  3  0  0  0  0  0  0
  188.9540  178.8080  137.3870 C   0  0  0  0  0  1  0  0  0  0  0  0
  188.5810  177.3270  135.4400 C   0  0  0  0  0  1  0  0  0  0  0  0
  189.5680  177.7090  136.5330 C   0  0  0  0  0  3  0  0  0  0  0  0
  189.4340  177.1990  145.6090 C   0  0  0  0  0  2  0  0  0  0  0  0
  188.1850  176.4990  147.7370 C   0  0  0  0  0  2  0  0  0  0  0  0
  187.5040  177.8050  147.3450 C   0  0  1  0  0  3  0  0  0  0  0  0
  188.9760  177.5750  147.0230 C   0  0  2  0  0  0  0  0  0  0  0  0
  190.8700  177.4500  148.0830 O   0  0  0  0  0  1  0  0  0  0  0  0
  189.8630  178.2720  147.8580 O   0  0  0  0  0  0  0  0  0  0  0  0
  186.5910  177.5750  146.1480 C   0  0  0  0  0  2  0  0  0  0  0  0
  185.6430  178.7230  145.9740 C   0  0  0  0  0  0  0  0  0  0  0  0
  185.2490  179.3140  146.9660 O   0  0  0  0  0  0  0  0  0  0  0  0
  185.8060  178.3410  143.5260 C   0  0  0  0  0  2  0  0  0  0  0  0
  183.3220  178.9640  144.4250 S   0  0  0  0  0  0  0  0  0  0  0  0
  184.9280  178.4610  142.3060 C   0  0  0  0  0  2  0  0  0  0  0  0
  183.5070  178.2280  142.7730 C   0  0  2  0  0  3  0  0  0  0  0  0
  185.1310  179.1420  144.6210 C   0  0  1  0  0  3  0  0  0  0  0  0
  183.0810  178.9470  140.5370 O   0  0  0  0  0  1  0  0  0  0  0  0
  182.5200  178.8650  141.8120 C   0  0  0  0  0  2  0  0  0  0  0  0
  1 18  1  0  0  0  0
  2  1  1  0  0  0  0
  3  2  1  0  0  0  0
  4  3  1  0  0  0  0
  6  5  1  1  0  0  0
  6  4  1  0  0  0  0
  7  6  1  0  0  0  0
  8 11  1  0  0  0  0
 10  8  1  0  0  0  0
 10 12  1  0  0  0  0
 11 14  1  0  0  0  0
 11 13  2  0  0  0  0
 12  9  1  1  0  0  0
 12 14  1  0  0  0  0
 14  7  1  1  0  0  0
 16 17  1  0  0  0  0
 17 12  1  0  0  0  0
 17 15  1  0  0  0  0
 20 24  1  6  0  0  0
 20 19  1  0  0  0  0
 21 18  1  6  0  0  0
 21 20  1  0  0  0  0
 21 19  1  0  0  0  0
 21 23  1  0  0  0  0
 23 22  1  0  0  0  0
 25 24  1  0  0  0  0
 25 26  2  0  0  0  0
 27 31  1  0  0  0  0
 28 31  1  0  0  0  0
 29 30  1  0  0  0  0
 29 27  1  0  0  0  0
 30 33  1  6  0  0  0
 30 28  1  0  0  0  0
 31 25  1  1  0  0  0
 32 33  1  0  0  0  0
M  END
>  <MODEL>
4

>  <REMARK>
 VINA RESULT:      -6.9      3.259      6.836
  Name = 
  14 active torsions:
  status: ('A' for Active; 'I' for Inactive)
    1  A    between atoms: C_4  and  C_9
    2  A    between atoms: C_4  and  C_25
    3  A    between atoms: C_9  and  O_23
    4  A    between atoms: C_10  and  C_25
    5  A    between atoms: C_10  and  C_28
    6  A    between atoms: C_12  and  C_13
    7  A    between atoms: C_12  and  C_30
    8  A    between atoms: C_13  and  C_27
    9  A    between atoms: C_16  and  C_28
   10  A    between atoms: C_16  and  C_31
   11  A    between atoms: C_17  and  C_22
   12  A    between atoms: O_18  and  C_31
   13  A    between atoms: O_23  and  C_33
   14  A    between atoms: C_24  and  C_26
                            x       y       z     vdW  Elec       q    Type
                         _______ _______ _______ _____ _____    ______ ____

>  <TORSDO>
F 14

$$$$
=
 OpenBabel11062414493D

 33 35  0  0  1  0  0  0  0  0999 V2000
  184.7260  179.0080  141.1210 C   0  0  0  0  0  2  0  0  0  0  0  0
  183.9640  179.0140  139.8050 C   0  0  0  0  0  2  0  0  0  0  0  0
  184.5620  178.0050  138.8440 C   0  0  0  0  0  2  0  0  0  0  0  0
  185.8480  178.5560  138.2640 C   0  0  0  0  0  2  0  0  0  0  0  0
  185.7810  176.3120  137.2420 C   0  0  0  0  0  1  0  0  0  0  0  0
  186.2700  177.7360  137.0590 C   0  0  2  0  0  3  0  0  0  0  0  0
  187.6660  177.7390  136.9620 O   0  0  0  0  0  0  0  0  0  0  0  0
  190.3220  175.9530  137.7470 N   0  0  0  0  0  2  0  0  0  0  0  0
  189.0640  179.0630  138.6870 O   0  0  0  0  0  1  0  0  0  0  0  0
  190.5210  177.1630  138.5190 C   0  0  0  0  0  2  0  0  0  0  0  0
  188.9500  175.8340  137.4490 C   0  0  0  0  0  0  0  0  0  0  0  0
  189.1240  177.6810  138.9070 C   0  0  2  0  0  0  0  0  0  0  0  0
  188.4860  174.8780  136.7750 O   0  0  0  0  0  0  0  0  0  0  0  0
  188.1210  176.9230  138.0060 C   0  0  1  0  0  3  0  0  0  0  0  0
  188.1360  178.5220  141.0870 C   0  0  0  0  0  1  0  0  0  0  0  0
  190.1040  177.0230  141.1540 C   0  0  0  0  0  1  0  0  0  0  0  0
  188.8360  177.3670  140.3860 C   0  0  0  0  0  3  0  0  0  0  0  0
  184.1440  178.0020  142.1090 C   0  0  0  0  0  2  0  0  0  0  0  0
  184.5970  179.8850  143.7900 C   0  0  0  0  0  2  0  0  0  0  0  0
  184.7260  178.6220  144.6350 C   0  0  1  0  0  3  0  0  0  0  0  0
  183.7760  178.6610  143.4430 C   0  0  2  0  0  0  0  0  0  0  0  0
  181.7750  178.9910  142.6630 O   0  0  0  0  0  1  0  0  0  0  0  0
  182.4210  178.7710  143.7920 O   0  0  0  0  0  0  0  0  0  0  0  0
  186.0430  177.9230  144.3230 C   0  0  0  0  0  2  0  0  0  0  0  0
  186.9490  177.9390  145.5170 C   0  0  0  0  0  0  0  0  0  0  0  0
  186.6550  178.6460  146.4680 O   0  0  0  0  0  0  0  0  0  0  0  0
  189.3240  177.8580  144.7990 C   0  0  0  0  0  2  0  0  0  0  0  0
  188.8340  176.8150  147.2570 S   0  0  0  0  0  0  0  0  0  0  0  0
  190.6290  177.2800  145.2860 C   0  0  0  0  0  2  0  0  0  0  0  0
  190.5430  177.2330  146.7960 C   0  0  2  0  0  3  0  0  0  0  0  0
  188.2280  177.1450  145.5630 C   0  0  1  0  0  3  0  0  0  0  0  0
  192.4370  176.7950  148.1810 O   0  0  0  0  0  1  0  0  0  0  0  0
  191.4950  176.1890  147.3510 C   0  0  0  0  0  2  0  0  0  0  0  0
  1 18  1  0  0  0  0
  2  1  1  0  0  0  0
  3  2  1  0  0  0  0
  4  3  1  0  0  0  0
  6  5  1  1  0  0  0
  6  4  1  0  0  0  0
  7  6  1  0  0  0  0
  8 10  1  0  0  0  0
 10 12  1  0  0  0  0
 11  8  1  0  0  0  0
 11 14  1  0  0  0  0
 12  9  1  6  0  0  0
 12 17  1  0  0  0  0
 13 11  2  0  0  0  0
 14  7  1  6  0  0  0
 14 12  1  0  0  0  0
 17 15  1  0  0  0  0
 17 16  1  0  0  0  0
 19 20  1  0  0  0  0
 20 24  1  6  0  0  0
 21 18  1  6  0  0  0
 21 19  1  0  0  0  0
 21 23  1  0  0  0  0
 21 20  1  0  0  0  0
 22 23  1  0  0  0  0
 24 25  1  0  0  0  0
 25 26  2  0  0  0  0
 27 29  1  0  0  0  0
 27 31  1  0  0  0  0
 29 30  1  0  0  0  0
 30 28  1  0  0  0  0
 30 33  1  6  0  0  0
 31 25  1  1  0  0  0
 31 28  1  0  0  0  0
 33 32  1  0  0  0  0
M  END
>  <MODEL>
5

>  <REMARK>
 VINA RESULT:      -6.8      2.898      6.990
  Name = 
  14 active torsions:
  status: ('A' for Active; 'I' for Inactive)
    1  A    between atoms: C_4  and  C_9
    2  A    between atoms: C_4  and  C_25
    3  A    between atoms: C_9  and  O_23
    4  A    between atoms: C_10  and  C_25
    5  A    between atoms: C_10  and  C_28
    6  A    between atoms: C_12  and  C_13
    7  A    between atoms: C_12  and  C_30
    8  A    between atoms: C_13  and  C_27
    9  A    between atoms: C_16  and  C_28
   10  A    between atoms: C_16  and  C_31
   11  A    between atoms: C_17  and  C_22
   12  A    between atoms: O_18  and  C_31
   13  A    between atoms: O_23  and  C_33
   14  A    between atoms: C_24  and  C_26
                            x       y       z     vdW  Elec       q    Type
                         _______ _______ _______ _____ _____    ______ ____

>  <TORSDO>
F 14

$$$$
=
 OpenBabel11062414493D

 33 35  0  0  1  0  0  0  0  0999 V2000
  186.2510  178.6480  146.1440 C   0  0  0  0  0  2  0  0  0  0  0  0
  184.7440  178.6240  145.9370 C   0  0  0  0  0  2  0  0  0  0  0  0
  184.3960  179.1000  144.5400 C   0  0  0  0  0  2  0  0  0  0  0  0
  183.0040  178.6310  144.1750 C   0  0  0  0  0  2  0  0  0  0  0  0
  181.1180  179.3220  142.7420 C   0  0  0  0  0  1  0  0  0  0  0  0
  182.6230  179.1470  142.8000 C   0  0  2  0  0  3  0  0  0  0  0  0
  183.0220  178.2200  141.8300 O   0  0  0  0  0  0  0  0  0  0  0  0
  184.6370  178.2270  138.9570 N   0  0  0  0  0  2  0  0  0  0  0  0
  181.5460  177.0550  140.0570 O   0  0  0  0  0  1  0  0  0  0  0  0
  183.4210  177.5100  138.6290 C   0  0  0  0  0  2  0  0  0  0  0  0
  184.3970  179.0160  140.1000 C   0  0  0  0  0  0  0  0  0  0  0  0
  182.3040  178.0990  139.5110 C   0  0  2  0  0  0  0  0  0  0  0  0
  185.2850  179.7400  140.6190 O   0  0  0  0  0  0  0  0  0  0  0  0
  183.0150  178.9160  140.6140 C   0  0  1  0  0  3  0  0  0  0  0  0
  181.5000  178.7200  137.1870 C   0  0  0  0  0  1  0  0  0  0  0  0
  181.7330  180.4940  138.8950 C   0  0  0  0  0  1  0  0  0  0  0  0
  181.4030  179.0260  138.6730 C   0  0  0  0  0  3  0  0  0  0  0  0
  186.8540  177.2480  146.0780 C   0  0  0  0  0  2  0  0  0  0  0  0
  189.1450  178.3380  146.4490 C   0  0  0  0  0  2  0  0  0  0  0  0
  189.4980  176.9330  145.9760 C   0  0  1  0  0  3  0  0  0  0  0  0
  188.2200  177.1830  146.7690 C   0  0  2  0  0  0  0  0  0  0  0  0
  188.2010  177.8600  148.8340 O   0  0  0  0  0  1  0  0  0  0  0  0
  188.2830  176.7620  148.1060 O   0  0  0  0  0  0  0  0  0  0  0  0
  189.2540  176.8140  144.4770 C   0  0  0  0  0  2  0  0  0  0  0  0
  190.3820  177.4310  143.7050 C   0  0  0  0  0  0  0  0  0  0  0  0
  191.4740  177.5340  144.2410 O   0  0  0  0  0  0  0  0  0  0  0  0
  190.8770  177.0530  141.3020 C   0  0  0  0  0  2  0  0  0  0  0  0
  188.4500  178.1580  141.8110 S   0  0  0  0  0  0  0  0  0  0  0  0
  190.2590  177.3630  139.9620 C   0  0  0  0  0  2  0  0  0  0  0  0
  188.7620  177.4180  140.1790 C   0  0  2  0  0  3  0  0  0  0  0  0
  190.2000  177.9610  142.3070 C   0  0  1  0  0  3  0  0  0  0  0  0
  189.0560  179.0160  138.4310 O   0  0  0  0  0  1  0  0  0  0  0  0
  188.0990  178.2540  139.1000 C   0  0  0  0  0  2  0  0  0  0  0  0
  2  1  1  0  0  0  0
  3  2  1  0  0  0  0
  4  3  1  0  0  0  0
  6  5  1  1  0  0  0
  6  4  1  0  0  0  0
  7  6  1  0  0  0  0
  8 11  1  0  0  0  0
 10  8  1  0  0  0  0
 10 12  1  0  0  0  0
 11 14  1  0  0  0  0
 11 13  2  0  0  0  0
 12  9  1  1  0  0  0
 12 14  1  0  0  0  0
 14  7  1  1  0  0  0
 15 17  1  0  0  0  0
 17 16  1  0  0  0  0
 17 12  1  0  0  0  0
 18  1  1  0  0  0  0
 19 21  1  0  0  0  0
 20 24  1  6  0  0  0
 20 19  1  0  0  0  0
 20 21  1  0  0  0  0
 21 18  1  6  0  0  0
 21 23  1  0  0  0  0
 23 22  1  0  0  0  0
 25 26  2  0  0  0  0
 25 24  1  0  0  0  0
 27 31  1  0  0  0  0
 28 31  1  0  0  0  0
 29 30  1  0  0  0  0
 29 27  1  0  0  0  0
 30 33  1  6  0  0  0
 30 28  1  0  0  0  0
 31 25  1  1  0  0  0
 32 33  1  0  0  0  0
M  END
>  <MODEL>
6

>  <REMARK>
 VINA RESULT:      -6.7      1.610      2.442
  Name = 
  14 active torsions:
  status: ('A' for Active; 'I' for Inactive)
    1  A    between atoms: C_4  and  C_9
    2  A    between atoms: C_4  and  C_25
    3  A    between atoms: C_9  and  O_23
    4  A    between atoms: C_10  and  C_25
    5  A    between atoms: C_10  and  C_28
    6  A    between atoms: C_12  and  C_13
    7  A    between atoms: C_12  and  C_30
    8  A    between atoms: C_13  and  C_27
    9  A    between atoms: C_16  and  C_28
   10  A    between atoms: C_16  and  C_31
   11  A    between atoms: C_17  and  C_22
   12  A    between atoms: O_18  and  C_31
   13  A    between atoms: O_23  and  C_33
   14  A    between atoms: C_24  and  C_26
                            x       y       z     vdW  Elec       q    Type
                         _______ _______ _______ _____ _____    ______ ____

>  <TORSDO>
F 14

$$$$
=
 OpenBabel11062414493D

 33 35  0  0  1  0  0  0  0  0999 V2000
  186.3830  178.6410  144.9640 C   0  0  0  0  0  2  0  0  0  0  0  0
  185.8340  178.1530  146.2970 C   0  0  0  0  0  2  0  0  0  0  0  0
  186.7760  178.5280  147.4240 C   0  0  0  0  0  2  0  0  0  0  0  0
  187.2330  177.2750  148.1420 C   0  0  0  0  0  2  0  0  0  0  0  0
  189.2880  178.6350  148.0260 C   0  0  0  0  0  1  0  0  0  0  0  0
  188.7490  177.2280  148.1940 C   0  0  2  0  0  3  0  0  0  0  0  0
  189.2240  176.4200  147.1530 O   0  0  0  0  0  0  0  0  0  0  0  0
  192.0590  175.9820  145.5320 N   0  0  0  0  0  2  0  0  0  0  0  0
  188.7530  176.5940  144.6180 O   0  0  0  0  0  1  0  0  0  0  0  0
  191.1040  176.1380  144.4530 C   0  0  0  0  0  2  0  0  0  0  0  0
  191.5220  176.5720  146.6940 C   0  0  0  0  0  0  0  0  0  0  0  0
  190.0130  177.1020  144.9580 C   0  0  2  0  0  0  0  0  0  0  0  0
  192.1330  176.5750  147.7930 O   0  0  0  0  0  0  0  0  0  0  0  0
  190.1920  177.1850  146.4910 C   0  0  1  0  0  3  0  0  0  0  0  0
  189.5000  178.6210  142.9930 C   0  0  0  0  0  1  0  0  0  0  0  0
  191.6800  178.8340  144.1440 C   0  0  0  0  0  1  0  0  0  0  0  0
  190.2090  178.4950  144.3330 C   0  0  0  0  0  3  0  0  0  0  0  0
  185.7040  177.9500  143.7860 C   0  0  0  0  0  2  0  0  0  0  0  0
  183.9810  178.2530  141.9110 C   0  0  0  0  0  2  0  0  0  0  0  0
  185.0390  179.3010  141.5870 C   0  0  1  0  0  3  0  0  0  0  0  0
  184.7670  178.9000  143.0320 C   0  0  2  0  0  0  0  0  0  0  0  0
  183.0420  179.1810  144.3240 O   0  0  0  0  0  1  0  0  0  0  0  0
  184.0330  179.8470  143.7630 O   0  0  0  0  0  0  0  0  0  0  0  0
  186.2760  178.6280  141.0060 C   0  0  0  0  0  2  0  0  0  0  0  0
  186.2250  178.6250  139.5080 C   0  0  0  0  0  0  0  0  0  0  0  0
  185.3440  179.2590  138.9490 O   0  0  0  0  0  0  0  0  0  0  0  0
  187.5760  178.6030  137.4250 C   0  0  0  0  0  2  0  0  0  0  0  0
  188.7370  177.3870  139.5560 S   0  0  0  0  0  0  0  0  0  0  0  0
  188.8620  177.9970  136.9230 C   0  0  0  0  0  2  0  0  0  0  0  0
  189.7650  177.8420  138.1270 C   0  0  2  0  0  3  0  0  0  0  0  0
  187.1980  177.8340  138.6740 C   0  0  1  0  0  3  0  0  0  0  0  0
  190.5570  175.6640  138.6970 O   0  0  0  0  0  1  0  0  0  0  0  0
  190.8050  176.7650  137.8780 C   0  0  0  0  0  2  0  0  0  0  0  0
  1  2  1  0  0  0  0
  2  3  1  0  0  0  0
  3  4  1  0  0  0  0
  4  6  1  0  0  0  0
  6  5  1  6  0  0  0
  7  6  1  0  0  0  0
  8 11  1  0  0  0  0
 10 12  1  0  0  0  0
 10  8  1  0  0  0  0
 11 13  2  0  0  0  0
 12  9  1  6  0  0  0
 12 14  1  0  0  0  0
 14 11  1  0  0  0  0
 14  7  1  1  0  0  0
 15 17  1  0  0  0  0
 16 17  1  0  0  0  0
 17 12  1  0  0  0  0
 18  1  1  0  0  0  0
 19 21  1  0  0  0  0
 20 24  1  6  0  0  0
 20 19  1  0  0  0  0
 20 21  1  0  0  0  0
 21 23  1  0  0  0  0
 21 18  1  1  0  0  0
 23 22  1  0  0  0  0
 25 24  1  0  0  0  0
 26 25  2  0  0  0  0
 27 31  1  0  0  0  0
 29 27  1  0  0  0  0
 29 30  1  0  0  0  0
 30 33  1  6  0  0  0
 30 28  1  0  0  0  0
 31 25  1  1  0  0  0
 31 28  1  0  0  0  0
 33 32  1  0  0  0  0
M  END
>  <MODEL>
7

>  <REMARK>
 VINA RESULT:      -6.7      3.072      7.015
  Name = 
  14 active torsions:
  status: ('A' for Active; 'I' for Inactive)
    1  A    between atoms: C_4  and  C_9
    2  A    between atoms: C_4  and  C_25
    3  A    between atoms: C_9  and  O_23
    4  A    between atoms: C_10  and  C_25
    5  A    between atoms: C_10  and  C_28
    6  A    between atoms: C_12  and  C_13
    7  A    between atoms: C_12  and  C_30
    8  A    between atoms: C_13  and  C_27
    9  A    between atoms: C_16  and  C_28
   10  A    between atoms: C_16  and  C_31
   11  A    between atoms: C_17  and  C_22
   12  A    between atoms: O_18  and  C_31
   13  A    between atoms: O_23  and  C_33
   14  A    between atoms: C_24  and  C_26
                            x       y       z     vdW  Elec       q    Type
                         _______ _______ _______ _____ _____    ______ ____

>  <TORSDO>
F 14

$$$$
=
 OpenBabel11062414493D

 33 35  0  0  1  0  0  0  0  0999 V2000
  183.2970  179.3360  144.1890 C   0  0  0  0  0  2  0  0  0  0  0  0
  183.9120  178.7410  145.4460 C   0  0  0  0  0  2  0  0  0  0  0  0
  185.4040  179.0090  145.4810 C   0  0  0  0  0  2  0  0  0  0  0  0
  186.1560  177.6960  145.5010 C   0  0  0  0  0  2  0  0  0  0  0  0
  187.1270  177.5360  143.2380 C   0  0  0  0  0  1  0  0  0  0  0  0
  187.4380  177.8160  144.6960 C   0  0  2  0  0  3  0  0  0  0  0  0
  188.3680  176.8800  145.1620 O   0  0  0  0  0  0  0  0  0  0  0  0
  191.1320  176.6740  146.9450 N   0  0  0  0  0  2  0  0  0  0  0  0
  190.2660  176.0150  143.6350 O   0  0  0  0  0  1  0  0  0  0  0  0
  191.5580  176.1780  145.6510 C   0  0  0  0  0  2  0  0  0  0  0  0
  189.9820  177.4700  146.7620 C   0  0  0  0  0  0  0  0  0  0  0  0
  190.7300  176.9280  144.5910 C   0  0  2  0  0  0  0  0  0  0  0  0
  189.3860  178.0240  147.7210 O   0  0  0  0  0  0  0  0  0  0  0  0
  189.5590  177.5920  145.3510 C   0  0  1  0  0  3  0  0  0  0  0  0
  190.9370  179.3790  143.9740 C   0  0  0  0  0  1  0  0  0  0  0  0
  191.8960  177.6720  142.4620 C   0  0  0  0  0  1  0  0  0  0  0  0
  191.5930  178.0090  143.9150 C   0  0  0  0  0  3  0  0  0  0  0  0
  182.2540  178.4070  143.5750 C   0  0  0  0  0  2  0  0  0  0  0  0
  180.9910  178.1150  141.3620 C   0  0  0  0  0  2  0  0  0  0  0  0
  182.0990  179.0990  141.0060 C   0  0  1  0  0  3  0  0  0  0  0  0
  181.5110  179.0740  142.4120 C   0  0  2  0  0  0  0  0  0  0  0  0
  179.8080  179.6920  143.6120 O   0  0  0  0  0  1  0  0  0  0  0  0
  180.6380  180.1380  142.6880 O   0  0  0  0  0  0  0  0  0  0  0  0
  183.4310  178.3660  140.9050 C   0  0  0  0  0  2  0  0  0  0  0  0
  184.1790  178.7900  139.6780 C   0  0  0  0  0  0  0  0  0  0  0  0
  184.9340  179.7460  139.7510 O   0  0  0  0  0  0  0  0  0  0  0  0
  185.3390  177.8760  137.6820 C   0  0  0  0  0  2  0  0  0  0  0  0
  183.1420  176.4880  138.4640 S   0  0  0  0  0  0  0  0  0  0  0  0
  185.1280  176.7960  136.6520 C   0  0  0  0  0  2  0  0  0  0  0  0
  184.3270  175.7040  137.3300 C   0  0  2  0  0  3  0  0  0  0  0  0
  183.9990  178.1000  138.3510 C   0  0  1  0  0  3  0  0  0  0  0  0
  183.5790  173.5320  136.6820 O   0  0  0  0  0  1  0  0  0  0  0  0
  183.5830  174.8740  136.3010 C   0  0  0  0  0  2  0  0  0  0  0  0
  1  2  1  0  0  0  0
  2  3  1  0  0  0  0
  3  4  1  0  0  0  0
  6  5  1  6  0  0  0
  6  7  1  0  0  0  0
  6  4  1  0  0  0  0
 10  8  1  0  0  0  0
 11  8  1  0  0  0  0
 11 13  2  0  0  0  0
 12  9  1  6  0  0  0
 12 14  1  0  0  0  0
 12 10  1  0  0  0  0
 14  7  1  1  0  0  0
 14 11  1  0  0  0  0
 16 17  1  0  0  0  0
 17 15  1  0  0  0  0
 17 12  1  0  0  0  0
 18  1  1  0  0  0  0
 19 21  1  0  0  0  0
 20 24  1  1  0  0  0
 20 19  1  0  0  0  0
 20 21  1  0  0  0  0
 21 23  1  0  0  0  0
 21 18  1  1  0  0  0
 23 22  1  0  0  0  0
 25 26  2  0  0  0  0
 25 24  1  0  0  0  0
 27 31  1  0  0  0  0
 29 30  1  0  0  0  0
 29 27  1  0  0  0  0
 30 33  1  6  0  0  0
 30 28  1  0  0  0  0
 31 28  1  0  0  0  0
 31 25  1  1  0  0  0
 33 32  1  0  0  0  0
M  END
>  <MODEL>
8

>  <REMARK>
 VINA RESULT:      -6.6      3.274      7.759
  Name = 
  14 active torsions:
  status: ('A' for Active; 'I' for Inactive)
    1  A    between atoms: C_4  and  C_9
    2  A    between atoms: C_4  and  C_25
    3  A    between atoms: C_9  and  O_23
    4  A    between atoms: C_10  and  C_25
    5  A    between atoms: C_10  and  C_28
    6  A    between atoms: C_12  and  C_13
    7  A    between atoms: C_12  and  C_30
    8  A    between atoms: C_13  and  C_27
    9  A    between atoms: C_16  and  C_28
   10  A    between atoms: C_16  and  C_31
   11  A    between atoms: C_17  and  C_22
   12  A    between atoms: O_18  and  C_31
   13  A    between atoms: O_23  and  C_33
   14  A    between atoms: C_24  and  C_26
                            x       y       z     vdW  Elec       q    Type
                         _______ _______ _______ _____ _____    ______ ____

>  <TORSDO>
F 14

$$$$
=
 OpenBabel11062414493D

 33 35  0  0  1  0  0  0  0  0999 V2000
  187.9630  177.6850  141.9110 C   0  0  0  0  0  2  0  0  0  0  0  0
  186.8400  178.6270  141.5070 C   0  0  0  0  0  2  0  0  0  0  0  0
  185.7270  178.5940  142.5370 C   0  0  0  0  0  2  0  0  0  0  0  0
  184.4990  177.9420  141.9380 C   0  0  0  0  0  2  0  0  0  0  0  0
  183.1220  179.0770  143.6400 C   0  0  0  0  0  1  0  0  0  0  0  0
  183.2830  178.8230  142.1540 C   0  0  2  0  0  3  0  0  0  0  0  0
  182.1440  178.1700  141.6670 O   0  0  0  0  0  0  0  0  0  0  0  0
  180.6270  176.9710  138.9990 N   0  0  0  0  0  2  0  0  0  0  0  0
  180.5210  179.9700  140.7700 O   0  0  0  0  0  1  0  0  0  0  0  0
  180.0160  178.2780  139.1440 C   0  0  0  0  0  2  0  0  0  0  0  0
  181.8730  176.9850  139.6580 C   0  0  0  0  0  0  0  0  0  0  0  0
  181.0880  179.2090  139.7400 C   0  0  2  0  0  0  0  0  0  0  0  0
  182.6220  175.9760  139.7050 O   0  0  0  0  0  0  0  0  0  0  0  0
  182.2090  178.2860  140.2730 C   0  0  1  0  0  3  0  0  0  0  0  0
  183.1650  180.2530  138.7240 C   0  0  0  0  0  1  0  0  0  0  0  0
  181.0440  181.5280  138.7100 C   0  0  0  0  0  1  0  0  0  0  0  0
  181.6500  180.1340  138.6450 C   0  0  0  0  0  3  0  0  0  0  0  0
  189.3040  178.4070  141.9940 C   0  0  0  0  0  2  0  0  0  0  0  0
  190.1680  176.2130  143.0030 C   0  0  0  0  0  2  0  0  0  0  0  0
  191.1850  177.2430  143.4830 C   0  0  1  0  0  3  0  0  0  0  0  0
  190.4710  177.4250  142.1470 C   0  0  2  0  0  0  0  0  0  0  0  0
  190.5300  176.3770  140.2440 O   0  0  0  0  0  1  0  0  0  0  0  0
  191.2680  177.1410  141.0270 O   0  0  0  0  0  0  0  0  0  0  0  0
  190.5810  178.0860  144.5980 C   0  0  0  0  0  2  0  0  0  0  0  0
  190.4630  177.2880  145.8620 C   0  0  0  0  0  0  0  0  0  0  0  0
  191.4680  176.7800  146.3330 O   0  0  0  0  0  0  0  0  0  0  0  0
  189.0660  177.8500  147.8360 C   0  0  0  0  0  2  0  0  0  0  0  0
  187.6910  177.5060  145.5210 S   0  0  0  0  0  0  0  0  0  0  0  0
  187.6040  177.9580  148.1880 C   0  0  0  0  0  2  0  0  0  0  0  0
  186.8820  178.3470  146.9160 C   0  0  2  0  0  3  0  0  0  0  0  0
  189.1400  177.0610  146.5450 C   0  0  1  0  0  3  0  0  0  0  0  0
  184.6090  179.0020  146.5960 O   0  0  0  0  0  1  0  0  0  0  0  0
  185.4220  177.9380  146.9870 C   0  0  0  0  0  2  0  0  0  0  0  0
  1 18  1  0  0  0  0
  2  1  1  0  0  0  0
  2  3  1  0  0  0  0
  4  6  1  0  0  0  0
  4  3  1  0  0  0  0
  6  5  1  1  0  0  0
  7  6  1  0  0  0  0
  8 10  1  0  0  0  0
  8 11  1  0  0  0  0
 10 12  1  0  0  0  0
 11 13  2  0  0  0  0
 11 14  1  0  0  0  0
 12 14  1  0  0  0  0
 12  9  1  1  0  0  0
 14  7  1  1  0  0  0
 17 16  1  0  0  0  0
 17 15  1  0  0  0  0
 17 12  1  0  0  0  0
 19 20  1  0  0  0  0
 20 24  1  1  0  0  0
 21 18  1  6  0  0  0
 21 19  1  0  0  0  0
 21 20  1  0  0  0  0
 22 23  1  0  0  0  0
 23 21  1  0  0  0  0
 24 25  1  0  0  0  0
 25 26  2  0  0  0  0
 27 29  1  0  0  0  0
 28 31  1  0  0  0  0
 28 30  1  0  0  0  0
 30 33  1  1  0  0  0
 30 29  1  0  0  0  0
 31 25  1  6  0  0  0
 31 27  1  0  0  0  0
 32 33  1  0  0  0  0
M  END
>  <MODEL>
9

>  <REMARK>
 VINA RESULT:      -6.5      2.456      5.088
  Name = 
  14 active torsions:
  status: ('A' for Active; 'I' for Inactive)
    1  A    between atoms: C_4  and  C_9
    2  A    between atoms: C_4  and  C_25
    3  A    between atoms: C_9  and  O_23
    4  A    between atoms: C_10  and  C_25
    5  A    between atoms: C_10  and  C_28
    6  A    between atoms: C_12  and  C_13
    7  A    between atoms: C_12  and  C_30
    8  A    between atoms: C_13  and  C_27
    9  A    between atoms: C_16  and  C_28
   10  A    between atoms: C_16  and  C_31
   11  A    between atoms: C_17  and  C_22
   12  A    between atoms: O_18  and  C_31
   13  A    between atoms: O_23  and  C_33
   14  A    between atoms: C_24  and  C_26
                            x       y       z     vdW  Elec       q    Type
                         _______ _______ _______ _____ _____    ______ ____

>  <TORSDO>
F 14

$$$$
