=
 OpenBabel11062417343D

 47 49  0  0  1  0  0  0  0  0999 V2000
  188.1600  177.1090  142.4690 C   0  0  0  0  0  2  0  0  0  0  0  0
  188.4220  178.2100  141.4580 C   0  0  0  0  0  2  0  0  0  0  0  0
  188.7850  177.6060  140.1110 C   0  0  0  0  0  2  0  0  0  0  0  0
  188.8820  178.6860  139.0460 C   0  0  0  0  0  2  0  0  0  0  0  0
  188.2170  178.2520  137.7830 C   0  0  0  0  0  0  0  0  0  0  0  0
  185.6590  177.7700  137.7850 C   0  0  0  0  0  3  0  0  0  0  0  0
  186.9350  178.0230  137.7750 C   0  0  0  0  0  0  0  0  0  0  0  0
  189.1910  177.8590  136.3340 S   0  0  0  0  0  0  0  0  0  0  0  0
  188.9350  176.0890  136.5270 C   0  0  0  0  0  0  0  0  0  0  0  0
  188.0420  175.5420  135.9000 O   0  0  0  0  0  0  0  0  0  0  0  0
  191.6400  173.7480  137.1910 O   0  0  0  0  0  1  0  0  0  0  0  0
  189.8440  175.2810  137.4020 C   0  0  2  0  0  3  0  0  0  0  0  0
  191.1450  176.0230  137.6440 C   0  0  0  0  0  2  0  0  0  0  0  0
  191.0960  174.9020  136.6300 C   0  0  1  0  0  3  0  0  0  0  0  0
  184.8110  178.2940  138.8910 C   0  0  0  0  0  2  0  0  0  0  0  0
  183.0940  178.2090  137.1120 N   0  0  0  0  0  1  0  0  0  0  0  0
  183.3180  178.3100  138.5470 C   0  0  1  0  0  3  0  0  0  0  0  0
  183.2140  176.7060  140.3250 F   0  0  0  0  0  0  0  0  0  0  0  0
  182.4630  177.3090  139.3320 C   0  0  2  0  0  3  0  0  0  0  0  0
  181.6730  176.0460  138.2700 S   0  0  0  0  0  0  0  0  0  0  0  0
  183.0160  174.8380  138.5070 C   0  0  0  0  0  2  0  0  0  0  0  0
  183.7820  174.6180  137.2100 C   0  0  0  0  0  2  0  0  0  0  0  0
  185.2900  173.4370  136.1100 C   0  0  0  0  0  1  0  0  0  0  0  0
  184.7700  173.6490  137.3860 O   0  0  0  0  0  0  0  0  0  0  0  0
  189.4560  176.7540  143.1760 C   0  0  0  0  0  2  0  0  0  0  0  0
  189.3230  176.9960  144.6720 C   0  0  1  0  0  3  0  0  0  0  0  0
  192.1350  177.0780  147.6510 O   0  0  0  0  0  0  0  0  0  0  0  0
  190.6730  177.4180  145.2320 C   0  0  2  0  0  3  0  0  0  0  0  0
  190.1780  175.4940  147.2780 O   0  0  0  0  0  0  0  0  0  0  0  0
  191.5700  176.3340  145.1570 N   0  0  0  0  0  2  0  0  0  0  0  0
  190.9650  176.6810  146.7980 S   0  0  0  0  0  0  0  0  0  0  0  0
  188.3790  178.0040  144.8960 O   0  0  0  0  0  0  0  0  0  0  0  0
  187.5260  177.4800  145.7570 O   0  0  0  0  0  0  0  0  0  0  0  0
  186.6780  178.5310  146.1130 C   0  0  2  0  0  3  0  0  0  0  0  0
  187.0180  179.0000  147.5170 C   0  0  0  0  0  2  0  0  0  0  0  0
  188.9980  178.4050  148.8820 C   0  0  0  0  0  1  0  0  0  0  0  0
  187.7030  177.8880  148.2850 C   0  0  0  0  0  2  0  0  0  0  0  0
  185.2340  178.0480  146.0540 C   0  0  0  0  0  2  0  0  0  0  0  0
  184.7710  178.9990  142.4180 C   0  0  0  0  0  3  0  0  0  0  0  0
  185.3750  178.6220  143.6200 C   0  0  0  0  0  3  0  0  0  0  0  0
  184.5940  178.4270  144.7650 C   0  0  0  0  0  0  0  0  0  0  0  0
  183.3880  179.1850  142.3610 C   0  0  0  0  0  3  0  0  0  0  0  0
  182.5990  178.9860  143.5030 C   0  0  0  0  0  0  0  0  0  0  0  0
  183.2070  178.6040  144.7010 C   0  0  0  0  0  3  0  0  0  0  0  0
  181.1820  179.1750  143.4680 N   0  0  0  0  0  2  0  0  0  0  0  0
  180.3790  179.0430  142.2620 C   0  0  0  0  0  2  0  0  0  0  0  0
  179.5050  177.8870  142.3740 N   0  0  0  0  0  1  0  0  0  0  0  0
  1 25  1  0  0  0  0
  2  1  1  0  0  0  0
  3  2  1  0  0  0  0
  4  3  1  0  0  0  0
  5  4  1  0  0  0  0
  6 15  1  0  0  0  0
  7  5  2  0  0  0  0
  7  6  2  0  0  0  0
  8  9  1  0  0  0  0
  8  5  1  0  0  0  0
 10  9  2  0  0  0  0
 12  9  1  6  0  0  0
 12 13  1  0  0  0  0
 14 11  1  1  0  0  0
 14 12  1  0  0  0  0
 14 13  1  0  0  0  0
 17 16  1  6  0  0  0
 17 15  1  0  0  0  0
 17 19  1  0  0  0  0
 19 18  1  1  0  0  0
 20 21  1  0  0  0  0
 20 19  1  0  0  0  0
 22 24  1  0  0  0  0
 22 21  1  0  0  0  0
 23 24  1  0  0  0  0
 26 25  1  6  0  0  0
 26 32  1  0  0  0  0
 28 26  1  6  0  0  0
 28 31  1  0  0  0  0
 30 28  1  0  0  0  0
 30 31  1  0  0  0  0
 31 29  2  0  0  0  0
 31 27  2  0  0  0  0
 32 33  1  0  0  0  0
 33 34  1  0  0  0  0
 34 38  1  1  0  0  0
 34 35  1  0  0  0  0
 35 37  1  0  0  0  0
 37 36  1  0  0  0  0
 39 40  1  0  0  0  0
 40 41  2  0  0  0  0
 41 38  1  0  0  0  0
 42 39  2  0  0  0  0
 42 43  1  0  0  0  0
 43 44  2  0  0  0  0
 44 41  1  0  0  0  0
 45 43  1  0  0  0  0
 46 47  1  0  0  0  0
 46 45  1  0  0  0  0
M  END
>  <MODEL>
1

>  <REMARK>
 VINA RESULT:      -6.0      0.000      0.000
  Name = 
  26 active torsions:
  status: ('A' for Active; 'I' for Inactive)
    1  A    between atoms: C_2  and  S_17
    2  A    between atoms: C_2  and  C_44
    3  A    between atoms: C_3  and  C_14
    4  A    between atoms: C_3  and  C_18
    5  A    between atoms: C_7  and  N_26
    6  A    between atoms: C_9  and  C_16
    7  A    between atoms: C_9  and  S_17
    8  A    between atoms: O_10  and  C_19
    9  A    between atoms: O_10  and  O_38
   10  A    between atoms: C_11  and  C_12
   11  A    between atoms: C_12  and  C_19
   12  A    between atoms: C_13  and  C_24
   13  A    between atoms: C_13  and  C_30
   14  A    between atoms: C_13  and  O_38
   15  A    between atoms: S_15  and  C_27
   16  A    between atoms: S_15  and  C_35
   17  A    between atoms: C_18  and  C_35
   18  A    between atoms: C_19  and  C_42
   19  A    between atoms: C_22  and  C_27
   20  A    between atoms: C_22  and  O_41
   21  A    between atoms: N_26  and  C_31
   22  A    between atoms: C_28  and  C_44
   23  A    between atoms: C_28  and  C_45
   24  A    between atoms: C_29  and  C_30
   25  A    between atoms: C_29  and  C_45
   26  A    between atoms: C_33  and  C_42
                            x       y       z     vdW  Elec       q    Type
                         _______ _______ _______ _____ _____    ______ ____

>  <TORSDO>
F 26

$$$$
=
 OpenBabel11062417343D

 47 49  0  0  1  0  0  0  0  0999 V2000
  187.8720  178.4400  141.2340 C   0  0  0  0  0  2  0  0  0  0  0  0
  187.2300  178.6670  139.8780 C   0  0  0  0  0  2  0  0  0  0  0  0
  185.8800  177.9710  139.8170 C   0  0  0  0  0  2  0  0  0  0  0  0
  184.7860  178.9530  139.4330 C   0  0  0  0  0  2  0  0  0  0  0  0
  183.5560  178.7260  140.2470 C   0  0  0  0  0  0  0  0  0  0  0  0
  183.7580  178.4730  142.8290 C   0  0  0  0  0  3  0  0  0  0  0  0
  183.6490  178.6130  141.5410 C   0  0  0  0  0  0  0  0  0  0  0  0
  181.9840  178.4200  139.4470 S   0  0  0  0  0  0  0  0  0  0  0  0
  182.4700  176.7710  138.9170 C   0  0  0  0  0  0  0  0  0  0  0  0
  182.7760  175.9380  139.7560 O   0  0  0  0  0  0  0  0  0  0  0  0
  180.9040  176.3080  135.6650 O   0  0  0  0  0  1  0  0  0  0  0  0
  182.4440  176.4030  137.4650 C   0  0  2  0  0  3  0  0  0  0  0  0
  182.6340  177.6350  136.6000 C   0  0  0  0  0  2  0  0  0  0  0  0
  181.2500  177.0540  136.7900 C   0  0  1  0  0  3  0  0  0  0  0  0
  184.9920  178.9380  143.5210 C   0  0  0  0  0  2  0  0  0  0  0  0
  183.3890  179.0780  145.4000 N   0  0  0  0  0  1  0  0  0  0  0  0
  184.7940  179.1430  145.0260 C   0  0  1  0  0  3  0  0  0  0  0  0
  186.1770  178.9880  146.9770 F   0  0  0  0  0  0  0  0  0  0  0  0
  185.6670  178.2550  145.9210 C   0  0  2  0  0  3  0  0  0  0  0  0
  187.0150  177.4180  145.0120 S   0  0  0  0  0  0  0  0  0  0  0  0
  188.3050  177.9880  146.1650 C   0  0  0  0  0  2  0  0  0  0  0  0
  189.0130  176.8060  146.8130 C   0  0  0  0  0  2  0  0  0  0  0  0
  189.0300  178.1620  148.5560 C   0  0  0  0  0  1  0  0  0  0  0  0
  189.8160  177.2390  147.8680 O   0  0  0  0  0  0  0  0  0  0  0  0
  188.8030  177.2420  141.1580 C   0  0  0  0  0  2  0  0  0  0  0  0
  190.2530  177.6990  141.2040 C   0  0  1  0  0  3  0  0  0  0  0  0
  192.0550  177.4720  144.8780 O   0  0  0  0  0  0  0  0  0  0  0  0
  190.9850  176.9310  142.2940 C   0  0  2  0  0  3  0  0  0  0  0  0
  190.4010  179.1740  143.9570 O   0  0  0  0  0  0  0  0  0  0  0  0
  190.0780  176.5990  143.3210 N   0  0  0  0  0  2  0  0  0  0  0  0
  191.2010  177.9230  143.7270 S   0  0  0  0  0  0  0  0  0  0  0  0
  190.8550  177.4540  139.9650 O   0  0  0  0  0  0  0  0  0  0  0  0
  190.7420  176.1500  139.7880 O   0  0  0  0  0  0  0  0  0  0  0  0
  190.7830  175.9670  138.4040 C   0  0  2  0  0  3  0  0  0  0  0  0
  192.2060  175.6550  137.9790 C   0  0  0  0  0  2  0  0  0  0  0  0
  192.4860  174.4730  135.8190 C   0  0  0  0  0  1  0  0  0  0  0  0
  192.2630  174.2960  137.3090 C   0  0  0  0  0  2  0  0  0  0  0  0
  190.2940  177.2370  137.7180 C   0  0  0  0  0  2  0  0  0  0  0  0
  186.9280  177.9830  136.1520 C   0  0  0  0  0  3  0  0  0  0  0  0
  188.2280  178.1490  136.6340 C   0  0  0  0  0  3  0  0  0  0  0  0
  188.9170  177.0610  137.1810 C   0  0  0  0  0  0  0  0  0  0  0  0
  186.3140  176.7300  136.2210 C   0  0  0  0  0  3  0  0  0  0  0  0
  187.0010  175.6330  136.7630 C   0  0  0  0  0  0  0  0  0  0  0  0
  188.3030  175.8050  137.2380 C   0  0  0  0  0  3  0  0  0  0  0  0
  186.3910  174.3430  136.8470 N   0  0  0  0  0  2  0  0  0  0  0  0
  184.9800  174.0980  136.5830 C   0  0  0  0  0  2  0  0  0  0  0  0
  184.4230  173.2510  137.6240 N   0  0  0  0  0  1  0  0  0  0  0  0
  2  1  1  0  0  0  0
  3  2  1  0  0  0  0
  4  3  1  0  0  0  0
  4  5  1  0  0  0  0
  5  7  2  0  0  0  0
  6 15  1  0  0  0  0
  7  6  2  0  0  0  0
  8  5  1  0  0  0  0
  9  8  1  0  0  0  0
  9 10  2  0  0  0  0
 12  9  1  1  0  0  0
 13 14  1  0  0  0  0
 13 12  1  0  0  0  0
 14 11  1  6  0  0  0
 14 12  1  0  0  0  0
 15 17  1  0  0  0  0
 17 16  1  1  0  0  0
 17 19  1  0  0  0  0
 19 18  1  1  0  0  0
 20 19  1  0  0  0  0
 20 21  1  0  0  0  0
 21 22  1  0  0  0  0
 22 24  1  0  0  0  0
 24 23  1  0  0  0  0
 25  1  1  0  0  0  0
 26 25  1  6  0  0  0
 28 26  1  6  0  0  0
 28 30  1  0  0  0  0
 28 31  1  0  0  0  0
 30 31  1  0  0  0  0
 31 29  2  0  0  0  0
 31 27  2  0  0  0  0
 32 26  1  0  0  0  0
 33 32  1  0  0  0  0
 34 38  1  6  0  0  0
 34 33  1  0  0  0  0
 35 34  1  0  0  0  0
 36 37  1  0  0  0  0
 37 35  1  0  0  0  0
 39 42  2  0  0  0  0
 39 40  1  0  0  0  0
 40 41  2  0  0  0  0
 41 44  1  0  0  0  0
 41 38  1  0  0  0  0
 42 43  1  0  0  0  0
 43 45  1  0  0  0  0
 43 44  2  0  0  0  0
 46 45  1  0  0  0  0
 46 47  1  0  0  0  0
M  END
>  <MODEL>
2

>  <REMARK>
 VINA RESULT:      -5.8      2.728      7.943
  Name = 
  26 active torsions:
  status: ('A' for Active; 'I' for Inactive)
    1  A    between atoms: C_2  and  S_17
    2  A    between atoms: C_2  and  C_44
    3  A    between atoms: C_3  and  C_14
    4  A    between atoms: C_3  and  C_18
    5  A    between atoms: C_7  and  N_26
    6  A    between atoms: C_9  and  C_16
    7  A    between atoms: C_9  and  S_17
    8  A    between atoms: O_10  and  C_19
    9  A    between atoms: O_10  and  O_38
   10  A    between atoms: C_11  and  C_12
   11  A    between atoms: C_12  and  C_19
   12  A    between atoms: C_13  and  C_24
   13  A    between atoms: C_13  and  C_30
   14  A    between atoms: C_13  and  O_38
   15  A    between atoms: S_15  and  C_27
   16  A    between atoms: S_15  and  C_35
   17  A    between atoms: C_18  and  C_35
   18  A    between atoms: C_19  and  C_42
   19  A    between atoms: C_22  and  C_27
   20  A    between atoms: C_22  and  O_41
   21  A    between atoms: N_26  and  C_31
   22  A    between atoms: C_28  and  C_44
   23  A    between atoms: C_28  and  C_45
   24  A    between atoms: C_29  and  C_30
   25  A    between atoms: C_29  and  C_45
   26  A    between atoms: C_33  and  C_42
                            x       y       z     vdW  Elec       q    Type
                         _______ _______ _______ _____ _____    ______ ____

>  <TORSDO>
F 26

$$$$
=
 OpenBabel11062417343D

 47 49  0  0  1  0  0  0  0  0999 V2000
  188.5880  177.7010  141.2390 C   0  0  0  0  0  2  0  0  0  0  0  0
  189.1850  178.2610  139.9610 C   0  0  0  0  0  2  0  0  0  0  0  0
  188.8840  177.3340  138.7940 C   0  0  0  0  0  2  0  0  0  0  0  0
  189.6990  177.7240  137.5730 C   0  0  0  0  0  2  0  0  0  0  0  0
  189.3880  176.8340  136.4170 C   0  0  0  0  0  0  0  0  0  0  0  0
  186.9200  176.5680  135.6340 C   0  0  0  0  0  3  0  0  0  0  0  0
  188.1570  176.7080  136.0120 C   0  0  0  0  0  0  0  0  0  0  0  0
  190.6600  175.7940  135.7060 S   0  0  0  0  0  0  0  0  0  0  0  0
  190.9850  174.9640  137.2680 C   0  0  0  0  0  0  0  0  0  0  0  0
  190.1580  174.1860  137.7160 O   0  0  0  0  0  0  0  0  0  0  0  0
  194.4380  174.2020  138.1250 O   0  0  0  0  0  1  0  0  0  0  0  0
  192.2830  175.1790  137.9860 C   0  0  2  0  0  3  0  0  0  0  0  0
  193.2370  175.9880  137.1280 C   0  0  0  0  0  2  0  0  0  0  0  0
  193.4060  174.4880  137.2330 C   0  0  1  0  0  3  0  0  0  0  0  0
  185.9020  177.5710  136.0530 C   0  0  0  0  0  2  0  0  0  0  0  0
  185.7490  178.5460  138.3220 N   0  0  0  0  0  1  0  0  0  0  0  0
  185.4380  177.3850  137.5010 C   0  0  1  0  0  3  0  0  0  0  0  0
  183.7090  176.6380  138.9830 F   0  0  0  0  0  0  0  0  0  0  0  0
  183.9780  176.9460  137.6610 C   0  0  2  0  0  3  0  0  0  0  0  0
  183.5210  175.5490  136.5720 S   0  0  0  0  0  0  0  0  0  0  0  0
  184.5600  174.3540  137.4730 C   0  0  0  0  0  2  0  0  0  0  0  0
  184.2440  172.9290  137.0420 C   0  0  0  0  0  2  0  0  0  0  0  0
  186.4400  173.0870  137.2180 C   0  0  0  0  0  1  0  0  0  0  0  0
  185.4210  172.1950  136.8870 O   0  0  0  0  0  0  0  0  0  0  0  0
  189.6740  177.5820  142.2940 C   0  0  0  0  0  2  0  0  0  0  0  0
  189.0590  177.2660  143.6490 C   0  0  1  0  0  3  0  0  0  0  0  0
  192.2330  176.8680  146.2110 O   0  0  0  0  0  0  0  0  0  0  0  0
  189.9710  177.7910  144.7470 C   0  0  2  0  0  3  0  0  0  0  0  0
  191.6760  175.6070  144.0700 O   0  0  0  0  0  0  0  0  0  0  0  0
  191.1820  178.2320  144.1770 N   0  0  0  0  0  2  0  0  0  0  0  0
  191.2960  176.6810  145.0510 S   0  0  0  0  0  0  0  0  0  0  0  0
  187.8030  177.8760  143.7420 O   0  0  0  0  0  0  0  0  0  0  0  0
  187.2740  177.3890  144.8500 O   0  0  0  0  0  0  0  0  0  0  0  0
  186.5000  178.4290  145.3700 C   0  0  2  0  0  3  0  0  0  0  0  0
  187.0230  178.8080  146.7440 C   0  0  0  0  0  2  0  0  0  0  0  0
  188.0310  177.8460  148.7920 C   0  0  0  0  0  1  0  0  0  0  0  0
  187.9050  177.7020  147.2880 C   0  0  0  0  0  2  0  0  0  0  0  0
  185.0490  177.9720  145.4650 C   0  0  0  0  0  2  0  0  0  0  0  0
  184.2670  178.5540  141.8060 C   0  0  0  0  0  3  0  0  0  0  0  0
  184.9640  178.2450  142.9770 C   0  0  0  0  0  3  0  0  0  0  0  0
  184.3070  178.2780  144.2120 C   0  0  0  0  0  0  0  0  0  0  0  0
  182.9150  178.9000  141.8700 C   0  0  0  0  0  3  0  0  0  0  0  0
  182.2490  178.9280  143.1040 C   0  0  0  0  0  0  0  0  0  0  0  0
  182.9500  178.6130  144.2710 C   0  0  0  0  0  3  0  0  0  0  0  0
  180.8670  179.2830  143.1930 N   0  0  0  0  0  2  0  0  0  0  0  0
  180.0510  179.6470  142.0450 C   0  0  0  0  0  2  0  0  0  0  0  0
  179.5960  181.0210  142.1780 N   0  0  0  0  0  1  0  0  0  0  0  0
  1 25  1  0  0  0  0
  2  1  1  0  0  0  0
  3  2  1  0  0  0  0
  4  3  1  0  0  0  0
  5  4  1  0  0  0  0
  6  7  2  0  0  0  0
  6 15  1  0  0  0  0
  7  5  2  0  0  0  0
  8  5  1  0  0  0  0
  8  9  1  0  0  0  0
  9 10  2  0  0  0  0
 12  9  1  6  0  0  0
 13 14  1  0  0  0  0
 13 12  1  0  0  0  0
 14 12  1  0  0  0  0
 14 11  1  1  0  0  0
 15 17  1  0  0  0  0
 17 19  1  0  0  0  0
 17 16  1  1  0  0  0
 19 18  1  1  0  0  0
 20 21  1  0  0  0  0
 20 19  1  0  0  0  0
 22 21  1  0  0  0  0
 24 22  1  0  0  0  0
 24 23  1  0  0  0  0
 26 25  1  6  0  0  0
 26 32  1  0  0  0  0
 28 26  1  6  0  0  0
 28 31  1  0  0  0  0
 29 31  2  0  0  0  0
 30 28  1  0  0  0  0
 30 31  1  0  0  0  0
 31 27  2  0  0  0  0
 32 33  1  0  0  0  0
 33 34  1  0  0  0  0
 34 38  1  1  0  0  0
 34 35  1  0  0  0  0
 35 37  1  0  0  0  0
 37 36  1  0  0  0  0
 39 42  2  0  0  0  0
 39 40  1  0  0  0  0
 40 41  2  0  0  0  0
 41 44  1  0  0  0  0
 41 38  1  0  0  0  0
 42 43  1  0  0  0  0
 43 45  1  0  0  0  0
 43 44  2  0  0  0  0
 46 47  1  0  0  0  0
 46 45  1  0  0  0  0
M  END
>  <MODEL>
3

>  <REMARK>
 VINA RESULT:      -5.7      1.587      1.930
  Name = 
  26 active torsions:
  status: ('A' for Active; 'I' for Inactive)
    1  A    between atoms: C_2  and  S_17
    2  A    between atoms: C_2  and  C_44
    3  A    between atoms: C_3  and  C_14
    4  A    between atoms: C_3  and  C_18
    5  A    between atoms: C_7  and  N_26
    6  A    between atoms: C_9  and  C_16
    7  A    between atoms: C_9  and  S_17
    8  A    between atoms: O_10  and  C_19
    9  A    between atoms: O_10  and  O_38
   10  A    between atoms: C_11  and  C_12
   11  A    between atoms: C_12  and  C_19
   12  A    between atoms: C_13  and  C_24
   13  A    between atoms: C_13  and  C_30
   14  A    between atoms: C_13  and  O_38
   15  A    between atoms: S_15  and  C_27
   16  A    between atoms: S_15  and  C_35
   17  A    between atoms: C_18  and  C_35
   18  A    between atoms: C_19  and  C_42
   19  A    between atoms: C_22  and  C_27
   20  A    between atoms: C_22  and  O_41
   21  A    between atoms: N_26  and  C_31
   22  A    between atoms: C_28  and  C_44
   23  A    between atoms: C_28  and  C_45
   24  A    between atoms: C_29  and  C_30
   25  A    between atoms: C_29  and  C_45
   26  A    between atoms: C_33  and  C_42
                            x       y       z     vdW  Elec       q    Type
                         _______ _______ _______ _____ _____    ______ ____

>  <TORSDO>
F 26

$$$$
=
 OpenBabel11062417343D

 47 49  0  0  1  0  0  0  0  0999 V2000
  187.8170  177.7510  141.0520 C   0  0  0  0  0  2  0  0  0  0  0  0
  189.0760  178.0100  140.2450 C   0  0  0  0  0  2  0  0  0  0  0  0
  189.0280  177.2320  138.9390 C   0  0  0  0  0  2  0  0  0  0  0  0
  188.9020  178.1760  137.7550 C   0  0  0  0  0  2  0  0  0  0  0  0
  188.9700  177.4270  136.4660 C   0  0  0  0  0  0  0  0  0  0  0  0
  191.0720  175.9870  135.9330 C   0  0  0  0  0  3  0  0  0  0  0  0
  190.0130  176.6940  136.2010 C   0  0  0  0  0  0  0  0  0  0  0  0
  187.7250  177.6780  135.2050 S   0  0  0  0  0  0  0  0  0  0  0  0
  186.7650  176.2540  135.7390 C   0  0  0  0  0  0  0  0  0  0  0  0
  186.0590  176.3450  136.7320 O   0  0  0  0  0  0  0  0  0  0  0  0
  188.1680  173.0890  134.6210 O   0  0  0  0  0  1  0  0  0  0  0  0
  186.7820  174.9850  134.9430 C   0  0  2  0  0  3  0  0  0  0  0  0
  186.2280  173.8350  135.7640 C   0  0  0  0  0  2  0  0  0  0  0  0
  187.7240  173.9850  135.5910 C   0  0  1  0  0  3  0  0  0  0  0  0
  191.9940  175.5920  137.0350 C   0  0  0  0  0  2  0  0  0  0  0  0
  193.8220  176.5410  138.4060 N   0  0  0  0  0  1  0  0  0  0  0  0
  193.2850  176.4150  137.0580 C   0  0  1  0  0  3  0  0  0  0  0  0
  194.1270  176.5410  134.8180 F   0  0  0  0  0  0  0  0  0  0  0  0
  194.3560  175.9680  136.0560 C   0  0  2  0  0  3  0  0  0  0  0  0
  194.4900  174.1500  135.9060 S   0  0  0  0  0  0  0  0  0  0  0  0
  196.3030  174.1510  136.0840 C   0  0  0  0  0  2  0  0  0  0  0  0
  196.8680  175.5460  135.8560 C   0  0  0  0  0  2  0  0  0  0  0  0
  198.5970  174.2290  136.2450 C   0  0  0  0  0  1  0  0  0  0  0  0
  198.2610  175.5020  135.7860 O   0  0  0  0  0  0  0  0  0  0  0  0
  187.1410  179.0720  141.3720 C   0  0  0  0  0  2  0  0  0  0  0  0
  185.6560  178.9950  141.0520 C   0  0  1  0  0  3  0  0  0  0  0  0
  183.3120  177.6320  137.9790 O   0  0  0  0  0  0  0  0  0  0  0  0
  185.4670  178.2690  139.7290 C   0  0  2  0  0  3  0  0  0  0  0  0
  182.8710  179.4500  139.7050 O   0  0  0  0  0  0  0  0  0  0  0  0
  185.3320  179.2150  138.6930 N   0  0  0  0  0  2  0  0  0  0  0  0
  183.8110  178.4110  139.1620 S   0  0  0  0  0  0  0  0  0  0  0  0
  184.9970  178.3010  142.0730 O   0  0  0  0  0  0  0  0  0  0  0  0
  184.4200  179.2400  142.8000 O   0  0  0  0  0  0  0  0  0  0  0  0
  184.1930  178.6480  144.0440 C   0  0  2  0  0  3  0  0  0  0  0  0
  182.7020  178.6340  144.3320 C   0  0  0  0  0  2  0  0  0  0  0  0
  180.4480  179.0710  143.4010 C   0  0  0  0  0  1  0  0  0  0  0  0
  181.9270  178.9790  143.0760 C   0  0  0  0  0  2  0  0  0  0  0  0
  184.9300  179.4420  145.1160 C   0  0  0  0  0  2  0  0  0  0  0  0
  187.4610  177.9550  147.5080 C   0  0  0  0  0  3  0  0  0  0  0  0
  186.3550  178.6550  147.0200 C   0  0  0  0  0  3  0  0  0  0  0  0
  186.0930  178.6790  145.6450 C   0  0  0  0  0  0  0  0  0  0  0  0
  188.3070  177.2830  146.6220 C   0  0  0  0  0  3  0  0  0  0  0  0
  188.0460  177.2980  145.2440 C   0  0  0  0  0  0  0  0  0  0  0  0
  186.9360  177.9950  144.7630 C   0  0  0  0  0  3  0  0  0  0  0  0
  188.9010  176.6200  144.3200 N   0  0  0  0  0  2  0  0  0  0  0  0
  190.2370  177.0780  143.9700 C   0  0  0  0  0  2  0  0  0  0  0  0
  190.2350  178.5210  143.7960 N   0  0  0  0  0  1  0  0  0  0  0  0
  1 25  1  0  0  0  0
  2  1  1  0  0  0  0
  3  2  1  0  0  0  0
  4  3  1  0  0  0  0
  5  4  1  0  0  0  0
  6  7  2  0  0  0  0
  6 15  1  0  0  0  0
  7  5  2  0  0  0  0
  8  9  1  0  0  0  0
  8  5  1  0  0  0  0
  9 10  2  0  0  0  0
 12 14  1  0  0  0  0
 12  9  1  1  0  0  0
 12 13  1  0  0  0  0
 14 11  1  6  0  0  0
 14 13  1  0  0  0  0
 15 17  1  0  0  0  0
 17 16  1  1  0  0  0
 19 18  1  6  0  0  0
 19 17  1  0  0  0  0
 20 19  1  0  0  0  0
 20 21  1  0  0  0  0
 22 21  1  0  0  0  0
 24 22  1  0  0  0  0
 24 23  1  0  0  0  0
 26 25  1  1  0  0  0
 26 32  1  0  0  0  0
 27 31  2  0  0  0  0
 28 26  1  1  0  0  0
 30 31  1  0  0  0  0
 30 28  1  0  0  0  0
 31 29  2  0  0  0  0
 31 28  1  0  0  0  0
 32 33  1  0  0  0  0
 33 34  1  0  0  0  0
 34 35  1  1  0  0  0
 34 38  1  0  0  0  0
 37 36  1  0  0  0  0
 37 35  1  0  0  0  0
 38 41  1  0  0  0  0
 40 39  1  0  0  0  0
 41 40  2  0  0  0  0
 42 39  2  0  0  0  0
 43 42  1  0  0  0  0
 44 43  2  0  0  0  0
 44 41  1  0  0  0  0
 45 43  1  0  0  0  0
 46 45  1  0  0  0  0
 47 46  1  0  0  0  0
M  END
>  <MODEL>
4

>  <REMARK>
 VINA RESULT:      -5.7      3.835      7.891
  Name = 
  26 active torsions:
  status: ('A' for Active; 'I' for Inactive)
    1  A    between atoms: C_2  and  S_17
    2  A    between atoms: C_2  and  C_44
    3  A    between atoms: C_3  and  C_14
    4  A    between atoms: C_3  and  C_18
    5  A    between atoms: C_7  and  N_26
    6  A    between atoms: C_9  and  C_16
    7  A    between atoms: C_9  and  S_17
    8  A    between atoms: O_10  and  C_19
    9  A    between atoms: O_10  and  O_38
   10  A    between atoms: C_11  and  C_12
   11  A    between atoms: C_12  and  C_19
   12  A    between atoms: C_13  and  C_24
   13  A    between atoms: C_13  and  C_30
   14  A    between atoms: C_13  and  O_38
   15  A    between atoms: S_15  and  C_27
   16  A    between atoms: S_15  and  C_35
   17  A    between atoms: C_18  and  C_35
   18  A    between atoms: C_19  and  C_42
   19  A    between atoms: C_22  and  C_27
   20  A    between atoms: C_22  and  O_41
   21  A    between atoms: N_26  and  C_31
   22  A    between atoms: C_28  and  C_44
   23  A    between atoms: C_28  and  C_45
   24  A    between atoms: C_29  and  C_30
   25  A    between atoms: C_29  and  C_45
   26  A    between atoms: C_33  and  C_42
                            x       y       z     vdW  Elec       q    Type
                         _______ _______ _______ _____ _____    ______ ____

>  <TORSDO>
F 26

$$$$
=
 OpenBabel11062417343D

 47 49  0  0  1  0  0  0  0  0999 V2000
  190.5470  177.1850  142.0080 C   0  0  0  0  0  2  0  0  0  0  0  0
  191.5830  177.4550  140.9320 C   0  0  0  0  0  2  0  0  0  0  0  0
  191.0510  177.0210  139.5750 C   0  0  0  0  0  2  0  0  0  0  0  0
  192.1580  176.4050  138.7360 C   0  0  0  0  0  2  0  0  0  0  0  0
  191.7750  176.3670  137.2940 C   0  0  0  0  0  0  0  0  0  0  0  0
  189.2570  176.4330  136.6360 C   0  0  0  0  0  3  0  0  0  0  0  0
  190.5180  176.4140  136.9590 C   0  0  0  0  0  0  0  0  0  0  0  0
  193.0120  176.0650  136.0360 S   0  0  0  0  0  0  0  0  0  0  0  0
  193.6160  174.5810  136.8540 C   0  0  0  0  0  0  0  0  0  0  0  0
  192.8870  173.6050  136.9370 O   0  0  0  0  0  0  0  0  0  0  0  0
  196.1780  173.8200  139.3230 O   0  0  0  0  0  1  0  0  0  0  0  0
  195.0180  174.5200  137.3770 C   0  0  2  0  0  3  0  0  0  0  0  0
  195.6240  173.1540  137.1140 C   0  0  0  0  0  2  0  0  0  0  0  0
  195.1060  173.4950  138.4940 C   0  0  1  0  0  3  0  0  0  0  0  0
  188.2490  176.9010  137.6270 C   0  0  0  0  0  2  0  0  0  0  0  0
  186.0000  177.8650  137.2620 N   0  0  0  0  0  1  0  0  0  0  0  0
  186.8060  176.6560  137.1750 C   0  0  1  0  0  3  0  0  0  0  0  0
  186.5310  176.9150  134.8080 F   0  0  0  0  0  0  0  0  0  0  0  0
  186.6630  175.9710  135.8110 C   0  0  2  0  0  3  0  0  0  0  0  0
  185.2850  174.7710  135.7470 S   0  0  0  0  0  0  0  0  0  0  0  0
  185.8230  173.8960  137.2510 C   0  0  0  0  0  2  0  0  0  0  0  0
  184.8350  172.7980  137.6210 C   0  0  0  0  0  2  0  0  0  0  0  0
  183.3250  171.3490  136.9140 C   0  0  0  0  0  1  0  0  0  0  0  0
  184.3830  172.1430  136.4740 O   0  0  0  0  0  0  0  0  0  0  0  0
  190.8770  178.0040  143.2440 C   0  0  0  0  0  2  0  0  0  0  0  0
  190.5150  177.2280  144.5010 C   0  0  1  0  0  3  0  0  0  0  0  0
  192.1820  176.9620  148.2350 O   0  0  0  0  0  0  0  0  0  0  0  0
  191.7140  177.2040  145.4370 C   0  0  2  0  0  3  0  0  0  0  0  0
  189.8790  176.2630  147.4070 O   0  0  0  0  0  0  0  0  0  0  0  0
  191.9870  175.8730  145.8120 N   0  0  0  0  0  2  0  0  0  0  0  0
  191.2210  176.8590  147.0850 S   0  0  0  0  0  0  0  0  0  0  0  0
  189.4320  177.8490  145.1320 O   0  0  0  0  0  0  0  0  0  0  0  0
  188.4080  177.0450  144.9110 O   0  0  0  0  0  0  0  0  0  0  0  0
  187.2750  177.8460  145.0750 C   0  0  2  0  0  3  0  0  0  0  0  0
  186.9610  177.9800  146.5540 C   0  0  0  0  0  2  0  0  0  0  0  0
  184.5580  178.5030  146.8560 C   0  0  0  0  0  1  0  0  0  0  0  0
  185.9540  179.0910  146.7740 C   0  0  0  0  0  2  0  0  0  0  0  0
  186.1010  177.2060  144.3420 C   0  0  0  0  0  2  0  0  0  0  0  0
  186.8200  178.7600  140.9650 C   0  0  0  0  0  3  0  0  0  0  0  0
  187.0100  178.1620  142.2130 C   0  0  0  0  0  3  0  0  0  0  0  0
  185.9050  177.8220  143.0020 C   0  0  0  0  0  0  0  0  0  0  0  0
  185.5260  179.0220  140.5070 C   0  0  0  0  0  3  0  0  0  0  0  0
  184.4150  178.6790  141.2910 C   0  0  0  0  0  0  0  0  0  0  0  0
  184.6110  178.0760  142.5350 C   0  0  0  0  0  3  0  0  0  0  0  0
  183.0820  178.9410  140.8440 N   0  0  0  0  0  2  0  0  0  0  0  0
  182.0740  177.9080  140.6590 C   0  0  0  0  0  2  0  0  0  0  0  0
  182.6350  176.7990  139.9050 N   0  0  0  0  0  1  0  0  0  0  0  0
  1 25  1  0  0  0  0
  2  1  1  0  0  0  0
  3  2  1  0  0  0  0
  4  3  1  0  0  0  0
  5  4  1  0  0  0  0
  6  7  2  0  0  0  0
  6 15  1  0  0  0  0
  7  5  2  0  0  0  0
  8  9  1  0  0  0  0
  8  5  1  0  0  0  0
  9 10  2  0  0  0  0
 12  9  1  6  0  0  0
 12 14  1  0  0  0  0
 13 12  1  0  0  0  0
 13 14  1  0  0  0  0
 14 11  1  1  0  0  0
 17 16  1  6  0  0  0
 17 15  1  0  0  0  0
 19 18  1  6  0  0  0
 19 17  1  0  0  0  0
 20 19  1  0  0  0  0
 20 21  1  0  0  0  0
 21 22  1  0  0  0  0
 24 23  1  0  0  0  0
 24 22  1  0  0  0  0
 26 25  1  6  0  0  0
 26 32  1  0  0  0  0
 28 26  1  6  0  0  0
 28 30  1  0  0  0  0
 28 31  1  0  0  0  0
 30 31  1  0  0  0  0
 31 29  2  0  0  0  0
 31 27  2  0  0  0  0
 33 34  1  0  0  0  0
 33 32  1  0  0  0  0
 34 38  1  6  0  0  0
 34 35  1  0  0  0  0
 35 37  1  0  0  0  0
 37 36  1  0  0  0  0
 39 40  1  0  0  0  0
 40 41  2  0  0  0  0
 41 38  1  0  0  0  0
 42 39  2  0  0  0  0
 42 43  1  0  0  0  0
 43 44  2  0  0  0  0
 44 41  1  0  0  0  0
 45 43  1  0  0  0  0
 46 45  1  0  0  0  0
 47 46  1  0  0  0  0
M  END
>  <MODEL>
5

>  <REMARK>
 VINA RESULT:      -5.4      2.458      3.410
  Name = 
  26 active torsions:
  status: ('A' for Active; 'I' for Inactive)
    1  A    between atoms: C_2  and  S_17
    2  A    between atoms: C_2  and  C_44
    3  A    between atoms: C_3  and  C_14
    4  A    between atoms: C_3  and  C_18
    5  A    between atoms: C_7  and  N_26
    6  A    between atoms: C_9  and  C_16
    7  A    between atoms: C_9  and  S_17
    8  A    between atoms: O_10  and  C_19
    9  A    between atoms: O_10  and  O_38
   10  A    between atoms: C_11  and  C_12
   11  A    between atoms: C_12  and  C_19
   12  A    between atoms: C_13  and  C_24
   13  A    between atoms: C_13  and  C_30
   14  A    between atoms: C_13  and  O_38
   15  A    between atoms: S_15  and  C_27
   16  A    between atoms: S_15  and  C_35
   17  A    between atoms: C_18  and  C_35
   18  A    between atoms: C_19  and  C_42
   19  A    between atoms: C_22  and  C_27
   20  A    between atoms: C_22  and  O_41
   21  A    between atoms: N_26  and  C_31
   22  A    between atoms: C_28  and  C_44
   23  A    between atoms: C_28  and  C_45
   24  A    between atoms: C_29  and  C_30
   25  A    between atoms: C_29  and  C_45
   26  A    between atoms: C_33  and  C_42
                            x       y       z     vdW  Elec       q    Type
                         _______ _______ _______ _____ _____    ______ ____

>  <TORSDO>
F 26

$$$$
=
 OpenBabel11062417343D

 47 49  0  0  1  0  0  0  0  0999 V2000
  187.9240  177.7320  141.6880 C   0  0  0  0  0  2  0  0  0  0  0  0
  188.8000  178.3650  140.6230 C   0  0  0  0  0  2  0  0  0  0  0  0
  189.6760  177.3070  139.9710 C   0  0  0  0  0  2  0  0  0  0  0  0
  189.7480  177.5190  138.4680 C   0  0  0  0  0  2  0  0  0  0  0  0
  189.2630  176.3140  137.7350 C   0  0  0  0  0  0  0  0  0  0  0  0
  186.7600  176.1640  137.0350 C   0  0  0  0  0  3  0  0  0  0  0  0
  188.0150  176.2400  137.3700 C   0  0  0  0  0  0  0  0  0  0  0  0
  190.3290  174.8930  137.5210 S   0  0  0  0  0  0  0  0  0  0  0  0
  191.5700  175.8420  136.6300 C   0  0  0  0  0  0  0  0  0  0  0  0
  191.3520  176.1790  135.4770 O   0  0  0  0  0  0  0  0  0  0  0  0
  194.7680  175.2900  138.2770 O   0  0  0  0  0  1  0  0  0  0  0  0
  192.8350  176.2670  137.3110 C   0  0  2  0  0  3  0  0  0  0  0  0
  193.9730  176.3550  136.3110 C   0  0  0  0  0  2  0  0  0  0  0  0
  193.8640  175.1530  137.2240 C   0  0  1  0  0  3  0  0  0  0  0  0
  185.9280  177.3990  137.0030 C   0  0  0  0  0  2  0  0  0  0  0  0
  184.3760  175.9360  135.7490 N   0  0  0  0  0  1  0  0  0  0  0  0
  184.4850  177.1380  136.5630 C   0  0  1  0  0  3  0  0  0  0  0  0
  183.8510  178.0190  138.7000 F   0  0  0  0  0  0  0  0  0  0  0  0
  183.4500  177.1570  137.6950 C   0  0  2  0  0  3  0  0  0  0  0  0
  183.0970  175.4980  138.3770 S   0  0  0  0  0  0  0  0  0  0  0  0
  181.8140  176.1110  139.5160 C   0  0  0  0  0  2  0  0  0  0  0  0
  180.4640  176.1920  138.8180 C   0  0  0  0  0  2  0  0  0  0  0  0
  179.6000  174.1820  139.1210 C   0  0  0  0  0  1  0  0  0  0  0  0
  179.4950  175.5040  139.5500 O   0  0  0  0  0  0  0  0  0  0  0  0
  188.7810  176.8750  142.6030 C   0  0  0  0  0  2  0  0  0  0  0  0
  188.1620  176.8060  143.9910 C   0  0  1  0  0  3  0  0  0  0  0  0
  191.9750  176.5700  145.4750 O   0  0  0  0  0  0  0  0  0  0  0  0
  189.2220  177.1450  145.0280 C   0  0  2  0  0  3  0  0  0  0  0  0
  191.0910  176.1270  143.1300 O   0  0  0  0  0  0  0  0  0  0  0  0
  190.0600  178.1600  144.5240 N   0  0  0  0  0  2  0  0  0  0  0  0
  190.7960  176.5360  144.5460 S   0  0  0  0  0  0  0  0  0  0  0  0
  187.1060  177.7190  144.0740 O   0  0  0  0  0  0  0  0  0  0  0  0
  186.4760  177.4030  145.1910 O   0  0  0  0  0  0  0  0  0  0  0  0
  185.9260  178.6020  145.6500 C   0  0  2  0  0  3  0  0  0  0  0  0
  186.5200  178.9430  147.0050 C   0  0  0  0  0  2  0  0  0  0  0  0
  188.0570  178.1950  148.7980 C   0  0  0  0  0  1  0  0  0  0  0  0
  187.3990  177.8070  147.4880 C   0  0  0  0  0  2  0  0  0  0  0  0
  184.4140  178.4490  145.7600 C   0  0  0  0  0  2  0  0  0  0  0  0
  183.8460  178.4510  142.0160 C   0  0  0  0  0  3  0  0  0  0  0  0
  184.4570  178.2820  143.2610 C   0  0  0  0  0  3  0  0  0  0  0  0
  183.7610  178.6040  144.4320 C   0  0  0  0  0  0  0  0  0  0  0  0
  182.5420  178.9450  141.9410 C   0  0  0  0  0  3  0  0  0  0  0  0
  181.8360  179.2640  143.1100 C   0  0  0  0  0  0  0  0  0  0  0  0
  182.4500  179.0880  144.3520 C   0  0  0  0  0  3  0  0  0  0  0  0
  180.5020  179.7750  143.0560 N   0  0  0  0  0  2  0  0  0  0  0  0
  179.3400  179.0520  143.5520 C   0  0  0  0  0  2  0  0  0  0  0  0
  179.5800  177.6200  143.4780 N   0  0  0  0  0  1  0  0  0  0  0  0
  1 25  1  0  0  0  0
  2  1  1  0  0  0  0
  3  2  1  0  0  0  0
  4  3  1  0  0  0  0
  5  4  1  0  0  0  0
  6  7  2  0  0  0  0
  7  5  2  0  0  0  0
  8  5  1  0  0  0  0
  9  8  1  0  0  0  0
 10  9  2  0  0  0  0
 12  9  1  6  0  0  0
 13 14  1  0  0  0  0
 13 12  1  0  0  0  0
 14 12  1  0  0  0  0
 14 11  1  1  0  0  0
 15  6  1  0  0  0  0
 17 16  1  1  0  0  0
 17 15  1  0  0  0  0
 17 19  1  0  0  0  0
 19 20  1  0  0  0  0
 19 18  1  1  0  0  0
 20 21  1  0  0  0  0
 22 21  1  0  0  0  0
 22 24  1  0  0  0  0
 23 24  1  0  0  0  0
 26 25  1  6  0  0  0
 26 32  1  0  0  0  0
 28 26  1  6  0  0  0
 29 31  2  0  0  0  0
 30 31  1  0  0  0  0
 30 28  1  0  0  0  0
 31 28  1  0  0  0  0
 31 27  2  0  0  0  0
 32 33  1  0  0  0  0
 33 34  1  0  0  0  0
 34 38  1  1  0  0  0
 34 35  1  0  0  0  0
 35 37  1  0  0  0  0
 37 36  1  0  0  0  0
 39 40  1  0  0  0  0
 40 41  2  0  0  0  0
 41 38  1  0  0  0  0
 42 39  2  0  0  0  0
 42 43  1  0  0  0  0
 43 44  2  0  0  0  0
 44 41  1  0  0  0  0
 45 43  1  0  0  0  0
 45 46  1  0  0  0  0
 47 46  1  0  0  0  0
M  END
>  <MODEL>
6

>  <REMARK>
 VINA RESULT:      -5.3      2.038      2.433
  Name = 
  26 active torsions:
  status: ('A' for Active; 'I' for Inactive)
    1  A    between atoms: C_2  and  S_17
    2  A    between atoms: C_2  and  C_44
    3  A    between atoms: C_3  and  C_14
    4  A    between atoms: C_3  and  C_18
    5  A    between atoms: C_7  and  N_26
    6  A    between atoms: C_9  and  C_16
    7  A    between atoms: C_9  and  S_17
    8  A    between atoms: O_10  and  C_19
    9  A    between atoms: O_10  and  O_38
   10  A    between atoms: C_11  and  C_12
   11  A    between atoms: C_12  and  C_19
   12  A    between atoms: C_13  and  C_24
   13  A    between atoms: C_13  and  C_30
   14  A    between atoms: C_13  and  O_38
   15  A    between atoms: S_15  and  C_27
   16  A    between atoms: S_15  and  C_35
   17  A    between atoms: C_18  and  C_35
   18  A    between atoms: C_19  and  C_42
   19  A    between atoms: C_22  and  C_27
   20  A    between atoms: C_22  and  O_41
   21  A    between atoms: N_26  and  C_31
   22  A    between atoms: C_28  and  C_44
   23  A    between atoms: C_28  and  C_45
   24  A    between atoms: C_29  and  C_30
   25  A    between atoms: C_29  and  C_45
   26  A    between atoms: C_33  and  C_42
                            x       y       z     vdW  Elec       q    Type
                         _______ _______ _______ _____ _____    ______ ____

>  <TORSDO>
F 26

$$$$
=
 OpenBabel11062417343D

 47 49  0  0  1  0  0  0  0  0999 V2000
  186.9470  177.1910  137.7930 C   0  0  0  0  0  2  0  0  0  0  0  0
  186.8490  177.8930  136.4510 C   0  0  0  0  0  2  0  0  0  0  0  0
  185.8570  177.1680  135.5540 C   0  0  0  0  0  2  0  0  0  0  0  0
  184.5220  176.9960  136.2590 C   0  0  0  0  0  2  0  0  0  0  0  0
  183.7520  175.8610  135.6720 C   0  0  0  0  0  0  0  0  0  0  0  0
  181.1500  175.9050  135.7470 C   0  0  0  0  0  3  0  0  0  0  0  0
  182.4500  175.8840  135.6940 C   0  0  0  0  0  0  0  0  0  0  0  0
  184.5970  174.3850  135.1130 S   0  0  0  0  0  0  0  0  0  0  0  0
  184.4030  173.5610  136.7000 C   0  0  0  0  0  0  0  0  0  0  0  0
  184.8120  174.1070  137.7130 O   0  0  0  0  0  0  0  0  0  0  0  0
  181.5220  171.4040  137.2350 O   0  0  0  0  0  1  0  0  0  0  0  0
  183.6930  172.2440  136.7890 C   0  0  2  0  0  3  0  0  0  0  0  0
  183.0230  171.9120  135.4700 C   0  0  0  0  0  2  0  0  0  0  0  0
  182.1990  172.4540  136.6170 C   0  0  1  0  0  3  0  0  0  0  0  0
  180.4420  177.1910  135.9950 C   0  0  0  0  0  2  0  0  0  0  0  0
  179.2340  176.0360  137.8200 N   0  0  0  0  0  1  0  0  0  0  0  0
  179.8510  177.2880  137.4050 C   0  0  1  0  0  3  0  0  0  0  0  0
  181.6550  176.8350  138.9170 F   0  0  0  0  0  0  0  0  0  0  0  0
  180.8080  177.8340  138.4710 C   0  0  2  0  0  3  0  0  0  0  0  0
  179.9460  178.6190  139.8800 S   0  0  0  0  0  0  0  0  0  0  0  0
  180.9780  180.1190  139.8270 C   0  0  0  0  0  2  0  0  0  0  0  0
  181.3390  180.4770  138.3930 C   0  0  0  0  0  2  0  0  0  0  0  0
  180.9530  182.5880  137.8680 C   0  0  0  0  0  1  0  0  0  0  0  0
  181.9470  181.7330  138.3420 O   0  0  0  0  0  0  0  0  0  0  0  0
  187.9810  177.8930  138.6550 C   0  0  0  0  0  2  0  0  0  0  0  0
  187.3370  178.4110  139.9320 C   0  0  1  0  0  3  0  0  0  0  0  0
  183.5970  178.3260  141.6040 O   0  0  0  0  0  0  0  0  0  0  0  0
  185.8290  178.2390  139.8380 C   0  0  2  0  0  3  0  0  0  0  0  0
  185.7580  179.3650  142.4570 O   0  0  0  0  0  0  0  0  0  0  0  0
  185.2130  179.5060  139.8440 N   0  0  0  0  0  2  0  0  0  0  0  0
  185.0560  178.5990  141.3720 S   0  0  0  0  0  0  0  0  0  0  0  0
  187.8310  177.6920  141.0250 O   0  0  0  0  0  0  0  0  0  0  0  0
  188.8220  178.4280  141.4940 O   0  0  0  0  0  0  0  0  0  0  0  0
  189.6330  177.5380  142.2010 C   0  0  2  0  0  3  0  0  0  0  0  0
  190.5080  176.7700  141.2260 C   0  0  0  0  0  2  0  0  0  0  0  0
  192.5640  177.5170  140.0630 C   0  0  0  0  0  1  0  0  0  0  0  0
  191.9600  177.1640  141.4090 C   0  0  0  0  0  2  0  0  0  0  0  0
  188.7510  176.5770  142.9890 C   0  0  0  0  0  2  0  0  0  0  0  0
  189.7200  177.4830  146.5350 C   0  0  0  0  0  3  0  0  0  0  0  0
  189.8160  177.1220  145.1890 C   0  0  0  0  0  3  0  0  0  0  0  0
  188.6570  176.9830  144.4170 C   0  0  0  0  0  0  0  0  0  0  0  0
  188.4660  177.6990  147.1110 C   0  0  0  0  0  3  0  0  0  0  0  0
  187.3010  177.5670  146.3420 C   0  0  0  0  0  0  0  0  0  0  0  0
  187.4030  177.2120  144.9950 C   0  0  0  0  0  3  0  0  0  0  0  0
  186.0070  177.7810  146.9110 N   0  0  0  0  0  2  0  0  0  0  0  0
  185.3020  179.0530  146.8590 C   0  0  0  0  0  2  0  0  0  0  0  0
  184.2240  178.9810  145.8870 N   0  0  0  0  0  1  0  0  0  0  0  0
  1 25  1  0  0  0  0
  2  1  1  0  0  0  0
  3  4  1  0  0  0  0
  3  2  1  0  0  0  0
  5  7  2  0  0  0  0
  5  4  1  0  0  0  0
  6 15  1  0  0  0  0
  7  6  2  0  0  0  0
  8  5  1  0  0  0  0
  8  9  1  0  0  0  0
  9 10  2  0  0  0  0
 12  9  1  6  0  0  0
 13 14  1  0  0  0  0
 13 12  1  0  0  0  0
 14 12  1  0  0  0  0
 14 11  1  1  0  0  0
 15 17  1  0  0  0  0
 17 16  1  1  0  0  0
 17 19  1  0  0  0  0
 19 18  1  1  0  0  0
 19 20  1  0  0  0  0
 21 20  1  0  0  0  0
 22 21  1  0  0  0  0
 23 24  1  0  0  0  0
 24 22  1  0  0  0  0
 26 25  1  6  0  0  0
 26 32  1  0  0  0  0
 28 30  1  0  0  0  0
 28 26  1  1  0  0  0
 28 31  1  0  0  0  0
 30 31  1  0  0  0  0
 31 27  2  0  0  0  0
 31 29  2  0  0  0  0
 32 33  1  0  0  0  0
 33 34  1  0  0  0  0
 34 35  1  6  0  0  0
 34 38  1  0  0  0  0
 35 37  1  0  0  0  0
 36 37  1  0  0  0  0
 38 41  1  0  0  0  0
 39 42  1  0  0  0  0
 40 39  2  0  0  0  0
 41 44  2  0  0  0  0
 41 40  1  0  0  0  0
 43 45  1  0  0  0  0
 43 42  2  0  0  0  0
 44 43  1  0  0  0  0
 46 45  1  0  0  0  0
 47 46  1  0  0  0  0
M  END
>  <MODEL>
7

>  <REMARK>
 VINA RESULT:      -5.1      3.450      6.473
  Name = 
  26 active torsions:
  status: ('A' for Active; 'I' for Inactive)
    1  A    between atoms: C_2  and  S_17
    2  A    between atoms: C_2  and  C_44
    3  A    between atoms: C_3  and  C_14
    4  A    between atoms: C_3  and  C_18
    5  A    between atoms: C_7  and  N_26
    6  A    between atoms: C_9  and  C_16
    7  A    between atoms: C_9  and  S_17
    8  A    between atoms: O_10  and  C_19
    9  A    between atoms: O_10  and  O_38
   10  A    between atoms: C_11  and  C_12
   11  A    between atoms: C_12  and  C_19
   12  A    between atoms: C_13  and  C_24
   13  A    between atoms: C_13  and  C_30
   14  A    between atoms: C_13  and  O_38
   15  A    between atoms: S_15  and  C_27
   16  A    between atoms: S_15  and  C_35
   17  A    between atoms: C_18  and  C_35
   18  A    between atoms: C_19  and  C_42
   19  A    between atoms: C_22  and  C_27
   20  A    between atoms: C_22  and  O_41
   21  A    between atoms: N_26  and  C_31
   22  A    between atoms: C_28  and  C_44
   23  A    between atoms: C_28  and  C_45
   24  A    between atoms: C_29  and  C_30
   25  A    between atoms: C_29  and  C_45
   26  A    between atoms: C_33  and  C_42
                            x       y       z     vdW  Elec       q    Type
                         _______ _______ _______ _____ _____    ______ ____

>  <TORSDO>
F 26

$$$$
=
 OpenBabel11062417343D

 47 49  0  0  1  0  0  0  0  0999 V2000
  187.9120  177.4390  138.8300 C   0  0  0  0  0  2  0  0  0  0  0  0
  186.7280  178.2910  138.4090 C   0  0  0  0  0  2  0  0  0  0  0  0
  185.9160  177.5680  137.3470 C   0  0  0  0  0  2  0  0  0  0  0  0
  184.7180  176.8700  137.9680 C   0  0  0  0  0  2  0  0  0  0  0  0
  184.2040  175.7920  137.0730 C   0  0  0  0  0  0  0  0  0  0  0  0
  181.9940  174.5620  137.6890 C   0  0  0  0  0  3  0  0  0  0  0  0
  183.0920  175.1830  137.3690 C   0  0  0  0  0  0  0  0  0  0  0  0
  185.1970  175.2000  135.7060 S   0  0  0  0  0  0  0  0  0  0  0  0
  186.0730  174.0140  136.7360 C   0  0  0  0  0  0  0  0  0  0  0  0
  185.5500  172.9410  136.9920 O   0  0  0  0  0  0  0  0  0  0  0  0
  189.6180  173.3370  137.2010 O   0  0  0  0  0  1  0  0  0  0  0  0
  187.4570  174.3120  137.2260 C   0  0  2  0  0  3  0  0  0  0  0  0
  188.2760  174.9770  136.1360 C   0  0  0  0  0  2  0  0  0  0  0  0
  188.4690  173.5060  136.4300 C   0  0  1  0  0  3  0  0  0  0  0  0
  181.0590  175.1750  138.6730 C   0  0  0  0  0  2  0  0  0  0  0  0
  179.4460  176.7090  137.5920 N   0  0  0  0  0  1  0  0  0  0  0  0
  180.6960  176.6240  138.3320 C   0  0  1  0  0  3  0  0  0  0  0  0
  180.1140  177.0260  140.6220 F   0  0  0  0  0  0  0  0  0  0  0  0
  180.7250  177.5940  139.5190 C   0  0  2  0  0  3  0  0  0  0  0  0
  179.9800  179.2200  139.1400 S   0  0  0  0  0  0  0  0  0  0  0  0
  181.4720  179.8400  138.2990 C   0  0  0  0  0  2  0  0  0  0  0  0
  181.1390  181.0310  137.4120 C   0  0  0  0  0  2  0  0  0  0  0  0
  180.7750  183.1910  137.6950 C   0  0  0  0  0  1  0  0  0  0  0  0
  180.3240  181.9340  138.0950 O   0  0  0  0  0  0  0  0  0  0  0  0
  188.8200  178.2480  139.7390 C   0  0  0  0  0  2  0  0  0  0  0  0
  188.8870  177.6110  141.1180 C   0  0  1  0  0  3  0  0  0  0  0  0
  191.9410  176.6840  143.6890 O   0  0  0  0  0  0  0  0  0  0  0  0
  190.2580  177.8730  141.7230 C   0  0  2  0  0  3  0  0  0  0  0  0
  190.0400  175.2420  142.8020 O   0  0  0  0  0  0  0  0  0  0  0  0
  191.1980  176.9940  141.1490 N   0  0  0  0  0  2  0  0  0  0  0  0
  190.7220  176.5810  142.8180 S   0  0  0  0  0  0  0  0  0  0  0  0
  187.8940  178.1650  141.9330 O   0  0  0  0  0  0  0  0  0  0  0  0
  187.3620  177.1330  142.5620 O   0  0  0  0  0  0  0  0  0  0  0  0
  186.3610  177.6780  143.3700 C   0  0  2  0  0  3  0  0  0  0  0  0
  185.2620  178.2510  142.4940 C   0  0  0  0  0  2  0  0  0  0  0  0
  182.7940  178.4690  142.5300 C   0  0  0  0  0  1  0  0  0  0  0  0
  184.0650  178.6310  143.3420 C   0  0  0  0  0  2  0  0  0  0  0  0
  186.9640  178.7720  144.2430 C   0  0  0  0  0  2  0  0  0  0  0  0
  187.2950  177.5460  147.8110 C   0  0  0  0  0  3  0  0  0  0  0  0
  186.7440  178.0580  146.6340 C   0  0  0  0  0  3  0  0  0  0  0  0
  187.5400  178.2050  145.4930 C   0  0  0  0  0  0  0  0  0  0  0  0
  188.6430  177.1830  147.8480 C   0  0  0  0  0  3  0  0  0  0  0  0
  189.4460  177.3200  146.7060 C   0  0  0  0  0  0  0  0  0  0  0  0
  188.8880  177.8290  145.5310 C   0  0  0  0  0  3  0  0  0  0  0  0
  190.8290  176.9590  146.7220 N   0  0  0  0  0  2  0  0  0  0  0  0
  191.4090  176.0280  147.6800 C   0  0  0  0  0  2  0  0  0  0  0  0
  192.7380  175.6340  147.2430 N   0  0  0  0  0  1  0  0  0  0  0  0
  1 25  1  0  0  0  0
  2  1  1  0  0  0  0
  3  4  1  0  0  0  0
  3  2  1  0  0  0  0
  5  7  2  0  0  0  0
  5  4  1  0  0  0  0
  6 15  1  0  0  0  0
  7  6  2  0  0  0  0
  8  9  1  0  0  0  0
  8  5  1  0  0  0  0
  9 10  2  0  0  0  0
 12  9  1  6  0  0  0
 13 14  1  0  0  0  0
 13 12  1  0  0  0  0
 14 11  1  1  0  0  0
 14 12  1  0  0  0  0
 17 16  1  1  0  0  0
 17 15  1  0  0  0  0
 17 19  1  0  0  0  0
 19 18  1  1  0  0  0
 20 19  1  0  0  0  0
 21 20  1  0  0  0  0
 22 24  1  0  0  0  0
 22 21  1  0  0  0  0
 23 24  1  0  0  0  0
 26 25  1  6  0  0  0
 26 32  1  0  0  0  0
 28 26  1  6  0  0  0
 28 31  1  0  0  0  0
 29 31  2  0  0  0  0
 30 28  1  0  0  0  0
 30 31  1  0  0  0  0
 31 27  2  0  0  0  0
 32 33  1  0  0  0  0
 33 34  1  0  0  0  0
 34 35  1  6  0  0  0
 34 38  1  0  0  0  0
 35 37  1  0  0  0  0
 36 37  1  0  0  0  0
 38 41  1  0  0  0  0
 39 42  1  0  0  0  0
 40 39  2  0  0  0  0
 41 44  2  0  0  0  0
 41 40  1  0  0  0  0
 43 45  1  0  0  0  0
 43 42  2  0  0  0  0
 44 43  1  0  0  0  0
 45 46  1  0  0  0  0
 47 46  1  0  0  0  0
M  END
>  <MODEL>
8

>  <REMARK>
 VINA RESULT:      -5.0      2.762      5.739
  Name = 
  26 active torsions:
  status: ('A' for Active; 'I' for Inactive)
    1  A    between atoms: C_2  and  S_17
    2  A    between atoms: C_2  and  C_44
    3  A    between atoms: C_3  and  C_14
    4  A    between atoms: C_3  and  C_18
    5  A    between atoms: C_7  and  N_26
    6  A    between atoms: C_9  and  C_16
    7  A    between atoms: C_9  and  S_17
    8  A    between atoms: O_10  and  C_19
    9  A    between atoms: O_10  and  O_38
   10  A    between atoms: C_11  and  C_12
   11  A    between atoms: C_12  and  C_19
   12  A    between atoms: C_13  and  C_24
   13  A    between atoms: C_13  and  C_30
   14  A    between atoms: C_13  and  O_38
   15  A    between atoms: S_15  and  C_27
   16  A    between atoms: S_15  and  C_35
   17  A    between atoms: C_18  and  C_35
   18  A    between atoms: C_19  and  C_42
   19  A    between atoms: C_22  and  C_27
   20  A    between atoms: C_22  and  O_41
   21  A    between atoms: N_26  and  C_31
   22  A    between atoms: C_28  and  C_44
   23  A    between atoms: C_28  and  C_45
   24  A    between atoms: C_29  and  C_30
   25  A    between atoms: C_29  and  C_45
   26  A    between atoms: C_33  and  C_42
                            x       y       z     vdW  Elec       q    Type
                         _______ _______ _______ _____ _____    ______ ____

>  <TORSDO>
F 26

$$$$
=
 OpenBabel11062417343D

 47 49  0  0  1  0  0  0  0  0999 V2000
  189.1070  177.3270  140.1410 C   0  0  0  0  0  2  0  0  0  0  0  0
  190.2450  176.5000  139.5710 C   0  0  0  0  0  2  0  0  0  0  0  0
  190.4190  176.8010  138.0910 C   0  0  0  0  0  2  0  0  0  0  0  0
  191.7930  176.3640  137.6110 C   0  0  0  0  0  2  0  0  0  0  0  0
  191.6900  175.5670  136.3540 C   0  0  0  0  0  0  0  0  0  0  0  0
  189.9560  173.6310  136.2040 C   0  0  0  0  0  3  0  0  0  0  0  0
  190.8140  174.6070  136.2680 C   0  0  0  0  0  0  0  0  0  0  0  0
  192.8820  175.7930  135.0370 S   0  0  0  0  0  0  0  0  0  0  0  0
  194.2790  175.4640  136.1210 C   0  0  0  0  0  0  0  0  0  0  0  0
  195.0490  176.3710  136.3970 O   0  0  0  0  0  0  0  0  0  0  0  0
  196.1870  172.5080  137.0470 O   0  0  0  0  0  1  0  0  0  0  0  0
  194.4670  174.1070  136.7270 C   0  0  2  0  0  3  0  0  0  0  0  0
  194.9820  174.2280  138.1490 C   0  0  0  0  0  2  0  0  0  0  0  0
  195.9380  173.8790  137.0300 C   0  0  1  0  0  3  0  0  0  0  0  0
  188.8290  173.5740  137.1760 C   0  0  0  0  0  2  0  0  0  0  0  0
  187.6370  174.5840  135.2580 N   0  0  0  0  0  1  0  0  0  0  0  0
  187.5760  174.3050  136.6860 C   0  0  1  0  0  3  0  0  0  0  0  0
  186.4670  172.6200  137.9790 F   0  0  0  0  0  0  0  0  0  0  0  0
  186.2480  173.6510  137.0840 C   0  0  2  0  0  3  0  0  0  0  0  0
  185.2760  173.0610  135.6520 S   0  0  0  0  0  0  0  0  0  0  0  0
  184.0920  172.1400  136.6860 C   0  0  0  0  0  2  0  0  0  0  0  0
  182.8130  172.9400  136.8890 C   0  0  0  0  0  2  0  0  0  0  0  0
  182.1010  174.9820  136.4430 C   0  0  0  0  0  1  0  0  0  0  0  0
  182.6320  173.8430  135.8410 O   0  0  0  0  0  0  0  0  0  0  0  0
  189.4970  177.8450  141.5140 C   0  0  0  0  0  2  0  0  0  0  0  0
  188.3780  177.5870  142.5110 C   0  0  1  0  0  3  0  0  0  0  0  0
  190.5720  176.7750  145.8760 O   0  0  0  0  0  0  0  0  0  0  0  0
  188.8660  177.9300  143.9100 C   0  0  2  0  0  3  0  0  0  0  0  0
  190.7860  175.8600  143.5100 O   0  0  0  0  0  0  0  0  0  0  0  0
  190.1770  178.4420  143.8350 N   0  0  0  0  0  2  0  0  0  0  0  0
  190.0670  176.7750  144.4610 S   0  0  0  0  0  0  0  0  0  0  0  0
  187.2740  178.3810  142.1850 O   0  0  0  0  0  0  0  0  0  0  0  0
  186.3420  178.0350  143.0540 O   0  0  0  0  0  0  0  0  0  0  0  0
  185.3210  178.9730  142.8860 C   0  0  2  0  0  3  0  0  0  0  0  0
  185.1160  179.7340  144.1830 C   0  0  0  0  0  2  0  0  0  0  0  0
  185.1700  178.4280  146.2880 C   0  0  0  0  0  1  0  0  0  0  0  0
  184.2920  178.9050  145.1480 C   0  0  0  0  0  2  0  0  0  0  0  0
  184.0390  178.2500  142.4900 C   0  0  0  0  0  2  0  0  0  0  0  0
  182.4200  177.9650  139.0790 C   0  0  0  0  0  3  0  0  0  0  0  0
  182.5940  177.9570  140.4650 C   0  0  0  0  0  3  0  0  0  0  0  0
  183.8400  178.2790  141.0160 C   0  0  0  0  0  0  0  0  0  0  0  0
  183.4900  178.2910  138.2430 C   0  0  0  0  0  3  0  0  0  0  0  0
  184.7390  178.6220  138.7890 C   0  0  0  0  0  0  0  0  0  0  0  0
  184.9070  178.6170  140.1750 C   0  0  0  0  0  3  0  0  0  0  0  0
  185.8500  178.9560  137.9520 N   0  0  0  0  0  2  0  0  0  0  0  0
  186.7220  177.9670  137.3350 C   0  0  0  0  0  2  0  0  0  0  0  0
  187.6860  178.6290  136.4720 N   0  0  0  0  0  1  0  0  0  0  0  0
  1 25  1  0  0  0  0
  2  1  1  0  0  0  0
  3  2  1  0  0  0  0
  4  3  1  0  0  0  0
  5  4  1  0  0  0  0
  6  7  2  0  0  0  0
  6 15  1  0  0  0  0
  7  5  2  0  0  0  0
  8  9  1  0  0  0  0
  8  5  1  0  0  0  0
  9 10  2  0  0  0  0
 12  9  1  6  0  0  0
 12 14  1  0  0  0  0
 12 13  1  0  0  0  0
 14 11  1  1  0  0  0
 14 13  1  0  0  0  0
 17 16  1  6  0  0  0
 17 19  1  0  0  0  0
 17 15  1  0  0  0  0
 19 18  1  1  0  0  0
 20 21  1  0  0  0  0
 20 19  1  0  0  0  0
 21 22  1  0  0  0  0
 24 23  1  0  0  0  0
 24 22  1  0  0  0  0
 26 25  1  6  0  0  0
 28 26  1  6  0  0  0
 28 31  1  0  0  0  0
 29 31  2  0  0  0  0
 30 28  1  0  0  0  0
 30 31  1  0  0  0  0
 31 27  2  0  0  0  0
 32 26  1  0  0  0  0
 32 33  1  0  0  0  0
 34 38  1  1  0  0  0
 34 33  1  0  0  0  0
 34 35  1  0  0  0  0
 35 37  1  0  0  0  0
 37 36  1  0  0  0  0
 39 40  1  0  0  0  0
 40 41  2  0  0  0  0
 41 38  1  0  0  0  0
 42 43  1  0  0  0  0
 42 39  2  0  0  0  0
 43 44  2  0  0  0  0
 44 41  1  0  0  0  0
 45 43  1  0  0  0  0
 46 45  1  0  0  0  0
 47 46  1  0  0  0  0
M  END
>  <MODEL>
9

>  <REMARK>
 VINA RESULT:      -4.8      2.906      4.733
  Name = 
  26 active torsions:
  status: ('A' for Active; 'I' for Inactive)
    1  A    between atoms: C_2  and  S_17
    2  A    between atoms: C_2  and  C_44
    3  A    between atoms: C_3  and  C_14
    4  A    between atoms: C_3  and  C_18
    5  A    between atoms: C_7  and  N_26
    6  A    between atoms: C_9  and  C_16
    7  A    between atoms: C_9  and  S_17
    8  A    between atoms: O_10  and  C_19
    9  A    between atoms: O_10  and  O_38
   10  A    between atoms: C_11  and  C_12
   11  A    between atoms: C_12  and  C_19
   12  A    between atoms: C_13  and  C_24
   13  A    between atoms: C_13  and  C_30
   14  A    between atoms: C_13  and  O_38
   15  A    between atoms: S_15  and  C_27
   16  A    between atoms: S_15  and  C_35
   17  A    between atoms: C_18  and  C_35
   18  A    between atoms: C_19  and  C_42
   19  A    between atoms: C_22  and  C_27
   20  A    between atoms: C_22  and  O_41
   21  A    between atoms: N_26  and  C_31
   22  A    between atoms: C_28  and  C_44
   23  A    between atoms: C_28  and  C_45
   24  A    between atoms: C_29  and  C_30
   25  A    between atoms: C_29  and  C_45
   26  A    between atoms: C_33  and  C_42
                            x       y       z     vdW  Elec       q    Type
                         _______ _______ _______ _____ _____    ______ ____

>  <TORSDO>
F 26

$$$$
