=
 OpenBabel11062414233D

 45 52  0  0  1  0  0  0  0  0999 V2000
  186.3730  177.0410  135.7510 C   0  0  0  0  0  2  0  0  0  0  0  0
  183.5380  175.5380  136.4910 C   0  0  1  0  0  3  0  0  0  0  0  0
  189.9950  173.6200  135.7120 O   0  0  0  0  0  0  0  0  0  0  0  0
  187.5650  171.0040  135.2050 C   0  0  0  0  0  2  0  0  0  0  0  0
  185.4390  177.2060  136.9500 C   0  0  0  0  0  2  0  0  0  0  0  0
  188.6620  175.3730  136.7850 C   0  0  0  0  0  0  0  0  0  0  0  0
  183.0180  175.1970  137.7990 N   0  0  0  0  0  2  0  0  0  0  0  0
  182.6560  176.2070  138.5020 C   0  0  1  0  0  3  0  0  0  0  0  0
  188.6770  176.0910  137.9220 C   0  0  0  0  0  3  0  0  0  0  0  0
  185.3370  175.0140  134.9310 O   0  0  0  0  0  0  0  0  0  0  0  0
  188.8700  172.7980  135.6500 C   0  0  0  0  0  0  0  0  0  0  0  0
  186.9550  172.4590  137.2400 C   0  0  0  0  0  2  0  0  0  0  0  0
  186.5670  175.5730  135.3470 C   0  0  2  0  0  3  0  0  0  0  0  0
  188.9010  171.5950  135.1940 N   0  0  0  0  0  0  0  0  0  0  0  0
  187.3380  174.7470  136.4130 C   0  0  1  0  0  3  0  0  0  0  0  0
  189.8470  175.0310  135.8720 C   0  0  1  0  0  3  0  0  0  0  0  0
  183.9780  177.0140  136.5430 C   0  0  2  0  0  3  0  0  0  0  0  0
  185.2870  172.3180  135.1380 C   0  0  0  0  0  2  0  0  0  0  0  0
  184.6460  174.5650  136.0730 C   0  0  2  0  0  3  0  0  0  0  0  0
  182.2010  176.0470  139.8380 N   0  0  0  0  0  1  0  0  0  0  0  0
  182.9200  177.8180  137.7880 S   0  0  0  0  0  0  0  0  0  0  0  0
  184.2340  173.0940  135.9360 C   0  0  1  0  0  3  0  0  0  0  0  0
  187.5350  173.2570  136.0670 C   0  0  1  0  0  0  0  0  0  0  0  0
  186.6330  172.0550  135.8240 C   0  0  2  0  0  0  0  0  0  0  0  0
  189.4640  177.2240  139.9420 C   0  0  2  0  0  3  0  0  0  0  0  0
  189.8440  176.7700  138.5470 C   0  0  2  0  0  3  0  0  0  0  0  0
  189.4970  178.2210  138.8020 C   0  0  0  0  0  2  0  0  0  0  0  0
  190.7300  177.3400  140.7730 C   0  0  0  0  0  2  0  0  0  0  0  0
  191.5480  177.8360  142.9180 C   0  0  0  0  0  2  0  0  0  0  0  0
  189.2280  178.0930  142.3940 C   0  0  0  0  0  2  0  0  0  0  0  0
  188.3880  177.5290  143.5370 C   0  0  2  0  0  3  0  0  0  0  0  0
  189.1390  177.6560  144.8680 C   0  0  2  0  0  3  0  0  0  0  0  0
  190.4130  177.2650  142.1870 N   0  0  0  0  0  0  0  0  0  0  0  0
  190.3570  176.9540  144.8400 O   0  0  0  0  0  0  0  0  0  0  0  0
  188.0610  176.2100  143.2680 F   0  0  0  0  0  0  0  0  0  0  0  0
  191.3070  177.8990  144.4350 C   0  0  0  0  0  2  0  0  0  0  0  0
  188.2870  177.2470  146.0680 C   0  0  0  0  0  2  0  0  0  0  0  0
  186.8420  177.7100  145.9430 C   0  0  0  0  0  1  0  0  0  0  0  0
  192.2610  174.8000  136.6210 C   0  0  0  0  0  1  0  0  0  0  0  0
  191.6470  176.2650  134.8090 O   0  0  0  0  0  1  0  0  0  0  0  0
  191.2100  175.7050  136.0100 C   0  0  1  0  0  3  0  0  0  0  0  0
  182.8900  172.9610  135.2280 C   0  0  0  0  0  2  0  0  0  0  0  0
  182.3240  171.5660  137.2150 O   0  0  0  0  0  1  0  0  0  0  0  0
  181.0150  171.4880  135.3350 O   0  0  0  0  0  0  0  0  0  0  0  0
  182.0260  171.9610  135.9190 C   0  0  0  0  0  0  0  0  0  0  0  0
  1  5  1  0  0  0  0
  2 17  1  0  0  0  0
  2  7  1  1  0  0  0
  3 16  1  0  0  0  0
  4 24  1  0  0  0  0
  6  9  2  0  0  0  0
  7  8  1  0  0  0  0
  8 20  1  1  0  0  0
 10 13  1  0  0  0  0
 11  3  1  0  0  0  0
 11 23  1  0  0  0  0
 13  1  1  1  0  0  0
 13 15  1  0  0  0  0
 14  4  1  0  0  0  0
 14 11  2  0  0  0  0
 15  6  1  6  0  0  0
 16 41  1  1  0  0  0
 16  6  1  0  0  0  0
 17  5  1  1  0  0  0
 17 21  1  0  0  0  0
 18 22  1  0  0  0  0
 19 10  1  6  0  0  0
 19  2  1  0  0  0  0
 21  8  1  0  0  0  0
 22 42  1  6  0  0  0
 22 19  1  0  0  0  0
 23 15  1  0  0  0  0
 23 12  1  1  0  0  0
 24 18  1  6  0  0  0
 24 23  1  0  0  0  0
 24 12  1  0  0  0  0
 25 28  1  1  0  0  0
 26  9  1  6  0  0  0
 26 27  1  0  0  0  0
 26 25  1  0  0  0  0
 27 25  1  0  0  0  0
 28 33  1  0  0  0  0
 29 36  1  0  0  0  0
 30 31  1  0  0  0  0
 31 35  1  6  0  0  0
 31 32  1  0  0  0  0
 32 37  1  1  0  0  0
 33 30  1  0  0  0  0
 33 29  1  0  0  0  0
 34 32  1  0  0  0  0
 36 34  1  0  0  0  0
 38 37  1  0  0  0  0
 40 41  1  0  0  0  0
 41 39  1  6  0  0  0
 42 45  1  0  0  0  0
 44 45  2  0  0  0  0
 45 43  1  0  0  0  0
M  END
>  <MODEL>
1

>  <REMARK>
 VINA RESULT:      -7.8      0.000      0.000
  Name = 
  7 active torsions:
  status: ('A' for Active; 'I' for Inactive)
    1  A    between atoms: C_4  and  C_35
    2  A    between atoms: C_4  and  C_40
    3  A    between atoms: C_5  and  C_43
    4  A    between atoms: C_15  and  C_16
    5  A    between atoms: C_19  and  C_25
    6  A    between atoms: N_21  and  C_43
    7  A    between atoms: C_31  and  C_44
                            x       y       z     vdW  Elec       q    Type
                         _______ _______ _______ _____ _____    ______ ____

>  <TORSDO>
F 7

$$$$
=
 OpenBabel11062414233D

 45 52  0  0  1  0  0  0  0  0999 V2000
  185.1990  177.3650  136.1380 C   0  0  0  0  0  2  0  0  0  0  0  0
  182.3660  176.5930  137.6270 C   0  0  1  0  0  3  0  0  0  0  0  0
  187.8580  173.1900  135.5700 O   0  0  0  0  0  0  0  0  0  0  0  0
  184.8620  171.2030  135.8520 C   0  0  0  0  0  2  0  0  0  0  0  0
  184.6410  177.7810  137.4990 C   0  0  0  0  0  2  0  0  0  0  0  0
  187.2430  175.2390  136.7640 C   0  0  0  0  0  0  0  0  0  0  0  0
  182.1130  176.4230  139.0440 N   0  0  0  0  0  2  0  0  0  0  0  0
  182.1630  177.5120  139.7220 C   0  0  1  0  0  3  0  0  0  0  0  0
  187.6890  175.9670  137.8030 C   0  0  0  0  0  3  0  0  0  0  0  0
  183.5750  175.6140  135.7500 O   0  0  0  0  0  0  0  0  0  0  0  0
  186.5980  172.6530  135.8350 C   0  0  0  0  0  0  0  0  0  0  0  0
  185.0960  172.8220  137.8410 C   0  0  0  0  0  2  0  0  0  0  0  0
  184.9610  175.8810  135.8270 C   0  0  2  0  0  3  0  0  0  0  0  0
  186.2520  171.4640  135.4890 N   0  0  0  0  0  0  0  0  0  0  0  0
  185.7630  174.9300  136.7570 C   0  0  1  0  0  3  0  0  0  0  0  0
  188.0680  174.6000  135.6380 C   0  0  1  0  0  3  0  0  0  0  0  0
  183.1200  177.9260  137.4520 C   0  0  2  0  0  3  0  0  0  0  0  0
  182.9830  173.0130  136.1930 C   0  0  0  0  0  2  0  0  0  0  0  0
  183.0980  175.3750  137.0540 C   0  0  2  0  0  3  0  0  0  0  0  0
  182.0190  177.5040  141.1350 N   0  0  0  0  0  1  0  0  0  0  0  0
  182.5960  178.9930  138.8310 S   0  0  0  0  0  0  0  0  0  0  0  0
  182.3510  174.0380  137.1400 C   0  0  1  0  0  3  0  0  0  0  0  0
  185.5380  173.4260  136.5040 C   0  0  1  0  0  0  0  0  0  0  0  0
  184.3610  172.4620  136.5750 C   0  0  2  0  0  0  0  0  0  0  0  0
  189.1240  177.1860  139.3640 C   0  0  2  0  0  3  0  0  0  0  0  0
  189.0920  176.3730  138.0860 C   0  0  2  0  0  3  0  0  0  0  0  0
  189.1980  177.8810  138.0200 C   0  0  0  0  0  2  0  0  0  0  0  0
  190.5120  177.0770  139.9720 C   0  0  0  0  0  2  0  0  0  0  0  0
  191.7130  177.4680  141.9510 C   0  0  0  0  0  2  0  0  0  0  0  0
  189.3730  177.9470  141.8140 C   0  0  0  0  0  2  0  0  0  0  0  0
  188.6820  177.4490  143.0810 C   0  0  2  0  0  3  0  0  0  0  0  0
  189.6510  177.4890  144.2710 C   0  0  2  0  0  3  0  0  0  0  0  0
  190.4260  177.0140  141.4190 N   0  0  0  0  0  0  0  0  0  0  0  0
  190.7760  176.6770  144.0460 O   0  0  0  0  0  0  0  0  0  0  0  0
  188.1940  176.1700  142.8740 F   0  0  0  0  0  0  0  0  0  0  0  0
  191.7310  177.5340  143.4870 C   0  0  0  0  0  2  0  0  0  0  0  0
  188.9710  177.1470  145.5960 C   0  0  0  0  0  2  0  0  0  0  0  0
  187.5930  177.7770  145.7260 C   0  0  0  0  0  1  0  0  0  0  0  0
  190.3460  173.7620  134.8980 C   0  0  0  0  0  1  0  0  0  0  0  0
  189.6990  176.0640  134.5950 O   0  0  0  0  0  1  0  0  0  0  0  0
  189.5390  174.9400  135.4060 C   0  0  1  0  0  3  0  0  0  0  0  0
  180.8800  174.2030  136.7690 C   0  0  0  0  0  2  0  0  0  0  0  0
  179.6130  172.1440  137.3760 O   0  0  0  0  0  0  0  0  0  0  0  0
  179.6550  173.9400  138.8000 O   0  0  0  0  0  1  0  0  0  0  0  0
  180.0110  173.4320  137.7040 C   0  0  0  0  0  0  0  0  0  0  0  0
  1  5  1  0  0  0  0
  2  7  1  1  0  0  0
  3 16  1  0  0  0  0
  3 11  1  0  0  0  0
  6  9  2  0  0  0  0
  7  8  1  0  0  0  0
  8 20  1  1  0  0  0
 10 13  1  0  0  0  0
 11 23  1  0  0  0  0
 13  1  1  1  0  0  0
 13 15  1  0  0  0  0
 14 11  2  0  0  0  0
 14  4  1  0  0  0  0
 15  6  1  6  0  0  0
 16 41  1  1  0  0  0
 16  6  1  0  0  0  0
 17  5  1  1  0  0  0
 17  2  1  0  0  0  0
 17 21  1  0  0  0  0
 18 24  1  0  0  0  0
 18 22  1  0  0  0  0
 19 10  1  6  0  0  0
 19 22  1  0  0  0  0
 19  2  1  0  0  0  0
 21  8  1  0  0  0  0
 22 42  1  6  0  0  0
 23 24  1  0  0  0  0
 23 15  1  0  0  0  0
 23 12  1  1  0  0  0
 24  4  1  6  0  0  0
 24 12  1  0  0  0  0
 25 28  1  1  0  0  0
 26  9  1  6  0  0  0
 26 25  1  0  0  0  0
 27 26  1  0  0  0  0
 27 25  1  0  0  0  0
 28 33  1  0  0  0  0
 29 36  1  0  0  0  0
 30 31  1  0  0  0  0
 31 35  1  6  0  0  0
 31 32  1  0  0  0  0
 32 37  1  1  0  0  0
 33 30  1  0  0  0  0
 33 29  1  0  0  0  0
 34 32  1  0  0  0  0
 36 34  1  0  0  0  0
 37 38  1  0  0  0  0
 40 41  1  0  0  0  0
 41 39  1  6  0  0  0
 42 45  1  0  0  0  0
 43 45  2  0  0  0  0
 45 44  1  0  0  0  0
M  END
>  <MODEL>
2

>  <REMARK>
 VINA RESULT:      -7.6      1.539      1.912
  Name = 
  7 active torsions:
  status: ('A' for Active; 'I' for Inactive)
    1  A    between atoms: C_4  and  C_35
    2  A    between atoms: C_4  and  C_40
    3  A    between atoms: C_5  and  C_43
    4  A    between atoms: C_15  and  C_16
    5  A    between atoms: C_19  and  C_25
    6  A    between atoms: N_21  and  C_43
    7  A    between atoms: C_31  and  C_44
                            x       y       z     vdW  Elec       q    Type
                         _______ _______ _______ _____ _____    ______ ____

>  <TORSDO>
F 7

$$$$
=
 OpenBabel11062414233D

 45 52  0  0  1  0  0  0  0  0999 V2000
  185.7180  177.1700  135.7880 C   0  0  0  0  0  2  0  0  0  0  0  0
  182.8660  175.7700  136.6490 C   0  0  1  0  0  3  0  0  0  0  0  0
  189.2630  173.6700  135.8510 O   0  0  0  0  0  0  0  0  0  0  0  0
  186.7670  171.0890  135.5140 C   0  0  0  0  0  2  0  0  0  0  0  0
  184.8100  177.4140  136.9940 C   0  0  0  0  0  2  0  0  0  0  0  0
  187.9890  175.5020  136.8610 C   0  0  0  0  0  0  0  0  0  0  0  0
  182.3620  175.5040  137.9810 N   0  0  0  0  0  2  0  0  0  0  0  0
  182.0350  176.5550  138.6400 C   0  0  1  0  0  3  0  0  0  0  0  0
  188.0400  176.2730  137.9620 C   0  0  0  0  0  3  0  0  0  0  0  0
  184.6230  175.1310  135.0850 O   0  0  0  0  0  0  0  0  0  0  0  0
  188.1190  172.8720  135.8490 C   0  0  0  0  0  0  0  0  0  0  0  0
  186.2270  172.6540  137.4870 C   0  0  0  0  0  2  0  0  0  0  0  0
  185.8730  175.6810  135.4520 C   0  0  2  0  0  3  0  0  0  0  0  0
  188.1150  171.6480  135.4520 N   0  0  0  0  0  0  0  0  0  0  0  0
  186.6440  174.8900  136.5430 C   0  0  1  0  0  3  0  0  0  0  0  0
  189.1490  175.0900  135.9450 C   0  0  1  0  0  3  0  0  0  0  0  0
  183.3380  177.2370  136.6210 C   0  0  2  0  0  3  0  0  0  0  0  0
  184.5180  172.4500  135.4240 C   0  0  0  0  0  2  0  0  0  0  0  0
  183.9440  174.7530  136.2600 C   0  0  2  0  0  3  0  0  0  0  0  0
  181.6020  176.4700  139.9900 N   0  0  0  0  0  1  0  0  0  0  0  0
  182.3210  178.1230  137.8440 S   0  0  0  0  0  0  0  0  0  0  0  0
  183.4970  173.2870  136.2010 C   0  0  1  0  0  3  0  0  0  0  0  0
  186.8020  173.3810  136.2670 C   0  0  1  0  0  0  0  0  0  0  0  0
  185.8700  172.1890  136.0970 C   0  0  2  0  0  0  0  0  0  0  0  0
  188.9020  177.4500  139.9260 C   0  0  2  0  0  3  0  0  0  0  0  0
  189.2330  176.9550  138.5330 C   0  0  2  0  0  3  0  0  0  0  0  0
  188.9100  178.4160  138.7600 C   0  0  0  0  0  2  0  0  0  0  0  0
  190.1940  177.5720  140.7150 C   0  0  0  0  0  2  0  0  0  0  0  0
  188.6240  176.8660  142.3120 C   0  0  0  0  0  2  0  0  0  0  0  0
  190.9730  176.7050  142.7370 C   0  0  0  0  0  2  0  0  0  0  0  0
  191.2610  177.1810  144.1590 C   0  0  2  0  0  3  0  0  0  0  0  0
  190.0530  176.9170  145.0680 C   0  0  2  0  0  3  0  0  0  0  0  0
  189.9220  177.5250  142.1390 N   0  0  0  0  0  0  0  0  0  0  0  0
  188.9080  177.5940  144.6110 O   0  0  0  0  0  0  0  0  0  0  0  0
  191.5940  178.5250  144.1430 F   0  0  0  0  0  0  0  0  0  0  0  0
  188.2490  176.6710  143.7910 C   0  0  0  0  0  2  0  0  0  0  0  0
  190.3390  177.2320  146.5350 C   0  0  0  0  0  2  0  0  0  0  0  0
  191.4820  176.4010  147.1000 C   0  0  0  0  0  1  0  0  0  0  0  0
  191.6200  174.7650  136.4250 C   0  0  0  0  0  1  0  0  0  0  0  0
  190.8560  176.4320  134.8610 O   0  0  0  0  0  1  0  0  0  0  0  0
  190.5290  175.7390  136.0270 C   0  0  1  0  0  3  0  0  0  0  0  0
  182.1370  173.1510  135.5240 C   0  0  0  0  0  2  0  0  0  0  0  0
  180.6790  171.1580  135.1830 O   0  0  0  0  0  0  0  0  0  0  0  0
  181.4560  171.6800  137.2750 O   0  0  0  0  0  1  0  0  0  0  0  0
  181.4030  171.9640  136.0490 C   0  0  0  0  0  0  0  0  0  0  0  0
  1  5  1  0  0  0  0
  2  7  1  1  0  0  0
  3 16  1  0  0  0  0
  4 24  1  0  0  0  0
  6  9  2  0  0  0  0
  7  8  1  0  0  0  0
  8 20  1  1  0  0  0
 10 13  1  0  0  0  0
 11  3  1  0  0  0  0
 11 23  1  0  0  0  0
 13  1  1  1  0  0  0
 13 15  1  0  0  0  0
 14  4  1  0  0  0  0
 14 11  2  0  0  0  0
 15  6  1  6  0  0  0
 16 41  1  1  0  0  0
 16  6  1  0  0  0  0
 17  2  1  0  0  0  0
 17  5  1  1  0  0  0
 17 21  1  0  0  0  0
 18 22  1  0  0  0  0
 19 10  1  6  0  0  0
 19  2  1  0  0  0  0
 21  8  1  0  0  0  0
 22 42  1  6  0  0  0
 22 19  1  0  0  0  0
 23 15  1  0  0  0  0
 23 12  1  1  0  0  0
 24 18  1  6  0  0  0
 24 23  1  0  0  0  0
 24 12  1  0  0  0  0
 25 28  1  1  0  0  0
 26  9  1  6  0  0  0
 26 27  1  0  0  0  0
 26 25  1  0  0  0  0
 27 25  1  0  0  0  0
 28 33  1  0  0  0  0
 29 36  1  0  0  0  0
 30 31  1  0  0  0  0
 31 35  1  6  0  0  0
 31 32  1  0  0  0  0
 32 37  1  1  0  0  0
 33 29  1  0  0  0  0
 33 30  1  0  0  0  0
 34 32  1  0  0  0  0
 36 34  1  0  0  0  0
 37 38  1  0  0  0  0
 40 41  1  0  0  0  0
 41 39  1  6  0  0  0
 42 45  1  0  0  0  0
 43 45  2  0  0  0  0
 45 44  1  0  0  0  0
M  END
>  <MODEL>
3

>  <REMARK>
 VINA RESULT:      -7.5      1.155      1.601
  Name = 
  7 active torsions:
  status: ('A' for Active; 'I' for Inactive)
    1  A    between atoms: C_4  and  C_35
    2  A    between atoms: C_4  and  C_40
    3  A    between atoms: C_5  and  C_43
    4  A    between atoms: C_15  and  C_16
    5  A    between atoms: C_19  and  C_25
    6  A    between atoms: N_21  and  C_43
    7  A    between atoms: C_31  and  C_44
                            x       y       z     vdW  Elec       q    Type
                         _______ _______ _______ _____ _____    ______ ____

>  <TORSDO>
F 7

$$$$
=
 OpenBabel11062414233D

 45 52  0  0  1  0  0  0  0  0999 V2000
  182.3320  178.3440  137.2690 C   0  0  0  0  0  2  0  0  0  0  0  0
  180.1820  175.8970  137.7450 C   0  0  1  0  0  3  0  0  0  0  0  0
  186.8250  176.3470  136.4630 O   0  0  0  0  0  0  0  0  0  0  0  0
  185.3000  173.2290  135.4840 C   0  0  0  0  0  2  0  0  0  0  0  0
  181.4970  177.9730  138.4950 C   0  0  0  0  0  2  0  0  0  0  0  0
  185.1060  177.3440  137.8960 C   0  0  0  0  0  0  0  0  0  0  0  0
  179.9060  175.1690  138.9670 N   0  0  0  0  0  2  0  0  0  0  0  0
  179.3070  175.8590  139.8670 C   0  0  1  0  0  3  0  0  0  0  0  0
  184.9920  177.8030  139.1550 C   0  0  0  0  0  3  0  0  0  0  0  0
  181.9160  176.2810  136.0750 O   0  0  0  0  0  0  0  0  0  0  0  0
  186.0120  175.2320  136.2580 C   0  0  0  0  0  0  0  0  0  0  0  0
  184.4400  174.0040  137.7850 C   0  0  0  0  0  2  0  0  0  0  0  0
  182.9400  177.1200  136.5710 C   0  0  2  0  0  3  0  0  0  0  0  0
  186.3790  174.2110  135.5680 N   0  0  0  0  0  0  0  0  0  0  0  0
  184.0170  176.4040  137.4320 C   0  0  1  0  0  3  0  0  0  0  0  0
  186.2580  177.5780  136.9090 C   0  0  1  0  0  3  0  0  0  0  0  0
  180.1410  177.3990  138.0860 C   0  0  2  0  0  3  0  0  0  0  0  0
  182.7290  173.7250  135.7320 C   0  0  0  0  0  2  0  0  0  0  0  0
  181.4990  175.4290  137.1160 C   0  0  2  0  0  3  0  0  0  0  0  0
  179.0390  175.3160  141.1520 N   0  0  0  0  0  1  0  0  0  0  0  0
  178.9930  177.5720  139.4890 S   0  0  0  0  0  0  0  0  0  0  0  0
  181.5570  173.9560  136.6920 C   0  0  1  0  0  3  0  0  0  0  0  0
  184.6400  175.1500  136.7870 C   0  0  1  0  0  0  0  0  0  0  0  0
  184.1420  173.7880  136.3230 C   0  0  2  0  0  0  0  0  0  0  0  0
  186.2020  178.1190  141.2570 C   0  0  2  0  0  3  0  0  0  0  0  0
  185.9360  178.6950  139.8810 C   0  0  2  0  0  3  0  0  0  0  0  0
  185.2400  179.2770  141.0920 C   0  0  0  0  0  2  0  0  0  0  0  0
  187.5500  178.6250  141.7410 C   0  0  0  0  0  2  0  0  0  0  0  0
  186.4600  177.7700  143.6370 C   0  0  0  0  0  2  0  0  0  0  0  0
  188.7730  177.3090  143.2310 C   0  0  0  0  0  2  0  0  0  0  0  0
  189.5540  177.4670  144.5330 C   0  0  2  0  0  3  0  0  0  0  0  0
  188.6600  177.1460  145.7380 C   0  0  2  0  0  3  0  0  0  0  0  0
  187.7260  178.3250  143.1490 N   0  0  0  0  0  0  0  0  0  0  0  0
  187.5470  178.0030  145.7950 O   0  0  0  0  0  0  0  0  0  0  0  0
  190.0660  178.7520  144.6170 F   0  0  0  0  0  0  0  0  0  0  0  0
  186.5350  177.3240  145.1070 C   0  0  0  0  0  2  0  0  0  0  0  0
  189.4280  177.1390  147.0580 C   0  0  0  0  0  2  0  0  0  0  0  0
  188.6600  177.8130  148.1850 C   0  0  0  0  0  1  0  0  0  0  0  0
  188.7470  178.0390  137.0860 C   0  0  0  0  0  1  0  0  0  0  0  0
  187.2100  179.7340  136.3270 O   0  0  0  0  0  1  0  0  0  0  0  0
  187.3490  178.6190  137.1550 C   0  0  1  0  0  3  0  0  0  0  0  0
  180.2670  173.5300  135.9990 C   0  0  0  0  0  2  0  0  0  0  0  0
  179.8050  171.1450  135.4430 O   0  0  0  0  0  0  0  0  0  0  0  0
  179.6560  171.8790  137.6090 O   0  0  0  0  0  1  0  0  0  0  0  0
  179.8850  172.1460  136.3990 C   0  0  0  0  0  0  0  0  0  0  0  0
  1  5  1  0  0  0  0
  2 17  1  0  0  0  0
  2  7  1  1  0  0  0
  3 16  1  0  0  0  0
  4 14  1  0  0  0  0
  6  9  2  0  0  0  0
  7  8  1  0  0  0  0
  8 20  1  1  0  0  0
 10 13  1  0  0  0  0
 11  3  1  0  0  0  0
 11 23  1  0  0  0  0
 13  1  1  1  0  0  0
 13 15  1  0  0  0  0
 14 11  2  0  0  0  0
 15  6  1  6  0  0  0
 16 41  1  1  0  0  0
 16  6  1  0  0  0  0
 17  5  1  1  0  0  0
 17 21  1  0  0  0  0
 18 24  1  0  0  0  0
 18 22  1  0  0  0  0
 19 10  1  6  0  0  0
 19  2  1  0  0  0  0
 21  8  1  0  0  0  0
 22 42  1  6  0  0  0
 22 19  1  0  0  0  0
 23 15  1  0  0  0  0
 23 12  1  1  0  0  0
 24  4  1  6  0  0  0
 24 23  1  0  0  0  0
 24 12  1  0  0  0  0
 25 28  1  1  0  0  0
 26  9  1  6  0  0  0
 26 27  1  0  0  0  0
 26 25  1  0  0  0  0
 27 25  1  0  0  0  0
 28 33  1  0  0  0  0
 29 36  1  0  0  0  0
 30 31  1  0  0  0  0
 31 35  1  1  0  0  0
 31 32  1  0  0  0  0
 32 34  1  0  0  0  0
 32 37  1  1  0  0  0
 33 30  1  0  0  0  0
 33 29  1  0  0  0  0
 36 34  1  0  0  0  0
 37 38  1  0  0  0  0
 40 41  1  0  0  0  0
 41 39  1  6  0  0  0
 42 45  1  0  0  0  0
 43 45  2  0  0  0  0
 45 44  1  0  0  0  0
M  END
>  <MODEL>
4

>  <REMARK>
 VINA RESULT:      -6.6      2.567      3.719
  Name = 
  7 active torsions:
  status: ('A' for Active; 'I' for Inactive)
    1  A    between atoms: C_4  and  C_35
    2  A    between atoms: C_4  and  C_40
    3  A    between atoms: C_5  and  C_43
    4  A    between atoms: C_15  and  C_16
    5  A    between atoms: C_19  and  C_25
    6  A    between atoms: N_21  and  C_43
    7  A    between atoms: C_31  and  C_44
                            x       y       z     vdW  Elec       q    Type
                         _______ _______ _______ _____ _____    ______ ____

>  <TORSDO>
F 7

$$$$
=
 OpenBabel11062414233D

 45 52  0  0  1  0  0  0  0  0999 V2000
  182.6960  179.7910  138.2870 C   0  0  0  0  0  2  0  0  0  0  0  0
  179.8780  178.1990  138.8930 C   0  0  1  0  0  3  0  0  0  0  0  0
  186.1020  176.4510  136.8490 O   0  0  0  0  0  0  0  0  0  0  0  0
  183.4930  174.1480  135.9030 C   0  0  0  0  0  2  0  0  0  0  0  0
  181.9040  179.6210  139.5840 C   0  0  0  0  0  2  0  0  0  0  0  0
  184.9870  177.8460  138.5260 C   0  0  0  0  0  0  0  0  0  0  0  0
  179.4800  177.5040  140.1000 N   0  0  0  0  0  2  0  0  0  0  0  0
  179.2500  178.2750  141.1000 C   0  0  1  0  0  3  0  0  0  0  0  0
  185.1610  178.2020  139.8110 C   0  0  0  0  0  3  0  0  0  0  0  0
  181.4700  178.1120  137.0480 O   0  0  0  0  0  0  0  0  0  0  0  0
  184.9340  175.7070  136.6860 C   0  0  0  0  0  0  0  0  0  0  0  0
  183.1820  174.9630  138.3260 C   0  0  0  0  0  2  0  0  0  0  0  0
  182.7660  178.5000  137.4600 C   0  0  2  0  0  3  0  0  0  0  0  0
  184.8510  174.6870  135.9060 N   0  0  0  0  0  0  0  0  0  0  0  0
  183.5990  177.3830  138.1480 C   0  0  1  0  0  3  0  0  0  0  0  0
  186.0490  177.7580  137.4210 C   0  0  1  0  0  3  0  0  0  0  0  0
  180.4000  179.5870  139.3120 C   0  0  2  0  0  3  0  0  0  0  0  0
  181.2960  175.4730  136.4820 C   0  0  0  0  0  2  0  0  0  0  0  0
  180.8800  177.3660  138.0880 C   0  0  2  0  0  3  0  0  0  0  0  0
  178.9310  177.7440  142.3780 N   0  0  0  0  0  1  0  0  0  0  0  0
  179.5240  180.0180  140.8500 S   0  0  0  0  0  0  0  0  0  0  0  0
  180.3770  176.0070  137.5850 C   0  0  1  0  0  3  0  0  0  0  0  0
  183.6770  176.0540  137.3710 C   0  0  1  0  0  0  0  0  0  0  0  0
  182.6900  174.9930  136.9010 C   0  0  2  0  0  0  0  0  0  0  0  0
  186.5020  178.0430  141.8510 C   0  0  2  0  0  3  0  0  0  0  0  0
  186.4230  178.6460  140.4630 C   0  0  2  0  0  3  0  0  0  0  0  0
  186.0870  179.4890  141.6740 C   0  0  0  0  0  2  0  0  0  0  0  0
  187.9620  177.9650  142.2610 C   0  0  0  0  0  2  0  0  0  0  0  0
  186.7760  177.4430  144.2190 C   0  0  0  0  0  2  0  0  0  0  0  0
  189.0830  176.8580  143.9830 C   0  0  0  0  0  2  0  0  0  0  0  0
  189.8220  177.1910  145.2770 C   0  0  2  0  0  3  0  0  0  0  0  0
  188.8740  177.0840  146.4790 C   0  0  2  0  0  3  0  0  0  0  0  0
  188.0770  177.8800  143.7050 N   0  0  0  0  0  0  0  0  0  0  0  0
  187.7910  177.9730  146.3600 O   0  0  0  0  0  0  0  0  0  0  0  0
  190.3760  178.4570  145.1850 F   0  0  0  0  0  0  0  0  0  0  0  0
  186.7810  177.2270  145.7420 C   0  0  0  0  0  2  0  0  0  0  0  0
  189.5940  177.2570  147.8150 C   0  0  0  0  0  2  0  0  0  0  0  0
  189.3700  178.6320  148.4260 C   0  0  0  0  0  1  0  0  0  0  0  0
  188.5450  177.3460  137.2250 C   0  0  0  0  0  1  0  0  0  0  0  0
  187.6100  179.5450  136.9130 O   0  0  0  0  0  1  0  0  0  0  0  0
  187.4540  178.3330  137.5860 C   0  0  1  0  0  3  0  0  0  0  0  0
  178.9600  176.1130  137.0310 C   0  0  0  0  0  2  0  0  0  0  0  0
  179.0510  177.4850  134.9520 O   0  0  0  0  0  1  0  0  0  0  0  0
  178.9590  175.1980  134.8280 O   0  0  0  0  0  0  0  0  0  0  0  0
  178.9820  176.2330  135.5450 C   0  0  0  0  0  0  0  0  0  0  0  0
  1  5  1  0  0  0  0
  2 17  1  0  0  0  0
  2  7  1  1  0  0  0
  3 16  1  0  0  0  0
  4 14  1  0  0  0  0
  6  9  2  0  0  0  0
  7  8  1  0  0  0  0
  8 20  1  1  0  0  0
 10 13  1  0  0  0  0
 11  3  1  0  0  0  0
 11 23  1  0  0  0  0
 13 15  1  0  0  0  0
 13  1  1  1  0  0  0
 14 11  2  0  0  0  0
 15  6  1  6  0  0  0
 16 41  1  1  0  0  0
 16  6  1  0  0  0  0
 17  5  1  1  0  0  0
 17 21  1  0  0  0  0
 18 24  1  0  0  0  0
 18 22  1  0  0  0  0
 19 10  1  6  0  0  0
 19  2  1  0  0  0  0
 21  8  1  0  0  0  0
 22 42  1  6  0  0  0
 22 19  1  0  0  0  0
 23 15  1  0  0  0  0
 23 12  1  1  0  0  0
 24  4  1  6  0  0  0
 24 23  1  0  0  0  0
 24 12  1  0  0  0  0
 25 28  1  1  0  0  0
 26  9  1  6  0  0  0
 26 27  1  0  0  0  0
 26 25  1  0  0  0  0
 27 25  1  0  0  0  0
 28 33  1  0  0  0  0
 29 36  1  0  0  0  0
 30 31  1  0  0  0  0
 31 35  1  6  0  0  0
 31 32  1  0  0  0  0
 32 37  1  1  0  0  0
 33 30  1  0  0  0  0
 33 29  1  0  0  0  0
 34 32  1  0  0  0  0
 36 34  1  0  0  0  0
 37 38  1  0  0  0  0
 40 41  1  0  0  0  0
 41 39  1  6  0  0  0
 43 45  1  0  0  0  0
 44 45  2  0  0  0  0
 45 42  1  0  0  0  0
M  END
>  <MODEL>
5

>  <REMARK>
 VINA RESULT:      -6.2      3.112      4.653
  Name = 
  7 active torsions:
  status: ('A' for Active; 'I' for Inactive)
    1  A    between atoms: C_4  and  C_35
    2  A    between atoms: C_4  and  C_40
    3  A    between atoms: C_5  and  C_43
    4  A    between atoms: C_15  and  C_16
    5  A    between atoms: C_19  and  C_25
    6  A    between atoms: N_21  and  C_43
    7  A    between atoms: C_31  and  C_44
                            x       y       z     vdW  Elec       q    Type
                         _______ _______ _______ _____ _____    ______ ____

>  <TORSDO>
F 7

$$$$
=
 OpenBabel11062414233D

 45 52  0  0  1  0  0  0  0  0999 V2000
  188.4230  178.8890  138.4870 C   0  0  0  0  0  2  0  0  0  0  0  0
  185.4570  177.9700  137.3950 C   0  0  1  0  0  3  0  0  0  0  0  0
  191.7200  175.3800  137.2060 O   0  0  0  0  0  0  0  0  0  0  0  0
  189.5210  174.2210  134.5940 C   0  0  0  0  0  2  0  0  0  0  0  0
  187.1410  178.5460  139.2470 C   0  0  0  0  0  2  0  0  0  0  0  0
  190.1620  176.4420  138.7700 C   0  0  0  0  0  0  0  0  0  0  0  0
  184.5080  177.0700  138.0190 N   0  0  0  0  0  2  0  0  0  0  0  0
  183.9630  177.5360  139.0830 C   0  0  1  0  0  3  0  0  0  0  0  0
  189.8110  176.3380  140.0640 C   0  0  0  0  0  3  0  0  0  0  0  0
  187.6610  178.0360  136.3550 O   0  0  0  0  0  0  0  0  0  0  0  0
  190.6570  175.0460  136.3680 C   0  0  0  0  0  0  0  0  0  0  0  0
  188.3030  174.3190  136.8600 C   0  0  0  0  0  2  0  0  0  0  0  0
  188.6930  177.9350  137.3160 C   0  0  2  0  0  3  0  0  0  0  0  0
  190.8000  174.3660  135.2850 N   0  0  0  0  0  0  0  0  0  0  0  0
  189.0240  176.4890  137.7760 C   0  0  1  0  0  3  0  0  0  0  0  0
  191.5750  176.4210  138.1720 C   0  0  1  0  0  3  0  0  0  0  0  0
  185.9020  178.9840  138.4660 C   0  0  2  0  0  3  0  0  0  0  0  0
  187.4500  175.8290  134.8070 C   0  0  0  0  0  2  0  0  0  0  0  0
  186.6060  177.1890  136.7490 C   0  0  2  0  0  3  0  0  0  0  0  0
  183.0730  176.7460  139.8590 N   0  0  0  0  0  1  0  0  0  0  0  0
  184.5110  179.1410  139.6300 S   0  0  0  0  0  0  0  0  0  0  0  0
  186.2150  176.2220  135.6240 C   0  0  1  0  0  3  0  0  0  0  0  0
  189.2760  175.4820  136.6360 C   0  0  1  0  0  0  0  0  0  0  0  0
  188.4700  174.9030  135.4800 C   0  0  2  0  0  0  0  0  0  0  0  0
  190.2710  177.2050  142.3050 C   0  0  2  0  0  3  0  0  0  0  0  0
  190.7170  176.2250  141.2390 C   0  0  2  0  0  3  0  0  0  0  0  0
  191.4590  177.5310  141.4240 C   0  0  0  0  0  2  0  0  0  0  0  0
  190.7450  176.7000  143.6560 C   0  0  0  0  0  2  0  0  0  0  0  0
  190.4030  177.4470  145.8560 C   0  0  0  0  0  2  0  0  0  0  0  0
  188.8240  177.9390  144.1270 C   0  0  0  0  0  2  0  0  0  0  0  0
  187.4100  177.7150  144.6570 C   0  0  2  0  0  3  0  0  0  0  0  0
  187.3590  177.9680  146.1700 C   0  0  2  0  0  3  0  0  0  0  0  0
  189.7270  176.9250  144.6650 N   0  0  0  0  0  0  0  0  0  0  0  0
  188.2220  177.1030  146.8650 O   0  0  0  0  0  0  0  0  0  0  0  0
  186.9940  176.4310  144.3480 F   0  0  0  0  0  0  0  0  0  0  0  0
  189.4230  177.8130  146.9830 C   0  0  0  0  0  2  0  0  0  0  0  0
  185.9380  177.9070  146.7300 C   0  0  0  0  0  2  0  0  0  0  0  0
  184.9090  178.5000  145.7780 C   0  0  0  0  0  1  0  0  0  0  0  0
  193.8570  175.4640  138.7350 C   0  0  0  0  0  1  0  0  0  0  0  0
  193.3900  177.8170  138.9790 O   0  0  0  0  0  1  0  0  0  0  0  0
  192.8310  176.5390  139.0330 C   0  0  1  0  0  3  0  0  0  0  0  0
  185.1900  176.8510  134.6860 C   0  0  0  0  0  2  0  0  0  0  0  0
  183.9180  174.7180  134.8920 O   0  0  0  0  0  1  0  0  0  0  0  0
  182.8100  176.7050  134.6210 O   0  0  0  0  0  0  0  0  0  0  0  0
  183.9060  176.0940  134.7230 C   0  0  0  0  0  0  0  0  0  0  0  0
  1  5  1  0  0  0  0
  2  7  1  1  0  0  0
  2 17  1  0  0  0  0
  3 16  1  0  0  0  0
  4 14  1  0  0  0  0
  6  9  2  0  0  0  0
  7  8  1  0  0  0  0
  8 21  1  0  0  0  0
  8 20  1  1  0  0  0
 10 13  1  0  0  0  0
 11 23  1  0  0  0  0
 11  3  1  0  0  0  0
 13 15  1  0  0  0  0
 13  1  1  1  0  0  0
 14 11  2  0  0  0  0
 15  6  1  1  0  0  0
 16  6  1  0  0  0  0
 16 41  1  1  0  0  0
 17  5  1  1  0  0  0
 17 21  1  0  0  0  0
 18 24  1  0  0  0  0
 18 22  1  0  0  0  0
 19 10  1  6  0  0  0
 19  2  1  0  0  0  0
 22 42  1  6  0  0  0
 22 19  1  0  0  0  0
 23 12  1  1  0  0  0
 23 15  1  0  0  0  0
 24  4  1  6  0  0  0
 24 23  1  0  0  0  0
 24 12  1  0  0  0  0
 25 28  1  1  0  0  0
 26  9  1  6  0  0  0
 26 27  1  0  0  0  0
 26 25  1  0  0  0  0
 27 25  1  0  0  0  0
 28 33  1  0  0  0  0
 29 36  1  0  0  0  0
 30 31  1  0  0  0  0
 30 33  1  0  0  0  0
 31 35  1  1  0  0  0
 31 32  1  0  0  0  0
 32 37  1  1  0  0  0
 32 34  1  0  0  0  0
 33 29  1  0  0  0  0
 34 36  1  0  0  0  0
 38 37  1  0  0  0  0
 40 41  1  0  0  0  0
 41 39  1  6  0  0  0
 42 45  1  0  0  0  0
 44 45  2  0  0  0  0
 45 43  1  0  0  0  0
M  END
>  <MODEL>
6

>  <REMARK>
 VINA RESULT:      -5.8      2.262      3.215
  Name = 
  7 active torsions:
  status: ('A' for Active; 'I' for Inactive)
    1  A    between atoms: C_4  and  C_35
    2  A    between atoms: C_4  and  C_40
    3  A    between atoms: C_5  and  C_43
    4  A    between atoms: C_15  and  C_16
    5  A    between atoms: C_19  and  C_25
    6  A    between atoms: N_21  and  C_43
    7  A    between atoms: C_31  and  C_44
                            x       y       z     vdW  Elec       q    Type
                         _______ _______ _______ _____ _____    ______ ____

>  <TORSDO>
F 7

$$$$
=
 OpenBabel11062414233D

 45 52  0  0  1  0  0  0  0  0999 V2000
  186.4300  178.9530  138.6060 C   0  0  0  0  0  2  0  0  0  0  0  0
  186.8200  178.5630  141.8520 C   0  0  1  0  0  3  0  0  0  0  0  0
  181.7210  177.8110  137.4450 O   0  0  0  0  0  0  0  0  0  0  0  0
  180.7040  178.3970  140.8550 C   0  0  0  0  0  2  0  0  0  0  0  0
  187.3170  177.9900  139.3970 C   0  0  0  0  0  2  0  0  0  0  0  0
  184.0990  177.2730  137.6920 C   0  0  0  0  0  0  0  0  0  0  0  0
  187.0980  177.3430  142.5830 N   0  0  0  0  0  2  0  0  0  0  0  0
  188.2770  176.8730  142.3940 C   0  0  1  0  0  3  0  0  0  0  0  0
  184.9380  176.2680  137.3850 C   0  0  0  0  0  3  0  0  0  0  0  0
  185.1080  179.6590  140.5050 O   0  0  0  0  0  0  0  0  0  0  0  0
  181.6100  177.9700  138.8260 C   0  0  0  0  0  0  0  0  0  0  0  0
  182.6750  176.7430  140.7430 C   0  0  0  0  0  2  0  0  0  0  0  0
  185.0270  179.0990  139.2090 C   0  0  2  0  0  3  0  0  0  0  0  0
  180.4990  178.2350  139.4170 N   0  0  0  0  0  0  0  0  0  0  0  0
  184.1840  177.7990  139.1070 C   0  0  1  0  0  3  0  0  0  0  0  0
  183.0000  177.8850  136.8130 C   0  0  1  0  0  3  0  0  0  0  0  0
  187.8240  178.6380  140.6850 C   0  0  2  0  0  3  0  0  0  0  0  0
  182.9530  179.0840  142.0330 C   0  0  0  0  0  2  0  0  0  0  0  0
  185.3500  178.6180  141.4230 C   0  0  2  0  0  3  0  0  0  0  0  0
  188.6780  175.6400  142.9730 N   0  0  0  0  0  1  0  0  0  0  0  0
  189.3130  177.7460  141.2350 S   0  0  0  0  0  0  0  0  0  0  0  0
  184.3160  178.6210  142.5560 C   0  0  1  0  0  3  0  0  0  0  0  0
  182.7740  177.8850  139.7250 C   0  0  1  0  0  0  0  0  0  0  0  0
  182.1920  178.1230  141.1120 C   0  0  2  0  0  0  0  0  0  0  0  0
  185.1870  174.0540  136.3760 C   0  0  2  0  0  3  0  0  0  0  0  0
  185.0350  175.5350  136.0940 C   0  0  2  0  0  3  0  0  0  0  0  0
  186.3960  174.8810  135.9950 C   0  0  0  0  0  2  0  0  0  0  0  0
  184.6830  173.2790  135.1710 C   0  0  0  0  0  2  0  0  0  0  0  0
  183.6200  171.1910  135.3390 C   0  0  0  0  0  2  0  0  0  0  0  0
  183.1120  172.9600  136.8680 C   0  0  0  0  0  2  0  0  0  0  0  0
  181.6000  173.0350  137.0670 C   0  0  2  0  0  3  0  0  0  0  0  0
  180.9660  171.6500  136.8820 C   0  0  2  0  0  3  0  0  0  0  0  0
  183.4180  172.6360  135.4770 N   0  0  0  0  0  0  0  0  0  0  0  0
  181.2070  171.1420  135.5930 O   0  0  0  0  0  0  0  0  0  0  0  0
  181.0590  173.9560  136.1860 F   0  0  0  0  0  0  0  0  0  0  0  0
  182.3730  170.3780  135.7210 C   0  0  0  0  0  2  0  0  0  0  0  0
  179.4750  171.6340  137.2190 C   0  0  0  0  0  2  0  0  0  0  0  0
  179.0330  172.8820  137.9690 C   0  0  0  0  0  1  0  0  0  0  0  0
  181.5850  178.0820  134.7150 C   0  0  0  0  0  1  0  0  0  0  0  0
  183.9930  178.0340  134.6030 O   0  0  0  0  0  1  0  0  0  0  0  0
  182.8830  177.5850  135.3200 C   0  0  1  0  0  3  0  0  0  0  0  0
  184.7440  179.5460  143.6910 C   0  0  0  0  0  2  0  0  0  0  0  0
  183.6650  178.9380  145.8540 O   0  0  0  0  0  1  0  0  0  0  0  0
  185.7180  178.0820  145.3030 O   0  0  0  0  0  0  0  0  0  0  0  0
  184.7460  178.8200  144.9930 C   0  0  0  0  0  0  0  0  0  0  0  0
  1  5  1  0  0  0  0
  2  7  1  6  0  0  0
  3 11  1  0  0  0  0
  4 24  1  0  0  0  0
  8  7  1  0  0  0  0
  8 20  1  6  0  0  0
  9  6  2  0  0  0  0
 11 14  2  0  0  0  0
 11 23  1  0  0  0  0
 13  1  1  1  0  0  0
 13 10  1  0  0  0  0
 14  4  1  0  0  0  0
 15  6  1  6  0  0  0
 15 13  1  0  0  0  0
 15 23  1  0  0  0  0
 16 41  1  6  0  0  0
 16  3  1  0  0  0  0
 16  6  1  0  0  0  0
 17  5  1  6  0  0  0
 17 21  1  0  0  0  0
 17  2  1  0  0  0  0
 18 22  1  0  0  0  0
 19 10  1  1  0  0  0
 19  2  1  0  0  0  0
 19 22  1  0  0  0  0
 21  8  1  0  0  0  0
 22 42  1  1  0  0  0
 23 12  1  1  0  0  0
 23 24  1  0  0  0  0
 24 12  1  1  0  0  0
 24 18  1  0  0  0  0
 25 28  1  6  0  0  0
 26 25  1  0  0  0  0
 26  9  1  1  0  0  0
 27 26  1  0  0  0  0
 27 25  1  0  0  0  0
 28 33  1  0  0  0  0
 29 33  1  0  0  0  0
 29 36  1  0  0  0  0
 30 31  1  0  0  0  0
 31 35  1  6  0  0  0
 32 31  1  0  0  0  0
 32 37  1  6  0  0  0
 33 30  1  0  0  0  0
 34 36  1  0  0  0  0
 34 32  1  0  0  0  0
 37 38  1  0  0  0  0
 40 41  1  0  0  0  0
 41 39  1  6  0  0  0
 42 45  1  0  0  0  0
 45 44  2  0  0  0  0
 45 43  1  0  0  0  0
M  END
>  <MODEL>
7

>  <REMARK>
 VINA RESULT:      -5.8      3.665      9.265
  Name = 
  7 active torsions:
  status: ('A' for Active; 'I' for Inactive)
    1  A    between atoms: C_4  and  C_35
    2  A    between atoms: C_4  and  C_40
    3  A    between atoms: C_5  and  C_43
    4  A    between atoms: C_15  and  C_16
    5  A    between atoms: C_19  and  C_25
    6  A    between atoms: N_21  and  C_43
    7  A    between atoms: C_31  and  C_44
                            x       y       z     vdW  Elec       q    Type
                         _______ _______ _______ _____ _____    ______ ____

>  <TORSDO>
F 7

$$$$
=
 OpenBabel11062414233D

 45 52  0  0  1  0  0  0  0  0999 V2000
  185.5860  179.3800  139.7430 C   0  0  0  0  0  2  0  0  0  0  0  0
  188.6130  178.0840  139.7740 C   0  0  1  0  0  3  0  0  0  0  0  0
  183.4600  178.4990  144.1620 O   0  0  0  0  0  0  0  0  0  0  0  0
  186.7050  178.0540  145.6720 C   0  0  0  0  0  2  0  0  0  0  0  0
  186.1990  178.2540  138.9090 C   0  0  0  0  0  2  0  0  0  0  0  0
  183.9000  177.9740  141.8100 C   0  0  0  0  0  0  0  0  0  0  0  0
  189.0060  176.7140  139.5160 N   0  0  0  0  0  2  0  0  0  0  0  0
  188.8720  176.3490  138.2930 C   0  0  1  0  0  3  0  0  0  0  0  0
  183.4530  177.1210  140.8710 C   0  0  0  0  0  3  0  0  0  0  0  0
  187.3870  179.4770  141.3560 O   0  0  0  0  0  0  0  0  0  0  0  0
  184.7970  178.2510  144.4710 C   0  0  0  0  0  0  0  0  0  0  0  0
  186.4310  176.5540  143.5970 C   0  0  0  0  0  2  0  0  0  0  0  0
  185.9900  179.3110  141.2220 C   0  0  2  0  0  3  0  0  0  0  0  0
  185.2660  178.3070  145.6680 N   0  0  0  0  0  0  0  0  0  0  0  0
  185.4020  178.0740  141.9540 C   0  0  1  0  0  3  0  0  0  0  0  0
  183.0730  178.7830  142.8170 C   0  0  1  0  0  3  0  0  0  0  0  0
  187.6790  178.5170  138.6280 C   0  0  2  0  0  3  0  0  0  0  0  0
  188.3520  178.4320  143.6560 C   0  0  0  0  0  2  0  0  0  0  0  0
  188.0010  178.2230  141.1720 C   0  0  2  0  0  3  0  0  0  0  0  0
  189.1360  175.0120  137.8930 N   0  0  0  0  0  1  0  0  0  0  0  0
  188.1730  177.5440  137.1710 S   0  0  0  0  0  0  0  0  0  0  0  0
  188.9220  177.8730  142.3480 C   0  0  1  0  0  3  0  0  0  0  0  0
  185.8000  177.9420  143.4380 C   0  0  1  0  0  0  0  0  0  0  0  0
  187.0950  177.7570  144.2180 C   0  0  2  0  0  0  0  0  0  0  0  0
  181.9620  176.2690  139.1290 C   0  0  2  0  0  3  0  0  0  0  0  0
  182.0380  176.7920  140.5490 C   0  0  2  0  0  3  0  0  0  0  0  0
  181.5580  177.6960  139.4350 C   0  0  0  0  0  2  0  0  0  0  0  0
  180.7280  175.3930  139.0030 C   0  0  0  0  0  2  0  0  0  0  0  0
  179.7970  173.4170  138.1390 C   0  0  0  0  0  2  0  0  0  0  0  0
  181.4570  174.6340  136.9190 C   0  0  0  0  0  2  0  0  0  0  0  0
  182.4770  173.6560  136.3420 C   0  0  2  0  0  3  0  0  0  0  0  0
  181.8200  172.2970  136.0670 C   0  0  2  0  0  3  0  0  0  0  0  0
  181.0360  174.1930  138.2470 N   0  0  0  0  0  0  0  0  0  0  0  0
  181.2960  171.7310  137.2430 O   0  0  0  0  0  0  0  0  0  0  0  0
  183.5460  173.5290  137.2130 F   0  0  0  0  0  0  0  0  0  0  0  0
  179.9620  172.1520  137.2800 C   0  0  0  0  0  2  0  0  0  0  0  0
  182.7540  171.3250  135.3470 C   0  0  0  0  0  2  0  0  0  0  0  0
  183.4200  170.3420  136.2990 C   0  0  0  0  0  1  0  0  0  0  0  0
  180.8420  178.6600  144.0200 C   0  0  0  0  0  1  0  0  0  0  0  0
  181.1770  180.1430  142.1490 O   0  0  0  0  0  1  0  0  0  0  0  0
  181.5560  178.9220  142.7090 C   0  0  1  0  0  3  0  0  0  0  0  0
  190.3210  178.4450  142.1430 C   0  0  0  0  0  2  0  0  0  0  0  0
  191.6730  179.3960  144.0080 O   0  0  0  0  0  1  0  0  0  0  0  0
  191.3450  177.1330  143.8530 O   0  0  0  0  0  0  0  0  0  0  0  0
  191.1450  178.2810  143.3750 C   0  0  0  0  0  0  0  0  0  0  0  0
  2  7  1  6  0  0  0
  2 19  1  0  0  0  0
  3 11  1  0  0  0  0
  5  1  1  0  0  0  0
  6 16  1  0  0  0  0
  8 20  1  1  0  0  0
  8  7  1  0  0  0  0
  9  6  2  0  0  0  0
 11 14  2  0  0  0  0
 13  1  1  6  0  0  0
 13 10  1  0  0  0  0
 13 15  1  0  0  0  0
 14  4  1  0  0  0  0
 15  6  1  1  0  0  0
 15 23  1  0  0  0  0
 16 41  1  1  0  0  0
 16  3  1  0  0  0  0
 17  5  1  1  0  0  0
 17  2  1  0  0  0  0
 18 24  1  0  0  0  0
 19 10  1  1  0  0  0
 19 22  1  0  0  0  0
 21  8  1  0  0  0  0
 21 17  1  0  0  0  0
 22 42  1  6  0  0  0
 22 18  1  0  0  0  0
 23 12  1  1  0  0  0
 23 24  1  0  0  0  0
 23 11  1  0  0  0  0
 24 12  1  6  0  0  0
 24  4  1  0  0  0  0
 25 28  1  1  0  0  0
 25 27  1  0  0  0  0
 25 26  1  0  0  0  0
 26  9  1  6  0  0  0
 27 26  1  0  0  0  0
 29 33  1  0  0  0  0
 30 33  1  0  0  0  0
 31 30  1  0  0  0  0
 31 35  1  1  0  0  0
 32 37  1  1  0  0  0
 32 31  1  0  0  0  0
 32 34  1  0  0  0  0
 33 28  1  0  0  0  0
 34 36  1  0  0  0  0
 36 29  1  0  0  0  0
 37 38  1  0  0  0  0
 40 41  1  0  0  0  0
 41 39  1  1  0  0  0
 42 45  1  0  0  0  0
 45 44  2  0  0  0  0
 45 43  1  0  0  0  0
M  END
>  <MODEL>
8

>  <REMARK>
 VINA RESULT:      -5.6      3.607     10.194
  Name = 
  7 active torsions:
  status: ('A' for Active; 'I' for Inactive)
    1  A    between atoms: C_4  and  C_35
    2  A    between atoms: C_4  and  C_40
    3  A    between atoms: C_5  and  C_43
    4  A    between atoms: C_15  and  C_16
    5  A    between atoms: C_19  and  C_25
    6  A    between atoms: N_21  and  C_43
    7  A    between atoms: C_31  and  C_44
                            x       y       z     vdW  Elec       q    Type
                         _______ _______ _______ _____ _____    ______ ____

>  <TORSDO>
F 7

$$$$
=
 OpenBabel11062414233D

 45 52  0  0  1  0  0  0  0  0999 V2000
  185.9100  178.7120  138.5690 C   0  0  0  0  0  2  0  0  0  0  0  0
  186.4180  178.6450  141.8220 C   0  0  1  0  0  3  0  0  0  0  0  0
  181.2120  177.3040  137.6880 O   0  0  0  0  0  0  0  0  0  0  0  0
  180.2830  178.1760  141.0620 C   0  0  0  0  0  2  0  0  0  0  0  0
  186.8580  177.8600  139.4150 C   0  0  0  0  0  2  0  0  0  0  0  0
  183.6150  176.8740  137.9010 C   0  0  0  0  0  0  0  0  0  0  0  0
  186.7650  177.5110  142.6530 N   0  0  0  0  0  2  0  0  0  0  0  0
  187.9540  177.0660  142.4670 C   0  0  1  0  0  3  0  0  0  0  0  0
  184.4810  175.8740  137.6600 C   0  0  0  0  0  3  0  0  0  0  0  0
  184.6240  179.5500  140.4390 O   0  0  0  0  0  0  0  0  0  0  0  0
  181.1400  177.5900  139.0510 C   0  0  0  0  0  0  0  0  0  0  0  0
  182.3110  176.5880  141.0360 C   0  0  0  0  0  2  0  0  0  0  0  0
  184.5230  178.8670  139.2060 C   0  0  2  0  0  3  0  0  0  0  0  0
  180.0390  177.8710  139.6540 N   0  0  0  0  0  0  0  0  0  0  0  0
  183.7260  177.5350  139.2560 C   0  0  1  0  0  3  0  0  0  0  0  0
  182.4660  177.3610  137.0080 C   0  0  1  0  0  3  0  0  0  0  0  0
  187.3810  178.6440  140.6180 C   0  0  2  0  0  3  0  0  0  0  0  0
  182.5420  179.0480  142.0900 C   0  0  0  0  0  2  0  0  0  0  0  0
  184.9340  178.6090  141.4420 C   0  0  2  0  0  3  0  0  0  0  0  0
  188.4200  175.9080  143.1450 N   0  0  0  0  0  1  0  0  0  0  0  0
  188.9190  177.8600  141.1960 S   0  0  0  0  0  0  0  0  0  0  0  0
  183.9380  178.6840  142.6060 C   0  0  1  0  0  3  0  0  0  0  0  0
  182.3340  177.6310  139.9130 C   0  0  1  0  0  0  0  0  0  0  0  0
  181.7880  177.9790  141.2910 C   0  0  2  0  0  0  0  0  0  0  0  0
  185.8930  174.2970  136.4330 C   0  0  2  0  0  3  0  0  0  0  0  0
  184.5640  175.0250  136.4400 C   0  0  2  0  0  3  0  0  0  0  0  0
  185.6940  175.5220  135.5640 C   0  0  0  0  0  2  0  0  0  0  0  0
  185.7490  173.0360  135.6000 C   0  0  0  0  0  2  0  0  0  0  0  0
  186.7730  171.0600  134.8500 C   0  0  0  0  0  2  0  0  0  0  0  0
  187.8650  173.1770  134.6240 C   0  0  0  0  0  2  0  0  0  0  0  0
  189.3310  173.0340  135.0260 C   0  0  2  0  0  3  0  0  0  0  0  0
  189.8270  171.6100  134.7450 C   0  0  2  0  0  3  0  0  0  0  0  0
  187.0250  172.3540  135.4910 N   0  0  0  0  0  0  0  0  0  0  0  0
  189.0870  170.6550  135.4640 O   0  0  0  0  0  0  0  0  0  0  0  0
  189.4810  173.3630  136.3630 F   0  0  0  0  0  0  0  0  0  0  0  0
  188.0630  170.2640  134.5930 C   0  0  0  0  0  2  0  0  0  0  0  0
  191.3270  171.4500  134.9850 C   0  0  0  0  0  2  0  0  0  0  0  0
  191.7670  169.9930  134.9900 C   0  0  0  0  0  1  0  0  0  0  0  0
  181.0080  176.1930  135.2900 C   0  0  0  0  0  1  0  0  0  0  0  0
  182.5110  177.9690  134.6580 O   0  0  0  0  0  1  0  0  0  0  0  0
  182.3130  176.9180  135.5540 C   0  0  1  0  0  3  0  0  0  0  0  0
  184.3670  179.7270  143.6330 C   0  0  0  0  0  2  0  0  0  0  0  0
  185.6090  178.7720  145.5710 O   0  0  0  0  0  0  0  0  0  0  0  0
  183.3290  178.9920  145.6510 O   0  0  0  0  0  1  0  0  0  0  0  0
  184.3980  179.1390  145.0020 C   0  0  0  0  0  0  0  0  0  0  0  0
  1  5  1  0  0  0  0
  2  7  1  1  0  0  0
  3 11  1  0  0  0  0
  4 24  1  0  0  0  0
  8  7  1  0  0  0  0
  8 20  1  6  0  0  0
  9  6  2  0  0  0  0
 11 14  2  0  0  0  0
 11 23  1  0  0  0  0
 13  1  1  1  0  0  0
 13 15  1  0  0  0  0
 13 10  1  0  0  0  0
 14  4  1  0  0  0  0
 15  6  1  6  0  0  0
 15 23  1  0  0  0  0
 16 41  1  6  0  0  0
 16  3  1  0  0  0  0
 16  6  1  0  0  0  0
 17  5  1  6  0  0  0
 17 21  1  0  0  0  0
 17  2  1  0  0  0  0
 18 22  1  0  0  0  0
 19 10  1  6  0  0  0
 19  2  1  0  0  0  0
 19 22  1  0  0  0  0
 21  8  1  0  0  0  0
 22 42  1  1  0  0  0
 23 12  1  1  0  0  0
 23 24  1  0  0  0  0
 24 12  1  1  0  0  0
 24 18  1  0  0  0  0
 25 28  1  6  0  0  0
 25 26  1  0  0  0  0
 26  9  1  1  0  0  0
 27 25  1  0  0  0  0
 27 26  1  0  0  0  0
 29 33  1  0  0  0  0
 30 31  1  0  0  0  0
 30 33  1  0  0  0  0
 31 35  1  1  0  0  0
 32 37  1  1  0  0  0
 32 31  1  0  0  0  0
 32 34  1  0  0  0  0
 33 28  1  0  0  0  0
 36 29  1  0  0  0  0
 36 34  1  0  0  0  0
 37 38  1  0  0  0  0
 40 41  1  0  0  0  0
 41 39  1  1  0  0  0
 42 45  1  0  0  0  0
 45 43  2  0  0  0  0
 45 44  1  0  0  0  0
M  END
>  <MODEL>
9

>  <REMARK>
 VINA RESULT:      -5.2      3.494      9.035
  Name = 
  7 active torsions:
  status: ('A' for Active; 'I' for Inactive)
    1  A    between atoms: C_4  and  C_35
    2  A    between atoms: C_4  and  C_40
    3  A    between atoms: C_5  and  C_43
    4  A    between atoms: C_15  and  C_16
    5  A    between atoms: C_19  and  C_25
    6  A    between atoms: N_21  and  C_43
    7  A    between atoms: C_31  and  C_44
                            x       y       z     vdW  Elec       q    Type
                         _______ _______ _______ _____ _____    ______ ____

>  <TORSDO>
F 7

$$$$
