=
 OpenBabel11062417163D

 26 28  0  0  0  0  0  0  0  0999 V2000
  186.4040  178.6300  141.5310 C   0  0  0  0  0  0  0  0  0  0  0  0
  185.0900  179.0930  141.3640 C   0  0  0  0  0  0  0  0  0  0  0  0
  184.1730  178.9510  142.4190 C   0  0  0  0  0  3  0  0  0  0  0  0
  187.3140  178.7550  140.5280 N   0  0  0  0  0  0  0  0  0  0  0  0
  189.0210  177.7100  141.8560 C   0  0  0  0  0  0  0  0  0  0  0  0
  185.8660  177.8900  143.7870 C   0  0  0  0  0  3  0  0  0  0  0  0
  188.5940  178.3140  140.6630 C   0  0  0  0  0  3  0  0  0  0  0  0
  184.5590  178.3530  143.6220 C   0  0  0  0  0  3  0  0  0  0  0  0
  186.7880  178.0260  142.7480 C   0  0  0  0  0  0  0  0  0  0  0  0
  188.0960  177.5690  142.9000 C   0  0  0  0  0  3  0  0  0  0  0  0
  184.7170  179.6900  140.1520 O   0  0  0  0  0  0  0  0  0  0  0  0
  184.3630  178.9430  138.9930 C   0  0  0  0  0  2  0  0  0  0  0  0
  185.3520  179.0870  138.0190 O   0  0  0  0  0  0  0  0  0  0  0  0
  185.5990  177.7860  137.5760 C   0  0  0  0  0  2  0  0  0  0  0  0
  187.6240  179.0050  137.0090 N   0  0  0  0  0  1  0  0  0  0  0  0
  186.9610  177.7170  136.9110 C   0  0  0  0  0  2  0  0  0  0  0  0
  190.3780  177.2410  141.9990 N   0  0  0  0  0  0  0  0  0  0  0  0
  191.1680  177.8560  144.2680 C   0  0  0  0  0  0  0  0  0  0  0  0
  191.7190  175.1610  144.7990 C   0  0  0  0  0  3  0  0  0  0  0  0
  190.9150  176.8790  143.2820 C   0  0  0  0  0  0  0  0  0  0  0  0
  191.9580  176.1290  145.7760 C   0  0  0  0  0  3  0  0  0  0  0  0
  191.6860  177.4730  145.5090 C   0  0  0  0  0  3  0  0  0  0  0  0
  191.2030  175.5350  143.5560 C   0  0  0  0  0  3  0  0  0  0  0  0
  190.8960  179.5640  143.9650 Cl  0  0  0  0  0  0  0  0  0  0  0  0
  191.1950  176.9870  140.8160 C   0  0  0  0  0  2  0  0  0  0  0  0
  192.3620  177.7490  140.8750 O   0  0  0  0  0  1  0  0  0  0  0  0
  1  9  1  0  0  0  0
  2  1  2  0  0  0  0
  2  3  1  0  0  0  0
  3  8  2  0  0  0  0
  4  7  2  0  0  0  0
  4  1  1  0  0  0  0
  5 17  1  0  0  0  0
  5 10  2  0  0  0  0
  7  5  1  0  0  0  0
  8  6  1  0  0  0  0
  9 10  1  0  0  0  0
  9  6  2  0  0  0  0
 11  2  1  0  0  0  0
 12 11  1  0  0  0  0
 13 12  1  0  0  0  0
 14 13  1  0  0  0  0
 16 15  1  0  0  0  0
 16 14  1  0  0  0  0
 17 20  1  0  0  0  0
 18 22  1  0  0  0  0
 19 21  1  0  0  0  0
 20 23  1  0  0  0  0
 20 18  2  0  0  0  0
 22 21  2  0  0  0  0
 23 19  2  0  0  0  0
 24 18  1  0  0  0  0
 25 26  1  0  0  0  0
 25 17  1  0  0  0  0
M  END
>  <MODEL>
1

>  <REMARK>
 VINA RESULT:      -7.1      0.000      0.000
  Name = 
  8 active torsions:
  status: ('A' for Active; 'I' for Inactive)
    1  A    between atoms: C_4  and  C_13
    2  A    between atoms: C_6  and  N_23
    3  A    between atoms: C_7  and  O_8
    4  A    between atoms: O_8  and  C_25
    5  A    between atoms: C_10  and  N_23
    6  A    between atoms: C_13  and  O_15
    7  A    between atoms: O_15  and  C_25
    8  A    between atoms: C_16  and  N_23
                            x       y       z     vdW  Elec       q    Type
                         _______ _______ _______ _____ _____    ______ ____

>  <TORSDO>
F 8

$$$$
=
 OpenBabel11062417163D

 26 28  0  0  0  0  0  0  0  0999 V2000
  185.9660  178.2510  143.9600 C   0  0  0  0  0  0  0  0  0  0  0  0
  186.7170  178.1310  145.1400 C   0  0  0  0  0  0  0  0  0  0  0  0
  186.0770  178.2930  146.3800 C   0  0  0  0  0  3  0  0  0  0  0  0
  186.5580  178.0970  142.7450 N   0  0  0  0  0  0  0  0  0  0  0  0
  184.4790  178.4880  141.6080 C   0  0  0  0  0  0  0  0  0  0  0  0
  183.9640  178.6970  145.2700 C   0  0  0  0  0  3  0  0  0  0  0  0
  185.8540  178.2090  141.5860 C   0  0  0  0  0  3  0  0  0  0  0  0
  184.7090  178.5740  146.4440 C   0  0  0  0  0  3  0  0  0  0  0  0
  184.5850  178.5360  144.0310 C   0  0  0  0  0  0  0  0  0  0  0  0
  183.8520  178.6540  142.8510 C   0  0  0  0  0  3  0  0  0  0  0  0
  188.0880  177.8490  145.0600 O   0  0  0  0  0  0  0  0  0  0  0  0
  188.8200  177.2400  146.1180 C   0  0  0  0  0  2  0  0  0  0  0  0
  190.1080  176.9270  145.6800 O   0  0  0  0  0  0  0  0  0  0  0  0
  190.8920  176.9790  146.8340 C   0  0  0  0  0  2  0  0  0  0  0  0
  192.7390  175.9110  147.9970 N   0  0  0  0  0  1  0  0  0  0  0  0
  192.0200  175.9690  146.7380 C   0  0  0  0  0  2  0  0  0  0  0  0
  183.7320  178.6080  140.3790 N   0  0  0  0  0  0  0  0  0  0  0  0
  181.7490  177.1830  139.9500 C   0  0  0  0  0  0  0  0  0  0  0  0
  180.0730  179.3060  140.6810 C   0  0  0  0  0  3  0  0  0  0  0  0
  182.3080  178.4160  140.3450 C   0  0  0  0  0  0  0  0  0  0  0  0
  179.5230  178.0800  140.2990 C   0  0  0  0  0  3  0  0  0  0  0  0
  180.3590  177.0240  139.9310 C   0  0  0  0  0  3  0  0  0  0  0  0
  181.4600  179.4730  140.7010 C   0  0  0  0  0  3  0  0  0  0  0  0
  182.7520  175.8410  139.4250 Cl  0  0  0  0  0  0  0  0  0  0  0  0
  184.3920  179.0710  139.1620 C   0  0  0  0  0  2  0  0  0  0  0  0
  184.3270  180.4630  139.0900 O   0  0  0  0  0  1  0  0  0  0  0  0
  1  9  1  0  0  0  0
  1  2  2  0  0  0  0
  2  3  1  0  0  0  0
  3  8  2  0  0  0  0
  4  1  1  0  0  0  0
  5 10  2  0  0  0  0
  6  8  1  0  0  0  0
  7  5  1  0  0  0  0
  7  4  2  0  0  0  0
  9  6  2  0  0  0  0
 10  9  1  0  0  0  0
 11  2  1  0  0  0  0
 11 12  1  0  0  0  0
 13 12  1  0  0  0  0
 13 14  1  0  0  0  0
 16 14  1  0  0  0  0
 16 15  1  0  0  0  0
 17  5  1  0  0  0  0
 18 20  1  0  0  0  0
 19 23  1  0  0  0  0
 20 17  1  0  0  0  0
 20 23  2  0  0  0  0
 21 19  2  0  0  0  0
 22 18  2  0  0  0  0
 22 21  1  0  0  0  0
 24 18  1  0  0  0  0
 25 17  1  0  0  0  0
 26 25  1  0  0  0  0
M  END
>  <MODEL>
2

>  <REMARK>
 VINA RESULT:      -7.0      3.714      8.370
  Name = 
  8 active torsions:
  status: ('A' for Active; 'I' for Inactive)
    1  A    between atoms: C_4  and  C_13
    2  A    between atoms: C_6  and  N_23
    3  A    between atoms: C_7  and  O_8
    4  A    between atoms: O_8  and  C_25
    5  A    between atoms: C_10  and  N_23
    6  A    between atoms: C_13  and  O_15
    7  A    between atoms: O_15  and  C_25
    8  A    between atoms: C_16  and  N_23
                            x       y       z     vdW  Elec       q    Type
                         _______ _______ _______ _____ _____    ______ ____

>  <TORSDO>
F 8

$$$$
=
 OpenBabel11062417163D

 26 28  0  0  0  0  0  0  0  0999 V2000
  186.3520  178.0460  143.7200 C   0  0  0  0  0  0  0  0  0  0  0  0
  184.9760  178.0970  143.4440 C   0  0  0  0  0  0  0  0  0  0  0  0
  184.0720  178.3180  144.4960 C   0  0  0  0  0  3  0  0  0  0  0  0
  187.2500  177.8350  142.7200 N   0  0  0  0  0  0  0  0  0  0  0  0
  189.0890  177.9440  144.2610 C   0  0  0  0  0  0  0  0  0  0  0  0
  185.9000  178.4300  146.0800 C   0  0  0  0  0  3  0  0  0  0  0  0
  188.5880  177.7810  142.9610 C   0  0  0  0  0  3  0  0  0  0  0  0
  184.5320  178.4830  145.8060 C   0  0  0  0  0  3  0  0  0  0  0  0
  186.8090  178.2130  145.0450 C   0  0  0  0  0  0  0  0  0  0  0  0
  188.1780  178.1590  145.3050 C   0  0  0  0  0  3  0  0  0  0  0  0
  184.5300  177.9290  142.1250 O   0  0  0  0  0  0  0  0  0  0  0  0
  184.0260  178.9980  141.3320 C   0  0  0  0  0  2  0  0  0  0  0  0
  185.0190  179.4470  140.4600 O   0  0  0  0  0  0  0  0  0  0  0  0
  184.5260  179.1560  139.1870 C   0  0  0  0  0  2  0  0  0  0  0  0
  186.8460  178.4480  139.0310 N   0  0  0  0  0  1  0  0  0  0  0  0
  185.5350  178.3210  138.4210 C   0  0  0  0  0  2  0  0  0  0  0  0
  190.5080  177.8850  144.5160 N   0  0  0  0  0  0  0  0  0  0  0  0
  191.6950  175.8510  145.2920 C   0  0  0  0  0  0  0  0  0  0  0  0
  191.4420  176.7210  147.9430 C   0  0  0  0  0  3  0  0  0  0  0  0
  191.0470  177.0720  145.5720 C   0  0  0  0  0  0  0  0  0  0  0  0
  192.0920  175.5170  147.6610 C   0  0  0  0  0  3  0  0  0  0  0  0
  192.2140  175.0830  146.3390 C   0  0  0  0  0  3  0  0  0  0  0  0
  190.9200  177.4930  146.9020 C   0  0  0  0  0  3  0  0  0  0  0  0
  191.8290  175.2310  143.6540 Cl  0  0  0  0  0  0  0  0  0  0  0  0
  191.4440  178.5430  143.6100 C   0  0  0  0  0  2  0  0  0  0  0  0
  191.5840  179.8840  143.9680 O   0  0  0  0  0  1  0  0  0  0  0  0
  1  9  1  0  0  0  0
  2  1  2  0  0  0  0
  2  3  1  0  0  0  0
  3  8  2  0  0  0  0
  4  7  2  0  0  0  0
  4  1  1  0  0  0  0
  5 17  1  0  0  0  0
  5 10  2  0  0  0  0
  7  5  1  0  0  0  0
  8  6  1  0  0  0  0
  9 10  1  0  0  0  0
  9  6  2  0  0  0  0
 11  2  1  0  0  0  0
 12 11  1  0  0  0  0
 13 12  1  0  0  0  0
 14 13  1  0  0  0  0
 16 15  1  0  0  0  0
 16 14  1  0  0  0  0
 17 20  1  0  0  0  0
 18 20  2  0  0  0  0
 18 22  1  0  0  0  0
 20 23  1  0  0  0  0
 21 19  1  0  0  0  0
 22 21  2  0  0  0  0
 23 19  2  0  0  0  0
 24 18  1  0  0  0  0
 25 26  1  0  0  0  0
 25 17  1  0  0  0  0
M  END
>  <MODEL>
3

>  <REMARK>
 VINA RESULT:      -6.9      1.942      2.692
  Name = 
  8 active torsions:
  status: ('A' for Active; 'I' for Inactive)
    1  A    between atoms: C_4  and  C_13
    2  A    between atoms: C_6  and  N_23
    3  A    between atoms: C_7  and  O_8
    4  A    between atoms: O_8  and  C_25
    5  A    between atoms: C_10  and  N_23
    6  A    between atoms: C_13  and  O_15
    7  A    between atoms: O_15  and  C_25
    8  A    between atoms: C_16  and  N_23
                            x       y       z     vdW  Elec       q    Type
                         _______ _______ _______ _____ _____    ______ ____

>  <TORSDO>
F 8

$$$$
=
 OpenBabel11062417163D

 26 28  0  0  0  0  0  0  0  0999 V2000
  185.8650  178.2970  143.9800 C   0  0  0  0  0  0  0  0  0  0  0  0
  186.6340  178.2090  145.1510 C   0  0  0  0  0  0  0  0  0  0  0  0
  186.0060  178.3690  146.3980 C   0  0  0  0  0  3  0  0  0  0  0  0
  186.4460  178.1460  142.7590 N   0  0  0  0  0  0  0  0  0  0  0  0
  184.3430  178.4710  141.6460 C   0  0  0  0  0  0  0  0  0  0  0  0
  183.8690  178.7050  145.3120 C   0  0  0  0  0  3  0  0  0  0  0  0
  185.7240  178.2270  141.6090 C   0  0  0  0  0  3  0  0  0  0  0  0
  184.6330  178.6150  146.4770 C   0  0  0  0  0  3  0  0  0  0  0  0
  184.4790  178.5470  144.0670 C   0  0  0  0  0  0  0  0  0  0  0  0
  183.7270  178.6340  142.8950 C   0  0  0  0  0  3  0  0  0  0  0  0
  188.0110  177.9620  145.0570 O   0  0  0  0  0  0  0  0  0  0  0  0
  188.7110  177.1030  145.9500 C   0  0  0  0  0  2  0  0  0  0  0  0
  189.7340  177.8110  146.5810 O   0  0  0  0  0  0  0  0  0  0  0  0
  190.4440  176.8420  147.2920 C   0  0  0  0  0  2  0  0  0  0  0  0
  192.5250  175.5890  147.3480 N   0  0  0  0  0  1  0  0  0  0  0  0
  191.7000  176.4600  146.5320 C   0  0  0  0  0  2  0  0  0  0  0  0
  183.5770  178.5580  140.4250 N   0  0  0  0  0  0  0  0  0  0  0  0
  181.1530  178.0420  140.4650 C   0  0  0  0  0  0  0  0  0  0  0  0
  181.6750  175.5300  139.3400 C   0  0  0  0  0  3  0  0  0  0  0  0
  182.4790  177.6690  140.1640 C   0  0  0  0  0  0  0  0  0  0  0  0
  180.3620  175.9060  139.6310 C   0  0  0  0  0  3  0  0  0  0  0  0
  180.1040  177.1570  140.1950 C   0  0  0  0  0  3  0  0  0  0  0  0
  182.7290  176.4070  139.6080 C   0  0  0  0  0  3  0  0  0  0  0  0
  180.7760  179.5790  141.2260 Cl  0  0  0  0  0  0  0  0  0  0  0  0
  183.8140  179.6520  139.4880 C   0  0  0  0  0  2  0  0  0  0  0  0
  184.8900  179.3370  138.6570 O   0  0  0  0  0  1  0  0  0  0  0  0
  1  9  1  0  0  0  0
  1  2  2  0  0  0  0
  2  3  1  0  0  0  0
  3  8  2  0  0  0  0
  4  1  1  0  0  0  0
  5 10  2  0  0  0  0
  6  8  1  0  0  0  0
  7  5  1  0  0  0  0
  7  4  2  0  0  0  0
  9  6  2  0  0  0  0
 10  9  1  0  0  0  0
 11  2  1  0  0  0  0
 11 12  1  0  0  0  0
 12 13  1  0  0  0  0
 13 14  1  0  0  0  0
 16 14  1  0  0  0  0
 16 15  1  0  0  0  0
 17  5  1  0  0  0  0
 18 24  1  0  0  0  0
 19 23  2  0  0  0  0
 19 21  1  0  0  0  0
 20 17  1  0  0  0  0
 20 18  2  0  0  0  0
 21 22  2  0  0  0  0
 22 18  1  0  0  0  0
 23 20  1  0  0  0  0
 25 17  1  0  0  0  0
 26 25  1  0  0  0  0
M  END
>  <MODEL>
4

>  <REMARK>
 VINA RESULT:      -6.9      3.819      8.184
  Name = 
  8 active torsions:
  status: ('A' for Active; 'I' for Inactive)
    1  A    between atoms: C_4  and  C_13
    2  A    between atoms: C_6  and  N_23
    3  A    between atoms: C_7  and  O_8
    4  A    between atoms: O_8  and  C_25
    5  A    between atoms: C_10  and  N_23
    6  A    between atoms: C_13  and  O_15
    7  A    between atoms: O_15  and  C_25
    8  A    between atoms: C_16  and  N_23
                            x       y       z     vdW  Elec       q    Type
                         _______ _______ _______ _____ _____    ______ ____

>  <TORSDO>
F 8

$$$$
=
 OpenBabel11062417163D

 26 28  0  0  0  0  0  0  0  0999 V2000
  185.0390  178.2180  143.4200 C   0  0  0  0  0  0  0  0  0  0  0  0
  186.2490  177.9210  144.0670 C   0  0  0  0  0  0  0  0  0  0  0  0
  186.3430  178.0930  145.4580 C   0  0  0  0  0  3  0  0  0  0  0  0
  184.9190  178.0600  142.0740 N   0  0  0  0  0  0  0  0  0  0  0  0
  182.6360  178.8060  142.1240 C   0  0  0  0  0  0  0  0  0  0  0  0
  184.0460  178.8530  145.5490 C   0  0  0  0  0  3  0  0  0  0  0  0
  183.7590  178.3410  141.4210 C   0  0  0  0  0  3  0  0  0  0  0  0
  185.2480  178.5550  146.1940 C   0  0  0  0  0  3  0  0  0  0  0  0
  183.9380  178.6860  144.1680 C   0  0  0  0  0  0  0  0  0  0  0  0
  182.7430  178.9780  143.5120 C   0  0  0  0  0  3  0  0  0  0  0  0
  187.3390  177.4580  143.3160 O   0  0  0  0  0  0  0  0  0  0  0  0
  188.5370  176.9650  143.9050 C   0  0  0  0  0  2  0  0  0  0  0  0
  189.6100  177.7830  143.5480 O   0  0  0  0  0  0  0  0  0  0  0  0
  190.1130  178.2510  144.7630 C   0  0  0  0  0  2  0  0  0  0  0  0
  191.7020  177.0210  146.1310 N   0  0  0  0  0  1  0  0  0  0  0  0
  190.3120  177.0900  145.7200 C   0  0  0  0  0  2  0  0  0  0  0  0
  181.4060  179.1050  141.4320 N   0  0  0  0  0  0  0  0  0  0  0  0
  180.9500  177.8690  139.3320 C   0  0  0  0  0  0  0  0  0  0  0  0
  181.5380  180.1750  137.8540 C   0  0  0  0  0  3  0  0  0  0  0  0
  181.3210  179.0550  139.9980 C   0  0  0  0  0  0  0  0  0  0  0  0
  181.1610  179.0010  137.1980 C   0  0  0  0  0  3  0  0  0  0  0  0
  180.8710  177.8520  137.9350 C   0  0  0  0  0  3  0  0  0  0  0  0
  181.6210  180.2000  139.2480 C   0  0  0  0  0  3  0  0  0  0  0  0
  180.6290  176.3800  140.2070 Cl  0  0  0  0  0  0  0  0  0  0  0  0
  180.1760  179.3270  142.1850 C   0  0  0  0  0  2  0  0  0  0  0  0
  179.9740  180.6960  142.3680 O   0  0  0  0  0  1  0  0  0  0  0  0
  1  2  2  0  0  0  0
  1  9  1  0  0  0  0
  2  3  1  0  0  0  0
  3  8  2  0  0  0  0
  4  1  1  0  0  0  0
  5 10  2  0  0  0  0
  6  8  1  0  0  0  0
  7  4  2  0  0  0  0
  7  5  1  0  0  0  0
  9  6  2  0  0  0  0
 10  9  1  0  0  0  0
 11 12  1  0  0  0  0
 11  2  1  0  0  0  0
 13 12  1  0  0  0  0
 13 14  1  0  0  0  0
 14 16  1  0  0  0  0
 16 15  1  0  0  0  0
 17  5  1  0  0  0  0
 17 25  1  0  0  0  0
 18 20  1  0  0  0  0
 18 24  1  0  0  0  0
 19 23  1  0  0  0  0
 20 17  1  0  0  0  0
 21 19  2  0  0  0  0
 21 22  1  0  0  0  0
 22 18  2  0  0  0  0
 23 20  2  0  0  0  0
 25 26  1  0  0  0  0
M  END
>  <MODEL>
5

>  <REMARK>
 VINA RESULT:      -6.8      3.884      8.703
  Name = 
  8 active torsions:
  status: ('A' for Active; 'I' for Inactive)
    1  A    between atoms: C_4  and  C_13
    2  A    between atoms: C_6  and  N_23
    3  A    between atoms: C_7  and  O_8
    4  A    between atoms: O_8  and  C_25
    5  A    between atoms: C_10  and  N_23
    6  A    between atoms: C_13  and  O_15
    7  A    between atoms: O_15  and  C_25
    8  A    between atoms: C_16  and  N_23
                            x       y       z     vdW  Elec       q    Type
                         _______ _______ _______ _____ _____    ______ ____

>  <TORSDO>
F 8

$$$$
=
 OpenBabel11062417163D

 26 28  0  0  0  0  0  0  0  0999 V2000
  187.6930  177.5700  143.2010 C   0  0  0  0  0  0  0  0  0  0  0  0
  187.5760  177.3910  144.5890 C   0  0  0  0  0  0  0  0  0  0  0  0
  186.4140  177.8330  145.2430 C   0  0  0  0  0  3  0  0  0  0  0  0
  188.8060  177.1510  142.5420 N   0  0  0  0  0  0  0  0  0  0  0  0
  187.9310  177.9220  140.4420 C   0  0  0  0  0  0  0  0  0  0  0  0
  185.5010  178.6270  143.1460 C   0  0  0  0  0  3  0  0  0  0  0  0
  188.9450  177.3130  141.1980 C   0  0  0  0  0  3  0  0  0  0  0  0
  185.3840  178.4460  144.5260 C   0  0  0  0  0  3  0  0  0  0  0  0
  186.6490  178.1910  142.4830 C   0  0  0  0  0  0  0  0  0  0  0  0
  186.7780  178.3640  141.1060 C   0  0  0  0  0  3  0  0  0  0  0  0
  188.6180  176.7740  145.2950 O   0  0  0  0  0  0  0  0  0  0  0  0
  189.5850  177.4990  146.0480 C   0  0  0  0  0  2  0  0  0  0  0  0
  190.7540  177.6420  145.3000 O   0  0  0  0  0  0  0  0  0  0  0  0
  191.6420  176.7210  145.8580 C   0  0  0  0  0  2  0  0  0  0  0  0
  192.5420  175.9710  147.9870 N   0  0  0  0  0  1  0  0  0  0  0  0
  191.4090  176.6200  147.3540 C   0  0  0  0  0  2  0  0  0  0  0  0
  188.0790  178.0950  139.0170 N   0  0  0  0  0  0  0  0  0  0  0  0
  187.5610  176.3180  137.3670 C   0  0  0  0  0  0  0  0  0  0  0  0
  185.0100  177.4150  136.9950 C   0  0  0  0  0  3  0  0  0  0  0  0
  187.1790  177.4680  138.0880 C   0  0  0  0  0  0  0  0  0  0  0  0
  185.3890  176.2710  136.2900 C   0  0  0  0  0  3  0  0  0  0  0  0
  186.6620  175.7270  136.4740 C   0  0  0  0  0  3  0  0  0  0  0  0
  185.9030  178.0130  137.8880 C   0  0  0  0  0  3  0  0  0  0  0  0
  189.1680  175.6260  137.5180 Cl  0  0  0  0  0  0  0  0  0  0  0  0
  189.0660  179.0320  138.4900 C   0  0  0  0  0  2  0  0  0  0  0  0
  188.6540  179.5000  137.2420 O   0  0  0  0  0  1  0  0  0  0  0  0
  1  2  2  0  0  0  0
  2  3  1  0  0  0  0
  2 11  1  0  0  0  0
  4  1  1  0  0  0  0
  5 10  2  0  0  0  0
  5  7  1  0  0  0  0
  6  8  1  0  0  0  0
  7  4  2  0  0  0  0
  8  3  2  0  0  0  0
  9  6  2  0  0  0  0
  9  1  1  0  0  0  0
 10  9  1  0  0  0  0
 11 12  1  0  0  0  0
 13 14  1  0  0  0  0
 13 12  1  0  0  0  0
 14 16  1  0  0  0  0
 16 15  1  0  0  0  0
 17  5  1  0  0  0  0
 18 24  1  0  0  0  0
 18 20  1  0  0  0  0
 19 23  1  0  0  0  0
 20 17  1  0  0  0  0
 21 22  1  0  0  0  0
 21 19  2  0  0  0  0
 22 18  2  0  0  0  0
 23 20  2  0  0  0  0
 25 17  1  0  0  0  0
 26 25  1  0  0  0  0
M  END
>  <MODEL>
6

>  <REMARK>
 VINA RESULT:      -6.7      2.865      7.095
  Name = 
  8 active torsions:
  status: ('A' for Active; 'I' for Inactive)
    1  A    between atoms: C_4  and  C_13
    2  A    between atoms: C_6  and  N_23
    3  A    between atoms: C_7  and  O_8
    4  A    between atoms: O_8  and  C_25
    5  A    between atoms: C_10  and  N_23
    6  A    between atoms: C_13  and  O_15
    7  A    between atoms: O_15  and  C_25
    8  A    between atoms: C_16  and  N_23
                            x       y       z     vdW  Elec       q    Type
                         _______ _______ _______ _____ _____    ______ ____

>  <TORSDO>
F 8

$$$$
=
 OpenBabel11062417163D

 26 28  0  0  0  0  0  0  0  0999 V2000
  188.0380  177.4500  143.2080 C   0  0  0  0  0  0  0  0  0  0  0  0
  187.7130  177.3540  144.5700 C   0  0  0  0  0  0  0  0  0  0  0  0
  186.4490  177.7870  145.0070 C   0  0  0  0  0  3  0  0  0  0  0  0
  189.2530  177.0380  142.7570 N   0  0  0  0  0  0  0  0  0  0  0  0
  188.6930  177.6390  140.5000 C   0  0  0  0  0  0  0  0  0  0  0  0
  185.8500  178.4100  142.7450 C   0  0  0  0  0  3  0  0  0  0  0  0
  189.5940  177.1210  141.4430 C   0  0  0  0  0  3  0  0  0  0  0  0
  185.5240  178.3120  144.0990 C   0  0  0  0  0  3  0  0  0  0  0  0
  187.1000  177.9820  142.2980 C   0  0  0  0  0  0  0  0  0  0  0  0
  187.4370  178.0740  140.9480 C   0  0  0  0  0  3  0  0  0  0  0  0
  188.6510  176.8260  145.4690 O   0  0  0  0  0  0  0  0  0  0  0  0
  189.0760  177.5100  146.6420 C   0  0  0  0  0  2  0  0  0  0  0  0
  189.8980  176.6770  147.4020 O   0  0  0  0  0  0  0  0  0  0  0  0
  191.1410  176.7400  146.7700 C   0  0  0  0  0  2  0  0  0  0  0  0
  192.8100  176.1140  148.4220 N   0  0  0  0  0  1  0  0  0  0  0  0
  192.0400  175.6340  147.2880 C   0  0  0  0  0  2  0  0  0  0  0  0
  189.0550  177.7290  139.1060 N   0  0  0  0  0  0  0  0  0  0  0  0
  190.5710  176.0070  138.1660 C   0  0  0  0  0  0  0  0  0  0  0  0
  188.3910  174.7900  136.8950 C   0  0  0  0  0  3  0  0  0  0  0  0
  189.2790  176.5520  138.3130 C   0  0  0  0  0  0  0  0  0  0  0  0
  189.6710  174.2480  136.7600 C   0  0  0  0  0  3  0  0  0  0  0  0
  190.7580  174.8580  137.3910 C   0  0  0  0  0  3  0  0  0  0  0  0
  188.1970  175.9390  137.6660 C   0  0  0  0  0  3  0  0  0  0  0  0
  191.9800  176.7650  138.8920 Cl  0  0  0  0  0  0  0  0  0  0  0  0
  189.0630  179.0230  138.4320 C   0  0  0  0  0  2  0  0  0  0  0  0
  188.0410  179.0670  137.4830 O   0  0  0  0  0  1  0  0  0  0  0  0
  1  2  2  0  0  0  0
  2  3  1  0  0  0  0
  2 11  1  0  0  0  0
  4  1  1  0  0  0  0
  5 10  2  0  0  0  0
  5  7  1  0  0  0  0
  6  8  1  0  0  0  0
  7  4  2  0  0  0  0
  8  3  2  0  0  0  0
  9  6  2  0  0  0  0
  9  1  1  0  0  0  0
 10  9  1  0  0  0  0
 11 12  1  0  0  0  0
 12 13  1  0  0  0  0
 14 16  1  0  0  0  0
 14 13  1  0  0  0  0
 16 15  1  0  0  0  0
 17  5  1  0  0  0  0
 18 20  1  0  0  0  0
 18 24  1  0  0  0  0
 19 23  1  0  0  0  0
 20 17  1  0  0  0  0
 21 19  2  0  0  0  0
 21 22  1  0  0  0  0
 22 18  2  0  0  0  0
 23 20  2  0  0  0  0
 25 17  1  0  0  0  0
 26 25  1  0  0  0  0
M  END
>  <MODEL>
7

>  <REMARK>
 VINA RESULT:      -6.7      3.287      6.720
  Name = 
  8 active torsions:
  status: ('A' for Active; 'I' for Inactive)
    1  A    between atoms: C_4  and  C_13
    2  A    between atoms: C_6  and  N_23
    3  A    between atoms: C_7  and  O_8
    4  A    between atoms: O_8  and  C_25
    5  A    between atoms: C_10  and  N_23
    6  A    between atoms: C_13  and  O_15
    7  A    between atoms: O_15  and  C_25
    8  A    between atoms: C_16  and  N_23
                            x       y       z     vdW  Elec       q    Type
                         _______ _______ _______ _____ _____    ______ ____

>  <TORSDO>
F 8

$$$$
=
 OpenBabel11062417163D

 26 28  0  0  0  0  0  0  0  0999 V2000
  187.5000  177.7150  142.7000 C   0  0  0  0  0  0  0  0  0  0  0  0
  186.9270  177.6370  143.9790 C   0  0  0  0  0  0  0  0  0  0  0  0
  185.6850  178.2520  144.2140 C   0  0  0  0  0  3  0  0  0  0  0  0
  188.7000  177.1280  142.4440 N   0  0  0  0  0  0  0  0  0  0  0  0
  188.6470  177.8650  140.1590 C   0  0  0  0  0  0  0  0  0  0  0  0
  185.5980  179.0160  141.9180 C   0  0  0  0  0  3  0  0  0  0  0  0
  189.2780  177.1880  141.2140 C   0  0  0  0  0  3  0  0  0  0  0  0
  185.0260  178.9370  143.1890 C   0  0  0  0  0  3  0  0  0  0  0  0
  186.8290  178.4090  141.6700 C   0  0  0  0  0  0  0  0  0  0  0  0
  187.4110  178.4790  140.4050 C   0  0  0  0  0  3  0  0  0  0  0  0
  187.6000  176.9470  144.9970 O   0  0  0  0  0  0  0  0  0  0  0  0
  188.2260  177.5980  146.0970 C   0  0  0  0  0  2  0  0  0  0  0  0
  189.4370  178.1570  145.6860 O   0  0  0  0  0  0  0  0  0  0  0  0
  190.3680  177.1280  145.8400 C   0  0  0  0  0  2  0  0  0  0  0  0
  191.6660  176.0230  144.1080 N   0  0  0  0  0  1  0  0  0  0  0  0
  191.4760  177.2770  144.8140 C   0  0  0  0  0  2  0  0  0  0  0  0
  189.2610  177.9300  138.8540 N   0  0  0  0  0  0  0  0  0  0  0  0
  189.2690  175.7490  137.6740 C   0  0  0  0  0  0  0  0  0  0  0  0
  192.0650  175.6730  137.8490 C   0  0  0  0  0  3  0  0  0  0  0  0
  189.9630  176.8060  138.2990 C   0  0  0  0  0  0  0  0  0  0  0  0
  191.3740  174.6330  137.2220 C   0  0  0  0  0  3  0  0  0  0  0  0
  189.9810  174.6710  137.1390 C   0  0  0  0  0  3  0  0  0  0  0  0
  191.3610  176.7530  138.3870 C   0  0  0  0  0  3  0  0  0  0  0  0
  187.5150  175.7190  137.5910 Cl  0  0  0  0  0  0  0  0  0  0  0  0
  189.0570  179.0990  138.0050 C   0  0  0  0  0  2  0  0  0  0  0  0
  187.9090  178.9270  137.2310 O   0  0  0  0  0  1  0  0  0  0  0  0
  1  2  2  0  0  0  0
  2  3  1  0  0  0  0
  2 11  1  0  0  0  0
  4  1  1  0  0  0  0
  5 10  2  0  0  0  0
  5  7  1  0  0  0  0
  6  8  1  0  0  0  0
  7  4  2  0  0  0  0
  8  3  2  0  0  0  0
  9  6  2  0  0  0  0
  9  1  1  0  0  0  0
 10  9  1  0  0  0  0
 11 12  1  0  0  0  0
 13 14  1  0  0  0  0
 13 12  1  0  0  0  0
 15 16  1  0  0  0  0
 16 14  1  0  0  0  0
 17  5  1  0  0  0  0
 18 20  1  0  0  0  0
 19 23  1  0  0  0  0
 20 23  2  0  0  0  0
 20 17  1  0  0  0  0
 21 19  2  0  0  0  0
 22 21  1  0  0  0  0
 22 18  2  0  0  0  0
 24 18  1  0  0  0  0
 25 17  1  0  0  0  0
 26 25  1  0  0  0  0
M  END
>  <MODEL>
8

>  <REMARK>
 VINA RESULT:      -6.7      3.171      5.958
  Name = 
  8 active torsions:
  status: ('A' for Active; 'I' for Inactive)
    1  A    between atoms: C_4  and  C_13
    2  A    between atoms: C_6  and  N_23
    3  A    between atoms: C_7  and  O_8
    4  A    between atoms: O_8  and  C_25
    5  A    between atoms: C_10  and  N_23
    6  A    between atoms: C_13  and  O_15
    7  A    between atoms: O_15  and  C_25
    8  A    between atoms: C_16  and  N_23
                            x       y       z     vdW  Elec       q    Type
                         _______ _______ _______ _____ _____    ______ ____

>  <TORSDO>
F 8

$$$$
=
 OpenBabel11062417163D

 26 28  0  0  0  0  0  0  0  0999 V2000
  184.9670  178.2790  143.3430 C   0  0  0  0  0  0  0  0  0  0  0  0
  186.1880  177.9820  143.9680 C   0  0  0  0  0  0  0  0  0  0  0  0
  186.2980  178.1190  145.3620 C   0  0  0  0  0  3  0  0  0  0  0  0
  184.8320  178.1550  141.9950 N   0  0  0  0  0  0  0  0  0  0  0  0
  182.5410  178.8690  142.0930 C   0  0  0  0  0  0  0  0  0  0  0  0
  183.9930  178.8460  145.5000 C   0  0  0  0  0  3  0  0  0  0  0  0
  183.6600  178.4370  141.3640 C   0  0  0  0  0  3  0  0  0  0  0  0
  185.2060  178.5480  146.1220 C   0  0  0  0  0  3  0  0  0  0  0  0
  183.8690  178.7130  144.1170 C   0  0  0  0  0  0  0  0  0  0  0  0
  182.6620  179.0070  143.4830 C   0  0  0  0  0  3  0  0  0  0  0  0
  187.2740  177.5530  143.1920 O   0  0  0  0  0  0  0  0  0  0  0  0
  187.9770  176.3400  143.4390 C   0  0  0  0  0  2  0  0  0  0  0  0
  189.3210  176.6160  143.6900 O   0  0  0  0  0  0  0  0  0  0  0  0
  190.0050  176.0220  142.6280 C   0  0  0  0  0  2  0  0  0  0  0  0
  190.5360  176.3920  140.2850 N   0  0  0  0  0  1  0  0  0  0  0  0
  190.2840  177.0550  141.5520 C   0  0  0  0  0  2  0  0  0  0  0  0
  181.2980  179.1700  141.4240 N   0  0  0  0  0  0  0  0  0  0  0  0
  180.7600  177.8940  139.3670 C   0  0  0  0  0  0  0  0  0  0  0  0
  181.3700  180.1470  137.8170 C   0  0  0  0  0  3  0  0  0  0  0  0
  181.1770  179.0860  139.9940 C   0  0  0  0  0  0  0  0  0  0  0  0
  180.9470  178.9670  137.2000 C   0  0  0  0  0  3  0  0  0  0  0  0
  180.6470  177.8440  137.9740 C   0  0  0  0  0  3  0  0  0  0  0  0
  181.4870  180.2050  139.2080 C   0  0  0  0  0  3  0  0  0  0  0  0
  180.4230  176.4360  140.2870 Cl  0  0  0  0  0  0  0  0  0  0  0  0
  180.0900  179.4280  142.2010 C   0  0  0  0  0  2  0  0  0  0  0  0
  179.9060  180.8040  142.3430 O   0  0  0  0  0  1  0  0  0  0  0  0
  1  2  2  0  0  0  0
  1  9  1  0  0  0  0
  2  3  1  0  0  0  0
  3  8  2  0  0  0  0
  4  1  1  0  0  0  0
  5 10  2  0  0  0  0
  6  8  1  0  0  0  0
  7  4  2  0  0  0  0
  7  5  1  0  0  0  0
  9  6  2  0  0  0  0
 10  9  1  0  0  0  0
 11 12  1  0  0  0  0
 11  2  1  0  0  0  0
 12 13  1  0  0  0  0
 14 13  1  0  0  0  0
 15 16  1  0  0  0  0
 16 14  1  0  0  0  0
 17  5  1  0  0  0  0
 17 25  1  0  0  0  0
 18 20  1  0  0  0  0
 18 24  1  0  0  0  0
 19 23  1  0  0  0  0
 20 17  1  0  0  0  0
 21 19  2  0  0  0  0
 21 22  1  0  0  0  0
 22 18  2  0  0  0  0
 23 20  2  0  0  0  0
 25 26  1  0  0  0  0
M  END
>  <MODEL>
9

>  <REMARK>
 VINA RESULT:      -6.6      3.787      8.415
  Name = 
  8 active torsions:
  status: ('A' for Active; 'I' for Inactive)
    1  A    between atoms: C_4  and  C_13
    2  A    between atoms: C_6  and  N_23
    3  A    between atoms: C_7  and  O_8
    4  A    between atoms: O_8  and  C_25
    5  A    between atoms: C_10  and  N_23
    6  A    between atoms: C_13  and  O_15
    7  A    between atoms: O_15  and  C_25
    8  A    between atoms: C_16  and  N_23
                            x       y       z     vdW  Elec       q    Type
                         _______ _______ _______ _____ _____    ______ ____

>  <TORSDO>
F 8

$$$$
