=
 OpenBabel11062412193D

 43 47  0  0  1  0  0  0  0  0999 V2000
  190.2620  175.1190  142.7700 O   0  0  0  0  0  0  0  0  0  0  0  0
  190.6000  176.2580  143.1890 C   0  0  0  0  0  0  0  0  0  0  0  0
  188.8060  177.5950  146.2330 C   0  0  0  0  0  0  0  0  0  0  0  0
  191.2180  176.4310  145.5610 N   0  0  0  0  0  0  0  0  0  0  0  0
  190.9920  176.7730  146.8580 C   0  0  0  0  0  0  0  0  0  0  0  0
  190.2850  176.6250  144.5850 C   0  0  0  0  0  0  0  0  0  0  0  0
  189.0620  177.2230  144.9140 C   0  0  0  0  0  3  0  0  0  0  0  0
  189.7730  177.3580  147.2170 C   0  0  0  0  0  3  0  0  0  0  0  0
  192.0400  176.5250  147.8570 C   0  0  0  0  0  3  0  0  0  0  0  0
  192.9370  175.6110  147.6820 N   0  0  0  0  0  2  0  0  0  0  0  0
  187.5000  178.2290  146.5770 C   0  0  0  0  0  2  0  0  0  0  0  0
  184.7160  178.7860  146.7030 O   0  0  0  0  0  0  0  0  0  0  0  0
  186.5700  178.0990  145.4630 N   0  0  0  0  0  2  0  0  0  0  0  0
  185.1990  178.4930  145.5750 C   0  0  0  0  0  0  0  0  0  0  0  0
  184.0440  178.2350  141.9960 C   0  0  0  0  0  0  0  0  0  0  0  0
  181.0620  179.4540  143.5030 O   0  0  0  0  0  0  0  0  0  0  0  0
  183.0680  178.9990  144.4630 N   0  0  0  0  0  0  0  0  0  0  0  0
  184.5250  177.8630  140.7870 F   0  0  0  0  0  0  0  0  0  0  0  0
  184.8680  178.1760  143.1230 C   0  0  0  0  0  3  0  0  0  0  0  0
  182.7260  178.6760  142.1200 C   0  0  0  0  0  2  0  0  0  0  0  0
  182.2490  179.0580  143.3770 C   0  0  0  0  0  0  0  0  0  0  0  0
  184.3590  178.5690  144.3690 C   0  0  0  0  0  0  0  0  0  0  0  0
  191.2740  177.1190  142.3130 O   0  0  0  0  0  0  0  0  0  0  0  0
  190.6040  178.0550  141.4800 C   0  0  0  0  0  2  0  0  0  0  0  0
  186.9870  178.1310  138.2220 C   0  0  0  0  0  0  0  0  0  0  0  0
  189.4110  177.3940  140.8220 C   0  0  2  0  0  3  0  0  0  0  0  0
  189.3950  178.6670  136.7130 O   0  0  0  0  0  1  0  0  0  0  0  0
  186.5150  178.0310  136.8080 C   0  0  0  0  0  2  0  0  0  0  0  0
  188.2580  177.4020  138.4070 C   0  0  2  0  0  3  0  0  0  0  0  0
  189.8510  176.4850  139.6940 C   0  0  1  0  0  3  0  0  0  0  0  0
  189.2950  177.8750  139.3940 C   0  0  2  0  0  3  0  0  0  0  0  0
  187.6190  177.2160  136.1070 C   0  0  1  0  0  3  0  0  0  0  0  0
  191.1670  176.8590  137.6140 O   0  0  0  0  0  0  0  0  0  0  0  0
  191.2140  176.4600  138.9850 C   0  0  0  0  0  2  0  0  0  0  0  0
  186.3530  178.6590  139.1220 O   0  0  0  0  0  0  0  0  0  0  0  0
  190.0190  176.3520  136.9370 C   0  0  1  0  0  3  0  0  0  0  0  0
  188.8630  177.3990  137.0030 C   0  0  1  0  0  0  0  0  0  0  0  0
  186.9260  175.0670  136.9400 O   0  0  0  0  0  0  0  0  0  0  0  0
  187.0100  175.2580  134.6300 N   0  0  0  0  0  1  0  0  0  0  0  0
  187.1800  175.7880  135.9400 C   0  0  0  0  0  0  0  0  0  0  0  0
  190.3910  176.0080  135.5280 C   0  0  0  0  0  0  0  0  0  0  0  0
  190.4800  174.6760  135.1470 O   0  0  0  0  0  1  0  0  0  0  0  0
  190.6340  176.9150  134.6900 O   0  0  0  0  0  0  0  0  0  0  0  0
  1  2  2  0  0  0  0
  2  6  1  0  0  0  0
  3 11  1  0  0  0  0
  3  8  1  0  0  0  0
  4  5  1  0  0  0  0
  5  8  2  0  0  0  0
  5  9  1  0  0  0  0
  6  7  1  0  0  0  0
  6  4  2  0  0  0  0
  7  3  2  0  0  0  0
 10  9  2  0  0  0  0
 13 14  1  0  0  0  0
 13 11  1  0  0  0  0
 14 12  2  0  0  0  0
 15 20  1  0  0  0  0
 15 19  2  0  0  0  0
 18 15  1  0  0  0  0
 19 22  1  0  0  0  0
 20 21  1  0  0  0  0
 21 16  2  0  0  0  0
 21 17  1  0  0  0  0
 22 17  2  0  0  0  0
 22 14  1  0  0  0  0
 23  2  1  0  0  0  0
 24 23  1  0  0  0  0
 25 35  2  0  0  0  0
 26 24  1  1  0  0  0
 27 37  1  0  0  0  0
 28 25  1  0  0  0  0
 29 25  1  6  0  0  0
 29 31  1  0  0  0  0
 30 34  1  1  0  0  0
 30 26  1  0  0  0  0
 31 30  1  0  0  0  0
 31 26  1  0  0  0  0
 32 28  1  0  0  0  0
 32 37  1  0  0  0  0
 33 34  1  0  0  0  0
 36 37  1  0  0  0  0
 36 33  1  0  0  0  0
 37 29  1  0  0  0  0
 39 40  1  0  0  0  0
 40 32  1  0  0  0  0
 40 38  2  0  0  0  0
 41 36  1  0  0  0  0
 42 41  1  0  0  0  0
 43 41  2  0  0  0  0
M  END
>  <MODEL>
1

>  <REMARK>
 VINA RESULT:      -9.3      0.000      0.000
  Name = 
  10 active torsions:
  status: ('A' for Active; 'I' for Inactive)
    1  A    between atoms: C_4  and  C_19
    2  A    between atoms: C_7  and  C_13
    3  A    between atoms: C_7  and  O_42
    4  A    between atoms: C_8  and  C_39
    5  A    between atoms: C_9  and  C_38
    6  A    between atoms: C_17  and  C_30
    7  A    between atoms: N_22  and  C_39
    8  A    between atoms: C_23  and  C_26
    9  A    between atoms: C_26  and  O_42
   10  A    between atoms: C_36  and  C_40
                            x       y       z     vdW  Elec       q    Type
                         _______ _______ _______ _____ _____    ______ ____

>  <TORSDO>
F 10

$$$$
=
 OpenBabel11062412193D

 43 47  0  0  1  0  0  0  0  0999 V2000
  186.8840  177.7280  146.5540 O   0  0  0  0  0  0  0  0  0  0  0  0
  187.4310  177.5540  145.4320 C   0  0  0  0  0  0  0  0  0  0  0  0
  190.9860  177.4130  144.1610 C   0  0  0  0  0  0  0  0  0  0  0  0
  189.5590  176.8950  146.4670 N   0  0  0  0  0  0  0  0  0  0  0  0
  190.9040  176.6850  146.4650 C   0  0  0  0  0  0  0  0  0  0  0  0
  188.8970  177.3730  145.3760 C   0  0  0  0  0  0  0  0  0  0  0  0
  189.6090  177.6300  144.1980 C   0  0  0  0  0  3  0  0  0  0  0  0
  191.6430  176.9490  145.3060 C   0  0  0  0  0  3  0  0  0  0  0  0
  191.5520  176.1780  147.6810 C   0  0  0  0  0  3  0  0  0  0  0  0
  192.8050  175.8570  147.6950 N   0  0  0  0  0  2  0  0  0  0  0  0
  191.7400  177.6930  142.9030 C   0  0  0  0  0  2  0  0  0  0  0  0
  192.6210  177.7460  140.2020 O   0  0  0  0  0  0  0  0  0  0  0  0
  190.8980  177.4280  141.7440 N   0  0  0  0  0  2  0  0  0  0  0  0
  191.4340  177.3750  140.4190 C   0  0  0  0  0  0  0  0  0  0  0  0
  188.8930  177.2150  137.6410 C   0  0  0  0  0  0  0  0  0  0  0  0
  190.2360  173.9290  137.4150 O   0  0  0  0  0  0  0  0  0  0  0  0
  190.7750  175.6000  138.8540 N   0  0  0  0  0  0  0  0  0  0  0  0
  187.9680  178.0060  137.0490 F   0  0  0  0  0  0  0  0  0  0  0  0
  189.6530  177.7050  138.7050 C   0  0  0  0  0  3  0  0  0  0  0  0
  189.0880  175.9090  137.1890 C   0  0  0  0  0  2  0  0  0  0  0  0
  190.0460  175.1070  137.8150 C   0  0  0  0  0  0  0  0  0  0  0  0
  190.6040  176.8730  139.3130 C   0  0  0  0  0  0  0  0  0  0  0  0
  186.6190  177.5260  144.2910 O   0  0  0  0  0  0  0  0  0  0  0  0
  185.3450  178.1520  144.2310 C   0  0  0  0  0  2  0  0  0  0  0  0
  184.9270  178.6400  139.4050 C   0  0  0  0  0  0  0  0  0  0  0  0
  185.2630  179.0290  142.9990 C   0  0  2  0  0  3  0  0  0  0  0  0
  182.6760  177.0160  140.2130 O   0  0  0  0  0  1  0  0  0  0  0  0
  184.0930  178.6000  138.1660 C   0  0  0  0  0  2  0  0  0  0  0  0
  184.0950  178.9140  140.5940 C   0  0  2  0  0  3  0  0  0  0  0  0
  183.8390  179.4780  142.7500 C   0  0  1  0  0  3  0  0  0  0  0  0
  184.4390  178.3310  141.9410 C   0  0  2  0  0  3  0  0  0  0  0  0
  182.6580  178.8250  138.6800 C   0  0  1  0  0  3  0  0  0  0  0  0
  181.7000  178.2570  142.3880 O   0  0  0  0  0  0  0  0  0  0  0  0
  182.5500  178.8900  143.3450 C   0  0  0  0  0  2  0  0  0  0  0  0
  186.1460  178.5580  139.4150 O   0  0  0  0  0  0  0  0  0  0  0  0
  181.6360  178.9720  141.1560 C   0  0  1  0  0  3  0  0  0  0  0  0
  182.7120  178.4200  140.1690 C   0  0  1  0  0  0  0  0  0  0  0  0
  182.9270  181.2090  138.8840 O   0  0  0  0  0  0  0  0  0  0  0  0
  181.0780  180.5170  137.6660 N   0  0  0  0  0  1  0  0  0  0  0  0
  182.2420  180.2490  138.4400 C   0  0  0  0  0  0  0  0  0  0  0  0
  180.2500  178.8690  140.5990 C   0  0  0  0  0  0  0  0  0  0  0  0
  179.8050  177.6590  140.0870 O   0  0  0  0  0  0  0  0  0  0  0  0
  179.4910  179.8730  140.5820 O   0  0  0  0  0  1  0  0  0  0  0  0
  2  1  2  0  0  0  0
  3  7  2  0  0  0  0
  3  8  1  0  0  0  0
  5  4  1  0  0  0  0
  5  9  1  0  0  0  0
  6  2  1  0  0  0  0
  6  4  2  0  0  0  0
  7  6  1  0  0  0  0
  8  5  2  0  0  0  0
  9 10  2  0  0  0  0
 11  3  1  0  0  0  0
 12 14  2  0  0  0  0
 13 11  1  0  0  0  0
 14 13  1  0  0  0  0
 15 19  2  0  0  0  0
 16 21  2  0  0  0  0
 17 22  2  0  0  0  0
 18 15  1  0  0  0  0
 19 22  1  0  0  0  0
 20 15  1  0  0  0  0
 20 21  1  0  0  0  0
 21 17  1  0  0  0  0
 22 14  1  0  0  0  0
 23  2  1  0  0  0  0
 24 23  1  0  0  0  0
 25 35  2  0  0  0  0
 26 24  1  1  0  0  0
 28 32  1  0  0  0  0
 28 25  1  0  0  0  0
 29 25  1  6  0  0  0
 29 31  1  0  0  0  0
 30 26  1  0  0  0  0
 30 34  1  1  0  0  0
 31 30  1  0  0  0  0
 31 26  1  0  0  0  0
 32 37  1  0  0  0  0
 33 34  1  0  0  0  0
 36 33  1  0  0  0  0
 37 27  1  0  0  0  0
 37 29  1  0  0  0  0
 37 36  1  0  0  0  0
 39 40  1  0  0  0  0
 40 32  1  0  0  0  0
 40 38  2  0  0  0  0
 41 36  1  0  0  0  0
 42 41  2  0  0  0  0
 43 41  1  0  0  0  0
M  END
>  <MODEL>
2

>  <REMARK>
 VINA RESULT:      -9.2      2.675      7.181
  Name = 
  10 active torsions:
  status: ('A' for Active; 'I' for Inactive)
    1  A    between atoms: C_4  and  C_19
    2  A    between atoms: C_7  and  C_13
    3  A    between atoms: C_7  and  O_42
    4  A    between atoms: C_8  and  C_39
    5  A    between atoms: C_9  and  C_38
    6  A    between atoms: C_17  and  C_30
    7  A    between atoms: N_22  and  C_39
    8  A    between atoms: C_23  and  C_26
    9  A    between atoms: C_26  and  O_42
   10  A    between atoms: C_36  and  C_40
                            x       y       z     vdW  Elec       q    Type
                         _______ _______ _______ _____ _____    ______ ____

>  <TORSDO>
F 10

$$$$
=
 OpenBabel11062412193D

 43 47  0  0  1  0  0  0  0  0999 V2000
  185.0580  180.0520  143.1550 O   0  0  0  0  0  0  0  0  0  0  0  0
  184.0790  179.4540  143.6770 C   0  0  0  0  0  0  0  0  0  0  0  0
  182.1470  178.2310  140.6700 C   0  0  0  0  0  0  0  0  0  0  0  0
  181.6960  179.0150  143.2790 N   0  0  0  0  0  0  0  0  0  0  0  0
  180.6370  178.6340  142.5140 C   0  0  0  0  0  0  0  0  0  0  0  0
  182.9750  179.0020  142.8060 C   0  0  0  0  0  0  0  0  0  0  0  0
  183.2140  178.6150  141.4820 C   0  0  0  0  0  3  0  0  0  0  0  0
  180.8490  178.2280  141.1910 C   0  0  0  0  0  3  0  0  0  0  0  0
  179.2870  178.6640  143.0930 C   0  0  0  0  0  3  0  0  0  0  0  0
  179.1020  178.7150  144.3720 N   0  0  0  0  0  2  0  0  0  0  0  0
  182.4090  177.8160  139.2600 C   0  0  0  0  0  2  0  0  0  0  0  0
  183.7750  177.6500  136.7730 O   0  0  0  0  0  0  0  0  0  0  0  0
  183.8100  177.4460  139.0980 N   0  0  0  0  0  2  0  0  0  0  0  0
  184.4550  177.4810  137.8230 C   0  0  0  0  0  0  0  0  0  0  0  0
  187.8720  176.0990  137.0350 C   0  0  0  0  0  0  0  0  0  0  0  0
  188.8070  179.1470  138.6130 O   0  0  0  0  0  0  0  0  0  0  0  0
  186.7320  178.3090  138.2340 N   0  0  0  0  0  0  0  0  0  0  0  0
  188.4310  175.0150  136.4500 F   0  0  0  0  0  0  0  0  0  0  0  0
  186.4820  176.2070  137.1250 C   0  0  0  0  0  2  0  0  0  0  0  0
  188.6830  177.1120  137.5480 C   0  0  0  0  0  3  0  0  0  0  0  0
  188.0880  178.2240  138.1510 C   0  0  0  0  0  0  0  0  0  0  0  0
  185.9170  177.3340  137.7380 C   0  0  0  0  0  0  0  0  0  0  0  0
  184.0940  179.2340  145.0610 O   0  0  0  0  0  0  0  0  0  0  0  0
  185.2090  178.6810  145.7460 C   0  0  0  0  0  2  0  0  0  0  0  0
  188.7670  177.8150  142.5370 C   0  0  0  0  0  0  0  0  0  0  0  0
  185.9540  177.7320  144.8290 C   0  0  2  0  0  3  0  0  0  0  0  0
  190.0730  178.9680  144.8450 O   0  0  0  0  0  1  0  0  0  0  0  0
  190.2140  177.5990  142.2340 C   0  0  0  0  0  2  0  0  0  0  0  0
  188.4580  177.4440  143.9330 C   0  0  2  0  0  3  0  0  0  0  0  0
  187.0200  176.9740  145.5900 C   0  0  1  0  0  3  0  0  0  0  0  0
  187.3960  178.1700  144.7190 C   0  0  2  0  0  3  0  0  0  0  0  0
  190.8000  177.1050  143.5700 C   0  0  1  0  0  3  0  0  0  0  0  0
  188.9870  177.6850  146.9410 O   0  0  0  0  0  0  0  0  0  0  0  0
  187.6090  177.3090  146.9690 C   0  0  0  0  0  2  0  0  0  0  0  0
  187.9360  178.1570  141.7100 O   0  0  0  0  0  0  0  0  0  0  0  0
  189.7500  176.8970  146.0300 C   0  0  1  0  0  3  0  0  0  0  0  0
  189.8050  177.6040  144.6390 C   0  0  1  0  0  0  0  0  0  0  0  0
  190.1240  174.8720  142.9780 O   0  0  0  0  0  0  0  0  0  0  0  0
  192.1430  175.0320  144.1070 N   0  0  0  0  0  1  0  0  0  0  0  0
  190.9760  175.6120  143.5360 C   0  0  0  0  0  0  0  0  0  0  0  0
  191.1140  176.6670  146.6020 C   0  0  0  0  0  0  0  0  0  0  0  0
  191.3350  175.5760  147.4310 O   0  0  0  0  0  1  0  0  0  0  0  0
  192.0580  177.4600  146.3460 O   0  0  0  0  0  0  0  0  0  0  0  0
  1  2  2  0  0  0  0
  2 23  1  0  0  0  0
  3  8  2  0  0  0  0
  3  7  1  0  0  0  0
  5  9  1  0  0  0  0
  5  4  2  0  0  0  0
  6  4  1  0  0  0  0
  6  2  1  0  0  0  0
  7  6  2  0  0  0  0
  8  5  1  0  0  0  0
  9 10  2  0  0  0  0
 11  3  1  0  0  0  0
 12 14  2  0  0  0  0
 13 11  1  0  0  0  0
 14 13  1  0  0  0  0
 15 19  1  0  0  0  0
 15 20  2  0  0  0  0
 18 15  1  0  0  0  0
 19 22  1  0  0  0  0
 20 21  1  0  0  0  0
 21 17  1  0  0  0  0
 21 16  2  0  0  0  0
 22 14  1  0  0  0  0
 22 17  2  0  0  0  0
 23 24  1  0  0  0  0
 26 30  1  0  0  0  0
 26 24  1  1  0  0  0
 28 25  1  0  0  0  0
 28 32  1  0  0  0  0
 29 25  1  6  0  0  0
 29 37  1  0  0  0  0
 29 31  1  0  0  0  0
 30 34  1  1  0  0  0
 31 26  1  0  0  0  0
 31 30  1  0  0  0  0
 32 37  1  0  0  0  0
 33 34  1  0  0  0  0
 35 25  2  0  0  0  0
 36 41  1  0  0  0  0
 36 33  1  0  0  0  0
 37 27  1  0  0  0  0
 37 36  1  0  0  0  0
 38 40  2  0  0  0  0
 40 32  1  0  0  0  0
 40 39  1  0  0  0  0
 41 42  1  0  0  0  0
 43 41  2  0  0  0  0
M  END
>  <MODEL>
3

>  <REMARK>
 VINA RESULT:      -8.8      2.633      8.599
  Name = 
  10 active torsions:
  status: ('A' for Active; 'I' for Inactive)
    1  A    between atoms: C_4  and  C_19
    2  A    between atoms: C_7  and  C_13
    3  A    between atoms: C_7  and  O_42
    4  A    between atoms: C_8  and  C_39
    5  A    between atoms: C_9  and  C_38
    6  A    between atoms: C_17  and  C_30
    7  A    between atoms: N_22  and  C_39
    8  A    between atoms: C_23  and  C_26
    9  A    between atoms: C_26  and  O_42
   10  A    between atoms: C_36  and  C_40
                            x       y       z     vdW  Elec       q    Type
                         _______ _______ _______ _____ _____    ______ ____

>  <TORSDO>
F 10

$$$$
=
 OpenBabel11062412193D

 43 47  0  0  1  0  0  0  0  0999 V2000
  182.1870  178.6450  144.3230 O   0  0  0  0  0  0  0  0  0  0  0  0
  183.1010  178.9850  143.5260 C   0  0  0  0  0  0  0  0  0  0  0  0
  183.7110  178.8280  139.8010 C   0  0  0  0  0  0  0  0  0  0  0  0
  181.7280  178.2400  141.6310 N   0  0  0  0  0  0  0  0  0  0  0  0
  181.4930  178.0110  140.3100 C   0  0  0  0  0  0  0  0  0  0  0  0
  182.9170  178.7300  142.0820 C   0  0  0  0  0  0  0  0  0  0  0  0
  183.9260  179.0410  141.1630 C   0  0  0  0  0  3  0  0  0  0  0  0
  182.4900  178.2970  139.3700 C   0  0  0  0  0  3  0  0  0  0  0  0
  180.1910  177.4710  139.8970 C   0  0  0  0  0  3  0  0  0  0  0  0
  179.7110  176.3900  140.4210 N   0  0  0  0  0  2  0  0  0  0  0  0
  184.7920  179.1570  138.8260 C   0  0  0  0  0  2  0  0  0  0  0  0
  187.2160  179.0690  137.3460 O   0  0  0  0  0  0  0  0  0  0  0  0
  185.4590  177.9380  138.3860 N   0  0  0  0  0  2  0  0  0  0  0  0
  186.7300  177.9690  137.7310 C   0  0  0  0  0  0  0  0  0  0  0  0
  187.6110  174.4710  136.6400 C   0  0  0  0  0  0  0  0  0  0  0  0
  190.6860  175.4200  138.1550 O   0  0  0  0  0  0  0  0  0  0  0  0
  188.7640  176.6100  137.9500 N   0  0  0  0  0  0  0  0  0  0  0  0
  187.0440  173.4220  135.9990 F   0  0  0  0  0  0  0  0  0  0  0  0
  186.8770  175.6410  136.8500 C   0  0  0  0  0  2  0  0  0  0  0  0
  188.9300  174.3870  137.0890 C   0  0  0  0  0  3  0  0  0  0  0  0
  189.4970  175.4800  137.7490 C   0  0  0  0  0  0  0  0  0  0  0  0
  187.4750  176.7180  137.5190 C   0  0  0  0  0  0  0  0  0  0  0  0
  184.2460  179.6020  144.0480 O   0  0  0  0  0  0  0  0  0  0  0  0
  185.1530  178.9410  144.9190 C   0  0  0  0  0  2  0  0  0  0  0  0
  188.9900  177.7760  142.1560 C   0  0  0  0  0  0  0  0  0  0  0  0
  185.9540  177.9160  144.1420 C   0  0  2  0  0  3  0  0  0  0  0  0
  190.0920  179.0290  144.5180 O   0  0  0  0  0  1  0  0  0  0  0  0
  190.4510  177.5000  142.0200 C   0  0  0  0  0  2  0  0  0  0  0  0
  188.5260  177.5010  143.5310 C   0  0  2  0  0  3  0  0  0  0  0  0
  186.9090  177.1750  145.0530 C   0  0  1  0  0  3  0  0  0  0  0  0
  187.4150  178.3040  144.1580 C   0  0  2  0  0  3  0  0  0  0  0  0
  190.8790  177.0710  143.4360 C   0  0  1  0  0  3  0  0  0  0  0  0
  188.7500  177.9100  146.5600 O   0  0  0  0  0  0  0  0  0  0  0  0
  187.3650  177.5770  146.4640 C   0  0  0  0  0  2  0  0  0  0  0  0
  188.2610  178.0900  141.2280 O   0  0  0  0  0  0  0  0  0  0  0  0
  189.5750  177.0450  145.7800 C   0  0  1  0  0  3  0  0  0  0  0  0
  189.7970  177.6640  144.3640 C   0  0  1  0  0  0  0  0  0  0  0  0
  190.1620  174.8260  142.9450 O   0  0  0  0  0  0  0  0  0  0  0  0
  192.1150  174.9970  144.1850 N   0  0  0  0  0  1  0  0  0  0  0  0
  191.0050  175.5750  143.5070 C   0  0  0  0  0  0  0  0  0  0  0  0
  190.8640  176.8110  146.5050 C   0  0  0  0  0  0  0  0  0  0  0  0
  191.9840  177.5580  146.1710 O   0  0  0  0  0  0  0  0  0  0  0  0
  190.9420  175.9350  147.4060 O   0  0  0  0  0  1  0  0  0  0  0  0
  2 23  1  0  0  0  0
  2  1  2  0  0  0  0
  3  7  1  0  0  0  0
  4  6  1  0  0  0  0
  5  4  2  0  0  0  0
  6  2  1  0  0  0  0
  7  6  2  0  0  0  0
  8  3  2  0  0  0  0
  8  5  1  0  0  0  0
  9  5  1  0  0  0  0
  9 10  2  0  0  0  0
 11  3  1  0  0  0  0
 12 14  2  0  0  0  0
 13 11  1  0  0  0  0
 14 13  1  0  0  0  0
 15 19  1  0  0  0  0
 15 20  2  0  0  0  0
 18 15  1  0  0  0  0
 19 22  1  0  0  0  0
 20 21  1  0  0  0  0
 21 17  1  0  0  0  0
 21 16  2  0  0  0  0
 22 14  1  0  0  0  0
 22 17  2  0  0  0  0
 23 24  1  0  0  0  0
 26 31  1  0  0  0  0
 26 24  1  1  0  0  0
 26 30  1  0  0  0  0
 28 25  1  0  0  0  0
 28 32  1  0  0  0  0
 29 25  1  6  0  0  0
 29 31  1  0  0  0  0
 29 37  1  0  0  0  0
 30 34  1  1  0  0  0
 31 30  1  0  0  0  0
 32 40  1  0  0  0  0
 32 37  1  0  0  0  0
 34 33  1  0  0  0  0
 35 25  2  0  0  0  0
 36 41  1  0  0  0  0
 36 33  1  0  0  0  0
 37 27  1  0  0  0  0
 37 36  1  0  0  0  0
 38 40  2  0  0  0  0
 40 39  1  0  0  0  0
 41 43  1  0  0  0  0
 42 41  2  0  0  0  0
M  END
>  <MODEL>
4

>  <REMARK>
 VINA RESULT:      -8.6      2.647      8.839
  Name = 
  10 active torsions:
  status: ('A' for Active; 'I' for Inactive)
    1  A    between atoms: C_4  and  C_19
    2  A    between atoms: C_7  and  C_13
    3  A    between atoms: C_7  and  O_42
    4  A    between atoms: C_8  and  C_39
    5  A    between atoms: C_9  and  C_38
    6  A    between atoms: C_17  and  C_30
    7  A    between atoms: N_22  and  C_39
    8  A    between atoms: C_23  and  C_26
    9  A    between atoms: C_26  and  O_42
   10  A    between atoms: C_36  and  C_40
                            x       y       z     vdW  Elec       q    Type
                         _______ _______ _______ _____ _____    ______ ____

>  <TORSDO>
F 10

$$$$
=
 OpenBabel11062412193D

 43 47  0  0  1  0  0  0  0  0999 V2000
  187.7570  179.4700  137.0610 O   0  0  0  0  0  0  0  0  0  0  0  0
  188.0590  178.2590  136.8910 C   0  0  0  0  0  0  0  0  0  0  0  0
  189.8660  177.1410  140.0140 C   0  0  0  0  0  0  0  0  0  0  0  0
  190.1630  177.0500  137.2700 N   0  0  0  0  0  0  0  0  0  0  0  0
  191.1210  176.4860  138.0540 C   0  0  0  0  0  0  0  0  0  0  0  0
  189.0500  177.6390  137.7940 C   0  0  0  0  0  0  0  0  0  0  0  0
  188.8940  177.6990  139.1840 C   0  0  0  0  0  3  0  0  0  0  0  0
  190.9830  176.5180  139.4470 C   0  0  0  0  0  3  0  0  0  0  0  0
  192.2890  175.8590  137.4200 C   0  0  0  0  0  3  0  0  0  0  0  0
  193.4730  176.3660  137.5350 N   0  0  0  0  0  2  0  0  0  0  0  0
  189.6920  177.2050  141.4950 C   0  0  0  0  0  2  0  0  0  0  0  0
  188.3450  176.5210  143.9020 O   0  0  0  0  0  0  0  0  0  0  0  0
  188.3230  177.5830  141.8230 N   0  0  0  0  0  2  0  0  0  0  0  0
  187.7450  177.2870  143.0980 C   0  0  0  0  0  0  0  0  0  0  0  0
  184.2740  178.7390  142.8780 C   0  0  0  0  0  0  0  0  0  0  0  0
  184.7610  178.8780  146.3990 O   0  0  0  0  0  0  0  0  0  0  0  0
  186.1770  178.1380  144.7860 N   0  0  0  0  0  0  0  0  0  0  0  0
  183.3430  179.0350  141.9420 F   0  0  0  0  0  0  0  0  0  0  0  0
  185.4990  178.1880  142.4950 C   0  0  0  0  0  2  0  0  0  0  0  0
  184.0110  178.9800  144.2270 C   0  0  0  0  0  3  0  0  0  0  0  0
  184.9860  178.6690  145.1790 C   0  0  0  0  0  0  0  0  0  0  0  0
  186.4570  177.8900  143.4740 C   0  0  0  0  0  0  0  0  0  0  0  0
  187.4270  177.5530  135.8590 O   0  0  0  0  0  0  0  0  0  0  0  0
  186.3750  176.6260  136.0850 C   0  0  0  0  0  2  0  0  0  0  0  0
  183.3810  179.4000  138.7410 C   0  0  0  0  0  0  0  0  0  0  0  0
  185.6890  176.9400  137.3990 C   0  0  2  0  0  3  0  0  0  0  0  0
  181.8410  178.5980  136.4290 O   0  0  0  0  0  1  0  0  0  0  0  0
  181.9990  179.8350  139.1030 C   0  0  0  0  0  2  0  0  0  0  0  0
  183.3760  178.0320  138.1850 C   0  0  2  0  0  3  0  0  0  0  0  0
  184.4090  176.1460  137.5440 C   0  0  1  0  0  3  0  0  0  0  0  0
  184.3640  177.6130  137.1260 C   0  0  2  0  0  3  0  0  0  0  0  0
  181.1160  178.6430  138.6860 C   0  0  1  0  0  3  0  0  0  0  0  0
  182.3420  175.9700  136.1670 O   0  0  0  0  0  0  0  0  0  0  0  0
  183.6280  175.4130  136.4420 C   0  0  0  0  0  2  0  0  0  0  0  0
  184.3870  180.0530  138.9690 O   0  0  0  0  0  0  0  0  0  0  0  0
  181.6600  176.3810  137.3510 C   0  0  1  0  0  3  0  0  0  0  0  0
  181.9570  177.8870  137.6360 C   0  0  1  0  0  0  0  0  0  0  0  0
  181.6000  177.0850  140.4570 O   0  0  0  0  0  0  0  0  0  0  0  0
  179.4350  177.9170  140.4290 N   0  0  0  0  0  1  0  0  0  0  0  0
  180.7500  177.8240  139.8930 C   0  0  0  0  0  0  0  0  0  0  0  0
  180.1960  176.1120  137.1920 C   0  0  0  0  0  0  0  0  0  0  0  0
  179.5660  175.2160  138.0450 O   0  0  0  0  0  1  0  0  0  0  0  0
  179.5350  176.6830  136.2860 O   0  0  0  0  0  0  0  0  0  0  0  0
  2  1  2  0  0  0  0
  2  6  1  0  0  0  0
  3 11  1  0  0  0  0
  4  6  2  0  0  0  0
  4  5  1  0  0  0  0
  5  8  2  0  0  0  0
  6  7  1  0  0  0  0
  7  3  2  0  0  0  0
  8  3  1  0  0  0  0
  9 10  2  0  0  0  0
  9  5  1  0  0  0  0
 11 13  1  0  0  0  0
 13 14  1  0  0  0  0
 14 22  1  0  0  0  0
 14 12  2  0  0  0  0
 15 20  2  0  0  0  0
 17 21  1  0  0  0  0
 18 15  1  0  0  0  0
 19 15  1  0  0  0  0
 19 22  1  0  0  0  0
 20 21  1  0  0  0  0
 21 16  2  0  0  0  0
 22 17  2  0  0  0  0
 23 24  1  0  0  0  0
 23  2  1  0  0  0  0
 25 35  2  0  0  0  0
 25 28  1  0  0  0  0
 26 24  1  6  0  0  0
 26 30  1  0  0  0  0
 27 37  1  0  0  0  0
 29 25  1  6  0  0  0
 30 34  1  6  0  0  0
 31 26  1  0  0  0  0
 31 30  1  0  0  0  0
 31 29  1  0  0  0  0
 32 28  1  0  0  0  0
 32 40  1  0  0  0  0
 33 34  1  0  0  0  0
 33 36  1  0  0  0  0
 36 37  1  0  0  0  0
 37 29  1  0  0  0  0
 37 32  1  0  0  0  0
 40 39  1  0  0  0  0
 40 38  2  0  0  0  0
 41 36  1  0  0  0  0
 41 42  1  0  0  0  0
 43 41  2  0  0  0  0
M  END
>  <MODEL>
5

>  <REMARK>
 VINA RESULT:      -8.4      3.448      6.836
  Name = 
  10 active torsions:
  status: ('A' for Active; 'I' for Inactive)
    1  A    between atoms: C_4  and  C_19
    2  A    between atoms: C_7  and  C_13
    3  A    between atoms: C_7  and  O_42
    4  A    between atoms: C_8  and  C_39
    5  A    between atoms: C_9  and  C_38
    6  A    between atoms: C_17  and  C_30
    7  A    between atoms: N_22  and  C_39
    8  A    between atoms: C_23  and  C_26
    9  A    between atoms: C_26  and  O_42
   10  A    between atoms: C_36  and  C_40
                            x       y       z     vdW  Elec       q    Type
                         _______ _______ _______ _____ _____    ______ ____

>  <TORSDO>
F 10

$$$$
=
 OpenBabel11062412193D

 43 47  0  0  1  0  0  0  0  0999 V2000
  186.3150  178.4910  140.8610 O   0  0  0  0  0  0  0  0  0  0  0  0
  185.1610  178.9870  140.9540 C   0  0  0  0  0  0  0  0  0  0  0  0
  184.5550  178.8040  144.6780 C   0  0  0  0  0  0  0  0  0  0  0  0
  183.1250  179.0320  142.3280 N   0  0  0  0  0  0  0  0  0  0  0  0
  182.4490  179.0000  143.5080 C   0  0  0  0  0  0  0  0  0  0  0  0
  184.4860  178.9770  142.2690 C   0  0  0  0  0  0  0  0  0  0  0  0
  185.2210  178.8510  143.4540 C   0  0  0  0  0  3  0  0  0  0  0  0
  183.1590  178.8910  144.7090 C   0  0  0  0  0  3  0  0  0  0  0  0
  180.9820  179.0740  143.4960 C   0  0  0  0  0  3  0  0  0  0  0  0
  180.2660  178.4120  144.3450 N   0  0  0  0  0  2  0  0  0  0  0  0
  185.3440  178.6740  145.9390 C   0  0  0  0  0  2  0  0  0  0  0  0
  187.2870  177.7630  147.8020 O   0  0  0  0  0  0  0  0  0  0  0  0
  186.7460  178.4230  145.6290 N   0  0  0  0  0  2  0  0  0  0  0  0
  187.6430  177.8690  146.5960 C   0  0  0  0  0  0  0  0  0  0  0  0
  190.5650  176.8510  144.4430 C   0  0  0  0  0  0  0  0  0  0  0  0
  192.0490  176.5290  147.6590 O   0  0  0  0  0  0  0  0  0  0  0  0
  189.9350  177.1520  147.1130 N   0  0  0  0  0  0  0  0  0  0  0  0
  190.8710  176.7020  143.1330 F   0  0  0  0  0  0  0  0  0  0  0  0
  189.2840  177.2650  144.8170 C   0  0  0  0  0  2  0  0  0  0  0  0
  191.5260  176.5940  145.4200 C   0  0  0  0  0  3  0  0  0  0  0  0
  191.1900  176.7530  146.7670 C   0  0  0  0  0  0  0  0  0  0  0  0
  188.9780  177.4110  146.1770 C   0  0  0  0  0  0  0  0  0  0  0  0
  184.5780  179.5390  139.8060 O   0  0  0  0  0  0  0  0  0  0  0  0
  184.1010  178.7510  138.7240 C   0  0  0  0  0  2  0  0  0  0  0  0
  179.7710  176.6650  137.9500 C   0  0  0  0  0  0  0  0  0  0  0  0
  182.9600  177.8720  139.1940 C   0  0  2  0  0  3  0  0  0  0  0  0
  181.4210  175.8710  135.7120 O   0  0  0  0  0  1  0  0  0  0  0  0
  178.9380  175.6170  137.2870 C   0  0  0  0  0  2  0  0  0  0  0  0
  181.1750  176.2240  138.0730 C   0  0  2  0  0  3  0  0  0  0  0  0
  183.2490  176.4140  138.9080 C   0  0  1  0  0  3  0  0  0  0  0  0
  182.3140  177.2090  138.0000 C   0  0  2  0  0  3  0  0  0  0  0  0
  179.9450  174.4970  136.9610 C   0  0  1  0  0  3  0  0  0  0  0  0
  183.7590  175.1500  136.8240 O   0  0  0  0  0  0  0  0  0  0  0  0
  184.3040  175.8350  137.9530 C   0  0  0  0  0  2  0  0  0  0  0  0
  179.3260  177.7020  138.4150 O   0  0  0  0  0  0  0  0  0  0  0  0
  182.6170  174.3650  137.1620 C   0  0  1  0  0  3  0  0  0  0  0  0
  181.3180  175.2030  136.9440 C   0  0  1  0  0  0  0  0  0  0  0  0
  179.7540  172.1860  137.6070 O   0  0  0  0  0  0  0  0  0  0  0  0
  179.8470  173.7040  139.3580 N   0  0  0  0  0  1  0  0  0  0  0  0
  179.8300  173.3890  137.9700 C   0  0  0  0  0  0  0  0  0  0  0  0
  182.6250  173.1100  136.3450 C   0  0  0  0  0  0  0  0  0  0  0  0
  182.9400  171.9010  136.9470 O   0  0  0  0  0  1  0  0  0  0  0  0
  182.3580  173.1450  135.1150 O   0  0  0  0  0  0  0  0  0  0  0  0
  1  2  2  0  0  0  0
  2  6  1  0  0  0  0
  3  8  1  0  0  0  0
  3 11  1  0  0  0  0
  4  5  1  0  0  0  0
  5  8  2  0  0  0  0
  6  4  2  0  0  0  0
  6  7  1  0  0  0  0
  7  3  2  0  0  0  0
  9  5  1  0  0  0  0
  9 10  2  0  0  0  0
 13 11  1  0  0  0  0
 13 14  1  0  0  0  0
 14 12  2  0  0  0  0
 15 19  1  0  0  0  0
 15 20  2  0  0  0  0
 18 15  1  0  0  0  0
 19 22  1  0  0  0  0
 20 21  1  0  0  0  0
 21 17  1  0  0  0  0
 21 16  2  0  0  0  0
 22 14  1  0  0  0  0
 22 17  2  0  0  0  0
 23  2  1  0  0  0  0
 24 23  1  0  0  0  0
 25 35  2  0  0  0  0
 26 24  1  6  0  0  0
 27 37  1  0  0  0  0
 28 25  1  0  0  0  0
 29 25  1  6  0  0  0
 30 34  1  6  0  0  0
 30 26  1  0  0  0  0
 31 29  1  0  0  0  0
 31 30  1  0  0  0  0
 31 26  1  0  0  0  0
 32 28  1  0  0  0  0
 32 40  1  0  0  0  0
 33 36  1  0  0  0  0
 33 34  1  0  0  0  0
 37 32  1  0  0  0  0
 37 36  1  0  0  0  0
 37 29  1  0  0  0  0
 38 40  2  0  0  0  0
 40 39  1  0  0  0  0
 41 42  1  0  0  0  0
 41 36  1  0  0  0  0
 43 41  2  0  0  0  0
M  END
>  <MODEL>
6

>  <REMARK>
 VINA RESULT:      -8.3      4.122      7.666
  Name = 
  10 active torsions:
  status: ('A' for Active; 'I' for Inactive)
    1  A    between atoms: C_4  and  C_19
    2  A    between atoms: C_7  and  C_13
    3  A    between atoms: C_7  and  O_42
    4  A    between atoms: C_8  and  C_39
    5  A    between atoms: C_9  and  C_38
    6  A    between atoms: C_17  and  C_30
    7  A    between atoms: N_22  and  C_39
    8  A    between atoms: C_23  and  C_26
    9  A    between atoms: C_26  and  O_42
   10  A    between atoms: C_36  and  C_40
                            x       y       z     vdW  Elec       q    Type
                         _______ _______ _______ _____ _____    ______ ____

>  <TORSDO>
F 10

$$$$
=
 OpenBabel11062412193D

 43 47  0  0  1  0  0  0  0  0999 V2000
  184.8300  177.9540  145.1210 O   0  0  0  0  0  0  0  0  0  0  0  0
  185.8040  178.2250  144.3700 C   0  0  0  0  0  0  0  0  0  0  0  0
  189.3210  176.8510  144.2880 C   0  0  0  0  0  0  0  0  0  0  0  0
  187.5200  177.9030  146.0970 N   0  0  0  0  0  0  0  0  0  0  0  0
  188.7460  177.5130  146.5410 C   0  0  0  0  0  0  0  0  0  0  0  0
  187.1600  177.8110  144.7850 C   0  0  0  0  0  0  0  0  0  0  0  0
  188.0620  177.2710  143.8610 C   0  0  0  0  0  3  0  0  0  0  0  0
  189.6730  176.9830  145.6360 C   0  0  0  0  0  3  0  0  0  0  0  0
  189.0680  177.6500  147.9680 C   0  0  0  0  0  3  0  0  0  0  0  0
  188.1510  177.8890  148.8470 N   0  0  0  0  0  2  0  0  0  0  0  0
  190.2800  176.2790  143.2980 C   0  0  0  0  0  2  0  0  0  0  0  0
  191.9460  177.5830  141.3990 O   0  0  0  0  0  0  0  0  0  0  0  0
  189.8800  176.6430  141.9440 N   0  0  0  0  0  2  0  0  0  0  0  0
  190.8050  177.2080  141.0110 C   0  0  0  0  0  0  0  0  0  0  0  0
  190.6960  176.7080  137.2770 C   0  0  0  0  0  0  0  0  0  0  0  0
  188.0720  179.0800  137.6410 O   0  0  0  0  0  0  0  0  0  0  0  0
  189.4140  178.1740  139.2320 N   0  0  0  0  0  0  0  0  0  0  0  0
  191.3280  175.9900  136.3190 F   0  0  0  0  0  0  0  0  0  0  0  0
  191.0870  176.5850  138.6130 C   0  0  0  0  0  3  0  0  0  0  0  0
  189.6540  177.5690  136.9330 C   0  0  0  0  0  2  0  0  0  0  0  0
  189.0160  178.3030  137.9370 C   0  0  0  0  0  0  0  0  0  0  0  0
  190.4280  177.3380  139.5940 C   0  0  0  0  0  0  0  0  0  0  0  0
  185.5510  178.8970  143.1670 O   0  0  0  0  0  0  0  0  0  0  0  0
  184.2650  179.3830  142.8060 C   0  0  0  0  0  2  0  0  0  0  0  0
  179.9690  177.6770  141.2780 C   0  0  0  0  0  0  0  0  0  0  0  0
  183.3940  178.2330  142.3430 C   0  0  2  0  0  3  0  0  0  0  0  0
  180.6160  179.8530  139.4870 O   0  0  0  0  0  1  0  0  0  0  0  0
  178.9410  177.5320  140.2040 C   0  0  0  0  0  2  0  0  0  0  0  0
  181.3090  177.9010  140.6990 C   0  0  2  0  0  3  0  0  0  0  0  0
  183.5450  178.0080  140.8540 C   0  0  1  0  0  3  0  0  0  0  0  0
  182.3330  178.7560  141.4030 C   0  0  2  0  0  3  0  0  0  0  0  0
  179.7380  177.7290  138.9010 C   0  0  1  0  0  3  0  0  0  0  0  0
  183.2000  179.4630  138.8620 O   0  0  0  0  0  0  0  0  0  0  0  0
  184.1440  178.9680  139.8140 C   0  0  0  0  0  2  0  0  0  0  0  0
  179.7430  177.5290  142.4690 O   0  0  0  0  0  0  0  0  0  0  0  0
  182.2770  178.4610  138.4380 C   0  0  1  0  0  3  0  0  0  0  0  0
  180.9980  178.5100  139.3320 C   0  0  1  0  0  0  0  0  0  0  0  0
  180.6710  175.5110  138.8760 O   0  0  0  0  0  0  0  0  0  0  0  0
  179.5140  176.1250  136.9610 N   0  0  0  0  0  1  0  0  0  0  0  0
  180.0220  176.3990  138.2620 C   0  0  0  0  0  0  0  0  0  0  0  0
  181.9630  178.6660  136.9880 C   0  0  0  0  0  0  0  0  0  0  0  0
  181.1810  179.7450  136.6010 O   0  0  0  0  0  1  0  0  0  0  0  0
  182.3920  177.8620  136.1200 O   0  0  0  0  0  0  0  0  0  0  0  0
  2  6  1  0  0  0  0
  2  1  2  0  0  0  0
  3  8  1  0  0  0  0
  4  5  1  0  0  0  0
  5  9  1  0  0  0  0
  6  4  2  0  0  0  0
  7  3  2  0  0  0  0
  7  6  1  0  0  0  0
  8  5  2  0  0  0  0
  9 10  2  0  0  0  0
 11  3  1  0  0  0  0
 13 11  1  0  0  0  0
 14 12  2  0  0  0  0
 14 13  1  0  0  0  0
 15 19  2  0  0  0  0
 16 21  2  0  0  0  0
 17 22  2  0  0  0  0
 18 15  1  0  0  0  0
 19 22  1  0  0  0  0
 20 15  1  0  0  0  0
 20 21  1  0  0  0  0
 21 17  1  0  0  0  0
 22 14  1  0  0  0  0
 23  2  1  0  0  0  0
 24 23  1  0  0  0  0
 25 35  2  0  0  0  0
 26 24  1  6  0  0  0
 28 25  1  0  0  0  0
 29 25  1  1  0  0  0
 29 31  1  0  0  0  0
 30 34  1  6  0  0  0
 30 31  1  0  0  0  0
 30 26  1  0  0  0  0
 31 26  1  0  0  0  0
 32 37  1  0  0  0  0
 32 28  1  0  0  0  0
 33 34  1  0  0  0  0
 36 33  1  0  0  0  0
 36 37  1  0  0  0  0
 37 27  1  0  0  0  0
 37 29  1  0  0  0  0
 39 40  1  0  0  0  0
 40 38  2  0  0  0  0
 40 32  1  0  0  0  0
 41 36  1  0  0  0  0
 42 41  1  0  0  0  0
 43 41  2  0  0  0  0
M  END
>  <MODEL>
7

>  <REMARK>
 VINA RESULT:      -8.2      3.414      7.160
  Name = 
  10 active torsions:
  status: ('A' for Active; 'I' for Inactive)
    1  A    between atoms: C_4  and  C_19
    2  A    between atoms: C_7  and  C_13
    3  A    between atoms: C_7  and  O_42
    4  A    between atoms: C_8  and  C_39
    5  A    between atoms: C_9  and  C_38
    6  A    between atoms: C_17  and  C_30
    7  A    between atoms: N_22  and  C_39
    8  A    between atoms: C_23  and  C_26
    9  A    between atoms: C_26  and  O_42
   10  A    between atoms: C_36  and  C_40
                            x       y       z     vdW  Elec       q    Type
                         _______ _______ _______ _____ _____    ______ ____

>  <TORSDO>
F 10

$$$$
=
 OpenBabel11062412193D

 43 47  0  0  1  0  0  0  0  0999 V2000
  180.7270  178.9790  142.5620 O   0  0  0  0  0  0  0  0  0  0  0  0
  181.8040  178.8410  141.9220 C   0  0  0  0  0  0  0  0  0  0  0  0
  182.3060  177.8290  138.3170 C   0  0  0  0  0  0  0  0  0  0  0  0
  181.2010  179.8910  139.7840 N   0  0  0  0  0  0  0  0  0  0  0  0
  181.1540  179.9510  138.4250 C   0  0  0  0  0  0  0  0  0  0  0  0
  181.7570  178.8350  140.4450 C   0  0  0  0  0  0  0  0  0  0  0  0
  182.3290  177.7890  139.7110 C   0  0  0  0  0  3  0  0  0  0  0  0
  181.7040  178.9110  137.6670 C   0  0  0  0  0  3  0  0  0  0  0  0
  180.5300  181.1150  137.7810 C   0  0  0  0  0  3  0  0  0  0  0  0
  179.8350  180.9940  136.6970 N   0  0  0  0  0  2  0  0  0  0  0  0
  182.9140  176.7080  137.5400 C   0  0  0  0  0  2  0  0  0  0  0  0
  184.8940  177.2920  135.5870 O   0  0  0  0  0  0  0  0  0  0  0  0
  184.3520  176.6620  137.7690 N   0  0  0  0  0  2  0  0  0  0  0  0
  185.2880  177.0660  136.7650 C   0  0  0  0  0  0  0  0  0  0  0  0
  188.8720  176.2890  137.6340 C   0  0  0  0  0  0  0  0  0  0  0  0
  189.0300  179.8420  137.5570 O   0  0  0  0  0  0  0  0  0  0  0  0
  187.2490  178.4800  137.2000 N   0  0  0  0  0  0  0  0  0  0  0  0
  189.6660  175.2150  137.8490 F   0  0  0  0  0  0  0  0  0  0  0  0
  187.5210  176.1090  137.3280 C   0  0  0  0  0  2  0  0  0  0  0  0
  189.4010  177.5780  137.7150 C   0  0  0  0  0  3  0  0  0  0  0  0
  188.5650  178.6750  137.4910 C   0  0  0  0  0  0  0  0  0  0  0  0
  186.7080  177.2310  137.1120 C   0  0  0  0  0  0  0  0  0  0  0  0
  182.9970  178.7140  142.6440 O   0  0  0  0  0  0  0  0  0  0  0  0
  184.2660  178.5620  142.0220 C   0  0  0  0  0  2  0  0  0  0  0  0
  187.6350  177.4660  145.3620 C   0  0  0  0  0  0  0  0  0  0  0  0
  185.3590  178.9900  142.9790 C   0  0  2  0  0  3  0  0  0  0  0  0
  188.2420  175.8000  143.0780 O   0  0  0  0  0  1  0  0  0  0  0  0
  188.9720  176.9030  145.7160 C   0  0  0  0  0  2  0  0  0  0  0  0
  187.6160  177.9410  143.9640 C   0  0  2  0  0  3  0  0  0  0  0  0
  186.6920  179.0850  142.2680 C   0  0  1  0  0  3  0  0  0  0  0  0
  186.3610  177.8690  143.1300 C   0  0  2  0  0  3  0  0  0  0  0  0
  189.7800  177.0200  144.4090 C   0  0  1  0  0  3  0  0  0  0  0  0
  188.0560  177.4560  140.9700 O   0  0  0  0  0  0  0  0  0  0  0  0
  187.0740  178.4910  140.9040 C   0  0  0  0  0  2  0  0  0  0  0  0
  186.7170  177.6060  146.1550 O   0  0  0  0  0  0  0  0  0  0  0  0
  189.0820  177.7370  141.9210 C   0  0  1  0  0  3  0  0  0  0  0  0
  188.7110  177.1060  143.3000 C   0  0  1  0  0  0  0  0  0  0  0  0
  190.2790  179.3690  144.2440 O   0  0  0  0  0  0  0  0  0  0  0  0
  192.0620  178.0140  144.8470 N   0  0  0  0  0  1  0  0  0  0  0  0
  190.7010  178.2060  144.4760 C   0  0  0  0  0  0  0  0  0  0  0  0
  190.3890  177.2270  141.3980 C   0  0  0  0  0  0  0  0  0  0  0  0
  190.4480  175.9740  140.8050 O   0  0  0  0  0  0  0  0  0  0  0  0
  191.4350  177.9200  141.5020 O   0  0  0  0  0  1  0  0  0  0  0  0
  2  1  2  0  0  0  0
  2 23  1  0  0  0  0
  3  7  1  0  0  0  0
  4  6  1  0  0  0  0
  5  4  2  0  0  0  0
  6  2  1  0  0  0  0
  7  6  2  0  0  0  0
  8  3  2  0  0  0  0
  8  5  1  0  0  0  0
  9  5  1  0  0  0  0
 10  9  2  0  0  0  0
 11 13  1  0  0  0  0
 11  3  1  0  0  0  0
 12 14  2  0  0  0  0
 14 22  1  0  0  0  0
 14 13  1  0  0  0  0
 15 20  2  0  0  0  0
 15 18  1  0  0  0  0
 17 21  1  0  0  0  0
 19 15  1  0  0  0  0
 21 16  2  0  0  0  0
 21 20  1  0  0  0  0
 22 17  2  0  0  0  0
 22 19  1  0  0  0  0
 24 23  1  0  0  0  0
 25 28  1  0  0  0  0
 25 35  2  0  0  0  0
 26 24  1  6  0  0  0
 26 31  1  0  0  0  0
 27 37  1  0  0  0  0
 29 25  1  1  0  0  0
 30 34  1  6  0  0  0
 30 26  1  0  0  0  0
 30 31  1  0  0  0  0
 31 29  1  0  0  0  0
 32 40  1  0  0  0  0
 32 28  1  0  0  0  0
 33 36  1  0  0  0  0
 34 33  1  0  0  0  0
 36 37  1  0  0  0  0
 37 29  1  0  0  0  0
 37 32  1  0  0  0  0
 38 40  2  0  0  0  0
 40 39  1  0  0  0  0
 41 43  1  0  0  0  0
 41 36  1  0  0  0  0
 42 41  2  0  0  0  0
M  END
>  <MODEL>
8

>  <REMARK>
 VINA RESULT:      -8.2      2.992      8.984
  Name = 
  10 active torsions:
  status: ('A' for Active; 'I' for Inactive)
    1  A    between atoms: C_4  and  C_19
    2  A    between atoms: C_7  and  C_13
    3  A    between atoms: C_7  and  O_42
    4  A    between atoms: C_8  and  C_39
    5  A    between atoms: C_9  and  C_38
    6  A    between atoms: C_17  and  C_30
    7  A    between atoms: N_22  and  C_39
    8  A    between atoms: C_23  and  C_26
    9  A    between atoms: C_26  and  O_42
   10  A    between atoms: C_36  and  C_40
                            x       y       z     vdW  Elec       q    Type
                         _______ _______ _______ _____ _____    ______ ____

>  <TORSDO>
F 10

$$$$
=
 OpenBabel11062412193D

 43 47  0  0  1  0  0  0  0  0999 V2000
  187.0890  178.0410  146.4650 O   0  0  0  0  0  0  0  0  0  0  0  0
  186.9340  177.7200  145.2570 C   0  0  0  0  0  0  0  0  0  0  0  0
  189.2160  177.3860  142.2650 C   0  0  0  0  0  0  0  0  0  0  0  0
  189.2880  177.0630  145.0060 N   0  0  0  0  0  0  0  0  0  0  0  0
  190.4130  176.8120  144.2850 C   0  0  0  0  0  0  0  0  0  0  0  0
  188.1310  177.4900  144.4220 C   0  0  0  0  0  0  0  0  0  0  0  0
  188.0810  177.6480  143.0320 C   0  0  0  0  0  3  0  0  0  0  0  0
  190.3960  176.9760  142.8950 C   0  0  0  0  0  3  0  0  0  0  0  0
  191.6260  176.3640  144.9820 C   0  0  0  0  0  3  0  0  0  0  0  0
  191.8610  176.6960  146.2100 N   0  0  0  0  0  2  0  0  0  0  0  0
  189.1570  177.5600  140.7840 C   0  0  0  0  0  2  0  0  0  0  0  0
  189.8180  177.5600  138.0200 O   0  0  0  0  0  0  0  0  0  0  0  0
  190.0140  176.5790  140.1290 N   0  0  0  0  0  2  0  0  0  0  0  0
  190.3830  176.7010  138.7530 C   0  0  0  0  0  0  0  0  0  0  0  0
  192.1060  173.9370  136.8560 C   0  0  0  0  0  0  0  0  0  0  0  0
  194.9480  175.6300  138.1630 O   0  0  0  0  0  0  0  0  0  0  0  0
  192.7460  176.1060  138.4400 N   0  0  0  0  0  0  0  0  0  0  0  0
  191.7910  172.8730  136.0820 F   0  0  0  0  0  0  0  0  0  0  0  0
  191.0920  174.7350  137.3920 C   0  0  0  0  0  3  0  0  0  0  0  0
  193.4420  174.2400  137.1190 C   0  0  0  0  0  2  0  0  0  0  0  0
  193.7470  175.3430  137.9220 C   0  0  0  0  0  0  0  0  0  0  0  0
  191.4320  175.8320  138.1970 C   0  0  0  0  0  0  0  0  0  0  0  0
  185.6290  177.5820  144.7650 O   0  0  0  0  0  0  0  0  0  0  0  0
  184.6650  178.6240  144.8250 C   0  0  0  0  0  2  0  0  0  0  0  0
  184.9020  178.7620  139.9630 C   0  0  0  0  0  0  0  0  0  0  0  0
  184.6770  179.4080  143.5290 C   0  0  2  0  0  3  0  0  0  0  0  0
  182.7240  176.9620  140.5780 O   0  0  0  0  0  1  0  0  0  0  0  0
  184.2630  178.5560  138.6290 C   0  0  0  0  0  2  0  0  0  0  0  0
  183.8850  179.0200  141.0020 C   0  0  2  0  0  3  0  0  0  0  0  0
  183.2680  179.6880  143.0540 C   0  0  1  0  0  3  0  0  0  0  0  0
  184.0850  178.5620  142.4250 C   0  0  2  0  0  3  0  0  0  0  0  0
  182.7540  178.6600  138.9230 C   0  0  1  0  0  3  0  0  0  0  0  0
  181.3300  178.2270  142.4970 O   0  0  0  0  0  0  0  0  0  0  0  0
  181.9690  179.0050  143.5100 C   0  0  0  0  0  2  0  0  0  0  0  0
  186.1090  178.8090  140.1470 O   0  0  0  0  0  0  0  0  0  0  0  0
  181.3770  178.8530  141.2160 C   0  0  1  0  0  3  0  0  0  0  0  0
  182.6320  178.3570  140.4310 C   0  0  1  0  0  0  0  0  0  0  0  0
  182.6480  181.0580  139.0940 O   0  0  0  0  0  0  0  0  0  0  0  0
  181.3160  180.1190  137.4440 N   0  0  0  0  0  1  0  0  0  0  0  0
  182.2420  180.0140  138.5190 C   0  0  0  0  0  0  0  0  0  0  0  0
  180.1020  178.5690  140.4840 C   0  0  0  0  0  0  0  0  0  0  0  0
  179.2470  179.6140  140.1640 O   0  0  0  0  0  0  0  0  0  0  0  0
  179.7950  177.3900  140.1670 O   0  0  0  0  0  1  0  0  0  0  0  0
  2  1  2  0  0  0  0
  3  8  2  0  0  0  0
  3  7  1  0  0  0  0
  5  9  1  0  0  0  0
  5  4  2  0  0  0  0
  6  4  1  0  0  0  0
  6  2  1  0  0  0  0
  7  6  2  0  0  0  0
  8  5  1  0  0  0  0
  9 10  2  0  0  0  0
 11  3  1  0  0  0  0
 12 14  2  0  0  0  0
 13 11  1  0  0  0  0
 14 13  1  0  0  0  0
 15 20  1  0  0  0  0
 15 19  2  0  0  0  0
 18 15  1  0  0  0  0
 19 22  1  0  0  0  0
 20 21  1  0  0  0  0
 21 16  2  0  0  0  0
 21 17  1  0  0  0  0
 22 17  2  0  0  0  0
 22 14  1  0  0  0  0
 23 24  1  0  0  0  0
 23  2  1  0  0  0  0
 25 35  2  0  0  0  0
 26 24  1  1  0  0  0
 28 32  1  0  0  0  0
 28 25  1  0  0  0  0
 29 25  1  6  0  0  0
 29 31  1  0  0  0  0
 30 34  1  1  0  0  0
 30 26  1  0  0  0  0
 31 30  1  0  0  0  0
 31 26  1  0  0  0  0
 32 37  1  0  0  0  0
 33 34  1  0  0  0  0
 36 33  1  0  0  0  0
 37 27  1  0  0  0  0
 37 29  1  0  0  0  0
 37 36  1  0  0  0  0
 39 40  1  0  0  0  0
 40 32  1  0  0  0  0
 40 38  2  0  0  0  0
 41 36  1  0  0  0  0
 42 41  2  0  0  0  0
 43 41  1  0  0  0  0
M  END
>  <MODEL>
9

>  <REMARK>
 VINA RESULT:      -8.2      3.234      8.154
  Name = 
  10 active torsions:
  status: ('A' for Active; 'I' for Inactive)
    1  A    between atoms: C_4  and  C_19
    2  A    between atoms: C_7  and  C_13
    3  A    between atoms: C_7  and  O_42
    4  A    between atoms: C_8  and  C_39
    5  A    between atoms: C_9  and  C_38
    6  A    between atoms: C_17  and  C_30
    7  A    between atoms: N_22  and  C_39
    8  A    between atoms: C_23  and  C_26
    9  A    between atoms: C_26  and  O_42
   10  A    between atoms: C_36  and  C_40
                            x       y       z     vdW  Elec       q    Type
                         _______ _______ _______ _____ _____    ______ ____

>  <TORSDO>
F 10

$$$$
