=
 OpenBabel11062417543D

 39 43  0  0  1  0  0  0  0  0999 V2000
  187.1860  177.9660  140.6150 C   0  0  2  0  0  3  0  0  0  0  0  0
  189.4650  178.3120  139.3590 C   0  0  2  0  0  3  0  0  0  0  0  0
  188.6270  178.0440  138.1140 C   0  0  0  0  0  2  0  0  0  0  0  0
  189.4790  177.0600  140.2160 C   0  0  2  0  0  3  0  0  0  0  0  0
  184.3590  178.4720  140.3910 C   0  0  0  0  0  2  0  0  0  0  0  0
  186.4560  178.5240  142.2100 S   0  0  0  0  0  0  0  0  0  0  0  0
  188.6930  178.2680  140.6900 C   0  0  2  0  0  3  0  0  0  0  0  0
  185.2720  178.7740  139.3020 N   0  0  0  0  0  0  0  0  0  0  0  0
  187.3390  178.7110  138.2070 N   0  0  0  0  0  2  0  0  0  0  0  0
  184.8320  179.1610  141.6560 C   0  0  2  0  0  3  0  0  0  0  0  0
  186.5490  178.5600  139.3800 C   0  0  0  0  0  0  0  0  0  0  0  0
  183.9970  179.1870  144.1090 C   0  0  0  0  0  0  0  0  0  0  0  0
  183.8290  178.9980  142.7560 C   0  0  0  0  0  0  0  0  0  0  0  0
  182.8430  179.0320  144.7040 O   0  0  0  0  0  0  0  0  0  0  0  0
  182.4810  178.7350  142.6030 C   0  0  0  0  0  3  0  0  0  0  0  0
  181.9130  178.7580  143.8300 N   0  0  0  0  0  0  0  0  0  0  0  0
  185.2230  179.5050  144.7660 N   0  0  0  0  0  2  0  0  0  0  0  0
  184.4310  178.1500  146.8970 O   0  0  0  0  0  0  0  0  0  0  0  0
  185.9270  180.0670  147.2590 O   0  0  0  0  0  0  0  0  0  0  0  0
  185.6040  178.9130  146.3490 S   0  0  0  0  0  0  0  0  0  0  0  0
  187.8680  177.8950  145.0050 C   0  0  0  0  0  2  0  0  0  0  0  0
  187.0130  177.8220  146.2550 C   0  0  0  0  0  0  0  0  0  0  0  0
  186.8900  176.7380  145.2070 C   0  0  0  0  0  2  0  0  0  0  0  0
  187.5760  177.3640  147.4930 O   0  0  0  0  0  0  0  0  0  0  0  0
  189.3750  178.3870  148.5590 O   0  0  0  0  0  0  0  0  0  0  0  0
  188.9260  177.4210  147.8820 C   0  0  0  0  0  0  0  0  0  0  0  0
  189.8020  176.4000  147.5040 O   0  0  0  0  0  0  0  0  0  0  0  0
  191.2070  176.5860  147.5250 C   0  0  0  0  0  1  0  0  0  0  0  0
  190.8140  176.9740  140.9640 C   0  0  1  0  0  3  0  0  0  0  0  0
  191.8310  177.8090  140.4480 O   0  0  0  0  0  0  0  0  0  0  0  0
  192.6110  177.0570  139.6910 O   0  0  0  0  0  1  0  0  0  0  0  0
  190.6880  177.0610  142.4930 C   0  0  1  0  0  3  0  0  0  0  0  0
  191.7600  175.3800  143.8160 O   0  0  0  0  0  1  0  0  0  0  0  0
  190.5730  175.6920  143.1530 C   0  0  0  0  0  2  0  0  0  0  0  0
  191.7990  177.7450  143.0120 O   0  0  0  0  0  0  0  0  0  0  0  0
  190.3220  179.4870  143.3130 F   0  0  0  0  0  0  0  0  0  0  0  0
  190.8940  178.1780  145.0850 F   0  0  0  0  0  0  0  0  0  0  0  0
  191.3390  178.7410  143.8940 C   0  0  0  0  0  0  0  0  0  0  0  0
  192.3920  179.5890  144.1790 F   0  0  0  0  0  0  0  0  0  0  0  0
  1 11  1  6  0  0  0
  1  7  1  0  0  0  0
  1  6  1  0  0  0  0
  2  3  1  6  0  0  0
  2  4  1  0  0  0  0
  2  7  1  0  0  0  0
  3  9  1  0  0  0  0
  4  7  1  0  0  0  0
  4 29  1  1  0  0  0
  5 10  1  0  0  0  0
  8 11  2  0  0  0  0
  8  5  1  0  0  0  0
  9 11  1  0  0  0  0
 10  6  1  0  0  0  0
 10 13  1  0  0  0  0
 12 14  1  0  0  0  0
 12 17  1  0  0  0  0
 13 12  2  0  0  0  0
 15 13  1  0  0  0  0
 15 16  2  0  0  0  0
 16 14  1  0  0  0  0
 17 20  1  0  0  0  0
 20 18  2  0  0  0  0
 20 19  2  0  0  0  0
 21 23  1  0  0  0  0
 21 22  1  0  0  0  0
 22 20  1  0  0  0  0
 22 24  1  0  0  0  0
 23 22  1  0  0  0  0
 24 26  1  0  0  0  0
 26 25  2  0  0  0  0
 27 28  1  0  0  0  0
 27 26  1  0  0  0  0
 29 32  1  0  0  0  0
 30 29  1  0  0  0  0
 31 30  1  0  0  0  0
 32 35  1  0  0  0  0
 32 34  1  0  0  0  0
 34 33  1  0  0  0  0
 35 38  1  0  0  0  0
 36 38  1  0  0  0  0
 38 39  1  0  0  0  0
 38 37  1  0  0  0  0
M  END
>  <MODEL>
1

>  <REMARK>
 VINA RESULT:      -8.3      0.000      0.000
  Name = 
  13 active torsions:
  status: ('A' for Active; 'I' for Inactive)
    1  A    between atoms: O_1  and  C_7
    2  A    between atoms: C_7  and  O_17
    3  A    between atoms: C_10  and  N_16
    4  A    between atoms: C_12  and  C_19
    5  A    between atoms: C_12  and  C_22
    6  A    between atoms: C_12  and  O_34
    7  A    between atoms: O_13  and  C_19
    8  A    between atoms: C_15  and  O_17
    9  A    between atoms: C_15  and  S_33
   10  A    between atoms: N_16  and  S_33
   11  A    between atoms: C_18  and  C_19
   12  A    between atoms: C_23  and  C_35
   13  A    between atoms: C_32  and  O_34
                            x       y       z     vdW  Elec       q    Type
                         _______ _______ _______ _____ _____    ______ ____

>  <TORSDO>
F 13

$$$$
=
 OpenBabel11062417543D

 39 43  0  0  1  0  0  0  0  0999 V2000
  189.4270  177.3140  141.3550 C   0  0  2  0  0  3  0  0  0  0  0  0
  190.8100  178.2560  143.3770 C   0  0  2  0  0  3  0  0  0  0  0  0
  191.9370  177.4230  142.7770 C   0  0  0  0  0  2  0  0  0  0  0  0
  189.7060  177.3230  143.8370 C   0  0  2  0  0  3  0  0  0  0  0  0
  189.6500  176.6050  138.5710 C   0  0  0  0  0  2  0  0  0  0  0  0
  187.9630  177.8630  140.3830 S   0  0  0  0  0  0  0  0  0  0  0  0
  189.4740  178.1930  142.6160 C   0  0  2  0  0  3  0  0  0  0  0  0
  190.8100  177.0050  139.3480 N   0  0  0  0  0  0  0  0  0  0  0  0
  191.9420  177.5310  141.3280 N   0  0  0  0  0  2  0  0  0  0  0  0
  188.5800  177.6750  138.6700 C   0  0  2  0  0  3  0  0  0  0  0  0
  190.7360  177.3330  140.6000 C   0  0  0  0  0  0  0  0  0  0  0  0
  186.1510  177.8650  137.7870 C   0  0  0  0  0  0  0  0  0  0  0  0
  187.4350  177.3660  137.7570 C   0  0  0  0  0  0  0  0  0  0  0  0
  185.4970  177.4090  136.7500 O   0  0  0  0  0  0  0  0  0  0  0  0
  187.4850  176.5950  136.6120 C   0  0  0  0  0  3  0  0  0  0  0  0
  186.2660  176.6420  136.0270 N   0  0  0  0  0  0  0  0  0  0  0  0
  185.6130  178.7390  138.7770 N   0  0  0  0  0  2  0  0  0  0  0  0
  183.1930  178.4490  137.7450 O   0  0  0  0  0  0  0  0  0  0  0  0
  183.6460  180.4980  139.0260 O   0  0  0  0  0  0  0  0  0  0  0  0
  183.9110  179.0200  138.9360 S   0  0  0  0  0  0  0  0  0  0  0  0
  182.0080  177.4510  140.3100 C   0  0  0  0  0  2  0  0  0  0  0  0
  183.3100  178.2200  140.4140 C   0  0  0  0  0  0  0  0  0  0  0  0
  182.0430  178.8260  140.9760 C   0  0  0  0  0  2  0  0  0  0  0  0
  184.2770  177.8760  141.4180 O   0  0  0  0  0  0  0  0  0  0  0  0
  185.4590  179.6900  142.2710 O   0  0  0  0  0  0  0  0  0  0  0  0
  184.7230  178.6850  142.4770 C   0  0  0  0  0  0  0  0  0  0  0  0
  184.3640  178.3720  143.7900 O   0  0  0  0  0  0  0  0  0  0  0  0
  183.4920  179.2050  144.5360 C   0  0  0  0  0  1  0  0  0  0  0  0
  189.0070  177.9300  145.0580 C   0  0  1  0  0  3  0  0  0  0  0  0
  187.6140  178.1130  144.9070 O   0  0  0  0  0  0  0  0  0  0  0  0
  187.0520  176.9170  144.9560 O   0  0  0  0  0  1  0  0  0  0  0  0
  189.3820  177.2680  146.3930 C   0  0  1  0  0  3  0  0  0  0  0  0
  191.5040  177.1090  147.4870 O   0  0  0  0  0  1  0  0  0  0  0  0
  190.7810  176.6640  146.3800 C   0  0  0  0  0  2  0  0  0  0  0  0
  189.2860  178.2160  147.4250 O   0  0  0  0  0  0  0  0  0  0  0  0
  187.9150  176.5070  148.1400 F   0  0  0  0  0  0  0  0  0  0  0  0
  188.5030  178.1610  149.5900 F   0  0  0  0  0  0  0  0  0  0  0  0
  188.2130  177.8570  148.2630 C   0  0  0  0  0  0  0  0  0  0  0  0
  187.1010  178.5850  147.8820 F   0  0  0  0  0  0  0  0  0  0  0  0
  1  6  1  6  0  0  0
  1  7  1  0  0  0  0
  2  3  1  6  0  0  0
  2  4  1  0  0  0  0
  4 29  1  1  0  0  0
  5 10  1  0  0  0  0
  5  8  1  0  0  0  0
  7  2  1  0  0  0  0
  7  4  1  0  0  0  0
  8 11  2  0  0  0  0
  9  3  1  0  0  0  0
 10  6  1  0  0  0  0
 11  9  1  0  0  0  0
 11  1  1  0  0  0  0
 12 17  1  0  0  0  0
 13 12  2  0  0  0  0
 13 10  1  0  0  0  0
 14 12  1  0  0  0  0
 15 13  1  0  0  0  0
 16 15  2  0  0  0  0
 16 14  1  0  0  0  0
 17 20  1  0  0  0  0
 18 20  2  0  0  0  0
 20 19  2  0  0  0  0
 20 22  1  0  0  0  0
 21 22  1  0  0  0  0
 21 23  1  0  0  0  0
 22 23  1  0  0  0  0
 22 24  1  0  0  0  0
 24 26  1  0  0  0  0
 25 26  2  0  0  0  0
 26 27  1  0  0  0  0
 27 28  1  0  0  0  0
 29 32  1  0  0  0  0
 30 31  1  0  0  0  0
 30 29  1  0  0  0  0
 32 35  1  0  0  0  0
 34 32  1  0  0  0  0
 34 33  1  0  0  0  0
 35 38  1  0  0  0  0
 36 38  1  0  0  0  0
 38 37  1  0  0  0  0
 39 38  1  0  0  0  0
M  END
>  <MODEL>
2

>  <REMARK>
 VINA RESULT:      -8.3      3.313      6.285
  Name = 
  13 active torsions:
  status: ('A' for Active; 'I' for Inactive)
    1  A    between atoms: O_1  and  C_7
    2  A    between atoms: C_7  and  O_17
    3  A    between atoms: C_10  and  N_16
    4  A    between atoms: C_12  and  C_19
    5  A    between atoms: C_12  and  C_22
    6  A    between atoms: C_12  and  O_34
    7  A    between atoms: O_13  and  C_19
    8  A    between atoms: C_15  and  O_17
    9  A    between atoms: C_15  and  S_33
   10  A    between atoms: N_16  and  S_33
   11  A    between atoms: C_18  and  C_19
   12  A    between atoms: C_23  and  C_35
   13  A    between atoms: C_32  and  O_34
                            x       y       z     vdW  Elec       q    Type
                         _______ _______ _______ _____ _____    ______ ____

>  <TORSDO>
F 13

$$$$
=
 OpenBabel11062417543D

 39 43  0  0  1  0  0  0  0  0999 V2000
  187.0160  178.3140  144.0270 C   0  0  2  0  0  3  0  0  0  0  0  0
  188.6010  177.1050  145.7350 C   0  0  2  0  0  3  0  0  0  0  0  0
  187.6750  177.7250  146.7760 C   0  0  0  0  0  2  0  0  0  0  0  0
  189.3160  178.2190  144.9940 C   0  0  2  0  0  3  0  0  0  0  0  0
  184.2560  179.0080  143.5740 C   0  0  0  0  0  2  0  0  0  0  0  0
  186.5170  178.0570  142.2730 S   0  0  0  0  0  0  0  0  0  0  0  0
  188.2460  177.4230  144.2720 C   0  0  2  0  0  3  0  0  0  0  0  0
  184.6900  178.3910  144.8150 N   0  0  0  0  0  0  0  0  0  0  0  0
  186.2890  177.6380  146.3490 N   0  0  0  0  0  2  0  0  0  0  0  0
  184.6950  178.1520  142.4020 C   0  0  2  0  0  3  0  0  0  0  0  0
  185.9240  178.0650  145.0420 C   0  0  0  0  0  0  0  0  0  0  0  0
  184.7620  178.8580  139.9090 C   0  0  0  0  0  0  0  0  0  0  0  0
  184.1300  178.6790  141.1190 C   0  0  0  0  0  0  0  0  0  0  0  0
  183.8800  179.2480  139.0250 O   0  0  0  0  0  0  0  0  0  0  0  0
  182.8040  178.9800  140.8700 C   0  0  0  0  0  3  0  0  0  0  0  0
  182.6970  179.3340  139.5690 N   0  0  0  0  0  0  0  0  0  0  0  0
  186.1490  178.6510  139.6480 N   0  0  0  0  0  2  0  0  0  0  0  0
  186.6150  179.2290  137.1080 O   0  0  0  0  0  0  0  0  0  0  0  0
  185.9210  176.9320  137.6440 O   0  0  0  0  0  0  0  0  0  0  0  0
  186.7300  178.1130  138.1080 S   0  0  0  0  0  0  0  0  0  0  0  0
  189.4570  178.4250  137.4470 C   0  0  0  0  0  2  0  0  0  0  0  0
  188.4430  177.6350  138.2510 C   0  0  0  0  0  0  0  0  0  0  0  0
  189.0260  177.0310  136.9920 C   0  0  0  0  0  2  0  0  0  0  0  0
  188.8410  176.9560  139.4520 O   0  0  0  0  0  0  0  0  0  0  0  0
  189.9120  177.9320  141.2730 O   0  0  0  0  0  0  0  0  0  0  0  0
  189.9800  177.2180  140.2350 C   0  0  0  0  0  0  0  0  0  0  0  0
  191.2180  176.6940  139.8570 O   0  0  0  0  0  0  0  0  0  0  0  0
  192.4300  177.3560  140.1790 C   0  0  0  0  0  1  0  0  0  0  0  0
  190.7080  177.7340  144.5730 C   0  0  1  0  0  3  0  0  0  0  0  0
  191.6860  178.7510  144.4980 O   0  0  0  0  0  0  0  0  0  0  0  0
  191.0830  179.8460  144.0710 O   0  0  0  0  0  1  0  0  0  0  0  0
  191.1970  176.4890  145.3290 C   0  0  1  0  0  3  0  0  0  0  0  0
  191.0710  175.3790  143.2130 O   0  0  0  0  0  1  0  0  0  0  0  0
  191.7940  175.4340  144.4050 C   0  0  0  0  0  2  0  0  0  0  0  0
  192.1500  176.8710  146.2880 O   0  0  0  0  0  0  0  0  0  0  0  0
  191.0280  175.2380  147.4640 F   0  0  0  0  0  0  0  0  0  0  0  0
  192.7750  176.3260  148.4360 F   0  0  0  0  0  0  0  0  0  0  0  0
  191.7060  176.4460  147.5540 C   0  0  0  0  0  0  0  0  0  0  0  0
  190.8350  177.3980  148.0520 F   0  0  0  0  0  0  0  0  0  0  0  0
  1  6  1  6  0  0  0
  1  7  1  0  0  0  0
  1 11  1  0  0  0  0
  2  3  1  1  0  0  0
  4 29  1  6  0  0  0
  4  2  1  0  0  0  0
  5  8  1  0  0  0  0
  6 10  1  0  0  0  0
  7  4  1  0  0  0  0
  7  2  1  0  0  0  0
  8 11  2  0  0  0  0
  9  3  1  0  0  0  0
 10  5  1  0  0  0  0
 11  9  1  0  0  0  0
 12 13  2  0  0  0  0
 13 10  1  0  0  0  0
 14 16  1  0  0  0  0
 14 12  1  0  0  0  0
 15 13  1  0  0  0  0
 16 15  2  0  0  0  0
 17 12  1  0  0  0  0
 18 20  2  0  0  0  0
 19 20  2  0  0  0  0
 20 22  1  0  0  0  0
 20 17  1  0  0  0  0
 21 22  1  0  0  0  0
 22 24  1  0  0  0  0
 23 21  1  0  0  0  0
 23 22  1  0  0  0  0
 24 26  1  0  0  0  0
 26 25  2  0  0  0  0
 27 28  1  0  0  0  0
 27 26  1  0  0  0  0
 29 32  1  0  0  0  0
 30 29  1  0  0  0  0
 31 30  1  0  0  0  0
 32 35  1  0  0  0  0
 33 34  1  0  0  0  0
 34 32  1  0  0  0  0
 35 38  1  0  0  0  0
 36 38  1  0  0  0  0
 38 39  1  0  0  0  0
 38 37  1  0  0  0  0
M  END
>  <MODEL>
3

>  <REMARK>
 VINA RESULT:      -8.2      2.825      5.917
  Name = 
  13 active torsions:
  status: ('A' for Active; 'I' for Inactive)
    1  A    between atoms: O_1  and  C_7
    2  A    between atoms: C_7  and  O_17
    3  A    between atoms: C_10  and  N_16
    4  A    between atoms: C_12  and  C_19
    5  A    between atoms: C_12  and  C_22
    6  A    between atoms: C_12  and  O_34
    7  A    between atoms: O_13  and  C_19
    8  A    between atoms: C_15  and  O_17
    9  A    between atoms: C_15  and  S_33
   10  A    between atoms: N_16  and  S_33
   11  A    between atoms: C_18  and  C_19
   12  A    between atoms: C_23  and  C_35
   13  A    between atoms: C_32  and  O_34
                            x       y       z     vdW  Elec       q    Type
                         _______ _______ _______ _____ _____    ______ ____

>  <TORSDO>
F 13

$$$$
=
 OpenBabel11062417543D

 39 43  0  0  1  0  0  0  0  0999 V2000
  186.7730  178.3960  144.9980 C   0  0  2  0  0  3  0  0  0  0  0  0
  188.7870  177.2340  146.2170 C   0  0  2  0  0  3  0  0  0  0  0  0
  188.2690  177.9910  147.4340 C   0  0  0  0  0  2  0  0  0  0  0  0
  189.2580  178.2390  145.1830 C   0  0  2  0  0  3  0  0  0  0  0  0
  184.0390  179.2190  145.3880 C   0  0  0  0  0  2  0  0  0  0  0  0
  185.7250  178.0300  143.5300 S   0  0  0  0  0  0  0  0  0  0  0  0
  187.9870  177.4540  144.9210 C   0  0  2  0  0  3  0  0  0  0  0  0
  184.8320  178.6780  146.4780 N   0  0  0  0  0  0  0  0  0  0  0  0
  186.8170  177.9550  147.4840 N   0  0  0  0  0  2  0  0  0  0  0  0
  184.0470  178.2460  144.2250 C   0  0  2  0  0  3  0  0  0  0  0  0
  186.0620  178.2970  146.3290 C   0  0  0  0  0  0  0  0  0  0  0  0
  183.3340  178.7690  141.7890 C   0  0  0  0  0  0  0  0  0  0  0  0
  183.1130  178.7010  143.1460 C   0  0  0  0  0  0  0  0  0  0  0  0
  182.2240  179.1290  141.1980 O   0  0  0  0  0  0  0  0  0  0  0  0
  181.7810  179.0340  143.3020 C   0  0  0  0  0  3  0  0  0  0  0  0
  181.2740  179.2980  142.0760 N   0  0  0  0  0  0  0  0  0  0  0  0
  184.5650  178.4920  141.1240 N   0  0  0  0  0  2  0  0  0  0  0  0
  186.2030  178.4840  139.0450 O   0  0  0  0  0  0  0  0  0  0  0  0
  184.3600  180.1120  139.0360 O   0  0  0  0  0  0  0  0  0  0  0  0
  184.7650  178.7140  139.4180 S   0  0  0  0  0  0  0  0  0  0  0  0
  183.9360  177.4360  137.0410 C   0  0  0  0  0  2  0  0  0  0  0  0
  183.7430  177.5430  138.5410 C   0  0  0  0  0  0  0  0  0  0  0  0
  182.7280  178.1760  137.6150 C   0  0  0  0  0  2  0  0  0  0  0  0
  183.2270  176.4300  139.2860 O   0  0  0  0  0  0  0  0  0  0  0  0
  181.6500  175.0030  138.3400 O   0  0  0  0  0  0  0  0  0  0  0  0
  181.9360  175.8800  139.2020 C   0  0  0  0  0  0  0  0  0  0  0  0
  180.9370  176.3170  140.0750 O   0  0  0  0  0  0  0  0  0  0  0  0
  179.7840  176.9930  139.6000 C   0  0  0  0  0  1  0  0  0  0  0  0
  190.4220  177.6370  144.3870 C   0  0  1  0  0  3  0  0  0  0  0  0
  191.3350  178.5860  143.8740 O   0  0  0  0  0  0  0  0  0  0  0  0
  190.8690  179.7850  144.1770 O   0  0  0  0  0  1  0  0  0  0  0  0
  191.1160  176.4550  145.0810 C   0  0  1  0  0  3  0  0  0  0  0  0
  190.7920  175.0300  143.1870 O   0  0  0  0  0  1  0  0  0  0  0  0
  191.7490  175.4810  144.0950 C   0  0  0  0  0  2  0  0  0  0  0  0
  192.0970  176.9430  145.9600 O   0  0  0  0  0  0  0  0  0  0  0  0
  193.0810  175.5310  147.4920 F   0  0  0  0  0  0  0  0  0  0  0  0
  191.7190  177.2040  148.2160 F   0  0  0  0  0  0  0  0  0  0  0  0
  191.9550  176.2870  147.1980 C   0  0  0  0  0  0  0  0  0  0  0  0
  190.8680  175.4360  147.1170 F   0  0  0  0  0  0  0  0  0  0  0  0
  1  6  1  6  0  0  0
  1 11  1  0  0  0  0
  2  3  1  1  0  0  0
  3  9  1  0  0  0  0
  4 29  1  6  0  0  0
  4  2  1  0  0  0  0
  5  8  1  0  0  0  0
  6 10  1  0  0  0  0
  7  1  1  0  0  0  0
  7  4  1  0  0  0  0
  7  2  1  0  0  0  0
 10  5  1  0  0  0  0
 11  8  2  0  0  0  0
 11  9  1  0  0  0  0
 12 13  2  0  0  0  0
 13 15  1  0  0  0  0
 13 10  1  0  0  0  0
 14 12  1  0  0  0  0
 14 16  1  0  0  0  0
 16 15  2  0  0  0  0
 17 12  1  0  0  0  0
 18 20  2  0  0  0  0
 19 20  2  0  0  0  0
 20 17  1  0  0  0  0
 21 23  1  0  0  0  0
 21 22  1  0  0  0  0
 22 24  1  0  0  0  0
 22 20  1  0  0  0  0
 23 22  1  0  0  0  0
 25 26  2  0  0  0  0
 26 24  1  0  0  0  0
 26 27  1  0  0  0  0
 28 27  1  0  0  0  0
 29 32  1  0  0  0  0
 30 31  1  0  0  0  0
 30 29  1  0  0  0  0
 32 35  1  0  0  0  0
 33 34  1  0  0  0  0
 34 32  1  0  0  0  0
 35 38  1  0  0  0  0
 38 36  1  0  0  0  0
 38 37  1  0  0  0  0
 39 38  1  0  0  0  0
M  END
>  <MODEL>
4

>  <REMARK>
 VINA RESULT:      -8.0      3.270      6.724
  Name = 
  13 active torsions:
  status: ('A' for Active; 'I' for Inactive)
    1  A    between atoms: O_1  and  C_7
    2  A    between atoms: C_7  and  O_17
    3  A    between atoms: C_10  and  N_16
    4  A    between atoms: C_12  and  C_19
    5  A    between atoms: C_12  and  C_22
    6  A    between atoms: C_12  and  O_34
    7  A    between atoms: O_13  and  C_19
    8  A    between atoms: C_15  and  O_17
    9  A    between atoms: C_15  and  S_33
   10  A    between atoms: N_16  and  S_33
   11  A    between atoms: C_18  and  C_19
   12  A    between atoms: C_23  and  C_35
   13  A    between atoms: C_32  and  O_34
                            x       y       z     vdW  Elec       q    Type
                         _______ _______ _______ _____ _____    ______ ____

>  <TORSDO>
F 13

$$$$
=
 OpenBabel11062417543D

 39 43  0  0  1  0  0  0  0  0999 V2000
  185.8570  178.0240  144.4810 C   0  0  2  0  0  3  0  0  0  0  0  0
  183.7710  179.3710  143.6300 C   0  0  2  0  0  3  0  0  0  0  0  0
  183.1470  178.9050  144.9410 C   0  0  0  0  0  2  0  0  0  0  0  0
  184.0490  178.1560  142.7640 C   0  0  2  0  0  3  0  0  0  0  0  0
  187.3310  177.3700  146.8690 C   0  0  0  0  0  2  0  0  0  0  0  0
  187.6770  178.0910  144.2100 S   0  0  0  0  0  0  0  0  0  0  0  0
  185.2160  178.8970  143.3890 C   0  0  2  0  0  3  0  0  0  0  0  0
  186.0840  178.1130  146.9260 N   0  0  0  0  0  0  0  0  0  0  0  0
  184.1080  178.9870  146.0270 N   0  0  0  0  0  2  0  0  0  0  0  0
  188.2960  178.0700  145.9320 C   0  0  2  0  0  3  0  0  0  0  0  0
  185.4040  178.4230  145.8670 C   0  0  0  0  0  0  0  0  0  0  0  0
  190.6130  177.3850  144.9950 C   0  0  0  0  0  0  0  0  0  0  0  0
  189.6430  177.4170  145.9720 C   0  0  0  0  0  0  0  0  0  0  0  0
  191.6750  176.7920  145.4750 O   0  0  0  0  0  0  0  0  0  0  0  0
  190.2260  176.8100  147.0670 C   0  0  0  0  0  3  0  0  0  0  0  0
  191.4760  176.4320  146.7130 N   0  0  0  0  0  0  0  0  0  0  0  0
  190.4930  177.9120  143.6750 N   0  0  0  0  0  2  0  0  0  0  0  0
  190.3240  175.5580  142.4780 O   0  0  0  0  0  0  0  0  0  0  0  0
  192.3030  176.9360  142.0030 O   0  0  0  0  0  0  0  0  0  0  0  0
  190.8220  176.9600  142.2660 S   0  0  0  0  0  0  0  0  0  0  0  0
  188.8890  178.6790  141.1360 C   0  0  0  0  0  2  0  0  0  0  0  0
  189.9830  177.6670  140.8590 C   0  0  0  0  0  0  0  0  0  0  0  0
  188.5360  177.2500  140.7250 C   0  0  0  0  0  2  0  0  0  0  0  0
  190.6930  177.6910  139.6110 O   0  0  0  0  0  0  0  0  0  0  0  0
  190.8080  175.5330  138.7460 O   0  0  0  0  0  0  0  0  0  0  0  0
  190.5890  176.7620  138.5600 C   0  0  0  0  0  0  0  0  0  0  0  0
  190.2520  177.2000  137.2780 O   0  0  0  0  0  0  0  0  0  0  0  0
  189.0100  177.8310  137.0140 C   0  0  0  0  0  1  0  0  0  0  0  0
  183.9070  178.5450  141.2880 C   0  0  1  0  0  3  0  0  0  0  0  0
  185.1200  178.5460  140.5630 O   0  0  0  0  0  0  0  0  0  0  0  0
  185.1670  179.6730  139.8750 O   0  0  0  0  0  1  0  0  0  0  0  0
  182.7700  177.8210  140.5510 C   0  0  1  0  0  3  0  0  0  0  0  0
  180.4050  177.9380  140.8930 O   0  0  0  0  0  1  0  0  0  0  0  0
  181.5060  178.6650  140.4420 C   0  0  0  0  0  2  0  0  0  0  0  0
  183.2070  177.4560  139.2670 O   0  0  0  0  0  0  0  0  0  0  0  0
  182.2900  175.5180  140.1120 F   0  0  0  0  0  0  0  0  0  0  0  0
  181.6020  176.3010  138.0880 F   0  0  0  0  0  0  0  0  0  0  0  0
  182.6800  176.1870  138.9590 C   0  0  0  0  0  0  0  0  0  0  0  0
  183.6670  175.4450  138.3370 F   0  0  0  0  0  0  0  0  0  0  0  0
  1  6  1  1  0  0  0
  1 11  1  0  0  0  0
  2  3  1  1  0  0  0
  3  9  1  0  0  0  0
  4 29  1  6  0  0  0
  4  7  1  0  0  0  0
  4  2  1  0  0  0  0
  5  8  1  0  0  0  0
  6 10  1  0  0  0  0
  7  2  1  0  0  0  0
  7  1  1  0  0  0  0
 10 13  1  0  0  0  0
 10  5  1  0  0  0  0
 11  9  1  0  0  0  0
 11  8  2  0  0  0  0
 12 14  1  0  0  0  0
 12 13  2  0  0  0  0
 13 15  1  0  0  0  0
 14 16  1  0  0  0  0
 16 15  2  0  0  0  0
 17 12  1  0  0  0  0
 19 20  2  0  0  0  0
 20 18  2  0  0  0  0
 20 17  1  0  0  0  0
 22 21  1  0  0  0  0
 22 20  1  0  0  0  0
 23 22  1  0  0  0  0
 23 21  1  0  0  0  0
 24 22  1  0  0  0  0
 26 25  2  0  0  0  0
 26 24  1  0  0  0  0
 27 26  1  0  0  0  0
 28 27  1  0  0  0  0
 30 29  1  0  0  0  0
 31 30  1  0  0  0  0
 32 29  1  0  0  0  0
 34 32  1  0  0  0  0
 34 33  1  0  0  0  0
 35 32  1  0  0  0  0
 37 38  1  0  0  0  0
 38 35  1  0  0  0  0
 38 36  1  0  0  0  0
 39 38  1  0  0  0  0
M  END
>  <MODEL>
5

>  <REMARK>
 VINA RESULT:      -7.9      4.070      8.224
  Name = 
  13 active torsions:
  status: ('A' for Active; 'I' for Inactive)
    1  A    between atoms: O_1  and  C_7
    2  A    between atoms: C_7  and  O_17
    3  A    between atoms: C_10  and  N_16
    4  A    between atoms: C_12  and  C_19
    5  A    between atoms: C_12  and  C_22
    6  A    between atoms: C_12  and  O_34
    7  A    between atoms: O_13  and  C_19
    8  A    between atoms: C_15  and  O_17
    9  A    between atoms: C_15  and  S_33
   10  A    between atoms: N_16  and  S_33
   11  A    between atoms: C_18  and  C_19
   12  A    between atoms: C_23  and  C_35
   13  A    between atoms: C_32  and  O_34
                            x       y       z     vdW  Elec       q    Type
                         _______ _______ _______ _____ _____    ______ ____

>  <TORSDO>
F 13

$$$$
=
 OpenBabel11062417543D

 39 43  0  0  1  0  0  0  0  0999 V2000
  186.0460  178.3110  144.5050 C   0  0  2  0  0  3  0  0  0  0  0  0
  187.8490  177.0930  145.9730 C   0  0  2  0  0  3  0  0  0  0  0  0
  187.3950  178.0760  147.0470 C   0  0  0  0  0  2  0  0  0  0  0  0
  188.4820  177.8730  144.8360 C   0  0  2  0  0  3  0  0  0  0  0  0
  183.4320  179.5150  144.6370 C   0  0  0  0  0  2  0  0  0  0  0  0
  185.0080  177.8710  143.0500 S   0  0  0  0  0  0  0  0  0  0  0  0
  187.1280  177.2240  144.6200 C   0  0  2  0  0  3  0  0  0  0  0  0
  184.1110  179.0420  145.8310 N   0  0  0  0  0  0  0  0  0  0  0  0
  185.9500  178.2290  147.0270 N   0  0  0  0  0  2  0  0  0  0  0  0
  183.3500  178.3930  143.6220 C   0  0  2  0  0  3  0  0  0  0  0  0
  185.2840  178.4930  145.7990 C   0  0  0  0  0  0  0  0  0  0  0  0
  182.7530  178.5740  141.1060 C   0  0  0  0  0  0  0  0  0  0  0  0
  182.5200  178.8010  142.4450 C   0  0  0  0  0  0  0  0  0  0  0  0
  181.7300  179.0130  140.4190 O   0  0  0  0  0  0  0  0  0  0  0  0
  181.2730  179.3940  142.4880 C   0  0  0  0  0  3  0  0  0  0  0  0
  180.8260  179.5140  141.2170 N   0  0  0  0  0  0  0  0  0  0  0  0
  183.9120  177.9580  140.5490 N   0  0  0  0  0  2  0  0  0  0  0  0
  186.3020  178.7270  139.7140 O   0  0  0  0  0  0  0  0  0  0  0  0
  184.3760  180.1240  139.0940 O   0  0  0  0  0  0  0  0  0  0  0  0
  184.8550  178.7140  139.3090 S   0  0  0  0  0  0  0  0  0  0  0  0
  183.3120  177.7490  137.1500 C   0  0  0  0  0  2  0  0  0  0  0  0
  184.6860  177.7960  137.7880 C   0  0  0  0  0  0  0  0  0  0  0  0
  183.8530  176.5390  137.9110 C   0  0  0  0  0  2  0  0  0  0  0  0
  185.8640  177.6280  136.9840 O   0  0  0  0  0  0  0  0  0  0  0  0
  187.8180  176.6210  137.7490 O   0  0  0  0  0  0  0  0  0  0  0  0
  186.7790  176.5620  137.0340 C   0  0  0  0  0  0  0  0  0  0  0  0
  186.5520  175.4150  136.2700 O   0  0  0  0  0  0  0  0  0  0  0  0
  186.6200  174.1200  136.8430 C   0  0  0  0  0  1  0  0  0  0  0  0
  189.5830  177.0230  144.1920 C   0  0  1  0  0  3  0  0  0  0  0  0
  189.5210  176.9540  142.7810 O   0  0  0  0  0  0  0  0  0  0  0  0
  190.1330  175.8410  142.4150 O   0  0  0  0  0  1  0  0  0  0  0  0
  190.9960  177.3200  144.7150 C   0  0  1  0  0  3  0  0  0  0  0  0
  191.0620  179.6750  144.2980 O   0  0  0  0  0  1  0  0  0  0  0  0
  191.6730  178.4640  143.9700 C   0  0  0  0  0  2  0  0  0  0  0  0
  190.9310  177.6210  146.0850 O   0  0  0  0  0  0  0  0  0  0  0  0
  192.2410  176.8770  147.8280 F   0  0  0  0  0  0  0  0  0  0  0  0
  190.2960  175.8000  147.3430 F   0  0  0  0  0  0  0  0  0  0  0  0
  191.3740  176.5000  146.8120 C   0  0  0  0  0  0  0  0  0  0  0  0
  192.0540  175.6630  145.9470 F   0  0  0  0  0  0  0  0  0  0  0  0
  1  6  1  6  0  0  0
  1  7  1  0  0  0  0
  1 11  1  0  0  0  0
  2  3  1  1  0  0  0
  4 29  1  6  0  0  0
  4  2  1  0  0  0  0
  5  8  1  0  0  0  0
  6 10  1  0  0  0  0
  7  4  1  0  0  0  0
  7  2  1  0  0  0  0
  9  3  1  0  0  0  0
 10  5  1  0  0  0  0
 11  8  2  0  0  0  0
 11  9  1  0  0  0  0
 12 13  2  0  0  0  0
 13 15  1  0  0  0  0
 13 10  1  0  0  0  0
 14 12  1  0  0  0  0
 14 16  1  0  0  0  0
 16 15  2  0  0  0  0
 17 12  1  0  0  0  0
 19 20  2  0  0  0  0
 20 18  2  0  0  0  0
 20 17  1  0  0  0  0
 21 22  1  0  0  0  0
 21 23  1  0  0  0  0
 22 23  1  0  0  0  0
 22 20  1  0  0  0  0
 24 26  1  0  0  0  0
 24 22  1  0  0  0  0
 26 25  2  0  0  0  0
 27 28  1  0  0  0  0
 27 26  1  0  0  0  0
 29 32  1  0  0  0  0
 30 29  1  0  0  0  0
 31 30  1  0  0  0  0
 32 35  1  0  0  0  0
 34 33  1  0  0  0  0
 34 32  1  0  0  0  0
 35 38  1  0  0  0  0
 38 37  1  0  0  0  0
 38 36  1  0  0  0  0
 39 38  1  0  0  0  0
M  END
>  <MODEL>
6

>  <REMARK>
 VINA RESULT:      -7.7      3.120      6.486
  Name = 
  13 active torsions:
  status: ('A' for Active; 'I' for Inactive)
    1  A    between atoms: O_1  and  C_7
    2  A    between atoms: C_7  and  O_17
    3  A    between atoms: C_10  and  N_16
    4  A    between atoms: C_12  and  C_19
    5  A    between atoms: C_12  and  C_22
    6  A    between atoms: C_12  and  O_34
    7  A    between atoms: O_13  and  C_19
    8  A    between atoms: C_15  and  O_17
    9  A    between atoms: C_15  and  S_33
   10  A    between atoms: N_16  and  S_33
   11  A    between atoms: C_18  and  C_19
   12  A    between atoms: C_23  and  C_35
   13  A    between atoms: C_32  and  O_34
                            x       y       z     vdW  Elec       q    Type
                         _______ _______ _______ _____ _____    ______ ____

>  <TORSDO>
F 13

$$$$
=
 OpenBabel11062417543D

 39 43  0  0  1  0  0  0  0  0999 V2000
  187.9600  178.0450  142.4790 C   0  0  2  0  0  3  0  0  0  0  0  0
  187.7180  177.0010  144.8750 C   0  0  2  0  0  3  0  0  0  0  0  0
  186.5150  177.9330  144.9760 C   0  0  0  0  0  2  0  0  0  0  0  0
  188.9750  177.8400  144.7520 C   0  0  2  0  0  3  0  0  0  0  0  0
  186.4190  178.9940  140.2380 C   0  0  0  0  0  2  0  0  0  0  0  0
  188.6800  177.5120  140.8700 S   0  0  0  0  0  0  0  0  0  0  0  0
  188.4850  177.0650  143.5430 C   0  0  2  0  0  3  0  0  0  0  0  0
  185.7820  178.5850  141.4780 N   0  0  0  0  0  0  0  0  0  0  0  0
  185.7690  177.9470  143.7300 N   0  0  0  0  0  2  0  0  0  0  0  0
  187.2990  177.8720  139.7250 C   0  0  2  0  0  3  0  0  0  0  0  0
  186.4530  178.1500  142.4990 C   0  0  0  0  0  0  0  0  0  0  0  0
  187.3080  177.9250  137.1340 C   0  0  0  0  0  0  0  0  0  0  0  0
  187.8460  178.2030  138.3710 C   0  0  0  0  0  0  0  0  0  0  0  0
  188.0570  178.4750  136.2140 O   0  0  0  0  0  0  0  0  0  0  0  0
  188.9610  178.9730  138.1040 C   0  0  0  0  0  3  0  0  0  0  0  0
  189.0580  179.1090  136.7610 N   0  0  0  0  0  0  0  0  0  0  0  0
  186.1260  177.1660  136.8830 N   0  0  0  0  0  2  0  0  0  0  0  0
  185.6020  175.7050  134.7410 O   0  0  0  0  0  0  0  0  0  0  0  0
  185.3660  174.6280  136.9380 O   0  0  0  0  0  0  0  0  0  0  0  0
  186.1710  175.6080  136.1280 S   0  0  0  0  0  0  0  0  0  0  0  0
  188.5960  175.2800  134.7220 C   0  0  0  0  0  2  0  0  0  0  0  0
  187.8600  175.0430  136.0250 C   0  0  0  0  0  0  0  0  0  0  0  0
  188.0710  173.8880  135.0710 C   0  0  0  0  0  2  0  0  0  0  0  0
  188.5880  174.9130  137.2560 O   0  0  0  0  0  0  0  0  0  0  0  0
  190.6420  173.8730  137.5960 O   0  0  0  0  0  0  0  0  0  0  0  0
  189.9840  174.9360  137.4200 C   0  0  0  0  0  0  0  0  0  0  0  0
  190.6660  176.1550  137.4050 O   0  0  0  0  0  0  0  0  0  0  0  0
  191.8920  176.3240  138.0960 C   0  0  0  0  0  1  0  0  0  0  0  0
  190.1430  177.1010  145.4140 C   0  0  1  0  0  3  0  0  0  0  0  0
  191.4210  177.4810  144.9440 O   0  0  0  0  0  0  0  0  0  0  0  0
  191.3210  178.7190  144.4910 O   0  0  0  0  0  1  0  0  0  0  0  0
  190.0640  177.0400  146.9470 C   0  0  1  0  0  3  0  0  0  0  0  0
  191.6990  175.4250  147.6120 O   0  0  0  0  0  1  0  0  0  0  0  0
  191.4190  176.7910  147.5980 C   0  0  0  0  0  2  0  0  0  0  0  0
  189.5200  178.2420  147.4310 O   0  0  0  0  0  0  0  0  0  0  0  0
  188.1320  176.5890  148.2380 F   0  0  0  0  0  0  0  0  0  0  0  0
  188.8260  178.2530  149.6270 F   0  0  0  0  0  0  0  0  0  0  0  0
  188.4730  177.9320  148.3210 C   0  0  0  0  0  0  0  0  0  0  0  0
  187.3680  178.6850  147.9700 F   0  0  0  0  0  0  0  0  0  0  0  0
  1  6  1  6  0  0  0
  1 11  1  0  0  0  0
  1  7  1  0  0  0  0
  2  3  1  6  0  0  0
  4  2  1  0  0  0  0
  4 29  1  1  0  0  0
  5  8  1  0  0  0  0
  7  4  1  0  0  0  0
  7  2  1  0  0  0  0
  8 11  2  0  0  0  0
  9  3  1  0  0  0  0
 10  5  1  0  0  0  0
 10  6  1  0  0  0  0
 11  9  1  0  0  0  0
 12 13  2  0  0  0  0
 13 10  1  0  0  0  0
 14 16  1  0  0  0  0
 14 12  1  0  0  0  0
 15 13  1  0  0  0  0
 16 15  2  0  0  0  0
 17 12  1  0  0  0  0
 18 20  2  0  0  0  0
 20 17  1  0  0  0  0
 20 19  2  0  0  0  0
 21 23  1  0  0  0  0
 21 22  1  0  0  0  0
 22 20  1  0  0  0  0
 22 24  1  0  0  0  0
 23 22  1  0  0  0  0
 24 26  1  0  0  0  0
 26 25  2  0  0  0  0
 27 26  1  0  0  0  0
 27 28  1  0  0  0  0
 29 32  1  0  0  0  0
 30 29  1  0  0  0  0
 31 30  1  0  0  0  0
 32 35  1  0  0  0  0
 32 34  1  0  0  0  0
 34 33  1  0  0  0  0
 35 38  1  0  0  0  0
 36 38  1  0  0  0  0
 38 37  1  0  0  0  0
 39 38  1  0  0  0  0
M  END
>  <MODEL>
7

>  <REMARK>
 VINA RESULT:      -7.7      3.547      7.532
  Name = 
  13 active torsions:
  status: ('A' for Active; 'I' for Inactive)
    1  A    between atoms: O_1  and  C_7
    2  A    between atoms: C_7  and  O_17
    3  A    between atoms: C_10  and  N_16
    4  A    between atoms: C_12  and  C_19
    5  A    between atoms: C_12  and  C_22
    6  A    between atoms: C_12  and  O_34
    7  A    between atoms: O_13  and  C_19
    8  A    between atoms: C_15  and  O_17
    9  A    between atoms: C_15  and  S_33
   10  A    between atoms: N_16  and  S_33
   11  A    between atoms: C_18  and  C_19
   12  A    between atoms: C_23  and  C_35
   13  A    between atoms: C_32  and  O_34
                            x       y       z     vdW  Elec       q    Type
                         _______ _______ _______ _____ _____    ______ ____

>  <TORSDO>
F 13

$$$$
=
 OpenBabel11062417543D

 39 43  0  0  1  0  0  0  0  0999 V2000
  189.5100  177.6450  142.2850 C   0  0  2  0  0  3  0  0  0  0  0  0
  190.0090  176.7850  139.8560 C   0  0  2  0  0  3  0  0  0  0  0  0
  191.3430  177.4960  140.0590 C   0  0  0  0  0  2  0  0  0  0  0  0
  188.8990  177.8190  139.8700 C   0  0  2  0  0  3  0  0  0  0  0  0
  190.7570  178.1110  144.8400 C   0  0  0  0  0  2  0  0  0  0  0  0
  188.4390  177.1110  143.6840 S   0  0  0  0  0  0  0  0  0  0  0  0
  189.0360  176.8690  141.0450 C   0  0  2  0  0  3  0  0  0  0  0  0
  191.5320  177.7050  143.6810 N   0  0  0  0  0  0  0  0  0  0  0  0
  191.8470  177.2710  141.4030 N   0  0  0  0  0  2  0  0  0  0  0  0
  189.6320  177.1210  145.0720 C   0  0  2  0  0  3  0  0  0  0  0  0
  190.9950  177.4840  142.5220 C   0  0  0  0  0  0  0  0  0  0  0  0
  187.5670  177.6480  146.5460 C   0  0  0  0  0  0  0  0  0  0  0  0
  188.9110  177.4250  146.3490 C   0  0  0  0  0  0  0  0  0  0  0  0
  187.3450  177.7800  147.8280 O   0  0  0  0  0  0  0  0  0  0  0  0
  189.4570  177.4220  147.6180 C   0  0  0  0  0  3  0  0  0  0  0  0
  188.4570  177.6530  148.4990 N   0  0  0  0  0  0  0  0  0  0  0  0
  186.5700  177.7210  145.5290 N   0  0  0  0  0  2  0  0  0  0  0  0
  185.6820  180.1510  146.0830 O   0  0  0  0  0  0  0  0  0  0  0  0
  184.2160  178.2530  146.6250 O   0  0  0  0  0  0  0  0  0  0  0  0
  185.2150  178.7940  145.6380 S   0  0  0  0  0  0  0  0  0  0  0  0
  184.8480  177.9440  142.9710 C   0  0  0  0  0  2  0  0  0  0  0  0
  184.4420  178.9420  144.0360 C   0  0  0  0  0  0  0  0  0  0  0  0
  185.3800  179.3760  142.9320 C   0  0  0  0  0  2  0  0  0  0  0  0
  183.1560  179.5780  143.9810 O   0  0  0  0  0  0  0  0  0  0  0  0
  181.2770  178.2380  144.2840 O   0  0  0  0  0  0  0  0  0  0  0  0
  181.9470  179.0090  143.5420 C   0  0  0  0  0  0  0  0  0  0  0  0
  181.4770  179.2810  142.2560 O   0  0  0  0  0  0  0  0  0  0  0  0
  180.9290  178.2620  141.4370 C   0  0  0  0  0  1  0  0  0  0  0  0
  187.7660  177.3570  138.9470 C   0  0  1  0  0  3  0  0  0  0  0  0
  186.7560  178.3210  138.7300 O   0  0  0  0  0  0  0  0  0  0  0  0
  186.4380  178.8300  139.9070 O   0  0  0  0  0  1  0  0  0  0  0  0
  188.2430  176.6870  137.6490 C   0  0  1  0  0  3  0  0  0  0  0  0
  187.0740  175.3710  136.0290 O   0  0  0  0  0  1  0  0  0  0  0  0
  187.5110  175.3840  137.3530 C   0  0  0  0  0  2  0  0  0  0  0  0
  188.0730  177.5790  136.5770 O   0  0  0  0  0  0  0  0  0  0  0  0
  189.4070  179.4440  136.8070 F   0  0  0  0  0  0  0  0  0  0  0  0
  190.3590  177.3760  136.7620 F   0  0  0  0  0  0  0  0  0  0  0  0
  189.3190  178.1630  136.2790 C   0  0  0  0  0  0  0  0  0  0  0  0
  189.4400  178.2490  134.9040 F   0  0  0  0  0  0  0  0  0  0  0  0
  1 11  1  1  0  0  0
  1  6  1  0  0  0  0
  2  4  1  0  0  0  0
  2  3  1  1  0  0  0
  2  7  1  0  0  0  0
  3  9  1  0  0  0  0
  4 29  1  6  0  0  0
  4  7  1  0  0  0  0
  5 10  1  0  0  0  0
  6 10  1  0  0  0  0
  7  1  1  0  0  0  0
  8  5  1  0  0  0  0
  9 11  1  0  0  0  0
 10 13  1  0  0  0  0
 11  8  2  0  0  0  0
 12 14  1  0  0  0  0
 13 12  2  0  0  0  0
 13 15  1  0  0  0  0
 14 16  1  0  0  0  0
 15 16  2  0  0  0  0
 17 20  1  0  0  0  0
 17 12  1  0  0  0  0
 20 18  2  0  0  0  0
 20 19  2  0  0  0  0
 21 22  1  0  0  0  0
 22 20  1  0  0  0  0
 23 21  1  0  0  0  0
 23 22  1  0  0  0  0
 24 22  1  0  0  0  0
 26 24  1  0  0  0  0
 26 25  2  0  0  0  0
 27 26  1  0  0  0  0
 28 27  1  0  0  0  0
 30 29  1  0  0  0  0
 30 31  1  0  0  0  0
 32 29  1  0  0  0  0
 33 34  1  0  0  0  0
 34 32  1  0  0  0  0
 35 32  1  0  0  0  0
 38 35  1  0  0  0  0
 38 37  1  0  0  0  0
 38 36  1  0  0  0  0
 39 38  1  0  0  0  0
M  END
>  <MODEL>
8

>  <REMARK>
 VINA RESULT:      -7.7      3.537      6.323
  Name = 
  13 active torsions:
  status: ('A' for Active; 'I' for Inactive)
    1  A    between atoms: O_1  and  C_7
    2  A    between atoms: C_7  and  O_17
    3  A    between atoms: C_10  and  N_16
    4  A    between atoms: C_12  and  C_19
    5  A    between atoms: C_12  and  C_22
    6  A    between atoms: C_12  and  O_34
    7  A    between atoms: O_13  and  C_19
    8  A    between atoms: C_15  and  O_17
    9  A    between atoms: C_15  and  S_33
   10  A    between atoms: N_16  and  S_33
   11  A    between atoms: C_18  and  C_19
   12  A    between atoms: C_23  and  C_35
   13  A    between atoms: C_32  and  O_34
                            x       y       z     vdW  Elec       q    Type
                         _______ _______ _______ _____ _____    ______ ____

>  <TORSDO>
F 13

$$$$
=
 OpenBabel11062417543D

 39 43  0  0  1  0  0  0  0  0999 V2000
  189.1880  177.5360  141.8030 C   0  0  2  0  0  3  0  0  0  0  0  0
  190.6840  178.2940  143.8230 C   0  0  2  0  0  3  0  0  0  0  0  0
  191.6890  177.3150  143.2270 C   0  0  0  0  0  2  0  0  0  0  0  0
  189.4640  177.5180  144.2850 C   0  0  2  0  0  3  0  0  0  0  0  0
  189.3160  176.7910  139.0230 C   0  0  0  0  0  2  0  0  0  0  0  0
  187.8110  178.2710  140.8260 S   0  0  0  0  0  0  0  0  0  0  0  0
  189.3520  178.4070  143.0600 C   0  0  2  0  0  3  0  0  0  0  0  0
  190.5190  177.0360  139.7990 N   0  0  0  0  0  0  0  0  0  0  0  0
  191.7100  177.4150  141.7780 N   0  0  0  0  0  2  0  0  0  0  0  0
  188.3990  177.9950  139.1160 C   0  0  2  0  0  3  0  0  0  0  0  0
  190.4890  177.3760  141.0500 C   0  0  0  0  0  0  0  0  0  0  0  0
  185.9240  178.2530  138.3920 C   0  0  0  0  0  0  0  0  0  0  0  0
  187.2230  177.8380  138.2020 C   0  0  0  0  0  0  0  0  0  0  0  0
  185.2380  178.0040  137.3060 O   0  0  0  0  0  0  0  0  0  0  0  0
  187.2480  177.3410  136.9130 C   0  0  0  0  0  3  0  0  0  0  0  0
  186.0010  177.4550  136.4010 N   0  0  0  0  0  0  0  0  0  0  0  0
  185.4010  178.8600  139.5720 N   0  0  0  0  0  2  0  0  0  0  0  0
  183.2580  177.3070  139.5950 O   0  0  0  0  0  0  0  0  0  0  0  0
  182.9010  179.7370  139.4990 O   0  0  0  0  0  0  0  0  0  0  0  0
  183.7570  178.6410  140.0730 S   0  0  0  0  0  0  0  0  0  0  0  0
  184.7820  179.4050  142.5900 C   0  0  0  0  0  2  0  0  0  0  0  0
  183.6650  178.6920  141.8540 C   0  0  0  0  0  0  0  0  0  0  0  0
  184.7310  177.8780  142.5540 C   0  0  0  0  0  2  0  0  0  0  0  0
  182.3650  178.5710  142.4510 O   0  0  0  0  0  0  0  0  0  0  0  0
  180.4880  177.9350  141.2320 O   0  0  0  0  0  0  0  0  0  0  0  0
  181.1260  178.8370  141.8430 C   0  0  0  0  0  0  0  0  0  0  0  0
  180.5870  180.1240  141.8970 O   0  0  0  0  0  0  0  0  0  0  0  0
  179.7130  180.6030  140.8880 C   0  0  0  0  0  1  0  0  0  0  0  0
  188.8520  178.2190  145.5030 C   0  0  1  0  0  3  0  0  0  0  0  0
  187.4390  178.2220  145.5290 O   0  0  0  0  0  0  0  0  0  0  0  0
  187.0330  177.0690  145.0260 O   0  0  0  0  0  1  0  0  0  0  0  0
  189.4750  177.8090  146.8460 C   0  0  1  0  0  3  0  0  0  0  0  0
  188.0190  176.7580  148.4280 O   0  0  0  0  0  1  0  0  0  0  0  0
  188.5210  177.9940  148.0200 C   0  0  0  0  0  2  0  0  0  0  0  0
  189.8840  176.4670  146.7770 O   0  0  0  0  0  0  0  0  0  0  0  0
  191.5070  177.4210  148.1060 F   0  0  0  0  0  0  0  0  0  0  0  0
  191.4400  175.1590  147.8590 F   0  0  0  0  0  0  0  0  0  0  0  0
  191.2130  176.3810  147.2340 C   0  0  0  0  0  0  0  0  0  0  0  0
  192.0550  176.4750  146.1430 F   0  0  0  0  0  0  0  0  0  0  0  0
  1  6  1  6  0  0  0
  1  7  1  0  0  0  0
  2  3  1  6  0  0  0
  2  4  1  0  0  0  0
  4 29  1  1  0  0  0
  5 10  1  0  0  0  0
  5  8  1  0  0  0  0
  7  2  1  0  0  0  0
  7  4  1  0  0  0  0
  8 11  2  0  0  0  0
  9  3  1  0  0  0  0
 10  6  1  0  0  0  0
 11  9  1  0  0  0  0
 11  1  1  0  0  0  0
 12 17  1  0  0  0  0
 13 12  2  0  0  0  0
 13 10  1  0  0  0  0
 14 12  1  0  0  0  0
 15 13  1  0  0  0  0
 16 15  2  0  0  0  0
 16 14  1  0  0  0  0
 17 20  1  0  0  0  0
 18 20  2  0  0  0  0
 19 20  2  0  0  0  0
 20 22  1  0  0  0  0
 22 24  1  0  0  0  0
 22 23  1  0  0  0  0
 22 21  1  0  0  0  0
 23 21  1  0  0  0  0
 25 26  2  0  0  0  0
 26 27  1  0  0  0  0
 26 24  1  0  0  0  0
 28 27  1  0  0  0  0
 29 30  1  0  0  0  0
 29 32  1  0  0  0  0
 31 30  1  0  0  0  0
 32 34  1  0  0  0  0
 34 33  1  0  0  0  0
 35 32  1  0  0  0  0
 35 38  1  0  0  0  0
 38 37  1  0  0  0  0
 38 36  1  0  0  0  0
 39 38  1  0  0  0  0
M  END
>  <MODEL>
9

>  <REMARK>
 VINA RESULT:      -7.6      2.989      6.544
  Name = 
  13 active torsions:
  status: ('A' for Active; 'I' for Inactive)
    1  A    between atoms: O_1  and  C_7
    2  A    between atoms: C_7  and  O_17
    3  A    between atoms: C_10  and  N_16
    4  A    between atoms: C_12  and  C_19
    5  A    between atoms: C_12  and  C_22
    6  A    between atoms: C_12  and  O_34
    7  A    between atoms: O_13  and  C_19
    8  A    between atoms: C_15  and  O_17
    9  A    between atoms: C_15  and  S_33
   10  A    between atoms: N_16  and  S_33
   11  A    between atoms: C_18  and  C_19
   12  A    between atoms: C_23  and  C_35
   13  A    between atoms: C_32  and  O_34
                            x       y       z     vdW  Elec       q    Type
                         _______ _______ _______ _____ _____    ______ ____

>  <TORSDO>
F 13

$$$$
