=
 OpenBabel11062416583D

 26 30  0  0  1  0  0  0  0  0999 V2000
  186.5240  177.9550  144.4270 N   0  0  0  0  0  0  0  0  0  0  0  0
  182.8830  177.7920  140.5060 C   0  0  2  0  0  3  0  0  0  0  0  0
  181.2630  178.6470  141.9710 N   0  0  0  0  0  0  0  0  0  0  0  0
  187.4050  177.7730  145.4490 C   0  0  0  0  0  0  0  0  0  0  0  0
  185.2560  178.4050  144.6380 C   0  0  0  0  0  0  0  0  0  0  0  0
  184.7180  178.2350  142.2080 N   0  0  0  0  0  2  0  0  0  0  0  0
  184.3700  178.5840  143.5280 N   0  0  0  0  0  0  0  0  0  0  0  0
  181.4270  177.9670  140.8780 C   0  0  0  0  0  3  0  0  0  0  0  0
  184.8350  178.6940  145.9430 C   0  0  0  0  0  3  0  0  0  0  0  0
  185.7220  178.5130  147.0060 C   0  0  0  0  0  3  0  0  0  0  0  0
  187.0150  178.0490  146.7620 C   0  0  0  0  0  3  0  0  0  0  0  0
  182.5650  179.0040  142.3860 C   0  0  1  0  0  3  0  0  0  0  0  0
  182.9940  178.9550  143.6250 C   0  0  0  0  0  2  0  0  0  0  0  0
  183.5690  178.6120  141.4950 N   0  0  2  0  0  0  0  0  0  0  0  0
  183.1320  178.2700  139.0670 C   0  0  1  0  0  3  0  0  0  0  0  0
  184.1150  179.4260  138.9700 C   0  0  0  0  0  2  0  0  0  0  0  0
  185.0970  178.5280  138.2390 C   0  0  2  0  0  3  0  0  0  0  0  0
  184.1190  177.3720  138.3450 C   0  0  0  0  0  2  0  0  0  0  0  0
  186.1910  178.2850  139.0480 F   0  0  0  0  0  0  0  0  0  0  0  0
  188.7880  177.2720  145.1810 C   0  0  1  0  0  3  0  0  0  0  0  0
  190.1550  178.6310  143.8170 O   0  0  0  0  0  0  0  0  0  0  0  0
  189.2880  177.7740  143.8630 C   0  0  0  0  0  3  0  0  0  0  0  0
  189.6520  177.6860  146.1990 O   0  0  0  0  0  0  0  0  0  0  0  0
  190.2460  176.5130  146.6690 C   0  0  0  0  0  3  0  0  0  0  0  0
  191.3420  176.8710  147.6530 C   0  0  0  0  0  2  0  0  0  0  0  0
  191.6970  176.4820  146.2340 C   0  0  0  0  0  2  0  0  0  0  0  0
  1  5  2  0  0  0  0
  1  4  1  0  0  0  0
  2  8  1  1  0  0  0
  2 14  1  0  0  0  0
  3 12  1  0  0  0  0
  4 11  2  0  0  0  0
  5  9  1  0  0  0  0
  6  7  1  0  0  0  0
  7 13  1  0  0  0  0
  7  5  1  0  0  0  0
  8  3  2  0  0  0  0
  9 10  2  0  0  0  0
 11 10  1  0  0  0  0
 12 13  1  1  0  0  0
 14  6  1  1  0  0  0
 14 12  1  0  0  0  0
 15 18  1  6  0  0  0
 15  2  1  0  0  0  0
 16 15  1  0  0  0  0
 17 18  1  0  0  0  0
 17 16  1  0  0  0  0
 17 19  1  1  0  0  0
 20 22  1  6  0  0  0
 20  4  1  0  0  0  0
 20 23  1  0  0  0  0
 21 22  2  0  0  0  0
 23 24  1  0  0  0  0
 24 25  1  0  0  0  0
 26 24  1  0  0  0  0
 26 25  1  0  0  0  0
M  END
>  <MODEL>
1

>  <REMARK>
 VINA RESULT:      -7.9      0.000      0.000
  Name = 
  5 active torsions:
  status: ('A' for Active; 'I' for Inactive)
    1  A    between atoms: C_2  and  O_9
    2  A    between atoms: C_3  and  C_8
    3  A    between atoms: C_6  and  C_20
    4  A    between atoms: O_9  and  C_20
    5  A    between atoms: C_10  and  C_20
                            x       y       z     vdW  Elec       q    Type
                         _______ _______ _______ _____ _____    ______ ____

>  <TORSDO>
F 5

$$$$
=
 OpenBabel11062416583D

 26 30  0  0  1  0  0  0  0  0999 V2000
  186.1710  177.9280  144.3080 N   0  0  0  0  0  0  0  0  0  0  0  0
  182.2770  177.7880  140.6380 C   0  0  2  0  0  3  0  0  0  0  0  0
  180.7780  178.7080  142.1900 N   0  0  0  0  0  0  0  0  0  0  0  0
  187.1140  177.7420  145.2740 C   0  0  0  0  0  0  0  0  0  0  0  0
  184.9310  178.4130  144.5940 C   0  0  0  0  0  0  0  0  0  0  0  0
  184.2300  178.2150  142.2070 N   0  0  0  0  0  2  0  0  0  0  0  0
  183.9790  178.5950  143.5410 N   0  0  0  0  0  0  0  0  0  0  0  0
  180.8530  178.0060  141.1010 C   0  0  0  0  0  3  0  0  0  0  0  0
  184.6040  178.7350  145.9180 C   0  0  0  0  0  3  0  0  0  0  0  0
  185.5540  178.5500  146.9240 C   0  0  0  0  0  3  0  0  0  0  0  0
  186.8170  178.0500  146.6040 C   0  0  0  0  0  3  0  0  0  0  0  0
  182.1120  179.0400  142.5120 C   0  0  1  0  0  3  0  0  0  0  0  0
  182.6210  179.0020  143.7210 C   0  0  0  0  0  2  0  0  0  0  0  0
  183.0460  178.6080  141.5640 N   0  0  2  0  0  0  0  0  0  0  0  0
  182.4420  178.2360  139.1770 C   0  0  1  0  0  3  0  0  0  0  0  0
  183.3350  179.4550  139.0090 C   0  0  0  0  0  2  0  0  0  0  0  0
  184.3530  178.6070  138.2720 C   0  0  2  0  0  3  0  0  0  0  0  0
  183.4670  177.3880  138.4470 C   0  0  0  0  0  2  0  0  0  0  0  0
  185.4890  178.4690  139.0470 F   0  0  0  0  0  0  0  0  0  0  0  0
  188.4640  177.2020  144.9250 C   0  0  1  0  0  3  0  0  0  0  0  0
  188.2980  175.6280  143.1730 O   0  0  0  0  0  0  0  0  0  0  0  0
  188.5130  176.7870  143.4880 C   0  0  0  0  0  3  0  0  0  0  0  0
  189.4420  178.1700  145.1680 O   0  0  0  0  0  0  0  0  0  0  0  0
  190.2360  178.1790  144.0190 C   0  0  0  0  0  3  0  0  0  0  0  0
  191.6950  178.1170  144.4240 C   0  0  0  0  0  2  0  0  0  0  0  0
  191.0810  179.4360  144.0090 C   0  0  0  0  0  2  0  0  0  0  0  0
  1  5  2  0  0  0  0
  1  4  1  0  0  0  0
  2  8  1  1  0  0  0
  2 14  1  0  0  0  0
  3 12  1  0  0  0  0
  4 11  2  0  0  0  0
  5  9  1  0  0  0  0
  6  7  1  0  0  0  0
  7 13  1  0  0  0  0
  7  5  1  0  0  0  0
  8  3  2  0  0  0  0
  9 10  2  0  0  0  0
 11 10  1  0  0  0  0
 12 13  1  1  0  0  0
 14  6  1  1  0  0  0
 14 12  1  0  0  0  0
 15 18  1  6  0  0  0
 15  2  1  0  0  0  0
 16 15  1  0  0  0  0
 17 18  1  0  0  0  0
 17 16  1  0  0  0  0
 17 19  1  1  0  0  0
 20 22  1  6  0  0  0
 20 23  1  0  0  0  0
 20  4  1  0  0  0  0
 21 22  2  0  0  0  0
 24 25  1  0  0  0  0
 24 23  1  0  0  0  0
 26 24  1  0  0  0  0
 26 25  1  0  0  0  0
M  END
>  <MODEL>
2

>  <REMARK>
 VINA RESULT:      -7.8      1.163      1.485
  Name = 
  5 active torsions:
  status: ('A' for Active; 'I' for Inactive)
    1  A    between atoms: C_2  and  O_9
    2  A    between atoms: C_3  and  C_8
    3  A    between atoms: C_6  and  C_20
    4  A    between atoms: O_9  and  C_20
    5  A    between atoms: C_10  and  C_20
                            x       y       z     vdW  Elec       q    Type
                         _______ _______ _______ _____ _____    ______ ____

>  <TORSDO>
F 5

$$$$
=
 OpenBabel11062416583D

 26 30  0  0  1  0  0  0  0  0999 V2000
  187.7910  177.5900  144.3040 N   0  0  0  0  0  0  0  0  0  0  0  0
  189.1150  177.7410  139.1190 C   0  0  2  0  0  3  0  0  0  0  0  0
  191.3180  177.1470  139.6620 N   0  0  0  0  0  0  0  0  0  0  0  0
  187.4800  177.7790  145.6160 C   0  0  0  0  0  0  0  0  0  0  0  0
  189.0500  177.2670  143.9000 C   0  0  0  0  0  0  0  0  0  0  0  0
  188.3600  177.2840  141.5030 N   0  0  0  0  0  2  0  0  0  0  0  0
  189.3240  177.0740  142.5090 N   0  0  0  0  0  0  0  0  0  0  0  0
  190.5840  177.7200  138.7580 C   0  0  0  0  0  3  0  0  0  0  0  0
  190.0660  177.1210  144.8560 C   0  0  0  0  0  3  0  0  0  0  0  0
  189.7690  177.3120  146.2060 C   0  0  0  0  0  3  0  0  0  0  0  0
  188.4700  177.6440  146.5930 C   0  0  0  0  0  3  0  0  0  0  0  0
  190.4150  176.7160  140.6580 C   0  0  1  0  0  3  0  0  0  0  0  0
  190.6160  176.8290  141.9500 C   0  0  0  0  0  2  0  0  0  0  0  0
  189.0720  176.9490  140.3410 N   0  0  2  0  0  0  0  0  0  0  0  0
  188.2740  177.1280  137.9890 C   0  0  1  0  0  3  0  0  0  0  0  0
  186.9140  177.7850  137.8150 C   0  0  0  0  0  2  0  0  0  0  0  0
  187.3380  178.3020  136.4530 C   0  0  2  0  0  3  0  0  0  0  0  0
  188.6990  177.6550  136.6300 C   0  0  0  0  0  2  0  0  0  0  0  0
  187.4700  179.6770  136.5010 F   0  0  0  0  0  0  0  0  0  0  0  0
  186.0870  178.1380  146.0240 C   0  0  1  0  0  3  0  0  0  0  0  0
  185.7780  179.9200  147.5420 O   0  0  0  0  0  0  0  0  0  0  0  0
  186.0740  178.7460  147.3910 C   0  0  0  0  0  3  0  0  0  0  0  0
  185.5380  179.0370  145.1050 O   0  0  0  0  0  0  0  0  0  0  0  0
  184.3840  178.4090  144.6300 C   0  0  0  0  0  3  0  0  0  0  0  0
  184.2280  178.7090  143.1530 C   0  0  0  0  0  2  0  0  0  0  0  0
  183.3990  179.4630  144.1690 C   0  0  0  0  0  2  0  0  0  0  0  0
  1  4  1  0  0  0  0
  2  8  1  6  0  0  0
  2 14  1  0  0  0  0
  3 12  1  0  0  0  0
  4 20  1  0  0  0  0
  4 11  2  0  0  0  0
  5  1  2  0  0  0  0
  5  9  1  0  0  0  0
  6  7  1  0  0  0  0
  7  5  1  0  0  0  0
  8  3  2  0  0  0  0
  9 10  2  0  0  0  0
 10 11  1  0  0  0  0
 12 13  1  1  0  0  0
 13  7  1  0  0  0  0
 14 12  1  0  0  0  0
 14  6  1  1  0  0  0
 15 18  1  6  0  0  0
 15  2  1  0  0  0  0
 16 15  1  0  0  0  0
 17 19  1  1  0  0  0
 17 18  1  0  0  0  0
 17 16  1  0  0  0  0
 20 22  1  1  0  0  0
 22 21  2  0  0  0  0
 23 20  1  0  0  0  0
 24 23  1  0  0  0  0
 25 26  1  0  0  0  0
 25 24  1  0  0  0  0
 26 24  1  0  0  0  0
M  END
>  <MODEL>
3

>  <REMARK>
 VINA RESULT:      -7.8      3.186      5.846
  Name = 
  5 active torsions:
  status: ('A' for Active; 'I' for Inactive)
    1  A    between atoms: C_2  and  O_9
    2  A    between atoms: C_3  and  C_8
    3  A    between atoms: C_6  and  C_20
    4  A    between atoms: O_9  and  C_20
    5  A    between atoms: C_10  and  C_20
                            x       y       z     vdW  Elec       q    Type
                         _______ _______ _______ _____ _____    ______ ____

>  <TORSDO>
F 5

$$$$
=
 OpenBabel11062416583D

 26 30  0  0  1  0  0  0  0  0999 V2000
  184.4870  178.2360  142.5370 N   0  0  0  0  0  0  0  0  0  0  0  0
  189.2230  177.7370  144.9830 C   0  0  2  0  0  3  0  0  0  0  0  0
  188.1770  177.9940  147.0660 N   0  0  0  0  0  0  0  0  0  0  0  0
  183.3440  178.5810  141.8810 C   0  0  0  0  0  0  0  0  0  0  0  0
  184.5710  178.2530  143.8960 C   0  0  0  0  0  0  0  0  0  0  0  0
  186.9670  177.5600  143.8250 N   0  0  0  0  0  2  0  0  0  0  0  0
  185.7930  177.8770  144.5390 N   0  0  0  0  0  0  0  0  0  0  0  0
  189.3110  178.1080  146.4470 C   0  0  0  0  0  3  0  0  0  0  0  0
  183.4540  178.6340  144.6530 C   0  0  0  0  0  3  0  0  0  0  0  0
  182.2730  178.9930  144.0000 C   0  0  0  0  0  3  0  0  0  0  0  0
  182.2140  178.9680  142.6060 C   0  0  0  0  0  3  0  0  0  0  0  0
  187.2700  177.5120  146.0970 C   0  0  1  0  0  3  0  0  0  0  0  0
  186.0400  177.9440  145.9440 C   0  0  0  0  0  2  0  0  0  0  0  0
  187.8590  177.2380  144.8590 N   0  0  2  0  0  0  0  0  0  0  0  0
  190.2740  176.6720  144.6330 C   0  0  1  0  0  3  0  0  0  0  0  0
  190.2050  176.1970  143.1890 C   0  0  0  0  0  2  0  0  0  0  0  0
  191.5650  176.8150  142.9230 C   0  0  2  0  0  3  0  0  0  0  0  0
  191.6300  177.2970  144.3600 C   0  0  0  0  0  2  0  0  0  0  0  0
  191.4230  177.8990  142.0770 F   0  0  0  0  0  0  0  0  0  0  0  0
  183.2890  178.5560  140.3870 C   0  0  1  0  0  3  0  0  0  0  0  0
  184.4160  180.1530  139.0620 O   0  0  0  0  0  0  0  0  0  0  0  0
  184.5130  179.1870  139.8010 C   0  0  0  0  0  3  0  0  0  0  0  0
  183.1780  177.2380  139.9350 O   0  0  0  0  0  0  0  0  0  0  0  0
  181.9160  177.1640  139.3410 C   0  0  0  0  0  3  0  0  0  0  0  0
  181.3290  175.7900  139.5920 C   0  0  0  0  0  2  0  0  0  0  0  0
  181.9420  176.1160  138.2480 C   0  0  0  0  0  2  0  0  0  0  0  0
  1  5  1  0  0  0  0
  2  8  1  1  0  0  0
  4  1  2  0  0  0  0
  4 11  1  0  0  0  0
  5  7  1  0  0  0  0
  5  9  2  0  0  0  0
  6  7  1  0  0  0  0
  7 13  1  0  0  0  0
  8  3  2  0  0  0  0
 10  9  1  0  0  0  0
 11 10  2  0  0  0  0
 12 13  1  6  0  0  0
 12  3  1  0  0  0  0
 14  6  1  6  0  0  0
 14  2  1  0  0  0  0
 14 12  1  0  0  0  0
 15 16  1  6  0  0  0
 15  2  1  0  0  0  0
 17 19  1  6  0  0  0
 17 16  1  0  0  0  0
 17 18  1  0  0  0  0
 18 15  1  0  0  0  0
 20 22  1  6  0  0  0
 20  4  1  0  0  0  0
 21 22  2  0  0  0  0
 23 20  1  0  0  0  0
 24 25  1  0  0  0  0
 24 23  1  0  0  0  0
 26 24  1  0  0  0  0
 26 25  1  0  0  0  0
M  END
>  <MODEL>
4

>  <REMARK>
 VINA RESULT:      -7.8      2.971      7.493
  Name = 
  5 active torsions:
  status: ('A' for Active; 'I' for Inactive)
    1  A    between atoms: C_2  and  O_9
    2  A    between atoms: C_3  and  C_8
    3  A    between atoms: C_6  and  C_20
    4  A    between atoms: O_9  and  C_20
    5  A    between atoms: C_10  and  C_20
                            x       y       z     vdW  Elec       q    Type
                         _______ _______ _______ _____ _____    ______ ____

>  <TORSDO>
F 5

$$$$
=
 OpenBabel11062416583D

 26 30  0  0  1  0  0  0  0  0999 V2000
  186.5360  178.1050  144.6160 N   0  0  0  0  0  0  0  0  0  0  0  0
  183.0100  177.8090  140.5990 C   0  0  2  0  0  3  0  0  0  0  0  0
  181.3190  178.5940  142.0220 N   0  0  0  0  0  0  0  0  0  0  0  0
  187.3970  177.9550  145.6610 C   0  0  0  0  0  0  0  0  0  0  0  0
  185.2460  178.5030  144.7940 C   0  0  0  0  0  0  0  0  0  0  0  0
  184.7800  178.3210  142.3500 N   0  0  0  0  0  2  0  0  0  0  0  0
  184.3840  178.6500  143.6620 N   0  0  0  0  0  0  0  0  0  0  0  0
  181.5390  177.9250  140.9320 C   0  0  0  0  0  3  0  0  0  0  0  0
  184.7790  178.7710  146.0890 C   0  0  0  0  0  3  0  0  0  0  0  0
  185.6440  178.6220  147.1740 C   0  0  0  0  0  3  0  0  0  0  0  0
  186.9610  178.2110  146.9640 C   0  0  0  0  0  3  0  0  0  0  0  0
  182.5930  179.0020  142.4730 C   0  0  1  0  0  3  0  0  0  0  0  0
  182.9920  178.9660  143.7230 C   0  0  0  0  0  2  0  0  0  0  0  0
  183.6360  178.6530  141.6080 N   0  0  2  0  0  0  0  0  0  0  0  0
  183.2780  178.3020  139.1680 C   0  0  1  0  0  3  0  0  0  0  0  0
  184.2850  179.4400  139.0930 C   0  0  0  0  0  2  0  0  0  0  0  0
  185.2530  178.5320  138.3560 C   0  0  2  0  0  3  0  0  0  0  0  0
  184.2510  177.3950  138.4400 C   0  0  0  0  0  2  0  0  0  0  0  0
  186.3370  178.2550  139.1680 F   0  0  0  0  0  0  0  0  0  0  0  0
  188.8050  177.5110  145.4280 C   0  0  1  0  0  3  0  0  0  0  0  0
  190.5550  177.0920  146.9570 O   0  0  0  0  0  0  0  0  0  0  0  0
  189.3830  176.9100  146.6710 C   0  0  0  0  0  3  0  0  0  0  0  0
  188.8450  176.5750  144.3910 O   0  0  0  0  0  0  0  0  0  0  0  0
  189.7770  177.0810  143.4820 C   0  0  0  0  0  3  0  0  0  0  0  0
  190.1170  176.0060  142.4700 C   0  0  0  0  0  2  0  0  0  0  0  0
  191.0690  176.3010  143.6090 C   0  0  0  0  0  2  0  0  0  0  0  0
  1  5  2  0  0  0  0
  1  4  1  0  0  0  0
  2  8  1  1  0  0  0
  2 14  1  0  0  0  0
  3 12  1  0  0  0  0
  4 11  2  0  0  0  0
  5  9  1  0  0  0  0
  6  7  1  0  0  0  0
  7 13  1  0  0  0  0
  7  5  1  0  0  0  0
  8  3  2  0  0  0  0
  9 10  2  0  0  0  0
 11 10  1  0  0  0  0
 12 13  1  1  0  0  0
 14  6  1  1  0  0  0
 14 12  1  0  0  0  0
 15 18  1  6  0  0  0
 15  2  1  0  0  0  0
 16 15  1  0  0  0  0
 17 18  1  0  0  0  0
 17 16  1  0  0  0  0
 17 19  1  1  0  0  0
 20  4  1  0  0  0  0
 20 22  1  1  0  0  0
 22 21  2  0  0  0  0
 23 20  1  0  0  0  0
 24 26  1  0  0  0  0
 24 23  1  0  0  0  0
 25 24  1  0  0  0  0
 25 26  1  0  0  0  0
M  END
>  <MODEL>
5

>  <REMARK>
 VINA RESULT:      -7.7      0.900      1.688
  Name = 
  5 active torsions:
  status: ('A' for Active; 'I' for Inactive)
    1  A    between atoms: C_2  and  O_9
    2  A    between atoms: C_3  and  C_8
    3  A    between atoms: C_6  and  C_20
    4  A    between atoms: O_9  and  C_20
    5  A    between atoms: C_10  and  C_20
                            x       y       z     vdW  Elec       q    Type
                         _______ _______ _______ _____ _____    ______ ____

>  <TORSDO>
F 5

$$$$
=
 OpenBabel11062416583D

 26 30  0  0  1  0  0  0  0  0999 V2000
  188.9360  177.2470  144.6540 N   0  0  0  0  0  0  0  0  0  0  0  0
  188.7440  177.8290  139.3360 C   0  0  2  0  0  3  0  0  0  0  0  0
  191.0180  177.2740  139.1900 N   0  0  0  0  0  0  0  0  0  0  0  0
  189.0050  177.3270  146.0120 C   0  0  0  0  0  0  0  0  0  0  0  0
  190.0350  177.0000  143.8890 C   0  0  0  0  0  0  0  0  0  0  0  0
  188.6970  177.1700  141.7910 N   0  0  0  0  0  2  0  0  0  0  0  0
  189.9080  176.9200  142.4660 N   0  0  0  0  0  0  0  0  0  0  0  0
  190.0520  177.8860  138.5780 C   0  0  0  0  0  3  0  0  0  0  0  0
  191.2800  176.8190  144.5070 C   0  0  0  0  0  3  0  0  0  0  0  0
  191.3740  176.8980  145.8980 C   0  0  0  0  0  3  0  0  0  0  0  0
  190.2320  177.1550  146.6580 C   0  0  0  0  0  3  0  0  0  0  0  0
  190.4380  176.7390  140.3610 C   0  0  1  0  0  3  0  0  0  0  0  0
  190.9930  176.7630  141.5500 C   0  0  0  0  0  2  0  0  0  0  0  0
  189.0570  176.9470  140.4520 N   0  0  2  0  0  0  0  0  0  0  0  0
  187.6270  177.2730  138.4400 C   0  0  1  0  0  3  0  0  0  0  0  0
  186.4810  178.2480  138.2160 C   0  0  0  0  0  2  0  0  0  0  0  0
  186.8430  178.3340  136.7450 C   0  0  2  0  0  3  0  0  0  0  0  0
  187.9920  177.3680  136.9700 C   0  0  0  0  0  2  0  0  0  0  0  0
  187.3430  179.5910  136.4640 F   0  0  0  0  0  0  0  0  0  0  0  0
  187.7790  177.6060  146.8200 C   0  0  1  0  0  3  0  0  0  0  0  0
  187.9300  177.5080  149.1750 O   0  0  0  0  0  0  0  0  0  0  0  0
  188.1430  178.1560  148.1630 C   0  0  0  0  0  3  0  0  0  0  0  0
  186.9590  178.5160  146.1460 O   0  0  0  0  0  0  0  0  0  0  0  0
  185.8510  177.7710  145.7370 C   0  0  0  0  0  3  0  0  0  0  0  0
  185.2560  178.4070  144.4970 C   0  0  0  0  0  2  0  0  0  0  0  0
  184.6080  178.6290  145.8470 C   0  0  0  0  0  2  0  0  0  0  0  0
  1  4  1  0  0  0  0
  2  8  1  6  0  0  0
  2 14  1  0  0  0  0
  3 12  1  0  0  0  0
  4 11  2  0  0  0  0
  4 20  1  0  0  0  0
  5  9  1  0  0  0  0
  5  1  2  0  0  0  0
  6  7  1  0  0  0  0
  7  5  1  0  0  0  0
  8  3  2  0  0  0  0
  9 10  2  0  0  0  0
 10 11  1  0  0  0  0
 12 14  1  0  0  0  0
 12 13  1  1  0  0  0
 13  7  1  0  0  0  0
 14  6  1  1  0  0  0
 15 18  1  6  0  0  0
 15  2  1  0  0  0  0
 16 15  1  0  0  0  0
 17 19  1  1  0  0  0
 17 18  1  0  0  0  0
 17 16  1  0  0  0  0
 20 22  1  1  0  0  0
 22 21  2  0  0  0  0
 23 20  1  0  0  0  0
 24 26  1  0  0  0  0
 24 23  1  0  0  0  0
 25 24  1  0  0  0  0
 25 26  1  0  0  0  0
M  END
>  <MODEL>
6

>  <REMARK>
 VINA RESULT:      -7.6      3.217      5.660
  Name = 
  5 active torsions:
  status: ('A' for Active; 'I' for Inactive)
    1  A    between atoms: C_2  and  O_9
    2  A    between atoms: C_3  and  C_8
    3  A    between atoms: C_6  and  C_20
    4  A    between atoms: O_9  and  C_20
    5  A    between atoms: C_10  and  C_20
                            x       y       z     vdW  Elec       q    Type
                         _______ _______ _______ _____ _____    ______ ____

>  <TORSDO>
F 5

$$$$
=
 OpenBabel11062416583D

 26 30  0  0  1  0  0  0  0  0999 V2000
  188.8950  177.6540  144.0470 N   0  0  0  0  0  0  0  0  0  0  0  0
  190.5930  176.4760  139.1080 C   0  0  2  0  0  3  0  0  0  0  0  0
  188.4390  176.8740  138.2700 N   0  0  0  0  0  0  0  0  0  0  0  0
  188.4490  177.7270  145.3310 C   0  0  0  0  0  0  0  0  0  0  0  0
  188.0510  177.7460  142.9830 C   0  0  0  0  0  0  0  0  0  0  0  0
  189.9300  177.4150  141.3760 N   0  0  0  0  0  2  0  0  0  0  0  0
  188.5720  177.6680  141.6520 N   0  0  0  0  0  0  0  0  0  0  0  0
  189.5540  176.2540  138.0320 C   0  0  0  0  0  3  0  0  0  0  0  0
  186.6780  177.9220  143.2040 C   0  0  0  0  0  3  0  0  0  0  0  0
  186.1980  177.9980  144.5130 C   0  0  0  0  0  3  0  0  0  0  0  0
  187.0850  177.8990  145.5860 C   0  0  0  0  0  3  0  0  0  0  0  0
  188.6530  177.5740  139.4780 C   0  0  1  0  0  3  0  0  0  0  0  0
  187.7850  177.6540  140.4590 C   0  0  0  0  0  2  0  0  0  0  0  0
  189.9560  177.4600  139.9730 N   0  0  2  0  0  0  0  0  0  0  0  0
  191.9040  176.9910  138.4930 C   0  0  1  0  0  3  0  0  0  0  0  0
  193.1510  176.3850  139.1180 C   0  0  0  0  0  2  0  0  0  0  0  0
  193.4690  175.6910  137.8070 C   0  0  2  0  0  3  0  0  0  0  0  0
  192.2190  176.2880  137.1860 C   0  0  0  0  0  2  0  0  0  0  0  0
  193.3060  174.3260  137.9550 F   0  0  0  0  0  0  0  0  0  0  0  0
  189.4040  177.6170  146.4760 C   0  0  1  0  0  3  0  0  0  0  0  0
  189.1500  178.4120  148.6850 O   0  0  0  0  0  0  0  0  0  0  0  0
  188.6830  177.7380  147.7820 C   0  0  0  0  0  3  0  0  0  0  0  0
  190.0740  176.3920  146.4220 O   0  0  0  0  0  0  0  0  0  0  0  0
  191.4290  176.7150  146.5260 C   0  0  0  0  0  3  0  0  0  0  0  0
  192.2560  175.4640  146.3120 C   0  0  0  0  0  2  0  0  0  0  0  0
  192.0240  175.9860  147.7130 C   0  0  0  0  0  2  0  0  0  0  0  0
  1  4  1  0  0  0  0
  2  8  1  6  0  0  0
  2 14  1  0  0  0  0
  3 12  1  0  0  0  0
  4 11  2  0  0  0  0
  4 20  1  0  0  0  0
  5  9  1  0  0  0  0
  5  1  2  0  0  0  0
  6  7  1  0  0  0  0
  7  5  1  0  0  0  0
  8  3  2  0  0  0  0
  9 10  2  0  0  0  0
 10 11  1  0  0  0  0
 12 14  1  0  0  0  0
 12 13  1  1  0  0  0
 13  7  1  0  0  0  0
 14  6  1  1  0  0  0
 15 18  1  6  0  0  0
 15  2  1  0  0  0  0
 15 16  1  0  0  0  0
 17 19  1  1  0  0  0
 17 16  1  0  0  0  0
 18 17  1  0  0  0  0
 20 22  1  1  0  0  0
 22 21  2  0  0  0  0
 23 20  1  0  0  0  0
 23 24  1  0  0  0  0
 24 26  1  0  0  0  0
 25 24  1  0  0  0  0
 25 26  1  0  0  0  0
M  END
>  <MODEL>
7

>  <REMARK>
 VINA RESULT:      -7.4      4.224      5.752
  Name = 
  5 active torsions:
  status: ('A' for Active; 'I' for Inactive)
    1  A    between atoms: C_2  and  O_9
    2  A    between atoms: C_3  and  C_8
    3  A    between atoms: C_6  and  C_20
    4  A    between atoms: O_9  and  C_20
    5  A    between atoms: C_10  and  C_20
                            x       y       z     vdW  Elec       q    Type
                         _______ _______ _______ _____ _____    ______ ____

>  <TORSDO>
F 5

$$$$
=
 OpenBabel11062416583D

 26 30  0  0  1  0  0  0  0  0999 V2000
  184.9320  178.5840  142.2520 N   0  0  0  0  0  0  0  0  0  0  0  0
  190.0430  177.0120  142.0020 C   0  0  2  0  0  3  0  0  0  0  0  0
  190.0480  177.3840  139.6870 N   0  0  0  0  0  0  0  0  0  0  0  0
  183.5830  178.7600  142.3150 C   0  0  0  0  0  0  0  0  0  0  0  0
  185.6100  178.6110  141.0710 C   0  0  0  0  0  0  0  0  0  0  0  0
  187.7700  178.1290  142.2210 N   0  0  0  0  0  2  0  0  0  0  0  0
  187.0290  178.4260  141.0600 N   0  0  0  0  0  0  0  0  0  0  0  0
  190.6360  176.7290  140.6400 C   0  0  0  0  0  3  0  0  0  0  0  0
  184.9070  178.8270  139.8770 C   0  0  0  0  0  3  0  0  0  0  0  0
  183.5240  179.0090  139.9180 C   0  0  0  0  0  3  0  0  0  0  0  0
  182.8540  178.9740  141.1420 C   0  0  0  0  0  3  0  0  0  0  0  0
  189.0630  178.1680  140.3270 C   0  0  1  0  0  3  0  0  0  0  0  0
  187.8380  178.3370  139.8860 C   0  0  0  0  0  2  0  0  0  0  0  0
  189.0810  178.0690  141.7220 N   0  0  2  0  0  0  0  0  0  0  0  0
  191.1390  177.4560  142.9840 C   0  0  1  0  0  3  0  0  0  0  0  0
  190.6600  178.4640  144.0180 C   0  0  0  0  0  2  0  0  0  0  0  0
  190.8820  177.4410  145.1160 C   0  0  2  0  0  3  0  0  0  0  0  0
  191.3510  176.4320  144.0830 C   0  0  0  0  0  2  0  0  0  0  0  0
  189.6620  177.0430  145.6310 F   0  0  0  0  0  0  0  0  0  0  0  0
  182.8710  178.7180  143.6290 C   0  0  1  0  0  3  0  0  0  0  0  0
  183.5800  178.9620  145.8680 O   0  0  0  0  0  0  0  0  0  0  0  0
  183.7150  179.3180  144.7080 C   0  0  0  0  0  3  0  0  0  0  0  0
  181.6610  179.4120  143.5380 O   0  0  0  0  0  0  0  0  0  0  0  0
  180.6910  178.5060  143.9720 C   0  0  0  0  0  3  0  0  0  0  0  0
  179.4930  178.5800  143.0460 C   0  0  0  0  0  2  0  0  0  0  0  0
  179.4520  179.2690  144.3920 C   0  0  0  0  0  2  0  0  0  0  0  0
  1  4  1  0  0  0  0
  2  8  1  6  0  0  0
  2 15  1  0  0  0  0
  3 12  1  0  0  0  0
  3  8  2  0  0  0  0
  4 20  1  0  0  0  0
  5  1  2  0  0  0  0
  7  5  1  0  0  0  0
  7  6  1  0  0  0  0
  9 10  2  0  0  0  0
  9  5  1  0  0  0  0
 10 11  1  0  0  0  0
 11  4  2  0  0  0  0
 12 13  1  6  0  0  0
 12 14  1  0  0  0  0
 13  7  1  0  0  0  0
 14  2  1  0  0  0  0
 14  6  1  6  0  0  0
 15 16  1  1  0  0  0
 15 18  1  0  0  0  0
 16 17  1  0  0  0  0
 17 19  1  6  0  0  0
 18 17  1  0  0  0  0
 20 22  1  1  0  0  0
 22 21  2  0  0  0  0
 23 20  1  0  0  0  0
 23 24  1  0  0  0  0
 24 26  1  0  0  0  0
 25 24  1  0  0  0  0
 25 26  1  0  0  0  0
M  END
>  <MODEL>
8

>  <REMARK>
 VINA RESULT:      -7.3      3.556      7.717
  Name = 
  5 active torsions:
  status: ('A' for Active; 'I' for Inactive)
    1  A    between atoms: C_2  and  O_9
    2  A    between atoms: C_3  and  C_8
    3  A    between atoms: C_6  and  C_20
    4  A    between atoms: O_9  and  C_20
    5  A    between atoms: C_10  and  C_20
                            x       y       z     vdW  Elec       q    Type
                         _______ _______ _______ _____ _____    ______ ____

>  <TORSDO>
F 5

$$$$
=
 OpenBabel11062416583D

 26 30  0  0  1  0  0  0  0  0999 V2000
  189.1640  177.2960  142.9600 N   0  0  0  0  0  0  0  0  0  0  0  0
  191.0750  176.2010  138.0810 C   0  0  2  0  0  3  0  0  0  0  0  0
  189.0870  176.9920  137.1210 N   0  0  0  0  0  0  0  0  0  0  0  0
  188.6260  177.3510  144.2100 C   0  0  0  0  0  0  0  0  0  0  0  0
  188.4370  177.5920  141.8470 C   0  0  0  0  0  0  0  0  0  0  0  0
  190.3740  177.0780  140.3610 N   0  0  0  0  0  2  0  0  0  0  0  0
  189.0510  177.5240  140.5560 N   0  0  0  0  0  0  0  0  0  0  0  0
  190.1100  176.2210  136.9160 C   0  0  0  0  0  3  0  0  0  0  0  0
  187.0930  177.9690  141.9810 C   0  0  0  0  0  3  0  0  0  0  0  0
  186.5210  178.0310  143.2530 C   0  0  0  0  0  3  0  0  0  0  0  0
  187.2880  177.7200  144.3760 C   0  0  0  0  0  3  0  0  0  0  0  0
  189.3020  177.5660  138.3940 C   0  0  1  0  0  3  0  0  0  0  0  0
  188.3760  177.7160  139.3120 C   0  0  0  0  0  2  0  0  0  0  0  0
  190.5250  177.2130  138.9730 N   0  0  2  0  0  0  0  0  0  0  0  0
  192.4970  176.5430  137.6070 C   0  0  1  0  0  3  0  0  0  0  0  0
  193.5850  175.7650  138.3310 C   0  0  0  0  0  2  0  0  0  0  0  0
  193.9350  175.0520  137.0380 C   0  0  2  0  0  3  0  0  0  0  0  0
  192.8430  175.8210  136.3180 C   0  0  0  0  0  2  0  0  0  0  0  0
  193.5770  173.7200  137.1330 F   0  0  0  0  0  0  0  0  0  0  0  0
  189.4520  177.0130  145.4090 C   0  0  1  0  0  3  0  0  0  0  0  0
  191.7620  177.3030  145.8060 O   0  0  0  0  0  0  0  0  0  0  0  0
  190.8980  176.9030  145.0420 C   0  0  0  0  0  3  0  0  0  0  0  0
  189.2900  177.9930  146.3920 O   0  0  0  0  0  0  0  0  0  0  0  0
  188.7970  177.3110  147.5060 C   0  0  0  0  0  3  0  0  0  0  0  0
  187.6380  178.0910  148.0940 C   0  0  0  0  0  2  0  0  0  0  0  0
  189.0040  178.1620  148.7420 C   0  0  0  0  0  2  0  0  0  0  0  0
  1  4  1  0  0  0  0
  2  8  1  6  0  0  0
  2 14  1  0  0  0  0
  3 12  1  0  0  0  0
  4 11  2  0  0  0  0
  4 20  1  0  0  0  0
  5  9  1  0  0  0  0
  5  1  2  0  0  0  0
  6  7  1  0  0  0  0
  7  5  1  0  0  0  0
  8  3  2  0  0  0  0
  9 10  2  0  0  0  0
 10 11  1  0  0  0  0
 12 14  1  0  0  0  0
 12 13  1  1  0  0  0
 13  7  1  0  0  0  0
 14  6  1  1  0  0  0
 15 18  1  6  0  0  0
 15  2  1  0  0  0  0
 15 16  1  0  0  0  0
 17 19  1  1  0  0  0
 17 16  1  0  0  0  0
 18 17  1  0  0  0  0
 20 22  1  6  0  0  0
 20 23  1  0  0  0  0
 22 21  2  0  0  0  0
 23 24  1  0  0  0  0
 24 25  1  0  0  0  0
 24 26  1  0  0  0  0
 25 26  1  0  0  0  0
M  END
>  <MODEL>
9

>  <REMARK>
 VINA RESULT:      -7.3      4.912      6.407
  Name = 
  5 active torsions:
  status: ('A' for Active; 'I' for Inactive)
    1  A    between atoms: C_2  and  O_9
    2  A    between atoms: C_3  and  C_8
    3  A    between atoms: C_6  and  C_20
    4  A    between atoms: O_9  and  C_20
    5  A    between atoms: C_10  and  C_20
                            x       y       z     vdW  Elec       q    Type
                         _______ _______ _______ _____ _____    ______ ____

>  <TORSDO>
F 5

$$$$
