=
 OpenBabel11062417393D

 39 45  0  0  1  0  0  0  0  0999 V2000
  185.3180  176.8610  136.0870 C   0  0  0  0  0  3  0  0  0  0  0  0
  185.7840  178.2520  138.6140 C   0  0  0  0  0  0  0  0  0  0  0  0
  182.3640  179.1660  137.8050 C   0  0  2  0  0  3  0  0  0  0  0  0
  181.1650  178.8400  140.7280 P   0  0  1  0  0  0  0  0  0  0  0  0
  185.4910  179.0020  142.2100 C   0  0  2  0  0  3  0  0  0  0  0  0
  182.6550  177.9440  140.2110 C   0  0  2  0  0  0  0  0  0  0  0  0
  184.2020  177.0010  137.1050 C   0  0  0  0  0  2  0  0  0  0  0  0
  180.1650  179.5820  136.8480 O   0  0  0  0  0  1  0  0  0  0  0  0
  182.2480  176.5230  139.8620 C   0  0  0  0  0  1  0  0  0  0  0  0
  186.8380  177.8830  137.6640 C   0  0  0  0  0  0  0  0  0  0  0  0
  183.5030  177.8940  141.3560 O   0  0  0  0  0  0  0  0  0  0  0  0
  184.4920  177.9480  138.2790 C   0  0  0  0  0  0  0  0  0  0  0  0
  184.3610  178.9400  141.2540 N   0  0  2  0  0  0  0  0  0  0  0  0
  180.1160  179.0130  139.2630 C   0  0  2  0  0  3  0  0  0  0  0  0
  188.6600  177.6920  136.3500 N   0  0  0  0  0  0  0  0  0  0  0  0
  180.8920  179.4910  138.0360 C   0  0  1  0  0  0  0  0  0  0  0  0
  186.1440  178.8340  139.8360 O   0  0  0  0  0  0  0  0  0  0  0  0
  180.3530  177.9660  141.9290 O   0  0  0  0  0  1  0  0  0  0  0  0
  187.7280  177.1700  135.6520 N   0  0  0  0  0  0  0  0  0  0  0  0
  186.5410  177.2460  136.4230 C   0  0  0  0  0  0  0  0  0  0  0  0
  183.2880  178.6320  138.9270 C   0  0  1  0  0  3  0  0  0  0  0  0
  181.5380  180.2030  141.2650 O   0  0  0  0  0  0  0  0  0  0  0  0
  185.6100  178.2280  140.9890 C   0  0  1  0  0  3  0  0  0  0  0  0
  188.1350  178.1450  137.6100 C   0  0  0  0  0  0  0  0  0  0  0  0
  181.9220  180.5850  138.1760 C   0  0  0  0  0  2  0  0  0  0  0  0
  188.9100  178.9120  138.6420 C   0  0  0  0  0  2  0  0  0  0  0  0
  190.1550  176.7880  141.5800 C   0  0  0  0  0  1  0  0  0  0  0  0
  189.3130  177.6690  140.7250 C   0  0  0  0  0  3  0  0  0  0  0  0
  189.7400  178.0230  139.5140 C   0  0  0  0  0  3  0  0  0  0  0  0
  185.2700  178.0890  143.4110 C   0  0  0  0  0  2  0  0  0  0  0  0
  186.4500  178.5940  147.6320 F   0  0  0  0  0  0  0  0  0  0  0  0
  186.2410  178.4450  144.5300 C   0  0  0  0  0  3  0  0  0  0  0  0
  186.2480  177.3430  145.5770 C   0  0  0  0  0  2  0  0  0  0  0  0
  185.5860  179.3910  145.5290 C   0  0  0  0  0  2  0  0  0  0  0  0
  185.6130  178.2960  146.5700 C   0  0  0  0  0  0  0  0  0  0  0  0
  184.3470  177.8980  146.9630 F   0  0  0  0  0  0  0  0  0  0  0  0
  178.9420  179.9400  139.5460 C   0  0  0  0  0  2  0  0  0  0  0  0
  179.4230  181.2120  140.2200 C   0  0  0  0  0  2  0  0  0  0  0  0
  178.9310  182.4130  139.4400 C   0  0  0  0  0  1  0  0  0  0  0  0
  1 20  2  0  0  0  0
  1  7  1  0  0  0  0
  2 17  1  0  0  0  0
  3 16  1  0  0  0  0
  3 25  1  1  0  0  0
  3 21  1  0  0  0  0
  4 22  2  1  0  0  0
  4 18  1  0  0  0  0
  5 30  1  1  0  0  0
  6  9  1  6  0  0  0
  6  4  1  0  0  0  0
  6 11  1  0  0  0  0
  7 12  1  0  0  0  0
 10  2  1  0  0  0  0
 12  2  2  0  0  0  0
 13 11  1  1  0  0  0
 13  5  1  0  0  0  0
 14 37  1  1  0  0  0
 14  4  1  0  0  0  0
 15 24  1  0  0  0  0
 16  8  1  6  0  0  0
 16 25  1  0  0  0  0
 16 14  1  0  0  0  0
 19 15  2  0  0  0  0
 19 20  1  0  0  0  0
 20 10  1  0  0  0  0
 21 12  1  6  0  0  0
 21  6  1  0  0  0  0
 23 17  1  6  0  0  0
 23 13  1  0  0  0  0
 23  5  1  0  0  0  0
 24 10  2  0  0  0  0
 24 26  1  0  0  0  0
 26 29  1  0  0  0  0
 28 27  1  0  0  0  0
 29 28  2  0  0  0  0
 30 32  1  0  0  0  0
 32 34  1  0  0  0  0
 32 33  1  0  0  0  0
 33 35  1  0  0  0  0
 34 35  1  0  0  0  0
 35 36  1  0  0  0  0
 35 31  1  0  0  0  0
 37 38  1  0  0  0  0
 39 38  1  0  0  0  0
M  END
>  <MODEL>
1

>  <REMARK>
 VINA RESULT:      -8.1      0.000      0.000
  Name = 
  6 active torsions:
  status: ('A' for Active; 'I' for Inactive)
    1  A    between atoms: C_1  and  C_31
    2  A    between atoms: C_1  and  C_36
    3  A    between atoms: C_7  and  C_35
    4  A    between atoms: C_14  and  C_35
    5  A    between atoms: C_19  and  C_38
    6  A    between atoms: C_20  and  C_38
                            x       y       z     vdW  Elec       q    Type
                         _______ _______ _______ _____ _____    ______ ____

>  <TORSDO>
F 6

$$$$
=
 OpenBabel11062417393D

 39 45  0  0  1  0  0  0  0  0999 V2000
  182.2740  179.2150  143.7550 C   0  0  0  0  0  3  0  0  0  0  0  0
  184.2870  178.2550  141.8670 C   0  0  0  0  0  0  0  0  0  0  0  0
  181.1930  176.9520  140.4840 C   0  0  2  0  0  3  0  0  0  0  0  0
  181.8140  177.6050  137.4380 P   0  0  1  0  0  0  0  0  0  0  0  0
  186.1880  178.0230  138.7180 C   0  0  2  0  0  3  0  0  0  0  0  0
  182.5970  178.5350  138.7840 C   0  0  2  0  0  0  0  0  0  0  0  0
  181.9610  179.1350  142.2730 C   0  0  0  0  0  3  0  0  0  0  0  0
  178.9310  176.2190  139.9630 O   0  0  0  0  0  1  0  0  0  0  0  0
  181.8530  179.8510  138.9370 C   0  0  0  0  0  1  0  0  0  0  0  0
  184.5520  178.5670  143.2750 C   0  0  0  0  0  0  0  0  0  0  0  0
  183.9230  178.8240  138.3470 O   0  0  0  0  0  0  0  0  0  0  0  0
  183.0020  178.3990  141.4160 C   0  0  0  0  0  0  0  0  0  0  0  0
  184.7220  177.8490  138.8480 N   0  0  2  0  0  0  0  0  0  0  0  0
  180.1640  177.1310  138.0120 C   0  0  2  0  0  3  0  0  0  0  0  0
  185.2640  178.7120  145.4100 N   0  0  0  0  0  0  0  0  0  0  0  0
  180.1760  176.5430  139.4230 C   0  0  1  0  0  0  0  0  0  0  0  0
  185.3560  177.8920  141.0390 O   0  0  0  0  0  0  0  0  0  0  0  0
  181.6960  178.5760  136.0570 O   0  0  0  0  0  0  0  0  0  0  0  0
  184.0340  179.0460  145.4770 N   0  0  0  0  0  0  0  0  0  0  0  0
  183.5150  178.9860  144.1600 C   0  0  2  0  0  3  0  0  0  0  0  0
  182.4930  177.7200  140.1440 C   0  0  1  0  0  3  0  0  0  0  0  0
  182.6270  176.3710  137.1180 O   0  0  0  0  0  1  0  0  0  0  0  0
  185.4790  178.6150  139.8370 C   0  0  1  0  0  3  0  0  0  0  0  0
  185.6160  178.4080  144.0490 C   0  0  0  0  0  0  0  0  0  0  0  0
  181.2590  175.5710  139.8230 C   0  0  0  0  0  2  0  0  0  0  0  0
  186.9430  177.8680  143.6000 C   0  0  0  0  0  2  0  0  0  0  0  0
  189.3430  177.1370  146.4990 C   0  0  0  0  0  1  0  0  0  0  0  0
  188.6110  177.8360  145.4070 C   0  0  0  0  0  3  0  0  0  0  0  0
  187.6860  177.1840  144.7050 C   0  0  0  0  0  3  0  0  0  0  0  0
  186.5440  179.0810  137.6810 C   0  0  0  0  0  2  0  0  0  0  0  0
  190.4840  177.1890  137.0780 F   0  0  0  0  0  0  0  0  0  0  0  0
  187.7290  178.6180  136.8420 C   0  0  0  0  0  3  0  0  0  0  0  0
  188.0720  177.1780  137.1830 C   0  0  0  0  0  2  0  0  0  0  0  0
  189.0410  179.0790  137.4660 C   0  0  0  0  0  2  0  0  0  0  0  0
  189.3830  177.6420  137.7860 C   0  0  0  0  0  0  0  0  0  0  0  0
  189.4650  177.4000  139.1460 F   0  0  0  0  0  0  0  0  0  0  0  0
  179.5110  176.1620  137.0370 C   0  0  0  0  0  2  0  0  0  0  0  0
  179.3470  176.8110  135.6750 C   0  0  0  0  0  2  0  0  0  0  0  0
  179.6960  175.8110  134.5940 C   0  0  0  0  0  1  0  0  0  0  0  0
  2 10  1  0  0  0  0
  3 25  1  6  0  0  0
  4 18  2  6  0  0  0
  4 14  1  0  0  0  0
  4  6  1  0  0  0  0
  5 30  1  6  0  0  0
  5 13  1  0  0  0  0
  5 23  1  0  0  0  0
  6  9  1  1  0  0  0
  6 21  1  0  0  0  0
  7  1  2  0  0  0  0
 10 24  2  0  0  0  0
 10 20  1  0  0  0  0
 11  6  1  0  0  0  0
 12  2  2  0  0  0  0
 12  7  1  0  0  0  0
 13 11  1  6  0  0  0
 13 23  1  0  0  0  0
 14 37  1  6  0  0  0
 14 16  1  0  0  0  0
 15 19  2  0  0  0  0
 16 25  1  0  0  0  0
 16  8  1  1  0  0  0
 16  3  1  0  0  0  0
 17  2  1  0  0  0  0
 20  1  1  1  0  0  0
 20 19  1  0  0  0  0
 21  3  1  0  0  0  0
 21 12  1  1  0  0  0
 22  4  1  0  0  0  0
 23 17  1  1  0  0  0
 24 15  1  0  0  0  0
 26 24  1  0  0  0  0
 26 29  1  0  0  0  0
 28 27  1  0  0  0  0
 29 28  2  0  0  0  0
 31 35  1  0  0  0  0
 32 33  1  0  0  0  0
 32 34  1  0  0  0  0
 32 30  1  0  0  0  0
 33 35  1  0  0  0  0
 34 35  1  0  0  0  0
 35 36  1  0  0  0  0
 38 37  1  0  0  0  0
 39 38  1  0  0  0  0
M  END
>  <MODEL>
2

>  <REMARK>
 VINA RESULT:      -7.8      3.334      6.223
  Name = 
  6 active torsions:
  status: ('A' for Active; 'I' for Inactive)
    1  A    between atoms: C_1  and  C_31
    2  A    between atoms: C_1  and  C_36
    3  A    between atoms: C_7  and  C_35
    4  A    between atoms: C_14  and  C_35
    5  A    between atoms: C_19  and  C_38
    6  A    between atoms: C_20  and  C_38
                            x       y       z     vdW  Elec       q    Type
                         _______ _______ _______ _____ _____    ______ ____

>  <TORSDO>
F 6

$$$$
=
 OpenBabel11062417393D

 39 45  0  0  1  0  0  0  0  0999 V2000
  192.5910  177.0410  139.1250 C   0  0  0  0  0  3  0  0  0  0  0  0
  189.7430  177.0470  139.7830 C   0  0  0  0  0  0  0  0  0  0  0  0
  191.2790  175.8220  142.8370 C   0  0  2  0  0  3  0  0  0  0  0  0
  189.5140  177.5060  144.8710 P   0  0  1  0  0  0  0  0  0  0  0  0
  186.6070  178.1240  141.3910 C   0  0  2  0  0  3  0  0  0  0  0  0
  189.7730  178.0560  143.1620 C   0  0  2  0  0  0  0  0  0  0  0  0
  192.1260  177.3990  140.5240 C   0  0  0  0  0  2  0  0  0  0  0  0
  192.6970  174.9730  144.6240 O   0  0  0  0  0  1  0  0  0  0  0  0
  190.8490  179.1280  143.1750 C   0  0  0  0  0  1  0  0  0  0  0  0
  190.2810  176.9230  138.4240 C   0  0  0  0  0  0  0  0  0  0  0  0
  188.5490  178.6610  142.7520 O   0  0  0  0  0  0  0  0  0  0  0  0
  190.6400  177.1390  140.8140 C   0  0  0  0  0  0  0  0  0  0  0  0
  187.8360  177.7050  142.1060 N   0  0  2  0  0  0  0  0  0  0  0  0
  191.0170  176.6360  145.3810 C   0  0  2  0  0  3  0  0  0  0  0  0
  190.7410  176.4740  136.2640 N   0  0  0  0  0  0  0  0  0  0  0  0
  191.5020  175.6330  144.3340 C   0  0  1  0  0  0  0  0  0  0  0  0
  188.3580  177.1310  139.9610 O   0  0  0  0  0  0  0  0  0  0  0  0
  189.2430  178.8430  145.8740 O   0  0  0  0  0  1  0  0  0  0  0  0
  191.8930  176.5850  136.8020 N   0  0  0  0  0  0  0  0  0  0  0  0
  191.6840  176.8780  138.1720 C   0  0  0  0  0  0  0  0  0  0  0  0
  190.2620  176.8400  142.2660 C   0  0  1  0  0  3  0  0  0  0  0  0
  188.3250  176.5750  144.9430 O   0  0  0  0  0  0  0  0  0  0  0  0
  187.8990  178.2140  140.7370 C   0  0  1  0  0  3  0  0  0  0  0  0
  189.7160  176.6810  137.2510 C   0  0  0  0  0  0  0  0  0  0  0  0
  190.5060  174.7530  143.6180 C   0  0  0  0  0  2  0  0  0  0  0  0
  188.2430  176.5150  137.0130 C   0  0  0  0  0  2  0  0  0  0  0  0
  186.1310  173.3230  137.2190 C   0  0  0  0  0  1  0  0  0  0  0  0
  186.5340  174.7560  137.1930 C   0  0  0  0  0  3  0  0  0  0  0  0
  187.8160  175.0800  137.0380 C   0  0  0  0  0  3  0  0  0  0  0  0
  186.1310  179.5010  141.8400 C   0  0  0  0  0  2  0  0  0  0  0  0
  183.7230  178.6910  145.4470 F   0  0  0  0  0  0  0  0  0  0  0  0
  184.8270  179.3790  142.6190 C   0  0  0  0  0  3  0  0  0  0  0  0
  184.9420  180.1280  143.9370 C   0  0  0  0  0  2  0  0  0  0  0  0
  184.7760  178.0560  143.3750 C   0  0  0  0  0  2  0  0  0  0  0  0
  184.8720  178.8100  144.6820 C   0  0  0  0  0  0  0  0  0  0  0  0
  186.0310  178.5250  145.3810 F   0  0  0  0  0  0  0  0  0  0  0  0
  190.8150  175.9490  146.7240 C   0  0  0  0  0  2  0  0  0  0  0  0
  191.6960  176.5860  147.7830 C   0  0  0  0  0  2  0  0  0  0  0  0
  192.8050  175.6280  148.1600 C   0  0  0  0  0  1  0  0  0  0  0  0
  1  7  1  0  0  0  0
  2 17  1  0  0  0  0
  2 12  2  0  0  0  0
  3 25  1  1  0  0  0
  3 16  1  0  0  0  0
  4 22  2  1  0  0  0
  4 14  1  0  0  0  0
  4 18  1  0  0  0  0
  5 30  1  1  0  0  0
  5 13  1  0  0  0  0
  6  9  1  6  0  0  0
  6  4  1  0  0  0  0
  7 12  1  0  0  0  0
 10  2  1  0  0  0  0
 11  6  1  0  0  0  0
 13 11  1  1  0  0  0
 14 37  1  1  0  0  0
 15 19  2  0  0  0  0
 15 24  1  0  0  0  0
 16  8  1  1  0  0  0
 16 14  1  0  0  0  0
 19 20  1  0  0  0  0
 20 10  1  0  0  0  0
 20  1  2  0  0  0  0
 21 12  1  6  0  0  0
 21  3  1  0  0  0  0
 21  6  1  0  0  0  0
 23 17  1  6  0  0  0
 23  5  1  0  0  0  0
 23 13  1  0  0  0  0
 24 10  2  0  0  0  0
 25 16  1  0  0  0  0
 26 29  1  0  0  0  0
 26 24  1  0  0  0  0
 28 27  1  0  0  0  0
 29 28  2  0  0  0  0
 30 32  1  0  0  0  0
 32 34  1  0  0  0  0
 32 33  1  0  0  0  0
 33 35  1  0  0  0  0
 34 35  1  0  0  0  0
 35 36  1  0  0  0  0
 35 31  1  0  0  0  0
 37 38  1  0  0  0  0
 38 39  1  0  0  0  0
M  END
>  <MODEL>
3

>  <REMARK>
 VINA RESULT:      -7.5      4.405      8.057
  Name = 
  6 active torsions:
  status: ('A' for Active; 'I' for Inactive)
    1  A    between atoms: C_1  and  C_31
    2  A    between atoms: C_1  and  C_36
    3  A    between atoms: C_7  and  C_35
    4  A    between atoms: C_14  and  C_35
    5  A    between atoms: C_19  and  C_38
    6  A    between atoms: C_20  and  C_38
                            x       y       z     vdW  Elec       q    Type
                         _______ _______ _______ _____ _____    ______ ____

>  <TORSDO>
F 6

$$$$
=
 OpenBabel11062417393D

 39 45  0  0  1  0  0  0  0  0999 V2000
  183.3670  179.3730  144.2690 C   0  0  0  0  0  3  0  0  0  0  0  0
  185.5780  178.1170  142.8300 C   0  0  0  0  0  0  0  0  0  0  0  0
  182.7050  177.3180  140.7570 C   0  0  2  0  0  3  0  0  0  0  0  0
  184.0770  177.8760  137.9470 P   0  0  1  0  0  0  0  0  0  0  0  0
  188.0700  177.6000  140.1650 C   0  0  2  0  0  3  0  0  0  0  0  0
  184.6740  178.6680  139.4660 C   0  0  2  0  0  0  0  0  0  0  0  0
  183.3810  179.3480  142.7520 C   0  0  0  0  0  3  0  0  0  0  0  0
  180.5300  176.9490  139.7290 O   0  0  0  0  0  1  0  0  0  0  0  0
  184.1240  180.0830  139.5030 C   0  0  0  0  0  1  0  0  0  0  0  0
  185.5690  178.3780  144.2730 C   0  0  0  0  0  0  0  0  0  0  0  0
  186.0920  178.7470  139.3390 O   0  0  0  0  0  0  0  0  0  0  0  0
  184.4620  178.4610  142.1150 C   0  0  0  0  0  0  0  0  0  0  0  0
  186.6030  177.6580  139.9660 N   0  0  2  0  0  0  0  0  0  0  0  0
  182.2880  177.6640  138.1290 C   0  0  2  0  0  3  0  0  0  0  0  0
  185.8040  178.4030  146.5150 N   0  0  0  0  0  0  0  0  0  0  0  0
  181.8990  177.0770  139.4860 C   0  0  1  0  0  0  0  0  0  0  0  0
  186.7360  177.5940  142.2420 O   0  0  0  0  0  0  0  0  0  0  0  0
  184.4170  178.8580  136.6110 O   0  0  0  0  0  0  0  0  0  0  0  0
  184.6550  178.9250  146.3250 N   0  0  0  0  0  0  0  0  0  0  0  0
  184.4380  178.9520  144.9250 C   0  0  0  0  0  0  0  0  0  0  0  0
  184.1500  177.8740  140.7380 C   0  0  1  0  0  3  0  0  0  0  0  0
  184.7440  176.5320  137.7650 O   0  0  0  0  0  1  0  0  0  0  0  0
  187.2300  178.2930  141.1240 C   0  0  1  0  0  3  0  0  0  0  0  0
  186.3990  178.0520  145.2530 C   0  0  1  0  0  3  0  0  0  0  0  0
  182.7060  175.9460  140.0760 C   0  0  0  0  0  2  0  0  0  0  0  0
  187.6940  177.3130  145.0850 C   0  0  0  0  0  2  0  0  0  0  0  0
  190.9320  179.0450  143.9850 C   0  0  0  0  0  1  0  0  0  0  0  0
  189.7630  178.1240  144.0320 C   0  0  0  0  0  3  0  0  0  0  0  0
  188.8740  178.2320  145.0170 C   0  0  0  0  0  3  0  0  0  0  0  0
  188.8040  178.5930  139.2710 C   0  0  0  0  0  2  0  0  0  0  0  0
  189.2070  176.5280  135.3940 F   0  0  0  0  0  0  0  0  0  0  0  0
  189.5760  177.8540  138.1850 C   0  0  0  0  0  3  0  0  0  0  0  0
  189.2740  178.4680  136.8280 C   0  0  0  0  0  2  0  0  0  0  0  0
  188.8410  176.5840  137.7750 C   0  0  0  0  0  2  0  0  0  0  0  0
  188.5600  177.1950  136.4200 C   0  0  0  0  0  0  0  0  0  0  0  0
  187.2100  177.3860  136.1880 F   0  0  0  0  0  0  0  0  0  0  0  0
  181.7280  176.8130  136.9990 C   0  0  0  0  0  2  0  0  0  0  0  0
  180.6300  177.5620  136.2660 C   0  0  0  0  0  2  0  0  0  0  0  0
  179.6610  176.5700  135.6580 C   0  0  0  0  0  1  0  0  0  0  0  0
  1 20  1  0  0  0  0
  2 10  1  0  0  0  0
  3 25  1  6  0  0  0
  4 18  2  6  0  0  0
  4 14  1  0  0  0  0
  4  6  1  0  0  0  0
  5 30  1  6  0  0  0
  5 23  1  0  0  0  0
  6  9  1  1  0  0  0
  6 21  1  0  0  0  0
  7  1  2  0  0  0  0
 10 20  2  0  0  0  0
 10 24  1  0  0  0  0
 11  6  1  0  0  0  0
 12  7  1  0  0  0  0
 12  2  2  0  0  0  0
 13 11  1  6  0  0  0
 13  5  1  0  0  0  0
 13 23  1  0  0  0  0
 14 37  1  6  0  0  0
 14 16  1  0  0  0  0
 16  8  1  1  0  0  0
 16 25  1  0  0  0  0
 16  3  1  0  0  0  0
 17  2  1  0  0  0  0
 19 15  2  0  0  0  0
 20 19  1  0  0  0  0
 21  3  1  0  0  0  0
 21 12  1  1  0  0  0
 22  4  1  0  0  0  0
 23 17  1  1  0  0  0
 24 26  1  1  0  0  0
 24 15  1  0  0  0  0
 27 28  1  0  0  0  0
 28 29  2  0  0  0  0
 29 26  1  0  0  0  0
 31 35  1  0  0  0  0
 32 30  1  0  0  0  0
 33 32  1  0  0  0  0
 34 32  1  0  0  0  0
 35 33  1  0  0  0  0
 35 34  1  0  0  0  0
 36 35  1  0  0  0  0
 38 37  1  0  0  0  0
 39 38  1  0  0  0  0
M  END
>  <MODEL>
4

>  <REMARK>
 VINA RESULT:      -7.0      3.639      6.524
  Name = 
  6 active torsions:
  status: ('A' for Active; 'I' for Inactive)
    1  A    between atoms: C_1  and  C_31
    2  A    between atoms: C_1  and  C_36
    3  A    between atoms: C_7  and  C_35
    4  A    between atoms: C_14  and  C_35
    5  A    between atoms: C_19  and  C_38
    6  A    between atoms: C_20  and  C_38
                            x       y       z     vdW  Elec       q    Type
                         _______ _______ _______ _____ _____    ______ ____

>  <TORSDO>
F 6

$$$$
=
 OpenBabel11062417393D

 39 45  0  0  1  0  0  0  0  0999 V2000
  192.6700  177.3530  140.2250 C   0  0  0  0  0  3  0  0  0  0  0  0
  190.0190  176.7830  139.1350 C   0  0  0  0  0  0  0  0  0  0  0  0
  189.4590  176.6870  142.7220 C   0  0  2  0  0  3  0  0  0  0  0  0
  186.7080  178.2750  142.7360 P   0  0  1  0  0  0  0  0  0  0  0  0
  186.4870  177.3580  138.2580 C   0  0  2  0  0  3  0  0  0  0  0  0
  187.9140  178.4830  141.3970 C   0  0  2  0  0  0  0  0  0  0  0  0
  191.4260  177.8800  140.9150 C   0  0  0  0  0  2  0  0  0  0  0  0
  189.5510  176.6390  145.1540 O   0  0  0  0  0  1  0  0  0  0  0  0
  188.6820  179.7680  141.6560 C   0  0  0  0  0  1  0  0  0  0  0  0
  191.2800  176.5040  138.4400 C   0  0  0  0  0  0  0  0  0  0  0  0
  187.1540  178.6540  140.2030 O   0  0  0  0  0  0  0  0  0  0  0  0
  190.0930  177.3230  140.3920 C   0  0  0  0  0  0  0  0  0  0  0  0
  187.0520  177.4310  139.6250 N   0  0  2  0  0  0  0  0  0  0  0  0
  187.6460  177.9480  144.2480 C   0  0  2  0  0  3  0  0  0  0  0  0
  192.9910  175.7230  137.1970 N   0  0  0  0  0  0  0  0  0  0  0  0
  188.7370  176.8950  144.0490 C   0  0  1  0  0  0  0  0  0  0  0  0
  188.8100  176.5510  138.4690 O   0  0  0  0  0  0  0  0  0  0  0  0
  185.7900  179.6860  142.9110 O   0  0  0  0  0  1  0  0  0  0  0  0
  193.5650  176.2370  138.2140 N   0  0  0  0  0  0  0  0  0  0  0  0
  192.5450  176.7610  139.0460 C   0  0  0  0  0  0  0  0  0  0  0  0
  188.9320  177.2650  141.3850 C   0  0  1  0  0  3  0  0  0  0  0  0
  185.7900  177.1120  142.4320 O   0  0  0  0  0  0  0  0  0  0  0  0
  187.9000  177.6250  138.4510 C   0  0  1  0  0  3  0  0  0  0  0  0
  191.5650  175.8750  137.3090 C   0  0  0  0  0  0  0  0  0  0  0  0
  188.4480  175.6570  143.2350 C   0  0  0  0  0  2  0  0  0  0  0  0
  190.5570  175.2940  136.3610 C   0  0  0  0  0  2  0  0  0  0  0  0
  188.2200  172.3330  137.0420 C   0  0  0  0  0  1  0  0  0  0  0  0
  188.7530  173.6340  136.5510 C   0  0  0  0  0  3  0  0  0  0  0  0
  190.0030  173.9890  136.8400 C   0  0  0  0  0  3  0  0  0  0  0  0
  185.7400  178.6330  137.8830 C   0  0  0  0  0  2  0  0  0  0  0  0
  181.7060  177.3350  139.1090 F   0  0  0  0  0  0  0  0  0  0  0  0
  184.2660  178.3300  137.6450 C   0  0  0  0  0  3  0  0  0  0  0  0
  183.4230  178.9880  138.7250 C   0  0  0  0  0  2  0  0  0  0  0  0
  183.9040  176.9570  138.1990 C   0  0  0  0  0  2  0  0  0  0  0  0
  183.0530  177.6180  139.2590 C   0  0  0  0  0  0  0  0  0  0  0  0
  183.5240  177.3950  140.5400 F   0  0  0  0  0  0  0  0  0  0  0  0
  186.7170  177.5430  145.3840 C   0  0  0  0  0  2  0  0  0  0  0  0
  186.0890  178.7720  146.0170 C   0  0  0  0  0  2  0  0  0  0  0  0
  184.5820  178.6280  146.0110 C   0  0  0  0  0  1  0  0  0  0  0  0
  1  7  1  0  0  0  0
  2 12  2  0  0  0  0
  3 25  1  6  0  0  0
  3 16  1  0  0  0  0
  4 22  2  6  0  0  0
  4 18  1  0  0  0  0
  4 14  1  0  0  0  0
  5 30  1  1  0  0  0
  5 23  1  0  0  0  0
  5 13  1  0  0  0  0
  6  9  1  1  0  0  0
  6  4  1  0  0  0  0
 10 20  1  0  0  0  0
 10  2  1  0  0  0  0
 11  6  1  0  0  0  0
 12  7  1  0  0  0  0
 13 11  1  1  0  0  0
 14 37  1  1  0  0  0
 15 24  1  0  0  0  0
 15 19  2  0  0  0  0
 16 14  1  0  0  0  0
 16  8  1  1  0  0  0
 17  2  1  0  0  0  0
 19 20  1  0  0  0  0
 20  1  2  0  0  0  0
 21 12  1  6  0  0  0
 21  6  1  0  0  0  0
 21  3  1  0  0  0  0
 23 17  1  6  0  0  0
 23 13  1  0  0  0  0
 24 10  2  0  0  0  0
 25 16  1  0  0  0  0
 26 29  1  0  0  0  0
 26 24  1  0  0  0  0
 28 29  2  0  0  0  0
 28 27  1  0  0  0  0
 31 35  1  0  0  0  0
 32 30  1  0  0  0  0
 32 34  1  0  0  0  0
 32 33  1  0  0  0  0
 33 35  1  0  0  0  0
 34 35  1  0  0  0  0
 35 36  1  0  0  0  0
 37 38  1  0  0  0  0
 39 38  1  0  0  0  0
M  END
>  <MODEL>
5

>  <REMARK>
 VINA RESULT:      -5.8      3.399      7.093
  Name = 
  6 active torsions:
  status: ('A' for Active; 'I' for Inactive)
    1  A    between atoms: C_1  and  C_31
    2  A    between atoms: C_1  and  C_36
    3  A    between atoms: C_7  and  C_35
    4  A    between atoms: C_14  and  C_35
    5  A    between atoms: C_19  and  C_38
    6  A    between atoms: C_20  and  C_38
                            x       y       z     vdW  Elec       q    Type
                         _______ _______ _______ _____ _____    ______ ____

>  <TORSDO>
F 6

$$$$
=
 OpenBabel11062417393D

 39 45  0  0  1  0  0  0  0  0999 V2000
  185.1010  178.2220  142.1450 C   0  0  0  0  0  3  0  0  0  0  0  0
  187.5420  178.1920  140.5380 C   0  0  0  0  0  0  0  0  0  0  0  0
  188.8080  178.4590  143.9320 C   0  0  2  0  0  3  0  0  0  0  0  0
  191.1940  176.3850  143.6280 P   0  0  1  0  0  0  0  0  0  0  0  0
  190.6800  176.8930  139.1090 C   0  0  2  0  0  3  0  0  0  0  0  0
  189.7300  176.3060  142.5610 C   0  0  2  0  0  0  0  0  0  0  0  0
  186.3480  177.5240  142.6540 C   0  0  0  0  0  2  0  0  0  0  0  0
  189.2070  178.7140  146.3190 O   0  0  0  0  0  1  0  0  0  0  0  0
  188.8200  175.2130  143.0970 C   0  0  0  0  0  1  0  0  0  0  0  0
  186.2350  178.6510  140.0550 C   0  0  0  0  0  0  0  0  0  0  0  0
  190.1980  175.9020  141.2760 O   0  0  0  0  0  0  0  0  0  0  0  0
  187.6260  177.7760  141.8400 C   0  0  0  0  0  0  0  0  0  0  0  0
  190.3920  177.0340  140.5560 N   0  0  2  0  0  0  0  0  0  0  0  0
  190.6430  177.0010  145.2390 C   0  0  2  0  0  3  0  0  0  0  0  0
  184.4720  179.6420  139.0600 N   0  0  0  0  0  0  0  0  0  0  0  0
  189.7310  178.2230  145.1220 C   0  0  1  0  0  0  0  0  0  0  0  0
  188.6170  178.1390  139.6440 O   0  0  0  0  0  0  0  0  0  0  0  0
  191.8740  174.8440  143.7930 O   0  0  0  0  0  1  0  0  0  0  0  0
  184.0300  179.3270  140.2150 N   0  0  0  0  0  0  0  0  0  0  0  0
  185.0900  178.6860  140.9040 C   0  0  0  0  0  0  0  0  0  0  0  0
  188.9530  177.6900  142.5950 C   0  0  1  0  0  3  0  0  0  0  0  0
  192.2190  177.3250  143.0350 O   0  0  0  0  0  0  0  0  0  0  0  0
  189.3080  176.9140  139.5830 C   0  0  1  0  0  3  0  0  0  0  0  0
  185.8440  179.2320  138.9300 C   0  0  0  0  0  0  0  0  0  0  0  0
  190.0610  179.3160  144.1350 C   0  0  0  0  0  2  0  0  0  0  0  0
  186.7290  179.5360  137.7570 C   0  0  0  0  0  2  0  0  0  0  0  0
  188.1740  176.9430  135.3310 C   0  0  0  0  0  1  0  0  0  0  0  0
  188.0470  178.1080  136.2500 C   0  0  0  0  0  3  0  0  0  0  0  0
  186.8780  178.3680  136.8330 C   0  0  0  0  0  3  0  0  0  0  0  0
  191.1080  175.4740  138.7520 C   0  0  0  0  0  2  0  0  0  0  0  0
  194.8360  175.2200  136.4070 F   0  0  0  0  0  0  0  0  0  0  0  0
  191.9190  175.4770  137.4620 C   0  0  0  0  0  3  0  0  0  0  0  0
  192.8660  174.2880  137.4450 C   0  0  0  0  0  2  0  0  0  0  0  0
  193.1090  176.4230  137.5790 C   0  0  0  0  0  2  0  0  0  0  0  0
  194.0450  175.2360  137.5430 C   0  0  0  0  0  0  0  0  0  0  0  0
  194.7620  175.0830  138.7160 F   0  0  0  0  0  0  0  0  0  0  0  0
  191.8330  177.3090  146.1350 C   0  0  0  0  0  2  0  0  0  0  0  0
  191.6600  176.6470  147.4910 C   0  0  0  0  0  2  0  0  0  0  0  0
  192.4110  175.3330  147.5110 C   0  0  0  0  0  1  0  0  0  0  0  0
  1  7  1  0  0  0  0
  2 12  2  0  0  0  0
  3 25  1  6  0  0  0
  3 16  1  0  0  0  0
  4 22  2  6  0  0  0
  4 18  1  0  0  0  0
  4 14  1  0  0  0  0
  5 30  1  1  0  0  0
  5 23  1  0  0  0  0
  5 13  1  0  0  0  0
  6 21  1  0  0  0  0
  6  9  1  1  0  0  0
  6  4  1  0  0  0  0
 10  2  1  0  0  0  0
 10 20  1  0  0  0  0
 11  6  1  0  0  0  0
 12  7  1  0  0  0  0
 13 11  1  1  0  0  0
 14 37  1  1  0  0  0
 15 19  2  0  0  0  0
 16 14  1  0  0  0  0
 16  8  1  1  0  0  0
 17  2  1  0  0  0  0
 19 20  1  0  0  0  0
 20  1  2  0  0  0  0
 21 12  1  1  0  0  0
 21  3  1  0  0  0  0
 23 17  1  6  0  0  0
 23 13  1  0  0  0  0
 24 15  1  0  0  0  0
 24 10  2  0  0  0  0
 25 16  1  0  0  0  0
 26 24  1  0  0  0  0
 27 28  1  0  0  0  0
 28 29  2  0  0  0  0
 29 26  1  0  0  0  0
 31 35  1  0  0  0  0
 32 34  1  0  0  0  0
 32 30  1  0  0  0  0
 33 32  1  0  0  0  0
 33 35  1  0  0  0  0
 35 34  1  0  0  0  0
 35 36  1  0  0  0  0
 37 38  1  0  0  0  0
 38 39  1  0  0  0  0
M  END
>  <MODEL>
6

>  <REMARK>
 VINA RESULT:      -5.7      5.269      9.235
  Name = 
  6 active torsions:
  status: ('A' for Active; 'I' for Inactive)
    1  A    between atoms: C_1  and  C_31
    2  A    between atoms: C_1  and  C_36
    3  A    between atoms: C_7  and  C_35
    4  A    between atoms: C_14  and  C_35
    5  A    between atoms: C_19  and  C_38
    6  A    between atoms: C_20  and  C_38
                            x       y       z     vdW  Elec       q    Type
                         _______ _______ _______ _____ _____    ______ ____

>  <TORSDO>
F 6

$$$$
=
 OpenBabel11062417393D

 39 45  0  0  1  0  0  0  0  0999 V2000
  191.7080  177.4880  140.1020 C   0  0  0  0  0  3  0  0  0  0  0  0
  188.9560  177.0620  139.2170 C   0  0  0  0  0  0  0  0  0  0  0  0
  188.6850  176.8610  142.8330 C   0  0  2  0  0  3  0  0  0  0  0  0
  186.0130  178.5540  143.1240 P   0  0  1  0  0  0  0  0  0  0  0  0
  185.3910  177.8060  138.6520 C   0  0  2  0  0  3  0  0  0  0  0  0
  187.1150  178.7620  141.6980 C   0  0  2  0  0  0  0  0  0  0  0  0
  190.5480  178.0390  140.9090 C   0  0  0  0  0  2  0  0  0  0  0  0
  188.9720  176.7230  145.2460 O   0  0  0  0  0  1  0  0  0  0  0  0
  187.9540  180.0060  141.9340 C   0  0  0  0  0  1  0  0  0  0  0  0
  190.1430  176.7580  138.4120 C   0  0  0  0  0  0  0  0  0  0  0  0
  186.2680  179.0050  140.5770 O   0  0  0  0  0  0  0  0  0  0  0  0
  189.1540  177.5540  140.4800 C   0  0  0  0  0  0  0  0  0  0  0  0
  186.0680  177.8080  139.9710 N   0  0  2  0  0  0  0  0  0  0  0  0
  187.0570  178.1370  144.5430 C   0  0  2  0  0  3  0  0  0  0  0  0
  191.7140  175.9550  137.0070 N   0  0  0  0  0  0  0  0  0  0  0  0
  188.0830  177.0500  144.2210 C   0  0  1  0  0  0  0  0  0  0  0  0
  187.6880  176.9010  138.6460 O   0  0  0  0  0  0  0  0  0  0  0  0
  185.1720  179.9930  143.4200 O   0  0  0  0  0  1  0  0  0  0  0  0
  192.3900  176.4100  137.9890 N   0  0  0  0  0  0  0  0  0  0  0  0
  191.4630  176.9430  138.9190 C   0  0  0  0  0  0  0  0  0  0  0  0
  188.0760  177.5060  141.5630 C   0  0  1  0  0  3  0  0  0  0  0  0
  185.0260  177.4400  142.8590 O   0  0  0  0  0  0  0  0  0  0  0  0
  186.8250  178.0100  138.7370 C   0  0  1  0  0  3  0  0  0  0  0  0
  190.3090  176.1590  137.2420 C   0  0  0  0  0  0  0  0  0  0  0  0
  187.6770  175.8540  143.3940 C   0  0  0  0  0  2  0  0  0  0  0  0
  189.2040  175.6520  136.3610 C   0  0  0  0  0  2  0  0  0  0  0  0
  187.0120  172.5780  137.0230 C   0  0  0  0  0  1  0  0  0  0  0  0
  187.4580  173.9400  136.6190 C   0  0  0  0  0  3  0  0  0  0  0  0
  188.7370  174.2860  136.7560 C   0  0  0  0  0  3  0  0  0  0  0  0
  184.6710  179.1220  138.3820 C   0  0  0  0  0  2  0  0  0  0  0  0
  180.6490  177.9870  139.7930 F   0  0  0  0  0  0  0  0  0  0  0  0
  183.1770  178.8800  138.2120 C   0  0  0  0  0  3  0  0  0  0  0  0
  182.4120  179.5690  139.3300 C   0  0  0  0  0  2  0  0  0  0  0  0
  182.7850  177.5210  138.7820 C   0  0  0  0  0  2  0  0  0  0  0  0
  182.0120  178.2150  139.8800 C   0  0  0  0  0  0  0  0  0  0  0  0
  182.5320  177.9710  141.1390 F   0  0  0  0  0  0  0  0  0  0  0  0
  186.2070  177.7300  145.7380 C   0  0  0  0  0  2  0  0  0  0  0  0
  186.3430  178.7470  146.8560 C   0  0  0  0  0  2  0  0  0  0  0  0
  187.2850  178.2120  147.9130 C   0  0  0  0  0  1  0  0  0  0  0  0
  1  7  1  0  0  0  0
  2 12  2  0  0  0  0
  3 25  1  6  0  0  0
  3 16  1  0  0  0  0
  4 22  2  6  0  0  0
  4 18  1  0  0  0  0
  4 14  1  0  0  0  0
  5 30  1  1  0  0  0
  5 23  1  0  0  0  0
  5 13  1  0  0  0  0
  6  9  1  1  0  0  0
  6  4  1  0  0  0  0
 10 20  1  0  0  0  0
 10  2  1  0  0  0  0
 11  6  1  0  0  0  0
 12  7  1  0  0  0  0
 13 11  1  1  0  0  0
 14 37  1  1  0  0  0
 15 24  1  0  0  0  0
 15 19  2  0  0  0  0
 16 14  1  0  0  0  0
 16  8  1  1  0  0  0
 17  2  1  0  0  0  0
 19 20  1  0  0  0  0
 20  1  2  0  0  0  0
 21 12  1  6  0  0  0
 21  6  1  0  0  0  0
 21  3  1  0  0  0  0
 23 17  1  6  0  0  0
 23 13  1  0  0  0  0
 24 10  2  0  0  0  0
 25 16  1  0  0  0  0
 26 29  1  0  0  0  0
 26 24  1  0  0  0  0
 28 29  2  0  0  0  0
 28 27  1  0  0  0  0
 31 35  1  0  0  0  0
 32 30  1  0  0  0  0
 32 34  1  0  0  0  0
 32 33  1  0  0  0  0
 33 35  1  0  0  0  0
 34 35  1  0  0  0  0
 35 36  1  0  0  0  0
 37 38  1  0  0  0  0
 38 39  1  0  0  0  0
M  END
>  <MODEL>
7

>  <REMARK>
 VINA RESULT:      -5.5      3.066      6.814
  Name = 
  6 active torsions:
  status: ('A' for Active; 'I' for Inactive)
    1  A    between atoms: C_1  and  C_31
    2  A    between atoms: C_1  and  C_36
    3  A    between atoms: C_7  and  C_35
    4  A    between atoms: C_14  and  C_35
    5  A    between atoms: C_19  and  C_38
    6  A    between atoms: C_20  and  C_38
                            x       y       z     vdW  Elec       q    Type
                         _______ _______ _______ _____ _____    ______ ____

>  <TORSDO>
F 6

$$$$
=
 OpenBabel11062417393D

 39 45  0  0  1  0  0  0  0  0999 V2000
  192.8180  177.0070  139.1510 C   0  0  0  0  0  3  0  0  0  0  0  0
  189.9370  176.9100  139.6350 C   0  0  0  0  0  0  0  0  0  0  0  0
  191.3310  175.8430  142.8150 C   0  0  2  0  0  3  0  0  0  0  0  0
  189.3750  177.5100  144.6830 P   0  0  1  0  0  0  0  0  0  0  0  0
  186.6660  177.8970  141.0150 C   0  0  2  0  0  3  0  0  0  0  0  0
  189.7160  178.0190  142.9760 C   0  0  2  0  0  0  0  0  0  0  0  0
  192.2530  177.3860  140.5070 C   0  0  0  0  0  2  0  0  0  0  0  0
  192.6700  175.1100  144.7110 O   0  0  0  0  0  1  0  0  0  0  0  0
  190.7440  179.1370  143.0180 C   0  0  0  0  0  1  0  0  0  0  0  0
  190.5620  176.7680  138.3160 C   0  0  0  0  0  0  0  0  0  0  0  0
  188.4960  178.5580  142.4730 O   0  0  0  0  0  0  0  0  0  0  0  0
  190.7640  177.0710  140.7160 C   0  0  0  0  0  0  0  0  0  0  0  0
  187.8650  177.5540  141.8160 N   0  0  2  0  0  0  0  0  0  0  0  0
  190.8790  176.7210  145.3110 C   0  0  2  0  0  3  0  0  0  0  0  0
  191.1740  176.2760  136.2030 N   0  0  0  0  0  0  0  0  0  0  0  0
  191.4690  175.7090  144.3280 C   0  0  1  0  0  0  0  0  0  0  0  0
  188.5410  176.9390  139.7260 O   0  0  0  0  0  0  0  0  0  0  0  0
  188.9880  178.8630  145.6240 O   0  0  0  0  0  1  0  0  0  0  0  0
  192.2840  176.4520  136.8060 N   0  0  0  0  0  0  0  0  0  0  0  0
  191.9790  176.7770  138.1510 C   0  0  0  0  0  0  0  0  0  0  0  0
  190.3100  176.7990  142.1500 C   0  0  1  0  0  3  0  0  0  0  0  0
  188.2240  176.5300  144.7130 O   0  0  0  0  0  0  0  0  0  0  0  0
  187.9910  178.0230  140.4380 C   0  0  1  0  0  3  0  0  0  0  0  0
  190.0810  176.4670  137.1190 C   0  0  0  0  0  0  0  0  0  0  0  0
  190.5560  174.7660  143.5820 C   0  0  0  0  0  2  0  0  0  0  0  0
  188.6340  176.2300  136.7990 C   0  0  0  0  0  2  0  0  0  0  0  0
  187.1470  172.7090  136.5120 C   0  0  0  0  0  1  0  0  0  0  0  0
  187.3970  174.1110  136.9480 C   0  0  0  0  0  3  0  0  0  0  0  0
  188.3640  174.8220  136.3720 C   0  0  0  0  0  3  0  0  0  0  0  0
  186.1060  179.2640  141.3900 C   0  0  0  0  0  2  0  0  0  0  0  0
  182.2890  178.2350  139.4320 F   0  0  0  0  0  0  0  0  0  0  0  0
  184.8640  179.5700  140.5630 C   0  0  0  0  0  3  0  0  0  0  0  0
  183.6280  179.0410  141.2720 C   0  0  0  0  0  2  0  0  0  0  0  0
  184.6810  178.5280  139.4650 C   0  0  0  0  0  2  0  0  0  0  0  0
  183.4420  178.0190  140.1680 C   0  0  0  0  0  0  0  0  0  0  0  0
  183.5750  176.7160  140.6130 F   0  0  0  0  0  0  0  0  0  0  0  0
  190.6230  176.0660  146.6600 C   0  0  0  0  0  2  0  0  0  0  0  0
  191.5130  176.6810  147.7250 C   0  0  0  0  0  2  0  0  0  0  0  0
  192.6420  175.7280  148.0520 C   0  0  0  0  0  1  0  0  0  0  0  0
  1  7  1  0  0  0  0
  2 17  1  0  0  0  0
  2 12  2  0  0  0  0
  3 25  1  6  0  0  0
  3 16  1  0  0  0  0
  4 22  2  1  0  0  0
  4 14  1  0  0  0  0
  4 18  1  0  0  0  0
  5 30  1  1  0  0  0
  5 13  1  0  0  0  0
  6  9  1  1  0  0  0
  6  4  1  0  0  0  0
  7 12  1  0  0  0  0
 10  2  1  0  0  0  0
 11  6  1  0  0  0  0
 13 11  1  1  0  0  0
 14 37  1  1  0  0  0
 15 19  2  0  0  0  0
 15 24  1  0  0  0  0
 16  8  1  1  0  0  0
 16 14  1  0  0  0  0
 19 20  1  0  0  0  0
 20 10  1  0  0  0  0
 20  1  2  0  0  0  0
 21 12  1  6  0  0  0
 21  3  1  0  0  0  0
 21  6  1  0  0  0  0
 23 17  1  6  0  0  0
 23  5  1  0  0  0  0
 23 13  1  0  0  0  0
 24 10  2  0  0  0  0
 25 16  1  0  0  0  0
 26 24  1  0  0  0  0
 27 28  1  0  0  0  0
 29 26  1  0  0  0  0
 29 28  2  0  0  0  0
 31 35  1  0  0  0  0
 32 33  1  0  0  0  0
 32 30  1  0  0  0  0
 34 35  1  0  0  0  0
 34 32  1  0  0  0  0
 35 36  1  0  0  0  0
 35 33  1  0  0  0  0
 37 38  1  0  0  0  0
 38 39  1  0  0  0  0
M  END
>  <MODEL>
8

>  <REMARK>
 VINA RESULT:      -5.4      4.344      8.375
  Name = 
  6 active torsions:
  status: ('A' for Active; 'I' for Inactive)
    1  A    between atoms: C_1  and  C_31
    2  A    between atoms: C_1  and  C_36
    3  A    between atoms: C_7  and  C_35
    4  A    between atoms: C_14  and  C_35
    5  A    between atoms: C_19  and  C_38
    6  A    between atoms: C_20  and  C_38
                            x       y       z     vdW  Elec       q    Type
                         _______ _______ _______ _____ _____    ______ ____

>  <TORSDO>
F 6

$$$$
=
 OpenBabel11062417393D

 39 45  0  0  1  0  0  0  0  0999 V2000
  187.8410  178.8200  142.0900 C   0  0  0  0  0  3  0  0  0  0  0  0
  189.6800  176.8990  140.8780 C   0  0  0  0  0  0  0  0  0  0  0  0
  186.9800  177.0750  138.4560 C   0  0  2  0  0  3  0  0  0  0  0  0
  188.7920  177.1360  135.8470 P   0  0  1  0  0  0  0  0  0  0  0  0
  192.1740  175.5780  138.5080 C   0  0  2  0  0  3  0  0  0  0  0  0
  189.4250  177.6960  137.4520 C   0  0  2  0  0  0  0  0  0  0  0  0
  188.0330  178.7830  140.5850 C   0  0  0  0  0  3  0  0  0  0  0  0
  184.9470  177.4350  137.1660 O   0  0  0  0  0  1  0  0  0  0  0  0
  189.3660  179.2140  137.4730 C   0  0  0  0  0  1  0  0  0  0  0  0
  189.5800  177.1570  142.3180 C   0  0  0  0  0  0  0  0  0  0  0  0
  190.7950  177.3050  137.4960 O   0  0  0  0  0  0  0  0  0  0  0  0
  188.8340  177.5860  140.0490 C   0  0  0  0  0  0  0  0  0  0  0  0
  190.8420  176.1120  138.1400 N   0  0  2  0  0  0  0  0  0  0  0  0
  187.0250  177.5240  135.8100 C   0  0  2  0  0  3  0  0  0  0  0  0
  189.5340  177.1170  144.5720 N   0  0  0  0  0  0  0  0  0  0  0  0
  186.3010  177.1050  137.0900 C   0  0  1  0  0  0  0  0  0  0  0  0
  190.6660  176.0220  140.4120 O   0  0  0  0  0  0  0  0  0  0  0  0
  189.5950  177.9440  134.5960 O   0  0  0  0  0  0  0  0  0  0  0  0
  188.6510  177.9870  144.2670 N   0  0  0  0  0  0  0  0  0  0  0  0
  188.6270  178.0750  142.8530 C   0  0  0  0  0  0  0  0  0  0  0  0
  188.5190  177.1270  138.6260 C   0  0  1  0  0  3  0  0  0  0  0  0
  189.0010  175.6460  135.6990 O   0  0  0  0  0  1  0  0  0  0  0  0
  191.4940  176.5130  139.3850 C   0  0  1  0  0  3  0  0  0  0  0  0
  190.1310  176.5830  143.3770 C   0  0  1  0  0  3  0  0  0  0  0  0
  186.6170  175.7750  137.7320 C   0  0  0  0  0  2  0  0  0  0  0  0
  191.1250  175.4590  143.3370 C   0  0  0  0  0  2  0  0  0  0  0  0
  192.2360  175.8200  146.9880 C   0  0  0  0  0  1  0  0  0  0  0  0
  191.5320  176.0320  145.6930 C   0  0  0  0  0  3  0  0  0  0  0  0
  191.8180  175.2590  144.6480 C   0  0  0  0  0  3  0  0  0  0  0  0
  193.2950  176.2690  137.7420 C   0  0  0  0  0  2  0  0  0  0  0  0
  195.2620  172.6000  136.2830 F   0  0  0  0  0  0  0  0  0  0  0  0
  193.8440  175.3450  136.6630 C   0  0  0  0  0  3  0  0  0  0  0  0
  193.3400  173.9290  136.8900 C   0  0  0  0  0  2  0  0  0  0  0  0
  195.2590  174.8970  137.0100 C   0  0  0  0  0  2  0  0  0  0  0  0
  194.7530  173.4880  137.2160 C   0  0  0  0  0  0  0  0  0  0  0  0
  194.8930  173.0540  138.5230 F   0  0  0  0  0  0  0  0  0  0  0  0
  186.3600  176.8970  134.5940 C   0  0  0  0  0  2  0  0  0  0  0  0
  186.0200  175.4430  134.8670 C   0  0  0  0  0  2  0  0  0  0  0  0
  184.5350  175.2250  134.6690 C   0  0  0  0  0  1  0  0  0  0  0  0
  1 20  1  0  0  0  0
  2 10  1  0  0  0  0
  3 25  1  6  0  0  0
  3 21  1  0  0  0  0
  4 18  2  6  0  0  0
  4  6  1  0  0  0  0
  5 30  1  6  0  0  0
  5 23  1  0  0  0  0
  6  9  1  1  0  0  0
  6 11  1  0  0  0  0
  6 21  1  0  0  0  0
  7  1  2  0  0  0  0
 10 20  2  0  0  0  0
 10 24  1  0  0  0  0
 12  7  1  0  0  0  0
 12  2  2  0  0  0  0
 13 11  1  6  0  0  0
 13  5  1  0  0  0  0
 13 23  1  0  0  0  0
 14 37  1  6  0  0  0
 14  4  1  0  0  0  0
 14 16  1  0  0  0  0
 16  8  1  1  0  0  0
 16 25  1  0  0  0  0
 16  3  1  0  0  0  0
 17  2  1  0  0  0  0
 19 15  2  0  0  0  0
 20 19  1  0  0  0  0
 21 12  1  1  0  0  0
 22  4  1  0  0  0  0
 23 17  1  1  0  0  0
 24 26  1  6  0  0  0
 24 15  1  0  0  0  0
 26 29  1  0  0  0  0
 28 27  1  0  0  0  0
 29 28  2  0  0  0  0
 31 35  1  0  0  0  0
 32 33  1  0  0  0  0
 32 34  1  0  0  0  0
 32 30  1  0  0  0  0
 33 35  1  0  0  0  0
 34 35  1  0  0  0  0
 35 36  1  0  0  0  0
 37 38  1  0  0  0  0
 39 38  1  0  0  0  0
M  END
>  <MODEL>
9

>  <REMARK>
 VINA RESULT:      -5.4      5.553      8.715
  Name = 
  6 active torsions:
  status: ('A' for Active; 'I' for Inactive)
    1  A    between atoms: C_1  and  C_31
    2  A    between atoms: C_1  and  C_36
    3  A    between atoms: C_7  and  C_35
    4  A    between atoms: C_14  and  C_35
    5  A    between atoms: C_19  and  C_38
    6  A    between atoms: C_20  and  C_38
                            x       y       z     vdW  Elec       q    Type
                         _______ _______ _______ _____ _____    ______ ____

>  <TORSDO>
F 6

$$$$
