=
 OpenBabel11062416053D

 43 49  0  0  1  0  0  0  0  0999 V2000
  187.5590  178.1300  137.5260 C   0  0  1  0  0  3  0  0  0  0  0  0
  193.2110  176.5380  139.2760 C   0  0  0  0  0  3  0  0  0  0  0  0
  192.0610  177.2220  139.6970 C   0  0  0  0  0  3  0  0  0  0  0  0
  190.9880  177.3370  138.8070 C   0  0  0  0  0  0  0  0  0  0  0  0
  186.5980  177.9080  135.1670 C   0  0  0  0  0  2  0  0  0  0  0  0
  187.5650  175.9570  136.3260 C   0  0  1  0  0  3  0  0  0  0  0  0
  193.2760  175.9860  137.9850 C   0  0  0  0  0  3  0  0  0  0  0  0
  187.4020  176.6890  135.0490 N   0  0  0  0  0  2  0  0  0  0  0  0
  189.7030  178.0330  139.0590 C   0  0  1  0  0  3  0  0  0  0  0  0
  189.0530  175.7310  136.5840 C   0  0  0  0  0  2  0  0  0  0  0  0
  191.0550  176.7970  137.5380 C   0  0  0  0  0  0  0  0  0  0  0  0
  189.8260  177.0550  136.7490 C   0  0  2  0  0  3  0  0  0  0  0  0
  189.0950  178.0940  137.6410 C   0  0  1  0  0  3  0  0  0  0  0  0
  187.1790  178.8550  136.2240 C   0  0  0  0  0  2  0  0  0  0  0  0
  192.1930  176.1150  137.1030 C   0  0  0  0  0  3  0  0  0  0  0  0
  187.0160  176.6950  137.5570 C   0  0  2  0  0  3  0  0  0  0  0  0
  185.5190  176.5970  137.6950 C   0  0  0  0  0  0  0  0  0  0  0  0
  184.8990  175.6110  137.2130 O   0  0  0  0  0  0  0  0  0  0  0  0
  184.7950  177.6660  138.3040 N   0  0  0  0  0  2  0  0  0  0  0  0
  183.3640  177.5880  138.5490 C   0  0  0  0  0  2  0  0  0  0  0  0
  182.8920  178.8630  139.2280 C   0  0  1  0  0  3  0  0  0  0  0  0
  181.7600  178.8300  141.2810 C   0  0  0  0  0  0  0  0  0  0  0  0
  181.3760  178.9480  139.1390 C   0  0  0  0  0  3  0  0  0  0  0  0
  183.0610  178.7530  140.7010 C   0  0  0  0  0  0  0  0  0  0  0  0
  181.5580  178.9250  142.5580 N   0  0  0  0  0  0  0  0  0  0  0  0
  182.7040  179.0480  143.4730 C   0  0  0  0  0  2  0  0  0  0  0  0
  183.9790  178.3600  142.9220 C   0  0  0  0  0  2  0  0  0  0  0  0
  180.7630  178.9250  140.2870 N   0  0  0  0  0  0  0  0  0  0  0  0
  184.1550  178.5870  141.4370 C   0  0  0  0  0  3  0  0  0  0  0  0
  188.8680  177.2000  140.0260 C   0  0  0  0  0  2  0  0  0  0  0  0
  187.7220  179.0270  141.2690 C   0  0  0  0  0  1  0  0  0  0  0  0
  188.7330  177.9040  141.3670 C   0  0  1  0  0  3  0  0  0  0  0  0
  188.3750  176.9590  142.4790 C   0  0  0  0  0  0  0  0  0  0  0  0
  189.3370  176.0800  143.0760 N   0  0  0  0  0  2  0  0  0  0  0  0
  187.1980  176.9620  142.9170 O   0  0  0  0  0  0  0  0  0  0  0  0
  190.5960  175.9270  142.5810 O   0  0  0  0  0  0  0  0  0  0  0  0
  190.8220  177.6160  144.3430 C   0  0  2  0  0  3  0  0  0  0  0  0
  191.4900  176.5150  143.5010 C   0  0  1  0  0  3  0  0  0  0  0  0
  191.3750  178.9710  143.9510 C   0  0  0  0  0  1  0  0  0  0  0  0
  191.1640  177.3140  145.8040 C   0  0  0  0  0  2  0  0  0  0  0  0
  191.8600  176.0130  145.7120 C   0  0  0  0  0  0  0  0  0  0  0  0
  192.2750  175.3670  146.7070 O   0  0  0  0  0  0  0  0  0  0  0  0
  192.0190  175.5730  144.4180 O   0  0  0  0  0  0  0  0  0  0  0  0
  1 14  1  6  0  0  0
  1 16  1  0  0  0  0
  1 13  1  0  0  0  0
  2  3  1  0  0  0  0
  4  9  1  0  0  0  0
  4  3  2  0  0  0  0
  5 14  1  0  0  0  0
  6 10  1  1  0  0  0
  6 16  1  0  0  0  0
  7  2  2  0  0  0  0
  8  5  1  0  0  0  0
  8  6  1  0  0  0  0
  9 30  1  1  0  0  0
 11  4  1  0  0  0  0
 12 10  1  1  0  0  0
 12 11  1  0  0  0  0
 12 13  1  0  0  0  0
 13  9  1  0  0  0  0
 15 11  2  0  0  0  0
 15  7  1  0  0  0  0
 16 17  1  0  0  0  0
 17 19  1  0  0  0  0
 18 17  2  0  0  0  0
 19 20  1  0  0  0  0
 20 21  1  0  0  0  0
 21 24  1  0  0  0  0
 22 25  2  0  0  0  0
 23 21  1  0  0  0  0
 23 28  2  0  0  0  0
 24 22  1  0  0  0  0
 24 29  2  0  0  0  0
 25 26  1  0  0  0  0
 27 26  1  0  0  0  0
 28 22  1  0  0  0  0
 29 27  1  0  0  0  0
 30 32  1  0  0  0  0
 31 32  1  0  0  0  0
 32 33  1  0  0  0  0
 33 35  2  0  0  0  0
 33 34  1  0  0  0  0
 36 34  1  0  0  0  0
 36 38  1  0  0  0  0
 37 40  1  0  0  0  0
 38 37  1  0  0  0  0
 38 43  1  0  0  0  0
 39 37  1  0  0  0  0
 41 40  1  0  0  0  0
 41 42  2  0  0  0  0
 43 41  1  0  0  0  0
M  END
>  <MODEL>
1

>  <REMARK>
 VINA RESULT:      -8.7      0.000      0.000
  Name = 
  8 active torsions:
  status: ('A' for Active; 'I' for Inactive)
    1  A    between atoms: C_2  and  C_21
    2  A    between atoms: C_7  and  O_32
    3  A    between atoms: C_8  and  C_43
    4  A    between atoms: C_10  and  C_15
    5  A    between atoms: C_10  and  C_28
    6  A    between atoms: C_21  and  N_38
    7  A    between atoms: C_22  and  C_28
    8  A    between atoms: N_31  and  O_32
                            x       y       z     vdW  Elec       q    Type
                         _______ _______ _______ _____ _____    ______ ____

>  <TORSDO>
F 8

$$$$
=
 OpenBabel11062416053D

 43 49  0  0  1  0  0  0  0  0999 V2000
  188.3530  178.1640  137.4590 C   0  0  1  0  0  3  0  0  0  0  0  0
  193.0370  174.2160  137.3360 C   0  0  0  0  0  3  0  0  0  0  0  0
  192.4390  175.2190  138.1140 C   0  0  0  0  0  3  0  0  0  0  0  0
  191.3250  175.8890  137.5990 C   0  0  0  0  0  0  0  0  0  0  0  0
  186.8070  178.7240  135.5010 C   0  0  0  0  0  2  0  0  0  0  0  0
  187.1230  176.3900  136.2340 C   0  0  1  0  0  3  0  0  0  0  0  0
  192.5210  173.9000  136.0670 C   0  0  0  0  0  3  0  0  0  0  0  0
  186.9570  177.3230  135.0970 N   0  0  0  0  0  2  0  0  0  0  0  0
  190.5720  176.9830  138.2590 C   0  0  1  0  0  3  0  0  0  0  0  0
  188.3840  175.5580  136.0160 C   0  0  0  0  0  2  0  0  0  0  0  0
  190.8220  175.5810  136.3520 C   0  0  0  0  0  0  0  0  0  0  0  0
  189.6590  176.4250  135.9870 C   0  0  2  0  0  3  0  0  0  0  0  0
  189.6990  177.5090  137.0980 C   0  0  1  0  0  3  0  0  0  0  0  0
  187.9890  179.1810  136.3640 C   0  0  0  0  0  2  0  0  0  0  0  0
  191.4060  174.5860  135.5640 C   0  0  0  0  0  3  0  0  0  0  0  0
  187.2810  177.0730  137.6010 C   0  0  2  0  0  3  0  0  0  0  0  0
  185.9780  177.5510  138.1860 C   0  0  0  0  0  0  0  0  0  0  0  0
  184.8840  177.0810  137.7710 O   0  0  0  0  0  0  0  0  0  0  0  0
  185.9810  178.5980  139.1560 N   0  0  0  0  0  2  0  0  0  0  0  0
  184.7660  179.0360  139.8240 C   0  0  0  0  0  2  0  0  0  0  0  0
  184.4860  178.1380  141.0170 C   0  0  1  0  0  3  0  0  0  0  0  0
  183.4550  178.9430  142.9630 C   0  0  0  0  0  0  0  0  0  0  0  0
  185.4300  178.5010  142.1520 C   0  0  0  0  0  3  0  0  0  0  0  0
  183.1830  178.4980  141.6350 C   0  0  0  0  0  0  0  0  0  0  0  0
  182.5270  179.1840  143.8350 N   0  0  0  0  0  0  0  0  0  0  0  0
  181.1200  178.9130  143.4980 C   0  0  0  0  0  2  0  0  0  0  0  0
  180.8370  179.0490  141.9810 C   0  0  0  0  0  2  0  0  0  0  0  0
  184.8430  178.9490  143.2240 N   0  0  0  0  0  0  0  0  0  0  0  0
  181.9510  178.4730  141.1360 C   0  0  0  0  0  3  0  0  0  0  0  0
  189.7470  176.4010  139.4020 C   0  0  0  0  0  2  0  0  0  0  0  0
  191.6130  177.5580  140.5770 C   0  0  0  0  0  1  0  0  0  0  0  0
  190.2590  176.8990  140.7450 C   0  0  1  0  0  3  0  0  0  0  0  0
  189.2920  177.8310  141.4190 C   0  0  0  0  0  0  0  0  0  0  0  0
  189.1510  177.8900  142.8440 N   0  0  0  0  0  2  0  0  0  0  0  0
  188.6040  178.6040  140.7060 O   0  0  0  0  0  0  0  0  0  0  0  0
  189.7650  177.0070  143.6770 O   0  0  0  0  0  0  0  0  0  0  0  0
  188.8420  177.0120  145.9470 C   0  0  2  0  0  3  0  0  0  0  0  0
  189.8500  177.6090  144.9500 C   0  0  1  0  0  3  0  0  0  0  0  0
  187.7680  178.0330  146.2670 C   0  0  0  0  0  1  0  0  0  0  0  0
  189.6310  176.6690  147.2120 C   0  0  0  0  0  2  0  0  0  0  0  0
  191.0260  176.9480  146.8100 C   0  0  0  0  0  0  0  0  0  0  0  0
  192.0230  176.7480  147.5490 O   0  0  0  0  0  0  0  0  0  0  0  0
  191.1320  177.4570  145.5360 O   0  0  0  0  0  0  0  0  0  0  0  0
  1 14  1  6  0  0  0
  1 16  1  0  0  0  0
  2  3  1  0  0  0  0
  4  3  2  0  0  0  0
  4  9  1  0  0  0  0
  5 14  1  0  0  0  0
  6 10  1  6  0  0  0
  6 16  1  0  0  0  0
  7  2  2  0  0  0  0
  8  5  1  0  0  0  0
  8  6  1  0  0  0  0
  9 30  1  1  0  0  0
 11  4  1  0  0  0  0
 12 10  1  1  0  0  0
 12 11  1  0  0  0  0
 12 13  1  0  0  0  0
 13  1  1  0  0  0  0
 13  9  1  0  0  0  0
 15  7  1  0  0  0  0
 15 11  2  0  0  0  0
 16 17  1  0  0  0  0
 17 19  1  0  0  0  0
 18 17  2  0  0  0  0
 19 20  1  0  0  0  0
 20 21  1  0  0  0  0
 21 24  1  0  0  0  0
 21 23  1  0  0  0  0
 22 28  1  0  0  0  0
 22 25  2  0  0  0  0
 23 28  2  0  0  0  0
 24 22  1  0  0  0  0
 26 25  1  0  0  0  0
 27 26  1  0  0  0  0
 29 24  2  0  0  0  0
 29 27  1  0  0  0  0
 30 32  1  0  0  0  0
 31 32  1  0  0  0  0
 32 33  1  0  0  0  0
 33 34  1  0  0  0  0
 34 36  1  0  0  0  0
 35 33  2  0  0  0  0
 36 38  1  0  0  0  0
 37 39  1  0  0  0  0
 37 40  1  0  0  0  0
 38 43  1  0  0  0  0
 38 37  1  0  0  0  0
 41 40  1  0  0  0  0
 41 42  2  0  0  0  0
 43 41  1  0  0  0  0
M  END
>  <MODEL>
2

>  <REMARK>
 VINA RESULT:      -8.7      1.622      2.327
  Name = 
  8 active torsions:
  status: ('A' for Active; 'I' for Inactive)
    1  A    between atoms: C_2  and  C_21
    2  A    between atoms: C_7  and  O_32
    3  A    between atoms: C_8  and  C_43
    4  A    between atoms: C_10  and  C_15
    5  A    between atoms: C_10  and  C_28
    6  A    between atoms: C_21  and  N_38
    7  A    between atoms: C_22  and  C_28
    8  A    between atoms: N_31  and  O_32
                            x       y       z     vdW  Elec       q    Type
                         _______ _______ _______ _____ _____    ______ ____

>  <TORSDO>
F 8

$$$$
=
 OpenBabel11062416053D

 43 49  0  0  1  0  0  0  0  0999 V2000
  187.6060  178.1320  137.4140 C   0  0  1  0  0  3  0  0  0  0  0  0
  193.2550  176.4740  139.1120 C   0  0  0  0  0  3  0  0  0  0  0  0
  192.1110  177.1580  139.5490 C   0  0  0  0  0  3  0  0  0  0  0  0
  191.0350  177.2950  138.6650 C   0  0  0  0  0  0  0  0  0  0  0  0
  186.6330  177.9560  135.0550 C   0  0  0  0  0  2  0  0  0  0  0  0
  187.5920  175.9800  136.1770 C   0  0  1  0  0  3  0  0  0  0  0  0
  193.3100  175.9430  137.8120 C   0  0  0  0  0  3  0  0  0  0  0  0
  187.4290  176.7330  134.9140 N   0  0  0  0  0  2  0  0  0  0  0  0
  189.7560  177.9950  138.9360 C   0  0  1  0  0  3  0  0  0  0  0  0
  189.0790  175.7390  136.4250 C   0  0  0  0  0  2  0  0  0  0  0  0
  191.0930  176.7760  137.3880 C   0  0  0  0  0  0  0  0  0  0  0  0
  189.8620  177.0550  136.6090 C   0  0  2  0  0  3  0  0  0  0  0  0
  189.1420  178.0840  137.5210 C   0  0  1  0  0  3  0  0  0  0  0  0
  187.2250  178.8810  136.1250 C   0  0  0  0  0  2  0  0  0  0  0  0
  192.2240  176.0940  136.9370 C   0  0  0  0  0  3  0  0  0  0  0  0
  187.0530  176.7000  137.4230 C   0  0  2  0  0  3  0  0  0  0  0  0
  185.5570  176.6100  137.5660 C   0  0  0  0  0  0  0  0  0  0  0  0
  184.9200  175.6710  137.0150 O   0  0  0  0  0  0  0  0  0  0  0  0
  184.8510  177.6370  138.2610 N   0  0  0  0  0  2  0  0  0  0  0  0
  183.4200  177.5580  138.5120 C   0  0  0  0  0  2  0  0  0  0  0  0
  182.9390  178.8550  139.1410 C   0  0  1  0  0  3  0  0  0  0  0  0
  181.6560  178.8820  141.1030 C   0  0  0  0  0  0  0  0  0  0  0  0
  181.4380  178.9860  138.9370 C   0  0  0  0  0  3  0  0  0  0  0  0
  182.9940  178.7570  140.6230 C   0  0  0  0  0  0  0  0  0  0  0  0
  181.3610  178.9990  142.3600 N   0  0  0  0  0  0  0  0  0  0  0  0
  182.4390  179.0970  143.3570 C   0  0  0  0  0  2  0  0  0  0  0  0
  183.7290  178.3640  142.9110 C   0  0  0  0  0  2  0  0  0  0  0  0
  180.7400  178.9960  140.0350 N   0  0  0  0  0  0  0  0  0  0  0  0
  184.0240  178.5670  141.4410 C   0  0  0  0  0  3  0  0  0  0  0  0
  188.9190  177.1520  139.8920 C   0  0  0  0  0  2  0  0  0  0  0  0
  187.5610  178.2670  141.6550 C   0  0  0  0  0  1  0  0  0  0  0  0
  188.9360  177.7470  141.2910 C   0  0  1  0  0  3  0  0  0  0  0  0
  189.4290  176.7730  142.3240 C   0  0  0  0  0  0  0  0  0  0  0  0
  189.0130  176.8330  143.6940 N   0  0  0  0  0  2  0  0  0  0  0  0
  190.2110  175.8580  141.9630 O   0  0  0  0  0  0  0  0  0  0  0  0
  188.2700  177.8590  144.1890 O   0  0  0  0  0  0  0  0  0  0  0  0
  188.1050  177.9350  146.6330 C   0  0  2  0  0  3  0  0  0  0  0  0
  187.5620  177.3720  145.3090 C   0  0  1  0  0  3  0  0  0  0  0  0
  188.7890  176.8340  147.4190 C   0  0  0  0  0  1  0  0  0  0  0  0
  186.8980  178.4600  147.4120 C   0  0  0  0  0  2  0  0  0  0  0  0
  185.7930  178.3020  146.4420 C   0  0  0  0  0  0  0  0  0  0  0  0
  184.6090  178.6650  146.6610 O   0  0  0  0  0  0  0  0  0  0  0  0
  186.1850  177.7070  145.2640 O   0  0  0  0  0  0  0  0  0  0  0  0
  1 14  1  6  0  0  0
  1 16  1  0  0  0  0
  1 13  1  0  0  0  0
  2  3  1  0  0  0  0
  4  9  1  0  0  0  0
  4  3  2  0  0  0  0
  5 14  1  0  0  0  0
  6 10  1  1  0  0  0
  6 16  1  0  0  0  0
  7  2  2  0  0  0  0
  8  5  1  0  0  0  0
  8  6  1  0  0  0  0
  9 30  1  1  0  0  0
 11  4  1  0  0  0  0
 12 10  1  1  0  0  0
 12 11  1  0  0  0  0
 12 13  1  0  0  0  0
 13  9  1  0  0  0  0
 15 11  2  0  0  0  0
 15  7  1  0  0  0  0
 16 17  1  0  0  0  0
 17 19  1  0  0  0  0
 18 17  2  0  0  0  0
 19 20  1  0  0  0  0
 20 21  1  0  0  0  0
 21 24  1  0  0  0  0
 22 25  2  0  0  0  0
 23 21  1  0  0  0  0
 23 28  2  0  0  0  0
 24 22  1  0  0  0  0
 24 29  2  0  0  0  0
 25 26  1  0  0  0  0
 27 26  1  0  0  0  0
 28 22  1  0  0  0  0
 29 27  1  0  0  0  0
 30 32  1  0  0  0  0
 32 31  1  0  0  0  0
 32 33  1  0  0  0  0
 33 34  1  0  0  0  0
 34 36  1  0  0  0  0
 35 33  2  0  0  0  0
 36 38  1  0  0  0  0
 37 40  1  0  0  0  0
 37 39  1  0  0  0  0
 38 37  1  0  0  0  0
 41 42  2  0  0  0  0
 41 40  1  0  0  0  0
 43 38  1  0  0  0  0
 43 41  1  0  0  0  0
M  END
>  <MODEL>
3

>  <REMARK>
 VINA RESULT:      -8.6      1.557      2.440
  Name = 
  8 active torsions:
  status: ('A' for Active; 'I' for Inactive)
    1  A    between atoms: C_2  and  C_21
    2  A    between atoms: C_7  and  O_32
    3  A    between atoms: C_8  and  C_43
    4  A    between atoms: C_10  and  C_15
    5  A    between atoms: C_10  and  C_28
    6  A    between atoms: C_21  and  N_38
    7  A    between atoms: C_22  and  C_28
    8  A    between atoms: N_31  and  O_32
                            x       y       z     vdW  Elec       q    Type
                         _______ _______ _______ _____ _____    ______ ____

>  <TORSDO>
F 8

$$$$
=
 OpenBabel11062416053D

 43 49  0  0  1  0  0  0  0  0999 V2000
  187.7610  177.7680  137.3090 C   0  0  1  0  0  3  0  0  0  0  0  0
  193.3140  176.8090  139.7140 C   0  0  0  0  0  3  0  0  0  0  0  0
  192.0780  177.4250  139.9620 C   0  0  0  0  0  3  0  0  0  0  0  0
  191.0950  177.3750  138.9700 C   0  0  0  0  0  0  0  0  0  0  0  0
  187.0600  177.2730  134.9010 C   0  0  0  0  0  2  0  0  0  0  0  0
  188.0530  175.5130  136.3150 C   0  0  1  0  0  3  0  0  0  0  0  0
  193.5500  176.1610  138.4890 C   0  0  0  0  0  3  0  0  0  0  0  0
  187.9630  176.1210  134.9680 N   0  0  0  0  0  2  0  0  0  0  0  0
  189.7420  177.9790  139.0380 C   0  0  1  0  0  3  0  0  0  0  0  0
  189.5200  175.4350  136.7290 C   0  0  0  0  0  2  0  0  0  0  0  0
  191.3300  176.7420  137.7670 C   0  0  0  0  0  0  0  0  0  0  0  0
  190.1690  176.8290  136.8470 C   0  0  2  0  0  3  0  0  0  0  0  0
  189.2750  177.8720  137.5700 C   0  0  1  0  0  3  0  0  0  0  0  0
  187.4590  178.3490  135.9180 C   0  0  0  0  0  2  0  0  0  0  0  0
  192.5540  176.1250  137.5020 C   0  0  0  0  0  3  0  0  0  0  0  0
  187.3280  176.2990  137.4180 C   0  0  2  0  0  3  0  0  0  0  0  0
  185.8370  176.0860  137.4250 C   0  0  0  0  0  0  0  0  0  0  0  0
  185.3530  174.9640  137.1140 O   0  0  0  0  0  0  0  0  0  0  0  0
  184.9690  177.1840  137.7050 N   0  0  0  0  0  2  0  0  0  0  0  0
  183.5280  177.0200  137.8170 C   0  0  0  0  0  2  0  0  0  0  0  0
  183.0030  177.8770  138.9560 C   0  0  1  0  0  3  0  0  0  0  0  0
  183.0990  180.2190  138.8940 C   0  0  0  0  0  0  0  0  0  0  0  0
  184.1750  178.5010  139.6970 C   0  0  0  0  0  3  0  0  0  0  0  0
  182.3510  179.1000  138.4200 C   0  0  0  0  0  0  0  0  0  0  0  0
  182.7110  181.4470  138.7430 N   0  0  0  0  0  0  0  0  0  0  0  0
  181.4020  181.7300  138.1350 C   0  0  0  0  0  2  0  0  0  0  0  0
  180.9640  180.6320  137.1330 C   0  0  0  0  0  2  0  0  0  0  0  0
  184.2160  179.8010  139.6500 N   0  0  0  0  0  0  0  0  0  0  0  0
  181.2940  179.2420  137.6270 C   0  0  0  0  0  3  0  0  0  0  0  0
  188.8800  177.1600  139.9940 C   0  0  0  0  0  2  0  0  0  0  0  0
  187.6610  178.9740  141.1850 C   0  0  0  0  0  1  0  0  0  0  0  0
  188.7050  177.8850  141.3190 C   0  0  1  0  0  3  0  0  0  0  0  0
  188.3620  176.9510  142.4440 C   0  0  0  0  0  0  0  0  0  0  0  0
  189.3350  176.0890  143.0490 N   0  0  0  0  0  2  0  0  0  0  0  0
  187.1860  176.9480  142.8880 O   0  0  0  0  0  0  0  0  0  0  0  0
  190.5920  175.9420  142.5500 O   0  0  0  0  0  0  0  0  0  0  0  0
  190.8270  177.6420  144.3000 C   0  0  2  0  0  3  0  0  0  0  0  0
  191.4870  176.5270  143.4720 C   0  0  1  0  0  3  0  0  0  0  0  0
  191.3990  178.9880  143.9020 C   0  0  0  0  0  1  0  0  0  0  0  0
  191.1540  177.3480  145.7660 C   0  0  0  0  0  2  0  0  0  0  0  0
  191.8360  176.0380  145.6890 C   0  0  0  0  0  0  0  0  0  0  0  0
  192.2350  175.3950  146.6930 O   0  0  0  0  0  0  0  0  0  0  0  0
  191.9980  175.5860  144.4000 O   0  0  0  0  0  0  0  0  0  0  0  0
  1 14  1  6  0  0  0
  1 16  1  0  0  0  0
  1 13  1  0  0  0  0
  2  3  1  0  0  0  0
  4  9  1  0  0  0  0
  4  3  2  0  0  0  0
  5  8  1  0  0  0  0
  5 14  1  0  0  0  0
  6 10  1  1  0  0  0
  6 16  1  0  0  0  0
  7  2  2  0  0  0  0
  8  6  1  0  0  0  0
  9 30  1  1  0  0  0
 11  4  1  0  0  0  0
 12 10  1  1  0  0  0
 12 13  1  0  0  0  0
 12 11  1  0  0  0  0
 13  9  1  0  0  0  0
 15 11  2  0  0  0  0
 15  7  1  0  0  0  0
 16 17  1  0  0  0  0
 17 19  1  0  0  0  0
 18 17  2  0  0  0  0
 19 20  1  0  0  0  0
 20 21  1  0  0  0  0
 21 23  1  0  0  0  0
 22 28  1  0  0  0  0
 24 22  1  0  0  0  0
 24 21  1  0  0  0  0
 25 22  2  0  0  0  0
 26 25  1  0  0  0  0
 27 29  1  0  0  0  0
 27 26  1  0  0  0  0
 28 23  2  0  0  0  0
 29 24  2  0  0  0  0
 30 32  1  0  0  0  0
 31 32  1  0  0  0  0
 32 33  1  0  0  0  0
 33 35  2  0  0  0  0
 33 34  1  0  0  0  0
 36 34  1  0  0  0  0
 36 38  1  0  0  0  0
 37 40  1  0  0  0  0
 38 37  1  0  0  0  0
 38 43  1  0  0  0  0
 39 37  1  0  0  0  0
 41 40  1  0  0  0  0
 41 42  2  0  0  0  0
 43 41  1  0  0  0  0
M  END
>  <MODEL>
4

>  <REMARK>
 VINA RESULT:      -8.6      1.349      2.020
  Name = 
  8 active torsions:
  status: ('A' for Active; 'I' for Inactive)
    1  A    between atoms: C_2  and  C_21
    2  A    between atoms: C_7  and  O_32
    3  A    between atoms: C_8  and  C_43
    4  A    between atoms: C_10  and  C_15
    5  A    between atoms: C_10  and  C_28
    6  A    between atoms: C_21  and  N_38
    7  A    between atoms: C_22  and  C_28
    8  A    between atoms: N_31  and  O_32
                            x       y       z     vdW  Elec       q    Type
                         _______ _______ _______ _____ _____    ______ ____

>  <TORSDO>
F 8

$$$$
=
 OpenBabel11062416053D

 43 49  0  0  1  0  0  0  0  0999 V2000
  183.5670  177.0370  139.4850 C   0  0  1  0  0  3  0  0  0  0  0  0
  179.7870  180.0290  143.2660 C   0  0  0  0  0  3  0  0  0  0  0  0
  180.9720  179.2790  143.2310 C   0  0  0  0  0  3  0  0  0  0  0  0
  181.3900  178.7450  142.0080 C   0  0  0  0  0  0  0  0  0  0  0  0
  183.1010  176.4620  137.0370 C   0  0  0  0  0  2  0  0  0  0  0  0
  182.9430  178.7890  137.8420 C   0  0  1  0  0  3  0  0  0  0  0  0
  179.0410  180.2310  142.0920 C   0  0  0  0  0  3  0  0  0  0  0  0
  182.3780  177.7360  136.9680 N   0  0  0  0  0  2  0  0  0  0  0  0
  182.5970  177.9150  141.7750 C   0  0  1  0  0  3  0  0  0  0  0  0
  181.8350  179.3420  138.7350 C   0  0  0  0  0  2  0  0  0  0  0  0
  180.6540  178.9410  140.8580 C   0  0  0  0  0  0  0  0  0  0  0  0
  181.2560  178.2690  139.6810 C   0  0  2  0  0  3  0  0  0  0  0  0
  182.3400  177.3800  140.3490 C   0  0  1  0  0  3  0  0  0  0  0  0
  183.1710  175.9430  138.4780 C   0  0  0  0  0  2  0  0  0  0  0  0
  179.4720  179.6830  140.8750 C   0  0  0  0  0  3  0  0  0  0  0  0
  184.0610  178.3080  138.7790 C   0  0  2  0  0  3  0  0  0  0  0  0
  185.3950  178.1640  138.0950 C   0  0  0  0  0  0  0  0  0  0  0  0
  185.4540  177.8480  136.8750 O   0  0  0  0  0  0  0  0  0  0  0  0
  186.5960  178.3060  138.8530 N   0  0  0  0  0  2  0  0  0  0  0  0
  187.9110  178.2700  138.2320 C   0  0  0  0  0  2  0  0  0  0  0  0
  188.6610  177.0330  138.6950 C   0  0  1  0  0  3  0  0  0  0  0  0
  190.8520  177.1480  139.5230 C   0  0  0  0  0  0  0  0  0  0  0  0
  189.7560  176.7040  137.6920 C   0  0  0  0  0  3  0  0  0  0  0  0
  189.4880  177.3510  139.8880 C   0  0  0  0  0  0  0  0  0  0  0  0
  191.8280  177.1830  140.3750 N   0  0  0  0  0  0  0  0  0  0  0  0
  191.5400  177.3530  141.8090 C   0  0  0  0  0  2  0  0  0  0  0  0
  190.2390  178.1550  142.0610 C   0  0  0  0  0  2  0  0  0  0  0  0
  190.9660  176.7760  138.1660 N   0  0  0  0  0  0  0  0  0  0  0  0
  189.1360  177.7740  141.0980 C   0  0  0  0  0  3  0  0  0  0  0  0
  183.8340  178.8040  141.8590 C   0  0  0  0  0  2  0  0  0  0  0  0
  186.1970  178.2690  142.4340 C   0  0  0  0  0  1  0  0  0  0  0  0
  184.7740  178.3170  142.9510 C   0  0  1  0  0  3  0  0  0  0  0  0
  184.6860  179.1520  144.1980 C   0  0  0  0  0  0  0  0  0  0  0  0
  185.4600  178.8630  145.3690 N   0  0  0  0  0  2  0  0  0  0  0  0
  183.9280  180.1530  144.2000 O   0  0  0  0  0  0  0  0  0  0  0  0
  186.2090  177.7340  145.4920 O   0  0  0  0  0  0  0  0  0  0  0  0
  187.8120  177.3920  147.3140 C   0  0  2  0  0  3  0  0  0  0  0  0
  187.4710  178.1110  145.9970 C   0  0  1  0  0  3  0  0  0  0  0  0
  187.7950  178.3820  148.4610 C   0  0  0  0  0  1  0  0  0  0  0  0
  189.2180  176.8130  147.1420 C   0  0  0  0  0  2  0  0  0  0  0  0
  189.5190  177.1060  145.7250 C   0  0  0  0  0  0  0  0  0  0  0  0
  190.5750  176.7500  145.1430 O   0  0  0  0  0  0  0  0  0  0  0  0
  188.5230  177.8170  145.0940 O   0  0  0  0  0  0  0  0  0  0  0  0
  1 14  1  6  0  0  0
  1 13  1  0  0  0  0
  3  2  1  0  0  0  0
  4  3  2  0  0  0  0
  5 14  1  0  0  0  0
  6 10  1  1  0  0  0
  6 16  1  0  0  0  0
  7  2  2  0  0  0  0
  8  5  1  0  0  0  0
  8  6  1  0  0  0  0
  9 30  1  6  0  0  0
  9  4  1  0  0  0  0
 11 15  2  0  0  0  0
 11  4  1  0  0  0  0
 12 10  1  6  0  0  0
 12 13  1  0  0  0  0
 12 11  1  0  0  0  0
 13  9  1  0  0  0  0
 15  7  1  0  0  0  0
 16  1  1  0  0  0  0
 17 16  1  0  0  0  0
 17 19  1  0  0  0  0
 18 17  2  0  0  0  0
 20 21  1  0  0  0  0
 20 19  1  0  0  0  0
 21 24  1  0  0  0  0
 22 24  1  0  0  0  0
 22 25  2  0  0  0  0
 23 28  2  0  0  0  0
 23 21  1  0  0  0  0
 24 29  2  0  0  0  0
 25 26  1  0  0  0  0
 26 27  1  0  0  0  0
 28 22  1  0  0  0  0
 29 27  1  0  0  0  0
 30 32  1  0  0  0  0
 31 32  1  0  0  0  0
 32 33  1  0  0  0  0
 33 35  2  0  0  0  0
 33 34  1  0  0  0  0
 34 36  1  0  0  0  0
 36 38  1  0  0  0  0
 37 39  1  0  0  0  0
 38 37  1  0  0  0  0
 40 37  1  0  0  0  0
 41 40  1  0  0  0  0
 42 41  2  0  0  0  0
 43 41  1  0  0  0  0
 43 38  1  0  0  0  0
M  END
>  <MODEL>
5

>  <REMARK>
 VINA RESULT:      -8.4      2.380      7.371
  Name = 
  8 active torsions:
  status: ('A' for Active; 'I' for Inactive)
    1  A    between atoms: C_2  and  C_21
    2  A    between atoms: C_7  and  O_32
    3  A    between atoms: C_8  and  C_43
    4  A    between atoms: C_10  and  C_15
    5  A    between atoms: C_10  and  C_28
    6  A    between atoms: C_21  and  N_38
    7  A    between atoms: C_22  and  C_28
    8  A    between atoms: N_31  and  O_32
                            x       y       z     vdW  Elec       q    Type
                         _______ _______ _______ _____ _____    ______ ____

>  <TORSDO>
F 8

$$$$
=
 OpenBabel11062416053D

 43 49  0  0  1  0  0  0  0  0999 V2000
  187.6010  177.7050  136.6310 C   0  0  1  0  0  3  0  0  0  0  0  0
  192.5470  174.0970  136.8820 C   0  0  0  0  0  3  0  0  0  0  0  0
  192.0010  175.2850  137.3910 C   0  0  0  0  0  3  0  0  0  0  0  0
  190.7550  175.7060  136.9170 C   0  0  0  0  0  0  0  0  0  0  0  0
  185.6890  177.5190  134.9420 C   0  0  0  0  0  2  0  0  0  0  0  0
  186.3510  175.5830  136.3210 C   0  0  1  0  0  3  0  0  0  0  0  0
  191.8490  173.3540  135.9150 C   0  0  0  0  0  3  0  0  0  0  0  0
  185.8990  176.0700  134.9980 N   0  0  0  0  0  2  0  0  0  0  0  0
  190.0290  176.9360  137.3170 C   0  0  1  0  0  3  0  0  0  0  0  0
  187.6270  174.7660  136.1420 C   0  0  0  0  0  2  0  0  0  0  0  0
  190.0730  174.9770  135.9640 C   0  0  0  0  0  0  0  0  0  0  0  0
  188.7890  175.6110  135.5800 C   0  0  2  0  0  3  0  0  0  0  0  0
  188.9190  177.0080  136.2450 C   0  0  1  0  0  3  0  0  0  0  0  0
  186.9550  178.2780  135.3570 C   0  0  0  0  0  2  0  0  0  0  0  0
  190.6020  173.7930  135.4460 C   0  0  0  0  0  3  0  0  0  0  0  0
  186.6800  176.6950  137.3300 C   0  0  2  0  0  3  0  0  0  0  0  0
  185.4610  177.3020  137.9720 C   0  0  0  0  0  0  0  0  0  0  0  0
  184.3160  176.8230  137.7440 O   0  0  0  0  0  0  0  0  0  0  0  0
  185.5950  178.4730  138.7760 N   0  0  0  0  0  2  0  0  0  0  0  0
  184.4710  179.0500  139.4960 C   0  0  0  0  0  2  0  0  0  0  0  0
  184.1180  178.1690  140.6820 C   0  0  1  0  0  3  0  0  0  0  0  0
  183.0690  179.0260  142.5960 C   0  0  0  0  0  0  0  0  0  0  0  0
  185.0440  178.4940  141.8430 C   0  0  0  0  0  3  0  0  0  0  0  0
  182.8150  178.5870  141.2630 C   0  0  0  0  0  0  0  0  0  0  0  0
  182.1280  179.3100  143.4410 N   0  0  0  0  0  0  0  0  0  0  0  0
  180.7210  179.1000  143.0650 C   0  0  0  0  0  2  0  0  0  0  0  0
  180.4860  179.2430  141.5400 C   0  0  0  0  0  2  0  0  0  0  0  0
  184.4480  178.9720  142.8960 N   0  0  0  0  0  0  0  0  0  0  0  0
  181.5980  178.6150  140.7290 C   0  0  0  0  0  3  0  0  0  0  0  0
  189.4780  176.7500  138.7270 C   0  0  0  0  0  2  0  0  0  0  0  0
  188.7720  178.5640  140.2790 C   0  0  0  0  0  1  0  0  0  0  0  0
  189.9560  177.8660  139.6440 C   0  0  1  0  0  3  0  0  0  0  0  0
  190.9140  177.3760  140.6930 C   0  0  0  0  0  0  0  0  0  0  0  0
  190.4850  176.6000  141.8190 N   0  0  0  0  0  2  0  0  0  0  0  0
  192.1360  177.6320  140.5590 O   0  0  0  0  0  0  0  0  0  0  0  0
  189.1720  176.3840  142.1020 O   0  0  0  0  0  0  0  0  0  0  0  0
  189.8310  177.3740  144.2450 C   0  0  2  0  0  3  0  0  0  0  0  0
  189.0490  176.2760  143.5040 C   0  0  1  0  0  3  0  0  0  0  0  0
  191.0170  176.7660  144.9660 C   0  0  0  0  0  1  0  0  0  0  0  0
  188.8620  177.9900  145.2570 C   0  0  0  0  0  2  0  0  0  0  0  0
  187.5850  177.3210  144.9330 C   0  0  0  0  0  0  0  0  0  0  0  0
  186.4940  177.5760  145.5030 O   0  0  0  0  0  0  0  0  0  0  0  0
  187.7040  176.3770  143.9380 O   0  0  0  0  0  0  0  0  0  0  0  0
  1 14  1  6  0  0  0
  1 16  1  0  0  0  0
  2  3  1  0  0  0  0
  4  9  1  0  0  0  0
  4  3  2  0  0  0  0
  5  8  1  0  0  0  0
  5 14  1  0  0  0  0
  6 10  1  6  0  0  0
  6 16  1  0  0  0  0
  7  2  2  0  0  0  0
  8  6  1  0  0  0  0
  9 30  1  1  0  0  0
 11  4  1  0  0  0  0
 12 11  1  0  0  0  0
 12 10  1  1  0  0  0
 12 13  1  0  0  0  0
 13  1  1  0  0  0  0
 13  9  1  0  0  0  0
 15  7  1  0  0  0  0
 15 11  2  0  0  0  0
 16 17  1  0  0  0  0
 17 19  1  0  0  0  0
 18 17  2  0  0  0  0
 19 20  1  0  0  0  0
 20 21  1  0  0  0  0
 21 24  1  0  0  0  0
 21 23  1  0  0  0  0
 22 28  1  0  0  0  0
 22 25  2  0  0  0  0
 23 28  2  0  0  0  0
 24 22  1  0  0  0  0
 26 25  1  0  0  0  0
 27 26  1  0  0  0  0
 29 24  2  0  0  0  0
 29 27  1  0  0  0  0
 30 32  1  0  0  0  0
 32 31  1  0  0  0  0
 32 33  1  0  0  0  0
 33 34  1  0  0  0  0
 34 36  1  0  0  0  0
 35 33  2  0  0  0  0
 36 38  1  0  0  0  0
 37 39  1  0  0  0  0
 37 40  1  0  0  0  0
 38 43  1  0  0  0  0
 38 37  1  0  0  0  0
 41 40  1  0  0  0  0
 41 42  2  0  0  0  0
 43 41  1  0  0  0  0
M  END
>  <MODEL>
6

>  <REMARK>
 VINA RESULT:      -8.2      1.719      2.727
  Name = 
  8 active torsions:
  status: ('A' for Active; 'I' for Inactive)
    1  A    between atoms: C_2  and  C_21
    2  A    between atoms: C_7  and  O_32
    3  A    between atoms: C_8  and  C_43
    4  A    between atoms: C_10  and  C_15
    5  A    between atoms: C_10  and  C_28
    6  A    between atoms: C_21  and  N_38
    7  A    between atoms: C_22  and  C_28
    8  A    between atoms: N_31  and  O_32
                            x       y       z     vdW  Elec       q    Type
                         _______ _______ _______ _____ _____    ______ ____

>  <TORSDO>
F 8

$$$$
=
 OpenBabel11062416053D

 43 49  0  0  1  0  0  0  0  0999 V2000
  183.6370  178.7160  138.5550 C   0  0  1  0  0  3  0  0  0  0  0  0
  182.3300  174.1590  134.6740 C   0  0  0  0  0  3  0  0  0  0  0  0
  183.2630  175.1740  134.9340 C   0  0  0  0  0  3  0  0  0  0  0  0
  183.0310  176.0350  136.0120 C   0  0  0  0  0  0  0  0  0  0  0  0
  182.0840  179.6430  140.3630 C   0  0  0  0  0  2  0  0  0  0  0  0
  182.6250  177.2380  140.2730 C   0  0  1  0  0  3  0  0  0  0  0  0
  181.1890  174.0200  135.4820 C   0  0  0  0  0  3  0  0  0  0  0  0
  181.5940  178.2710  140.5200 N   0  0  0  0  0  2  0  0  0  0  0  0
  183.8870  177.1710  136.4320 C   0  0  1  0  0  3  0  0  0  0  0  0
  182.1030  176.2530  139.2300 C   0  0  0  0  0  2  0  0  0  0  0  0
  181.9080  175.9000  136.8020 C   0  0  0  0  0  0  0  0  0  0  0  0
  181.8410  176.9280  137.8680 C   0  0  2  0  0  3  0  0  0  0  0  0
  182.9660  177.9050  137.4310 C   0  0  1  0  0  3  0  0  0  0  0  0
  182.6930  179.8560  138.9720 C   0  0  0  0  0  2  0  0  0  0  0  0
  180.9690  174.8960  136.5550 C   0  0  0  0  0  3  0  0  0  0  0  0
  183.9560  177.7830  139.7320 C   0  0  2  0  0  3  0  0  0  0  0  0
  184.8280  178.3950  140.7960 C   0  0  0  0  0  0  0  0  0  0  0  0
  185.5730  179.3760  140.5220 O   0  0  0  0  0  0  0  0  0  0  0  0
  184.8720  177.8100  142.0970 N   0  0  0  0  0  2  0  0  0  0  0  0
  185.6210  178.4100  143.1890 C   0  0  0  0  0  2  0  0  0  0  0  0
  186.4330  177.3400  143.9000 C   0  0  1  0  0  3  0  0  0  0  0  0
  188.1830  177.8780  145.3650 C   0  0  0  0  0  0  0  0  0  0  0  0
  187.8280  177.2850  143.2980 C   0  0  0  0  0  3  0  0  0  0  0  0
  186.7620  177.7790  145.2810 C   0  0  0  0  0  0  0  0  0  0  0  0
  188.8150  178.0840  146.4780 N   0  0  0  0  0  0  0  0  0  0  0  0
  188.0680  178.1370  147.7440 C   0  0  0  0  0  2  0  0  0  0  0  0
  186.6150  178.6400  147.5540 C   0  0  0  0  0  2  0  0  0  0  0  0
  188.7880  177.5900  144.1230 N   0  0  0  0  0  0  0  0  0  0  0  0
  185.9710  178.0730  146.3080 C   0  0  0  0  0  3  0  0  0  0  0  0
  185.1530  176.6260  137.0850 C   0  0  0  0  0  2  0  0  0  0  0  0
  185.9680  177.6370  134.9600 C   0  0  0  0  0  1  0  0  0  0  0  0
  186.3820  176.9940  136.2680 C   0  0  1  0  0  3  0  0  0  0  0  0
  187.3290  177.8820  137.0250 C   0  0  0  0  0  0  0  0  0  0  0  0
  188.7080  177.5450  137.2170 N   0  0  0  0  0  2  0  0  0  0  0  0
  186.8990  178.9730  137.4780 O   0  0  0  0  0  0  0  0  0  0  0  0
  189.2210  176.3340  136.8660 O   0  0  0  0  0  0  0  0  0  0  0  0
  191.4690  176.1160  137.8190 C   0  0  2  0  0  3  0  0  0  0  0  0
  189.9600  175.8490  137.9650 C   0  0  1  0  0  3  0  0  0  0  0  0
  192.2040  174.8100  137.5950 C   0  0  0  0  0  1  0  0  0  0  0  0
  191.9270  176.7570  139.1310 C   0  0  0  0  0  2  0  0  0  0  0  0
  190.6560  176.9430  139.8620 C   0  0  0  0  0  0  0  0  0  0  0  0
  190.5680  177.4950  140.9880 O   0  0  0  0  0  0  0  0  0  0  0  0
  189.5640  176.4450  139.1880 O   0  0  0  0  0  0  0  0  0  0  0  0
  1 14  1  1  0  0  0
  1 16  1  0  0  0  0
  2  3  2  0  0  0  0
  2  7  1  0  0  0  0
  3  4  1  0  0  0  0
  4  9  1  0  0  0  0
  4 11  2  0  0  0  0
  5  8  1  0  0  0  0
  6 10  1  6  0  0  0
  6  8  1  0  0  0  0
  7 15  2  0  0  0  0
  9 30  1  1  0  0  0
  9 13  1  0  0  0  0
 11 12  1  0  0  0  0
 12 10  1  1  0  0  0
 13 12  1  0  0  0  0
 13  1  1  0  0  0  0
 14  5  1  0  0  0  0
 15 11  1  0  0  0  0
 16  6  1  0  0  0  0
 16 17  1  0  0  0  0
 17 19  1  0  0  0  0
 18 17  2  0  0  0  0
 19 20  1  0  0  0  0
 20 21  1  0  0  0  0
 21 24  1  0  0  0  0
 22 25  2  0  0  0  0
 23 21  1  0  0  0  0
 23 28  2  0  0  0  0
 24 22  1  0  0  0  0
 24 29  2  0  0  0  0
 25 26  1  0  0  0  0
 27 26  1  0  0  0  0
 28 22  1  0  0  0  0
 29 27  1  0  0  0  0
 31 32  1  0  0  0  0
 32 33  1  0  0  0  0
 32 30  1  0  0  0  0
 33 34  1  0  0  0  0
 33 35  2  0  0  0  0
 36 34  1  0  0  0  0
 36 38  1  0  0  0  0
 37 38  1  0  0  0  0
 37 40  1  0  0  0  0
 38 43  1  0  0  0  0
 39 37  1  0  0  0  0
 40 41  1  0  0  0  0
 41 42  2  0  0  0  0
 43 41  1  0  0  0  0
M  END
>  <MODEL>
7

>  <REMARK>
 VINA RESULT:      -8.0      2.747      7.099
  Name = 
  8 active torsions:
  status: ('A' for Active; 'I' for Inactive)
    1  A    between atoms: C_2  and  C_21
    2  A    between atoms: C_7  and  O_32
    3  A    between atoms: C_8  and  C_43
    4  A    between atoms: C_10  and  C_15
    5  A    between atoms: C_10  and  C_28
    6  A    between atoms: C_21  and  N_38
    7  A    between atoms: C_22  and  C_28
    8  A    between atoms: N_31  and  O_32
                            x       y       z     vdW  Elec       q    Type
                         _______ _______ _______ _____ _____    ______ ____

>  <TORSDO>
F 8

$$$$
=
 OpenBabel11062416053D

 43 49  0  0  1  0  0  0  0  0999 V2000
  183.3770  178.7160  138.4620 C   0  0  1  0  0  3  0  0  0  0  0  0
  182.0030  174.0650  134.7180 C   0  0  0  0  0  3  0  0  0  0  0  0
  182.9570  175.0670  134.9550 C   0  0  0  0  0  3  0  0  0  0  0  0
  182.7340  175.9670  136.0010 C   0  0  0  0  0  0  0  0  0  0  0  0
  181.8280  179.7360  140.2230 C   0  0  0  0  0  2  0  0  0  0  0  0
  182.3140  177.3180  140.2170 C   0  0  1  0  0  3  0  0  0  0  0  0
  180.8510  173.9790  135.5180 C   0  0  0  0  0  3  0  0  0  0  0  0
  181.3050  178.3810  140.4200 N   0  0  0  0  0  2  0  0  0  0  0  0
  183.6110  177.0970  136.3930 C   0  0  1  0  0  3  0  0  0  0  0  0
  181.7800  176.3110  139.2010 C   0  0  0  0  0  2  0  0  0  0  0  0
  181.6000  175.8830  136.7830 C   0  0  0  0  0  0  0  0  0  0  0  0
  181.5460  176.9470  137.8150 C   0  0  2  0  0  3  0  0  0  0  0  0
  182.6970  177.8840  137.3590 C   0  0  1  0  0  3  0  0  0  0  0  0
  182.4550  179.8900  138.8320 C   0  0  0  0  0  2  0  0  0  0  0  0
  180.6410  174.8940  136.5600 C   0  0  0  0  0  3  0  0  0  0  0  0
  183.6630  177.8150  139.6720 C   0  0  2  0  0  3  0  0  0  0  0  0
  184.5390  178.4420  140.7240 C   0  0  0  0  0  0  0  0  0  0  0  0
  185.3000  179.4030  140.4290 O   0  0  0  0  0  0  0  0  0  0  0  0
  184.5650  177.8910  142.0410 N   0  0  0  0  0  2  0  0  0  0  0  0
  185.3180  178.5080  143.1220 C   0  0  0  0  0  2  0  0  0  0  0  0
  185.8480  177.4330  144.0550 C   0  0  1  0  0  3  0  0  0  0  0  0
  187.5920  177.8490  145.5660 C   0  0  0  0  0  0  0  0  0  0  0  0
  187.2300  177.0010  143.5900 C   0  0  0  0  0  3  0  0  0  0  0  0
  186.1880  178.0220  145.3760 C   0  0  0  0  0  0  0  0  0  0  0  0
  188.1930  178.1080  146.6850 N   0  0  0  0  0  0  0  0  0  0  0  0
  187.4080  178.5190  147.8590 C   0  0  0  0  0  2  0  0  0  0  0  0
  186.1050  179.2620  147.4700 C   0  0  0  0  0  2  0  0  0  0  0  0
  188.1870  177.2420  144.4390 N   0  0  0  0  0  0  0  0  0  0  0  0
  185.4240  178.6350  146.2740 C   0  0  0  0  0  3  0  0  0  0  0  0
  184.8580  176.5450  137.0760 C   0  0  0  0  0  2  0  0  0  0  0  0
  186.2990  177.5230  135.2970 C   0  0  0  0  0  1  0  0  0  0  0  0
  185.9500  176.2600  136.0570 C   0  0  1  0  0  3  0  0  0  0  0  0
  187.1750  175.6560  136.6820 C   0  0  0  0  0  0  0  0  0  0  0  0
  187.9420  176.3400  137.6810 N   0  0  0  0  0  2  0  0  0  0  0  0
  187.5210  174.4990  136.3340 O   0  0  0  0  0  0  0  0  0  0  0  0
  187.7090  177.6360  138.0230 O   0  0  0  0  0  0  0  0  0  0  0  0
  188.8330  177.5410  140.1990 C   0  0  2  0  0  3  0  0  0  0  0  0
  188.8220  178.0900  138.7610 C   0  0  1  0  0  3  0  0  0  0  0  0
  188.5600  178.6640  141.1800 C   0  0  0  0  0  1  0  0  0  0  0  0
  190.2300  176.9660  140.4360 C   0  0  0  0  0  2  0  0  0  0  0  0
  190.8610  177.0880  139.1040 C   0  0  0  0  0  0  0  0  0  0  0  0
  192.0190  176.6790  138.8360 O   0  0  0  0  0  0  0  0  0  0  0  0
  190.0530  177.7030  138.1750 O   0  0  0  0  0  0  0  0  0  0  0  0
  1 14  1  1  0  0  0
  1 16  1  0  0  0  0
  2  3  2  0  0  0  0
  2  7  1  0  0  0  0
  3  4  1  0  0  0  0
  4  9  1  0  0  0  0
  4 11  2  0  0  0  0
  5  8  1  0  0  0  0
  6 10  1  6  0  0  0
  6  8  1  0  0  0  0
  7 15  2  0  0  0  0
  9 30  1  1  0  0  0
  9 13  1  0  0  0  0
 11 12  1  0  0  0  0
 12 10  1  1  0  0  0
 13 12  1  0  0  0  0
 13  1  1  0  0  0  0
 14  5  1  0  0  0  0
 15 11  1  0  0  0  0
 16  6  1  0  0  0  0
 16 17  1  0  0  0  0
 17 19  1  0  0  0  0
 18 17  2  0  0  0  0
 19 20  1  0  0  0  0
 20 21  1  0  0  0  0
 21 24  1  0  0  0  0
 22 25  2  0  0  0  0
 23 21  1  0  0  0  0
 23 28  2  0  0  0  0
 24 22  1  0  0  0  0
 24 29  2  0  0  0  0
 25 26  1  0  0  0  0
 27 26  1  0  0  0  0
 28 22  1  0  0  0  0
 29 27  1  0  0  0  0
 31 32  1  0  0  0  0
 32 33  1  0  0  0  0
 32 30  1  0  0  0  0
 33 34  1  0  0  0  0
 34 36  1  0  0  0  0
 35 33  2  0  0  0  0
 36 38  1  0  0  0  0
 37 40  1  0  0  0  0
 37 39  1  0  0  0  0
 38 37  1  0  0  0  0
 41 40  1  0  0  0  0
 42 41  2  0  0  0  0
 43 38  1  0  0  0  0
 43 41  1  0  0  0  0
M  END
>  <MODEL>
8

>  <REMARK>
 VINA RESULT:      -7.6      2.862      7.107
  Name = 
  8 active torsions:
  status: ('A' for Active; 'I' for Inactive)
    1  A    between atoms: C_2  and  C_21
    2  A    between atoms: C_7  and  O_32
    3  A    between atoms: C_8  and  C_43
    4  A    between atoms: C_10  and  C_15
    5  A    between atoms: C_10  and  C_28
    6  A    between atoms: C_21  and  N_38
    7  A    between atoms: C_22  and  C_28
    8  A    between atoms: N_31  and  O_32
                            x       y       z     vdW  Elec       q    Type
                         _______ _______ _______ _____ _____    ______ ____

>  <TORSDO>
F 8

$$$$
=
 OpenBabel11062416053D

 43 49  0  0  1  0  0  0  0  0999 V2000
  184.8250  179.0220  139.2540 C   0  0  1  0  0  3  0  0  0  0  0  0
  188.2930  176.0500  135.1690 C   0  0  0  0  0  3  0  0  0  0  0  0
  188.3570  176.8740  136.3030 C   0  0  0  0  0  3  0  0  0  0  0  0
  187.1620  177.3490  136.8530 C   0  0  0  0  0  0  0  0  0  0  0  0
  182.3000  179.3930  139.0950 C   0  0  0  0  0  2  0  0  0  0  0  0
  183.2550  177.1220  138.9630 C   0  0  1  0  0  3  0  0  0  0  0  0
  187.0490  175.7170  134.6050 C   0  0  0  0  0  3  0  0  0  0  0  0
  182.2350  178.0720  138.4630 N   0  0  0  0  0  2  0  0  0  0  0  0
  187.0270  178.2400  138.0310 C   0  0  1  0  0  3  0  0  0  0  0  0
  184.0340  176.5590  137.7770 C   0  0  0  0  0  2  0  0  0  0  0  0
  185.9430  177.0240  136.2950 C   0  0  0  0  0  0  0  0  0  0  0  0
  184.8080  177.6530  137.0130 C   0  0  2  0  0  3  0  0  0  0  0  0
  185.5430  178.6570  137.9410 C   0  0  1  0  0  3  0  0  0  0  0  0
  183.6920  180.0140  138.9370 C   0  0  0  0  0  2  0  0  0  0  0  0
  185.8610  176.2070  135.1660 C   0  0  0  0  0  3  0  0  0  0  0  0
  184.2920  177.7420  139.9120 C   0  0  2  0  0  3  0  0  0  0  0  0
  183.7820  177.9280  141.3170 C   0  0  0  0  0  0  0  0  0  0  0  0
  182.5420  177.9910  141.5410 O   0  0  0  0  0  0  0  0  0  0  0  0
  184.7090  178.1160  142.3850 N   0  0  0  0  0  2  0  0  0  0  0  0
  184.2810  178.2080  143.7720 C   0  0  0  0  0  2  0  0  0  0  0  0
  185.2560  179.0750  144.5520 C   0  0  1  0  0  3  0  0  0  0  0  0
  186.4900  178.2360  146.3600 C   0  0  0  0  0  0  0  0  0  0  0  0
  184.6780  179.3680  145.9270 C   0  0  0  0  0  3  0  0  0  0  0  0
  186.4530  178.2820  144.9350 C   0  0  0  0  0  0  0  0  0  0  0  0
  187.4920  177.7580  147.0290 N   0  0  0  0  0  0  0  0  0  0  0  0
  188.7000  177.3120  146.3170 C   0  0  0  0  0  2  0  0  0  0  0  0
  188.3920  176.8100  144.8840 C   0  0  0  0  0  2  0  0  0  0  0  0
  185.3730  178.8930  146.9200 N   0  0  0  0  0  0  0  0  0  0  0  0
  187.3640  177.6700  144.1840 C   0  0  0  0  0  3  0  0  0  0  0  0
  187.3430  177.4460  139.2940 C   0  0  0  0  0  2  0  0  0  0  0  0
  188.2050  178.9600  141.0730 C   0  0  0  0  0  1  0  0  0  0  0  0
  188.5900  177.9900  139.9750 C   0  0  1  0  0  3  0  0  0  0  0  0
  189.4730  176.9000  140.5110 C   0  0  0  0  0  0  0  0  0  0  0  0
  190.6070  176.4070  139.7860 N   0  0  0  0  0  2  0  0  0  0  0  0
  189.2240  176.4260  141.6480 O   0  0  0  0  0  0  0  0  0  0  0  0
  190.8740  176.7770  138.5040 O   0  0  0  0  0  0  0  0  0  0  0  0
  191.5650  175.3120  136.6640 C   0  0  2  0  0  3  0  0  0  0  0  0
  191.9070  175.9440  138.0250 C   0  0  1  0  0  3  0  0  0  0  0  0
  191.3410  173.8230  136.8290 C   0  0  0  0  0  1  0  0  0  0  0  0
  192.7670  175.5630  135.7530 C   0  0  0  0  0  2  0  0  0  0  0  0
  193.6310  176.4260  136.5860 C   0  0  0  0  0  0  0  0  0  0  0  0
  194.7210  176.9160  136.1940 O   0  0  0  0  0  0  0  0  0  0  0  0
  193.1260  176.6440  137.8480 O   0  0  0  0  0  0  0  0  0  0  0  0
  1 14  1  6  0  0  0
  1 16  1  0  0  0  0
  2  3  1  0  0  0  0
  3  4  2  0  0  0  0
  4  9  1  0  0  0  0
  6 10  1  6  0  0  0
  6 16  1  0  0  0  0
  7 15  1  0  0  0  0
  7  2  2  0  0  0  0
  8  6  1  0  0  0  0
  8  5  1  0  0  0  0
  9 30  1  1  0  0  0
 11  4  1  0  0  0  0
 11 12  1  0  0  0  0
 12 10  1  1  0  0  0
 12 13  1  0  0  0  0
 13  9  1  0  0  0  0
 13  1  1  0  0  0  0
 14  5  1  0  0  0  0
 15 11  2  0  0  0  0
 16 17  1  0  0  0  0
 17 18  2  0  0  0  0
 17 19  1  0  0  0  0
 19 20  1  0  0  0  0
 20 21  1  0  0  0  0
 21 24  1  0  0  0  0
 21 23  1  0  0  0  0
 22 28  1  0  0  0  0
 22 25  2  0  0  0  0
 23 28  2  0  0  0  0
 24 22  1  0  0  0  0
 26 25  1  0  0  0  0
 27 26  1  0  0  0  0
 29 27  1  0  0  0  0
 29 24  2  0  0  0  0
 30 32  1  0  0  0  0
 32 33  1  0  0  0  0
 32 31  1  0  0  0  0
 33 35  2  0  0  0  0
 34 33  1  0  0  0  0
 36 34  1  0  0  0  0
 37 39  1  0  0  0  0
 37 38  1  0  0  0  0
 38 36  1  0  0  0  0
 40 41  1  0  0  0  0
 40 37  1  0  0  0  0
 41 43  1  0  0  0  0
 42 41  2  0  0  0  0
 43 38  1  0  0  0  0
M  END
>  <MODEL>
9

>  <REMARK>
 VINA RESULT:      -7.4      2.765      5.873
  Name = 
  8 active torsions:
  status: ('A' for Active; 'I' for Inactive)
    1  A    between atoms: C_2  and  C_21
    2  A    between atoms: C_7  and  O_32
    3  A    between atoms: C_8  and  C_43
    4  A    between atoms: C_10  and  C_15
    5  A    between atoms: C_10  and  C_28
    6  A    between atoms: C_21  and  N_38
    7  A    between atoms: C_22  and  C_28
    8  A    between atoms: N_31  and  O_32
                            x       y       z     vdW  Elec       q    Type
                         _______ _______ _______ _____ _____    ______ ____

>  <TORSDO>
F 8

$$$$
