=
 OpenBabel11062417363D

 57 60  0  0  1  0  0  0  0  0999 V2000
  182.9880  177.4780  137.4360 C   0  0  0  0  0  0  0  0  0  0  0  0
  190.1810  177.4990  138.7950 C   0  0  0  0  0  2  0  0  0  0  0  0
  182.4260  178.1070  140.4320 C   0  0  1  0  0  3  0  0  0  0  0  0
  187.8610  174.1030  136.1120 C   0  0  2  0  0  3  0  0  0  0  0  0
  190.2370  176.2870  137.9240 C   0  0  0  0  0  0  0  0  0  0  0  0
  189.2050  174.8540  136.2090 C   0  0  2  0  0  3  0  0  0  0  0  0
  188.8770  176.4220  140.4850 O   0  0  0  0  0  1  0  0  0  0  0  0
  185.4100  178.8030  142.0540 C   0  0  0  0  0  2  0  0  0  0  0  0
  185.3390  174.3000  135.7760 C   0  0  0  0  0  2  0  0  0  0  0  0
  182.6070  179.0960  139.2650 C   0  0  2  0  0  3  0  0  0  0  0  0
  186.8070  178.3070  141.7450 C   0  0  0  0  0  2  0  0  0  0  0  0
  183.8860  175.2250  137.6480 C   0  0  0  0  0  0  0  0  0  0  0  0
  184.6600  174.1730  137.0610 N   0  0  0  0  0  2  0  0  0  0  0  0
  183.6940  176.5010  136.9330 C   0  0  0  0  0  3  0  0  0  0  0  0
  186.8170  175.9500  134.7180 C   0  0  0  0  0  1  0  0  0  0  0  0
  187.4790  179.2560  140.7720 C   0  0  0  0  0  2  0  0  0  0  0  0
  183.3530  175.0420  138.7780 O   0  0  0  0  0  0  0  0  0  0  0  0
  180.9060  178.8070  142.0220 C   0  0  2  0  0  3  0  0  0  0  0  0
  180.3960  180.2210  142.2220 C   0  0  0  0  0  1  0  0  0  0  0  0
  191.2960  175.6120  137.8880 O   0  0  0  0  0  0  0  0  0  0  0  0
  188.9000  178.8070  140.4580 C   0  0  0  0  0  2  0  0  0  0  0  0
  182.3810  178.8340  141.7490 C   0  0  1  0  0  3  0  0  0  0  0  0
  189.1390  175.9260  137.1440 O   0  0  0  0  0  0  0  0  0  0  0  0
  188.9110  177.5310  139.6310 C   0  0  1  0  0  3  0  0  0  0  0  0
  182.2920  178.4690  137.9250 C   0  0  0  0  0  3  0  0  0  0  0  0
  183.1140  178.0510  142.8550 C   0  0  1  0  0  3  0  0  0  0  0  0
  181.1930  177.4430  140.3320 O   0  0  0  0  0  0  0  0  0  0  0  0
  186.6540  175.0570  135.9390 C   0  0  2  0  0  3  0  0  0  0  0  0
  180.2910  178.2420  140.8930 O   0  0  0  0  0  0  0  0  0  0  0  0
  184.5530  177.6370  142.5150 C   0  0  0  0  0  2  0  0  0  0  0  0
  188.7430  173.2130  138.2090 O   0  0  0  0  0  1  0  0  0  0  0  0
  187.5200  171.7260  136.8360 C   0  0  0  0  0  1  0  0  0  0  0  0
  187.6680  173.1580  137.3180 C   0  0  2  0  0  3  0  0  0  0  0  0
  184.5910  180.1590  138.0700 C   0  0  0  0  0  2  0  0  0  0  0  0
  185.0220  179.0940  138.8890 O   0  0  0  0  0  0  0  0  0  0  0  0
  183.9480  179.8670  139.3750 C   0  0  2  0  0  3  0  0  0  0  0  0
  183.0070  178.7160  144.2310 C   0  0  0  0  0  2  0  0  0  0  0  0
  184.3390  179.2580  144.7270 C   0  0  0  0  0  2  0  0  0  0  0  0
  185.3310  179.2890  146.8880 O   0  0  0  0  0  1  0  0  0  0  0  0
  184.8330  178.4380  145.9040 C   0  0  2  0  0  3  0  0  0  0  0  0
  185.8890  177.5450  145.4630 N   0  0  0  0  0  2  0  0  0  0  0  0
  187.1410  178.0670  145.9840 C   0  0  1  0  0  3  0  0  0  0  0  0
  187.7260  177.0780  146.9720 C   0  0  0  0  0  1  0  0  0  0  0  0
  188.1260  178.2770  144.8490 C   0  0  0  0  0  2  0  0  0  0  0  0
  188.9670  176.7120  144.4380 S   0  0  0  0  0  0  0  0  0  0  0  0
  190.5250  177.5480  143.9970 C   0  0  0  0  0  2  0  0  0  0  0  0
  191.3870  177.6370  145.1590 N   0  0  0  0  0  2  0  0  0  0  0  0
  191.4780  176.3510  145.7040 N   0  0  0  0  0  2  0  0  0  0  0  0
  192.9280  175.7940  147.4310 F   0  0  0  0  0  0  0  0  0  0  0  0
  191.7760  176.5000  147.1180 C   0  0  0  0  0  2  0  0  0  0  0  0
  189.6110  175.3290  134.9550 O   0  0  0  0  0  0  0  0  0  0  0  0
  192.7460  172.0220  135.5240 C   0  0  0  0  0  1  0  0  0  0  0  0
  191.9670  175.3200  134.6780 C   0  0  0  0  0  2  0  0  0  0  0  0
  190.6950  174.5280  134.5940 C   0  0  1  0  0  3  0  0  0  0  0  0
  192.2790  173.3220  135.9610 N   0  0  0  0  0  0  0  0  0  0  0  0
  192.9840  174.3160  135.1600 C   0  0  0  0  0  2  0  0  0  0  0  0
  190.8690  173.4110  135.6040 C   0  0  0  0  0  2  0  0  0  0  0  0
  1 25  2  0  0  0  0
  2 24  1  0  0  0  0
  3 27  1  6  0  0  0
  3 22  1  0  0  0  0
  4  6  1  0  0  0  0
  4 33  1  1  0  0  0
  5  2  1  0  0  0  0
  6 51  1  6  0  0  0
  6 23  1  0  0  0  0
  8 30  1  0  0  0  0
  9 28  1  0  0  0  0
  9 13  1  0  0  0  0
 10 25  1  6  0  0  0
 10 36  1  0  0  0  0
 10  3  1  0  0  0  0
 11  8  1  0  0  0  0
 12 17  2  0  0  0  0
 13 12  1  0  0  0  0
 14  1  2  0  0  0  0
 14 12  1  0  0  0  0
 15 28  1  0  0  0  0
 16 11  1  0  0  0  0
 18 19  1  6  0  0  0
 20  5  2  0  0  0  0
 21 16  1  0  0  0  0
 22 18  1  0  0  0  0
 22 26  1  0  0  0  0
 23  5  1  0  0  0  0
 24 21  1  0  0  0  0
 24  7  1  0  0  0  0
 26 37  1  0  0  0  0
 27 29  1  0  0  0  0
 28  4  1  0  0  0  0
 29 18  1  0  0  0  0
 30 26  1  0  0  0  0
 32 33  1  0  0  0  0
 33 31  1  0  0  0  0
 34 35  1  0  0  0  0
 34 36  1  0  0  0  0
 35 36  1  0  0  0  0
 37 38  1  0  0  0  0
 38 40  1  0  0  0  0
 40 39  1  0  0  0  0
 41 40  1  0  0  0  0
 41 42  1  0  0  0  0
 42 43  1  0  0  0  0
 44 42  1  0  0  0  0
 45 44  1  0  0  0  0
 46 45  1  0  0  0  0
 46 47  1  0  0  0  0
 47 48  1  0  0  0  0
 48 50  1  0  0  0  0
 50 49  1  0  0  0  0
 52 55  1  0  0  0  0
 53 56  1  0  0  0  0
 54 53  1  0  0  0  0
 54 51  1  0  0  0  0
 54 57  1  0  0  0  0
 56 55  1  0  0  0  0
 57 55  1  0  0  0  0
M  END
>  <MODEL>
1

>  <REMARK>
 VINA RESULT:      -4.5      0.000      0.000
  Name = 
  15 active torsions:
  status: ('A' for Active; 'I' for Inactive)
    1  A    between atoms: C_4  and  N_5
    2  A    between atoms: C_4  and  S_10
    3  A    between atoms: N_5  and  N_35
    4  A    between atoms: C_8  and  C_43
    5  A    between atoms: S_10  and  C_34
    6  A    between atoms: C_13  and  O_56
    7  A    between atoms: C_17  and  N_18
    8  A    between atoms: C_17  and  C_34
    9  A    between atoms: N_18  and  C_36
   10  A    between atoms: C_19  and  C_31
   11  A    between atoms: C_27  and  N_35
   12  A    between atoms: C_30  and  C_36
   13  A    between atoms: C_30  and  C_39
   14  A    between atoms: C_39  and  C_50
   15  A    between atoms: C_40  and  O_56
                            x       y       z     vdW  Elec       q    Type
                         _______ _______ _______ _____ _____    ______ ____

>  <TORSDO>
F 15

$$$$
