=
 OpenBabel11062415283D

 37 40  0  0  1  0  0  0  0  0999 V2000
  189.7580  177.9200  139.6710 C   0  0  2  0  0  3  0  0  0  0  0  0
  186.1520  177.5640  138.9110 N   0  0  0  0  0  2  0  0  0  0  0  0
  190.6090  176.7980  140.0580 N   0  0  2  0  0  0  0  0  0  0  0  0
  188.3270  176.7160  145.0100 C   0  0  0  0  0  2  0  0  0  0  0  0
  191.8240  177.3540  140.6290 C   0  0  0  0  0  2  0  0  0  0  0  0
  183.6830  180.1400  139.6930 O   0  0  0  0  0  1  0  0  0  0  0  0
  190.5650  177.6720  144.7940 N   0  0  0  0  0  0  0  0  0  0  0  0
  191.7740  177.2400  142.1410 C   0  0  0  0  0  2  0  0  0  0  0  0
  188.1260  178.2140  137.5930 C   0  0  2  0  0  3  0  0  0  0  0  0
  184.9110  179.7000  142.3250 N   0  0  0  0  0  2  0  0  0  0  0  0
  187.4970  177.9060  145.3710 C   0  0  0  0  0  3  0  0  0  0  0  0
  186.8990  177.3090  137.6900 C   0  0  0  0  0  2  0  0  0  0  0  0
  185.3130  178.7320  138.6830 C   0  0  0  0  0  2  0  0  0  0  0  0
  188.5480  177.9590  140.5840 C   0  0  0  0  0  1  0  0  0  0  0  0
  188.3720  178.5070  136.2530 O   0  0  0  0  0  1  0  0  0  0  0  0
  189.9530  176.2730  137.9820 C   0  0  1  0  0  0  0  0  0  0  0  0
  189.4340  177.1150  144.0490 C   0  0  0  0  0  2  0  0  0  0  0  0
  186.2960  176.6420  142.8940 C   0  0  0  0  0  2  0  0  0  0  0  0
  189.4140  177.6570  138.2380 C   0  0  2  0  0  3  0  0  0  0  0  0
  191.9080  178.6220  142.7600 C   0  0  2  0  0  3  0  0  0  0  0  0
  191.6570  179.8500  144.8790 O   0  0  0  0  0  1  0  0  0  0  0  0
  185.5690  179.5380  141.0310 C   0  0  0  0  0  2  0  0  0  0  0  0
  184.5770  179.1020  139.9590 C   0  0  1  0  0  3  0  0  0  0  0  0
  184.6150  178.3820  142.8790 C   0  0  0  0  0  2  0  0  0  0  0  0
  191.2570  178.7730  144.0910 C   0  0  2  0  0  0  0  0  0  0  0  0
  190.5460  176.2190  136.5830 C   0  0  0  0  0  1  0  0  0  0  0  0
  185.8380  177.7520  143.4610 C   0  0  0  0  0  0  0  0  0  0  0  0
  186.4310  178.3400  144.6840 C   0  0  0  0  0  3  0  0  0  0  0  0
  190.9800  176.1060  138.9320 O   0  0  0  0  0  0  0  0  0  0  0  0
  190.6250  179.2020  142.9090 O   0  0  0  0  0  0  0  0  0  0  0  0
  191.4550  176.6700  145.0050 O   0  0  0  0  0  0  0  0  0  0  0  0
  192.2800  175.5720  146.8090 O   0  0  0  0  0  0  0  0  0  0  0  0
  191.8180  176.7850  146.3500 C   0  0  0  0  0  3  0  0  0  0  0  0
  191.0300  175.9510  147.1100 O   0  0  0  0  0  0  0  0  0  0  0  0
  188.8890  175.1780  138.1590 C   0  0  0  0  0  2  0  0  0  0  0  0
  188.8100  174.2220  136.9770 C   0  0  0  0  0  2  0  0  0  0  0  0
  189.4210  173.0110  137.3020 O   0  0  0  0  0  1  0  0  0  0  0  0
  1  3  1  0  0  0  0
  1 14  1  1  0  0  0
  3  5  1  6  0  0  0
  4 11  1  0  0  0  0
  5  8  1  0  0  0  0
  6 23  1  0  0  0  0
  7 31  1  0  0  0  0
  8 20  1  0  0  0  0
  9 15  1  6  0  0  0
  9 12  1  0  0  0  0
  9 19  1  0  0  0  0
 10 24  1  0  0  0  0
 12  2  1  0  0  0  0
 13  2  1  0  0  0  0
 13 23  1  0  0  0  0
 16 26  1  6  0  0  0
 16 35  1  0  0  0  0
 16 19  1  0  0  0  0
 16 29  1  0  0  0  0
 17  7  1  0  0  0  0
 17  4  1  0  0  0  0
 18 27  2  0  0  0  0
 19  1  1  0  0  0  0
 20 30  1  0  0  0  0
 20 25  1  0  0  0  0
 22 10  1  0  0  0  0
 23 22  1  0  0  0  0
 24 27  1  0  0  0  0
 25  7  1  0  0  0  0
 25 21  1  0  0  0  0
 27 28  1  0  0  0  0
 28 11  2  0  0  0  0
 29  3  1  0  0  0  0
 30 25  1  0  0  0  0
 31 33  1  0  0  0  0
 32 34  1  0  0  0  0
 33 32  1  0  0  0  0
 33 34  1  0  0  0  0
 36 37  1  0  0  0  0
 36 35  1  0  0  0  0
M  END
>  <MODEL>
1

>  <REMARK>
 VINA RESULT:      -5.2      0.000      0.000
  Name = 
  4 active torsions:
  status: ('A' for Active; 'I' for Inactive)
    1  A    between atoms: N_7  and  O_17
    2  A    between atoms: C_13  and  C_24
    3  A    between atoms: O_17  and  C_26
    4  A    between atoms: C_19  and  C_24
                            x       y       z     vdW  Elec       q    Type
                         _______ _______ _______ _____ _____    ______ ____

>  <TORSDO>
F 4

$$$$
=
 OpenBabel11062415283D

 37 40  0  0  1  0  0  0  0  0999 V2000
  190.8160  173.8960  136.7880 C   0  0  2  0  0  3  0  0  0  0  0  0
  192.5200  176.7530  138.4120 N   0  0  0  0  0  2  0  0  0  0  0  0
  190.3980  173.9040  135.3880 N   0  0  2  0  0  0  0  0  0  0  0  0
  186.2680  177.2560  136.5920 C   0  0  0  0  0  2  0  0  0  0  0  0
  189.4570  172.8110  135.2120 C   0  0  0  0  0  2  0  0  0  0  0  0
  192.0170  177.6480  141.9180 O   0  0  0  0  0  1  0  0  0  0  0  0
  185.7560  174.9000  136.1980 N   0  0  0  0  0  0  0  0  0  0  0  0
  188.0440  173.3590  135.1580 C   0  0  0  0  0  2  0  0  0  0  0  0
  193.1730  174.4390  137.8890 C   0  0  2  0  0  3  0  0  0  0  0  0
  189.2560  177.6690  140.9150 N   0  0  0  0  0  2  0  0  0  0  0  0
  185.9560  177.4190  138.0450 C   0  0  0  0  0  3  0  0  0  0  0  0
  193.5320  175.9210  137.7840 C   0  0  0  0  0  2  0  0  0  0  0  0
  192.7760  176.7600  139.8450 C   0  0  0  0  0  2  0  0  0  0  0  0
  190.2490  175.1220  137.4790 C   0  0  0  0  0  1  0  0  0  0  0  0
  194.3460  173.6920  137.9920 O   0  0  0  0  0  1  0  0  0  0  0  0
  192.6280  174.0840  135.2760 C   0  0  1  0  0  0  0  0  0  0  0  0
  186.8410  175.8740  136.3260 C   0  0  0  0  0  2  0  0  0  0  0  0
  188.8200  178.2980  137.5970 C   0  0  0  0  0  2  0  0  0  0  0  0
  192.3120  173.8820  136.7350 C   0  0  2  0  0  3  0  0  0  0  0  0
  187.2090  172.7260  136.2590 C   0  0  2  0  0  3  0  0  0  0  0  0
  185.0640  172.9270  137.4520 O   0  0  0  0  0  1  0  0  0  0  0  0
  190.3470  176.8380  140.4120 C   0  0  0  0  0  2  0  0  0  0  0  0
  191.6910  177.5410  140.5650 C   0  0  1  0  0  3  0  0  0  0  0  0
  189.0020  178.7500  139.9660 C   0  0  0  0  0  2  0  0  0  0  0  0
  186.0830  173.5680  136.7490 C   0  0  2  0  0  0  0  0  0  0  0  0
  193.8190  173.2180  134.8980 C   0  0  0  0  0  1  0  0  0  0  0  0
  188.2290  178.2640  138.7850 C   0  0  0  0  0  0  0  0  0  0  0  0
  186.8210  177.8490  138.9760 C   0  0  0  0  0  3  0  0  0  0  0  0
  191.4830  173.6260  134.5940 O   0  0  0  0  0  0  0  0  0  0  0  0
  187.3080  173.5040  137.4380 O   0  0  0  0  0  0  0  0  0  0  0  0
  185.4780  174.7610  134.8770 O   0  0  0  0  0  0  0  0  0  0  0  0
  183.5530  175.9260  134.5940 O   0  0  0  0  0  0  0  0  0  0  0  0
  184.0850  174.6740  134.8080 C   0  0  0  0  0  3  0  0  0  0  0  0
  183.5270  175.4080  135.8300 O   0  0  0  0  0  0  0  0  0  0  0  0
  192.8970  175.5550  134.9230 C   0  0  0  0  0  2  0  0  0  0  0  0
  194.3560  175.8360  134.5940 C   0  0  0  0  0  2  0  0  0  0  0  0
  194.6080  177.2060  134.6720 O   0  0  0  0  0  1  0  0  0  0  0  0
  1 14  1  1  0  0  0
  2 13  1  0  0  0  0
  3  5  1  1  0  0  0
  3  1  1  0  0  0  0
  4 11  1  0  0  0  0
  7 17  1  0  0  0  0
  7 25  1  0  0  0  0
  8  5  1  0  0  0  0
  8 20  1  0  0  0  0
  9 15  1  6  0  0  0
 11 28  2  0  0  0  0
 12  9  1  0  0  0  0
 12  2  1  0  0  0  0
 13 23  1  0  0  0  0
 16 26  1  6  0  0  0
 16 19  1  0  0  0  0
 17  4  1  0  0  0  0
 18 27  2  0  0  0  0
 19  1  1  0  0  0  0
 19  9  1  0  0  0  0
 20 25  1  0  0  0  0
 20 30  1  0  0  0  0
 22 23  1  0  0  0  0
 22 10  1  0  0  0  0
 23  6  1  0  0  0  0
 24 10  1  0  0  0  0
 25 30  1  0  0  0  0
 25 21  1  0  0  0  0
 27 28  1  0  0  0  0
 27 24  1  0  0  0  0
 29 16  1  0  0  0  0
 29  3  1  0  0  0  0
 31  7  1  0  0  0  0
 32 33  1  0  0  0  0
 32 34  1  0  0  0  0
 33 31  1  0  0  0  0
 33 34  1  0  0  0  0
 35 16  1  0  0  0  0
 36 37  1  0  0  0  0
 36 35  1  0  0  0  0
M  END
>  <MODEL>
2

>  <REMARK>
 VINA RESULT:      -4.8      3.586      8.161
  Name = 
  4 active torsions:
  status: ('A' for Active; 'I' for Inactive)
    1  A    between atoms: N_7  and  O_17
    2  A    between atoms: C_13  and  C_24
    3  A    between atoms: O_17  and  C_26
    4  A    between atoms: C_19  and  C_24
                            x       y       z     vdW  Elec       q    Type
                         _______ _______ _______ _____ _____    ______ ____

>  <TORSDO>
F 4

$$$$
=
 OpenBabel11062415283D

 37 40  0  0  1  0  0  0  0  0999 V2000
  187.3140  175.5940  137.2840 C   0  0  2  0  0  3  0  0  0  0  0  0
  188.8550  178.1260  139.5020 N   0  0  0  0  0  2  0  0  0  0  0  0
  186.8080  175.9020  135.9480 N   0  0  2  0  0  0  0  0  0  0  0  0
  182.4800  178.4140  138.1160 C   0  0  0  0  0  2  0  0  0  0  0  0
  185.9600  174.7940  135.5420 C   0  0  0  0  0  2  0  0  0  0  0  0
  188.5000  178.0770  143.1370 O   0  0  0  0  0  1  0  0  0  0  0  0
  182.1570  176.1860  137.1650 N   0  0  0  0  0  0  0  0  0  0  0  0
  184.5030  175.1910  135.6830 C   0  0  0  0  0  2  0  0  0  0  0  0
  189.6790  176.0900  138.3920 C   0  0  2  0  0  3  0  0  0  0  0  0
  185.6890  178.0610  142.2820 N   0  0  0  0  0  2  0  0  0  0  0  0
  182.2480  178.1830  139.5740 C   0  0  0  0  0  3  0  0  0  0  0  0
  189.8960  177.5810  138.6460 C   0  0  0  0  0  2  0  0  0  0  0  0
  189.2010  177.8080  140.8800 C   0  0  0  0  0  2  0  0  0  0  0  0
  186.6850  176.5480  138.2810 C   0  0  0  0  0  1  0  0  0  0  0  0
  190.9180  175.4650  138.2580 O   0  0  0  0  0  1  0  0  0  0  0  0
  189.0010  176.3310  135.7960 C   0  0  1  0  0  0  0  0  0  0  0  0
  183.1560  177.2050  137.4900 C   0  0  0  0  0  2  0  0  0  0  0  0
  184.9870  179.4340  139.2470 C   0  0  0  0  0  2  0  0  0  0  0  0
  188.7990  175.7470  137.1700 C   0  0  2  0  0  3  0  0  0  0  0  0
  183.8000  174.2250  136.6230 C   0  0  2  0  0  3  0  0  0  0  0  0
  181.7270  173.9060  137.9130 O   0  0  0  0  0  1  0  0  0  0  0  0
  186.8160  177.4950  141.5450 C   0  0  0  0  0  2  0  0  0  0  0  0
  188.0990  178.2730  141.8150 C   0  0  1  0  0  3  0  0  0  0  0  0
  185.2800  179.3090  141.6450 C   0  0  0  0  0  2  0  0  0  0  0  0
  182.6370  174.8010  137.3520 C   0  0  2  0  0  0  0  0  0  0  0  0
  190.2390  175.7120  135.1670 C   0  0  0  0  0  1  0  0  0  0  0  0
  184.4790  179.0500  140.4110 C   0  0  0  0  0  0  0  0  0  0  0  0
  183.1280  178.4580  140.5480 C   0  0  0  0  0  3  0  0  0  0  0  0
  187.8610  175.9400  135.0670 O   0  0  0  0  0  0  0  0  0  0  0  0
  183.9040  174.6960  137.9550 O   0  0  0  0  0  0  0  0  0  0  0  0
  181.8090  176.3480  135.8640 O   0  0  0  0  0  0  0  0  0  0  0  0
  179.9540  176.8000  134.6400 O   0  0  0  0  0  0  0  0  0  0  0  0
  180.4110  176.3580  135.8620 C   0  0  0  0  0  3  0  0  0  0  0  0
  179.9620  177.6470  135.6790 O   0  0  0  0  0  0  0  0  0  0  0  0
  189.1140  177.8640  135.8130 C   0  0  0  0  0  2  0  0  0  0  0  0
  187.7860  178.5660  135.5640 C   0  0  0  0  0  2  0  0  0  0  0  0
  187.4860  179.4110  136.6320 O   0  0  0  0  0  1  0  0  0  0  0  0
  1 14  1  1  0  0  0
  2 13  1  0  0  0  0
  3  5  1  6  0  0  0
  3  1  1  0  0  0  0
  4 11  1  0  0  0  0
  5  8  1  0  0  0  0
  7 25  1  0  0  0  0
  7 17  1  0  0  0  0
  8 20  1  0  0  0  0
  9 15  1  6  0  0  0
  9 12  1  0  0  0  0
 11 28  2  0  0  0  0
 12  2  1  0  0  0  0
 13 23  1  0  0  0  0
 16 26  1  6  0  0  0
 16 35  1  0  0  0  0
 16 19  1  0  0  0  0
 17  4  1  0  0  0  0
 18 27  2  0  0  0  0
 19  1  1  0  0  0  0
 19  9  1  0  0  0  0
 20 25  1  0  0  0  0
 20 30  1  0  0  0  0
 22 23  1  0  0  0  0
 22 10  1  0  0  0  0
 23  6  1  0  0  0  0
 24 10  1  0  0  0  0
 25 21  1  0  0  0  0
 25 30  1  0  0  0  0
 27 28  1  0  0  0  0
 27 24  1  0  0  0  0
 29 16  1  0  0  0  0
 29  3  1  0  0  0  0
 31  7  1  0  0  0  0
 32 34  1  0  0  0  0
 32 33  1  0  0  0  0
 33 31  1  0  0  0  0
 34 33  1  0  0  0  0
 36 35  1  0  0  0  0
 36 37  1  0  0  0  0
M  END
>  <MODEL>
3

>  <REMARK>
 VINA RESULT:      -4.0      3.352      8.063
  Name = 
  4 active torsions:
  status: ('A' for Active; 'I' for Inactive)
    1  A    between atoms: N_7  and  O_17
    2  A    between atoms: C_13  and  C_24
    3  A    between atoms: O_17  and  C_26
    4  A    between atoms: C_19  and  C_24
                            x       y       z     vdW  Elec       q    Type
                         _______ _______ _______ _____ _____    ______ ____

>  <TORSDO>
F 4

$$$$
=
 OpenBabel11062415283D

 37 40  0  0  1  0  0  0  0  0999 V2000
  184.8820  175.9430  136.3540 C   0  0  2  0  0  3  0  0  0  0  0  0
  181.5910  175.9320  138.0480 N   0  0  0  0  0  2  0  0  0  0  0  0
  185.9690  175.0330  136.7100 N   0  0  2  0  0  0  0  0  0  0  0  0
  186.9330  177.8900  141.2540 C   0  0  0  0  0  2  0  0  0  0  0  0
  187.1860  175.5640  136.1200 C   0  0  0  0  0  2  0  0  0  0  0  0
  179.6240  178.9590  138.6090 O   0  0  0  0  0  1  0  0  0  0  0  0
  188.4700  178.1690  139.3750 N   0  0  0  0  0  0  0  0  0  0  0  0
  188.0190  176.2400  137.1930 C   0  0  0  0  0  2  0  0  0  0  0  0
  182.3410  175.4460  135.7560 C   0  0  2  0  0  3  0  0  0  0  0  0
  182.1760  179.6870  139.8690 N   0  0  0  0  0  2  0  0  0  0  0  0
  186.2760  179.2300  141.3400 C   0  0  0  0  0  3  0  0  0  0  0  0
  181.5460  174.9620  136.9670 C   0  0  0  0  0  2  0  0  0  0  0  0
  180.5970  176.9580  137.7670 C   0  0  0  0  0  2  0  0  0  0  0  0
  184.4120  176.6630  137.6040 C   0  0  0  0  0  1  0  0  0  0  0  0
  181.7340  174.9710  134.5940 O   0  0  0  0  0  1  0  0  0  0  0  0
  184.3470  173.6660  135.9900 C   0  0  1  0  0  0  0  0  0  0  0  0
  187.2230  177.5350  139.8050 C   0  0  0  0  0  2  0  0  0  0  0  0
  184.1050  177.1390  141.0420 C   0  0  0  0  0  2  0  0  0  0  0  0
  183.8360  175.0620  135.7460 C   0  0  2  0  0  3  0  0  0  0  0  0
  188.2570  177.6920  136.8120 C   0  0  2  0  0  3  0  0  0  0  0  0
  189.0560  179.8440  137.7030 O   0  0  0  0  0  1  0  0  0  0  0  0
  182.0030  178.7750  138.7420 C   0  0  0  0  0  2  0  0  0  0  0  0
  180.6630  178.0510  138.8190 C   0  0  1  0  0  3  0  0  0  0  0  0
  182.4590  178.9110  141.0730 C   0  0  0  0  0  2  0  0  0  0  0  0
  188.4580  178.6130  137.9660 C   0  0  2  0  0  0  0  0  0  0  0  0
  184.0460  172.8030  134.7750 C   0  0  0  0  0  1  0  0  0  0  0  0
  183.8780  178.4460  141.0960 C   0  0  0  0  0  0  0  0  0  0  0  0
  184.9560  179.4480  141.2620 C   0  0  0  0  0  3  0  0  0  0  0  0
  185.7420  173.8120  136.1240 O   0  0  0  0  0  0  0  0  0  0  0  0
  187.2100  178.4960  137.3260 O   0  0  0  0  0  0  0  0  0  0  0  0
  189.4700  177.2650  139.5320 O   0  0  0  0  0  0  0  0  0  0  0  0
  191.6170  177.3270  140.2570 O   0  0  0  0  0  0  0  0  0  0  0  0
  190.3600  177.8610  140.4290 C   0  0  0  0  0  3  0  0  0  0  0  0
  190.8640  176.9040  141.2810 O   0  0  0  0  0  0  0  0  0  0  0  0
  183.7610  173.0310  137.2610 C   0  0  0  0  0  2  0  0  0  0  0  0
  183.3070  171.5920  137.0580 C   0  0  0  0  0  2  0  0  0  0  0  0
  181.9240  171.5020  137.2200 O   0  0  0  0  0  1  0  0  0  0  0  0
  1  3  1  0  0  0  0
  1 14  1  1  0  0  0
  3  5  1  6  0  0  0
  4 11  1  0  0  0  0
  5  8  1  0  0  0  0
  6 23  1  0  0  0  0
  7 31  1  0  0  0  0
  7 17  1  0  0  0  0
  9 15  1  6  0  0  0
  9 12  1  0  0  0  0
 10 24  1  0  0  0  0
 12  2  1  0  0  0  0
 13  2  1  0  0  0  0
 13 23  1  0  0  0  0
 16 26  1  6  0  0  0
 16 29  1  0  0  0  0
 16 35  1  0  0  0  0
 17  4  1  0  0  0  0
 18 27  2  0  0  0  0
 19  9  1  0  0  0  0
 19 16  1  0  0  0  0
 19  1  1  0  0  0  0
 20  8  1  0  0  0  0
 20 30  1  0  0  0  0
 20 25  1  0  0  0  0
 21 25  1  0  0  0  0
 22 23  1  0  0  0  0
 22 10  1  0  0  0  0
 24 27  1  0  0  0  0
 25  7  1  0  0  0  0
 27 28  1  0  0  0  0
 28 11  2  0  0  0  0
 29  3  1  0  0  0  0
 30 25  1  0  0  0  0
 31 33  1  0  0  0  0
 32 33  1  0  0  0  0
 32 34  1  0  0  0  0
 33 34  1  0  0  0  0
 36 37  1  0  0  0  0
 36 35  1  0  0  0  0
M  END
>  <MODEL>
4

>  <REMARK>
 VINA RESULT:      -3.9      3.723      5.794
  Name = 
  4 active torsions:
  status: ('A' for Active; 'I' for Inactive)
    1  A    between atoms: N_7  and  O_17
    2  A    between atoms: C_13  and  C_24
    3  A    between atoms: O_17  and  C_26
    4  A    between atoms: C_19  and  C_24
                            x       y       z     vdW  Elec       q    Type
                         _______ _______ _______ _____ _____    ______ ____

>  <TORSDO>
F 4

$$$$
=
 OpenBabel11062415283D

 37 40  0  0  1  0  0  0  0  0999 V2000
  187.7360  175.9950  137.4330 C   0  0  2  0  0  3  0  0  0  0  0  0
  190.1800  177.2680  139.9040 N   0  0  0  0  0  2  0  0  0  0  0  0
  187.1280  176.8330  136.4020 N   0  0  2  0  0  0  0  0  0  0  0  0
  183.9480  179.2060  140.1440 C   0  0  0  0  0  2  0  0  0  0  0  0
  185.9780  176.1140  135.8830 C   0  0  0  0  0  2  0  0  0  0  0  0
  190.3760  176.0350  143.3370 O   0  0  0  0  0  1  0  0  0  0  0  0
  182.9360  177.5460  138.6640 N   0  0  0  0  0  0  0  0  0  0  0  0
  184.7050  176.7030  136.4620 C   0  0  0  0  0  2  0  0  0  0  0  0
  190.2880  175.6260  138.0750 C   0  0  2  0  0  3  0  0  0  0  0  0
  187.5560  176.8410  143.1730 N   0  0  0  0  0  2  0  0  0  0  0  0
  183.8890  178.5330  141.4780 C   0  0  0  0  0  3  0  0  0  0  0  0
  190.9090  176.8680  138.7120 C   0  0  0  0  0  2  0  0  0  0  0  0
  190.6380  176.4350  141.0070 C   0  0  0  0  0  2  0  0  0  0  0  0
  187.5240  176.6450  138.7860 C   0  0  0  0  0  1  0  0  0  0  0  0
  191.2960  174.8650  137.4830 O   0  0  0  0  0  1  0  0  0  0  0  0
  189.3100  176.8700  135.8970 C   0  0  1  0  0  0  0  0  0  0  0  0
  184.1970  178.1840  139.0470 C   0  0  0  0  0  2  0  0  0  0  0  0
  186.7720  179.2840  140.9350 C   0  0  0  0  0  2  0  0  0  0  0  0
  189.1770  175.8970  137.0390 C   0  0  2  0  0  3  0  0  0  0  0  0
  183.9330  175.6210  137.1990 C   0  0  2  0  0  3  0  0  0  0  0  0
  182.0650  175.2710  138.7650 O   0  0  0  0  0  1  0  0  0  0  0  0
  188.3800  176.3640  142.0660 C   0  0  0  0  0  2  0  0  0  0  0  0
  189.8420  176.7460  142.2620 C   0  0  1  0  0  3  0  0  0  0  0  0
  187.3820  178.2850  143.0520 C   0  0  0  0  0  2  0  0  0  0  0  0
  183.0750  176.1170  138.3110 C   0  0  2  0  0  0  0  0  0  0  0  0
  190.2430  176.2870  134.8480 C   0  0  0  0  0  1  0  0  0  0  0  0
  186.3650  178.6240  142.0120 C   0  0  0  0  0  0  0  0  0  0  0  0
  184.9460  178.2850  142.2640 C   0  0  0  0  0  3  0  0  0  0  0  0
  188.0110  176.9760  135.3610 O   0  0  0  0  0  0  0  0  0  0  0  0
  184.3510  175.5750  138.5510 O   0  0  0  0  0  0  0  0  0  0  0  0
  182.4480  178.2090  137.5860 O   0  0  0  0  0  0  0  0  0  0  0  0
  180.6260  179.4120  136.9740 O   0  0  0  0  0  0  0  0  0  0  0  0
  181.1710  178.6300  137.9680 C   0  0  0  0  0  3  0  0  0  0  0  0
  181.1480  180.0030  138.0570 O   0  0  0  0  0  0  0  0  0  0  0  0
  189.8060  178.2530  136.3490 C   0  0  0  0  0  2  0  0  0  0  0  0
  188.6860  179.1590  136.8430 C   0  0  0  0  0  2  0  0  0  0  0  0
  189.0520  179.7530  138.0510 O   0  0  0  0  0  1  0  0  0  0  0  0
  1 14  1  1  0  0  0
  2 13  1  0  0  0  0
  3  5  1  6  0  0  0
  3  1  1  0  0  0  0
  4 11  1  0  0  0  0
  5  8  1  0  0  0  0
  7 17  1  0  0  0  0
  8 20  1  0  0  0  0
  9 15  1  6  0  0  0
  9 12  1  0  0  0  0
 11 28  2  0  0  0  0
 12  2  1  0  0  0  0
 13 23  1  0  0  0  0
 16 26  1  6  0  0  0
 16 35  1  0  0  0  0
 16 19  1  0  0  0  0
 17  4  1  0  0  0  0
 18 27  2  0  0  0  0
 19  1  1  0  0  0  0
 19  9  1  0  0  0  0
 20 25  1  0  0  0  0
 20 30  1  0  0  0  0
 22 23  1  0  0  0  0
 22 10  1  0  0  0  0
 23  6  1  0  0  0  0
 24 10  1  0  0  0  0
 25 30  1  0  0  0  0
 25  7  1  0  0  0  0
 25 21  1  0  0  0  0
 27 28  1  0  0  0  0
 27 24  1  0  0  0  0
 29 16  1  0  0  0  0
 29  3  1  0  0  0  0
 31 33  1  0  0  0  0
 31  7  1  0  0  0  0
 32 33  1  0  0  0  0
 32 34  1  0  0  0  0
 33 34  1  0  0  0  0
 35 36  1  0  0  0  0
 36 37  1  0  0  0  0
M  END
>  <MODEL>
5

>  <REMARK>
 VINA RESULT:      -3.7      2.481      7.389
  Name = 
  4 active torsions:
  status: ('A' for Active; 'I' for Inactive)
    1  A    between atoms: N_7  and  O_17
    2  A    between atoms: C_13  and  C_24
    3  A    between atoms: O_17  and  C_26
    4  A    between atoms: C_19  and  C_24
                            x       y       z     vdW  Elec       q    Type
                         _______ _______ _______ _____ _____    ______ ____

>  <TORSDO>
F 4

$$$$
=
 OpenBabel11062415283D

 37 40  0  0  1  0  0  0  0  0999 V2000
  187.7990  178.3600  140.3580 C   0  0  2  0  0  3  0  0  0  0  0  0
  189.9470  175.9080  138.6040 N   0  0  0  0  0  2  0  0  0  0  0  0
  186.9060  178.0000  141.4570 N   0  0  2  0  0  0  0  0  0  0  0  0
  183.4550  175.6560  137.9450 C   0  0  0  0  0  2  0  0  0  0  0  0
  185.9740  179.1010  141.6350 C   0  0  0  0  0  2  0  0  0  0  0  0
  190.7290  176.1260  135.0430 O   0  0  0  0  0  1  0  0  0  0  0  0
  182.8560  177.8430  138.8560 N   0  0  0  0  0  0  0  0  0  0  0  0
  184.6310  178.7340  141.0340 C   0  0  0  0  0  2  0  0  0  0  0  0
  190.3900  177.8780  140.0100 C   0  0  2  0  0  3  0  0  0  0  0  0
  187.7920  176.1480  134.9910 N   0  0  0  0  0  2  0  0  0  0  0  0
  183.6840  175.9560  136.4990 C   0  0  0  0  0  3  0  0  0  0  0  0
  190.6740  176.3970  139.7640 C   0  0  0  0  0  2  0  0  0  0  0  0
  190.7000  176.2820  137.4170 C   0  0  0  0  0  2  0  0  0  0  0  0
  187.5070  177.4620  139.1720 C   0  0  0  0  0  1  0  0  0  0  0  0
  191.5270  178.4770  140.5490 O   0  0  0  0  0  1  0  0  0  0  0  0
  188.9450  177.5300  142.2560 C   0  0  1  0  0  0  0  0  0  0  0  0
  183.9060  176.8250  138.8060 C   0  0  0  0  0  2  0  0  0  0  0  0
  186.1870  174.6490  137.5940 C   0  0  0  0  0  2  0  0  0  0  0  0
  189.1760  178.1790  140.9160 C   0  0  2  0  0  3  0  0  0  0  0  0
  184.2540  179.7530  139.9710 C   0  0  2  0  0  3  0  0  0  0  0  0
  182.6800  180.1620  138.1220 O   0  0  0  0  0  1  0  0  0  0  0  0
  188.6370  176.6620  136.0660 C   0  0  0  0  0  2  0  0  0  0  0  0
  189.9400  175.8770  136.1660 C   0  0  1  0  0  3  0  0  0  0  0  0
  187.2050  174.8790  135.4110 C   0  0  0  0  0  2  0  0  0  0  0  0
  183.3710  179.2280  138.8910 C   0  0  2  0  0  0  0  0  0  0  0  0
  189.9290  178.1010  143.2650 C   0  0  0  0  0  1  0  0  0  0  0  0
  186.0630  175.0930  136.3490 C   0  0  0  0  0  0  0  0  0  0  0  0
  184.8210  175.7120  135.8320 C   0  0  0  0  0  3  0  0  0  0  0  0
  187.6350  177.9060  142.6160 O   0  0  0  0  0  0  0  0  0  0  0  0
  184.7630  179.3400  138.7140 O   0  0  0  0  0  0  0  0  0  0  0  0
  182.1230  177.6290  139.9770 O   0  0  0  0  0  0  0  0  0  0  0  0
  179.9850  177.1840  140.5850 O   0  0  0  0  0  0  0  0  0  0  0  0
  180.8010  177.5370  139.5340 C   0  0  0  0  0  3  0  0  0  0  0  0
  180.3500  176.2470  139.6990 O   0  0  0  0  0  0  0  0  0  0  0  0
  189.0560  175.9980  142.2020 C   0  0  0  0  0  2  0  0  0  0  0  0
  189.6630  175.3960  143.4620 C   0  0  0  0  0  2  0  0  0  0  0  0
  190.9300  174.8850  143.1830 O   0  0  0  0  0  1  0  0  0  0  0  0
  1 14  1  6  0  0  0
  1 19  1  0  0  0  0
  1  3  1  0  0  0  0
  2 12  1  0  0  0  0
  3  5  1  1  0  0  0
  3 29  1  0  0  0  0
  4 17  1  0  0  0  0
  6 23  1  0  0  0  0
  7 25  1  0  0  0  0
  7 31  1  0  0  0  0
  8  5  1  0  0  0  0
  9 15  1  1  0  0  0
  9 19  1  0  0  0  0
 10 24  1  0  0  0  0
 10 22  1  0  0  0  0
 11  4  1  0  0  0  0
 12  9  1  0  0  0  0
 13  2  1  0  0  0  0
 16 29  1  0  0  0  0
 16 26  1  1  0  0  0
 17  7  1  0  0  0  0
 19 16  1  0  0  0  0
 20  8  1  0  0  0  0
 21 25  1  0  0  0  0
 22 23  1  0  0  0  0
 23 13  1  0  0  0  0
 24 27  1  0  0  0  0
 25 20  1  0  0  0  0
 27 18  2  0  0  0  0
 28 27  1  0  0  0  0
 28 11  2  0  0  0  0
 30 25  1  0  0  0  0
 30 20  1  0  0  0  0
 33 34  1  0  0  0  0
 33 31  1  0  0  0  0
 33 32  1  0  0  0  0
 34 32  1  0  0  0  0
 35 16  1  0  0  0  0
 35 36  1  0  0  0  0
 37 36  1  0  0  0  0
M  END
>  <MODEL>
6

>  <REMARK>
 VINA RESULT:      -3.7      2.623      7.799
  Name = 
  4 active torsions:
  status: ('A' for Active; 'I' for Inactive)
    1  A    between atoms: N_7  and  O_17
    2  A    between atoms: C_13  and  C_24
    3  A    between atoms: O_17  and  C_26
    4  A    between atoms: C_19  and  C_24
                            x       y       z     vdW  Elec       q    Type
                         _______ _______ _______ _____ _____    ______ ____

>  <TORSDO>
F 4

$$$$
=
 OpenBabel11062415283D

 37 40  0  0  1  0  0  0  0  0999 V2000
  186.1230  178.7130  141.6510 C   0  0  2  0  0  3  0  0  0  0  0  0
  188.8100  177.3740  139.4850 N   0  0  0  0  0  2  0  0  0  0  0  0
  185.3330  177.8800  142.5550 N   0  0  2  0  0  0  0  0  0  0  0  0
  182.5720  175.8270  138.3250 C   0  0  0  0  0  2  0  0  0  0  0  0
  184.1640  178.6510  142.9420 C   0  0  0  0  0  2  0  0  0  0  0  0
  189.5450  178.7020  136.1630 O   0  0  0  0  0  1  0  0  0  0  0  0
  181.4600  177.4960  139.7190 N   0  0  0  0  0  0  0  0  0  0  0  0
  182.9530  178.1590  142.1730 C   0  0  0  0  0  2  0  0  0  0  0  0
  188.7560  178.9470  141.3760 C   0  0  2  0  0  3  0  0  0  0  0  0
  186.6890  178.0640  135.9100 N   0  0  0  0  0  2  0  0  0  0  0  0
  182.7340  176.5440  137.0230 C   0  0  0  0  0  3  0  0  0  0  0  0
  189.3890  177.6910  140.7800 C   0  0  0  0  0  2  0  0  0  0  0  0
  189.4610  178.2120  138.4900 C   0  0  0  0  0  2  0  0  0  0  0  0
  186.0640  178.1200  140.2570 C   0  0  0  0  0  1  0  0  0  0  0  0
  189.7130  179.6260  142.1300 O   0  0  0  0  0  1  0  0  0  0  0  0
  187.4190  177.6940  143.3500 C   0  0  1  0  0  0  0  0  0  0  0  0
  182.7230  176.7960  139.4850 C   0  0  0  0  0  2  0  0  0  0  0  0
  185.4690  175.6030  137.9220 C   0  0  0  0  0  2  0  0  0  0  0  0
  187.4990  178.7100  142.2410 C   0  0  2  0  0  3  0  0  0  0  0  0
  182.3500  179.3090  141.3820 C   0  0  2  0  0  3  0  0  0  0  0  0
  180.7390  179.8220  139.5920 O   0  0  0  0  0  1  0  0  0  0  0  0
  187.3770  178.4540  137.1380 C   0  0  0  0  0  2  0  0  0  0  0  0
  188.8300  177.9900  137.1260 C   0  0  1  0  0  3  0  0  0  0  0  0
  186.4190  176.6300  135.9480 C   0  0  0  0  0  2  0  0  0  0  0  0
  181.6280  178.9020  140.1450 C   0  0  2  0  0  0  0  0  0  0  0  0
  188.2300  178.1860  144.5390 C   0  0  0  0  0  1  0  0  0  0  0  0
  185.2520  176.3200  136.8270 C   0  0  0  0  0  0  0  0  0  0  0  0
  183.9020  176.7530  136.3980 C   0  0  0  0  0  3  0  0  0  0  0  0
  186.0550  177.6510  143.7010 O   0  0  0  0  0  0  0  0  0  0  0  0
  182.9530  179.3730  140.1020 O   0  0  0  0  0  0  0  0  0  0  0  0
  180.7910  176.8300  140.6940 O   0  0  0  0  0  0  0  0  0  0  0  0
  178.9310  175.5440  140.8550 O   0  0  0  0  0  0  0  0  0  0  0  0
  179.5310  176.5640  140.1510 C   0  0  0  0  0  3  0  0  0  0  0  0
  179.5000  175.2740  139.6720 O   0  0  0  0  0  0  0  0  0  0  0  0
  187.8940  176.2990  142.9140 C   0  0  0  0  0  2  0  0  0  0  0  0
  189.1560  175.8430  143.6340 C   0  0  0  0  0  2  0  0  0  0  0  0
  190.0050  175.1900  142.7410 O   0  0  0  0  0  1  0  0  0  0  0  0
  1 14  1  6  0  0  0
  1 19  1  0  0  0  0
  1  3  1  0  0  0  0
  2 12  1  0  0  0  0
  3  5  1  1  0  0  0
  3 29  1  0  0  0  0
  4 17  1  0  0  0  0
  6 23  1  0  0  0  0
  7 25  1  0  0  0  0
  7 31  1  0  0  0  0
  8  5  1  0  0  0  0
  9 15  1  1  0  0  0
  9 19  1  0  0  0  0
 10 24  1  0  0  0  0
 10 22  1  0  0  0  0
 11  4  1  0  0  0  0
 12  9  1  0  0  0  0
 13  2  1  0  0  0  0
 16 29  1  0  0  0  0
 16 26  1  1  0  0  0
 17  7  1  0  0  0  0
 19 16  1  0  0  0  0
 20  8  1  0  0  0  0
 21 25  1  0  0  0  0
 23 22  1  0  0  0  0
 23 13  1  0  0  0  0
 24 27  1  0  0  0  0
 25 20  1  0  0  0  0
 27 18  2  0  0  0  0
 28 27  1  0  0  0  0
 28 11  2  0  0  0  0
 30 25  1  0  0  0  0
 30 20  1  0  0  0  0
 33 31  1  0  0  0  0
 33 32  1  0  0  0  0
 34 33  1  0  0  0  0
 34 32  1  0  0  0  0
 35 16  1  0  0  0  0
 35 36  1  0  0  0  0
 37 36  1  0  0  0  0
M  END
>  <MODEL>
7

>  <REMARK>
 VINA RESULT:      -3.5      2.981      8.086
  Name = 
  4 active torsions:
  status: ('A' for Active; 'I' for Inactive)
    1  A    between atoms: N_7  and  O_17
    2  A    between atoms: C_13  and  C_24
    3  A    between atoms: O_17  and  C_26
    4  A    between atoms: C_19  and  C_24
                            x       y       z     vdW  Elec       q    Type
                         _______ _______ _______ _____ _____    ______ ____

>  <TORSDO>
F 4

$$$$
=
 OpenBabel11062415283D

 37 40  0  0  1  0  0  0  0  0999 V2000
  184.2010  177.6710  140.5250 C   0  0  2  0  0  3  0  0  0  0  0  0
  184.0060  177.2570  136.8510 N   0  0  0  0  0  2  0  0  0  0  0  0
  184.5400  178.9370  141.1710 N   0  0  2  0  0  0  0  0  0  0  0  0
  189.7660  178.3220  139.7380 C   0  0  0  0  0  2  0  0  0  0  0  0
  184.8850  178.6390  142.5500 C   0  0  0  0  0  2  0  0  0  0  0  0
  184.9520  174.1740  135.1350 O   0  0  0  0  0  1  0  0  0  0  0  0
  189.1550  177.8890  142.0640 N   0  0  0  0  0  0  0  0  0  0  0  0
  186.3910  178.6790  142.7190 C   0  0  0  0  0  2  0  0  0  0  0  0
  182.3690  177.1090  138.6820 C   0  0  2  0  0  3  0  0  0  0  0  0
  187.4000  174.7690  136.6460 N   0  0  0  0  0  2  0  0  0  0  0  0
  190.1570  176.9650  139.2460 C   0  0  0  0  0  3  0  0  0  0  0  0
  182.7100  177.7180  137.3230 C   0  0  0  0  0  2  0  0  0  0  0  0
  183.8190  175.9440  136.2510 C   0  0  0  0  0  2  0  0  0  0  0  0
  185.2760  177.3320  139.5100 C   0  0  0  0  0  1  0  0  0  0  0  0
  180.9890  176.9290  138.7680 O   0  0  0  0  0  1  0  0  0  0  0  0
  182.6250  179.3860  140.0970 C   0  0  1  0  0  0  0  0  0  0  0  0
  188.6260  178.2130  140.7380 C   0  0  0  0  0  2  0  0  0  0  0  0
  187.9810  178.0310  137.4280 C   0  0  0  0  0  2  0  0  0  0  0  0
  182.8570  177.9090  139.9090 C   0  0  2  0  0  3  0  0  0  0  0  0
  186.8820  177.3370  143.2370 C   0  0  2  0  0  3  0  0  0  0  0  0
  188.9200  176.0010  143.5900 O   0  0  0  0  0  1  0  0  0  0  0  0
  186.0390  175.1220  137.0400 C   0  0  0  0  0  2  0  0  0  0  0  0
  185.1580  175.3720  135.8210 C   0  0  1  0  0  3  0  0  0  0  0  0
  188.0860  175.9670  136.1710 C   0  0  0  0  0  2  0  0  0  0  0  0
  188.2800  176.9950  142.8520 C   0  0  2  0  0  0  0  0  0  0  0  0
  181.1630  179.6240  140.4360 C   0  0  0  0  0  1  0  0  0  0  0  0
  188.5270  176.8270  137.3090 C   0  0  0  0  0  0  0  0  0  0  0  0
  189.6030  176.3360  138.2000 C   0  0  0  0  0  3  0  0  0  0  0  0
  183.4240  179.7370  141.2040 O   0  0  0  0  0  0  0  0  0  0  0  0
  187.1750  176.4840  142.1450 O   0  0  0  0  0  0  0  0  0  0  0  0
  189.3050  179.0520  142.7460 O   0  0  0  0  0  0  0  0  0  0  0  0
  191.0830  179.7520  143.9670 O   0  0  0  0  0  0  0  0  0  0  0  0
  190.1600  178.7420  143.8070 C   0  0  0  0  0  3  0  0  0  0  0  0
  191.4490  178.6270  143.3380 O   0  0  0  0  0  0  0  0  0  0  0  0
  183.0370  180.2130  138.8690 C   0  0  0  0  0  2  0  0  0  0  0  0
  181.9180  181.1030  138.3440 C   0  0  0  0  0  2  0  0  0  0  0  0
  182.3300  182.4360  138.3440 O   0  0  0  0  0  1  0  0  0  0  0  0
  1 14  1  6  0  0  0
  1  3  1  0  0  0  0
  2 12  1  0  0  0  0
  3 29  1  0  0  0  0
  3  5  1  1  0  0  0
  4 17  1  0  0  0  0
  5  8  1  0  0  0  0
  6 23  1  0  0  0  0
  7 31  1  0  0  0  0
  7 25  1  0  0  0  0
  8 20  1  0  0  0  0
  9 15  1  1  0  0  0
  9 19  1  0  0  0  0
 10 22  1  0  0  0  0
 11  4  1  0  0  0  0
 12  9  1  0  0  0  0
 13  2  1  0  0  0  0
 16 26  1  1  0  0  0
 16 29  1  0  0  0  0
 17  7  1  0  0  0  0
 19 16  1  0  0  0  0
 19  1  1  0  0  0  0
 23 13  1  0  0  0  0
 23 22  1  0  0  0  0
 24 10  1  0  0  0  0
 24 27  1  0  0  0  0
 25 20  1  0  0  0  0
 25 21  1  0  0  0  0
 27 18  2  0  0  0  0
 27 28  1  0  0  0  0
 28 11  2  0  0  0  0
 30 25  1  0  0  0  0
 30 20  1  0  0  0  0
 31 33  1  0  0  0  0
 33 32  1  0  0  0  0
 34 33  1  0  0  0  0
 34 32  1  0  0  0  0
 35 16  1  0  0  0  0
 36 35  1  0  0  0  0
 37 36  1  0  0  0  0
M  END
>  <MODEL>
8

>  <REMARK>
 VINA RESULT:      -3.4      2.507      6.499
  Name = 
  4 active torsions:
  status: ('A' for Active; 'I' for Inactive)
    1  A    between atoms: N_7  and  O_17
    2  A    between atoms: C_13  and  C_24
    3  A    between atoms: O_17  and  C_26
    4  A    between atoms: C_19  and  C_24
                            x       y       z     vdW  Elec       q    Type
                         _______ _______ _______ _____ _____    ______ ____

>  <TORSDO>
F 4

$$$$
=
 OpenBabel11062415283D

 37 40  0  0  1  0  0  0  0  0999 V2000
  186.7370  177.2240  136.9710 C   0  0  2  0  0  3  0  0  0  0  0  0
  188.9840  174.2990  137.2870 N   0  0  0  0  0  2  0  0  0  0  0  0
  185.9580  177.7580  138.0850 N   0  0  2  0  0  0  0  0  0  0  0  0
  182.5150  173.5420  137.7600 C   0  0  0  0  0  2  0  0  0  0  0  0
  184.9410  178.6300  137.5220 C   0  0  0  0  0  2  0  0  0  0  0  0
  189.5020  171.8790  134.5990 O   0  0  0  0  0  1  0  0  0  0  0  0
  181.7760  175.6980  136.8790 N   0  0  0  0  0  0  0  0  0  0  0  0
  183.6010  177.9190  137.5280 C   0  0  0  0  0  2  0  0  0  0  0  0
  189.3330  176.6820  136.7830 C   0  0  2  0  0  3  0  0  0  0  0  0
  186.5790  171.8090  134.8850 N   0  0  0  0  0  2  0  0  0  0  0  0
  182.6170  172.7030  136.5260 C   0  0  0  0  0  3  0  0  0  0  0  0
  189.7380  175.4880  137.6470 C   0  0  0  0  0  2  0  0  0  0  0  0
  189.6180  173.7070  136.1170 C   0  0  0  0  0  2  0  0  0  0  0  0
  186.4520  175.7400  136.8370 C   0  0  0  0  0  1  0  0  0  0  0  0
  190.4430  177.5030  136.5910 O   0  0  0  0  0  1  0  0  0  0  0  0
  188.0810  178.0470  138.7380 C   0  0  1  0  0  0  0  0  0  0  0  0
  182.9110  174.9780  137.4570 C   0  0  0  0  0  2  0  0  0  0  0  0
  185.3010  172.6380  137.9300 C   0  0  0  0  0  2  0  0  0  0  0  0
  188.1600  177.5260  137.3260 C   0  0  2  0  0  3  0  0  0  0  0  0
  183.0590  177.8440  136.1100 C   0  0  2  0  0  3  0  0  0  0  0  0
  181.3330  176.7590  134.7290 O   0  0  0  0  0  1  0  0  0  0  0  0
  187.4420  172.9560  135.1540 C   0  0  0  0  0  2  0  0  0  0  0  0
  188.8170  172.5090  135.6390 C   0  0  1  0  0  3  0  0  0  0  0  0
  186.1430  171.2300  136.1520 C   0  0  0  0  0  2  0  0  0  0  0  0
  182.1590  176.6850  135.8490 C   0  0  2  0  0  0  0  0  0  0  0  0
  189.0720  179.1880  138.9060 C   0  0  0  0  0  1  0  0  0  0  0  0
  185.0520  172.0390  136.7710 C   0  0  0  0  0  0  0  0  0  0  0  0
  183.7250  172.0700  136.1140 C   0  0  0  0  0  3  0  0  0  0  0  0
  186.7690  178.5460  138.8640 O   0  0  0  0  0  0  0  0  0  0  0  0
  183.5190  176.6570  135.4870 O   0  0  0  0  0  0  0  0  0  0  0  0
  181.1430  176.3510  137.8860 O   0  0  0  0  0  0  0  0  0  0  0  0
  178.9660  176.6430  138.4490 O   0  0  0  0  0  0  0  0  0  0  0  0
  179.8940  175.7340  137.9890 C   0  0  0  0  0  3  0  0  0  0  0  0
  179.4820  175.7480  139.3030 O   0  0  0  0  0  0  0  0  0  0  0  0
  188.3320  176.9550  139.7900 C   0  0  0  0  0  2  0  0  0  0  0  0
  189.0720  177.4650  141.0190 C   0  0  0  0  0  2  0  0  0  0  0  0
  188.3330  177.1890  142.1690 O   0  0  0  0  0  1  0  0  0  0  0  0
  1 14  1  1  0  0  0
  1 19  1  0  0  0  0
  1  3  1  0  0  0  0
  2 12  1  0  0  0  0
  3  5  1  6  0  0  0
  3 29  1  0  0  0  0
  5  8  1  0  0  0  0
  6 23  1  0  0  0  0
  7 17  1  0  0  0  0
  7 31  1  0  0  0  0
  9 15  1  1  0  0  0
  9 19  1  0  0  0  0
  9 12  1  0  0  0  0
 10 22  1  0  0  0  0
 10 24  1  0  0  0  0
 11  4  1  0  0  0  0
 13  2  1  0  0  0  0
 16 29  1  0  0  0  0
 16 26  1  1  0  0  0
 16 35  1  0  0  0  0
 17  4  1  0  0  0  0
 19 16  1  0  0  0  0
 20  8  1  0  0  0  0
 21 25  1  0  0  0  0
 22 23  1  0  0  0  0
 23 13  1  0  0  0  0
 24 27  1  0  0  0  0
 25 20  1  0  0  0  0
 25  7  1  0  0  0  0
 27 18  2  0  0  0  0
 28 11  2  0  0  0  0
 28 27  1  0  0  0  0
 30 25  1  0  0  0  0
 30 20  1  0  0  0  0
 31 33  1  0  0  0  0
 32 34  1  0  0  0  0
 33 32  1  0  0  0  0
 33 34  1  0  0  0  0
 35 36  1  0  0  0  0
 36 37  1  0  0  0  0
M  END
>  <MODEL>
9

>  <REMARK>
 VINA RESULT:      -3.2      3.947      9.098
  Name = 
  4 active torsions:
  status: ('A' for Active; 'I' for Inactive)
    1  A    between atoms: N_7  and  O_17
    2  A    between atoms: C_13  and  C_24
    3  A    between atoms: O_17  and  C_26
    4  A    between atoms: C_19  and  C_24
                            x       y       z     vdW  Elec       q    Type
                         _______ _______ _______ _____ _____    ______ ____

>  <TORSDO>
F 4

$$$$
