=
 OpenBabel11062417473D

 64 72  0  0  1  0  0  0  0  0999 V2000
  183.8980  178.5550  139.9910 C   0  0  2  0  0  0  0  0  0  0  0  0
  183.7840  177.1510  140.1710 O   0  0  0  0  0  1  0  0  0  0  0  0
  181.5870  180.2680  137.6320 O   0  0  0  0  0  0  0  0  0  0  0  0
  181.0550  179.0010  137.6230 C   0  0  0  0  0  0  0  0  0  0  0  0
  183.2660  181.2840  138.8580 O   0  0  0  0  0  0  0  0  0  0  0  0
  181.4720  178.1410  138.8360 C   0  0  2  0  0  3  0  0  0  0  0  0
  182.4300  179.1050  139.6360 C   0  0  2  0  0  3  0  0  0  0  0  0
  182.4240  180.3390  138.7510 C   0  0  0  0  0  0  0  0  0  0  0  0
  180.1610  178.6640  136.7800 O   0  0  0  0  0  0  0  0  0  0  0  0
  182.1460  176.7950  138.4120 C   0  0  0  0  0  2  0  0  0  0  0  0
  182.4050  176.9750  136.9030 C   0  0  0  0  0  2  0  0  0  0  0  0
  183.2530  176.0140  136.2550 O   0  0  0  0  0  0  0  0  0  0  0  0
  184.2850  173.7440  137.4760 C   0  0  0  0  0  2  0  0  0  0  0  0
  184.7540  174.2820  134.9040 C   0  0  0  0  0  1  0  0  0  0  0  0
  183.1180  174.6830  136.9040 C   0  0  2  0  0  0  0  0  0  0  0  0
  184.6730  174.6660  136.4380 C   0  0  1  0  0  3  0  0  0  0  0  0
  180.7520  173.1520  137.0230 C   0  0  0  0  0  2  0  0  0  0  0  0
  181.9860  172.2540  137.0960 C   0  0  0  0  0  2  0  0  0  0  0  0
  182.0950  173.5880  136.2440 C   0  0  0  0  0  3  0  0  0  0  0  0
  184.8820  178.7870  138.8260 C   0  0  0  0  0  2  0  0  0  0  0  0
  185.6470  177.5800  138.2470 C   0  0  0  0  0  2  0  0  0  0  0  0
  186.9980  178.0600  137.6840 C   0  0  2  0  0  3  0  0  0  0  0  0
  186.8660  179.3660  137.1040 O   0  0  0  0  0  1  0  0  0  0  0  0
  187.6680  177.0840  136.7310 C   0  0  1  0  0  3  0  0  0  0  0  0
  187.8740  177.6240  135.3400 C   0  0  0  0  0  1  0  0  0  0  0  0
  188.8120  176.6200  137.3880 O   0  0  0  0  0  0  0  0  0  0  0  0
  192.8920  173.9950  137.4090 C   0  0  0  0  0  2  0  0  0  0  0  0
  191.6820  176.4830  137.9540 C   0  0  0  0  0  3  0  0  0  0  0  0
  192.9780  176.3640  138.2330 C   0  0  0  0  0  3  0  0  0  0  0  0
  191.7400  174.4120  136.5270 C   0  0  1  0  0  3  0  0  0  0  0  0
  190.9170  173.2110  136.0080 C   0  0  0  0  0  1  0  0  0  0  0  0
  193.7400  175.1970  137.6170 C   0  0  1  0  0  3  0  0  0  0  0  0
  190.9410  175.5430  137.0690 C   0  0  0  0  0  0  0  0  0  0  0  0
  189.6560  175.6480  136.8070 C   0  0  0  0  0  3  0  0  0  0  0  0
  195.4350  175.2840  139.4240 O   0  0  0  0  0  0  0  0  0  0  0  0
  195.0050  174.7990  138.2430 C   0  0  0  0  0  0  0  0  0  0  0  0
  196.7180  174.9050  139.6850 N   0  0  0  0  0  2  0  0  0  0  0  0
  197.0750  174.0610  138.5230 C   0  0  1  0  0  3  0  0  0  0  0  0
  195.9790  174.2570  137.5790 N   0  0  0  0  0  0  0  0  0  0  0  0
  198.3840  174.5710  137.9260 C   0  0  0  0  0  1  0  0  0  0  0  0
  184.4050  179.0680  141.2490 O   0  0  0  0  0  0  0  0  0  0  0  0
  185.7470  179.5420  141.3190 C   0  0  0  0  0  2  0  0  0  0  0  0
  191.1230  176.4300  146.4480 O   0  0  0  0  0  0  0  0  0  0  0  0
  185.9380  178.8140  145.1080 C   0  0  0  0  0  2  0  0  0  0  0  0
  191.7410  177.1010  144.2610 C   0  0  0  0  0  3  0  0  0  0  0  0
  189.5410  177.2050  141.2740 C   0  0  0  0  0  3  0  0  0  0  0  0
  189.0920  179.1970  147.9020 O   0  0  0  0  0  1  0  0  0  0  0  0
  186.8020  177.7870  145.9590 C   0  0  2  0  0  0  0  0  0  0  0  0
  187.6850  177.3770  148.1390 C   0  0  0  0  0  2  0  0  0  0  0  0
  190.7350  176.9170  145.3560 C   0  0  0  0  0  0  0  0  0  0  0  0
  188.4040  178.0090  145.9130 C   0  0  2  0  0  3  0  0  0  0  0  0
  189.2220  177.0250  145.0740 C   0  0  1  0  0  3  0  0  0  0  0  0
  184.5690  177.7230  143.5460 O   0  0  0  0  0  0  0  0  0  0  0  0
  186.4150  178.7850  142.4530 C   0  0  1  0  0  3  0  0  0  0  0  0
  189.9480  177.1100  142.6170 C   0  0  0  0  0  0  0  0  0  0  0  0
  185.5480  178.4170  143.7140 C   0  0  0  0  0  0  0  0  0  0  0  0
  187.6980  177.0940  143.2840 C   0  0  0  0  0  3  0  0  0  0  0  0
  188.9930  177.0140  143.6310 C   0  0  0  0  0  0  0  0  0  0  0  0
  187.2930  177.6270  142.0910 C   0  0  0  0  0  0  0  0  0  0  0  0
  191.3760  177.0770  142.9840 C   0  0  0  0  0  3  0  0  0  0  0  0
  186.4670  176.4680  145.6280 F   0  0  0  0  0  0  0  0  0  0  0  0
  188.1820  177.6130  141.0410 C   0  0  0  0  0  3  0  0  0  0  0  0
  188.8700  177.9090  147.3790 C   0  0  1  0  0  3  0  0  0  0  0  0
  186.4810  177.9240  147.4080 C   0  0  0  0  0  2  0  0  0  0  0  0
  1  2  1  1  0  0  0
  1 41  1  0  0  0  0
  3  8  1  0  0  0  0
  4  3  1  0  0  0  0
  4  6  1  0  0  0  0
  6 10  1  6  0  0  0
  6  7  1  0  0  0  0
  7  1  1  6  0  0  0
  8  5  2  0  0  0  0
  8  7  1  0  0  0  0
  9  4  2  0  0  0  0
 11 10  1  0  0  0  0
 12 11  1  0  0  0  0
 15 12  1  1  0  0  0
 15 13  1  0  0  0  0
 16 14  1  6  0  0  0
 16 15  1  0  0  0  0
 16 13  1  0  0  0  0
 17 18  1  0  0  0  0
 19 15  1  0  0  0  0
 19 17  1  0  0  0  0
 19 18  1  0  0  0  0
 20  1  1  0  0  0  0
 21 20  1  0  0  0  0
 22 23  1  6  0  0  0
 22 21  1  0  0  0  0
 24 25  1  6  0  0  0
 24 26  1  0  0  0  0
 24 22  1  0  0  0  0
 27 32  1  0  0  0  0
 28 29  2  0  0  0  0
 30 31  1  1  0  0  0
 30 33  1  0  0  0  0
 30 27  1  0  0  0  0
 32 29  1  0  0  0  0
 32 36  1  1  0  0  0
 33 28  1  0  0  0  0
 34 33  2  0  0  0  0
 34 26  1  0  0  0  0
 35 37  1  0  0  0  0
 36 35  1  0  0  0  0
 38 40  1  6  0  0  0
 38 37  1  0  0  0  0
 39 36  2  0  0  0  0
 39 38  1  0  0  0  0
 41 42  1  0  0  0  0
 42 54  1  0  0  0  0
 44 48  1  0  0  0  0
 45 50  1  0  0  0  0
 46 55  1  0  0  0  0
 48 61  1  6  0  0  0
 48 64  1  0  0  0  0
 50 43  2  0  0  0  0
 51 48  1  0  0  0  0
 51 63  1  0  0  0  0
 52 50  1  0  0  0  0
 52 51  1  0  0  0  0
 53 56  2  0  0  0  0
 54 56  1  0  0  0  0
 55 60  1  0  0  0  0
 55 58  2  0  0  0  0
 56 44  1  0  0  0  0
 57 58  1  0  0  0  0
 58 52  1  0  0  0  0
 59 54  1  0  0  0  0
 59 57  2  0  0  0  0
 60 45  2  0  0  0  0
 62 46  2  0  0  0  0
 62 59  1  0  0  0  0
 63 47  1  0  0  0  0
 63 49  1  0  0  0  0
 64 49  1  0  0  0  0
M  END
>  <MODEL>
1

>  <REMARK>
 VINA RESULT:      -8.6      0.000      0.000
  Name = 
  16 active torsions:
  status: ('A' for Active; 'I' for Inactive)
    1  A    between atoms: O_9  and  C_38
    2  A    between atoms: O_9  and  C_64
    3  A    between atoms: C_10  and  C_16
    4  A    between atoms: C_10  and  C_41
    5  A    between atoms: O_11  and  C_22
    6  A    between atoms: O_11  and  C_46
    7  A    between atoms: C_13  and  C_38
    8  A    between atoms: C_13  and  C_41
    9  A    between atoms: C_16  and  C_36
   10  A    between atoms: C_16  and  O_49
   11  A    between atoms: C_18  and  C_20
   12  A    between atoms: C_18  and  C_22
   13  A    between atoms: C_19  and  C_57
   14  A    between atoms: C_23  and  C_31
   15  A    between atoms: C_23  and  O_49
   16  A    between atoms: C_46  and  C_47
                            x       y       z     vdW  Elec       q    Type
                         _______ _______ _______ _____ _____    ______ ____

>  <TORSDO>
F 16

$$$$
=
 OpenBabel11062417473D

 64 72  0  0  1  0  0  0  0  0999 V2000
  182.9400  177.2950  139.8110 C   0  0  2  0  0  0  0  0  0  0  0  0
  182.9890  175.9990  139.2330 O   0  0  0  0  0  1  0  0  0  0  0  0
  180.3580  179.3760  138.1250 O   0  0  0  0  0  0  0  0  0  0  0  0
  179.9010  178.1160  137.8150 C   0  0  0  0  0  0  0  0  0  0  0  0
  182.0640  180.1670  139.4730 O   0  0  0  0  0  0  0  0  0  0  0  0
  180.4610  177.0070  138.7340 C   0  0  2  0  0  3  0  0  0  0  0  0
  181.4190  177.8030  139.7000 C   0  0  2  0  0  3  0  0  0  0  0  0
  181.2730  179.2190  139.1720 C   0  0  0  0  0  0  0  0  0  0  0  0
  178.9670  177.9400  136.9690 O   0  0  0  0  0  0  0  0  0  0  0  0
  181.1780  175.8720  137.9330 C   0  0  0  0  0  2  0  0  0  0  0  0
  180.2970  174.6320  138.1860 C   0  0  0  0  0  2  0  0  0  0  0  0
  180.3600  173.5650  137.2270 O   0  0  0  0  0  0  0  0  0  0  0  0
  181.0920  174.0890  134.6010 C   0  0  0  0  0  2  0  0  0  0  0  0
  180.1770  171.6950  135.3430 C   0  0  0  0  0  1  0  0  0  0  0  0
  181.3560  173.8780  136.1680 C   0  0  2  0  0  0  0  0  0  0  0  0
  180.1250  173.2770  135.2960 C   0  0  1  0  0  3  0  0  0  0  0  0
  183.8660  173.3270  137.3300 C   0  0  0  0  0  2  0  0  0  0  0  0
  184.0320  174.0290  135.9820 C   0  0  0  0  0  2  0  0  0  0  0  0
  182.7800  173.0720  136.1660 C   0  0  0  0  0  3  0  0  0  0  0  0
  183.8940  178.1940  138.9970 C   0  0  0  0  0  2  0  0  0  0  0  0
  184.4470  177.6690  137.6560 C   0  0  0  0  0  2  0  0  0  0  0  0
  185.9780  177.5290  137.7610 C   0  0  2  0  0  3  0  0  0  0  0  0
  186.6040  178.8200  137.7230 O   0  0  0  0  0  1  0  0  0  0  0  0
  186.5940  176.5730  136.7540 C   0  0  1  0  0  3  0  0  0  0  0  0
  186.7520  177.1500  135.3720 C   0  0  0  0  0  1  0  0  0  0  0  0
  187.7580  176.0750  137.3500 O   0  0  0  0  0  0  0  0  0  0  0  0
  191.9840  173.7150  137.0250 C   0  0  0  0  0  2  0  0  0  0  0  0
  190.6310  176.0260  137.9110 C   0  0  0  0  0  3  0  0  0  0  0  0
  191.9330  175.9430  138.1790 C   0  0  0  0  0  3  0  0  0  0  0  0
  190.8080  174.1860  136.2040 C   0  0  1  0  0  3  0  0  0  0  0  0
  190.0560  173.0250  135.5140 C   0  0  0  0  0  1  0  0  0  0  0  0
  192.7610  174.9220  137.4080 C   0  0  1  0  0  3  0  0  0  0  0  0
  189.9460  175.1790  136.8960 C   0  0  0  0  0  0  0  0  0  0  0  0
  188.6560  175.2470  136.6430 C   0  0  0  0  0  3  0  0  0  0  0  0
  194.9440  175.3790  138.4890 O   0  0  0  0  0  0  0  0  0  0  0  0
  194.0470  174.5120  137.9790 C   0  0  0  0  0  0  0  0  0  0  0  0
  196.1280  174.7670  138.7740 N   0  0  0  0  0  2  0  0  0  0  0  0
  195.8840  173.3520  138.4160 C   0  0  1  0  0  3  0  0  0  0  0  0
  194.6010  173.3680  137.7200 N   0  0  0  0  0  0  0  0  0  0  0  0
  196.9900  172.8820  137.4760 C   0  0  0  0  0  1  0  0  0  0  0  0
  183.3820  177.1260  141.1810 O   0  0  0  0  0  0  0  0  0  0  0  0
  183.5180  178.2710  142.0180 C   0  0  0  0  0  2  0  0  0  0  0  0
  190.3470  177.0550  146.1150 O   0  0  0  0  0  0  0  0  0  0  0  0
  187.2490  177.7210  141.1830 C   0  0  0  0  0  2  0  0  0  0  0  0
  188.2250  176.8350  147.1480 C   0  0  0  0  0  3  0  0  0  0  0  0
  185.0990  178.5790  146.1740 C   0  0  0  0  0  3  0  0  0  0  0  0
  190.1830  175.1940  142.8890 O   0  0  0  0  0  1  0  0  0  0  0  0
  188.5810  177.9650  142.0160 C   0  0  2  0  0  0  0  0  0  0  0  0
  190.8650  177.2970  142.2100 C   0  0  0  0  0  2  0  0  0  0  0  0
  189.1000  177.1260  145.9680 C   0  0  0  0  0  0  0  0  0  0  0  0
  188.7430  177.0770  143.3580 C   0  0  2  0  0  3  0  0  0  0  0  0
  188.5290  177.7890  144.6970 C   0  0  1  0  0  3  0  0  0  0  0  0
  186.0300  179.7020  140.8800 O   0  0  0  0  0  0  0  0  0  0  0  0
  184.9610  178.2920  142.4920 C   0  0  1  0  0  3  0  0  0  0  0  0
  186.4180  178.0950  146.1180 C   0  0  0  0  0  0  0  0  0  0  0  0
  186.0830  178.6300  141.4420 C   0  0  0  0  0  0  0  0  0  0  0  0
  186.6140  178.9190  143.9300 C   0  0  0  0  0  3  0  0  0  0  0  0
  187.1940  178.3110  144.9780 C   0  0  0  0  0  0  0  0  0  0  0  0
  185.2560  178.9880  143.7850 C   0  0  0  0  0  0  0  0  0  0  0  0
  187.0210  177.3830  147.2610 C   0  0  0  0  0  3  0  0  0  0  0  0
  188.7470  179.3290  142.2910 F   0  0  0  0  0  0  0  0  0  0  0  0
  184.4790  178.9040  144.9170 C   0  0  0  0  0  3  0  0  0  0  0  0
  190.1850  176.5360  143.3160 C   0  0  1  0  0  3  0  0  0  0  0  0
  189.7700  177.5780  141.2070 C   0  0  0  0  0  2  0  0  0  0  0  0
  1  2  1  6  0  0  0
  1 41  1  0  0  0  0
  3  8  1  0  0  0  0
  4  3  1  0  0  0  0
  4  6  1  0  0  0  0
  6 10  1  6  0  0  0
  6  7  1  0  0  0  0
  7  1  1  6  0  0  0
  8  5  2  0  0  0  0
  8  7  1  0  0  0  0
  9  4  2  0  0  0  0
 10 11  1  0  0  0  0
 12 11  1  0  0  0  0
 13 16  1  0  0  0  0
 13 15  1  0  0  0  0
 15 12  1  1  0  0  0
 16 14  1  6  0  0  0
 16 15  1  0  0  0  0
 18 19  1  0  0  0  0
 18 17  1  0  0  0  0
 19 15  1  0  0  0  0
 19 17  1  0  0  0  0
 20  1  1  0  0  0  0
 21 22  1  0  0  0  0
 21 20  1  0  0  0  0
 22 23  1  6  0  0  0
 24 25  1  6  0  0  0
 24 26  1  0  0  0  0
 24 22  1  0  0  0  0
 27 32  1  0  0  0  0
 28 29  2  0  0  0  0
 30 31  1  1  0  0  0
 30 33  1  0  0  0  0
 30 27  1  0  0  0  0
 32 36  1  1  0  0  0
 32 29  1  0  0  0  0
 33 28  1  0  0  0  0
 34 33  2  0  0  0  0
 34 26  1  0  0  0  0
 35 37  1  0  0  0  0
 36 35  1  0  0  0  0
 38 40  1  6  0  0  0
 38 37  1  0  0  0  0
 39 36  2  0  0  0  0
 39 38  1  0  0  0  0
 41 42  1  0  0  0  0
 42 54  1  0  0  0  0
 44 56  1  0  0  0  0
 44 48  1  0  0  0  0
 45 60  2  0  0  0  0
 47 63  1  0  0  0  0
 48 61  1  1  0  0  0
 48 51  1  0  0  0  0
 49 63  1  0  0  0  0
 50 43  2  0  0  0  0
 50 45  1  0  0  0  0
 51 52  1  0  0  0  0
 52 58  1  0  0  0  0
 52 50  1  0  0  0  0
 53 56  2  0  0  0  0
 54 59  1  0  0  0  0
 55 46  1  0  0  0  0
 55 60  1  0  0  0  0
 56 54  1  0  0  0  0
 57 58  1  0  0  0  0
 58 55  2  0  0  0  0
 59 57  2  0  0  0  0
 59 62  1  0  0  0  0
 62 46  2  0  0  0  0
 63 51  1  0  0  0  0
 64 48  1  0  0  0  0
 64 49  1  0  0  0  0
M  END
>  <MODEL>
2

>  <REMARK>
 VINA RESULT:      -8.5      1.527      3.118
  Name = 
  16 active torsions:
  status: ('A' for Active; 'I' for Inactive)
    1  A    between atoms: O_9  and  C_38
    2  A    between atoms: O_9  and  C_64
    3  A    between atoms: C_10  and  C_16
    4  A    between atoms: C_10  and  C_41
    5  A    between atoms: O_11  and  C_22
    6  A    between atoms: O_11  and  C_46
    7  A    between atoms: C_13  and  C_38
    8  A    between atoms: C_13  and  C_41
    9  A    between atoms: C_16  and  C_36
   10  A    between atoms: C_16  and  O_49
   11  A    between atoms: C_18  and  C_20
   12  A    between atoms: C_18  and  C_22
   13  A    between atoms: C_19  and  C_57
   14  A    between atoms: C_23  and  C_31
   15  A    between atoms: C_23  and  O_49
   16  A    between atoms: C_46  and  C_47
                            x       y       z     vdW  Elec       q    Type
                         _______ _______ _______ _____ _____    ______ ____

>  <TORSDO>
F 16

$$$$
=
 OpenBabel11062417473D

 64 72  0  0  1  0  0  0  0  0999 V2000
  184.3760  178.6510  142.2360 C   0  0  2  0  0  0  0  0  0  0  0  0
  184.9730  177.3850  142.4740 O   0  0  0  0  0  1  0  0  0  0  0  0
  183.3640  179.0900  145.7890 O   0  0  0  0  0  0  0  0  0  0  0  0
  184.6990  178.8010  145.9460 C   0  0  0  0  0  0  0  0  0  0  0  0
  182.0200  179.4650  143.9440 O   0  0  0  0  0  0  0  0  0  0  0  0
  185.5370  179.0160  144.6670 C   0  0  2  0  0  3  0  0  0  0  0  0
  184.4580  179.4760  143.6140 C   0  0  2  0  0  3  0  0  0  0  0  0
  183.1870  179.4300  144.4430 C   0  0  0  0  0  0  0  0  0  0  0  0
  185.1940  178.5630  147.0950 O   0  0  0  0  0  0  0  0  0  0  0  0
  186.3220  177.7320  144.2430 C   0  0  0  0  0  2  0  0  0  0  0  0
  187.7450  177.9760  144.7860 C   0  0  0  0  0  2  0  0  0  0  0  0
  188.8320  177.9240  143.8500 O   0  0  0  0  0  0  0  0  0  0  0  0
  191.6050  177.8720  143.9510 C   0  0  0  0  0  2  0  0  0  0  0  0
  190.2190  175.9710  142.6920 C   0  0  0  0  0  1  0  0  0  0  0  0
  190.1270  177.7920  144.5660 C   0  0  2  0  0  0  0  0  0  0  0  0
  190.5650  177.4770  143.0350 C   0  0  1  0  0  3  0  0  0  0  0  0
  190.2420  176.9510  147.2560 C   0  0  0  0  0  2  0  0  0  0  0  0
  191.5950  176.7670  146.5700 C   0  0  0  0  0  2  0  0  0  0  0  0
  190.2900  176.6050  145.6820 C   0  0  0  0  0  3  0  0  0  0  0  0
  182.9120  178.3960  141.8210 C   0  0  0  0  0  2  0  0  0  0  0  0
  182.5330  178.5030  140.3300 C   0  0  0  0  0  2  0  0  0  0  0  0
  181.4020  179.5350  140.1680 C   0  0  2  0  0  3  0  0  0  0  0  0
  180.3430  179.2700  141.1000 O   0  0  0  0  0  1  0  0  0  0  0  0
  180.8810  179.6840  138.7490 C   0  0  1  0  0  3  0  0  0  0  0  0
  181.8990  179.3800  137.6830 C   0  0  0  0  0  1  0  0  0  0  0  0
  179.6900  178.9520  138.6910 O   0  0  0  0  0  0  0  0  0  0  0  0
  180.6290  174.2470  137.9710 C   0  0  0  0  0  2  0  0  0  0  0  0
  179.8850  176.7100  136.8170 C   0  0  0  0  0  3  0  0  0  0  0  0
  180.0240  175.6720  135.9960 C   0  0  0  0  0  3  0  0  0  0  0  0
  179.8100  175.1890  138.8200 C   0  0  1  0  0  3  0  0  0  0  0  0
  180.1280  175.0670  140.3280 C   0  0  0  0  0  1  0  0  0  0  0  0
  180.0490  174.2740  136.6030 C   0  0  1  0  0  3  0  0  0  0  0  0
  179.7470  176.5780  138.2930 C   0  0  0  0  0  0  0  0  0  0  0  0
  179.6290  177.6040  139.1090 C   0  0  0  0  0  3  0  0  0  0  0  0
  179.9270  172.1270  135.3710 O   0  0  0  0  0  0  0  0  0  0  0  0
  180.6310  173.1910  135.8050 C   0  0  0  0  0  0  0  0  0  0  0  0
  180.7390  171.1790  134.8240 N   0  0  0  0  0  2  0  0  0  0  0  0
  182.0890  171.7770  134.9190 C   0  0  1  0  0  3  0  0  0  0  0  0
  181.9060  172.9570  135.7590 N   0  0  0  0  0  0  0  0  0  0  0  0
  183.0250  170.7830  135.6000 C   0  0  0  0  0  1  0  0  0  0  0  0
  185.1520  179.2520  141.1690 O   0  0  0  0  0  0  0  0  0  0  0  0
  186.5320  178.9260  141.0390 C   0  0  0  0  0  2  0  0  0  0  0  0
  188.7160  173.8820  135.1520 O   0  0  0  0  0  0  0  0  0  0  0  0
  184.8330  177.1940  138.0340 C   0  0  0  0  0  2  0  0  0  0  0  0
  190.0890  174.2390  137.0500 C   0  0  0  0  0  3  0  0  0  0  0  0
  190.2220  177.3020  139.1390 C   0  0  0  0  0  3  0  0  0  0  0  0
  185.2520  173.3120  136.4050 O   0  0  0  0  0  1  0  0  0  0  0  0
  185.4040  176.6160  136.6680 C   0  0  2  0  0  0  0  0  0  0  0  0
  184.9560  175.0570  134.9160 C   0  0  0  0  0  2  0  0  0  0  0  0
  188.8530  174.4910  136.2420 C   0  0  0  0  0  0  0  0  0  0  0  0
  186.4380  175.3790  136.8060 C   0  0  2  0  0  3  0  0  0  0  0  0
  187.9200  175.6770  136.5640 C   0  0  1  0  0  3  0  0  0  0  0  0
  185.2620  179.4890  138.2600 O   0  0  0  0  0  0  0  0  0  0  0  0
  186.6870  178.2190  139.7040 C   0  0  1  0  0  3  0  0  0  0  0  0
  189.7810  176.3670  138.1850 C   0  0  0  0  0  0  0  0  0  0  0  0
  185.5350  178.3730  138.6440 C   0  0  0  0  0  0  0  0  0  0  0  0
  187.8550  177.6580  137.8290 C   0  0  0  0  0  3  0  0  0  0  0  0
  188.5870  176.5840  137.4950 C   0  0  0  0  0  0  0  0  0  0  0  0
  188.0160  178.3110  139.0200 C   0  0  0  0  0  0  0  0  0  0  0  0
  190.5740  175.1650  137.8680 C   0  0  0  0  0  3  0  0  0  0  0  0
  185.9490  177.6430  135.8870 F   0  0  0  0  0  0  0  0  0  0  0  0
  189.2340  178.2120  139.6530 C   0  0  0  0  0  3  0  0  0  0  0  0
  185.9710  174.3410  135.7670 C   0  0  1  0  0  3  0  0  0  0  0  0
  184.2970  176.0440  135.8510 C   0  0  0  0  0  2  0  0  0  0  0  0
  1  2  1  1  0  0  0
  3  4  1  0  0  0  0
  4  9  2  0  0  0  0
  5  8  2  0  0  0  0
  6 10  1  6  0  0  0
  6  4  1  0  0  0  0
  7  1  1  6  0  0  0
  7  8  1  0  0  0  0
  7  6  1  0  0  0  0
  8  3  1  0  0  0  0
 10 11  1  0  0  0  0
 12 11  1  0  0  0  0
 13 15  1  0  0  0  0
 15 12  1  1  0  0  0
 15 19  1  0  0  0  0
 16 14  1  1  0  0  0
 16 13  1  0  0  0  0
 16 15  1  0  0  0  0
 18 17  1  0  0  0  0
 19 18  1  0  0  0  0
 19 17  1  0  0  0  0
 20  1  1  0  0  0  0
 21 20  1  0  0  0  0
 22 21  1  0  0  0  0
 22 23  1  1  0  0  0
 24 25  1  6  0  0  0
 24 22  1  0  0  0  0
 26 24  1  0  0  0  0
 26 34  1  0  0  0  0
 27 30  1  0  0  0  0
 28 33  1  0  0  0  0
 29 32  1  0  0  0  0
 29 28  2  0  0  0  0
 30 31  1  1  0  0  0
 32 36  1  6  0  0  0
 32 27  1  0  0  0  0
 33 30  1  0  0  0  0
 33 34  2  0  0  0  0
 35 36  1  0  0  0  0
 37 38  1  0  0  0  0
 37 35  1  0  0  0  0
 38 40  1  1  0  0  0
 38 39  1  0  0  0  0
 39 36  2  0  0  0  0
 41  1  1  0  0  0  0
 42 41  1  0  0  0  0
 43 50  2  0  0  0  0
 44 56  1  0  0  0  0
 45 60  2  0  0  0  0
 46 62  1  0  0  0  0
 48 61  1  6  0  0  0
 48 51  1  0  0  0  0
 48 44  1  0  0  0  0
 49 63  1  0  0  0  0
 49 64  1  0  0  0  0
 50 52  1  0  0  0  0
 50 45  1  0  0  0  0
 52 51  1  0  0  0  0
 52 58  1  0  0  0  0
 53 56  2  0  0  0  0
 54 42  1  0  0  0  0
 55 46  2  0  0  0  0
 56 54  1  0  0  0  0
 57 59  1  0  0  0  0
 58 57  2  0  0  0  0
 58 55  1  0  0  0  0
 59 62  2  0  0  0  0
 59 54  1  0  0  0  0
 60 55  1  0  0  0  0
 63 47  1  0  0  0  0
 63 51  1  0  0  0  0
 64 48  1  0  0  0  0
M  END
>  <MODEL>
3

>  <REMARK>
 VINA RESULT:      -8.3      3.846      9.847
  Name = 
  16 active torsions:
  status: ('A' for Active; 'I' for Inactive)
    1  A    between atoms: O_9  and  C_38
    2  A    between atoms: O_9  and  C_64
    3  A    between atoms: C_10  and  C_16
    4  A    between atoms: C_10  and  C_41
    5  A    between atoms: O_11  and  C_22
    6  A    between atoms: O_11  and  C_46
    7  A    between atoms: C_13  and  C_38
    8  A    between atoms: C_13  and  C_41
    9  A    between atoms: C_16  and  C_36
   10  A    between atoms: C_16  and  O_49
   11  A    between atoms: C_18  and  C_20
   12  A    between atoms: C_18  and  C_22
   13  A    between atoms: C_19  and  C_57
   14  A    between atoms: C_23  and  C_31
   15  A    between atoms: C_23  and  O_49
   16  A    between atoms: C_46  and  C_47
                            x       y       z     vdW  Elec       q    Type
                         _______ _______ _______ _____ _____    ______ ____

>  <TORSDO>
F 16

$$$$
=
 OpenBabel11062417473D

 64 72  0  0  1  0  0  0  0  0999 V2000
  189.3770  177.1130  138.0170 C   0  0  2  0  0  0  0  0  0  0  0  0
  189.4850  178.4270  137.4900 O   0  0  0  0  0  1  0  0  0  0  0  0
  190.8740  176.5480  134.6580 O   0  0  0  0  0  0  0  0  0  0  0  0
  191.9510  176.2540  135.4610 C   0  0  0  0  0  0  0  0  0  0  0  0
  188.6530  177.0360  135.0840 O   0  0  0  0  0  0  0  0  0  0  0  0
  191.5680  175.9330  136.9230 C   0  0  2  0  0  3  0  0  0  0  0  0
  190.0020  176.1140  136.9230 C   0  0  2  0  0  3  0  0  0  0  0  0
  189.7450  176.5260  135.4850 C   0  0  0  0  0  0  0  0  0  0  0  0
  193.1150  176.0890  134.9740 O   0  0  0  0  0  0  0  0  0  0  0  0
  192.3070  176.8520  137.9500 C   0  0  0  0  0  2  0  0  0  0  0  0
  193.3770  175.9270  138.5660 C   0  0  0  0  0  2  0  0  0  0  0  0
  193.8300  174.8170  137.7760 O   0  0  0  0  0  0  0  0  0  0  0  0
  196.2800  174.2560  136.5980 C   0  0  0  0  0  2  0  0  0  0  0  0
  194.5450  172.3200  137.1990 C   0  0  0  0  0  1  0  0  0  0  0  0
  195.3150  174.7510  137.7790 C   0  0  2  0  0  0  0  0  0  0  0  0
  194.9420  173.7220  136.5790 C   0  0  1  0  0  3  0  0  0  0  0  0
  196.5620  175.1530  140.2760 C   0  0  0  0  0  2  0  0  0  0  0  0
  197.5700  174.6650  139.2360 C   0  0  0  0  0  2  0  0  0  0  0  0
  196.0720  174.1600  139.1050 C   0  0  0  0  0  3  0  0  0  0  0  0
  187.8760  176.8330  138.2390 C   0  0  0  0  0  2  0  0  0  0  0  0
  186.8390  177.6960  137.4920 C   0  0  0  0  0  2  0  0  0  0  0  0
  185.5870  176.8470  137.2030 C   0  0  2  0  0  3  0  0  0  0  0  0
  185.9290  175.4550  137.1390 O   0  0  0  0  0  1  0  0  0  0  0  0
  184.7920  177.2890  135.9870 C   0  0  1  0  0  3  0  0  0  0  0  0
  185.4180  176.9140  134.6690 C   0  0  0  0  0  1  0  0  0  0  0  0
  183.4810  176.8450  136.1950 O   0  0  0  0  0  0  0  0  0  0  0  0
  180.5350  179.7490  138.7300 C   0  0  0  0  0  2  0  0  0  0  0  0
  181.9850  177.3300  138.6640 C   0  0  0  0  0  3  0  0  0  0  0  0
  181.3200  177.6100  139.7830 C   0  0  0  0  0  3  0  0  0  0  0  0
  180.6860  179.0680  137.3900 C   0  0  1  0  0  3  0  0  0  0  0  0
  180.7300  180.0680  136.2120 C   0  0  0  0  0  1  0  0  0  0  0  0
  180.2440  178.6880  139.7290 C   0  0  1  0  0  3  0  0  0  0  0  0
  181.7280  178.0080  137.3640 C   0  0  0  0  0  0  0  0  0  0  0  0
  182.3960  177.7460  136.2610 C   0  0  0  0  0  3  0  0  0  0  0  0
  180.3970  180.4230  141.4920 O   0  0  0  0  0  0  0  0  0  0  0  0
  179.8310  179.3080  140.9910 C   0  0  0  0  0  0  0  0  0  0  0  0
  179.9680  180.6770  142.7610 N   0  0  0  0  0  2  0  0  0  0  0  0
  179.0010  179.5900  143.0260 C   0  0  1  0  0  3  0  0  0  0  0  0
  179.1730  178.6670  141.9070 N   0  0  0  0  0  0  0  0  0  0  0  0
  179.3740  178.9050  144.3380 C   0  0  0  0  0  1  0  0  0  0  0  0
  190.1220  177.1300  139.2600 O   0  0  0  0  0  0  0  0  0  0  0  0
  190.0130  176.0280  140.1560 C   0  0  0  0  0  2  0  0  0  0  0  0
  187.3040  178.3570  147.3750 O   0  0  0  0  0  0  0  0  0  0  0  0
  191.3880  176.2090  143.7600 C   0  0  0  0  0  2  0  0  0  0  0  0
  185.8300  178.0010  145.5540 C   0  0  0  0  0  3  0  0  0  0  0  0
  186.6470  178.3320  141.9500 C   0  0  0  0  0  3  0  0  0  0  0  0
  189.5950  175.4190  147.5110 O   0  0  0  0  0  1  0  0  0  0  0  0
  190.9920  177.1010  145.0150 C   0  0  2  0  0  0  0  0  0  0  0  0
  191.0750  177.1930  147.3990 C   0  0  0  0  0  2  0  0  0  0  0  0
  187.1970  178.0320  146.1660 C   0  0  0  0  0  0  0  0  0  0  0  0
  189.4950  176.8810  145.5890 C   0  0  2  0  0  3  0  0  0  0  0  0
  188.4640  177.9720  145.2870 C   0  0  1  0  0  3  0  0  0  0  0  0
  192.0770  177.5160  141.9390 O   0  0  0  0  0  0  0  0  0  0  0  0
  189.8940  176.6140  141.5520 C   0  0  1  0  0  3  0  0  0  0  0  0
  186.8150  178.2330  143.3430 C   0  0  0  0  0  0  0  0  0  0  0  0
  191.2100  176.8020  142.3930 C   0  0  0  0  0  0  0  0  0  0  0  0
  189.1410  178.1640  143.0430 C   0  0  0  0  0  3  0  0  0  0  0  0
  188.0990  178.1880  143.8900 C   0  0  0  0  0  0  0  0  0  0  0  0
  189.0080  177.8080  141.7290 C   0  0  0  0  0  0  0  0  0  0  0  0
  185.6560  178.2080  144.2540 C   0  0  0  0  0  3  0  0  0  0  0  0
  191.2370  178.4560  144.7540 F   0  0  0  0  0  0  0  0  0  0  0  0
  187.7760  177.9670  141.1380 C   0  0  0  0  0  3  0  0  0  0  0  0
  189.6580  176.7700  147.1180 C   0  0  1  0  0  3  0  0  0  0  0  0
  191.8560  176.7610  146.1800 C   0  0  0  0  0  2  0  0  0  0  0  0
  1  2  1  6  0  0  0
  1 20  1  0  0  0  0
  1 41  1  0  0  0  0
  3  4  1  0  0  0  0
  3  8  1  0  0  0  0
  4  6  1  0  0  0  0
  5  8  2  0  0  0  0
  6 10  1  1  0  0  0
  7  6  1  0  0  0  0
  7  1  1  1  0  0  0
  8  7  1  0  0  0  0
  9  4  2  0  0  0  0
 10 11  1  0  0  0  0
 12 11  1  0  0  0  0
 13 15  1  0  0  0  0
 15 12  1  6  0  0  0
 15 19  1  0  0  0  0
 16 13  1  0  0  0  0
 16 14  1  1  0  0  0
 16 15  1  0  0  0  0
 18 17  1  0  0  0  0
 19 18  1  0  0  0  0
 19 17  1  0  0  0  0
 21 20  1  0  0  0  0
 22 23  1  6  0  0  0
 22 21  1  0  0  0  0
 24 25  1  6  0  0  0
 24 26  1  0  0  0  0
 24 22  1  0  0  0  0
 26 34  1  0  0  0  0
 27 32  1  0  0  0  0
 28 29  2  0  0  0  0
 30 31  1  6  0  0  0
 30 27  1  0  0  0  0
 32 29  1  0  0  0  0
 32 36  1  1  0  0  0
 33 30  1  0  0  0  0
 33 28  1  0  0  0  0
 34 33  2  0  0  0  0
 35 37  1  0  0  0  0
 36 35  1  0  0  0  0
 36 39  2  0  0  0  0
 37 38  1  0  0  0  0
 38 40  1  1  0  0  0
 39 38  1  0  0  0  0
 41 42  1  0  0  0  0
 42 54  1  0  0  0  0
 44 48  1  0  0  0  0
 45 50  1  0  0  0  0
 46 55  1  0  0  0  0
 48 61  1  6  0  0  0
 48 51  1  0  0  0  0
 48 64  1  0  0  0  0
 50 43  2  0  0  0  0
 51 63  1  0  0  0  0
 52 51  1  0  0  0  0
 52 50  1  0  0  0  0
 53 56  2  0  0  0  0
 54 59  1  0  0  0  0
 54 56  1  0  0  0  0
 55 58  2  0  0  0  0
 55 60  1  0  0  0  0
 56 44  1  0  0  0  0
 57 58  1  0  0  0  0
 58 52  1  0  0  0  0
 59 57  2  0  0  0  0
 60 45  2  0  0  0  0
 62 59  1  0  0  0  0
 62 46  2  0  0  0  0
 63 49  1  0  0  0  0
 63 47  1  0  0  0  0
 64 49  1  0  0  0  0
M  END
>  <MODEL>
4

>  <REMARK>
 VINA RESULT:      -8.0      3.916      9.655
  Name = 
  16 active torsions:
  status: ('A' for Active; 'I' for Inactive)
    1  A    between atoms: O_9  and  C_38
    2  A    between atoms: O_9  and  C_64
    3  A    between atoms: C_10  and  C_16
    4  A    between atoms: C_10  and  C_41
    5  A    between atoms: O_11  and  C_22
    6  A    between atoms: O_11  and  C_46
    7  A    between atoms: C_13  and  C_38
    8  A    between atoms: C_13  and  C_41
    9  A    between atoms: C_16  and  C_36
   10  A    between atoms: C_16  and  O_49
   11  A    between atoms: C_18  and  C_20
   12  A    between atoms: C_18  and  C_22
   13  A    between atoms: C_19  and  C_57
   14  A    between atoms: C_23  and  C_31
   15  A    between atoms: C_23  and  O_49
   16  A    between atoms: C_46  and  C_47
                            x       y       z     vdW  Elec       q    Type
                         _______ _______ _______ _____ _____    ______ ____

>  <TORSDO>
F 16

$$$$
=
 OpenBabel11062417473D

 64 72  0  0  1  0  0  0  0  0999 V2000
  190.5590  176.7720  139.3630 C   0  0  2  0  0  0  0  0  0  0  0  0
  190.5550  175.3790  139.6370 O   0  0  0  0  0  1  0  0  0  0  0  0
  194.2080  176.5580  140.0550 O   0  0  0  0  0  0  0  0  0  0  0  0
  194.1460  175.9010  138.8480 C   0  0  0  0  0  0  0  0  0  0  0  0
  192.6580  177.7200  141.3190 O   0  0  0  0  0  0  0  0  0  0  0  0
  192.8640  176.2020  138.0410 C   0  0  2  0  0  3  0  0  0  0  0  0
  192.0700  177.1750  138.9930 C   0  0  2  0  0  3  0  0  0  0  0  0
  193.0030  177.2570  140.1880 C   0  0  0  0  0  0  0  0  0  0  0  0
  195.1470  175.2620  138.3900 O   0  0  0  0  0  0  0  0  0  0  0  0
  192.0740  174.9050  137.6680 C   0  0  0  0  0  2  0  0  0  0  0  0
  192.5250  174.6040  136.2240 C   0  0  0  0  0  2  0  0  0  0  0  0
  193.0550  173.2970  135.9520 O   0  0  0  0  0  0  0  0  0  0  0  0
  195.2200  172.2120  134.5940 C   0  0  0  0  0  2  0  0  0  0  0  0
  194.8720  171.8160  137.2100 C   0  0  0  0  0  1  0  0  0  0  0  0
  194.3340  173.4030  135.2020 C   0  0  2  0  0  0  0  0  0  0  0  0
  194.3750  171.8600  135.7080 C   0  0  1  0  0  3  0  0  0  0  0  0
  195.5210  175.9610  135.2390 C   0  0  0  0  0  2  0  0  0  0  0  0
  196.4590  174.9350  134.6040 C   0  0  0  0  0  2  0  0  0  0  0  0
  195.4830  174.4320  135.7500 C   0  0  0  0  0  3  0  0  0  0  0  0
  190.0840  177.4900  140.6450 C   0  0  0  0  0  2  0  0  0  0  0  0
  189.1700  176.7290  141.6270 C   0  0  0  0  0  2  0  0  0  0  0  0
  189.9280  176.5010  142.9490 C   0  0  2  0  0  3  0  0  0  0  0  0
  190.4700  175.1730  142.9940 O   0  0  0  0  0  1  0  0  0  0  0  0
  189.1290  176.8260  144.1990 C   0  0  1  0  0  3  0  0  0  0  0  0
  189.9120  177.5510  145.2610 C   0  0  0  0  0  1  0  0  0  0  0  0
  187.9570  177.4530  143.7620 O   0  0  0  0  0  0  0  0  0  0  0  0
  183.4640  178.6470  145.1460 C   0  0  0  0  0  2  0  0  0  0  0  0
  185.2540  178.2820  142.9990 C   0  0  0  0  0  3  0  0  0  0  0  0
  184.0030  178.6210  142.6960 C   0  0  0  0  0  3  0  0  0  0  0  0
  184.9190  178.9630  145.3970 C   0  0  1  0  0  3  0  0  0  0  0  0
  185.3460  178.6960  146.8590 C   0  0  0  0  0  1  0  0  0  0  0  0
  183.1240  179.1870  143.8050 C   0  0  1  0  0  3  0  0  0  0  0  0
  185.8400  178.4320  144.3590 C   0  0  0  0  0  0  0  0  0  0  0  0
  187.0710  178.0800  144.6640 C   0  0  0  0  0  3  0  0  0  0  0  0
  180.8880  178.1590  144.0940 O   0  0  0  0  0  0  0  0  0  0  0  0
  181.6720  179.1450  143.6160 C   0  0  0  0  0  0  0  0  0  0  0  0
  179.6140  178.2540  143.6170 N   0  0  0  0  0  2  0  0  0  0  0  0
  179.6460  179.4720  142.7780 C   0  0  1  0  0  3  0  0  0  0  0  0
  181.0630  179.8150  142.6860 N   0  0  0  0  0  0  0  0  0  0  0  0
  179.0940  179.1360  141.3960 C   0  0  0  0  0  1  0  0  0  0  0  0
  189.6370  176.9550  138.2600 O   0  0  0  0  0  0  0  0  0  0  0  0
  188.6860  178.0140  138.3100 C   0  0  0  0  0  2  0  0  0  0  0  0
  182.4830  173.0650  136.9270 O   0  0  0  0  0  0  0  0  0  0  0  0
  184.8310  178.2480  138.3370 C   0  0  0  0  0  2  0  0  0  0  0  0
  184.6810  172.2380  137.2490 C   0  0  0  0  0  3  0  0  0  0  0  0
  187.8470  174.0250  136.5100 C   0  0  0  0  0  3  0  0  0  0  0  0
  181.8460  175.5450  139.6370 O   0  0  0  0  0  1  0  0  0  0  0  0
  183.7010  177.4010  137.6060 C   0  0  2  0  0  0  0  0  0  0  0  0
  181.4010  176.7740  137.7290 C   0  0  0  0  0  2  0  0  0  0  0  0
  183.6870  173.3540  137.1470 C   0  0  0  0  0  0  0  0  0  0  0  0
  183.6170  175.8390  138.0190 C   0  0  2  0  0  3  0  0  0  0  0  0
  184.1470  174.8200  137.0060 C   0  0  1  0  0  3  0  0  0  0  0  0
  186.2800  179.2790  136.8070 O   0  0  0  0  0  0  0  0  0  0  0  0
  187.3570  177.4260  137.8710 C   0  0  1  0  0  3  0  0  0  0  0  0
  186.4760  173.7910  136.7210 C   0  0  0  0  0  0  0  0  0  0  0  0
  186.1500  178.4080  137.6390 C   0  0  0  0  0  0  0  0  0  0  0  0
  186.0690  176.0940  136.5440 C   0  0  0  0  0  3  0  0  0  0  0  0
  185.5740  174.8550  136.6960 C   0  0  0  0  0  0  0  0  0  0  0  0
  187.3810  176.3920  136.7870 C   0  0  0  0  0  0  0  0  0  0  0  0
  185.9580  172.4270  136.9390 C   0  0  0  0  0  3  0  0  0  0  0  0
  183.7940  177.5510  136.2160 F   0  0  0  0  0  0  0  0  0  0  0  0
  188.3040  175.3770  136.6900 C   0  0  0  0  0  3  0  0  0  0  0  0
  182.1190  175.5610  138.2550 C   0  0  1  0  0  3  0  0  0  0  0  0
  182.3540  177.9220  137.9710 C   0  0  0  0  0  2  0  0  0  0  0  0
  1  2  1  1  0  0  0
  1 20  1  0  0  0  0
  3  8  1  0  0  0  0
  4  3  1  0  0  0  0
  6 10  1  1  0  0  0
  6  4  1  0  0  0  0
  6  7  1  0  0  0  0
  7  1  1  1  0  0  0
  7  8  1  0  0  0  0
  8  5  2  0  0  0  0
  9  4  2  0  0  0  0
 11 10  1  0  0  0  0
 12 11  1  0  0  0  0
 13 15  1  0  0  0  0
 13 16  1  0  0  0  0
 15 16  1  0  0  0  0
 15 19  1  0  0  0  0
 15 12  1  6  0  0  0
 16 14  1  1  0  0  0
 17 19  1  0  0  0  0
 18 17  1  0  0  0  0
 18 19  1  0  0  0  0
 20 21  1  0  0  0  0
 21 22  1  0  0  0  0
 22 23  1  1  0  0  0
 22 24  1  0  0  0  0
 24 25  1  1  0  0  0
 26 24  1  0  0  0  0
 26 34  1  0  0  0  0
 27 30  1  0  0  0  0
 28 33  1  0  0  0  0
 29 28  2  0  0  0  0
 29 32  1  0  0  0  0
 30 31  1  1  0  0  0
 32 36  1  6  0  0  0
 32 27  1  0  0  0  0
 33 34  2  0  0  0  0
 33 30  1  0  0  0  0
 36 35  1  0  0  0  0
 37 35  1  0  0  0  0
 38 40  1  6  0  0  0
 38 37  1  0  0  0  0
 39 38  1  0  0  0  0
 39 36  2  0  0  0  0
 41 42  1  0  0  0  0
 41  1  1  0  0  0  0
 43 50  2  0  0  0  0
 46 62  2  0  0  0  0
 46 55  1  0  0  0  0
 48 61  1  6  0  0  0
 48 64  1  0  0  0  0
 48 51  1  0  0  0  0
 48 44  1  0  0  0  0
 49 64  1  0  0  0  0
 49 63  1  0  0  0  0
 50 45  1  0  0  0  0
 51 63  1  0  0  0  0
 52 50  1  0  0  0  0
 52 51  1  0  0  0  0
 53 56  2  0  0  0  0
 54 42  1  0  0  0  0
 55 60  1  0  0  0  0
 56 54  1  0  0  0  0
 56 44  1  0  0  0  0
 57 58  1  0  0  0  0
 57 59  2  0  0  0  0
 58 55  2  0  0  0  0
 58 52  1  0  0  0  0
 59 54  1  0  0  0  0
 60 45  2  0  0  0  0
 62 59  1  0  0  0  0
 63 47  1  0  0  0  0
M  END
>  <MODEL>
5

>  <REMARK>
 VINA RESULT:      -7.9      3.961     10.933
  Name = 
  16 active torsions:
  status: ('A' for Active; 'I' for Inactive)
    1  A    between atoms: O_9  and  C_38
    2  A    between atoms: O_9  and  C_64
    3  A    between atoms: C_10  and  C_16
    4  A    between atoms: C_10  and  C_41
    5  A    between atoms: O_11  and  C_22
    6  A    between atoms: O_11  and  C_46
    7  A    between atoms: C_13  and  C_38
    8  A    between atoms: C_13  and  C_41
    9  A    between atoms: C_16  and  C_36
   10  A    between atoms: C_16  and  O_49
   11  A    between atoms: C_18  and  C_20
   12  A    between atoms: C_18  and  C_22
   13  A    between atoms: C_19  and  C_57
   14  A    between atoms: C_23  and  C_31
   15  A    between atoms: C_23  and  O_49
   16  A    between atoms: C_46  and  C_47
                            x       y       z     vdW  Elec       q    Type
                         _______ _______ _______ _____ _____    ______ ____

>  <TORSDO>
F 16

$$$$
=
 OpenBabel11062417473D

 64 72  0  0  1  0  0  0  0  0999 V2000
  184.3660  178.4670  141.9300 C   0  0  2  0  0  0  0  0  0  0  0  0
  184.6640  177.1300  142.3060 O   0  0  0  0  0  1  0  0  0  0  0  0
  183.5450  179.0870  145.5050 O   0  0  0  0  0  0  0  0  0  0  0  0
  184.8940  178.8360  145.6010 C   0  0  0  0  0  0  0  0  0  0  0  0
  182.0910  179.3270  143.7220 O   0  0  0  0  0  0  0  0  0  0  0  0
  185.6530  178.9950  144.2650 C   0  0  2  0  0  3  0  0  0  0  0  0
  184.5050  179.3700  143.2520 C   0  0  2  0  0  3  0  0  0  0  0  0
  183.2850  179.3450  144.1550 C   0  0  0  0  0  0  0  0  0  0  0  0
  185.4590  178.6750  146.7300 O   0  0  0  0  0  0  0  0  0  0  0  0
  186.4430  177.7050  143.8690 C   0  0  0  0  0  2  0  0  0  0  0  0
  187.5630  177.6230  144.9270 C   0  0  0  0  0  2  0  0  0  0  0  0
  188.8300  178.2170  144.6010 O   0  0  0  0  0  0  0  0  0  0  0  0
  191.0220  176.5990  144.0730 C   0  0  0  0  0  2  0  0  0  0  0  0
  191.2710  179.2420  144.3430 C   0  0  0  0  0  1  0  0  0  0  0  0
  189.6230  177.3050  143.7370 C   0  0  2  0  0  0  0  0  0  0  0  0
  190.7450  177.8180  144.7920 C   0  0  1  0  0  3  0  0  0  0  0  0
  188.5800  177.5170  141.1240 C   0  0  0  0  0  2  0  0  0  0  0  0
  189.6530  176.4310  141.1960 C   0  0  0  0  0  2  0  0  0  0  0  0
  189.8080  177.6850  142.1550 C   0  0  0  0  0  3  0  0  0  0  0  0
  182.9190  178.4770  141.3930 C   0  0  0  0  0  2  0  0  0  0  0  0
  182.2530  177.1360  141.0240 C   0  0  0  0  0  2  0  0  0  0  0  0
  180.8100  177.3990  140.5550 C   0  0  2  0  0  3  0  0  0  0  0  0
  179.9810  177.7690  141.6660 O   0  0  0  0  0  1  0  0  0  0  0  0
  180.1950  176.2730  139.7420 C   0  0  1  0  0  3  0  0  0  0  0  0
  179.8310  175.0550  140.5510 C   0  0  0  0  0  1  0  0  0  0  0  0
  179.1610  176.8490  138.9960 O   0  0  0  0  0  0  0  0  0  0  0  0
  180.4740  180.6120  136.2300 C   0  0  0  0  0  2  0  0  0  0  0  0
  179.1250  179.7420  138.5490 C   0  0  0  0  0  3  0  0  0  0  0  0
  179.1680  181.0540  138.3260 C   0  0  0  0  0  3  0  0  0  0  0  0
  179.8040  179.2600  136.1750 C   0  0  1  0  0  3  0  0  0  0  0  0
  180.5380  178.2650  135.2470 C   0  0  0  0  0  1  0  0  0  0  0  0
  179.5420  181.5330  136.9290 C   0  0  1  0  0  3  0  0  0  0  0  0
  179.4180  178.7220  137.5060 C   0  0  0  0  0  0  0  0  0  0  0  0
  179.3940  177.4250  137.7290 C   0  0  0  0  0  3  0  0  0  0  0  0
  181.1670  183.3630  137.3270 O   0  0  0  0  0  0  0  0  0  0  0  0
  180.0190  182.9120  136.7830 C   0  0  0  0  0  0  0  0  0  0  0  0
  181.2790  184.7160  137.2090 N   0  0  0  0  0  2  0  0  0  0  0  0
  180.0570  185.1050  136.4710 C   0  0  1  0  0  3  0  0  0  0  0  0
  179.2390  183.8960  136.4570 N   0  0  0  0  0  0  0  0  0  0  0  0
  179.3470  186.2150  137.2410 C   0  0  0  0  0  1  0  0  0  0  0  0
  185.3330  178.8080  140.9060 O   0  0  0  0  0  0  0  0  0  0  0  0
  184.8790  179.3240  139.6590 C   0  0  0  0  0  2  0  0  0  0  0  0
  187.5460  172.9650  135.4950 O   0  0  0  0  0  0  0  0  0  0  0  0
  183.3290  176.2720  137.8690 C   0  0  0  0  0  2  0  0  0  0  0  0
  189.0090  174.2880  136.8090 C   0  0  0  0  0  3  0  0  0  0  0  0
  188.5870  177.8760  137.6550 C   0  0  0  0  0  3  0  0  0  0  0  0
  184.5570  172.2320  137.5980 O   0  0  0  0  0  1  0  0  0  0  0  0
  183.8500  175.3440  136.6890 C   0  0  2  0  0  0  0  0  0  0  0  0
  183.6120  173.1780  135.7110 C   0  0  0  0  0  2  0  0  0  0  0  0
  187.6560  173.9590  136.2570 C   0  0  0  0  0  0  0  0  0  0  0  0
  185.1860  174.4890  137.0050 C   0  0  2  0  0  3  0  0  0  0  0  0
  186.4890  174.9640  136.3560 C   0  0  1  0  0  3  0  0  0  0  0  0
  183.1520  178.5160  137.2060 O   0  0  0  0  0  0  0  0  0  0  0  0
  185.0410  178.2070  138.6420 C   0  0  1  0  0  3  0  0  0  0  0  0
  188.2920  176.5800  137.1960 C   0  0  0  0  0  0  0  0  0  0  0  0
  183.7620  177.7100  137.8740 C   0  0  0  0  0  0  0  0  0  0  0  0
  186.0610  177.2210  136.8580 C   0  0  0  0  0  3  0  0  0  0  0  0
  187.0040  176.2710  136.7540 C   0  0  0  0  0  0  0  0  0  0  0  0
  186.1950  178.2970  137.6920 C   0  0  0  0  0  0  0  0  0  0  0  0
  189.3310  175.5340  137.1370 C   0  0  0  0  0  3  0  0  0  0  0  0
  183.9920  176.0820  135.5060 F   0  0  0  0  0  0  0  0  0  0  0  0
  187.4670  178.6940  138.0360 C   0  0  0  0  0  3  0  0  0  0  0  0
  184.8830  173.0620  136.5080 C   0  0  1  0  0  3  0  0  0  0  0  0
  182.8400  174.2930  136.3780 C   0  0  0  0  0  2  0  0  0  0  0  0
  1  2  1  1  0  0  0
  3  4  1  0  0  0  0
  4  9  2  0  0  0  0
  5  8  2  0  0  0  0
  6 10  1  6  0  0  0
  6  4  1  0  0  0  0
  7  1  1  6  0  0  0
  7  8  1  0  0  0  0
  7  6  1  0  0  0  0
  8  3  1  0  0  0  0
 10 11  1  0  0  0  0
 12 11  1  0  0  0  0
 13 16  1  0  0  0  0
 15 13  1  0  0  0  0
 15 12  1  1  0  0  0
 15 16  1  0  0  0  0
 16 14  1  6  0  0  0
 17 18  1  0  0  0  0
 17 19  1  0  0  0  0
 18 19  1  0  0  0  0
 19 15  1  0  0  0  0
 20  1  1  0  0  0  0
 21 20  1  0  0  0  0
 22 21  1  0  0  0  0
 22 23  1  1  0  0  0
 24 25  1  1  0  0  0
 24 22  1  0  0  0  0
 26 24  1  0  0  0  0
 27 32  1  0  0  0  0
 29 28  2  0  0  0  0
 30 31  1  1  0  0  0
 30 27  1  0  0  0  0
 30 33  1  0  0  0  0
 32 36  1  1  0  0  0
 32 29  1  0  0  0  0
 33 34  2  0  0  0  0
 33 28  1  0  0  0  0
 34 26  1  0  0  0  0
 36 35  1  0  0  0  0
 37 35  1  0  0  0  0
 38 37  1  0  0  0  0
 38 40  1  1  0  0  0
 39 38  1  0  0  0  0
 39 36  2  0  0  0  0
 41  1  1  0  0  0  0
 42 41  1  0  0  0  0
 43 50  2  0  0  0  0
 44 56  1  0  0  0  0
 45 60  2  0  0  0  0
 46 62  1  0  0  0  0
 48 61  1  6  0  0  0
 48 51  1  0  0  0  0
 48 44  1  0  0  0  0
 49 64  1  0  0  0  0
 49 63  1  0  0  0  0
 50 52  1  0  0  0  0
 50 45  1  0  0  0  0
 52 58  1  0  0  0  0
 52 51  1  0  0  0  0
 53 56  2  0  0  0  0
 54 42  1  0  0  0  0
 55 46  2  0  0  0  0
 56 54  1  0  0  0  0
 57 59  1  0  0  0  0
 58 57  2  0  0  0  0
 58 55  1  0  0  0  0
 59 62  2  0  0  0  0
 59 54  1  0  0  0  0
 60 55  1  0  0  0  0
 63 51  1  0  0  0  0
 63 47  1  0  0  0  0
 64 48  1  0  0  0  0
M  END
>  <MODEL>
6

>  <REMARK>
 VINA RESULT:      -7.7      4.515     10.582
  Name = 
  16 active torsions:
  status: ('A' for Active; 'I' for Inactive)
    1  A    between atoms: O_9  and  C_38
    2  A    between atoms: O_9  and  C_64
    3  A    between atoms: C_10  and  C_16
    4  A    between atoms: C_10  and  C_41
    5  A    between atoms: O_11  and  C_22
    6  A    between atoms: O_11  and  C_46
    7  A    between atoms: C_13  and  C_38
    8  A    between atoms: C_13  and  C_41
    9  A    between atoms: C_16  and  C_36
   10  A    between atoms: C_16  and  O_49
   11  A    between atoms: C_18  and  C_20
   12  A    between atoms: C_18  and  C_22
   13  A    between atoms: C_19  and  C_57
   14  A    between atoms: C_23  and  C_31
   15  A    between atoms: C_23  and  O_49
   16  A    between atoms: C_46  and  C_47
                            x       y       z     vdW  Elec       q    Type
                         _______ _______ _______ _____ _____    ______ ____

>  <TORSDO>
F 16

$$$$
=
 OpenBabel11062417473D

 64 72  0  0  1  0  0  0  0  0999 V2000
  189.5580  177.1110  141.0820 C   0  0  2  0  0  0  0  0  0  0  0  0
  189.7770  175.8750  141.7460 O   0  0  0  0  0  1  0  0  0  0  0  0
  193.1510  177.2980  142.0290 O   0  0  0  0  0  0  0  0  0  0  0  0
  193.2620  177.1300  140.6690 C   0  0  0  0  0  0  0  0  0  0  0  0
  191.3580  177.6250  143.4540 O   0  0  0  0  0  0  0  0  0  0  0  0
  191.9740  177.4780  139.8910 C   0  0  2  0  0  3  0  0  0  0  0  0
  190.9700  177.8790  141.0380 C   0  0  2  0  0  3  0  0  0  0  0  0
  191.8260  177.6780  142.2750 C   0  0  0  0  0  0  0  0  0  0  0  0
  194.3860  176.8890  140.1210 O   0  0  0  0  0  0  0  0  0  0  0  0
  191.4730  176.2920  139.0030 C   0  0  0  0  0  2  0  0  0  0  0  0
  191.8750  176.7100  137.5740 C   0  0  0  0  0  2  0  0  0  0  0  0
  193.0920  176.1650  137.0400 O   0  0  0  0  0  0  0  0  0  0  0  0
  193.9400  173.5830  137.6050 C   0  0  0  0  0  2  0  0  0  0  0  0
  195.4200  175.2490  136.1370 C   0  0  0  0  0  1  0  0  0  0  0  0
  192.9930  174.6860  136.9300 C   0  0  2  0  0  0  0  0  0  0  0  0
  194.5360  174.8790  137.3970 C   0  0  1  0  0  3  0  0  0  0  0  0
  191.2000  173.9660  134.8750 C   0  0  0  0  0  2  0  0  0  0  0  0
  191.7970  172.7240  135.5360 C   0  0  0  0  0  2  0  0  0  0  0  0
  192.7010  174.0260  135.4600 C   0  0  0  0  0  3  0  0  0  0  0  0
  188.5180  177.8950  141.9090 C   0  0  0  0  0  2  0  0  0  0  0  0
  187.5300  177.1120  142.7970 C   0  0  0  0  0  2  0  0  0  0  0  0
  187.4070  177.8180  144.1610 C   0  0  2  0  0  3  0  0  0  0  0  0
  188.3240  177.2480  145.1060 O   0  0  0  0  0  1  0  0  0  0  0  0
  185.9930  177.8810  144.7130 C   0  0  1  0  0  3  0  0  0  0  0  0
  185.8090  178.8800  145.8250 C   0  0  0  0  0  1  0  0  0  0  0  0
  185.1480  178.0270  143.6080 O   0  0  0  0  0  0  0  0  0  0  0  0
  180.6740  178.6240  141.8300 C   0  0  0  0  0  2  0  0  0  0  0  0
  183.4450  178.6580  141.3110 C   0  0  0  0  0  3  0  0  0  0  0  0
  182.6320  178.9010  140.2850 C   0  0  0  0  0  3  0  0  0  0  0  0
  181.5840  179.0540  142.9560 C   0  0  1  0  0  3  0  0  0  0  0  0
  181.0280  178.6840  144.3500 C   0  0  0  0  0  1  0  0  0  0  0  0
  181.1830  179.2620  140.5890 C   0  0  1  0  0  3  0  0  0  0  0  0
  183.0160  178.7260  142.7350 C   0  0  0  0  0  0  0  0  0  0  0  0
  183.8140  178.4670  143.7490 C   0  0  0  0  0  3  0  0  0  0  0  0
  179.6670  177.9060  139.1710 O   0  0  0  0  0  0  0  0  0  0  0  0
  180.1970  179.0960  139.5160 C   0  0  0  0  0  0  0  0  0  0  0  0
  178.9320  177.9980  138.0270 N   0  0  0  0  0  2  0  0  0  0  0  0
  179.0130  179.4320  137.6740 C   0  0  1  0  0  3  0  0  0  0  0  0
  180.0250  179.9740  138.5760 N   0  0  0  0  0  0  0  0  0  0  0  0
  179.4740  179.5600  136.2250 C   0  0  0  0  0  1  0  0  0  0  0  0
  189.0620  176.7610  139.7660 O   0  0  0  0  0  0  0  0  0  0  0  0
  188.6460  177.7950  138.8780 C   0  0  0  0  0  2  0  0  0  0  0  0
  182.9360  173.0130  135.8100 O   0  0  0  0  0  0  0  0  0  0  0  0
  184.9210  178.1150  137.9070 C   0  0  0  0  0  2  0  0  0  0  0  0
  184.9590  172.1310  136.6720 C   0  0  0  0  0  3  0  0  0  0  0  0
  188.2380  173.8610  136.8250 C   0  0  0  0  0  3  0  0  0  0  0  0
  181.6560  175.4550  138.3200 O   0  0  0  0  0  1  0  0  0  0  0  0
  184.0070  177.3070  136.8870 C   0  0  2  0  0  0  0  0  0  0  0  0
  181.7430  176.7300  136.3930 C   0  0  0  0  0  2  0  0  0  0  0  0
  184.0450  173.2710  136.3420 C   0  0  0  0  0  0  0  0  0  0  0  0
  183.7920  175.7400  137.2260 C   0  0  2  0  0  3  0  0  0  0  0  0
  184.5500  174.7290  136.3610 C   0  0  1  0  0  3  0  0  0  0  0  0
  186.7350  179.1420  136.8320 O   0  0  0  0  0  0  0  0  0  0  0  0
  187.4680  177.2450  138.0940 C   0  0  1  0  0  3  0  0  0  0  0  0
  186.8560  173.6530  136.6670 C   0  0  0  0  0  0  0  0  0  0  0  0
  186.3790  178.2580  137.5800 C   0  0  0  0  0  0  0  0  0  0  0  0
  186.5470  175.9680  136.4450 C   0  0  0  0  0  3  0  0  0  0  0  0
  186.0090  174.7380  136.4340 C   0  0  0  0  0  0  0  0  0  0  0  0
  187.7560  176.2320  137.0290 C   0  0  0  0  0  0  0  0  0  0  0  0
  186.2760  172.2980  136.7100 C   0  0  0  0  0  3  0  0  0  0  0  0
  184.4610  177.4820  135.5730 F   0  0  0  0  0  0  0  0  0  0  0  0
  188.6550  175.1980  137.1500 C   0  0  0  0  0  3  0  0  0  0  0  0
  182.2800  175.4910  137.0580 C   0  0  1  0  0  3  0  0  0  0  0  0
  182.6200  177.8510  136.9020 C   0  0  0  0  0  2  0  0  0  0  0  0
  1  2  1  1  0  0  0
  1 20  1  0  0  0  0
  3  8  1  0  0  0  0
  4  3  1  0  0  0  0
  6 10  1  1  0  0  0
  6  4  1  0  0  0  0
  6  7  1  0  0  0  0
  7  1  1  1  0  0  0
  7  8  1  0  0  0  0
  8  5  2  0  0  0  0
  9  4  2  0  0  0  0
 11 10  1  0  0  0  0
 12 11  1  0  0  0  0
 15 12  1  1  0  0  0
 15 16  1  0  0  0  0
 15 13  1  0  0  0  0
 16 14  1  6  0  0  0
 16 13  1  0  0  0  0
 17 19  1  0  0  0  0
 17 18  1  0  0  0  0
 19 18  1  0  0  0  0
 19 15  1  0  0  0  0
 20 21  1  0  0  0  0
 21 22  1  0  0  0  0
 22 24  1  0  0  0  0
 22 23  1  1  0  0  0
 24 25  1  1  0  0  0
 26 34  1  0  0  0  0
 26 24  1  0  0  0  0
 27 30  1  0  0  0  0
 28 33  1  0  0  0  0
 29 32  1  0  0  0  0
 29 28  2  0  0  0  0
 30 31  1  1  0  0  0
 32 36  1  6  0  0  0
 32 27  1  0  0  0  0
 33 30  1  0  0  0  0
 33 34  2  0  0  0  0
 35 36  1  0  0  0  0
 37 35  1  0  0  0  0
 38 40  1  6  0  0  0
 38 37  1  0  0  0  0
 38 39  1  0  0  0  0
 39 36  2  0  0  0  0
 41  1  1  0  0  0  0
 42 41  1  0  0  0  0
 43 50  2  0  0  0  0
 45 60  2  0  0  0  0
 46 62  1  0  0  0  0
 48 61  1  6  0  0  0
 48 64  1  0  0  0  0
 48 51  1  0  0  0  0
 48 44  1  0  0  0  0
 49 64  1  0  0  0  0
 49 63  1  0  0  0  0
 50 52  1  0  0  0  0
 50 45  1  0  0  0  0
 52 58  1  0  0  0  0
 52 51  1  0  0  0  0
 53 56  2  0  0  0  0
 54 42  1  0  0  0  0
 55 60  1  0  0  0  0
 55 46  2  0  0  0  0
 56 44  1  0  0  0  0
 56 54  1  0  0  0  0
 57 59  1  0  0  0  0
 58 57  2  0  0  0  0
 58 55  1  0  0  0  0
 59 62  2  0  0  0  0
 59 54  1  0  0  0  0
 63 51  1  0  0  0  0
 63 47  1  0  0  0  0
M  END
>  <MODEL>
7

>  <REMARK>
 VINA RESULT:      -7.6      3.860     10.778
  Name = 
  16 active torsions:
  status: ('A' for Active; 'I' for Inactive)
    1  A    between atoms: O_9  and  C_38
    2  A    between atoms: O_9  and  C_64
    3  A    between atoms: C_10  and  C_16
    4  A    between atoms: C_10  and  C_41
    5  A    between atoms: O_11  and  C_22
    6  A    between atoms: O_11  and  C_46
    7  A    between atoms: C_13  and  C_38
    8  A    between atoms: C_13  and  C_41
    9  A    between atoms: C_16  and  C_36
   10  A    between atoms: C_16  and  O_49
   11  A    between atoms: C_18  and  C_20
   12  A    between atoms: C_18  and  C_22
   13  A    between atoms: C_19  and  C_57
   14  A    between atoms: C_23  and  C_31
   15  A    between atoms: C_23  and  O_49
   16  A    between atoms: C_46  and  C_47
                            x       y       z     vdW  Elec       q    Type
                         _______ _______ _______ _____ _____    ______ ____

>  <TORSDO>
F 16

$$$$
=
 OpenBabel11062417473D

 64 72  0  0  1  0  0  0  0  0999 V2000
  187.9840  177.1750  138.7480 C   0  0  2  0  0  0  0  0  0  0  0  0
  188.1760  175.7790  138.9220 O   0  0  0  0  0  1  0  0  0  0  0  0
  189.9880  178.5190  135.9160 O   0  0  0  0  0  0  0  0  0  0  0  0
  189.9800  177.1810  135.6000 C   0  0  0  0  0  0  0  0  0  0  0  0
  188.9340  179.7790  137.5450 O   0  0  0  0  0  0  0  0  0  0  0  0
  188.8560  176.3830  136.2980 C   0  0  2  0  0  3  0  0  0  0  0  0
  188.1420  177.4790  137.1770 C   0  0  2  0  0  3  0  0  0  0  0  0
  188.9740  178.7090  136.8620 C   0  0  0  0  0  0  0  0  0  0  0  0
  190.7220  176.7140  134.6770 O   0  0  0  0  0  0  0  0  0  0  0  0
  189.4060  175.1750  137.1250 C   0  0  0  0  0  2  0  0  0  0  0  0
  189.5690  174.0570  136.0750 C   0  0  0  0  0  2  0  0  0  0  0  0
  190.7460  173.2380  136.1540 O   0  0  0  0  0  0  0  0  0  0  0  0
  193.0110  174.0060  134.7460 C   0  0  0  0  0  2  0  0  0  0  0  0
  192.8190  171.5940  135.8710 C   0  0  0  0  0  1  0  0  0  0  0  0
  191.9660  174.0640  135.9600 C   0  0  2  0  0  0  0  0  0  0  0  0
  192.2710  172.7950  134.9960 C   0  0  1  0  0  3  0  0  0  0  0  0
  193.3500  175.8250  137.6750 C   0  0  0  0  0  2  0  0  0  0  0  0
  194.3270  175.0010  136.8360 C   0  0  0  0  0  2  0  0  0  0  0  0
  192.9510  174.3240  137.2420 C   0  0  0  0  0  3  0  0  0  0  0  0
  189.0740  177.8930  139.5710 C   0  0  0  0  0  2  0  0  0  0  0  0
  188.7990  178.2040  141.0560 C   0  0  0  0  0  2  0  0  0  0  0  0
  189.7670  177.3870  141.9330 C   0  0  2  0  0  3  0  0  0  0  0  0
  189.7960  176.0170  141.5060 O   0  0  0  0  0  1  0  0  0  0  0  0
  189.5200  177.5070  143.4270 C   0  0  1  0  0  3  0  0  0  0  0  0
  189.8520  178.8600  144.0000 C   0  0  0  0  0  1  0  0  0  0  0  0
  188.2170  177.0480  143.6460 O   0  0  0  0  0  0  0  0  0  0  0  0
  183.7560  178.4810  144.9040 C   0  0  0  0  0  2  0  0  0  0  0  0
  185.5960  178.0520  142.8100 C   0  0  0  0  0  3  0  0  0  0  0  0
  184.3780  178.4710  142.4730 C   0  0  0  0  0  3  0  0  0  0  0  0
  185.2180  178.7040  145.2100 C   0  0  1  0  0  3  0  0  0  0  0  0
  185.5770  178.3850  146.6790 C   0  0  0  0  0  1  0  0  0  0  0  0
  183.4960  179.0660  143.5640 C   0  0  1  0  0  3  0  0  0  0  0  0
  186.1420  178.1400  144.1920 C   0  0  0  0  0  0  0  0  0  0  0  0
  187.3380  177.7090  144.5310 C   0  0  0  0  0  3  0  0  0  0  0  0
  181.4620  180.0130  142.5110 O   0  0  0  0  0  0  0  0  0  0  0  0
  182.0510  179.1150  143.3250 C   0  0  0  0  0  0  0  0  0  0  0  0
  180.1030  179.9690  142.6150 N   0  0  0  0  0  2  0  0  0  0  0  0
  179.8630  178.8820  143.5900 C   0  0  1  0  0  3  0  0  0  0  0  0
  181.1860  178.5750  144.1270 N   0  0  0  0  0  0  0  0  0  0  0  0
  178.9520  179.4040  144.6980 C   0  0  0  0  0  1  0  0  0  0  0  0
  186.6500  177.4490  139.2460 O   0  0  0  0  0  0  0  0  0  0  0  0
  185.8230  178.3800  138.5550 C   0  0  0  0  0  2  0  0  0  0  0  0
  179.9200  172.9950  137.5380 O   0  0  0  0  0  0  0  0  0  0  0  0
  182.2310  177.8500  139.8720 C   0  0  0  0  0  2  0  0  0  0  0  0
  182.1400  172.5470  136.8390 C   0  0  0  0  0  3  0  0  0  0  0  0
  184.6850  175.0480  135.8230 C   0  0  0  0  0  3  0  0  0  0  0  0
  180.1230  174.3590  141.0010 O   0  0  0  0  0  1  0  0  0  0  0  0
  180.9790  177.0660  139.2840 C   0  0  2  0  0  0  0  0  0  0  0  0
  178.9310  176.0020  139.8940 C   0  0  0  0  0  2  0  0  0  0  0  0
  181.0970  173.4280  137.4550 C   0  0  0  0  0  0  0  0  0  0  0  0
  181.1640  175.4670  139.1220 C   0  0  2  0  0  3  0  0  0  0  0  0
  181.3660  174.9270  137.7040 C   0  0  1  0  0  3  0  0  0  0  0  0
  182.9500  179.5570  138.4330 O   0  0  0  0  0  0  0  0  0  0  0  0
  184.4720  177.7100  138.3770 C   0  0  1  0  0  3  0  0  0  0  0  0
  183.5050  174.5010  136.3570 C   0  0  0  0  0  0  0  0  0  0  0  0
  183.1940  178.4650  138.8990 C   0  0  0  0  0  0  0  0  0  0  0  0
  182.8920  176.6260  137.1420 C   0  0  0  0  0  3  0  0  0  0  0  0
  182.5780  175.3290  136.9950 C   0  0  0  0  0  0  0  0  0  0  0  0
  184.1790  177.0820  137.0500 C   0  0  0  0  0  0  0  0  0  0  0  0
  183.2010  173.0630  136.2310 C   0  0  0  0  0  3  0  0  0  0  0  0
  180.5530  177.6480  138.0830 F   0  0  0  0  0  0  0  0  0  0  0  0
  185.0760  176.3410  136.3160 C   0  0  0  0  0  3  0  0  0  0  0  0
  179.8780  174.8480  139.7040 C   0  0  1  0  0  3  0  0  0  0  0  0
  179.8200  177.1820  140.2130 C   0  0  0  0  0  2  0  0  0  0  0  0
  1  2  1  1  0  0  0
  1 41  1  0  0  0  0
  1 20  1  0  0  0  0
  3  8  1  0  0  0  0
  4  3  1  0  0  0  0
  4  6  1  0  0  0  0
  6 10  1  1  0  0  0
  6  7  1  0  0  0  0
  7  1  1  1  0  0  0
  8  7  1  0  0  0  0
  8  5  2  0  0  0  0
  9  4  2  0  0  0  0
 11 12  1  0  0  0  0
 11 10  1  0  0  0  0
 13 16  1  0  0  0  0
 13 15  1  0  0  0  0
 15 12  1  6  0  0  0
 15 19  1  0  0  0  0
 16 14  1  1  0  0  0
 16 15  1  0  0  0  0
 18 19  1  0  0  0  0
 18 17  1  0  0  0  0
 19 17  1  0  0  0  0
 20 21  1  0  0  0  0
 21 22  1  0  0  0  0
 22 23  1  6  0  0  0
 22 24  1  0  0  0  0
 24 26  1  0  0  0  0
 24 25  1  6  0  0  0
 26 34  1  0  0  0  0
 27 30  1  0  0  0  0
 28 33  1  0  0  0  0
 29 28  2  0  0  0  0
 29 32  1  0  0  0  0
 30 31  1  1  0  0  0
 32 36  1  6  0  0  0
 32 27  1  0  0  0  0
 33 34  2  0  0  0  0
 33 30  1  0  0  0  0
 35 37  1  0  0  0  0
 35 36  1  0  0  0  0
 36 39  2  0  0  0  0
 37 38  1  0  0  0  0
 38 39  1  0  0  0  0
 38 40  1  1  0  0  0
 42 41  1  0  0  0  0
 45 50  1  0  0  0  0
 46 62  2  0  0  0  0
 46 55  1  0  0  0  0
 48 61  1  6  0  0  0
 48 44  1  0  0  0  0
 48 64  1  0  0  0  0
 49 64  1  0  0  0  0
 50 43  2  0  0  0  0
 50 52  1  0  0  0  0
 51 48  1  0  0  0  0
 51 63  1  0  0  0  0
 52 51  1  0  0  0  0
 53 56  2  0  0  0  0
 54 42  1  0  0  0  0
 54 56  1  0  0  0  0
 55 58  2  0  0  0  0
 56 44  1  0  0  0  0
 58 57  1  0  0  0  0
 58 52  1  0  0  0  0
 59 57  2  0  0  0  0
 59 54  1  0  0  0  0
 60 55  1  0  0  0  0
 60 45  2  0  0  0  0
 62 59  1  0  0  0  0
 63 49  1  0  0  0  0
 63 47  1  0  0  0  0
M  END
>  <MODEL>
8

>  <REMARK>
 VINA RESULT:      -7.4      3.961     10.153
  Name = 
  16 active torsions:
  status: ('A' for Active; 'I' for Inactive)
    1  A    between atoms: O_9  and  C_38
    2  A    between atoms: O_9  and  C_64
    3  A    between atoms: C_10  and  C_16
    4  A    between atoms: C_10  and  C_41
    5  A    between atoms: O_11  and  C_22
    6  A    between atoms: O_11  and  C_46
    7  A    between atoms: C_13  and  C_38
    8  A    between atoms: C_13  and  C_41
    9  A    between atoms: C_16  and  C_36
   10  A    between atoms: C_16  and  O_49
   11  A    between atoms: C_18  and  C_20
   12  A    between atoms: C_18  and  C_22
   13  A    between atoms: C_19  and  C_57
   14  A    between atoms: C_23  and  C_31
   15  A    between atoms: C_23  and  O_49
   16  A    between atoms: C_46  and  C_47
                            x       y       z     vdW  Elec       q    Type
                         _______ _______ _______ _____ _____    ______ ____

>  <TORSDO>
F 16

$$$$
=
 OpenBabel11062417473D

 64 72  0  0  1  0  0  0  0  0999 V2000
  186.5930  177.8030  137.9950 C   0  0  2  0  0  0  0  0  0  0  0  0
  187.1350  176.5420  138.3620 O   0  0  0  0  0  1  0  0  0  0  0  0
  184.6120  175.4300  135.9250 O   0  0  0  0  0  0  0  0  0  0  0  0
  183.6020  176.0620  136.6110 C   0  0  0  0  0  0  0  0  0  0  0  0
  186.8970  175.7620  135.7890 O   0  0  0  0  0  0  0  0  0  0  0  0
  184.0170  177.4220  137.2170 C   0  0  2  0  0  3  0  0  0  0  0  0
  185.5360  177.5360  136.8140 C   0  0  2  0  0  3  0  0  0  0  0  0
  185.7510  176.2300  136.0700 C   0  0  0  0  0  0  0  0  0  0  0  0
  182.4040  175.6320  136.5730 O   0  0  0  0  0  0  0  0  0  0  0  0
  183.7690  177.4890  138.7590 C   0  0  0  0  0  2  0  0  0  0  0  0
  182.2780  177.8670  138.8750 C   0  0  0  0  0  2  0  0  0  0  0  0
  181.9100  179.2210  138.5680 O   0  0  0  0  0  0  0  0  0  0  0  0
  179.3480  180.2710  138.3750 C   0  0  0  0  0  2  0  0  0  0  0  0
  181.5060  181.8410  138.3440 C   0  0  0  0  0  1  0  0  0  0  0  0
  180.5610  179.5270  139.1120 C   0  0  2  0  0  0  0  0  0  0  0  0
  180.6660  180.5800  137.8810 C   0  0  1  0  0  3  0  0  0  0  0  0
  180.9040  179.2230  141.8950 C   0  0  0  0  0  2  0  0  0  0  0  0
  179.4210  179.3040  141.5350 C   0  0  0  0  0  2  0  0  0  0  0  0
  180.4440  180.1170  140.6350 C   0  0  0  0  0  3  0  0  0  0  0  0
  187.7660  178.6810  137.5110 C   0  0  0  0  0  2  0  0  0  0  0  0
  189.2010  178.3020  137.9330 C   0  0  0  0  0  2  0  0  0  0  0  0
  189.9790  177.8140  136.6970 C   0  0  2  0  0  3  0  0  0  0  0  0
  189.1070  177.7110  135.5620 O   0  0  0  0  0  1  0  0  0  0  0  0
  190.7740  176.5380  136.9150 C   0  0  1  0  0  3  0  0  0  0  0  0
  190.2030  175.6280  137.9720 C   0  0  0  0  0  1  0  0  0  0  0  0
  190.9590  175.9720  135.6500 O   0  0  0  0  0  0  0  0  0  0  0  0
  194.9490  173.3180  136.4090 C   0  0  0  0  0  2  0  0  0  0  0  0
  193.8730  175.8800  135.9300 C   0  0  0  0  0  3  0  0  0  0  0  0
  195.1900  175.7970  136.1030 C   0  0  0  0  0  3  0  0  0  0  0  0
  193.7080  173.3980  135.5530 C   0  0  1  0  0  3  0  0  0  0  0  0
  192.8000  172.1550  135.6960 C   0  0  0  0  0  1  0  0  0  0  0  0
  195.8440  174.4250  135.9860 C   0  0  1  0  0  3  0  0  0  0  0  0
  193.0080  174.7080  135.6230 C   0  0  0  0  0  0  0  0  0  0  0  0
  191.7030  174.7850  135.4710 C   0  0  0  0  0  3  0  0  0  0  0  0
  197.7150  173.0360  136.8290 O   0  0  0  0  0  0  0  0  0  0  0  0
  197.1650  174.2430  136.5940 C   0  0  0  0  0  0  0  0  0  0  0  0
  198.8530  173.1390  137.5730 N   0  0  0  0  0  2  0  0  0  0  0  0
  199.0090  174.5960  137.7710 C   0  0  1  0  0  3  0  0  0  0  0  0
  197.7550  175.1670  137.2880 N   0  0  0  0  0  0  0  0  0  0  0  0
  199.1790  174.8780  139.2610 C   0  0  0  0  0  1  0  0  0  0  0  0
  185.9770  178.3260  139.1990 O   0  0  0  0  0  0  0  0  0  0  0  0
  186.6990  179.2480  140.0100 C   0  0  0  0  0  2  0  0  0  0  0  0
  188.5030  177.2100  147.5910 O   0  0  0  0  0  0  0  0  0  0  0  0
  184.8780  179.1540  143.4150 C   0  0  0  0  0  2  0  0  0  0  0  0
  190.1910  177.5380  145.9610 C   0  0  0  0  0  3  0  0  0  0  0  0
  189.8470  177.0740  142.2960 C   0  0  0  0  0  3  0  0  0  0  0  0
  186.1640  180.1010  147.3330 O   0  0  0  0  0  1  0  0  0  0  0  0
  185.1260  178.3110  144.7390 C   0  0  2  0  0  0  0  0  0  0  0  0
  184.7410  178.2940  147.0960 C   0  0  0  0  0  2  0  0  0  0  0  0
  188.7580  177.4980  146.3940 C   0  0  0  0  0  0  0  0  0  0  0  0
  186.5330  178.5810  145.4910 C   0  0  2  0  0  3  0  0  0  0  0  0
  187.6130  177.5030  145.3600 C   0  0  1  0  0  3  0  0  0  0  0  0
  184.4500  177.7750  141.5660 O   0  0  0  0  0  0  0  0  0  0  0  0
  186.6490  178.7100  141.4290 C   0  0  1  0  0  3  0  0  0  0  0  0
  189.5000  177.2140  143.6510 C   0  0  0  0  0  0  0  0  0  0  0  0
  185.2390  178.5210  142.1020 C   0  0  0  0  0  0  0  0  0  0  0  0
  187.2310  177.2250  143.0570 C   0  0  0  0  0  3  0  0  0  0  0  0
  188.1570  177.2500  144.0290 C   0  0  0  0  0  0  0  0  0  0  0  0
  187.5250  177.5410  141.7590 C   0  0  0  0  0  0  0  0  0  0  0  0
  190.5330  177.2920  144.7010 C   0  0  0  0  0  3  0  0  0  0  0  0
  184.9390  176.9440  144.4960 F   0  0  0  0  0  0  0  0  0  0  0  0
  188.8240  177.3890  141.3340 C   0  0  0  0  0  3  0  0  0  0  0  0
  186.1740  178.7380  146.9820 C   0  0  1  0  0  3  0  0  0  0  0  0
  184.1150  178.6700  145.7730 C   0  0  0  0  0  2  0  0  0  0  0  0
  1  2  1  1  0  0  0
  1 41  1  0  0  0  0
  3  8  1  0  0  0  0
  3  4  1  0  0  0  0
  4  6  1  0  0  0  0
  5  8  2  0  0  0  0
  6 10  1  1  0  0  0
  7  6  1  0  0  0  0
  7  1  1  1  0  0  0
  8  7  1  0  0  0  0
  9  4  2  0  0  0  0
 10 11  1  0  0  0  0
 12 11  1  0  0  0  0
 13 15  1  0  0  0  0
 15 12  1  6  0  0  0
 15 19  1  0  0  0  0
 16 14  1  1  0  0  0
 16 13  1  0  0  0  0
 16 15  1  0  0  0  0
 18 17  1  0  0  0  0
 19 18  1  0  0  0  0
 19 17  1  0  0  0  0
 20 21  1  0  0  0  0
 20  1  1  0  0  0  0
 22 23  1  6  0  0  0
 22 24  1  0  0  0  0
 22 21  1  0  0  0  0
 24 25  1  1  0  0  0
 26 24  1  0  0  0  0
 28 29  2  0  0  0  0
 30 33  1  0  0  0  0
 30 31  1  1  0  0  0
 30 27  1  0  0  0  0
 32 29  1  0  0  0  0
 32 27  1  0  0  0  0
 32 36  1  1  0  0  0
 33 28  1  0  0  0  0
 34 33  2  0  0  0  0
 34 26  1  0  0  0  0
 35 37  1  0  0  0  0
 36 35  1  0  0  0  0
 36 39  2  0  0  0  0
 37 38  1  0  0  0  0
 38 40  1  1  0  0  0
 39 38  1  0  0  0  0
 41 42  1  0  0  0  0
 42 54  1  0  0  0  0
 44 48  1  0  0  0  0
 45 50  1  0  0  0  0
 46 55  1  0  0  0  0
 48 61  1  6  0  0  0
 48 51  1  0  0  0  0
 48 64  1  0  0  0  0
 50 43  2  0  0  0  0
 51 63  1  0  0  0  0
 52 51  1  0  0  0  0
 52 50  1  0  0  0  0
 53 56  2  0  0  0  0
 54 59  1  0  0  0  0
 54 56  1  0  0  0  0
 55 58  2  0  0  0  0
 55 60  1  0  0  0  0
 56 44  1  0  0  0  0
 57 58  1  0  0  0  0
 58 52  1  0  0  0  0
 59 57  2  0  0  0  0
 60 45  2  0  0  0  0
 62 59  1  0  0  0  0
 62 46  2  0  0  0  0
 63 49  1  0  0  0  0
 63 47  1  0  0  0  0
 64 49  1  0  0  0  0
M  END
>  <MODEL>
9

>  <REMARK>
 VINA RESULT:      -7.0      1.862      3.867
  Name = 
  16 active torsions:
  status: ('A' for Active; 'I' for Inactive)
    1  A    between atoms: O_9  and  C_38
    2  A    between atoms: O_9  and  C_64
    3  A    between atoms: C_10  and  C_16
    4  A    between atoms: C_10  and  C_41
    5  A    between atoms: O_11  and  C_22
    6  A    between atoms: O_11  and  C_46
    7  A    between atoms: C_13  and  C_38
    8  A    between atoms: C_13  and  C_41
    9  A    between atoms: C_16  and  C_36
   10  A    between atoms: C_16  and  O_49
   11  A    between atoms: C_18  and  C_20
   12  A    between atoms: C_18  and  C_22
   13  A    between atoms: C_19  and  C_57
   14  A    between atoms: C_23  and  C_31
   15  A    between atoms: C_23  and  O_49
   16  A    between atoms: C_46  and  C_47
                            x       y       z     vdW  Elec       q    Type
                         _______ _______ _______ _____ _____    ______ ____

>  <TORSDO>
F 16

$$$$
