=
 OpenBabel11062412123D

 55 62  0  0  1  0  0  0  0  0999 V2000
  186.3580  177.7910  143.7760 C   0  0  1  0  0  3  0  0  0  0  0  0
  186.9170  178.5000  145.0160 C   0  0  1  0  0  3  0  0  0  0  0  0
  184.6780  178.2010  145.8250 O   0  0  0  0  0  1  0  0  0  0  0  0
  185.9480  178.7100  146.1070 C   0  0  1  0  0  3  0  0  0  0  0  0
  186.9140  177.5970  146.1810 N   0  0  2  0  0  0  0  0  0  0  0  0
  188.0460  178.0050  147.0070 C   0  0  1  0  0  3  0  0  0  0  0  0
  187.9470  177.4310  148.4130 C   0  0  0  0  0  2  0  0  0  0  0  0
  188.8400  176.7700  147.3930 C   0  0  2  0  0  3  0  0  0  0  0  0
  190.2830  177.1770  147.6490 C   0  0  0  0  0  2  0  0  0  0  0  0
  191.0800  177.0980  146.3570 C   0  0  0  0  0  1  0  0  0  0  0  0
  185.3340  178.6260  142.9780 C   0  0  0  0  0  2  0  0  0  0  0  0
  184.3280  177.8510  142.3890 O   0  0  0  0  0  0  0  0  0  0  0  0
  182.4960  179.4450  141.0390 O   0  0  0  0  0  1  0  0  0  0  0  0
  183.9630  178.6120  140.9130 P   0  0  1  0  0  0  0  0  0  0  0  0
  185.0540  179.6090  140.5860 O   0  0  0  0  0  0  0  0  0  0  0  0
  183.8210  177.4160  139.6750 O   0  0  0  0  0  0  0  0  0  0  0  0
  182.3690  175.6410  139.7020 O   0  0  0  0  0  0  0  0  0  0  0  0
  182.6110  176.8150  139.3140 C   0  0  0  0  0  0  0  0  0  0  0  0
  181.5820  177.5490  138.5040 C   0  0  0  0  0  2  0  0  0  0  0  0
  182.7390  177.5090  136.2760 C   0  0  0  0  0  1  0  0  0  0  0  0
  182.1980  178.3960  137.3840 C   0  0  1  0  0  3  0  0  0  0  0  0
  181.1070  179.2700  136.7820 C   0  0  0  0  0  2  0  0  0  0  0  0
  180.5580  180.2780  137.7490 C   0  0  0  0  0  0  0  0  0  0  0  0
  179.3910  180.2350  138.1100 O   0  0  0  0  0  0  0  0  0  0  0  0
  181.6230  181.6100  138.3110 S   0  0  0  0  0  0  0  0  0  0  0  0
  181.5110  184.1210  137.4290 O   0  0  0  0  0  0  0  0  0  0  0  0
  180.5760  182.5550  136.0290 O   0  0  0  0  0  0  0  0  0  0  0  0
  180.4840  183.7830  135.3730 C   0  0  0  0  0  2  0  0  0  0  0  0
  180.7850  182.9250  137.3650 C   0  0  0  0  0  3  0  0  0  0  0  0
  181.1140  184.8040  136.2820 C   0  0  0  0  0  2  0  0  0  0  0  0
  187.5000  177.3520  142.8580 C   0  0  0  0  0  2  0  0  0  0  0  0
  189.9440  176.5920  143.1530 C   0  0  2  0  0  3  0  0  0  0  0  0
  189.1100  175.4550  142.6020 C   0  0  0  0  0  2  0  0  0  0  0  0
  188.4770  176.4250  143.5770 C   0  0  2  0  0  3  0  0  0  0  0  0
  192.0100  177.8650  140.4390 C   0  0  2  0  0  3  0  0  0  0  0  0
  191.7180  177.7970  141.9230 C   0  0  0  0  0  2  0  0  0  0  0  0
  189.6860  178.1720  139.7840 O   0  0  0  0  0  0  0  0  0  0  0  0
  190.2100  177.6300  142.0720 C   0  0  1  0  0  3  0  0  0  0  0  0
  190.7740  177.2810  139.7670 C   0  0  2  0  0  0  0  0  0  0  0  0
  189.6740  177.1230  140.7350 C   0  0  2  0  0  3  0  0  0  0  0  0
  193.5300  177.0060  140.1010 Cl  0  0  0  0  0  0  0  0  0  0  0  0
  191.1500  175.1420  138.7690 O   0  0  0  0  0  0  0  0  0  0  0  0
  190.7650  176.3300  138.6040 C   0  0  0  0  0  0  0  0  0  0  0  0
  190.4100  176.7810  137.3280 O   0  0  0  0  0  0  0  0  0  0  0  0
  188.1500  175.9250  137.1950 C   0  0  1  0  0  3  0  0  0  0  0  0
  189.4950  176.0740  136.4950 C   0  0  1  0  0  3  0  0  0  0  0  0
  188.3930  178.2230  136.6330 O   0  0  0  0  0  1  0  0  0  0  0  0
  188.3060  176.9450  136.0810 C   0  0  2  0  0  3  0  0  0  0  0  0
  187.4730  174.7130  136.7300 N   0  0  0  0  0  0  0  0  0  0  0  0
  185.3220  175.4890  137.2800 O   0  0  0  0  0  0  0  0  0  0  0  0
  186.5440  172.1230  136.6780 N   0  0  0  0  0  2  0  0  0  0  0  0
  188.1430  173.7150  136.0850 O   0  0  0  0  0  0  0  0  0  0  0  0
  187.9350  172.5580  136.8530 C   0  0  0  0  0  2  0  0  0  0  0  0
  185.6210  173.1060  137.2650 C   0  0  0  0  0  2  0  0  0  0  0  0
  186.0900  174.5140  137.0540 C   0  0  0  0  0  0  0  0  0  0  0  0
  1 31  1  6  0  0  0
  2  1  1  6  0  0  0
  2  4  1  0  0  0  0
  2  5  1  0  0  0  0
  4  3  1  6  0  0  0
  4  5  1  0  0  0  0
  5  6  1  1  0  0  0
  6  8  1  0  0  0  0
  6  7  1  1  0  0  0
  8  9  1  1  0  0  0
  8  7  1  0  0  0  0
 10  9  1  0  0  0  0
 11  1  1  0  0  0  0
 12 11  1  0  0  0  0
 14 15  2  6  0  0  0
 14 13  1  0  0  0  0
 14 12  1  0  0  0  0
 16 14  1  0  0  0  0
 18 16  1  0  0  0  0
 18 17  2  0  0  0  0
 19 18  1  0  0  0  0
 21 20  1  6  0  0  0
 21 19  1  0  0  0  0
 22 21  1  0  0  0  0
 22 23  1  0  0  0  0
 23 24  2  0  0  0  0
 23 25  1  0  0  0  0
 27 29  1  0  0  0  0
 28 27  1  0  0  0  0
 28 30  1  0  0  0  0
 29 26  1  0  0  0  0
 29 25  1  0  0  0  0
 30 26  1  0  0  0  0
 32 33  1  6  0  0  0
 32 34  1  0  0  0  0
 33 34  1  0  0  0  0
 34 31  1  6  0  0  0
 35 41  1  1  0  0  0
 35 36  1  0  0  0  0
 38 36  1  6  0  0  0
 38 32  1  0  0  0  0
 39 43  1  6  0  0  0
 39 37  1  0  0  0  0
 39 35  1  0  0  0  0
 39 40  1  0  0  0  0
 40 37  1  6  0  0  0
 40 38  1  0  0  0  0
 43 42  2  0  0  0  0
 44 43  1  0  0  0  0
 45 49  1  6  0  0  0
 46 45  1  0  0  0  0
 46 44  1  1  0  0  0
 48 46  1  0  0  0  0
 48 47  1  1  0  0  0
 48 45  1  0  0  0  0
 49 55  1  0  0  0  0
 51 53  1  0  0  0  0
 51 54  1  0  0  0  0
 52 49  1  0  0  0  0
 52 53  1  0  0  0  0
 55 54  1  0  0  0  0
 55 50  2  0  0  0  0
M  END
>  <MODEL>
1

>  <REMARK>
 VINA RESULT:      -7.1      0.000      0.000
  Name = 
  21 active torsions:
  status: ('A' for Active; 'I' for Inactive)
    1  A    between atoms: C_2  and  C_15
    2  A    between atoms: C_2  and  C_37
    3  A    between atoms: C_4  and  N_6
    4  A    between atoms: O_7  and  C_18
    5  A    between atoms: O_7  and  C_20
    6  A    between atoms: CA_9  and  C_41
    7  A    between atoms: C_11  and  S_17
    8  A    between atoms: C_11  and  C_53
    9  A    between atoms: C_15  and  C_53
   10  A    between atoms: C_16  and  O_39
   11  A    between atoms: C_16  and  C_41
   12  A    between atoms: S_17  and  C_35
   13  A    between atoms: C_20  and  C_36
   14  A    between atoms: C_22  and  C_26
   15  A    between atoms: P_23  and  O_25
   16  A    between atoms: P_23  and  O_39
   17  A    between atoms: O_25  and  C_37
   18  A    between atoms: C_29  and  C_41
   19  A    between atoms: C_29  and  C_45
   20  A    between atoms: C_30  and  N_50
   21  A    between atoms: C_42  and  C_43
                            x       y       z     vdW  Elec       q    Type
                         _______ _______ _______ _____ _____    ______ ____

>  <TORSDO>
F 21

$$$$
=
 OpenBabel11062412123D

 55 62  0  0  1  0  0  0  0  0999 V2000
  188.5900  178.0260  143.0820 C   0  0  1  0  0  3  0  0  0  0  0  0
  187.8800  178.1340  144.4380 C   0  0  1  0  0  3  0  0  0  0  0  0
  186.6460  176.2550  143.6020 O   0  0  0  0  0  1  0  0  0  0  0  0
  186.8130  177.1430  144.6660 C   0  0  1  0  0  3  0  0  0  0  0  0
  188.1480  176.9430  145.2640 N   0  0  2  0  0  0  0  0  0  0  0  0
  188.1210  177.4010  146.6490 C   0  0  1  0  0  3  0  0  0  0  0  0
  188.5710  176.3090  147.6090 C   0  0  0  0  0  2  0  0  0  0  0  0
  189.5380  177.3900  147.1950 C   0  0  2  0  0  3  0  0  0  0  0  0
  189.6420  178.4230  148.3060 C   0  0  0  0  0  2  0  0  0  0  0  0
  188.3470  178.4600  149.1020 C   0  0  0  0  0  1  0  0  0  0  0  0
  187.9840  178.9210  141.9790 C   0  0  0  0  0  2  0  0  0  0  0  0
  187.1780  178.2160  141.0770 O   0  0  0  0  0  0  0  0  0  0  0  0
  184.5140  177.7510  141.7090 O   0  0  0  0  0  0  0  0  0  0  0  0
  185.6310  178.9120  141.1970 P   0  0  1  0  0  0  0  0  0  0  0  0
  185.6680  180.0270  142.2200 O   0  0  0  0  0  1  0  0  0  0  0  0
  185.1510  179.5040  139.6480 O   0  0  0  0  0  0  0  0  0  0  0  0
  183.2300  180.5590  138.9720 O   0  0  0  0  0  0  0  0  0  0  0  0
  183.8330  179.4720  139.1810 C   0  0  0  0  0  0  0  0  0  0  0  0
  183.1350  178.1750  138.8920 C   0  0  0  0  0  2  0  0  0  0  0  0
  182.4300  178.0350  136.4850 C   0  0  0  0  0  1  0  0  0  0  0  0
  181.9720  178.3320  137.9040 C   0  0  1  0  0  3  0  0  0  0  0  0
  180.8950  177.3180  138.2600 C   0  0  0  0  0  2  0  0  0  0  0  0
  179.9260  177.8240  139.2890 C   0  0  0  0  0  0  0  0  0  0  0  0
  179.3940  178.9160  139.1690 O   0  0  0  0  0  0  0  0  0  0  0  0
  179.6200  176.8300  140.7540 S   0  0  0  0  0  0  0  0  0  0  0  0
  179.5200  177.7890  143.2370 O   0  0  0  0  0  0  0  0  0  0  0  0
  181.2610  178.5770  141.9590 O   0  0  0  0  0  0  0  0  0  0  0  0
  181.4150  179.1320  143.2290 C   0  0  0  0  0  2  0  0  0  0  0  0
  179.9190  178.1740  141.9500 C   0  0  0  0  0  3  0  0  0  0  0  0
  180.2860  178.6000  144.0700 C   0  0  0  0  0  2  0  0  0  0  0  0
  190.0810  178.3310  143.2390 C   0  0  0  0  0  2  0  0  0  0  0  0
  191.7080  176.5840  142.2710 C   0  0  2  0  0  3  0  0  0  0  0  0
  190.3880  175.9290  142.6160 C   0  0  0  0  0  2  0  0  0  0  0  0
  190.8930  177.0620  143.4820 C   0  0  2  0  0  3  0  0  0  0  0  0
  192.4460  177.1210  138.7460 C   0  0  2  0  0  3  0  0  0  0  0  0
  192.8560  177.2810  140.1950 C   0  0  0  0  0  2  0  0  0  0  0  0
  190.1330  177.7860  139.1100 O   0  0  0  0  0  0  0  0  0  0  0  0
  191.5730  177.4210  141.0070 C   0  0  1  0  0  3  0  0  0  0  0  0
  190.9810  176.7090  138.7950 C   0  0  2  0  0  0  0  0  0  0  0  0
  190.4320  176.8750  140.1520 C   0  0  2  0  0  3  0  0  0  0  0  0
  193.5330  175.9560  137.9550 Cl  0  0  0  0  0  0  0  0  0  0  0  0
  190.7040  174.4510  138.0610 O   0  0  0  0  0  0  0  0  0  0  0  0
  190.3310  175.6490  137.9500 C   0  0  0  0  0  0  0  0  0  0  0  0
  189.3770  176.0010  136.9890 O   0  0  0  0  0  0  0  0  0  0  0  0
  187.1600  175.5150  136.1470 C   0  0  1  0  0  3  0  0  0  0  0  0
  188.5970  175.0300  136.2970 C   0  0  1  0  0  3  0  0  0  0  0  0
  188.5040  176.8680  134.7270 O   0  0  0  0  0  1  0  0  0  0  0  0
  188.0940  175.5540  134.9490 C   0  0  2  0  0  3  0  0  0  0  0  0
  186.2480  174.3720  136.0870 N   0  0  0  0  0  0  0  0  0  0  0  0
  184.6020  175.3870  137.4240 O   0  0  0  0  0  0  0  0  0  0  0  0
  185.1600  171.8960  136.5980 N   0  0  0  0  0  2  0  0  0  0  0  0
  186.4960  173.2920  135.2910 O   0  0  0  0  0  0  0  0  0  0  0  0
  186.5290  172.1830  136.1520 C   0  0  0  0  0  2  0  0  0  0  0  0
  184.6570  172.9860  137.4470 C   0  0  0  0  0  2  0  0  0  0  0  0
  185.1160  174.3300  136.9670 C   0  0  0  0  0  0  0  0  0  0  0  0
  1 11  1  6  0  0  0
  1 31  1  0  0  0  0
  2  1  1  6  0  0  0
  2  4  1  0  0  0  0
  2  5  1  0  0  0  0
  4  3  1  6  0  0  0
  4  5  1  0  0  0  0
  5  6  1  1  0  0  0
  6  8  1  0  0  0  0
  6  7  1  1  0  0  0
  8  7  1  0  0  0  0
  8  9  1  1  0  0  0
  9 10  1  0  0  0  0
 12 14  1  0  0  0  0
 12 11  1  0  0  0  0
 14 13  2  1  0  0  0
 14 15  1  0  0  0  0
 16 14  1  0  0  0  0
 17 18  2  0  0  0  0
 18 16  1  0  0  0  0
 19 18  1  0  0  0  0
 21 20  1  6  0  0  0
 21 22  1  0  0  0  0
 21 19  1  0  0  0  0
 22 23  1  0  0  0  0
 23 25  1  0  0  0  0
 24 23  2  0  0  0  0
 25 29  1  0  0  0  0
 26 30  1  0  0  0  0
 27 28  1  0  0  0  0
 28 30  1  0  0  0  0
 29 27  1  0  0  0  0
 29 26  1  0  0  0  0
 32 33  1  6  0  0  0
 32 34  1  0  0  0  0
 33 34  1  0  0  0  0
 34 31  1  6  0  0  0
 35 41  1  1  0  0  0
 35 39  1  0  0  0  0
 35 36  1  0  0  0  0
 38 36  1  6  0  0  0
 38 32  1  0  0  0  0
 39 43  1  6  0  0  0
 39 37  1  0  0  0  0
 39 40  1  0  0  0  0
 40 37  1  6  0  0  0
 40 38  1  0  0  0  0
 43 42  2  0  0  0  0
 44 43  1  0  0  0  0
 45 49  1  6  0  0  0
 45 46  1  0  0  0  0
 46 44  1  1  0  0  0
 48 47  1  1  0  0  0
 48 45  1  0  0  0  0
 48 46  1  0  0  0  0
 49 55  1  0  0  0  0
 51 54  1  0  0  0  0
 52 49  1  0  0  0  0
 52 53  1  0  0  0  0
 53 51  1  0  0  0  0
 55 50  2  0  0  0  0
 55 54  1  0  0  0  0
M  END
>  <MODEL>
2

>  <REMARK>
 VINA RESULT:      -6.9      2.326      3.313
  Name = 
  21 active torsions:
  status: ('A' for Active; 'I' for Inactive)
    1  A    between atoms: C_2  and  C_15
    2  A    between atoms: C_2  and  C_37
    3  A    between atoms: C_4  and  N_6
    4  A    between atoms: O_7  and  C_18
    5  A    between atoms: O_7  and  C_20
    6  A    between atoms: CA_9  and  C_41
    7  A    between atoms: C_11  and  S_17
    8  A    between atoms: C_11  and  C_53
    9  A    between atoms: C_15  and  C_53
   10  A    between atoms: C_16  and  O_39
   11  A    between atoms: C_16  and  C_41
   12  A    between atoms: S_17  and  C_35
   13  A    between atoms: C_20  and  C_36
   14  A    between atoms: C_22  and  C_26
   15  A    between atoms: P_23  and  O_25
   16  A    between atoms: P_23  and  O_39
   17  A    between atoms: O_25  and  C_37
   18  A    between atoms: C_29  and  C_41
   19  A    between atoms: C_29  and  C_45
   20  A    between atoms: C_30  and  N_50
   21  A    between atoms: C_42  and  C_43
                            x       y       z     vdW  Elec       q    Type
                         _______ _______ _______ _____ _____    ______ ____

>  <TORSDO>
F 21

$$$$
=
 OpenBabel11062412123D

 55 62  0  0  1  0  0  0  0  0999 V2000
  186.1430  177.9610  144.2440 C   0  0  1  0  0  3  0  0  0  0  0  0
  186.7560  178.6320  145.4800 C   0  0  1  0  0  3  0  0  0  0  0  0
  184.5170  178.4450  146.3190 O   0  0  0  0  0  1  0  0  0  0  0  0
  185.8150  178.8850  146.5860 C   0  0  1  0  0  3  0  0  0  0  0  0
  186.7220  177.7220  146.6390 N   0  0  2  0  0  0  0  0  0  0  0  0
  187.8860  178.0650  147.4510 C   0  0  1  0  0  3  0  0  0  0  0  0
  188.0200  177.1420  148.6530 C   0  0  0  0  0  2  0  0  0  0  0  0
  188.8610  176.9020  147.4240 C   0  0  2  0  0  3  0  0  0  0  0  0
  190.2650  177.4350  147.6640 C   0  0  0  0  0  2  0  0  0  0  0  0
  191.2920  176.4080  147.2170 C   0  0  0  0  0  1  0  0  0  0  0  0
  185.0920  178.8230  143.5130 C   0  0  0  0  0  2  0  0  0  0  0  0
  184.0140  178.0790  143.0180 O   0  0  0  0  0  0  0  0  0  0  0  0
  181.5580  178.2660  144.3040 O   0  0  0  0  0  1  0  0  0  0  0  0
  182.6360  179.0460  143.2600 P   0  0  1  0  0  0  0  0  0  0  0  0
  183.0540  180.3560  143.8920 O   0  0  0  0  0  0  0  0  0  0  0  0
  181.8520  179.3090  141.7440 O   0  0  0  0  0  0  0  0  0  0  0  0
  179.9660  180.6110  141.8040 O   0  0  0  0  0  0  0  0  0  0  0  0
  180.4700  179.4750  141.6040 C   0  0  0  0  0  0  0  0  0  0  0  0
  179.5820  178.3370  141.1890 C   0  0  0  0  0  2  0  0  0  0  0  0
  179.0350  179.4380  139.0000 C   0  0  0  0  0  1  0  0  0  0  0  0
  179.5130  178.1600  139.6680 C   0  0  1  0  0  3  0  0  0  0  0  0
  180.9160  177.8680  139.1510 C   0  0  0  0  0  2  0  0  0  0  0  0
  181.4320  176.5240  139.5730 C   0  0  0  0  0  0  0  0  0  0  0  0
  182.5830  176.3820  139.9550 O   0  0  0  0  0  0  0  0  0  0  0  0
  180.3510  175.0960  139.4290 S   0  0  0  0  0  0  0  0  0  0  0  0
  181.8770  174.1170  137.4770 O   0  0  0  0  0  0  0  0  0  0  0  0
  179.6190  174.1100  137.0440 O   0  0  0  0  0  0  0  0  0  0  0  0
  180.2370  173.5040  135.9500 C   0  0  0  0  0  2  0  0  0  0  0  0
  180.6700  174.8050  137.6570 C   0  0  0  0  0  3  0  0  0  0  0  0
  181.7130  173.4920  136.2440 C   0  0  0  0  0  2  0  0  0  0  0  0
  187.2440  177.5430  143.2670 C   0  0  0  0  0  2  0  0  0  0  0  0
  189.6430  176.6120  143.3990 C   0  0  2  0  0  3  0  0  0  0  0  0
  188.7080  175.5630  142.8360 C   0  0  0  0  0  2  0  0  0  0  0  0
  188.1900  176.5190  143.8880 C   0  0  2  0  0  3  0  0  0  0  0  0
  191.7020  177.9290  140.7000 C   0  0  2  0  0  3  0  0  0  0  0  0
  191.4360  177.8070  142.1850 C   0  0  0  0  0  2  0  0  0  0  0  0
  189.3780  178.3460  140.1060 O   0  0  0  0  0  0  0  0  0  0  0  0
  189.9260  177.6870  142.3580 C   0  0  1  0  0  3  0  0  0  0  0  0
  190.4330  177.4190  140.0290 C   0  0  2  0  0  0  0  0  0  0  0  0
  189.3460  177.2580  141.0120 C   0  0  2  0  0  3  0  0  0  0  0  0
  193.1830  177.0310  140.2940 Cl  0  0  0  0  0  0  0  0  0  0  0  0
  190.7910  175.3370  138.9110 O   0  0  0  0  0  0  0  0  0  0  0  0
  190.3670  176.5200  138.8270 C   0  0  0  0  0  0  0  0  0  0  0  0
  189.9150  177.0170  137.5990 O   0  0  0  0  0  0  0  0  0  0  0  0
  187.6880  176.1320  137.2620 C   0  0  1  0  0  3  0  0  0  0  0  0
  189.1050  176.2470  136.7160 C   0  0  1  0  0  3  0  0  0  0  0  0
  187.9890  178.3890  136.5790 O   0  0  0  0  0  1  0  0  0  0  0  0
  187.9710  177.0770  136.1070 C   0  0  2  0  0  3  0  0  0  0  0  0
  187.0720  174.8850  136.8040 N   0  0  0  0  0  0  0  0  0  0  0  0
  184.8890  175.5420  137.3800 O   0  0  0  0  0  0  0  0  0  0  0  0
  186.2850  172.2480  136.7610 N   0  0  0  0  0  2  0  0  0  0  0  0
  187.7880  173.9250  136.1500 O   0  0  0  0  0  0  0  0  0  0  0  0
  187.6530  172.7580  136.9200 C   0  0  0  0  0  2  0  0  0  0  0  0
  185.3170  173.1790  137.3600 C   0  0  0  0  0  2  0  0  0  0  0  0
  185.7060  174.6110  137.1440 C   0  0  0  0  0  0  0  0  0  0  0  0
  1 31  1  6  0  0  0
  2  1  1  6  0  0  0
  2  4  1  0  0  0  0
  2  5  1  0  0  0  0
  4  3  1  6  0  0  0
  4  5  1  0  0  0  0
  5  6  1  1  0  0  0
  6  7  1  1  0  0  0
  8  6  1  0  0  0  0
  8  9  1  1  0  0  0
  8  7  1  0  0  0  0
 10  9  1  0  0  0  0
 11  1  1  0  0  0  0
 12 14  1  0  0  0  0
 12 11  1  0  0  0  0
 14 15  2  1  0  0  0
 14 13  1  0  0  0  0
 16 14  1  0  0  0  0
 18 16  1  0  0  0  0
 18 17  2  0  0  0  0
 19 18  1  0  0  0  0
 21 20  1  6  0  0  0
 21 19  1  0  0  0  0
 22 23  1  0  0  0  0
 22 21  1  0  0  0  0
 23 24  2  0  0  0  0
 25 23  1  0  0  0  0
 26 29  1  0  0  0  0
 27 29  1  0  0  0  0
 28 30  1  0  0  0  0
 28 27  1  0  0  0  0
 29 25  1  0  0  0  0
 30 26  1  0  0  0  0
 32 33  1  6  0  0  0
 32 34  1  0  0  0  0
 33 34  1  0  0  0  0
 34 31  1  6  0  0  0
 35 41  1  6  0  0  0
 35 36  1  0  0  0  0
 38 36  1  6  0  0  0
 38 32  1  0  0  0  0
 39 43  1  6  0  0  0
 39 37  1  0  0  0  0
 39 35  1  0  0  0  0
 39 40  1  0  0  0  0
 40 37  1  6  0  0  0
 40 38  1  0  0  0  0
 43 42  2  0  0  0  0
 44 43  1  0  0  0  0
 45 49  1  6  0  0  0
 46 45  1  0  0  0  0
 46 44  1  1  0  0  0
 48 47  1  1  0  0  0
 48 46  1  0  0  0  0
 48 45  1  0  0  0  0
 49 55  1  0  0  0  0
 51 53  1  0  0  0  0
 51 54  1  0  0  0  0
 52 49  1  0  0  0  0
 52 53  1  0  0  0  0
 55 54  1  0  0  0  0
 55 50  2  0  0  0  0
M  END
>  <MODEL>
3

>  <REMARK>
 VINA RESULT:      -6.7      2.275      3.645
  Name = 
  21 active torsions:
  status: ('A' for Active; 'I' for Inactive)
    1  A    between atoms: C_2  and  C_15
    2  A    between atoms: C_2  and  C_37
    3  A    between atoms: C_4  and  N_6
    4  A    between atoms: O_7  and  C_18
    5  A    between atoms: O_7  and  C_20
    6  A    between atoms: CA_9  and  C_41
    7  A    between atoms: C_11  and  S_17
    8  A    between atoms: C_11  and  C_53
    9  A    between atoms: C_15  and  C_53
   10  A    between atoms: C_16  and  O_39
   11  A    between atoms: C_16  and  C_41
   12  A    between atoms: S_17  and  C_35
   13  A    between atoms: C_20  and  C_36
   14  A    between atoms: C_22  and  C_26
   15  A    between atoms: P_23  and  O_25
   16  A    between atoms: P_23  and  O_39
   17  A    between atoms: O_25  and  C_37
   18  A    between atoms: C_29  and  C_41
   19  A    between atoms: C_29  and  C_45
   20  A    between atoms: C_30  and  N_50
   21  A    between atoms: C_42  and  C_43
                            x       y       z     vdW  Elec       q    Type
                         _______ _______ _______ _____ _____    ______ ____

>  <TORSDO>
F 21

$$$$
=
 OpenBabel11062412123D

 55 62  0  0  1  0  0  0  0  0999 V2000
  186.5060  178.0220  142.6720 C   0  0  1  0  0  3  0  0  0  0  0  0
  186.9180  178.6060  144.0300 C   0  0  1  0  0  3  0  0  0  0  0  0
  184.6460  178.0860  144.6010 O   0  0  0  0  0  1  0  0  0  0  0  0
  185.8530  178.6270  145.0500 C   0  0  1  0  0  3  0  0  0  0  0  0
  186.8810  177.5680  145.0770 N   0  0  2  0  0  0  0  0  0  0  0  0
  187.9150  177.9350  146.0400 C   0  0  1  0  0  3  0  0  0  0  0  0
  188.1310  176.8390  147.0730 C   0  0  0  0  0  2  0  0  0  0  0  0
  189.0760  176.9660  145.9040 C   0  0  2  0  0  3  0  0  0  0  0  0
  190.3490  177.6610  146.3610 C   0  0  0  0  0  2  0  0  0  0  0  0
  191.2720  176.6610  147.0350 C   0  0  0  0  0  1  0  0  0  0  0  0
  185.8690  179.0490  141.7100 C   0  0  0  0  0  2  0  0  0  0  0  0
  186.2550  178.8690  140.3770 O   0  0  0  0  0  0  0  0  0  0  0  0
  184.1020  180.1940  139.2240 O   0  0  0  0  0  1  0  0  0  0  0  0
  184.8100  178.6830  139.4990 P   0  0  1  0  0  0  0  0  0  0  0  0
  185.1210  178.0470  138.1620 O   0  0  0  0  0  0  0  0  0  0  0  0
  183.7120  177.7100  140.4100 O   0  0  0  0  0  0  0  0  0  0  0  0
  182.1790  178.9140  141.6180 O   0  0  0  0  0  0  0  0  0  0  0  0
  182.3950  178.0860  140.6930 C   0  0  0  0  0  0  0  0  0  0  0  0
  181.2390  177.5520  139.8990 C   0  0  0  0  0  2  0  0  0  0  0  0
  180.2670  175.3040  139.3410 C   0  0  0  0  0  1  0  0  0  0  0  0
  181.5170  176.1680  139.2990 C   0  0  1  0  0  3  0  0  0  0  0  0
  181.9060  176.3440  137.8380 C   0  0  0  0  0  2  0  0  0  0  0  0
  182.9500  175.3660  137.3840 C   0  0  0  0  0  0  0  0  0  0  0  0
  183.7610  174.9010  138.1700 O   0  0  0  0  0  0  0  0  0  0  0  0
  183.0460  174.9480  135.6400 S   0  0  0  0  0  0  0  0  0  0  0  0
  183.5380  172.4060  136.2660 O   0  0  0  0  0  0  0  0  0  0  0  0
  181.4000  173.1230  136.7170 O   0  0  0  0  0  0  0  0  0  0  0  0
  181.4840  171.8060  137.1710 C   0  0  0  0  0  2  0  0  0  0  0  0
  182.4850  173.2230  135.8350 C   0  0  0  0  0  3  0  0  0  0  0  0
  182.8900  171.3450  136.8930 C   0  0  0  0  0  2  0  0  0  0  0  0
  187.7060  177.3530  141.9990 C   0  0  0  0  0  2  0  0  0  0  0  0
  189.8830  178.0720  140.8250 C   0  0  2  0  0  3  0  0  0  0  0  0
  190.2010  177.4230  142.1550 C   0  0  0  0  0  2  0  0  0  0  0  0
  188.9400  178.2500  142.0230 C   0  0  2  0  0  3  0  0  0  0  0  0
  189.4550  177.0290  137.3620 C   0  0  2  0  0  3  0  0  0  0  0  0
  188.8970  177.7310  138.5820 C   0  0  0  0  0  2  0  0  0  0  0  0
  190.3040  175.1100  138.5960 O   0  0  0  0  0  0  0  0  0  0  0  0
  189.4700  177.0210  139.8040 C   0  0  1  0  0  3  0  0  0  0  0  0
  190.6670  176.2590  137.8700 C   0  0  2  0  0  0  0  0  0  0  0  0
  190.7020  176.2450  139.3430 C   0  0  2  0  0  3  0  0  0  0  0  0
  189.8000  178.2340  136.1000 Cl  0  0  0  0  0  0  0  0  0  0  0  0
  192.9120  176.9690  137.4620 O   0  0  0  0  0  0  0  0  0  0  0  0
  191.9980  176.1500  137.1820 C   0  0  0  0  0  0  0  0  0  0  0  0
  192.1950  175.1960  136.1770 O   0  0  0  0  0  0  0  0  0  0  0  0
  194.0550  173.8030  136.8550 C   0  0  1  0  0  3  0  0  0  0  0  0
  193.4920  174.7440  135.7980 C   0  0  1  0  0  3  0  0  0  0  0  0
  192.2750  172.6530  135.7760 O   0  0  0  0  0  1  0  0  0  0  0  0
  193.5230  173.2330  135.5520 C   0  0  2  0  0  3  0  0  0  0  0  0
  195.5170  173.8710  136.8620 N   0  0  0  0  0  0  0  0  0  0  0  0
  195.7130  173.2890  139.1320 O   0  0  0  0  0  0  0  0  0  0  0  0
  198.0610  174.9200  136.8950 N   0  0  0  0  0  2  0  0  0  0  0  0
  196.2350  174.0690  135.7190 O   0  0  0  0  0  0  0  0  0  0  0  0
  196.9910  175.2310  135.9390 C   0  0  0  0  0  2  0  0  0  0  0  0
  197.4960  174.6120  138.2170 C   0  0  0  0  0  2  0  0  0  0  0  0
  196.2160  173.8390  138.1140 C   0  0  0  0  0  0  0  0  0  0  0  0
  1 11  1  6  0  0  0
  2  1  1  6  0  0  0
  2  4  1  0  0  0  0
  2  5  1  0  0  0  0
  4  3  1  6  0  0  0
  4  5  1  0  0  0  0
  5  6  1  1  0  0  0
  6  7  1  1  0  0  0
  8  6  1  0  0  0  0
  8  9  1  1  0  0  0
  8  7  1  0  0  0  0
  9 10  1  0  0  0  0
 12 11  1  0  0  0  0
 13 14  1  0  0  0  0
 14 15  2  6  0  0  0
 14 12  1  0  0  0  0
 14 16  1  0  0  0  0
 16 18  1  0  0  0  0
 18 17  2  0  0  0  0
 19 18  1  0  0  0  0
 21 20  1  6  0  0  0
 21 19  1  0  0  0  0
 22 21  1  0  0  0  0
 23 22  1  0  0  0  0
 23 24  2  0  0  0  0
 25 29  1  0  0  0  0
 25 23  1  0  0  0  0
 26 30  1  0  0  0  0
 27 28  1  0  0  0  0
 29 26  1  0  0  0  0
 29 27  1  0  0  0  0
 30 28  1  0  0  0  0
 31  1  1  0  0  0  0
 32 34  1  0  0  0  0
 32 33  1  1  0  0  0
 34 31  1  6  0  0  0
 34 33  1  0  0  0  0
 35 41  1  6  0  0  0
 35 39  1  0  0  0  0
 35 36  1  0  0  0  0
 38 36  1  6  0  0  0
 38 32  1  0  0  0  0
 39 43  1  6  0  0  0
 39 37  1  0  0  0  0
 39 40  1  0  0  0  0
 40 37  1  1  0  0  0
 40 38  1  0  0  0  0
 43 42  2  0  0  0  0
 44 43  1  0  0  0  0
 45 49  1  6  0  0  0
 46 44  1  1  0  0  0
 46 45  1  0  0  0  0
 48 47  1  1  0  0  0
 48 46  1  0  0  0  0
 48 45  1  0  0  0  0
 49 55  1  0  0  0  0
 51 54  1  0  0  0  0
 52 53  1  0  0  0  0
 52 49  1  0  0  0  0
 53 51  1  0  0  0  0
 55 54  1  0  0  0  0
 55 50  2  0  0  0  0
M  END
>  <MODEL>
4

>  <REMARK>
 VINA RESULT:      -6.7      3.534      5.880
  Name = 
  21 active torsions:
  status: ('A' for Active; 'I' for Inactive)
    1  A    between atoms: C_2  and  C_15
    2  A    between atoms: C_2  and  C_37
    3  A    between atoms: C_4  and  N_6
    4  A    between atoms: O_7  and  C_18
    5  A    between atoms: O_7  and  C_20
    6  A    between atoms: CA_9  and  C_41
    7  A    between atoms: C_11  and  S_17
    8  A    between atoms: C_11  and  C_53
    9  A    between atoms: C_15  and  C_53
   10  A    between atoms: C_16  and  O_39
   11  A    between atoms: C_16  and  C_41
   12  A    between atoms: S_17  and  C_35
   13  A    between atoms: C_20  and  C_36
   14  A    between atoms: C_22  and  C_26
   15  A    between atoms: P_23  and  O_25
   16  A    between atoms: P_23  and  O_39
   17  A    between atoms: O_25  and  C_37
   18  A    between atoms: C_29  and  C_41
   19  A    between atoms: C_29  and  C_45
   20  A    between atoms: C_30  and  N_50
   21  A    between atoms: C_42  and  C_43
                            x       y       z     vdW  Elec       q    Type
                         _______ _______ _______ _____ _____    ______ ____

>  <TORSDO>
F 21

$$$$
=
 OpenBabel11062412123D

 55 62  0  0  1  0  0  0  0  0999 V2000
  188.6830  178.0090  143.0350 C   0  0  1  0  0  3  0  0  0  0  0  0
  187.9430  178.0960  144.3760 C   0  0  1  0  0  3  0  0  0  0  0  0
  186.8620  176.1150  143.5640 O   0  0  0  0  0  1  0  0  0  0  0  0
  186.9450  177.0370  144.6100 C   0  0  1  0  0  3  0  0  0  0  0  0
  188.2790  176.9460  145.2350 N   0  0  2  0  0  0  0  0  0  0  0  0
  188.1940  177.4330  146.6080 C   0  0  1  0  0  3  0  0  0  0  0  0
  188.5740  176.3520  147.6090 C   0  0  0  0  0  2  0  0  0  0  0  0
  189.5820  177.4060  147.2230 C   0  0  2  0  0  3  0  0  0  0  0  0
  189.6510  178.4590  148.3180 C   0  0  0  0  0  2  0  0  0  0  0  0
  188.3300  178.5160  149.0670 C   0  0  0  0  0  1  0  0  0  0  0  0
  188.1040  178.9230  141.9330 C   0  0  0  0  0  2  0  0  0  0  0  0
  187.2230  178.2590  141.0720 O   0  0  0  0  0  0  0  0  0  0  0  0
  184.6560  177.7950  142.0270 O   0  0  0  0  0  0  0  0  0  0  0  0
  185.6940  178.9480  141.3530 P   0  0  1  0  0  0  0  0  0  0  0  0
  185.8400  180.0930  142.3320 O   0  0  0  0  0  1  0  0  0  0  0  0
  185.0290  179.4900  139.8550 O   0  0  0  0  0  0  0  0  0  0  0  0
  185.8630  178.7970  137.8340 O   0  0  0  0  0  0  0  0  0  0  0  0
  184.9590  178.6960  138.7060 C   0  0  0  0  0  0  0  0  0  0  0  0
  183.8500  177.7040  138.5060 C   0  0  0  0  0  2  0  0  0  0  0  0
  182.4320  177.7670  136.4340 C   0  0  0  0  0  1  0  0  0  0  0  0
  182.6140  178.3190  137.8380 C   0  0  1  0  0  3  0  0  0  0  0  0
  181.3840  177.9300  138.6470 C   0  0  0  0  0  2  0  0  0  0  0  0
  180.8980  179.0280  139.5460 C   0  0  0  0  0  0  0  0  0  0  0  0
  181.5240  179.3490  140.5450 O   0  0  0  0  0  0  0  0  0  0  0  0
  179.3270  179.8180  139.1790 S   0  0  0  0  0  0  0  0  0  0  0  0
  181.0400  181.5230  138.0600 O   0  0  0  0  0  0  0  0  0  0  0  0
  179.0150  182.4320  138.6610 O   0  0  0  0  0  0  0  0  0  0  0  0
  179.7400  183.4480  138.0380 C   0  0  0  0  0  2  0  0  0  0  0  0
  180.0060  181.5010  139.0040 C   0  0  0  0  0  3  0  0  0  0  0  0
  181.0570  182.8460  137.6270 C   0  0  0  0  0  2  0  0  0  0  0  0
  190.1700  178.3090  143.2320 C   0  0  0  0  0  2  0  0  0  0  0  0
  191.7500  176.5650  142.1820 C   0  0  2  0  0  3  0  0  0  0  0  0
  190.4380  175.9140  142.5650 C   0  0  0  0  0  2  0  0  0  0  0  0
  190.9820  177.0310  143.4280 C   0  0  2  0  0  3  0  0  0  0  0  0
  192.4850  177.2240  138.6780 C   0  0  2  0  0  3  0  0  0  0  0  0
  192.8720  177.3760  140.1330 C   0  0  0  0  0  2  0  0  0  0  0  0
  190.1330  177.7410  139.0320 O   0  0  0  0  0  0  0  0  0  0  0  0
  191.5760  177.4210  140.9350 C   0  0  1  0  0  3  0  0  0  0  0  0
  191.0470  176.7240  138.7020 C   0  0  2  0  0  0  0  0  0  0  0  0
  190.4770  176.8270  140.0570 C   0  0  2  0  0  3  0  0  0  0  0  0
  193.6470  176.1440  137.8720 Cl  0  0  0  0  0  0  0  0  0  0  0  0
  190.7380  174.4400  138.0690 O   0  0  0  0  0  0  0  0  0  0  0  0
  190.4700  175.6460  137.8280 C   0  0  0  0  0  0  0  0  0  0  0  0
  189.7060  175.9840  136.7050 O   0  0  0  0  0  0  0  0  0  0  0  0
  187.3410  175.6040  137.0570 C   0  0  1  0  0  3  0  0  0  0  0  0
  188.5900  175.2070  136.2800 C   0  0  1  0  0  3  0  0  0  0  0  0
  187.8670  177.4160  135.6110 O   0  0  0  0  0  1  0  0  0  0  0  0
  187.5090  176.0680  135.6210 C   0  0  2  0  0  3  0  0  0  0  0  0
  186.4270  174.4640  137.1560 N   0  0  0  0  0  0  0  0  0  0  0  0
  188.1460  172.8600  137.1940 O   0  0  0  0  0  0  0  0  0  0  0  0
  184.6140  172.5280  136.4250 N   0  0  0  0  0  2  0  0  0  0  0  0
  185.0840  174.6300  137.3210 O   0  0  0  0  0  0  0  0  0  0  0  0
  184.4820  173.9780  136.2330 C   0  0  0  0  0  2  0  0  0  0  0  0
  186.0250  172.1250  136.3410 C   0  0  0  0  0  2  0  0  0  0  0  0
  186.9370  173.1370  136.9650 C   0  0  0  0  0  0  0  0  0  0  0  0
  1 11  1  6  0  0  0
  1 31  1  0  0  0  0
  2  1  1  6  0  0  0
  2  4  1  0  0  0  0
  2  5  1  0  0  0  0
  4  3  1  6  0  0  0
  4  5  1  0  0  0  0
  5  6  1  1  0  0  0
  6  8  1  0  0  0  0
  6  7  1  1  0  0  0
  8  7  1  0  0  0  0
  8  9  1  1  0  0  0
  9 10  1  0  0  0  0
 12 14  1  0  0  0  0
 12 11  1  0  0  0  0
 14 13  2  1  0  0  0
 14 15  1  0  0  0  0
 16 14  1  0  0  0  0
 17 18  2  0  0  0  0
 18 16  1  0  0  0  0
 19 18  1  0  0  0  0
 21 20  1  6  0  0  0
 21 19  1  0  0  0  0
 21 22  1  0  0  0  0
 22 23  1  0  0  0  0
 23 24  2  0  0  0  0
 25 23  1  0  0  0  0
 26 29  1  0  0  0  0
 27 29  1  0  0  0  0
 28 27  1  0  0  0  0
 29 25  1  0  0  0  0
 30 28  1  0  0  0  0
 30 26  1  0  0  0  0
 32 33  1  6  0  0  0
 32 34  1  0  0  0  0
 33 34  1  0  0  0  0
 34 31  1  6  0  0  0
 35 41  1  1  0  0  0
 35 39  1  0  0  0  0
 35 36  1  0  0  0  0
 38 36  1  6  0  0  0
 38 32  1  0  0  0  0
 39 43  1  6  0  0  0
 39 37  1  0  0  0  0
 39 40  1  0  0  0  0
 40 37  1  6  0  0  0
 40 38  1  0  0  0  0
 43 42  2  0  0  0  0
 44 43  1  0  0  0  0
 45 49  1  6  0  0  0
 46 44  1  1  0  0  0
 46 45  1  0  0  0  0
 48 47  1  1  0  0  0
 48 46  1  0  0  0  0
 48 45  1  0  0  0  0
 49 52  1  0  0  0  0
 53 51  1  0  0  0  0
 53 52  1  0  0  0  0
 54 51  1  0  0  0  0
 54 55  1  0  0  0  0
 55 49  1  0  0  0  0
 55 50  2  0  0  0  0
M  END
>  <MODEL>
5

>  <REMARK>
 VINA RESULT:      -6.5      1.695      2.353
  Name = 
  21 active torsions:
  status: ('A' for Active; 'I' for Inactive)
    1  A    between atoms: C_2  and  C_15
    2  A    between atoms: C_2  and  C_37
    3  A    between atoms: C_4  and  N_6
    4  A    between atoms: O_7  and  C_18
    5  A    between atoms: O_7  and  C_20
    6  A    between atoms: CA_9  and  C_41
    7  A    between atoms: C_11  and  S_17
    8  A    between atoms: C_11  and  C_53
    9  A    between atoms: C_15  and  C_53
   10  A    between atoms: C_16  and  O_39
   11  A    between atoms: C_16  and  C_41
   12  A    between atoms: S_17  and  C_35
   13  A    between atoms: C_20  and  C_36
   14  A    between atoms: C_22  and  C_26
   15  A    between atoms: P_23  and  O_25
   16  A    between atoms: P_23  and  O_39
   17  A    between atoms: O_25  and  C_37
   18  A    between atoms: C_29  and  C_41
   19  A    between atoms: C_29  and  C_45
   20  A    between atoms: C_30  and  N_50
   21  A    between atoms: C_42  and  C_43
                            x       y       z     vdW  Elec       q    Type
                         _______ _______ _______ _____ _____    ______ ____

>  <TORSDO>
F 21

$$$$
=
 OpenBabel11062412123D

 55 62  0  0  1  0  0  0  0  0999 V2000
  188.0530  178.0340  141.5300 C   0  0  1  0  0  3  0  0  0  0  0  0
  188.0330  177.0820  142.7330 C   0  0  1  0  0  3  0  0  0  0  0  0
  190.3920  176.9810  142.3100 O   0  0  0  0  0  1  0  0  0  0  0  0
  189.3440  176.5240  143.1110 C   0  0  1  0  0  3  0  0  0  0  0  0
  188.7780  177.6570  143.8680 N   0  0  2  0  0  0  0  0  0  0  0  0
  188.1290  177.1470  145.0720 C   0  0  1  0  0  3  0  0  0  0  0  0
  188.5890  177.8970  146.3140 C   0  0  0  0  0  2  0  0  0  0  0  0
  187.2710  178.2490  145.6690 C   0  0  2  0  0  3  0  0  0  0  0  0
  186.1390  177.6120  146.4590 C   0  0  0  0  0  2  0  0  0  0  0  0
  185.7700  178.4950  147.6400 C   0  0  0  0  0  1  0  0  0  0  0  0
  188.6010  177.4010  140.2330 C   0  0  0  0  0  2  0  0  0  0  0  0
  189.7490  178.0390  139.7490 O   0  0  0  0  0  0  0  0  0  0  0  0
  192.0390  177.0950  138.4910 O   0  0  0  0  0  0  0  0  0  0  0  0
  190.3490  177.0360  138.5140 P   0  0  1  0  0  0  0  0  0  0  0  0
  189.9220  175.6100  138.7820 O   0  0  0  0  0  1  0  0  0  0  0  0
  189.7510  177.5890  136.9910 O   0  0  0  0  0  0  0  0  0  0  0  0
  189.0440  179.7460  137.3200 O   0  0  0  0  0  0  0  0  0  0  0  0
  188.7950  178.6010  136.8550 C   0  0  0  0  0  0  0  0  0  0  0  0
  187.4970  178.3630  136.1400 C   0  0  0  0  0  2  0  0  0  0  0  0
  185.2870  177.5060  136.9700 C   0  0  0  0  0  1  0  0  0  0  0  0
  186.7340  177.1470  136.6800 C   0  0  1  0  0  3  0  0  0  0  0  0
  186.7330  176.0630  135.6110 C   0  0  0  0  0  2  0  0  0  0  0  0
  187.8590  175.0830  135.7630 C   0  0  0  0  0  0  0  0  0  0  0  0
  187.8480  174.2440  136.6500 O   0  0  0  0  0  0  0  0  0  0  0  0
  189.2770  175.2140  134.6670 S   0  0  0  0  0  0  0  0  0  0  0  0
  190.2030  172.7170  134.7040 O   0  0  0  0  0  0  0  0  0  0  0  0
  191.5750  174.2780  135.6860 O   0  0  0  0  0  0  0  0  0  0  0  0
  192.2530  173.0600  135.7410 C   0  0  0  0  0  2  0  0  0  0  0  0
  190.2460  173.8920  135.4650 C   0  0  0  0  0  3  0  0  0  0  0  0
  191.3610  172.0430  135.0800 C   0  0  0  0  0  2  0  0  0  0  0  0
  186.6550  178.6030  141.2830 C   0  0  0  0  0  2  0  0  0  0  0  0
  184.2280  178.0600  141.9530 C   0  0  2  0  0  3  0  0  0  0  0  0
  184.6810  179.3350  142.6320 C   0  0  0  0  0  2  0  0  0  0  0  0
  185.6870  178.2280  142.4010 C   0  0  2  0  0  3  0  0  0  0  0  0
  182.0780  177.7010  139.0360 C   0  0  2  0  0  3  0  0  0  0  0  0
  183.1630  177.1300  139.9240 C   0  0  0  0  0  2  0  0  0  0  0  0
  183.0240  179.9420  138.9660 O   0  0  0  0  0  0  0  0  0  0  0  0
  183.9520  178.3120  140.4770 C   0  0  1  0  0  3  0  0  0  0  0  0
  181.9590  179.1620  139.4490 C   0  0  2  0  0  0  0  0  0  0  0  0
  183.0770  179.5540  140.3260 C   0  0  2  0  0  3  0  0  0  0  0  0
  180.5950  176.7370  139.2310 Cl  0  0  0  0  0  0  0  0  0  0  0  0
  180.4830  180.5560  140.7100 O   0  0  0  0  0  0  0  0  0  0  0  0
  180.6790  179.9270  139.6380 C   0  0  0  0  0  0  0  0  0  0  0  0
  179.6770  179.8740  138.6620 O   0  0  0  0  0  0  0  0  0  0  0  0
  180.5570  181.3220  136.9340 C   0  0  1  0  0  3  0  0  0  0  0  0
  179.3680  180.9840  137.8250 C   0  0  1  0  0  3  0  0  0  0  0  0
  179.6740  179.2530  136.1630 O   0  0  0  0  0  1  0  0  0  0  0  0
  179.3580  180.5990  136.3420 C   0  0  2  0  0  3  0  0  0  0  0  0
  180.5480  182.7480  136.6030 N   0  0  0  0  0  0  0  0  0  0  0  0
  182.3100  183.2810  138.0660 O   0  0  0  0  0  0  0  0  0  0  0  0
  179.7760  185.3890  136.5440 N   0  0  0  0  0  2  0  0  0  0  0  0
  179.7640  183.2530  135.6070 O   0  0  0  0  0  0  0  0  0  0  0  0
  178.9490  184.2200  136.2160 C   0  0  0  0  0  2  0  0  0  0  0  0
  180.7560  185.0480  137.5860 C   0  0  0  0  0  2  0  0  0  0  0  0
  181.2990  183.6610  137.4150 C   0  0  0  0  0  0  0  0  0  0  0  0
  1 11  1  6  0  0  0
  2  1  1  6  0  0  0
  2  4  1  0  0  0  0
  2  5  1  0  0  0  0
  4  3  1  6  0  0  0
  4  5  1  0  0  0  0
  5  6  1  1  0  0  0
  6  8  1  0  0  0  0
  6  7  1  1  0  0  0
  8  7  1  0  0  0  0
  8  9  1  1  0  0  0
  9 10  1  0  0  0  0
 12 11  1  0  0  0  0
 14 13  2  6  0  0  0
 14 15  1  0  0  0  0
 14 12  1  0  0  0  0
 16 14  1  0  0  0  0
 18 16  1  0  0  0  0
 18 17  2  0  0  0  0
 19 21  1  0  0  0  0
 19 18  1  0  0  0  0
 21 20  1  6  0  0  0
 22 23  1  0  0  0  0
 22 21  1  0  0  0  0
 23 24  2  0  0  0  0
 25 29  1  0  0  0  0
 25 23  1  0  0  0  0
 26 30  1  0  0  0  0
 26 29  1  0  0  0  0
 27 28  1  0  0  0  0
 29 27  1  0  0  0  0
 30 28  1  0  0  0  0
 31  1  1  0  0  0  0
 32 34  1  0  0  0  0
 32 33  1  1  0  0  0
 34 31  1  6  0  0  0
 34 33  1  0  0  0  0
 35 41  1  1  0  0  0
 35 39  1  0  0  0  0
 35 36  1  0  0  0  0
 37 39  1  0  0  0  0
 38 36  1  1  0  0  0
 38 32  1  0  0  0  0
 39 43  1  1  0  0  0
 39 40  1  0  0  0  0
 40 37  1  6  0  0  0
 40 38  1  0  0  0  0
 43 42  2  0  0  0  0
 44 43  1  0  0  0  0
 45 49  1  6  0  0  0
 45 46  1  0  0  0  0
 46 44  1  1  0  0  0
 48 47  1  1  0  0  0
 48 45  1  0  0  0  0
 48 46  1  0  0  0  0
 49 55  1  0  0  0  0
 51 54  1  0  0  0  0
 52 53  1  0  0  0  0
 52 49  1  0  0  0  0
 53 51  1  0  0  0  0
 55 54  1  0  0  0  0
 55 50  2  0  0  0  0
M  END
>  <MODEL>
6

>  <REMARK>
 VINA RESULT:      -6.5      3.811      9.127
  Name = 
  21 active torsions:
  status: ('A' for Active; 'I' for Inactive)
    1  A    between atoms: C_2  and  C_15
    2  A    between atoms: C_2  and  C_37
    3  A    between atoms: C_4  and  N_6
    4  A    between atoms: O_7  and  C_18
    5  A    between atoms: O_7  and  C_20
    6  A    between atoms: CA_9  and  C_41
    7  A    between atoms: C_11  and  S_17
    8  A    between atoms: C_11  and  C_53
    9  A    between atoms: C_15  and  C_53
   10  A    between atoms: C_16  and  O_39
   11  A    between atoms: C_16  and  C_41
   12  A    between atoms: S_17  and  C_35
   13  A    between atoms: C_20  and  C_36
   14  A    between atoms: C_22  and  C_26
   15  A    between atoms: P_23  and  O_25
   16  A    between atoms: P_23  and  O_39
   17  A    between atoms: O_25  and  C_37
   18  A    between atoms: C_29  and  C_41
   19  A    between atoms: C_29  and  C_45
   20  A    between atoms: C_30  and  N_50
   21  A    between atoms: C_42  and  C_43
                            x       y       z     vdW  Elec       q    Type
                         _______ _______ _______ _____ _____    ______ ____

>  <TORSDO>
F 21

$$$$
=
 OpenBabel11062412123D

 55 62  0  0  1  0  0  0  0  0999 V2000
  189.6230  177.6220  143.4990 C   0  0  1  0  0  3  0  0  0  0  0  0
  190.8850  177.3960  144.3420 C   0  0  1  0  0  3  0  0  0  0  0  0
  191.3170  179.6830  143.7600 O   0  0  0  0  0  1  0  0  0  0  0  0
  191.7860  178.5590  144.4420 C   0  0  1  0  0  3  0  0  0  0  0  0
  190.8650  178.2410  145.5500 N   0  0  2  0  0  0  0  0  0  0  0  0
  191.5920  177.4940  146.5720 C   0  0  1  0  0  3  0  0  0  0  0  0
  190.6480  176.9020  147.6090 C   0  0  0  0  0  2  0  0  0  0  0  0
  191.1820  176.0340  146.4960 C   0  0  2  0  0  3  0  0  0  0  0  0
  192.3200  175.1780  147.0290 C   0  0  0  0  0  2  0  0  0  0  0  0
  192.7850  175.7130  148.3730 C   0  0  0  0  0  1  0  0  0  0  0  0
  189.1500  176.3750  142.7220 C   0  0  0  0  0  2  0  0  0  0  0  0
  190.1510  175.8110  141.9220 O   0  0  0  0  0  0  0  0  0  0  0  0
  188.8740  177.7190  140.3580 O   0  0  0  0  0  0  0  0  0  0  0  0
  190.3020  176.8400  140.5770 P   0  0  1  0  0  0  0  0  0  0  0  0
  191.4340  177.8150  140.8230 O   0  0  0  0  0  1  0  0  0  0  0  0
  190.5960  175.8910  139.1640 O   0  0  0  0  0  0  0  0  0  0  0  0
  192.2840  176.2530  137.6550 O   0  0  0  0  0  0  0  0  0  0  0  0
  191.0730  176.4200  137.9610 C   0  0  0  0  0  0  0  0  0  0  0  0
  190.1680  177.1520  137.0120 C   0  0  0  0  0  2  0  0  0  0  0  0
  191.0430  175.9190  135.0070 C   0  0  0  0  0  1  0  0  0  0  0  0
  189.7970  176.3180  135.7800 C   0  0  1  0  0  3  0  0  0  0  0  0
  189.1170  175.0390  136.2490 C   0  0  0  0  0  2  0  0  0  0  0  0
  187.6300  175.0560  136.0530 C   0  0  0  0  0  0  0  0  0  0  0  0
  187.0880  175.9470  135.4170 O   0  0  0  0  0  0  0  0  0  0  0  0
  186.6370  173.7850  136.8450 S   0  0  0  0  0  0  0  0  0  0  0  0
  184.1760  174.2110  137.7710 O   0  0  0  0  0  0  0  0  0  0  0  0
  185.3060  176.1000  137.1080 O   0  0  0  0  0  0  0  0  0  0  0  0
  184.0810  176.5260  137.6210 C   0  0  0  0  0  2  0  0  0  0  0  0
  185.0840  174.7410  136.8460 C   0  0  0  0  0  3  0  0  0  0  0  0
  183.3500  175.2910  138.0720 C   0  0  0  0  0  2  0  0  0  0  0  0
  188.4870  178.1490  144.3790 C   0  0  0  0  0  2  0  0  0  0  0  0
  186.1240  177.1680  144.6800 C   0  0  2  0  0  3  0  0  0  0  0  0
  186.7160  177.5190  146.0280 C   0  0  0  0  0  2  0  0  0  0  0  0
  187.6300  177.0130  144.9330 C   0  0  2  0  0  3  0  0  0  0  0  0
  184.2690  178.7800  141.9930 C   0  0  2  0  0  3  0  0  0  0  0  0
  185.5320  178.0910  142.4630 C   0  0  0  0  0  2  0  0  0  0  0  0
  184.0540  180.1890  143.9670 O   0  0  0  0  0  0  0  0  0  0  0  0
  185.7000  178.4300  143.9400 C   0  0  1  0  0  3  0  0  0  0  0  0
  183.4990  179.1020  143.2670 C   0  0  2  0  0  0  0  0  0  0  0  0
  184.3400  178.8920  144.4580 C   0  0  2  0  0  3  0  0  0  0  0  0
  183.4180  177.7230  140.8430 Cl  0  0  0  0  0  0  0  0  0  0  0  0
  181.5960  178.0550  144.2630 O   0  0  0  0  0  0  0  0  0  0  0  0
  182.0190  178.9380  143.4720 C   0  0  0  0  0  0  0  0  0  0  0  0
  181.1150  179.7030  142.7270 O   0  0  0  0  0  0  0  0  0  0  0  0
  179.3570  178.9660  141.2360 C   0  0  1  0  0  3  0  0  0  0  0  0
  180.8070  179.4120  141.3670 C   0  0  1  0  0  3  0  0  0  0  0  0
  179.3270  181.2850  141.7600 O   0  0  0  0  0  1  0  0  0  0  0  0
  179.7520  180.3660  140.8010 C   0  0  2  0  0  3  0  0  0  0  0  0
  179.2090  178.0630  140.0930 N   0  0  0  0  0  0  0  0  0  0  0  0
  178.9310  176.1410  141.4190 O   0  0  0  0  0  0  0  0  0  0  0  0
  179.8670  176.4950  137.9290 N   0  0  0  0  0  2  0  0  0  0  0  0
  179.1360  178.5270  138.8130 O   0  0  0  0  0  0  0  0  0  0  0  0
  180.1950  177.9130  138.1240 C   0  0  0  0  0  2  0  0  0  0  0  0
  179.8350  175.7940  139.2210 C   0  0  0  0  0  2  0  0  0  0  0  0
  179.2520  176.6460  140.3090 C   0  0  0  0  0  0  0  0  0  0  0  0
  1 11  1  1  0  0  0
  1 31  1  0  0  0  0
  2  1  1  6  0  0  0
  2  4  1  0  0  0  0
  2  5  1  0  0  0  0
  4  3  1  6  0  0  0
  4  5  1  0  0  0  0
  5  6  1  1  0  0  0
  6  7  1  1  0  0  0
  8  6  1  0  0  0  0
  8  9  1  1  0  0  0
  8  7  1  0  0  0  0
  9 10  1  0  0  0  0
 12 11  1  0  0  0  0
 14 13  2  6  0  0  0
 14 15  1  0  0  0  0
 14 12  1  0  0  0  0
 16 14  1  0  0  0  0
 17 18  2  0  0  0  0
 18 16  1  0  0  0  0
 19 18  1  0  0  0  0
 21 20  1  1  0  0  0
 21 22  1  0  0  0  0
 21 19  1  0  0  0  0
 23 22  1  0  0  0  0
 23 25  1  0  0  0  0
 24 23  2  0  0  0  0
 25 29  1  0  0  0  0
 26 30  1  0  0  0  0
 27 28  1  0  0  0  0
 28 30  1  0  0  0  0
 29 27  1  0  0  0  0
 29 26  1  0  0  0  0
 32 34  1  0  0  0  0
 32 33  1  1  0  0  0
 34 31  1  6  0  0  0
 34 33  1  0  0  0  0
 35 41  1  6  0  0  0
 35 36  1  0  0  0  0
 35 39  1  0  0  0  0
 38 36  1  6  0  0  0
 38 40  1  0  0  0  0
 38 32  1  0  0  0  0
 39 43  1  1  0  0  0
 39 37  1  0  0  0  0
 39 40  1  0  0  0  0
 40 37  1  6  0  0  0
 43 42  2  0  0  0  0
 44 43  1  0  0  0  0
 45 49  1  6  0  0  0
 45 46  1  0  0  0  0
 46 44  1  1  0  0  0
 48 45  1  0  0  0  0
 48 46  1  0  0  0  0
 48 47  1  1  0  0  0
 49 55  1  0  0  0  0
 51 53  1  0  0  0  0
 51 54  1  0  0  0  0
 52 49  1  0  0  0  0
 53 52  1  0  0  0  0
 54 55  1  0  0  0  0
 55 50  2  0  0  0  0
M  END
>  <MODEL>
7

>  <REMARK>
 VINA RESULT:      -6.5      3.606      7.784
  Name = 
  21 active torsions:
  status: ('A' for Active; 'I' for Inactive)
    1  A    between atoms: C_2  and  C_15
    2  A    between atoms: C_2  and  C_37
    3  A    between atoms: C_4  and  N_6
    4  A    between atoms: O_7  and  C_18
    5  A    between atoms: O_7  and  C_20
    6  A    between atoms: CA_9  and  C_41
    7  A    between atoms: C_11  and  S_17
    8  A    between atoms: C_11  and  C_53
    9  A    between atoms: C_15  and  C_53
   10  A    between atoms: C_16  and  O_39
   11  A    between atoms: C_16  and  C_41
   12  A    between atoms: S_17  and  C_35
   13  A    between atoms: C_20  and  C_36
   14  A    between atoms: C_22  and  C_26
   15  A    between atoms: P_23  and  O_25
   16  A    between atoms: P_23  and  O_39
   17  A    between atoms: O_25  and  C_37
   18  A    between atoms: C_29  and  C_41
   19  A    between atoms: C_29  and  C_45
   20  A    between atoms: C_30  and  N_50
   21  A    between atoms: C_42  and  C_43
                            x       y       z     vdW  Elec       q    Type
                         _______ _______ _______ _____ _____    ______ ____

>  <TORSDO>
F 21

$$$$
=
 OpenBabel11062412123D

 55 62  0  0  1  0  0  0  0  0999 V2000
  188.3530  178.1270  141.4130 C   0  0  1  0  0  3  0  0  0  0  0  0
  188.4320  177.1520  142.5950 C   0  0  1  0  0  3  0  0  0  0  0  0
  190.7930  177.4400  142.2850 O   0  0  0  0  0  1  0  0  0  0  0  0
  189.7970  176.8000  143.0250 C   0  0  1  0  0  3  0  0  0  0  0  0
  189.0230  177.8080  143.7750 N   0  0  2  0  0  0  0  0  0  0  0  0
  188.4110  177.1690  144.9360 C   0  0  1  0  0  3  0  0  0  0  0  0
  189.2140  177.4260  146.2030 C   0  0  0  0  0  2  0  0  0  0  0  0
  187.9800  178.2460  145.9160 C   0  0  2  0  0  3  0  0  0  0  0  0
  186.8210  177.7160  146.7460 C   0  0  0  0  0  2  0  0  0  0  0  0
  185.6210  177.4530  145.8510 C   0  0  0  0  0  1  0  0  0  0  0  0
  188.6860  177.4920  140.0460 C   0  0  0  0  0  2  0  0  0  0  0  0
  189.9140  177.9150  139.5250 O   0  0  0  0  0  0  0  0  0  0  0  0
  191.8560  176.6130  138.0250 O   0  0  0  0  0  0  0  0  0  0  0  0
  190.2020  176.9340  138.1660 P   0  0  1  0  0  0  0  0  0  0  0  0
  189.4700  175.6210  138.3380 O   0  0  0  0  0  1  0  0  0  0  0  0
  189.6720  177.7610  136.7450 O   0  0  0  0  0  0  0  0  0  0  0  0
  188.9240  179.8380  137.3650 O   0  0  0  0  0  0  0  0  0  0  0  0
  188.6960  178.7620  136.7500 C   0  0  0  0  0  0  0  0  0  0  0  0
  187.3990  178.5970  136.0110 C   0  0  0  0  0  2  0  0  0  0  0  0
  185.9070  177.5970  137.7670 C   0  0  0  0  0  1  0  0  0  0  0  0
  186.6200  177.3500  136.4480 C   0  0  1  0  0  3  0  0  0  0  0  0
  185.5570  177.0530  135.4000 C   0  0  0  0  0  2  0  0  0  0  0  0
  184.6650  175.9050  135.7740 C   0  0  0  0  0  0  0  0  0  0  0  0
  183.4520  175.9870  135.6590 O   0  0  0  0  0  0  0  0  0  0  0  0
  185.4040  174.4260  136.4770 S   0  0  0  0  0  0  0  0  0  0  0  0
  185.1080  172.2910  134.9130 O   0  0  0  0  0  0  0  0  0  0  0  0
  183.4210  172.6200  136.4390 O   0  0  0  0  0  0  0  0  0  0  0  0
  183.1280  171.4320  135.7690 C   0  0  0  0  0  2  0  0  0  0  0  0
  184.3370  173.2480  135.5840 C   0  0  0  0  0  3  0  0  0  0  0  0
  184.2430  171.2080  134.7840 C   0  0  0  0  0  2  0  0  0  0  0  0
  186.9720  178.7830  141.3600 C   0  0  0  0  0  2  0  0  0  0  0  0
  184.6460  178.1430  142.2640 C   0  0  2  0  0  3  0  0  0  0  0  0
  185.0780  179.4750  142.8380 C   0  0  0  0  0  2  0  0  0  0  0  0
  186.1250  178.4150  142.5750 C   0  0  2  0  0  3  0  0  0  0  0  0
  182.3560  177.3970  139.5330 C   0  0  2  0  0  3  0  0  0  0  0  0
  183.5680  177.0060  140.3500 C   0  0  0  0  0  2  0  0  0  0  0  0
  182.9930  179.7370  139.3250 O   0  0  0  0  0  0  0  0  0  0  0  0
  184.2330  178.2990  140.8070 C   0  0  1  0  0  3  0  0  0  0  0  0
  182.0770  178.8460  139.9120 C   0  0  2  0  0  0  0  0  0  0  0  0
  183.1950  179.4120  140.6870 C   0  0  2  0  0  3  0  0  0  0  0  0
  181.0300  176.2600  139.8700 Cl  0  0  0  0  0  0  0  0  0  0  0  0
  180.5500  180.1550  141.2020 O   0  0  0  0  0  0  0  0  0  0  0  0
  180.7250  179.4480  140.1760 C   0  0  0  0  0  0  0  0  0  0  0  0
  179.6470  179.1560  139.3320 O   0  0  0  0  0  0  0  0  0  0  0  0
  180.2970  180.6500  137.5420 C   0  0  1  0  0  3  0  0  0  0  0  0
  179.1520  180.0900  138.3760 C   0  0  1  0  0  3  0  0  0  0  0  0
  180.0210  178.3750  136.9060 O   0  0  0  0  0  1  0  0  0  0  0  0
  179.3700  179.6090  136.9390 C   0  0  2  0  0  3  0  0  0  0  0  0
  179.9690  182.0000  137.0810 N   0  0  0  0  0  0  0  0  0  0  0  0
  180.2570  181.4860  134.8050 O   0  0  0  0  0  0  0  0  0  0  0  0
  180.2320  184.6830  136.5250 N   0  0  0  0  0  2  0  0  0  0  0  0
  179.5220  182.9650  137.9350 O   0  0  0  0  0  0  0  0  0  0  0  0
  180.4340  184.0270  137.8230 C   0  0  0  0  0  2  0  0  0  0  0  0
  180.6080  183.7780  135.4280 C   0  0  0  0  0  2  0  0  0  0  0  0
  180.2260  182.3570  135.7160 C   0  0  0  0  0  0  0  0  0  0  0  0
  1 11  1  6  0  0  0
  2  1  1  6  0  0  0
  2  4  1  0  0  0  0
  2  5  1  0  0  0  0
  4  3  1  6  0  0  0
  4  5  1  0  0  0  0
  5  6  1  1  0  0  0
  6  8  1  0  0  0  0
  6  7  1  1  0  0  0
  8  7  1  0  0  0  0
  8  9  1  1  0  0  0
 10  9  1  0  0  0  0
 12 11  1  0  0  0  0
 14 13  2  6  0  0  0
 14 15  1  0  0  0  0
 14 12  1  0  0  0  0
 16 18  1  0  0  0  0
 16 14  1  0  0  0  0
 18 17  2  0  0  0  0
 19 21  1  0  0  0  0
 19 18  1  0  0  0  0
 21 20  1  1  0  0  0
 22 23  1  0  0  0  0
 22 21  1  0  0  0  0
 23 25  1  0  0  0  0
 24 23  2  0  0  0  0
 26 29  1  0  0  0  0
 28 27  1  0  0  0  0
 29 27  1  0  0  0  0
 29 25  1  0  0  0  0
 30 26  1  0  0  0  0
 30 28  1  0  0  0  0
 31  1  1  0  0  0  0
 32 34  1  0  0  0  0
 32 33  1  1  0  0  0
 34 31  1  6  0  0  0
 34 33  1  0  0  0  0
 35 41  1  1  0  0  0
 35 39  1  0  0  0  0
 35 36  1  0  0  0  0
 37 39  1  0  0  0  0
 38 36  1  1  0  0  0
 38 32  1  0  0  0  0
 39 43  1  1  0  0  0
 39 40  1  0  0  0  0
 40 37  1  6  0  0  0
 40 38  1  0  0  0  0
 43 42  2  0  0  0  0
 44 43  1  0  0  0  0
 45 49  1  6  0  0  0
 45 46  1  0  0  0  0
 46 44  1  1  0  0  0
 48 47  1  1  0  0  0
 48 45  1  0  0  0  0
 48 46  1  0  0  0  0
 49 52  1  0  0  0  0
 50 55  2  0  0  0  0
 51 53  1  0  0  0  0
 53 52  1  0  0  0  0
 54 55  1  0  0  0  0
 54 51  1  0  0  0  0
 55 49  1  0  0  0  0
M  END
>  <MODEL>
8

>  <REMARK>
 VINA RESULT:      -6.1      3.669      8.411
  Name = 
  21 active torsions:
  status: ('A' for Active; 'I' for Inactive)
    1  A    between atoms: C_2  and  C_15
    2  A    between atoms: C_2  and  C_37
    3  A    between atoms: C_4  and  N_6
    4  A    between atoms: O_7  and  C_18
    5  A    between atoms: O_7  and  C_20
    6  A    between atoms: CA_9  and  C_41
    7  A    between atoms: C_11  and  S_17
    8  A    between atoms: C_11  and  C_53
    9  A    between atoms: C_15  and  C_53
   10  A    between atoms: C_16  and  O_39
   11  A    between atoms: C_16  and  C_41
   12  A    between atoms: S_17  and  C_35
   13  A    between atoms: C_20  and  C_36
   14  A    between atoms: C_22  and  C_26
   15  A    between atoms: P_23  and  O_25
   16  A    between atoms: P_23  and  O_39
   17  A    between atoms: O_25  and  C_37
   18  A    between atoms: C_29  and  C_41
   19  A    between atoms: C_29  and  C_45
   20  A    between atoms: C_30  and  N_50
   21  A    between atoms: C_42  and  C_43
                            x       y       z     vdW  Elec       q    Type
                         _______ _______ _______ _____ _____    ______ ____

>  <TORSDO>
F 21

$$$$
=
 OpenBabel11062412123D

 55 62  0  0  1  0  0  0  0  0999 V2000
  189.8390  177.1650  141.7690 C   0  0  1  0  0  3  0  0  0  0  0  0
  190.1360  176.5440  143.1400 C   0  0  1  0  0  3  0  0  0  0  0  0
  192.1030  177.9090  142.9960 O   0  0  0  0  0  1  0  0  0  0  0  0
  191.3990  176.9790  143.7640 C   0  0  1  0  0  3  0  0  0  0  0  0
  190.1180  177.5730  144.1950 N   0  0  2  0  0  0  0  0  0  0  0  0
  189.6660  176.8970  145.4070 C   0  0  1  0  0  3  0  0  0  0  0  0
  190.2960  177.5020  146.6530 C   0  0  0  0  0  2  0  0  0  0  0  0
  188.8920  177.8870  146.2590 C   0  0  2  0  0  3  0  0  0  0  0  0
  187.9000  177.1200  147.1200 C   0  0  0  0  0  2  0  0  0  0  0  0
  187.9140  177.6680  148.5380 C   0  0  0  0  0  1  0  0  0  0  0  0
  190.4360  176.3840  140.5790 C   0  0  0  0  0  2  0  0  0  0  0  0
  191.2280  177.1770  139.7390 O   0  0  0  0  0  0  0  0  0  0  0  0
  189.7180  178.2170  137.6520 O   0  0  0  0  0  1  0  0  0  0  0  0
  190.6500  176.9010  138.1640 P   0  0  1  0  0  0  0  0  0  0  0  0
  191.8260  176.7500  137.2240 O   0  0  0  0  0  0  0  0  0  0  0  0
  189.6630  175.4840  138.1590 O   0  0  0  0  0  0  0  0  0  0  0  0
  190.4020  173.4660  137.3580 O   0  0  0  0  0  0  0  0  0  0  0  0
  189.7180  174.5050  137.1620 C   0  0  0  0  0  0  0  0  0  0  0  0
  188.9520  174.6510  135.8780 C   0  0  0  0  0  2  0  0  0  0  0  0
  187.7780  172.4350  136.0150 C   0  0  0  0  0  1  0  0  0  0  0  0
  187.5940  173.9400  135.9100 C   0  0  1  0  0  3  0  0  0  0  0  0
  186.8390  174.3980  137.1500 C   0  0  0  0  0  2  0  0  0  0  0  0
  185.5290  173.6900  137.3370 C   0  0  0  0  0  0  0  0  0  0  0  0
  185.3210  172.9990  138.3230 O   0  0  0  0  0  0  0  0  0  0  0  0
  184.2890  173.8040  136.0420 S   0  0  0  0  0  0  0  0  0  0  0  0
  182.2930  174.4680  137.6770 O   0  0  0  0  0  0  0  0  0  0  0  0
  184.0530  175.9470  137.6380 O   0  0  0  0  0  0  0  0  0  0  0  0
  183.1510  176.4240  138.5900 C   0  0  0  0  0  2  0  0  0  0  0  0
  183.2720  175.0690  136.8750 C   0  0  0  0  0  3  0  0  0  0  0  0
  182.0090  175.4440  138.6280 C   0  0  0  0  0  2  0  0  0  0  0  0
  188.3300  177.3300  141.5790 C   0  0  0  0  0  2  0  0  0  0  0  0
  186.5250  179.1480  141.3030 C   0  0  2  0  0  3  0  0  0  0  0  0
  186.9420  178.6190  139.9470 C   0  0  0  0  0  2  0  0  0  0  0  0
  187.9770  178.7160  141.0470 C   0  0  2  0  0  3  0  0  0  0  0  0
  184.5890  178.1570  144.2230 C   0  0  2  0  0  3  0  0  0  0  0  0
  185.9270  178.2260  143.5190 C   0  0  0  0  0  2  0  0  0  0  0  0
  183.3560  177.4260  142.2560 O   0  0  0  0  0  0  0  0  0  0  0  0
  185.6470  178.1330  142.0230 C   0  0  1  0  0  3  0  0  0  0  0  0
  183.5610  178.4920  143.1510 C   0  0  2  0  0  0  0  0  0  0  0  0
  184.1780  178.4900  141.8120 C   0  0  2  0  0  3  0  0  0  0  0  0
  184.6060  179.2550  145.6230 Cl  0  0  0  0  0  0  0  0  0  0  0  0
  182.4970  180.5020  143.8850 O   0  0  0  0  0  0  0  0  0  0  0  0
  182.3640  179.3850  143.3200 C   0  0  0  0  0  0  0  0  0  0  0  0
  181.0950  178.9430  142.9270 O   0  0  0  0  0  0  0  0  0  0  0  0
  180.6170  178.8180  140.5580 C   0  0  1  0  0  3  0  0  0  0  0  0
  180.3690  179.5570  141.8670 C   0  0  1  0  0  3  0  0  0  0  0  0
  179.3050  177.3850  141.9290 O   0  0  0  0  0  1  0  0  0  0  0  0
  179.3000  178.6240  141.2890 C   0  0  2  0  0  3  0  0  0  0  0  0
  180.4800  179.7380  139.4270 N   0  0  0  0  0  0  0  0  0  0  0  0
  179.8490  178.0580  137.9070 O   0  0  0  0  0  0  0  0  0  0  0  0
  181.1630  181.3950  137.3390 N   0  0  0  0  0  2  0  0  0  0  0  0
  180.5890  181.0890  139.5790 O   0  0  0  0  0  0  0  0  0  0  0  0
  181.6320  181.4860  138.7270 C   0  0  0  0  0  2  0  0  0  0  0  0
  180.9210  179.9920  136.9690 C   0  0  0  0  0  2  0  0  0  0  0  0
  180.3360  179.2050  138.1030 C   0  0  0  0  0  0  0  0  0  0  0  0
  1 11  1  6  0  0  0
  2  1  1  6  0  0  0
  2  4  1  0  0  0  0
  2  5  1  0  0  0  0
  4  3  1  6  0  0  0
  4  5  1  0  0  0  0
  5  6  1  1  0  0  0
  6  8  1  0  0  0  0
  6  7  1  1  0  0  0
  8  7  1  0  0  0  0
  8  9  1  1  0  0  0
  9 10  1  0  0  0  0
 12 11  1  0  0  0  0
 13 14  1  0  0  0  0
 14 15  2  6  0  0  0
 14 12  1  0  0  0  0
 16 14  1  0  0  0  0
 18 17  2  0  0  0  0
 18 16  1  0  0  0  0
 19 21  1  0  0  0  0
 19 18  1  0  0  0  0
 21 20  1  1  0  0  0
 21 22  1  0  0  0  0
 22 23  1  0  0  0  0
 23 24  2  0  0  0  0
 25 29  1  0  0  0  0
 25 23  1  0  0  0  0
 26 30  1  0  0  0  0
 27 28  1  0  0  0  0
 28 30  1  0  0  0  0
 29 27  1  0  0  0  0
 29 26  1  0  0  0  0
 31  1  1  0  0  0  0
 32 33  1  6  0  0  0
 32 38  1  0  0  0  0
 33 34  1  0  0  0  0
 34 32  1  0  0  0  0
 34 31  1  1  0  0  0
 35 41  1  1  0  0  0
 36 35  1  0  0  0  0
 37 39  1  0  0  0  0
 38 36  1  1  0  0  0
 39 43  1  1  0  0  0
 39 35  1  0  0  0  0
 40 38  1  0  0  0  0
 40 37  1  6  0  0  0
 40 39  1  0  0  0  0
 43 42  2  0  0  0  0
 44 43  1  0  0  0  0
 45 49  1  6  0  0  0
 45 48  1  0  0  0  0
 45 46  1  0  0  0  0
 46 44  1  1  0  0  0
 48 46  1  0  0  0  0
 48 47  1  1  0  0  0
 49 52  1  0  0  0  0
 50 55  2  0  0  0  0
 51 53  1  0  0  0  0
 53 52  1  0  0  0  0
 54 51  1  0  0  0  0
 54 55  1  0  0  0  0
 55 49  1  0  0  0  0
M  END
>  <MODEL>
9

>  <REMARK>
 VINA RESULT:      -6.1      3.390      7.762
  Name = 
  21 active torsions:
  status: ('A' for Active; 'I' for Inactive)
    1  A    between atoms: C_2  and  C_15
    2  A    between atoms: C_2  and  C_37
    3  A    between atoms: C_4  and  N_6
    4  A    between atoms: O_7  and  C_18
    5  A    between atoms: O_7  and  C_20
    6  A    between atoms: CA_9  and  C_41
    7  A    between atoms: C_11  and  S_17
    8  A    between atoms: C_11  and  C_53
    9  A    between atoms: C_15  and  C_53
   10  A    between atoms: C_16  and  O_39
   11  A    between atoms: C_16  and  C_41
   12  A    between atoms: S_17  and  C_35
   13  A    between atoms: C_20  and  C_36
   14  A    between atoms: C_22  and  C_26
   15  A    between atoms: P_23  and  O_25
   16  A    between atoms: P_23  and  O_39
   17  A    between atoms: O_25  and  C_37
   18  A    between atoms: C_29  and  C_41
   19  A    between atoms: C_29  and  C_45
   20  A    between atoms: C_30  and  N_50
   21  A    between atoms: C_42  and  C_43
                            x       y       z     vdW  Elec       q    Type
                         _______ _______ _______ _____ _____    ______ ____

>  <TORSDO>
F 21

$$$$
