=
 OpenBabel11062416053D

 43 48  0  0  1  0  0  0  0  0999 V2000
  179.5410  177.9910  142.3780 N   0  0  0  0  0  0  0  0  0  0  0  0
  180.7110  178.0740  144.2190 C   0  0  0  0  0  3  0  0  0  0  0  0
  180.5370  178.8720  142.1780 C   0  0  0  0  0  0  0  0  0  0  0  0
  181.3040  178.9450  143.3250 C   0  0  0  0  0  0  0  0  0  0  0  0
  179.6560  177.5020  143.6040 N   0  0  0  0  0  2  0  0  0  0  0  0
  181.7240  180.2760  138.8500 C   0  0  0  0  0  3  0  0  0  0  0  0
  179.7410  180.7250  140.7560 C   0  0  0  0  0  3  0  0  0  0  0  0
  180.8180  181.3240  138.6770 C   0  0  0  0  0  0  0  0  0  0  0  0
  181.6650  179.4520  139.9850 C   0  0  0  0  0  0  0  0  0  0  0  0
  180.6640  179.6900  140.9550 C   0  0  0  0  0  0  0  0  0  0  0  0
  179.8170  181.5400  139.6240 C   0  0  0  0  0  3  0  0  0  0  0  0
  182.5330  178.3130  140.1110 N   0  0  0  0  0  2  0  0  0  0  0  0
  183.5410  177.8730  139.1890 C   0  0  0  0  0  0  0  0  0  0  0  0
  183.3100  176.8370  138.2740 C   0  0  0  0  0  3  0  0  0  0  0  0
  185.5110  177.1210  137.3940 N   0  0  0  0  0  0  0  0  0  0  0  0
  184.3180  176.4700  137.3790 C   0  0  0  0  0  3  0  0  0  0  0  0
  185.7560  178.1380  138.2650 C   0  0  0  0  0  3  0  0  0  0  0  0
  184.7730  178.5310  139.1740 C   0  0  0  0  0  3  0  0  0  0  0  0
  180.8910  182.1820  137.4620 C   0  0  0  0  0  2  0  0  0  0  0  0
  180.2550  183.5330  137.7360 C   0  0  0  0  0  2  0  0  0  0  0  0
  182.3920  184.5910  137.6100 O   0  0  0  0  0  1  0  0  0  0  0  0
  181.0880  184.6400  137.1150 C   0  0  0  0  0  2  0  0  0  0  0  0
  182.3840  179.9340  143.6350 C   0  0  0  0  0  2  0  0  0  0  0  0
  183.6300  179.2570  144.1000 C   0  0  0  0  0  0  0  0  0  0  0  0
  185.9520  177.9510  145.7410 C   0  0  0  0  0  3  0  0  0  0  0  0
  183.7900  179.0860  145.4800 O   0  0  0  0  0  0  0  0  0  0  0  0
  186.4200  177.8020  144.3620 C   0  0  0  0  0  0  0  0  0  0  0  0
  184.4830  178.8730  143.1550 C   0  0  0  0  0  3  0  0  0  0  0  0
  184.8330  178.4990  146.2030 C   0  0  0  0  0  3  0  0  0  0  0  0
  185.7750  178.1970  143.2710 C   0  0  0  0  0  3  0  0  0  0  0  0
  187.7310  177.1210  144.1700 C   0  0  0  0  0  2  0  0  0  0  0  0
  189.2510  177.6940  146.6030 C   0  0  0  0  0  2  0  0  0  0  0  0
  191.1550  176.5170  143.4240 C   0  0  0  0  0  2  0  0  0  0  0  0
  191.9590  176.0810  145.9700 S   0  0  0  0  0  0  0  0  0  0  0  0
  190.5730  176.4120  144.8290 C   0  0  1  0  0  3  0  0  0  0  0  0
  188.8220  178.1000  144.2040 N   0  0  0  0  0  0  0  0  0  0  0  0
  190.0800  176.9120  142.4200 C   0  0  1  0  0  3  0  0  0  0  0  0
  190.3090  177.4410  147.6620 C   0  0  0  0  0  2  0  0  0  0  0  0
  190.9210  176.0680  147.4600 C   0  0  0  0  0  2  0  0  0  0  0  0
  189.8530  177.7290  145.1940 C   0  0  1  0  0  3  0  0  0  0  0  0
  189.4180  178.2170  142.8670 C   0  0  0  0  0  2  0  0  0  0  0  0
  190.6960  177.1060  141.0470 C   0  0  0  0  0  2  0  0  0  0  0  0
  189.7850  176.7330  140.0570 O   0  0  0  0  0  1  0  0  0  0  0  0
  1  5  1  0  0  0  0
  3  1  2  0  0  0  0
  3  4  1  0  0  0  0
  4 23  1  0  0  0  0
  4  2  2  0  0  0  0
  5  2  1  0  0  0  0
  6  9  1  0  0  0  0
  7 10  1  0  0  0  0
  8  6  2  0  0  0  0
  8 11  1  0  0  0  0
  9 12  1  0  0  0  0
  9 10  2  0  0  0  0
 10  3  1  0  0  0  0
 11  7  2  0  0  0  0
 13 12  1  0  0  0  0
 14 13  2  0  0  0  0
 15 17  1  0  0  0  0
 16 15  2  0  0  0  0
 16 14  1  0  0  0  0
 17 18  2  0  0  0  0
 18 13  1  0  0  0  0
 19 20  1  0  0  0  0
 19  8  1  0  0  0  0
 22 21  1  0  0  0  0
 22 20  1  0  0  0  0
 23 24  1  0  0  0  0
 24 26  1  0  0  0  0
 25 29  2  0  0  0  0
 26 29  1  0  0  0  0
 27 25  1  0  0  0  0
 28 30  1  0  0  0  0
 28 24  2  0  0  0  0
 30 27  2  0  0  0  0
 31 36  1  0  0  0  0
 31 27  1  0  0  0  0
 32 38  1  0  0  0  0
 34 39  1  0  0  0  0
 35 33  1  6  0  0  0
 35 40  1  0  0  0  0
 35 34  1  0  0  0  0
 36 40  1  0  0  0  0
 37 42  1  6  0  0  0
 37 41  1  0  0  0  0
 37 33  1  0  0  0  0
 39 38  1  0  0  0  0
 40 32  1  1  0  0  0
 41 36  1  0  0  0  0
 43 42  1  0  0  0  0
M  END
>  <MODEL>
1

>  <REMARK>
 VINA RESULT:      -8.9      0.000      0.000
  Name = 
  11 active torsions:
  status: ('A' for Active; 'I' for Inactive)
    1  A    between atoms: C_1  and  C_30
    2  A    between atoms: N_2  and  C_14
    3  A    between atoms: N_2  and  C_38
    4  A    between atoms: C_3  and  C_16
    5  A    between atoms: C_3  and  C_27
    6  A    between atoms: C_8  and  C_19
    7  A    between atoms: C_8  and  C_24
    8  A    between atoms: C_21  and  C_24
    9  A    between atoms: N_23  and  C_33
   10  A    between atoms: C_25  and  C_39
   11  A    between atoms: C_28  and  C_33
                            x       y       z     vdW  Elec       q    Type
                         _______ _______ _______ _____ _____    ______ ____

>  <TORSDO>
F 11

$$$$
=
 OpenBabel11062416053D

 43 48  0  0  1  0  0  0  0  0999 V2000
  179.8360  176.8770  140.9700 N   0  0  0  0  0  0  0  0  0  0  0  0
  180.0000  178.2020  142.6970 C   0  0  0  0  0  3  0  0  0  0  0  0
  180.9940  177.5500  140.8470 C   0  0  0  0  0  0  0  0  0  0  0  0
  181.1330  178.3970  141.9310 C   0  0  0  0  0  0  0  0  0  0  0  0
  179.2460  177.2620  142.0920 N   0  0  0  0  0  2  0  0  0  0  0  0
  182.7520  178.2670  137.5530 C   0  0  0  0  0  3  0  0  0  0  0  0
  182.7180  176.3370  139.5640 C   0  0  0  0  0  3  0  0  0  0  0  0
  183.5690  177.1380  137.4500 C   0  0  0  0  0  0  0  0  0  0  0  0
  181.8930  178.4350  138.6510 C   0  0  0  0  0  0  0  0  0  0  0  0
  181.8700  177.4500  139.6640 C   0  0  0  0  0  0  0  0  0  0  0  0
  183.5620  176.1800  138.4630 C   0  0  0  0  0  3  0  0  0  0  0  0
  181.1290  179.6430  138.8060 N   0  0  0  0  0  2  0  0  0  0  0  0
  180.9130  180.6750  137.8310 C   0  0  0  0  0  0  0  0  0  0  0  0
  180.4030  180.3970  136.5550 C   0  0  0  0  0  3  0  0  0  0  0  0
  180.4590  182.7240  136.0240 N   0  0  0  0  0  0  0  0  0  0  0  0
  180.1840  181.4430  135.6580 C   0  0  0  0  0  3  0  0  0  0  0  0
  180.9450  183.0210  137.2600 C   0  0  0  0  0  3  0  0  0  0  0  0
  181.1770  182.0000  138.1840 C   0  0  0  0  0  3  0  0  0  0  0  0
  184.4800  176.9820  136.2820 C   0  0  0  0  0  2  0  0  0  0  0  0
  185.9000  176.7320  136.7570 C   0  0  0  0  0  2  0  0  0  0  0  0
  186.6630  178.8140  137.6430 O   0  0  0  0  0  1  0  0  0  0  0  0
  186.7520  177.9690  136.5360 C   0  0  0  0  0  2  0  0  0  0  0  0
  182.1520  179.4790  142.1150 C   0  0  0  0  0  2  0  0  0  0  0  0
  183.3460  178.9840  142.8600 C   0  0  0  0  0  0  0  0  0  0  0  0
  185.4730  178.1810  145.0090 C   0  0  0  0  0  3  0  0  0  0  0  0
  183.3300  179.1110  144.2540 O   0  0  0  0  0  0  0  0  0  0  0  0
  186.1210  177.7770  143.7610 C   0  0  0  0  0  0  0  0  0  0  0  0
  184.3260  178.4620  142.1280 C   0  0  0  0  0  3  0  0  0  0  0  0
  184.2870  178.7470  145.2050 C   0  0  0  0  0  3  0  0  0  0  0  0
  185.6120  177.9000  142.5410 C   0  0  0  0  0  3  0  0  0  0  0  0
  187.4660  177.1460  143.8780 C   0  0  0  0  0  2  0  0  0  0  0  0
  188.8240  177.9220  146.3500 C   0  0  0  0  0  2  0  0  0  0  0  0
  190.9490  176.6670  143.3460 C   0  0  0  0  0  2  0  0  0  0  0  0
  191.6320  176.4070  145.9500 S   0  0  0  0  0  0  0  0  0  0  0  0
  190.2970  176.6100  144.7220 C   0  0  1  0  0  3  0  0  0  0  0  0
  188.5090  178.1770  143.9130 N   0  0  0  0  0  0  0  0  0  0  0  0
  189.9140  176.9560  142.2660 C   0  0  1  0  0  3  0  0  0  0  0  0
  189.8340  177.7770  147.4760 C   0  0  0  0  0  2  0  0  0  0  0  0
  190.5160  176.4260  147.3830 C   0  0  0  0  0  2  0  0  0  0  0  0
  189.5000  177.9090  144.9750 C   0  0  1  0  0  3  0  0  0  0  0  0
  189.1710  178.2490  142.6050 C   0  0  0  0  0  2  0  0  0  0  0  0
  190.5940  177.1040  140.9180 C   0  0  0  0  0  2  0  0  0  0  0  0
  191.9200  177.5030  141.0930 O   0  0  0  0  0  1  0  0  0  0  0  0
  1  5  1  0  0  0  0
  3  1  2  0  0  0  0
  3  4  1  0  0  0  0
  4 23  1  0  0  0  0
  4  2  2  0  0  0  0
  5  2  1  0  0  0  0
  6  9  1  0  0  0  0
  7 10  1  0  0  0  0
  8  6  2  0  0  0  0
  8 11  1  0  0  0  0
  9 12  1  0  0  0  0
  9 10  2  0  0  0  0
 10  3  1  0  0  0  0
 11  7  2  0  0  0  0
 13 18  1  0  0  0  0
 13 12  1  0  0  0  0
 14 13  2  0  0  0  0
 15 17  1  0  0  0  0
 16 15  2  0  0  0  0
 16 14  1  0  0  0  0
 17 18  2  0  0  0  0
 19 20  1  0  0  0  0
 19  8  1  0  0  0  0
 22 20  1  0  0  0  0
 22 21  1  0  0  0  0
 23 24  1  0  0  0  0
 24 26  1  0  0  0  0
 25 29  2  0  0  0  0
 26 29  1  0  0  0  0
 27 31  1  0  0  0  0
 27 25  1  0  0  0  0
 28 30  1  0  0  0  0
 28 24  2  0  0  0  0
 30 27  2  0  0  0  0
 31 36  1  0  0  0  0
 32 38  1  0  0  0  0
 34 39  1  0  0  0  0
 35 33  1  6  0  0  0
 35 40  1  0  0  0  0
 35 34  1  0  0  0  0
 36 40  1  0  0  0  0
 37 42  1  6  0  0  0
 37 41  1  0  0  0  0
 37 33  1  0  0  0  0
 39 38  1  0  0  0  0
 40 32  1  1  0  0  0
 41 36  1  0  0  0  0
 42 43  1  0  0  0  0
M  END
>  <MODEL>
2

>  <REMARK>
 VINA RESULT:      -8.1      1.885      3.810
  Name = 
  11 active torsions:
  status: ('A' for Active; 'I' for Inactive)
    1  A    between atoms: C_1  and  C_30
    2  A    between atoms: N_2  and  C_14
    3  A    between atoms: N_2  and  C_38
    4  A    between atoms: C_3  and  C_16
    5  A    between atoms: C_3  and  C_27
    6  A    between atoms: C_8  and  C_19
    7  A    between atoms: C_8  and  C_24
    8  A    between atoms: C_21  and  C_24
    9  A    between atoms: N_23  and  C_33
   10  A    between atoms: C_25  and  C_39
   11  A    between atoms: C_28  and  C_33
                            x       y       z     vdW  Elec       q    Type
                         _______ _______ _______ _____ _____    ______ ____

>  <TORSDO>
F 11

$$$$
=
 OpenBabel11062416053D

 43 48  0  0  1  0  0  0  0  0999 V2000
  190.6100  177.3470  141.3350 N   0  0  0  0  0  0  0  0  0  0  0  0
  190.9380  177.5230  139.1840 C   0  0  0  0  0  3  0  0  0  0  0  0
  189.4130  177.5740  140.7670 C   0  0  2  0  0  3  0  0  0  0  0  0
  189.5830  177.6840  139.4000 C   0  0  0  0  0  0  0  0  0  0  0  0
  191.5250  177.3040  140.3780 N   0  0  0  0  0  0  0  0  0  0  0  0
  186.7560  177.4430  143.4840 C   0  0  0  0  0  3  0  0  0  0  0  0
  187.1850  178.6120  140.9900 C   0  0  0  0  0  3  0  0  0  0  0  0
  185.7660  178.2440  142.9100 C   0  0  0  0  0  0  0  0  0  0  0  0
  187.9630  177.1990  142.8100 C   0  0  0  0  0  0  0  0  0  0  0  0
  188.1740  177.7840  141.5420 C   0  0  0  0  0  0  0  0  0  0  0  0
  185.9870  178.8410  141.6690 C   0  0  0  0  0  3  0  0  0  0  0  0
  189.0200  176.4590  143.4450 N   0  0  0  0  0  2  0  0  0  0  0  0
  189.6200  176.7100  144.7240 C   0  0  0  0  0  0  0  0  0  0  0  0
  188.8590  177.0750  145.8440 C   0  0  0  0  0  3  0  0  0  0  0  0
  190.8390  177.1160  147.1780 N   0  0  0  0  0  0  0  0  0  0  0  0
  189.4930  177.2780  147.0710 C   0  0  0  0  0  3  0  0  0  0  0  0
  191.5980  176.7520  146.1090 C   0  0  0  0  0  3  0  0  0  0  0  0
  190.9990  176.5410  144.8660 C   0  0  0  0  0  3  0  0  0  0  0  0
  184.4950  178.4990  143.6440 C   0  0  0  0  0  2  0  0  0  0  0  0
  184.7510  179.4060  144.8350 C   0  0  0  0  0  2  0  0  0  0  0  0
  185.4070  179.0610  147.1040 O   0  0  0  0  0  1  0  0  0  0  0  0
  184.4930  178.6570  146.1290 C   0  0  0  0  0  2  0  0  0  0  0  0
  188.5720  178.1370  138.3920 C   0  0  0  0  0  2  0  0  0  0  0  0
  187.8380  176.9830  137.7960 C   0  0  0  0  0  0  0  0  0  0  0  0
  186.9650  174.2490  136.5500 C   0  0  0  0  0  3  0  0  0  0  0  0
  188.5830  175.8360  137.4950 O   0  0  0  0  0  0  0  0  0  0  0  0
  185.7060  174.9940  136.5860 C   0  0  0  0  0  0  0  0  0  0  0  0
  186.5330  177.1470  137.6040 C   0  0  0  0  0  3  0  0  0  0  0  0
  188.1810  174.6190  136.9390 C   0  0  0  0  0  3  0  0  0  0  0  0
  185.5410  176.2280  137.0450 C   0  0  0  0  0  3  0  0  0  0  0  0
  184.4960  174.2860  136.0820 C   0  0  0  0  0  2  0  0  0  0  0  0
  182.0520  175.3970  137.2440 C   0  0  0  0  0  2  0  0  0  0  0  0
  181.9900  171.7750  135.8310 C   0  0  0  0  0  2  0  0  0  0  0  0
  179.8630  173.4440  135.9280 S   0  0  0  0  0  0  0  0  0  0  0  0
  181.6790  173.2670  135.8790 C   0  0  1  0  0  3  0  0  0  0  0  0
  183.7870  173.6390  137.1920 N   0  0  0  0  0  0  0  0  0  0  0  0
  183.4910  171.5310  135.9090 C   0  0  1  0  0  3  0  0  0  0  0  0
  180.5620  175.6870  137.3120 C   0  0  0  0  0  2  0  0  0  0  0  0
  179.8960  175.2580  136.0190 C   0  0  0  0  0  2  0  0  0  0  0  0
  182.3340  173.8950  137.1290 C   0  0  1  0  0  3  0  0  0  0  0  0
  184.0520  172.1950  137.1680 C   0  0  0  0  0  2  0  0  0  0  0  0
  183.7750  170.0420  135.9570 C   0  0  0  0  0  2  0  0  0  0  0  0
  184.9840  169.7640  135.3180 O   0  0  0  0  0  1  0  0  0  0  0  0
  2  4  2  0  0  0  0
  2  5  1  0  0  0  0
  3  1  1  0  0  0  0
  3 10  1  1  0  0  0
  4  3  1  0  0  0  0
  5  1  2  0  0  0  0
  7 10  2  0  0  0  0
  7 11  1  0  0  0  0
  8  6  1  0  0  0  0
  8 19  1  0  0  0  0
  9 12  1  0  0  0  0
  9  6  2  0  0  0  0
 10  9  1  0  0  0  0
 11  8  2  0  0  0  0
 12 13  1  0  0  0  0
 13 18  2  0  0  0  0
 13 14  1  0  0  0  0
 14 16  2  0  0  0  0
 16 15  1  0  0  0  0
 17 15  2  0  0  0  0
 18 17  1  0  0  0  0
 19 20  1  0  0  0  0
 20 22  1  0  0  0  0
 22 21  1  0  0  0  0
 23  4  1  0  0  0  0
 24 23  1  0  0  0  0
 25 27  1  0  0  0  0
 25 29  2  0  0  0  0
 26 24  1  0  0  0  0
 27 30  2  0  0  0  0
 28 24  2  0  0  0  0
 29 26  1  0  0  0  0
 30 28  1  0  0  0  0
 31 27  1  0  0  0  0
 31 36  1  0  0  0  0
 32 38  1  0  0  0  0
 33 37  1  0  0  0  0
 34 39  1  0  0  0  0
 35 33  1  1  0  0  0
 35 34  1  0  0  0  0
 35 40  1  0  0  0  0
 37 42  1  1  0  0  0
 37 41  1  0  0  0  0
 39 38  1  0  0  0  0
 40 36  1  0  0  0  0
 40 32  1  6  0  0  0
 41 36  1  0  0  0  0
 43 42  1  0  0  0  0
M  END
>  <MODEL>
3

>  <REMARK>
 VINA RESULT:      -7.4      4.903     10.196
  Name = 
  11 active torsions:
  status: ('A' for Active; 'I' for Inactive)
    1  A    between atoms: C_1  and  C_30
    2  A    between atoms: N_2  and  C_14
    3  A    between atoms: N_2  and  C_38
    4  A    between atoms: C_3  and  C_16
    5  A    between atoms: C_3  and  C_27
    6  A    between atoms: C_8  and  C_19
    7  A    between atoms: C_8  and  C_24
    8  A    between atoms: C_21  and  C_24
    9  A    between atoms: N_23  and  C_33
   10  A    between atoms: C_25  and  C_39
   11  A    between atoms: C_28  and  C_33
                            x       y       z     vdW  Elec       q    Type
                         _______ _______ _______ _____ _____    ______ ____

>  <TORSDO>
F 11

$$$$
=
 OpenBabel11062416053D

 43 48  0  0  1  0  0  0  0  0999 V2000
  179.3950  177.3640  141.9090 N   0  0  0  0  0  0  0  0  0  0  0  0
  180.2950  178.8080  143.2770 C   0  0  0  0  0  3  0  0  0  0  0  0
  180.5820  177.7200  141.3870 C   0  0  0  0  0  0  0  0  0  0  0  0
  181.1840  178.6320  142.2340 C   0  0  0  0  0  0  0  0  0  0  0  0
  179.2300  178.0100  143.0530 N   0  0  0  0  0  2  0  0  0  0  0  0
  181.1100  177.3860  137.6370 C   0  0  0  0  0  3  0  0  0  0  0  0
  181.9830  176.2230  140.0150 C   0  0  0  0  0  3  0  0  0  0  0  0
  182.0110  176.3190  137.6010 C   0  0  0  0  0  0  0  0  0  0  0  0
  180.6180  177.8710  138.8590 C   0  0  0  0  0  0  0  0  0  0  0  0
  181.0540  177.2720  140.0620 C   0  0  0  0  0  0  0  0  0  0  0  0
  182.4590  175.7470  138.7920 C   0  0  0  0  0  3  0  0  0  0  0  0
  179.7710  179.0320  138.8990 N   0  0  0  0  0  2  0  0  0  0  0  0
  180.0420  180.3340  138.3580 C   0  0  0  0  0  0  0  0  0  0  0  0
  179.1270  180.9990  137.5300 C   0  0  0  0  0  3  0  0  0  0  0  0
  180.6030  182.8720  137.4040 N   0  0  0  0  0  0  0  0  0  0  0  0
  179.4300  182.2770  137.0570 C   0  0  0  0  0  3  0  0  0  0  0  0
  181.5030  182.2510  138.2140 C   0  0  0  0  0  3  0  0  0  0  0  0
  181.2340  180.9730  138.7060 C   0  0  0  0  0  3  0  0  0  0  0  0
  182.5290  175.8240  136.2950 C   0  0  0  0  0  2  0  0  0  0  0  0
  182.0010  174.4280  136.0180 C   0  0  0  0  0  2  0  0  0  0  0  0
  179.9780  173.3100  135.4190 O   0  0  0  0  0  1  0  0  0  0  0  0
  180.6840  174.5050  135.2680 C   0  0  0  0  0  2  0  0  0  0  0  0
  182.4090  179.4510  141.9650 C   0  0  0  0  0  2  0  0  0  0  0  0
  183.5740  178.9710  142.7640 C   0  0  0  0  0  0  0  0  0  0  0  0
  185.6350  178.2420  145.0030 C   0  0  0  0  0  3  0  0  0  0  0  0
  183.5330  179.1810  144.1480 O   0  0  0  0  0  0  0  0  0  0  0  0
  186.2970  177.7480  143.7950 C   0  0  0  0  0  0  0  0  0  0  0  0
  184.5540  178.3810  142.0860 C   0  0  0  0  0  3  0  0  0  0  0  0
  184.4610  178.8490  145.1390 C   0  0  0  0  0  3  0  0  0  0  0  0
  185.8160  177.8120  142.5580 C   0  0  0  0  0  3  0  0  0  0  0  0
  187.6220  177.0910  143.9780 C   0  0  0  0  0  2  0  0  0  0  0  0
  189.0140  177.8980  146.4210 C   0  0  0  0  0  2  0  0  0  0  0  0
  191.0880  176.5100  143.4390 C   0  0  0  0  0  2  0  0  0  0  0  0
  191.7810  176.3020  146.0460 S   0  0  0  0  0  0  0  0  0  0  0  0
  190.4430  176.5060  144.8210 C   0  0  1  0  0  3  0  0  0  0  0  0
  188.6910  178.0960  143.9790 N   0  0  0  0  0  0  0  0  0  0  0  0
  190.0540  176.7960  142.3580 C   0  0  1  0  0  3  0  0  0  0  0  0
  190.0270  177.7570  147.5440 C   0  0  0  0  0  2  0  0  0  0  0  0
  190.6740  176.3870  147.4840 C   0  0  0  0  0  2  0  0  0  0  0  0
  189.6800  177.8310  145.0420 C   0  0  1  0  0  3  0  0  0  0  0  0
  189.3460  178.1170  142.6660 C   0  0  0  0  0  2  0  0  0  0  0  0
  190.7290  176.8910  141.0030 C   0  0  0  0  0  2  0  0  0  0  0  0
  190.0800  177.8380  140.2100 O   0  0  0  0  0  1  0  0  0  0  0  0
  1  5  1  0  0  0  0
  3  1  2  0  0  0  0
  3  4  1  0  0  0  0
  4  2  2  0  0  0  0
  5  2  1  0  0  0  0
  6  9  1  0  0  0  0
  7 10  1  0  0  0  0
  8  6  2  0  0  0  0
  8 11  1  0  0  0  0
  9 12  1  0  0  0  0
  9 10  2  0  0  0  0
 10  3  1  0  0  0  0
 11  7  2  0  0  0  0
 13 18  1  0  0  0  0
 13 12  1  0  0  0  0
 14 13  2  0  0  0  0
 15 17  1  0  0  0  0
 16 15  2  0  0  0  0
 16 14  1  0  0  0  0
 17 18  2  0  0  0  0
 19  8  1  0  0  0  0
 20 19  1  0  0  0  0
 22 21  1  0  0  0  0
 22 20  1  0  0  0  0
 23  4  1  0  0  0  0
 23 24  1  0  0  0  0
 24 26  1  0  0  0  0
 25 29  2  0  0  0  0
 26 29  1  0  0  0  0
 27 31  1  0  0  0  0
 27 25  1  0  0  0  0
 28 30  1  0  0  0  0
 28 24  2  0  0  0  0
 30 27  2  0  0  0  0
 31 36  1  0  0  0  0
 32 38  1  0  0  0  0
 34 39  1  0  0  0  0
 35 33  1  6  0  0  0
 35 40  1  0  0  0  0
 35 34  1  0  0  0  0
 36 40  1  0  0  0  0
 37 42  1  6  0  0  0
 37 41  1  0  0  0  0
 37 33  1  0  0  0  0
 39 38  1  0  0  0  0
 40 32  1  1  0  0  0
 41 36  1  0  0  0  0
 43 42  1  0  0  0  0
M  END
>  <MODEL>
4

>  <REMARK>
 VINA RESULT:      -7.4      2.461      4.166
  Name = 
  11 active torsions:
  status: ('A' for Active; 'I' for Inactive)
    1  A    between atoms: C_1  and  C_30
    2  A    between atoms: N_2  and  C_14
    3  A    between atoms: N_2  and  C_38
    4  A    between atoms: C_3  and  C_16
    5  A    between atoms: C_3  and  C_27
    6  A    between atoms: C_8  and  C_19
    7  A    between atoms: C_8  and  C_24
    8  A    between atoms: C_21  and  C_24
    9  A    between atoms: N_23  and  C_33
   10  A    between atoms: C_25  and  C_39
   11  A    between atoms: C_28  and  C_33
                            x       y       z     vdW  Elec       q    Type
                         _______ _______ _______ _____ _____    ______ ____

>  <TORSDO>
F 11

$$$$
=
 OpenBabel11062416053D

 43 48  0  0  1  0  0  0  0  0999 V2000
  190.6750  177.8880  142.8330 N   0  0  0  0  0  0  0  0  0  0  0  0
  191.7050  177.3900  140.9740 C   0  0  0  0  0  3  0  0  0  0  0  0
  189.7310  177.6750  141.9000 C   0  0  0  0  0  0  0  0  0  0  0  0
  190.3500  177.3500  140.7080 C   0  0  0  0  0  0  0  0  0  0  0  0
  191.8630  177.7030  142.2770 N   0  0  0  0  0  2  0  0  0  0  0  0
  186.2510  177.6260  143.4310 C   0  0  0  0  0  3  0  0  0  0  0  0
  187.5720  178.6440  141.1980 C   0  0  0  0  0  3  0  0  0  0  0  0
  185.5400  178.3510  142.4720 C   0  0  0  0  0  0  0  0  0  0  0  0
  187.6250  177.3820  143.2770 C   0  0  0  0  0  0  0  0  0  0  0  0
  188.2900  177.8910  142.1380 C   0  0  0  0  0  0  0  0  0  0  0  0
  186.2050  178.8720  141.3620 C   0  0  0  0  0  3  0  0  0  0  0  0
  188.3730  176.7240  144.3130 N   0  0  0  0  0  2  0  0  0  0  0  0
  188.5200  177.1310  145.6820 C   0  0  0  0  0  0  0  0  0  0  0  0
  189.7620  177.1200  146.3310 C   0  0  0  0  0  3  0  0  0  0  0  0
  188.7390  177.9920  148.3050 N   0  0  0  0  0  0  0  0  0  0  0  0
  189.8510  177.5550  147.6550 C   0  0  0  0  0  3  0  0  0  0  0  0
  187.5230  178.0210  147.6930 C   0  0  0  0  0  3  0  0  0  0  0  0
  187.3960  177.5940  146.3700 C   0  0  0  0  0  3  0  0  0  0  0  0
  184.0850  178.6070  142.6570 C   0  0  0  0  0  2  0  0  0  0  0  0
  183.7420  178.6280  144.1370 C   0  0  0  0  0  2  0  0  0  0  0  0
  181.6970  179.3090  143.1100 O   0  0  0  0  0  1  0  0  0  0  0  0
  182.3380  179.1660  144.3420 C   0  0  0  0  0  2  0  0  0  0  0  0
  189.7150  177.2330  139.3570 C   0  0  0  0  0  2  0  0  0  0  0  0
  190.4450  176.2600  138.4920 C   0  0  0  0  0  0  0  0  0  0  0  0
  191.3300  173.8680  136.6800 C   0  0  0  0  0  3  0  0  0  0  0  0
  189.7290  175.1500  138.0290 O   0  0  0  0  0  0  0  0  0  0  0  0
  192.5570  174.6610  136.7750 C   0  0  0  0  0  0  0  0  0  0  0  0
  191.7200  176.5380  138.2350 C   0  0  0  0  0  3  0  0  0  0  0  0
  190.1350  174.0870  137.2190 C   0  0  0  0  0  3  0  0  0  0  0  0
  192.7020  175.8010  137.4390 C   0  0  0  0  0  3  0  0  0  0  0  0
  193.7440  174.1480  136.0340 C   0  0  0  0  0  2  0  0  0  0  0  0
  194.0240  171.2680  136.4610 C   0  0  0  0  0  2  0  0  0  0  0  0
  197.1290  173.3160  135.3290 C   0  0  0  0  0  2  0  0  0  0  0  0
  196.7010  170.7040  134.7710 S   0  0  0  0  0  0  0  0  0  0  0  0
  195.9780  172.3260  135.1950 C   0  0  1  0  0  3  0  0  0  0  0  0
  194.7220  173.5830  136.9700 N   0  0  0  0  0  0  0  0  0  0  0  0
  196.6240  174.6740  135.8010 C   0  0  1  0  0  3  0  0  0  0  0  0
  194.4920  169.8610  136.1300 C   0  0  0  0  0  2  0  0  0  0  0  0
  195.1050  169.8370  134.7430 C   0  0  0  0  0  2  0  0  0  0  0  0
  195.1930  172.2560  136.5240 C   0  0  1  0  0  3  0  0  0  0  0  0
  195.8540  174.5060  137.1120 C   0  0  0  0  0  2  0  0  0  0  0  0
  197.7920  175.6160  136.0210 C   0  0  0  0  0  2  0  0  0  0  0  0
  198.9960  174.9470  135.7990 O   0  0  0  0  0  1  0  0  0  0  0  0
  2  5  1  0  0  0  0
  3 10  1  0  0  0  0
  3  1  2  0  0  0  0
  4  2  2  0  0  0  0
  4  3  1  0  0  0  0
  5  1  1  0  0  0  0
  7 11  2  0  0  0  0
  7 10  1  0  0  0  0
  8 19  1  0  0  0  0
  8  6  2  0  0  0  0
  9  6  1  0  0  0  0
  9 12  1  0  0  0  0
 10  9  2  0  0  0  0
 11  8  1  0  0  0  0
 12 13  1  0  0  0  0
 13 14  2  0  0  0  0
 13 18  1  0  0  0  0
 14 16  1  0  0  0  0
 16 15  2  0  0  0  0
 17 15  1  0  0  0  0
 18 17  2  0  0  0  0
 19 20  1  0  0  0  0
 20 22  1  0  0  0  0
 21 22  1  0  0  0  0
 23  4  1  0  0  0  0
 24 23  1  0  0  0  0
 25 27  1  0  0  0  0
 25 29  2  0  0  0  0
 26 24  1  0  0  0  0
 27 30  2  0  0  0  0
 28 24  2  0  0  0  0
 29 26  1  0  0  0  0
 30 28  1  0  0  0  0
 31 27  1  0  0  0  0
 31 36  1  0  0  0  0
 33 37  1  0  0  0  0
 34 35  1  0  0  0  0
 35 33  1  1  0  0  0
 35 40  1  0  0  0  0
 36 41  1  0  0  0  0
 37 42  1  1  0  0  0
 37 41  1  0  0  0  0
 38 32  1  0  0  0  0
 39 34  1  0  0  0  0
 39 38  1  0  0  0  0
 40 32  1  6  0  0  0
 40 36  1  0  0  0  0
 43 42  1  0  0  0  0
M  END
>  <MODEL>
5

>  <REMARK>
 VINA RESULT:      -7.1      5.560     10.076
  Name = 
  11 active torsions:
  status: ('A' for Active; 'I' for Inactive)
    1  A    between atoms: C_1  and  C_30
    2  A    between atoms: N_2  and  C_14
    3  A    between atoms: N_2  and  C_38
    4  A    between atoms: C_3  and  C_16
    5  A    between atoms: C_3  and  C_27
    6  A    between atoms: C_8  and  C_19
    7  A    between atoms: C_8  and  C_24
    8  A    between atoms: C_21  and  C_24
    9  A    between atoms: N_23  and  C_33
   10  A    between atoms: C_25  and  C_39
   11  A    between atoms: C_28  and  C_33
                            x       y       z     vdW  Elec       q    Type
                         _______ _______ _______ _____ _____    ______ ____

>  <TORSDO>
F 11

$$$$
=
 OpenBabel11062416053D

 43 48  0  0  1  0  0  0  0  0999 V2000
  186.9040  177.1140  145.9680 N   0  0  0  0  0  0  0  0  0  0  0  0
  185.2850  178.5250  146.3580 C   0  0  0  0  0  3  0  0  0  0  0  0
  186.8890  177.9930  144.9520 C   0  0  0  0  0  0  0  0  0  0  0  0
  185.8770  178.9090  145.1710 C   0  0  0  0  0  0  0  0  0  0  0  0
  185.9460  177.4430  146.8210 N   0  0  0  0  0  2  0  0  0  0  0  0
  189.9140  177.9310  142.6490 C   0  0  0  0  0  3  0  0  0  0  0  0
  187.1540  177.5570  142.5370 C   0  0  0  0  0  3  0  0  0  0  0  0
  189.2990  177.6440  141.4280 C   0  0  0  0  0  0  0  0  0  0  0  0
  189.1570  178.0550  143.8250 C   0  0  0  0  0  0  0  0  0  0  0  0
  187.7570  177.8760  143.7630 C   0  0  0  0  0  0  0  0  0  0  0  0
  187.9200  177.4430  141.3750 C   0  0  0  0  0  3  0  0  0  0  0  0
  189.8020  178.2490  145.0950 N   0  0  0  0  0  2  0  0  0  0  0  0
  190.5690  177.2950  145.8430 C   0  0  0  0  0  0  0  0  0  0  0  0
  191.5700  176.5150  145.2480 C   0  0  0  0  0  3  0  0  0  0  0  0
  192.0550  175.5200  147.3640 N   0  0  0  0  0  0  0  0  0  0  0  0
  192.3060  175.6240  146.0310 C   0  0  0  0  0  3  0  0  0  0  0  0
  191.0960  176.2730  147.9670 C   0  0  0  0  0  3  0  0  0  0  0  0
  190.3400  177.1750  147.2160 C   0  0  0  0  0  3  0  0  0  0  0  0
  190.1200  177.5070  140.1930 C   0  0  0  0  0  2  0  0  0  0  0  0
  189.2370  177.1280  139.0170 C   0  0  0  0  0  2  0  0  0  0  0  0
  189.0050  179.3730  138.2380 O   0  0  0  0  0  1  0  0  0  0  0  0
  189.4450  178.1000  137.8710 C   0  0  0  0  0  2  0  0  0  0  0  0
  185.3580  179.9360  144.2130 C   0  0  0  0  0  2  0  0  0  0  0  0
  184.1900  179.4210  143.4390 C   0  0  0  0  0  0  0  0  0  0  0  0
  181.3750  178.4940  142.4360 C   0  0  0  0  0  3  0  0  0  0  0  0
  182.9460  179.4190  144.0810 O   0  0  0  0  0  0  0  0  0  0  0  0
  182.2260  178.2210  141.2770 C   0  0  0  0  0  0  0  0  0  0  0  0
  184.4370  179.0070  142.1990 C   0  0  0  0  0  3  0  0  0  0  0  0
  181.6930  179.0030  143.6220 C   0  0  0  0  0  3  0  0  0  0  0  0
  183.5310  178.4530  141.1940 C   0  0  0  0  0  3  0  0  0  0  0  0
  181.5560  177.6540  140.0730 C   0  0  0  0  0  2  0  0  0  0  0  0
  183.0550  175.6370  138.5770 C   0  0  0  0  0  2  0  0  0  0  0  0
  180.3380  177.7180  136.7330 C   0  0  0  0  0  2  0  0  0  0  0  0
  181.0760  175.1980  136.0820 S   0  0  0  0  0  0  0  0  0  0  0  0
  180.9650  176.4840  137.3720 C   0  0  1  0  0  3  0  0  0  0  0  0
  182.3230  177.9790  138.8650 N   0  0  0  0  0  0  0  0  0  0  0  0
  180.3170  178.8850  137.7110 C   0  0  1  0  0  3  0  0  0  0  0  0
  183.2280  174.4890  137.5980 C   0  0  0  0  0  2  0  0  0  0  0  0
  181.8700  173.9740  137.1640 C   0  0  0  0  0  2  0  0  0  0  0  0
  182.3620  176.8390  137.9270 C   0  0  1  0  0  3  0  0  0  0  0  0
  181.7360  179.1560  138.2130 C   0  0  0  0  0  2  0  0  0  0  0  0
  179.7790  180.1280  137.0280 C   0  0  0  0  0  2  0  0  0  0  0  0
  180.8070  181.0520  136.8380 O   0  0  0  0  0  1  0  0  0  0  0  0
  1  5  1  0  0  0  0
  2  5  1  0  0  0  0
  3  4  1  0  0  0  0
  3  1  2  0  0  0  0
  4  2  2  0  0  0  0
  6  9  1  0  0  0  0
  7 10  1  0  0  0  0
  8  6  2  0  0  0  0
  9 12  1  0  0  0  0
 10  9  2  0  0  0  0
 10  3  1  0  0  0  0
 11  8  1  0  0  0  0
 11  7  2  0  0  0  0
 12 13  1  0  0  0  0
 13 18  1  0  0  0  0
 14 13  2  0  0  0  0
 14 16  1  0  0  0  0
 15 17  1  0  0  0  0
 16 15  2  0  0  0  0
 18 17  2  0  0  0  0
 19  8  1  0  0  0  0
 20 19  1  0  0  0  0
 22 21  1  0  0  0  0
 22 20  1  0  0  0  0
 23  4  1  0  0  0  0
 24 26  1  0  0  0  0
 24 23  1  0  0  0  0
 25 29  2  0  0  0  0
 27 25  1  0  0  0  0
 28 24  2  0  0  0  0
 29 26  1  0  0  0  0
 30 27  2  0  0  0  0
 30 28  1  0  0  0  0
 31 27  1  0  0  0  0
 33 37  1  0  0  0  0
 34 39  1  0  0  0  0
 34 35  1  0  0  0  0
 35 33  1  6  0  0  0
 35 40  1  0  0  0  0
 36 31  1  0  0  0  0
 37 42  1  6  0  0  0
 37 41  1  0  0  0  0
 38 32  1  0  0  0  0
 39 38  1  0  0  0  0
 40 32  1  1  0  0  0
 40 36  1  0  0  0  0
 41 36  1  0  0  0  0
 43 42  1  0  0  0  0
M  END
>  <MODEL>
6

>  <REMARK>
 VINA RESULT:      -6.9      3.186      9.255
  Name = 
  11 active torsions:
  status: ('A' for Active; 'I' for Inactive)
    1  A    between atoms: C_1  and  C_30
    2  A    between atoms: N_2  and  C_14
    3  A    between atoms: N_2  and  C_38
    4  A    between atoms: C_3  and  C_16
    5  A    between atoms: C_3  and  C_27
    6  A    between atoms: C_8  and  C_19
    7  A    between atoms: C_8  and  C_24
    8  A    between atoms: C_21  and  C_24
    9  A    between atoms: N_23  and  C_33
   10  A    between atoms: C_25  and  C_39
   11  A    between atoms: C_28  and  C_33
                            x       y       z     vdW  Elec       q    Type
                         _______ _______ _______ _____ _____    ______ ____

>  <TORSDO>
F 11

$$$$
=
 OpenBabel11062416053D

 43 48  0  0  1  0  0  0  0  0999 V2000
  189.9820  176.0550  142.6090 N   0  0  0  0  0  0  0  0  0  0  0  0
  190.2850  176.9730  140.6510 C   0  0  0  0  0  3  0  0  0  0  0  0
  189.0770  177.0420  142.4870 C   0  0  2  0  0  3  0  0  0  0  0  0
  189.2370  177.6420  141.2520 C   0  0  0  0  0  0  0  0  0  0  0  0
  190.7000  176.0070  141.4960 N   0  0  0  0  0  0  0  0  0  0  0  0
  187.7180  178.2120  145.8400 C   0  0  0  0  0  3  0  0  0  0  0  0
  186.7930  177.4660  143.3190 C   0  0  0  0  0  3  0  0  0  0  0  0
  186.3450  178.1920  145.5790 C   0  0  0  0  0  0  0  0  0  0  0  0
  188.6430  177.8390  144.8520 C   0  0  0  0  0  0  0  0  0  0  0  0
  188.1700  177.4510  143.5780 C   0  0  0  0  0  0  0  0  0  0  0  0
  185.8840  177.8330  144.3130 C   0  0  0  0  0  3  0  0  0  0  0  0
  190.0560  177.9580  145.0900 N   0  0  0  0  0  2  0  0  0  0  0  0
  190.8840  177.1060  145.8950 C   0  0  0  0  0  0  0  0  0  0  0  0
  190.9190  177.2080  147.2930 C   0  0  0  0  0  3  0  0  0  0  0  0
  192.4560  175.3840  147.3900 N   0  0  0  0  0  0  0  0  0  0  0  0
  191.7200  176.3330  148.0280 C   0  0  0  0  0  3  0  0  0  0  0  0
  192.4310  175.2570  146.0350 C   0  0  0  0  0  3  0  0  0  0  0  0
  191.6420  176.1140  145.2670 C   0  0  0  0  0  3  0  0  0  0  0  0
  185.3790  178.6000  146.6370 C   0  0  0  0  0  2  0  0  0  0  0  0
  183.9620  178.2580  146.2110 C   0  0  0  0  0  2  0  0  0  0  0  0
  182.5880  178.6290  144.2940 O   0  0  0  0  0  1  0  0  0  0  0  0
  183.4710  179.2540  145.1770 C   0  0  0  0  0  2  0  0  0  0  0  0
  188.5970  178.9060  140.7670 C   0  0  0  0  0  2  0  0  0  0  0  0
  187.3330  178.6280  140.0230 C   0  0  0  0  0  0  0  0  0  0  0  0
  185.1440  177.9000  137.9100 C   0  0  0  0  0  3  0  0  0  0  0  0
  187.4500  178.2240  138.6880 O   0  0  0  0  0  0  0  0  0  0  0  0
  184.3430  178.2340  139.0880 C   0  0  0  0  0  0  0  0  0  0  0  0
  186.2000  178.7890  140.7010 C   0  0  0  0  0  3  0  0  0  0  0  0
  186.4630  177.9000  137.7520 C   0  0  0  0  0  3  0  0  0  0  0  0
  184.8130  178.6060  140.2730 C   0  0  0  0  0  3  0  0  0  0  0  0
  182.8640  178.1210  138.9460 C   0  0  0  0  0  2  0  0  0  0  0  0
  182.1340  177.8800  136.1240 C   0  0  0  0  0  2  0  0  0  0  0  0
  179.4600  179.1110  138.6640 C   0  0  0  0  0  2  0  0  0  0  0  0
  178.9310  177.7670  136.3770 S   0  0  0  0  0  0  0  0  0  0  0  0
  180.1350  178.1460  137.6960 C   0  0  1  0  0  3  0  0  0  0  0  0
  182.3400  179.2500  138.1700 N   0  0  0  0  0  0  0  0  0  0  0  0
  180.4380  179.5760  139.7350 C   0  0  1  0  0  3  0  0  0  0  0  0
  181.2420  177.4970  134.9560 C   0  0  0  0  0  2  0  0  0  0  0  0
  180.0620  176.6860  135.4540 C   0  0  0  0  0  2  0  0  0  0  0  0
  181.4100  178.7960  137.1160 C   0  0  1  0  0  3  0  0  0  0  0  0
  181.6690  180.1950  139.0700 C   0  0  0  0  0  2  0  0  0  0  0  0
  179.7780  180.6080  140.6310 C   0  0  0  0  0  2  0  0  0  0  0  0
  180.2730  180.5000  141.9310 O   0  0  0  0  0  1  0  0  0  0  0  0
  2  4  2  0  0  0  0
  2  5  1  0  0  0  0
  3  1  1  0  0  0  0
  3 10  1  1  0  0  0
  4  3  1  0  0  0  0
  5  1  2  0  0  0  0
  7 10  2  0  0  0  0
  7 11  1  0  0  0  0
  8  6  1  0  0  0  0
  8 19  1  0  0  0  0
  9 12  1  0  0  0  0
  9  6  2  0  0  0  0
 10  9  1  0  0  0  0
 11  8  2  0  0  0  0
 12 13  1  0  0  0  0
 13 14  1  0  0  0  0
 14 16  2  0  0  0  0
 15 16  1  0  0  0  0
 17 15  2  0  0  0  0
 18 13  2  0  0  0  0
 18 17  1  0  0  0  0
 20 19  1  0  0  0  0
 21 22  1  0  0  0  0
 22 20  1  0  0  0  0
 23  4  1  0  0  0  0
 24 28  2  0  0  0  0
 24 23  1  0  0  0  0
 25 27  1  0  0  0  0
 26 24  1  0  0  0  0
 27 30  2  0  0  0  0
 29 25  2  0  0  0  0
 29 26  1  0  0  0  0
 30 28  1  0  0  0  0
 31 27  1  0  0  0  0
 33 37  1  0  0  0  0
 34 35  1  0  0  0  0
 35 33  1  1  0  0  0
 36 31  1  0  0  0  0
 36 41  1  0  0  0  0
 37 42  1  1  0  0  0
 38 39  1  0  0  0  0
 38 32  1  0  0  0  0
 39 34  1  0  0  0  0
 40 32  1  6  0  0  0
 40 35  1  0  0  0  0
 40 36  1  0  0  0  0
 41 37  1  0  0  0  0
 42 43  1  0  0  0  0
M  END
>  <MODEL>
7

>  <REMARK>
 VINA RESULT:      -6.7      3.468     10.216
  Name = 
  11 active torsions:
  status: ('A' for Active; 'I' for Inactive)
    1  A    between atoms: C_1  and  C_30
    2  A    between atoms: N_2  and  C_14
    3  A    between atoms: N_2  and  C_38
    4  A    between atoms: C_3  and  C_16
    5  A    between atoms: C_3  and  C_27
    6  A    between atoms: C_8  and  C_19
    7  A    between atoms: C_8  and  C_24
    8  A    between atoms: C_21  and  C_24
    9  A    between atoms: N_23  and  C_33
   10  A    between atoms: C_25  and  C_39
   11  A    between atoms: C_28  and  C_33
                            x       y       z     vdW  Elec       q    Type
                         _______ _______ _______ _____ _____    ______ ____

>  <TORSDO>
F 11

$$$$
=
 OpenBabel11062416053D

 43 48  0  0  1  0  0  0  0  0999 V2000
  190.1010  176.0260  142.4560 N   0  0  0  0  0  0  0  0  0  0  0  0
  190.4260  176.9750  140.5170 C   0  0  0  0  0  3  0  0  0  0  0  0
  189.1900  177.0070  142.3350 C   0  0  2  0  0  3  0  0  0  0  0  0
  189.3630  177.6270  141.1110 C   0  0  0  0  0  0  0  0  0  0  0  0
  190.8360  176.0000  141.3540 N   0  0  0  0  0  0  0  0  0  0  0  0
  187.7680  178.1190  145.6820 C   0  0  0  0  0  3  0  0  0  0  0  0
  186.8890  177.3990  143.1370 C   0  0  0  0  0  3  0  0  0  0  0  0
  186.4010  178.0900  145.4000 C   0  0  0  0  0  0  0  0  0  0  0  0
  188.7120  177.7680  144.7040 C   0  0  0  0  0  0  0  0  0  0  0  0
  188.2620  177.3930  143.4170 C   0  0  0  0  0  0  0  0  0  0  0  0
  185.9620  177.7440  144.1220 C   0  0  0  0  0  3  0  0  0  0  0  0
  190.1200  177.8950  144.9640 N   0  0  0  0  0  2  0  0  0  0  0  0
  190.9020  177.1740  145.9270 C   0  0  0  0  0  0  0  0  0  0  0  0
  190.8630  177.4790  147.2950 C   0  0  0  0  0  3  0  0  0  0  0  0
  192.3880  175.6960  147.7380 N   0  0  0  0  0  0  0  0  0  0  0  0
  191.6220  176.7230  148.1910 C   0  0  0  0  0  3  0  0  0  0  0  0
  192.4350  175.3730  146.4160 C   0  0  0  0  0  3  0  0  0  0  0  0
  191.6900  176.1060  145.4910 C   0  0  0  0  0  3  0  0  0  0  0  0
  185.4150  178.4740  146.4480 C   0  0  0  0  0  2  0  0  0  0  0  0
  184.0000  178.3140  145.9190 C   0  0  0  0  0  2  0  0  0  0  0  0
  182.7040  178.9230  144.0090 O   0  0  0  0  0  1  0  0  0  0  0  0
  183.7110  179.3690  144.8670 C   0  0  0  0  0  2  0  0  0  0  0  0
  188.7200  178.8920  140.6340 C   0  0  0  0  0  2  0  0  0  0  0  0
  187.4040  178.6250  139.9830 C   0  0  0  0  0  0  0  0  0  0  0  0
  184.3810  178.4300  139.1990 C   0  0  0  0  0  3  0  0  0  0  0  0
  186.2600  179.1150  140.6240 O   0  0  0  0  0  0  0  0  0  0  0  0
  185.0350  177.7080  138.1070 C   0  0  0  0  0  0  0  0  0  0  0  0
  187.4360  177.9400  138.8440 C   0  0  0  0  0  3  0  0  0  0  0  0
  184.9130  179.0230  140.2630 C   0  0  0  0  0  3  0  0  0  0  0  0
  186.3420  177.5150  137.9700 C   0  0  0  0  0  3  0  0  0  0  0  0
  184.1500  177.1640  137.0390 C   0  0  0  0  0  2  0  0  0  0  0  0
  181.6080  178.6050  136.9110 C   0  0  0  0  0  2  0  0  0  0  0  0
  181.8060  175.0000  135.4670 C   0  0  0  0  0  2  0  0  0  0  0  0
  180.1290  176.9350  134.5950 S   0  0  0  0  0  0  0  0  0  0  0  0
  181.6970  176.5200  135.4320 C   0  0  1  0  0  3  0  0  0  0  0  0
  182.9140  176.6340  137.6260 N   0  0  0  0  0  0  0  0  0  0  0  0
  183.0320  174.5620  136.2580 C   0  0  1  0  0  3  0  0  0  0  0  0
  180.3260  179.0890  136.2550 C   0  0  0  0  0  2  0  0  0  0  0  0
  180.3350  178.7300  134.7820 C   0  0  0  0  0  2  0  0  0  0  0  0
  181.7240  177.0770  136.8730 C   0  0  1  0  0  3  0  0  0  0  0  0
  182.9780  175.1670  137.6620 C   0  0  0  0  0  2  0  0  0  0  0  0
  183.0710  173.0490  136.3630 C   0  0  0  0  0  2  0  0  0  0  0  0
  181.9560  172.5900  137.0650 O   0  0  0  0  0  1  0  0  0  0  0  0
  2  4  2  0  0  0  0
  2  5  1  0  0  0  0
  3  1  1  0  0  0  0
  3 10  1  1  0  0  0
  4  3  1  0  0  0  0
  5  1  2  0  0  0  0
  7 10  2  0  0  0  0
  7 11  1  0  0  0  0
  8  6  1  0  0  0  0
  8 19  1  0  0  0  0
  9 12  1  0  0  0  0
  9  6  2  0  0  0  0
 10  9  1  0  0  0  0
 11  8  2  0  0  0  0
 12 13  1  0  0  0  0
 13 14  1  0  0  0  0
 14 16  2  0  0  0  0
 15 16  1  0  0  0  0
 17 15  2  0  0  0  0
 18 13  2  0  0  0  0
 18 17  1  0  0  0  0
 20 19  1  0  0  0  0
 21 22  1  0  0  0  0
 22 20  1  0  0  0  0
 23  4  1  0  0  0  0
 24 26  1  0  0  0  0
 24 23  1  0  0  0  0
 25 29  2  0  0  0  0
 27 25  1  0  0  0  0
 28 24  2  0  0  0  0
 29 26  1  0  0  0  0
 30 27  2  0  0  0  0
 30 28  1  0  0  0  0
 31 36  1  0  0  0  0
 31 27  1  0  0  0  0
 33 37  1  0  0  0  0
 34 39  1  0  0  0  0
 34 35  1  0  0  0  0
 35 33  1  1  0  0  0
 35 40  1  0  0  0  0
 36 41  1  0  0  0  0
 37 42  1  1  0  0  0
 37 41  1  0  0  0  0
 38 32  1  0  0  0  0
 39 38  1  0  0  0  0
 40 32  1  6  0  0  0
 40 36  1  0  0  0  0
 42 43  1  0  0  0  0
M  END
>  <MODEL>
8

>  <REMARK>
 VINA RESULT:      -6.6      3.939     10.112
  Name = 
  11 active torsions:
  status: ('A' for Active; 'I' for Inactive)
    1  A    between atoms: C_1  and  C_30
    2  A    between atoms: N_2  and  C_14
    3  A    between atoms: N_2  and  C_38
    4  A    between atoms: C_3  and  C_16
    5  A    between atoms: C_3  and  C_27
    6  A    between atoms: C_8  and  C_19
    7  A    between atoms: C_8  and  C_24
    8  A    between atoms: C_21  and  C_24
    9  A    between atoms: N_23  and  C_33
   10  A    between atoms: C_25  and  C_39
   11  A    between atoms: C_28  and  C_33
                            x       y       z     vdW  Elec       q    Type
                         _______ _______ _______ _____ _____    ______ ____

>  <TORSDO>
F 11

$$$$
=
 OpenBabel11062416053D

 43 48  0  0  1  0  0  0  0  0999 V2000
  185.8850  179.2270  140.5500 N   0  0  0  0  0  0  0  0  0  0  0  0
  184.0370  179.0920  139.3960 C   0  0  0  0  0  3  0  0  0  0  0  0
  184.9170  178.8280  141.3940 C   0  0  2  0  0  3  0  0  0  0  0  0
  183.7300  178.7260  140.6920 C   0  0  0  0  0  0  0  0  0  0  0  0
  185.3560  179.3730  139.3450 N   0  0  0  0  0  0  0  0  0  0  0  0
  186.3750  177.8870  144.7760 C   0  0  0  0  0  3  0  0  0  0  0  0
  184.1570  179.1960  143.7120 C   0  0  0  0  0  3  0  0  0  0  0  0
  185.3920  178.3940  145.6280 C   0  0  0  0  0  0  0  0  0  0  0  0
  186.2530  178.0070  143.3830 C   0  0  0  0  0  0  0  0  0  0  0  0
  185.1220  178.6630  142.8460 C   0  0  0  0  0  0  0  0  0  0  0  0
  184.2890  179.0620  145.0960 C   0  0  0  0  0  3  0  0  0  0  0  0
  187.3130  177.5750  142.5140 N   0  0  0  0  0  2  0  0  0  0  0  0
  188.6950  177.3760  142.8480 C   0  0  0  0  0  0  0  0  0  0  0  0
  189.5890  178.4470  142.9820 C   0  0  0  0  0  3  0  0  0  0  0  0
  191.3320  176.9210  143.5610 N   0  0  0  0  0  0  0  0  0  0  0  0
  190.9150  178.1960  143.3390 C   0  0  0  0  0  3  0  0  0  0  0  0
  190.4810  175.8650  143.4470 C   0  0  0  0  0  3  0  0  0  0  0  0
  189.1480  176.0770  143.0920 C   0  0  0  0  0  3  0  0  0  0  0  0
  185.5430  178.2640  147.1040 C   0  0  0  0  0  2  0  0  0  0  0  0
  186.7630  179.0360  147.5750 C   0  0  0  0  0  2  0  0  0  0  0  0
  187.8760  176.9250  147.6240 O   0  0  0  0  0  1  0  0  0  0  0  0
  187.7060  178.1180  148.3290 C   0  0  0  0  0  2  0  0  0  0  0  0
  182.3580  178.5170  141.2530 C   0  0  0  0  0  2  0  0  0  0  0  0
  181.5940  177.5030  140.4670 C   0  0  0  0  0  0  0  0  0  0  0  0
  179.4610  175.8840  138.8500 C   0  0  0  0  0  3  0  0  0  0  0  0
  180.2870  177.8340  140.0920 O   0  0  0  0  0  0  0  0  0  0  0  0
  180.5960  174.9610  138.8840 C   0  0  0  0  0  0  0  0  0  0  0  0
  182.2290  176.3680  140.1920 C   0  0  0  0  0  3  0  0  0  0  0  0
  179.3420  177.1020  139.3680 C   0  0  0  0  0  3  0  0  0  0  0  0
  181.7720  175.1880  139.4580 C   0  0  0  0  0  3  0  0  0  0  0  0
  180.4180  173.6550  138.1880 C   0  0  0  0  0  2  0  0  0  0  0  0
  182.2080  175.1110  136.3890 C   0  0  0  0  0  2  0  0  0  0  0  0
  181.1690  171.4760  135.4800 C   0  0  0  0  0  2  0  0  0  0  0  0
  183.4980  172.6520  134.7670 S   0  0  0  0  0  0  0  0  0  0  0  0
  182.0970  172.5960  135.9360 C   0  0  1  0  0  3  0  0  0  0  0  0
  180.1030  173.8740  136.7720 N   0  0  0  0  0  0  0  0  0  0  0  0
  179.9080  171.4360  136.3330 C   0  0  1  0  0  3  0  0  0  0  0  0
  183.4140  175.2820  135.4820 C   0  0  0  0  0  2  0  0  0  0  0  0
  184.3080  174.0610  135.5790 C   0  0  0  0  0  2  0  0  0  0  0  0
  181.3280  173.9360  135.9490 C   0  0  1  0  0  3  0  0  0  0  0  0
  179.2210  172.8030  136.2940 C   0  0  0  0  0  2  0  0  0  0  0  0
  178.9550  170.3800  135.8050 C   0  0  0  0  0  2  0  0  0  0  0  0
  179.5010  169.7630  134.6790 O   0  0  0  0  0  1  0  0  0  0  0  0
  1  3  1  0  0  0  0
  2  4  2  0  0  0  0
  3 10  1  1  0  0  0
  4 23  1  0  0  0  0
  4  3  1  0  0  0  0
  5  2  1  0  0  0  0
  5  1  2  0  0  0  0
  6  8  1  0  0  0  0
  7 11  1  0  0  0  0
  8 19  1  0  0  0  0
  9  6  2  0  0  0  0
 10  9  1  0  0  0  0
 10  7  2  0  0  0  0
 11  8  2  0  0  0  0
 12 13  1  0  0  0  0
 12  9  1  0  0  0  0
 13 14  2  0  0  0  0
 13 18  1  0  0  0  0
 14 16  1  0  0  0  0
 16 15  2  0  0  0  0
 17 15  1  0  0  0  0
 18 17  2  0  0  0  0
 19 20  1  0  0  0  0
 20 22  1  0  0  0  0
 21 22  1  0  0  0  0
 24 23  1  0  0  0  0
 25 27  1  0  0  0  0
 25 29  2  0  0  0  0
 26 24  1  0  0  0  0
 27 30  2  0  0  0  0
 28 24  2  0  0  0  0
 29 26  1  0  0  0  0
 30 28  1  0  0  0  0
 31 27  1  0  0  0  0
 33 37  1  0  0  0  0
 34 39  1  0  0  0  0
 34 35  1  0  0  0  0
 35 33  1  6  0  0  0
 35 40  1  0  0  0  0
 36 31  1  0  0  0  0
 37 42  1  6  0  0  0
 38 39  1  0  0  0  0
 38 32  1  0  0  0  0
 40 32  1  1  0  0  0
 40 36  1  0  0  0  0
 41 37  1  0  0  0  0
 41 36  1  0  0  0  0
 43 42  1  0  0  0  0
M  END
>  <MODEL>
9

>  <REMARK>
 VINA RESULT:      -6.6      4.537      9.857
  Name = 
  11 active torsions:
  status: ('A' for Active; 'I' for Inactive)
    1  A    between atoms: C_1  and  C_30
    2  A    between atoms: N_2  and  C_14
    3  A    between atoms: N_2  and  C_38
    4  A    between atoms: C_3  and  C_16
    5  A    between atoms: C_3  and  C_27
    6  A    between atoms: C_8  and  C_19
    7  A    between atoms: C_8  and  C_24
    8  A    between atoms: C_21  and  C_24
    9  A    between atoms: N_23  and  C_33
   10  A    between atoms: C_25  and  C_39
   11  A    between atoms: C_28  and  C_33
                            x       y       z     vdW  Elec       q    Type
                         _______ _______ _______ _____ _____    ______ ____

>  <TORSDO>
F 11

$$$$
