=
 OpenBabel11062412343D

 33 34  0  0  1  0  0  0  0  0999 V2000
  189.4890  177.3340  147.4760 C   0  0  0  0  0  3  0  0  0  0  0  0
  186.6870  178.4250  147.0200 C   0  0  0  0  0  0  0  0  0  0  0  0
  187.2820  178.1130  148.1330 N   0  0  0  0  0  0  0  0  0  0  0  0
  185.6700  179.4210  147.0510 N   0  0  0  0  0  1  0  0  0  0  0  0
  188.2640  177.0460  148.2770 C   0  0  0  0  0  2  0  0  0  0  0  0
  188.2340  177.4140  145.3480 C   0  0  0  0  0  3  0  0  0  0  0  0
  189.4700  177.4950  146.1490 C   0  0  0  0  0  0  0  0  0  0  0  0
  186.9980  177.7640  145.7280 C   0  0  0  0  0  0  0  0  0  0  0  0
  190.7600  177.6090  145.3910 C   0  0  1  0  0  3  0  0  0  0  0  0
  191.5330  176.4600  145.5790 O   0  0  0  0  0  1  0  0  0  0  0  0
  190.5430  177.8720  143.8930 C   0  0  1  0  0  3  0  0  0  0  0  0
  191.0930  179.2340  143.4700 C   0  0  0  0  0  1  0  0  0  0  0  0
  190.2510  175.4870  143.1010 C   0  0  0  0  0  1  0  0  0  0  0  0
  191.1180  176.7330  143.0370 C   0  0  1  0  0  3  0  0  0  0  0  0
  191.4040  177.1260  141.6170 C   0  0  0  0  0  0  0  0  0  0  0  0
  192.5570  177.5330  141.3140 O   0  0  0  0  0  0  0  0  0  0  0  0
  190.3750  177.0580  140.6250 N   0  0  0  0  0  2  0  0  0  0  0  0
  190.5960  177.4270  139.2340 C   0  0  2  0  0  3  0  0  0  0  0  0
  189.2660  177.7320  138.5730 C   0  0  0  0  0  1  0  0  0  0  0  0
  191.2860  176.3210  138.5050 C   0  0  0  0  0  0  0  0  0  0  0  0
  190.7070  175.2140  138.3610 O   0  0  0  0  0  1  0  0  0  0  0  0
  192.5680  176.5030  137.9980 O   0  0  0  0  0  0  0  0  0  0  0  0
  185.9000  177.5980  144.7250 C   0  0  0  0  0  2  0  0  0  0  0  0
  185.7760  178.7750  143.9320 O   0  0  0  0  0  0  0  0  0  0  0  0
  184.5180  178.7900  139.9300 C   0  0  0  0  0  3  0  0  0  0  0  0
  186.2840  178.7610  141.5170 C   0  0  0  0  0  0  0  0  0  0  0  0
  183.5700  178.8310  140.9480 C   0  0  0  0  0  3  0  0  0  0  0  0
  185.3590  178.7880  142.5890 C   0  0  0  0  0  0  0  0  0  0  0  0
  183.9760  178.8360  142.2840 C   0  0  0  0  0  0  0  0  0  0  0  0
  185.8390  178.7590  140.2330 N   0  0  0  0  0  0  0  0  0  0  0  0
  187.6890  178.7840  141.7510 N   0  0  0  0  0  1  0  0  0  0  0  0
  182.9610  178.8690  143.2540 O   0  0  0  0  0  0  0  0  0  0  0  0
  181.5740  179.0110  142.9810 C   0  0  0  0  0  1  0  0  0  0  0  0
  1  5  1  0  0  0  0
  2  4  1  0  0  0  0
  2  3  2  0  0  0  0
  3  5  1  0  0  0  0
  6  8  2  0  0  0  0
  6  7  1  0  0  0  0
  7  1  2  0  0  0  0
  8  2  1  0  0  0  0
  9 10  1  6  0  0  0
  9  7  1  0  0  0  0
 11 12  1  6  0  0  0
 11  9  1  0  0  0  0
 14 13  1  6  0  0  0
 14 11  1  0  0  0  0
 15 14  1  0  0  0  0
 16 15  2  0  0  0  0
 17 15  1  0  0  0  0
 18 19  1  6  0  0  0
 18 17  1  0  0  0  0
 20 18  1  0  0  0  0
 21 20  1  0  0  0  0
 22 20  2  0  0  0  0
 23  8  1  0  0  0  0
 24 23  1  0  0  0  0
 25 30  2  0  0  0  0
 25 27  1  0  0  0  0
 26 31  1  0  0  0  0
 26 28  2  0  0  0  0
 27 29  2  0  0  0  0
 28 24  1  0  0  0  0
 29 28  1  0  0  0  0
 29 32  1  0  0  0  0
 30 26  1  0  0  0  0
 33 32  1  0  0  0  0
M  END
>  <MODEL>
1

>  <REMARK>
 VINA RESULT:      -8.5      0.000      0.000
  Name = 
  10 active torsions:
  status: ('A' for Active; 'I' for Inactive)
    1  A    between atoms: O_1  and  C_29
    2  A    between atoms: CA_5  and  C_11
    3  A    between atoms: CA_5  and  N_19
    4  A    between atoms: C_7  and  C_33
    5  A    between atoms: C_14  and  C_17
    6  A    between atoms: C_14  and  C_23
    7  A    between atoms: C_17  and  C_33
    8  A    between atoms: O_24  and  C_25
    9  A    between atoms: O_24  and  C_27
   10  A    between atoms: C_25  and  C_26
                            x       y       z     vdW  Elec       q    Type
                         _______ _______ _______ _____ _____    ______ ____

>  <TORSDO>
F 10

$$$$
=
 OpenBabel11062412343D

 33 34  0  0  1  0  0  0  0  0999 V2000
  191.6190  176.8720  145.4070 C   0  0  0  0  0  3  0  0  0  0  0  0
  189.6510  177.6300  147.5990 C   0  0  0  0  0  0  0  0  0  0  0  0
  190.7990  177.0250  147.6910 N   0  0  0  0  0  0  0  0  0  0  0  0
  189.1920  178.3860  148.7160 N   0  0  0  0  0  1  0  0  0  0  0  0
  191.3500  176.1370  146.6770 C   0  0  0  0  0  2  0  0  0  0  0  0
  189.2530  177.5340  145.1420 C   0  0  0  0  0  3  0  0  0  0  0  0
  190.6640  177.5000  144.7140 C   0  0  0  0  0  0  0  0  0  0  0  0
  188.7860  177.5370  146.3970 C   0  0  0  0  0  0  0  0  0  0  0  0
  190.9740  178.0690  143.3610 C   0  0  1  0  0  3  0  0  0  0  0  0
  192.0600  178.9450  143.4430 O   0  0  0  0  0  1  0  0  0  0  0  0
  191.2380  176.9800  142.3090 C   0  0  1  0  0  3  0  0  0  0  0  0
  190.1050  175.9560  142.2540 C   0  0  0  0  0  1  0  0  0  0  0  0
  192.9890  177.4940  140.5570 C   0  0  0  0  0  1  0  0  0  0  0  0
  191.5200  177.5950  140.9290 C   0  0  1  0  0  3  0  0  0  0  0  0
  190.6430  177.0580  139.8360 C   0  0  0  0  0  0  0  0  0  0  0  0
  190.8380  175.8880  139.4120 O   0  0  0  0  0  0  0  0  0  0  0  0
  189.6100  177.8710  139.2700 N   0  0  0  0  0  2  0  0  0  0  0  0
  188.7310  177.4020  138.2080 C   0  0  2  0  0  3  0  0  0  0  0  0
  189.5050  177.3240  136.9070 C   0  0  0  0  0  1  0  0  0  0  0  0
  187.5650  178.3220  138.0520 C   0  0  0  0  0  0  0  0  0  0  0  0
  187.4430  179.0010  137.0010 O   0  0  0  0  0  0  0  0  0  0  0  0
  186.6230  178.4440  139.0670 O   0  0  0  0  0  1  0  0  0  0  0  0
  187.3020  177.5870  146.5770 C   0  0  0  0  0  2  0  0  0  0  0  0
  186.6460  177.3130  145.3420 O   0  0  0  0  0  0  0  0  0  0  0  0
  183.3530  179.4600  143.8790 C   0  0  0  0  0  3  0  0  0  0  0  0
  184.5480  178.5560  145.7210 C   0  0  0  0  0  0  0  0  0  0  0  0
  184.2890  178.9460  142.9870 C   0  0  0  0  0  3  0  0  0  0  0  0
  185.5370  178.0260  144.8560 C   0  0  0  0  0  0  0  0  0  0  0  0
  185.3850  178.2220  143.4600 C   0  0  0  0  0  0  0  0  0  0  0  0
  183.5000  179.2530  145.2110 N   0  0  0  0  0  0  0  0  0  0  0  0
  184.6010  178.3360  147.1280 N   0  0  0  0  0  1  0  0  0  0  0  0
  186.2920  177.7440  142.5000 O   0  0  0  0  0  0  0  0  0  0  0  0
  187.4850  178.4050  142.1020 C   0  0  0  0  0  1  0  0  0  0  0  0
  1  5  1  0  0  0  0
  2  3  2  0  0  0  0
  2  4  1  0  0  0  0
  5  3  1  0  0  0  0
  6  8  2  0  0  0  0
  7  6  1  0  0  0  0
  7  1  2  0  0  0  0
  8 23  1  0  0  0  0
  8  2  1  0  0  0  0
  9 10  1  1  0  0  0
  9  7  1  0  0  0  0
 11 12  1  6  0  0  0
 11  9  1  0  0  0  0
 14 13  1  6  0  0  0
 14 11  1  0  0  0  0
 15 14  1  0  0  0  0
 16 15  2  0  0  0  0
 17 15  1  0  0  0  0
 18 19  1  6  0  0  0
 18 17  1  0  0  0  0
 20 18  1  0  0  0  0
 20 22  1  0  0  0  0
 21 20  2  0  0  0  0
 24 23  1  0  0  0  0
 25 30  1  0  0  0  0
 26 31  1  0  0  0  0
 27 29  1  0  0  0  0
 27 25  2  0  0  0  0
 28 24  1  0  0  0  0
 28 26  1  0  0  0  0
 29 28  2  0  0  0  0
 30 26  2  0  0  0  0
 32 29  1  0  0  0  0
 33 32  1  0  0  0  0
M  END
>  <MODEL>
2

>  <REMARK>
 VINA RESULT:      -7.9      2.006      3.547
  Name = 
  10 active torsions:
  status: ('A' for Active; 'I' for Inactive)
    1  A    between atoms: O_1  and  C_29
    2  A    between atoms: CA_5  and  C_11
    3  A    between atoms: CA_5  and  N_19
    4  A    between atoms: C_7  and  C_33
    5  A    between atoms: C_14  and  C_17
    6  A    between atoms: C_14  and  C_23
    7  A    between atoms: C_17  and  C_33
    8  A    between atoms: O_24  and  C_25
    9  A    between atoms: O_24  and  C_27
   10  A    between atoms: C_25  and  C_26
                            x       y       z     vdW  Elec       q    Type
                         _______ _______ _______ _____ _____    ______ ____

>  <TORSDO>
F 10

$$$$
=
 OpenBabel11062412343D

 33 34  0  0  1  0  0  0  0  0999 V2000
  191.0890  177.3280  146.0000 C   0  0  0  0  0  3  0  0  0  0  0  0
  188.4230  177.8780  147.3580 C   0  0  0  0  0  0  0  0  0  0  0  0
  189.5440  177.4660  147.8730 N   0  0  0  0  0  0  0  0  0  0  0  0
  187.5240  178.6080  148.1870 N   0  0  0  0  0  1  0  0  0  0  0  0
  190.5120  176.6250  147.1820 C   0  0  0  0  0  2  0  0  0  0  0  0
  188.8800  177.5990  144.9240 C   0  0  0  0  0  3  0  0  0  0  0  0
  190.3450  177.7640  144.9790 C   0  0  0  0  0  0  0  0  0  0  0  0
  188.0270  177.5910  145.9570 C   0  0  0  0  0  0  0  0  0  0  0  0
  191.0090  178.3060  143.7480 C   0  0  1  0  0  3  0  0  0  0  0  0
  192.1390  179.0510  144.0980 O   0  0  0  0  0  1  0  0  0  0  0  0
  191.3810  177.2040  142.7440 C   0  0  1  0  0  3  0  0  0  0  0  0
  191.6230  175.8620  143.4350 C   0  0  0  0  0  1  0  0  0  0  0  0
  189.2200  178.1120  141.7910 C   0  0  0  0  0  1  0  0  0  0  0  0
  190.3320  177.0890  141.6270 C   0  0  1  0  0  3  0  0  0  0  0  0
  190.9120  177.1320  140.2440 C   0  0  0  0  0  0  0  0  0  0  0  0
  192.1410  177.3710  140.1010 O   0  0  0  0  0  0  0  0  0  0  0  0
  190.0770  176.9230  139.1000 N   0  0  0  0  0  2  0  0  0  0  0  0
  190.5860  176.9540  137.7360 C   0  0  2  0  0  3  0  0  0  0  0  0
  189.5700  177.6230  136.8310 C   0  0  0  0  0  1  0  0  0  0  0  0
  190.8650  175.5690  137.2530 C   0  0  0  0  0  0  0  0  0  0  0  0
  190.8790  175.3310  136.0180 O   0  0  0  0  0  0  0  0  0  0  0  0
  191.0940  174.5390  138.1590 O   0  0  0  0  0  1  0  0  0  0  0  0
  186.5740  177.4180  145.6440 C   0  0  0  0  0  2  0  0  0  0  0  0
  186.2110  178.2230  144.5270 O   0  0  0  0  0  0  0  0  0  0  0  0
  182.2710  179.0100  143.3220 C   0  0  0  0  0  3  0  0  0  0  0  0
  183.8580  178.7380  145.0670 C   0  0  0  0  0  0  0  0  0  0  0  0
  183.2430  178.7470  142.3620 C   0  0  0  0  0  3  0  0  0  0  0  0
  184.8880  178.4790  144.1280 C   0  0  0  0  0  0  0  0  0  0  0  0
  184.5560  178.4750  142.7500 C   0  0  0  0  0  0  0  0  0  0  0  0
  182.5950  178.9960  144.6380 N   0  0  0  0  0  0  0  0  0  0  0  0
  184.1060  178.6870  146.4690 N   0  0  0  0  0  1  0  0  0  0  0  0
  185.4820  178.2300  141.7230 O   0  0  0  0  0  0  0  0  0  0  0  0
  185.4200  178.7860  140.4170 C   0  0  0  0  0  1  0  0  0  0  0  0
  1  5  1  0  0  0  0
  2  3  2  0  0  0  0
  2  4  1  0  0  0  0
  5  3  1  0  0  0  0
  6  7  1  0  0  0  0
  6  8  2  0  0  0  0
  7  1  2  0  0  0  0
  8  2  1  0  0  0  0
  9 10  1  1  0  0  0
  9  7  1  0  0  0  0
 11 12  1  1  0  0  0
 11  9  1  0  0  0  0
 14 13  1  6  0  0  0
 14 11  1  0  0  0  0
 15 14  1  0  0  0  0
 16 15  2  0  0  0  0
 17 15  1  0  0  0  0
 18 19  1  6  0  0  0
 18 17  1  0  0  0  0
 20 18  1  0  0  0  0
 20 22  1  0  0  0  0
 21 20  2  0  0  0  0
 23  8  1  0  0  0  0
 24 23  1  0  0  0  0
 25 30  1  0  0  0  0
 26 31  1  0  0  0  0
 27 29  1  0  0  0  0
 27 25  2  0  0  0  0
 28 24  1  0  0  0  0
 28 26  1  0  0  0  0
 29 28  2  0  0  0  0
 30 26  2  0  0  0  0
 32 29  1  0  0  0  0
 33 32  1  0  0  0  0
M  END
>  <MODEL>
3

>  <REMARK>
 VINA RESULT:      -7.7      1.739      2.656
  Name = 
  10 active torsions:
  status: ('A' for Active; 'I' for Inactive)
    1  A    between atoms: O_1  and  C_29
    2  A    between atoms: CA_5  and  C_11
    3  A    between atoms: CA_5  and  N_19
    4  A    between atoms: C_7  and  C_33
    5  A    between atoms: C_14  and  C_17
    6  A    between atoms: C_14  and  C_23
    7  A    between atoms: C_17  and  C_33
    8  A    between atoms: O_24  and  C_25
    9  A    between atoms: O_24  and  C_27
   10  A    between atoms: C_25  and  C_26
                            x       y       z     vdW  Elec       q    Type
                         _______ _______ _______ _____ _____    ______ ____

>  <TORSDO>
F 10

$$$$
=
 OpenBabel11062412343D

 33 34  0  0  1  0  0  0  0  0999 V2000
  190.7510  177.5020  138.7440 C   0  0  0  0  0  3  0  0  0  0  0  0
  191.2910  177.5290  141.7370 C   0  0  0  0  0  0  0  0  0  0  0  0
  192.1180  177.3540  140.7490 N   0  0  0  0  0  0  0  0  0  0  0  0
  191.7920  178.0760  142.9530 N   0  0  0  0  0  1  0  0  0  0  0  0
  191.7770  176.7130  139.4870 C   0  0  0  0  0  2  0  0  0  0  0  0
  189.0990  177.3140  140.5720 C   0  0  0  0  0  3  0  0  0  0  0  0
  189.5380  177.7670  139.2400 C   0  0  0  0  0  0  0  0  0  0  0  0
  189.8570  177.1500  141.6640 C   0  0  0  0  0  0  0  0  0  0  0  0
  188.5010  178.4140  138.3700 C   0  0  1  0  0  3  0  0  0  0  0  0
  188.9760  179.6330  137.8780 O   0  0  0  0  0  1  0  0  0  0  0  0
  188.0500  177.5070  137.2150 C   0  0  1  0  0  3  0  0  0  0  0  0
  187.9670  176.0410  137.6420 C   0  0  0  0  0  1  0  0  0  0  0  0
  186.4590  177.3550  135.2530 C   0  0  0  0  0  1  0  0  0  0  0  0
  186.7290  177.9990  136.6020 C   0  0  1  0  0  3  0  0  0  0  0  0
  185.5480  177.8610  137.5180 C   0  0  0  0  0  0  0  0  0  0  0  0
  184.7300  176.9220  137.3280 O   0  0  0  0  0  0  0  0  0  0  0  0
  185.3430  178.7960  138.5830 N   0  0  0  0  0  2  0  0  0  0  0  0
  184.2150  178.7100  139.5000 C   0  0  2  0  0  3  0  0  0  0  0  0
  183.1290  179.6710  139.0570 C   0  0  0  0  0  1  0  0  0  0  0  0
  184.6490  179.0380  140.8910 C   0  0  0  0  0  0  0  0  0  0  0  0
  185.8040  179.4930  141.0930 O   0  0  0  0  0  0  0  0  0  0  0  0
  183.7900  178.8290  141.9650 O   0  0  0  0  0  1  0  0  0  0  0  0
  189.1740  176.6880  142.9110 C   0  0  0  0  0  2  0  0  0  0  0  0
  188.8680  177.8000  143.7470 O   0  0  0  0  0  0  0  0  0  0  0  0
  187.7460  177.4740  147.7760 C   0  0  0  0  0  3  0  0  0  0  0  0
  187.1400  177.8390  145.5090 C   0  0  0  0  0  0  0  0  0  0  0  0
  189.0860  177.3440  147.4230 C   0  0  0  0  0  3  0  0  0  0  0  0
  188.4890  177.6990  145.0970 C   0  0  0  0  0  0  0  0  0  0  0  0
  189.4740  177.4590  146.0870 C   0  0  0  0  0  0  0  0  0  0  0  0
  186.8140  177.7190  146.8220 N   0  0  0  0  0  0  0  0  0  0  0  0
  186.1100  178.1510  144.5760 N   0  0  0  0  0  1  0  0  0  0  0  0
  190.8420  177.3060  145.8090 O   0  0  0  0  0  0  0  0  0  0  0  0
  191.7230  176.4320  146.5010 C   0  0  0  0  0  1  0  0  0  0  0  0
  1  7  2  0  0  0  0
  1  5  1  0  0  0  0
  2  4  1  0  0  0  0
  3  2  2  0  0  0  0
  5  3  1  0  0  0  0
  6  8  2  0  0  0  0
  7  6  1  0  0  0  0
  8  2  1  0  0  0  0
  8 23  1  0  0  0  0
  9 10  1  6  0  0  0
  9  7  1  0  0  0  0
 11 12  1  1  0  0  0
 11  9  1  0  0  0  0
 14 13  1  6  0  0  0
 14 11  1  0  0  0  0
 14 15  1  0  0  0  0
 15 17  1  0  0  0  0
 16 15  2  0  0  0  0
 17 18  1  0  0  0  0
 18 19  1  6  0  0  0
 18 20  1  0  0  0  0
 20 21  2  0  0  0  0
 20 22  1  0  0  0  0
 23 24  1  0  0  0  0
 24 28  1  0  0  0  0
 26 30  1  0  0  0  0
 27 25  1  0  0  0  0
 28 26  2  0  0  0  0
 28 29  1  0  0  0  0
 29 27  2  0  0  0  0
 30 25  2  0  0  0  0
 31 26  1  0  0  0  0
 32 29  1  0  0  0  0
 32 33  1  0  0  0  0
M  END
>  <MODEL>
4

>  <REMARK>
 VINA RESULT:      -7.5      2.320      7.347
  Name = 
  10 active torsions:
  status: ('A' for Active; 'I' for Inactive)
    1  A    between atoms: O_1  and  C_29
    2  A    between atoms: CA_5  and  C_11
    3  A    between atoms: CA_5  and  N_19
    4  A    between atoms: C_7  and  C_33
    5  A    between atoms: C_14  and  C_17
    6  A    between atoms: C_14  and  C_23
    7  A    between atoms: C_17  and  C_33
    8  A    between atoms: O_24  and  C_25
    9  A    between atoms: O_24  and  C_27
   10  A    between atoms: C_25  and  C_26
                            x       y       z     vdW  Elec       q    Type
                         _______ _______ _______ _____ _____    ______ ____

>  <TORSDO>
F 10

$$$$
=
 OpenBabel11062412343D

 33 34  0  0  1  0  0  0  0  0999 V2000
  188.7870  177.4250  146.0070 C   0  0  0  0  0  3  0  0  0  0  0  0
  191.1330  176.3800  144.3770 C   0  0  0  0  0  0  0  0  0  0  0  0
  191.0890  176.7400  145.6260 N   0  0  0  0  0  0  0  0  0  0  0  0
  192.1020  175.4130  143.9850 N   0  0  0  0  0  1  0  0  0  0  0  0
  190.2270  177.7880  146.1560 C   0  0  0  0  0  2  0  0  0  0  0  0
  188.9530  177.2560  143.5470 C   0  0  0  0  0  3  0  0  0  0  0  0
  188.2160  177.1890  144.8220 C   0  0  0  0  0  0  0  0  0  0  0  0
  190.2430  176.9590  143.3400 C   0  0  0  0  0  0  0  0  0  0  0  0
  186.7300  177.0010  144.7340 C   0  0  1  0  0  3  0  0  0  0  0  0
  186.2180  176.6100  145.9740 O   0  0  0  0  0  1  0  0  0  0  0  0
  186.0050  178.2560  144.2240 C   0  0  1  0  0  3  0  0  0  0  0  0
  185.5570  178.1040  142.7700 C   0  0  0  0  0  1  0  0  0  0  0  0
  185.3000  179.4550  146.3380 C   0  0  0  0  0  1  0  0  0  0  0  0
  184.8350  178.6370  145.1440 C   0  0  1  0  0  3  0  0  0  0  0  0
  183.6980  179.3100  144.4330 C   0  0  0  0  0  0  0  0  0  0  0  0
  183.8130  180.5190  144.0980 O   0  0  0  0  0  0  0  0  0  0  0  0
  182.4910  178.5930  144.1540 N   0  0  0  0  0  2  0  0  0  0  0  0
  181.3570  179.1950  143.4670 C   0  0  2  0  0  3  0  0  0  0  0  0
  180.0700  178.5710  143.9710 C   0  0  0  0  0  1  0  0  0  0  0  0
  181.4760  178.9970  141.9920 C   0  0  0  0  0  0  0  0  0  0  0  0
  182.3360  178.1990  141.5370 O   0  0  0  0  0  1  0  0  0  0  0  0
  180.6540  179.6990  141.1170 O   0  0  0  0  0  0  0  0  0  0  0  0
  190.7630  177.0950  141.9450 C   0  0  0  0  0  2  0  0  0  0  0  0
  189.8050  176.6030  141.0120 O   0  0  0  0  0  0  0  0  0  0  0  0
  189.1390  178.2700  137.2200 C   0  0  0  0  0  3  0  0  0  0  0  0
  188.8090  178.3420  139.5710 C   0  0  0  0  0  0  0  0  0  0  0  0
  189.8840  177.1000  137.3350 C   0  0  0  0  0  3  0  0  0  0  0  0
  189.5730  177.1600  139.7420 C   0  0  0  0  0  0  0  0  0  0  0  0
  190.1060  176.5300  138.5900 C   0  0  0  0  0  0  0  0  0  0  0  0
  188.6220  178.8570  138.3280 N   0  0  0  0  0  0  0  0  0  0  0  0
  188.1860  178.9870  140.6770 N   0  0  0  0  0  1  0  0  0  0  0  0
  190.8750  175.3550  138.6260 O   0  0  0  0  0  0  0  0  0  0  0  0
  191.9700  175.0700  137.7670 C   0  0  0  0  0  1  0  0  0  0  0  0
  1  5  1  0  0  0  0
  2  3  2  0  0  0  0
  3  5  1  0  0  0  0
  4  2  1  0  0  0  0
  6  7  1  0  0  0  0
  7  1  2  0  0  0  0
  8  6  2  0  0  0  0
  8  2  1  0  0  0  0
  9  7  1  0  0  0  0
  9 10  1  1  0  0  0
 11 12  1  6  0  0  0
 11  9  1  0  0  0  0
 11 14  1  0  0  0  0
 14 13  1  1  0  0  0
 15 14  1  0  0  0  0
 16 15  2  0  0  0  0
 17 15  1  0  0  0  0
 18 19  1  1  0  0  0
 18 17  1  0  0  0  0
 20 18  1  0  0  0  0
 21 20  1  0  0  0  0
 22 20  2  0  0  0  0
 23  8  1  0  0  0  0
 24 23  1  0  0  0  0
 25 27  2  0  0  0  0
 25 30  1  0  0  0  0
 26 28  1  0  0  0  0
 26 31  1  0  0  0  0
 27 29  1  0  0  0  0
 28 24  1  0  0  0  0
 29 32  1  0  0  0  0
 29 28  2  0  0  0  0
 30 26  2  0  0  0  0
 33 32  1  0  0  0  0
M  END
>  <MODEL>
5

>  <REMARK>
 VINA RESULT:      -7.4      2.188      7.144
  Name = 
  10 active torsions:
  status: ('A' for Active; 'I' for Inactive)
    1  A    between atoms: O_1  and  C_29
    2  A    between atoms: CA_5  and  C_11
    3  A    between atoms: CA_5  and  N_19
    4  A    between atoms: C_7  and  C_33
    5  A    between atoms: C_14  and  C_17
    6  A    between atoms: C_14  and  C_23
    7  A    between atoms: C_17  and  C_33
    8  A    between atoms: O_24  and  C_25
    9  A    between atoms: O_24  and  C_27
   10  A    between atoms: C_25  and  C_26
                            x       y       z     vdW  Elec       q    Type
                         _______ _______ _______ _____ _____    ______ ____

>  <TORSDO>
F 10

$$$$
=
 OpenBabel11062412343D

 33 34  0  0  1  0  0  0  0  0999 V2000
  189.4190  178.1080  138.9820 C   0  0  0  0  0  3  0  0  0  0  0  0
  186.5170  178.1490  138.0720 C   0  0  0  0  0  0  0  0  0  0  0  0
  187.6050  178.2750  137.3710 N   0  0  0  0  0  0  0  0  0  0  0  0
  185.3570  177.6230  137.4350 N   0  0  0  0  0  1  0  0  0  0  0  0
  188.8340  178.8890  137.8540 C   0  0  0  0  0  2  0  0  0  0  0  0
  187.4060  178.3900  140.3870 C   0  0  0  0  0  3  0  0  0  0  0  0
  188.7680  177.8880  140.1290 C   0  0  0  0  0  0  0  0  0  0  0  0
  186.4230  178.5640  139.4940 C   0  0  0  0  0  0  0  0  0  0  0  0
  189.4810  177.2450  141.2810 C   0  0  1  0  0  3  0  0  0  0  0  0
  190.8100  176.9770  140.9380 O   0  0  0  0  0  1  0  0  0  0  0  0
  189.4160  178.0910  142.5620 C   0  0  1  0  0  3  0  0  0  0  0  0
  188.2430  177.6830  143.4540 C   0  0  0  0  0  1  0  0  0  0  0  0
  191.1580  179.4340  143.8130 C   0  0  0  0  0  1  0  0  0  0  0  0
  190.7500  178.0550  143.3230 C   0  0  1  0  0  3  0  0  0  0  0  0
  190.7870  177.0490  144.4360 C   0  0  0  0  0  0  0  0  0  0  0  0
  191.1830  175.8780  144.1920 O   0  0  0  0  0  0  0  0  0  0  0  0
  190.3590  177.4080  145.7540 N   0  0  0  0  0  2  0  0  0  0  0  0
  190.3730  176.4730  146.8690 C   0  0  2  0  0  3  0  0  0  0  0  0
  189.2820  176.8440  147.8550 C   0  0  0  0  0  1  0  0  0  0  0  0
  191.7020  176.4930  147.5490 C   0  0  0  0  0  0  0  0  0  0  0  0
  192.5490  175.6000  147.2900 O   0  0  0  0  0  0  0  0  0  0  0  0
  192.0050  177.4840  148.4770 O   0  0  0  0  0  1  0  0  0  0  0  0
  185.1150  179.0790  140.0060 C   0  0  0  0  0  2  0  0  0  0  0  0
  184.5560  178.1620  140.9410 O   0  0  0  0  0  0  0  0  0  0  0  0
  181.2430  178.9580  143.3880 C   0  0  0  0  0  3  0  0  0  0  0  0
  182.1200  178.4170  141.2490 C   0  0  0  0  0  0  0  0  0  0  0  0
  182.5230  179.0030  143.9300 C   0  0  0  0  0  3  0  0  0  0  0  0
  183.4430  178.4360  141.7560 C   0  0  0  0  0  0  0  0  0  0  0  0
  183.6350  178.7480  143.1250 C   0  0  0  0  0  0  0  0  0  0  0  0
  181.0710  178.6720  142.0740 N   0  0  0  0  0  0  0  0  0  0  0  0
  181.8600  178.1800  139.8690 N   0  0  0  0  0  1  0  0  0  0  0  0
  184.8940  178.8030  143.7460 O   0  0  0  0  0  0  0  0  0  0  0  0
  185.1110  178.8270  145.1500 C   0  0  0  0  0  1  0  0  0  0  0  0
  1  7  2  0  0  0  0
  2  8  1  0  0  0  0
  3  5  1  0  0  0  0
  3  2  2  0  0  0  0
  4  2  1  0  0  0  0
  5  1  1  0  0  0  0
  7  6  1  0  0  0  0
  7  9  1  0  0  0  0
  8 23  1  0  0  0  0
  8  6  2  0  0  0  0
  9 10  1  6  0  0  0
  9 11  1  0  0  0  0
 11 14  1  0  0  0  0
 11 12  1  1  0  0  0
 14 13  1  1  0  0  0
 14 15  1  0  0  0  0
 15 17  1  0  0  0  0
 16 15  2  0  0  0  0
 17 18  1  0  0  0  0
 18 20  1  0  0  0  0
 18 19  1  1  0  0  0
 20 22  1  0  0  0  0
 21 20  2  0  0  0  0
 23 24  1  0  0  0  0
 24 28  1  0  0  0  0
 25 27  1  0  0  0  0
 26 28  2  0  0  0  0
 26 30  1  0  0  0  0
 28 29  1  0  0  0  0
 29 32  1  0  0  0  0
 29 27  2  0  0  0  0
 30 25  2  0  0  0  0
 31 26  1  0  0  0  0
 32 33  1  0  0  0  0
M  END
>  <MODEL>
6

>  <REMARK>
 VINA RESULT:      -7.3      2.302      6.278
  Name = 
  10 active torsions:
  status: ('A' for Active; 'I' for Inactive)
    1  A    between atoms: O_1  and  C_29
    2  A    between atoms: CA_5  and  C_11
    3  A    between atoms: CA_5  and  N_19
    4  A    between atoms: C_7  and  C_33
    5  A    between atoms: C_14  and  C_17
    6  A    between atoms: C_14  and  C_23
    7  A    between atoms: C_17  and  C_33
    8  A    between atoms: O_24  and  C_25
    9  A    between atoms: O_24  and  C_27
   10  A    between atoms: C_25  and  C_26
                            x       y       z     vdW  Elec       q    Type
                         _______ _______ _______ _____ _____    ______ ____

>  <TORSDO>
F 10

$$$$
=
 OpenBabel11062412343D

 33 34  0  0  1  0  0  0  0  0999 V2000
  188.9560  177.5400  147.1540 C   0  0  0  0  0  3  0  0  0  0  0  0
  186.1820  178.4610  146.3130 C   0  0  0  0  0  0  0  0  0  0  0  0
  186.6510  178.2290  147.5030 N   0  0  0  0  0  0  0  0  0  0  0  0
  185.1230  179.4020  146.1730 N   0  0  0  0  0  1  0  0  0  0  0  0
  187.6570  177.2230  147.8160 C   0  0  0  0  0  2  0  0  0  0  0  0
  187.9660  177.4600  144.8910 C   0  0  0  0  0  3  0  0  0  0  0  0
  189.0900  177.6420  145.8280 C   0  0  0  0  0  0  0  0  0  0  0  0
  186.6780  177.7610  145.1020 C   0  0  0  0  0  0  0  0  0  0  0  0
  190.4560  177.7900  145.2250 C   0  0  1  0  0  3  0  0  0  0  0  0
  191.2270  176.6540  145.4900 O   0  0  0  0  0  1  0  0  0  0  0  0
  190.4070  178.0660  143.7140 C   0  0  1  0  0  3  0  0  0  0  0  0
  191.0310  179.4170  143.3630 C   0  0  0  0  0  1  0  0  0  0  0  0
  190.2930  175.6120  143.1090 C   0  0  0  0  0  1  0  0  0  0  0  0
  191.0440  176.9190  142.9150 C   0  0  1  0  0  3  0  0  0  0  0  0
  191.2350  177.2260  141.4590 C   0  0  0  0  0  0  0  0  0  0  0  0
  192.3930  177.4790  141.0320 O   0  0  0  0  0  0  0  0  0  0  0  0
  190.1130  177.2510  140.5700 N   0  0  0  0  0  2  0  0  0  0  0  0
  190.2410  177.5430  139.1490 C   0  0  2  0  0  3  0  0  0  0  0  0
  189.2930  178.6660  138.7760 C   0  0  0  0  0  1  0  0  0  0  0  0
  189.9340  176.3270  138.3370 C   0  0  0  0  0  0  0  0  0  0  0  0
  188.8930  176.2940  137.6330 O   0  0  0  0  0  0  0  0  0  0  0  0
  190.7840  175.2270  138.3670 O   0  0  0  0  0  1  0  0  0  0  0  0
  185.7200  177.4940  143.9850 C   0  0  0  0  0  2  0  0  0  0  0  0
  185.1620  178.7160  143.5120 O   0  0  0  0  0  0  0  0  0  0  0  0
  181.8800  179.0010  140.9140 C   0  0  0  0  0  3  0  0  0  0  0  0
  182.7250  178.7910  143.1230 C   0  0  0  0  0  0  0  0  0  0  0  0
  183.1710  179.0020  140.3930 C   0  0  0  0  0  3  0  0  0  0  0  0
  184.0590  178.8030  142.6440 C   0  0  0  0  0  0  0  0  0  0  0  0
  184.2710  178.8990  141.2460 C   0  0  0  0  0  0  0  0  0  0  0  0
  181.6880  178.8940  142.2520 N   0  0  0  0  0  0  0  0  0  0  0  0
  182.4390  178.6270  144.5090 N   0  0  0  0  0  1  0  0  0  0  0  0
  185.5410  178.9170  140.6470 O   0  0  0  0  0  0  0  0  0  0  0  0
  185.8280  178.4750  139.3270 C   0  0  0  0  0  1  0  0  0  0  0  0
  1  5  1  0  0  0  0
  2  3  2  0  0  0  0
  3  5  1  0  0  0  0
  4  2  1  0  0  0  0
  6  8  2  0  0  0  0
  6  7  1  0  0  0  0
  7  1  2  0  0  0  0
  8  2  1  0  0  0  0
  9 10  1  6  0  0  0
  9  7  1  0  0  0  0
 11 12  1  1  0  0  0
 11  9  1  0  0  0  0
 14 13  1  6  0  0  0
 14 11  1  0  0  0  0
 15 14  1  0  0  0  0
 16 15  2  0  0  0  0
 17 15  1  0  0  0  0
 18 19  1  6  0  0  0
 18 17  1  0  0  0  0
 20 22  1  0  0  0  0
 20 18  1  0  0  0  0
 21 20  2  0  0  0  0
 23  8  1  0  0  0  0
 24 23  1  0  0  0  0
 25 30  1  0  0  0  0
 26 31  1  0  0  0  0
 27 25  2  0  0  0  0
 27 29  1  0  0  0  0
 28 26  1  0  0  0  0
 28 24  1  0  0  0  0
 29 28  2  0  0  0  0
 30 26  2  0  0  0  0
 32 29  1  0  0  0  0
 33 32  1  0  0  0  0
M  END
>  <MODEL>
7

>  <REMARK>
 VINA RESULT:      -7.2      1.477      2.116
  Name = 
  10 active torsions:
  status: ('A' for Active; 'I' for Inactive)
    1  A    between atoms: O_1  and  C_29
    2  A    between atoms: CA_5  and  C_11
    3  A    between atoms: CA_5  and  N_19
    4  A    between atoms: C_7  and  C_33
    5  A    between atoms: C_14  and  C_17
    6  A    between atoms: C_14  and  C_23
    7  A    between atoms: C_17  and  C_33
    8  A    between atoms: O_24  and  C_25
    9  A    between atoms: O_24  and  C_27
   10  A    between atoms: C_25  and  C_26
                            x       y       z     vdW  Elec       q    Type
                         _______ _______ _______ _____ _____    ______ ____

>  <TORSDO>
F 10

$$$$
=
 OpenBabel11062412343D

 33 34  0  0  1  0  0  0  0  0999 V2000
  182.6520  179.1530  143.9480 C   0  0  0  0  0  3  0  0  0  0  0  0
  181.0200  178.8110  141.4050 C   0  0  0  0  0  0  0  0  0  0  0  0
  180.6240  179.1040  142.6080 N   0  0  0  0  0  0  0  0  0  0  0  0
  180.2360  179.2630  140.3050 N   0  0  0  0  0  1  0  0  0  0  0  0
  181.2610  178.6280  143.8290 C   0  0  0  0  0  2  0  0  0  0  0  0
  183.3690  178.0980  141.8320 C   0  0  0  0  0  3  0  0  0  0  0  0
  183.6030  178.9060  143.0430 C   0  0  0  0  0  0  0  0  0  0  0  0
  182.2310  177.9990  141.1310 C   0  0  0  0  0  0  0  0  0  0  0  0
  185.0200  179.3200  143.3150 C   0  0  1  0  0  3  0  0  0  0  0  0
  185.1280  179.8530  144.6020 O   0  0  0  0  0  1  0  0  0  0  0  0
  186.0180  178.1680  143.1230 C   0  0  1  0  0  3  0  0  0  0  0  0
  186.9070  178.3840  141.8980 C   0  0  0  0  0  1  0  0  0  0  0  0
  186.0270  177.2590  145.4840 C   0  0  0  0  0  1  0  0  0  0  0  0
  186.8470  177.9300  144.3950 C   0  0  1  0  0  3  0  0  0  0  0  0
  188.1330  177.1970  144.1520 C   0  0  0  0  0  0  0  0  0  0  0  0
  188.1170  176.1370  143.4700 O   0  0  0  0  0  0  0  0  0  0  0  0
  189.3610  177.6840  144.7030 N   0  0  0  0  0  2  0  0  0  0  0  0
  190.6370  177.0130  144.5000 C   0  0  2  0  0  3  0  0  0  0  0  0
  191.3520  176.8700  145.8290 C   0  0  0  0  0  1  0  0  0  0  0  0
  191.4870  177.7880  143.5460 C   0  0  0  0  0  0  0  0  0  0  0  0
  191.7230  179.0030  143.7670 O   0  0  0  0  0  1  0  0  0  0  0  0
  192.0060  177.1780  142.4090 O   0  0  0  0  0  0  0  0  0  0  0  0
  182.2440  177.1160  139.9240 C   0  0  0  0  0  2  0  0  0  0  0  0
  182.7390  177.8320  138.7950 O   0  0  0  0  0  0  0  0  0  0  0  0
  186.6790  177.5610  137.3820 C   0  0  0  0  0  3  0  0  0  0  0  0
  185.0070  178.7740  138.5540 C   0  0  0  0  0  0  0  0  0  0  0  0
  185.7790  176.5350  137.1100 C   0  0  0  0  0  3  0  0  0  0  0  0
  184.0580  177.7490  138.3170 C   0  0  0  0  0  0  0  0  0  0  0  0
  184.4630  176.6170  137.5670 C   0  0  0  0  0  0  0  0  0  0  0  0
  186.2770  178.6470  138.0880 N   0  0  0  0  0  0  0  0  0  0  0  0
  184.6490  179.9700  139.2400 N   0  0  0  0  0  1  0  0  0  0  0  0
  183.6170  175.5380  137.2600 O   0  0  0  0  0  0  0  0  0  0  0  0
  183.9450  174.1670  137.4390 C   0  0  0  0  0  1  0  0  0  0  0  0
  2  3  2  0  0  0  0
  3  5  1  0  0  0  0
  4  2  1  0  0  0  0
  5  1  1  0  0  0  0
  6  7  1  0  0  0  0
  7  9  1  0  0  0  0
  7  1  2  0  0  0  0
  8  2  1  0  0  0  0
  8  6  2  0  0  0  0
  9 10  1  1  0  0  0
 11 12  1  6  0  0  0
 11  9  1  0  0  0  0
 11 14  1  0  0  0  0
 14 13  1  1  0  0  0
 15 14  1  0  0  0  0
 15 17  1  0  0  0  0
 16 15  2  0  0  0  0
 18 17  1  0  0  0  0
 18 19  1  1  0  0  0
 20 21  1  0  0  0  0
 20 18  1  0  0  0  0
 22 20  2  0  0  0  0
 23  8  1  0  0  0  0
 24 23  1  0  0  0  0
 25 30  1  0  0  0  0
 26 31  1  0  0  0  0
 27 25  2  0  0  0  0
 27 29  1  0  0  0  0
 28 26  1  0  0  0  0
 28 24  1  0  0  0  0
 29 28  2  0  0  0  0
 30 26  2  0  0  0  0
 32 33  1  0  0  0  0
 32 29  1  0  0  0  0
M  END
>  <MODEL>
8

>  <REMARK>
 VINA RESULT:      -7.2      2.871      6.022
  Name = 
  10 active torsions:
  status: ('A' for Active; 'I' for Inactive)
    1  A    between atoms: O_1  and  C_29
    2  A    between atoms: CA_5  and  C_11
    3  A    between atoms: CA_5  and  N_19
    4  A    between atoms: C_7  and  C_33
    5  A    between atoms: C_14  and  C_17
    6  A    between atoms: C_14  and  C_23
    7  A    between atoms: C_17  and  C_33
    8  A    between atoms: O_24  and  C_25
    9  A    between atoms: O_24  and  C_27
   10  A    between atoms: C_25  and  C_26
                            x       y       z     vdW  Elec       q    Type
                         _______ _______ _______ _____ _____    ______ ____

>  <TORSDO>
F 10

$$$$
=
 OpenBabel11062412343D

 33 34  0  0  1  0  0  0  0  0999 V2000
  190.6330  177.1250  140.2220 C   0  0  0  0  0  3  0  0  0  0  0  0
  188.8550  176.3770  137.8710 C   0  0  0  0  0  0  0  0  0  0  0  0
  190.1300  176.1870  138.0360 N   0  0  0  0  0  0  0  0  0  0  0  0
  188.1390  175.4770  137.0300 N   0  0  0  0  0  1  0  0  0  0  0  0
  191.0110  177.0780  138.7800 C   0  0  0  0  0  2  0  0  0  0  0  0
  188.3600  177.9610  139.7300 C   0  0  0  0  0  3  0  0  0  0  0  0
  189.4320  177.5300  140.6460 C   0  0  0  0  0  0  0  0  0  0  0  0
  188.1220  177.5090  138.4920 C   0  0  0  0  0  0  0  0  0  0  0  0
  189.1820  177.7180  142.1140 C   0  0  1  0  0  3  0  0  0  0  0  0
  188.2690  176.7640  142.5730 O   0  0  0  0  0  1  0  0  0  0  0  0
  190.4750  177.6690  142.9440 C   0  0  1  0  0  3  0  0  0  0  0  0
  190.8530  179.0470  143.4870 C   0  0  0  0  0  1  0  0  0  0  0  0
  191.6690  175.8300  144.2050 C   0  0  0  0  0  1  0  0  0  0  0  0
  190.3800  176.6210  144.0630 C   0  0  1  0  0  3  0  0  0  0  0  0
  189.9370  177.1810  145.3830 C   0  0  0  0  0  0  0  0  0  0  0  0
  190.8060  177.4940  146.2390 O   0  0  0  0  0  0  0  0  0  0  0  0
  188.5440  177.3410  145.6720 N   0  0  0  0  0  2  0  0  0  0  0  0
  188.0590  177.8790  146.9350 C   0  0  2  0  0  3  0  0  0  0  0  0
  188.2380  176.8440  148.0290 C   0  0  0  0  0  1  0  0  0  0  0  0
  186.6180  178.2550  146.8220 C   0  0  0  0  0  0  0  0  0  0  0  0
  185.8150  177.4810  146.2400 O   0  0  0  0  0  0  0  0  0  0  0  0
  186.1620  179.4610  147.3420 O   0  0  0  0  0  1  0  0  0  0  0  0
  186.9590  178.0980  137.7580 C   0  0  0  0  0  2  0  0  0  0  0  0
  185.7440  177.5010  138.2010 O   0  0  0  0  0  0  0  0  0  0  0  0
  182.0050  179.4020  138.1870 C   0  0  0  0  0  3  0  0  0  0  0  0
  183.4920  177.8120  137.2390 C   0  0  0  0  0  0  0  0  0  0  0  0
  182.9590  179.7700  139.1300 C   0  0  0  0  0  3  0  0  0  0  0  0
  184.4930  178.1410  138.1870 C   0  0  0  0  0  0  0  0  0  0  0  0
  184.2100  179.1510  139.1400 C   0  0  0  0  0  0  0  0  0  0  0  0
  182.2900  178.4440  137.2700 N   0  0  0  0  0  0  0  0  0  0  0  0
  183.7340  176.8570  136.2100 N   0  0  0  0  0  1  0  0  0  0  0  0
  185.1160  179.5710  140.1280 O   0  0  0  0  0  0  0  0  0  0  0  0
  185.2330  179.0000  141.4240 C   0  0  0  0  0  1  0  0  0  0  0  0
  1  7  2  0  0  0  0
  2  3  2  0  0  0  0
  2  8  1  0  0  0  0
  3  5  1  0  0  0  0
  4  2  1  0  0  0  0
  5  1  1  0  0  0  0
  6  7  1  0  0  0  0
  7  9  1  0  0  0  0
  8  6  2  0  0  0  0
  9 10  1  1  0  0  0
  9 11  1  0  0  0  0
 11 12  1  1  0  0  0
 11 14  1  0  0  0  0
 14 13  1  1  0  0  0
 14 15  1  0  0  0  0
 15 17  1  0  0  0  0
 15 16  2  0  0  0  0
 17 18  1  0  0  0  0
 18 19  1  1  0  0  0
 20 18  1  0  0  0  0
 20 22  1  0  0  0  0
 21 20  2  0  0  0  0
 23 24  1  0  0  0  0
 23  8  1  0  0  0  0
 25 27  1  0  0  0  0
 26 30  1  0  0  0  0
 26 28  2  0  0  0  0
 27 29  2  0  0  0  0
 28 24  1  0  0  0  0
 28 29  1  0  0  0  0
 29 32  1  0  0  0  0
 30 25  2  0  0  0  0
 31 26  1  0  0  0  0
 32 33  1  0  0  0  0
M  END
>  <MODEL>
9

>  <REMARK>
 VINA RESULT:      -7.1      2.629      6.620
  Name = 
  10 active torsions:
  status: ('A' for Active; 'I' for Inactive)
    1  A    between atoms: O_1  and  C_29
    2  A    between atoms: CA_5  and  C_11
    3  A    between atoms: CA_5  and  N_19
    4  A    between atoms: C_7  and  C_33
    5  A    between atoms: C_14  and  C_17
    6  A    between atoms: C_14  and  C_23
    7  A    between atoms: C_17  and  C_33
    8  A    between atoms: O_24  and  C_25
    9  A    between atoms: O_24  and  C_27
   10  A    between atoms: C_25  and  C_26
                            x       y       z     vdW  Elec       q    Type
                         _______ _______ _______ _____ _____    ______ ____

>  <TORSDO>
F 10

$$$$
