=
 OpenBabel11062416283D

 46 50  0  0  1  0  0  0  0  0999 V2000
  182.4040  179.9400  143.9460 C   0  0  0  0  0  2  0  0  0  0  0  0
  183.7070  179.3660  144.5420 C   0  0  1  0  0  3  0  0  0  0  0  0
  183.5300  176.5780  137.6810 C   0  0  0  0  0  2  0  0  0  0  0  0
  184.7120  176.9470  136.8010 C   0  0  0  0  0  2  0  0  0  0  0  0
  181.0070  176.8620  137.8610 C   0  0  0  0  0  0  0  0  0  0  0  0
  182.2130  176.8370  136.9500 C   0  0  2  0  0  3  0  0  0  0  0  0
  181.1780  177.5370  140.2330 C   0  0  0  0  0  2  0  0  0  0  0  0
  185.8520  178.3100  143.7870 N   0  0  1  0  0  0  0  0  0  0  0  0
  183.4150  178.6970  145.7320 O   0  0  0  0  0  1  0  0  0  0  0  0
  185.3160  178.1550  141.4100 C   0  0  1  0  0  3  0  0  0  0  0  0
  181.0930  176.3570  139.2790 C   0  0  1  0  0  3  0  0  0  0  0  0
  181.8000  179.0340  142.8570 C   0  0  0  0  0  2  0  0  0  0  0  0
  186.3900  177.9330  142.4720 C   0  0  0  0  0  2  0  0  0  0  0  0
  186.1720  178.4440  138.1770 C   0  0  0  0  0  2  0  0  0  0  0  0
  184.2440  178.8960  142.1630 C   0  0  1  0  0  3  0  0  0  0  0  0
  185.1810  178.7710  139.1080 O   0  0  0  0  0  0  0  0  0  0  0  0
  185.8780  179.0150  140.2940 C   0  0  0  0  0  2  0  0  0  0  0  0
  182.7820  178.7820  141.6920 C   0  0  1  0  0  3  0  0  0  0  0  0
  185.9700  177.0320  137.6440 C   0  0  0  0  0  2  0  0  0  0  0  0
  179.9570  177.3390  137.4430 O   0  0  0  0  0  0  0  0  0  0  0  0
  184.4140  178.4050  143.5730 C   0  0  2  0  0  3  0  0  0  0  0  0
  182.4770  177.4470  141.0250 C   0  0  0  0  0  2  0  0  0  0  0  0
  186.1030  177.1870  144.6950 C   0  0  1  0  0  3  0  0  0  0  0  0
  187.5300  177.1740  145.2670 C   0  0  2  0  0  3  0  0  0  0  0  0
  186.3650  177.6410  146.1360 C   0  0  1  0  0  3  0  0  0  0  0  0
  186.3400  179.0350  146.2690 O   0  0  0  0  0  1  0  0  0  0  0  0
  188.3430  178.2970  144.7860 N   0  0  0  0  0  2  0  0  0  0  0  0
  189.7550  178.0950  145.1270 C   0  0  2  0  0  3  0  0  0  0  0  0
  190.8610  178.8830  143.9110 S   0  0  0  0  0  1  0  0  0  0  0  0
  190.0670  176.6770  145.2570 N   0  0  0  0  0  2  0  0  0  0  0  0
  191.5160  176.5470  145.2200 C   0  0  1  0  0  3  0  0  0  0  0  0
  192.0180  176.1440  146.5720 C   0  0  0  0  0  0  0  0  0  0  0  0
  192.5390  175.0090  146.7460 O   0  0  0  0  0  0  0  0  0  0  0  0
  191.9230  177.0330  147.6360 O   0  0  0  0  0  1  0  0  0  0  0  0
  191.9120  175.5170  144.1750 C   0  0  0  0  0  2  0  0  0  0  0  0
  190.8810  175.3630  143.2480 O   0  0  0  0  0  1  0  0  0  0  0  0
  180.1570  174.1740  139.2140 C   0  0  0  0  0  0  0  0  0  0  0  0
  179.9060  175.4640  139.6350 C   0  0  1  0  0  3  0  0  0  0  0  0
  180.2590  173.3000  138.3160 O   0  0  0  0  0  0  0  0  0  0  0  0
  180.2550  174.6050  140.6460 O   0  0  0  0  0  0  0  0  0  0  0  0
  182.0340  175.9470  135.7980 N   0  0  0  0  0  2  0  0  0  0  0  0
  182.1270  174.5480  136.1960 C   0  0  0  0  0  2  0  0  0  0  0  0
  183.1580  173.8470  135.3350 C   0  0  0  0  0  2  0  0  0  0  0  0
  184.0820  173.1700  137.4310 O   0  0  0  0  0  1  0  0  0  0  0  0
  184.8270  172.0210  135.5880 O   0  0  0  0  0  0  0  0  0  0  0  0
  184.0410  172.9990  136.1810 C   0  0  0  0  0  0  0  0  0  0  0  0
  1  2  1  0  0  0  0
  2  9  1  1  0  0  0
  4 19  1  0  0  0  0
  4  3  1  0  0  0  0
  5 11  1  0  0  0  0
  6 41  1  6  0  0  0
  6  3  1  0  0  0  0
  6  5  1  0  0  0  0
  7 22  1  0  0  0  0
  8 13  1  6  0  0  0
  8 23  1  0  0  0  0
 10 17  1  6  0  0  0
 10 15  1  0  0  0  0
 10 13  1  0  0  0  0
 11 38  1  0  0  0  0
 11  7  1  1  0  0  0
 12  1  1  0  0  0  0
 14 16  1  0  0  0  0
 15 21  1  0  0  0  0
 16 17  1  0  0  0  0
 18 15  1  0  0  0  0
 18 12  1  0  0  0  0
 19 14  1  0  0  0  0
 20  5  2  0  0  0  0
 21  8  1  0  0  0  0
 21  2  1  0  0  0  0
 22 18  1  0  0  0  0
 23 24  1  0  0  0  0
 23 25  1  0  0  0  0
 24 25  1  0  0  0  0
 25 26  1  0  0  0  0
 27 28  1  0  0  0  0
 27 24  1  0  0  0  0
 28 30  1  0  0  0  0
 29 28  1  0  0  0  0
 31 30  1  0  0  0  0
 31 32  1  0  0  0  0
 32 33  2  0  0  0  0
 32 34  1  0  0  0  0
 35 31  1  0  0  0  0
 36 35  1  0  0  0  0
 37 38  1  0  0  0  0
 37 40  1  0  0  0  0
 38 40  1  0  0  0  0
 39 37  2  0  0  0  0
 41 42  1  0  0  0  0
 43 46  1  0  0  0  0
 43 42  1  0  0  0  0
 45 46  2  0  0  0  0
 46 44  1  0  0  0  0
M  END
>  <MODEL>
1

>  <REMARK>
 VINA RESULT:      -6.6      0.000      0.000
  Name = 
  12 active torsions:
  status: ('A' for Active; 'I' for Inactive)
    1  A    between atoms: C_1  and  N_25
    2  A    between atoms: C_2  and  CA_14
    3  A    between atoms: C_12  and  N_32
    4  A    between atoms: C_12  and  N_33
    5  A    between atoms: N_13  and  C_17
    6  A    between atoms: N_13  and  C_23
    7  A    between atoms: CA_14  and  CB_22
    8  A    between atoms: CA_14  and  N_33
    9  A    between atoms: C_15  and  C_31
   10  A    between atoms: C_20  and  N_32
   11  A    between atoms: C_21  and  C_34
   12  A    between atoms: C_23  and  C_34
                            x       y       z     vdW  Elec       q    Type
                         _______ _______ _______ _____ _____    ______ ____

>  <TORSDO>
F 12

$$$$
=
 OpenBabel11062416283D

 46 50  0  0  1  0  0  0  0  0999 V2000
  182.3400  179.8940  143.9640 C   0  0  0  0  0  2  0  0  0  0  0  0
  183.6850  179.3220  144.4630 C   0  0  1  0  0  3  0  0  0  0  0  0
  183.0170  176.5430  137.6300 C   0  0  0  0  0  2  0  0  0  0  0  0
  184.1300  176.9160  136.6660 C   0  0  0  0  0  2  0  0  0  0  0  0
  180.5120  176.8210  137.9930 C   0  0  0  0  0  0  0  0  0  0  0  0
  181.6490  176.8000  136.9960 C   0  0  2  0  0  3  0  0  0  0  0  0
  180.8540  177.4940  140.3470 C   0  0  0  0  0  2  0  0  0  0  0  0
  185.7720  178.2720  143.5530 N   0  0  1  0  0  0  0  0  0  0  0  0
  183.4810  178.6510  145.6700 O   0  0  0  0  0  1  0  0  0  0  0  0
  185.0650  178.1190  141.2210 C   0  0  1  0  0  3  0  0  0  0  0  0
  180.7020  176.3150  139.4000 C   0  0  1  0  0  3  0  0  0  0  0  0
  181.6610  178.9880  142.9210 C   0  0  0  0  0  2  0  0  0  0  0  0
  186.2130  177.8980  142.2020 C   0  0  0  0  0  2  0  0  0  0  0  0
  185.6830  178.4140  137.9350 C   0  0  0  0  0  2  0  0  0  0  0  0
  184.0490  178.8570  142.0510 C   0  0  1  0  0  3  0  0  0  0  0  0
  184.7620  178.7370  138.9350 O   0  0  0  0  0  0  0  0  0  0  0  0
  185.5430  178.9820  140.0680 C   0  0  0  0  0  2  0  0  0  0  0  0
  182.5560  178.7400  141.6880 C   0  0  1  0  0  3  0  0  0  0  0  0
  185.4460  177.0030  137.4170 C   0  0  0  0  0  2  0  0  0  0  0  0
  179.4340  177.2960  137.6530 O   0  0  0  0  0  0  0  0  0  0  0  0
  184.3210  178.3650  143.4440 C   0  0  2  0  0  3  0  0  0  0  0  0
  182.2070  177.4050  141.0430 C   0  0  0  0  0  2  0  0  0  0  0  0
  186.0910  177.1490  144.4390 C   0  0  1  0  0  3  0  0  0  0  0  0
  187.5710  177.0990  144.8510 C   0  0  2  0  0  3  0  0  0  0  0  0
  186.5220  177.6050  145.8390 C   0  0  1  0  0  3  0  0  0  0  0  0
  186.5490  179.0000  145.9590 O   0  0  0  0  0  1  0  0  0  0  0  0
  188.3560  178.1970  144.2730 N   0  0  0  0  0  2  0  0  0  0  0  0
  189.7220  178.1880  144.8060 C   0  0  2  0  0  3  0  0  0  0  0  0
  190.9520  178.5530  143.5110 S   0  0  0  0  0  1  0  0  0  0  0  0
  190.0270  176.9200  145.4560 N   0  0  0  0  0  2  0  0  0  0  0  0
  190.6370  177.2260  146.7410 C   0  0  1  0  0  3  0  0  0  0  0  0
  189.5720  177.3590  147.7840 C   0  0  0  0  0  0  0  0  0  0  0  0
  189.4270  178.4430  148.4120 O   0  0  0  0  0  1  0  0  0  0  0  0
  188.7290  176.2860  148.0490 O   0  0  0  0  0  0  0  0  0  0  0  0
  191.6190  176.1280  147.1170 C   0  0  0  0  0  2  0  0  0  0  0  0
  192.3980  176.5400  148.1980 O   0  0  0  0  0  1  0  0  0  0  0  0
  179.8490  174.1020  139.5550 C   0  0  0  0  0  0  0  0  0  0  0  0
  179.5470  175.4180  139.8400 C   0  0  1  0  0  3  0  0  0  0  0  0
  179.9910  173.1450  138.7520 O   0  0  0  0  0  0  0  0  0  0  0  0
  179.9170  174.6810  140.9360 O   0  0  0  0  0  0  0  0  0  0  0  0
  181.3890  175.9110  135.8590 N   0  0  0  0  0  2  0  0  0  0  0  0
  181.2660  174.5250  136.2930 C   0  0  0  0  0  2  0  0  0  0  0  0
  182.3550  173.6960  135.6450 C   0  0  0  0  0  2  0  0  0  0  0  0
  182.4880  171.6420  136.8560 O   0  0  0  0  0  0  0  0  0  0  0  0
  184.0880  173.2110  137.3630 O   0  0  0  0  0  1  0  0  0  0  0  0
  182.9740  172.7880  136.6490 C   0  0  0  0  0  0  0  0  0  0  0  0
  1  2  1  0  0  0  0
  2  9  1  1  0  0  0
  4 19  1  0  0  0  0
  4  3  1  0  0  0  0
  5 11  1  0  0  0  0
  6 41  1  6  0  0  0
  6  3  1  0  0  0  0
  6  5  1  0  0  0  0
  7 22  1  0  0  0  0
  8 13  1  6  0  0  0
  8 23  1  0  0  0  0
 10 17  1  6  0  0  0
 10 15  1  0  0  0  0
 10 13  1  0  0  0  0
 11 38  1  0  0  0  0
 11  7  1  1  0  0  0
 12  1  1  0  0  0  0
 14 16  1  0  0  0  0
 15 21  1  0  0  0  0
 16 17  1  0  0  0  0
 18 15  1  0  0  0  0
 18 12  1  0  0  0  0
 19 14  1  0  0  0  0
 20  5  2  0  0  0  0
 21  8  1  0  0  0  0
 21  2  1  0  0  0  0
 22 18  1  0  0  0  0
 23 24  1  0  0  0  0
 23 25  1  0  0  0  0
 24 25  1  0  0  0  0
 25 26  1  0  0  0  0
 27 28  1  0  0  0  0
 27 24  1  0  0  0  0
 28 30  1  0  0  0  0
 29 28  1  0  0  0  0
 30 31  1  0  0  0  0
 31 35  1  0  0  0  0
 31 32  1  0  0  0  0
 32 34  2  0  0  0  0
 32 33  1  0  0  0  0
 35 36  1  0  0  0  0
 37 38  1  0  0  0  0
 37 40  1  0  0  0  0
 38 40  1  0  0  0  0
 39 37  2  0  0  0  0
 41 42  1  0  0  0  0
 43 42  1  0  0  0  0
 43 46  1  0  0  0  0
 46 44  2  0  0  0  0
 46 45  1  0  0  0  0
M  END
>  <MODEL>
2

>  <REMARK>
 VINA RESULT:      -6.6      1.147      1.504
  Name = 
  12 active torsions:
  status: ('A' for Active; 'I' for Inactive)
    1  A    between atoms: C_1  and  N_25
    2  A    between atoms: C_2  and  CA_14
    3  A    between atoms: C_12  and  N_32
    4  A    between atoms: C_12  and  N_33
    5  A    between atoms: N_13  and  C_17
    6  A    between atoms: N_13  and  C_23
    7  A    between atoms: CA_14  and  CB_22
    8  A    between atoms: CA_14  and  N_33
    9  A    between atoms: C_15  and  C_31
   10  A    between atoms: C_20  and  N_32
   11  A    between atoms: C_21  and  C_34
   12  A    between atoms: C_23  and  C_34
                            x       y       z     vdW  Elec       q    Type
                         _______ _______ _______ _____ _____    ______ ____

>  <TORSDO>
F 12

$$$$
=
 OpenBabel11062416283D

 46 50  0  0  1  0  0  0  0  0999 V2000
  183.4440  179.9780  143.9660 C   0  0  0  0  0  2  0  0  0  0  0  0
  184.5950  179.3120  144.7500 C   0  0  1  0  0  3  0  0  0  0  0  0
  185.2960  176.5570  137.9100 C   0  0  0  0  0  2  0  0  0  0  0  0
  186.6220  176.8450  137.2280 C   0  0  0  0  0  2  0  0  0  0  0  0
  182.8000  177.0170  137.7000 C   0  0  0  0  0  0  0  0  0  0  0  0
  184.1290  176.9100  136.9860 C   0  0  2  0  0  3  0  0  0  0  0  0
  182.6470  177.6740  140.0790 C   0  0  0  0  0  2  0  0  0  0  0  0
  186.7540  178.1110  144.3230 N   0  0  1  0  0  0  0  0  0  0  0  0
  184.0760  178.6630  145.8720 O   0  0  0  0  0  1  0  0  0  0  0  0
  186.5850  177.9980  141.8900 C   0  0  1  0  0  3  0  0  0  0  0  0
  182.6300  176.5050  139.1080 C   0  0  1  0  0  3  0  0  0  0  0  0
  182.9560  179.1180  142.7860 C   0  0  0  0  0  2  0  0  0  0  0  0
  187.4620  177.6990  143.1020 C   0  0  0  0  0  2  0  0  0  0  0  0
  187.9500  178.2330  138.8320 C   0  0  0  0  0  2  0  0  0  0  0  0
  185.4620  178.8110  142.4770 C   0  0  1  0  0  3  0  0  0  0  0  0
  186.8520  178.6260  139.6020 O   0  0  0  0  0  0  0  0  0  0  0  0
  187.3710  178.8190  140.8850 C   0  0  0  0  0  2  0  0  0  0  0  0
  184.0860  178.8010  141.7840 C   0  0  1  0  0  3  0  0  0  0  0  0
  187.7360  176.8400  138.2570 C   0  0  0  0  0  2  0  0  0  0  0  0
  181.8640  177.5670  137.1310 O   0  0  0  0  0  0  0  0  0  0  0  0
  185.3760  178.3070  143.8900 C   0  0  2  0  0  3  0  0  0  0  0  0
  183.7980  177.4920  141.0610 C   0  0  0  0  0  2  0  0  0  0  0  0
  186.7830  176.9710  145.2440 C   0  0  1  0  0  3  0  0  0  0  0  0
  188.1610  176.7430  145.8890 C   0  0  2  0  0  3  0  0  0  0  0  0
  187.0400  177.3930  146.6970 C   0  0  1  0  0  3  0  0  0  0  0  0
  187.2230  178.7750  146.8250 O   0  0  0  0  0  1  0  0  0  0  0  0
  189.1600  177.7240  145.4480 N   0  0  0  0  0  2  0  0  0  0  0  0
  190.4930  177.1140  145.3990 C   0  0  2  0  0  3  0  0  0  0  0  0
  191.1350  176.7630  147.0690 S   0  0  0  0  0  1  0  0  0  0  0  0
  191.4280  177.9510  144.6580 N   0  0  0  0  0  2  0  0  0  0  0  0
  191.7200  177.2700  143.4050 C   0  0  1  0  0  3  0  0  0  0  0  0
  191.4210  175.8100  143.5440 C   0  0  0  0  0  0  0  0  0  0  0  0
  192.1750  175.0680  144.2310 O   0  0  0  0  0  1  0  0  0  0  0  0
  190.2970  175.2740  142.9270 O   0  0  0  0  0  0  0  0  0  0  0  0
  190.8940  177.8800  142.2850 C   0  0  0  0  0  2  0  0  0  0  0  0
  191.4600  177.5610  141.0510 O   0  0  0  0  0  1  0  0  0  0  0  0
  180.4380  176.4120  140.0190 C   0  0  0  0  0  0  0  0  0  0  0  0
  181.3440  175.6960  139.2640 C   0  0  1  0  0  3  0  0  0  0  0  0
  180.0200  176.8670  141.1140 O   0  0  0  0  0  0  0  0  0  0  0  0
  180.3380  176.2700  138.5300 O   0  0  0  0  0  0  0  0  0  0  0  0
  184.0710  176.0370  135.8090 N   0  0  0  0  0  2  0  0  0  0  0  0
  183.6670  174.6850  136.1770 C   0  0  0  0  0  2  0  0  0  0  0  0
  184.6700  173.6930  135.6250 C   0  0  0  0  0  2  0  0  0  0  0  0
  186.8250  173.1430  136.4950 O   0  0  0  0  0  0  0  0  0  0  0  0
  185.0620  172.8920  137.9470 O   0  0  0  0  0  1  0  0  0  0  0  0
  185.5830  173.2310  136.7050 C   0  0  0  0  0  0  0  0  0  0  0  0
  1  2  1  0  0  0  0
  2  9  1  1  0  0  0
  4  3  1  0  0  0  0
  4 19  1  0  0  0  0
  5 11  1  0  0  0  0
  6 41  1  6  0  0  0
  6  5  1  0  0  0  0
  6  3  1  0  0  0  0
  7 22  1  0  0  0  0
  8 13  1  6  0  0  0
  8 23  1  0  0  0  0
 10 17  1  6  0  0  0
 10 15  1  0  0  0  0
 10 13  1  0  0  0  0
 11 38  1  0  0  0  0
 11  7  1  1  0  0  0
 12  1  1  0  0  0  0
 14 16  1  0  0  0  0
 15 21  1  0  0  0  0
 16 17  1  0  0  0  0
 18 15  1  0  0  0  0
 18 12  1  0  0  0  0
 19 14  1  0  0  0  0
 20  5  2  0  0  0  0
 21  8  1  0  0  0  0
 21  2  1  0  0  0  0
 22 18  1  0  0  0  0
 23 24  1  0  0  0  0
 23 25  1  0  0  0  0
 24 25  1  0  0  0  0
 25 26  1  0  0  0  0
 27 24  1  0  0  0  0
 28 27  1  0  0  0  0
 28 29  1  0  0  0  0
 30 28  1  0  0  0  0
 31 32  1  0  0  0  0
 31 30  1  0  0  0  0
 32 33  1  0  0  0  0
 34 32  2  0  0  0  0
 35 31  1  0  0  0  0
 36 35  1  0  0  0  0
 37 39  2  0  0  0  0
 38 37  1  0  0  0  0
 40 38  1  0  0  0  0
 40 37  1  0  0  0  0
 41 42  1  0  0  0  0
 43 42  1  0  0  0  0
 43 46  1  0  0  0  0
 44 46  2  0  0  0  0
 46 45  1  0  0  0  0
M  END
>  <MODEL>
3

>  <REMARK>
 VINA RESULT:      -6.6      1.606      2.112
  Name = 
  12 active torsions:
  status: ('A' for Active; 'I' for Inactive)
    1  A    between atoms: C_1  and  N_25
    2  A    between atoms: C_2  and  CA_14
    3  A    between atoms: C_12  and  N_32
    4  A    between atoms: C_12  and  N_33
    5  A    between atoms: N_13  and  C_17
    6  A    between atoms: N_13  and  C_23
    7  A    between atoms: CA_14  and  CB_22
    8  A    between atoms: CA_14  and  N_33
    9  A    between atoms: C_15  and  C_31
   10  A    between atoms: C_20  and  N_32
   11  A    between atoms: C_21  and  C_34
   12  A    between atoms: C_23  and  C_34
                            x       y       z     vdW  Elec       q    Type
                         _______ _______ _______ _____ _____    ______ ____

>  <TORSDO>
F 12

$$$$
=
 OpenBabel11062416283D

 46 50  0  0  1  0  0  0  0  0999 V2000
  188.8890  178.9910  137.2490 C   0  0  0  0  0  2  0  0  0  0  0  0
  187.6450  178.2890  136.6630 C   0  0  1  0  0  3  0  0  0  0  0  0
  186.7030  177.7190  143.9880 C   0  0  0  0  0  2  0  0  0  0  0  0
  185.4390  178.3620  144.5320 C   0  0  0  0  0  2  0  0  0  0  0  0
  189.2410  177.8830  144.1110 C   0  0  0  0  0  0  0  0  0  0  0  0
  187.9230  178.1620  144.7980 C   0  0  2  0  0  3  0  0  0  0  0  0
  189.4390  177.8080  141.6480 C   0  0  0  0  0  2  0  0  0  0  0  0
  185.3530  177.5560  137.3690 N   0  0  1  0  0  0  0  0  0  0  0  0
  188.0530  177.2830  135.7840 O   0  0  0  0  0  1  0  0  0  0  0  0
  185.5480  178.1210  139.7360 C   0  0  1  0  0  3  0  0  0  0  0  0
  189.3160  176.9730  142.9120 C   0  0  1  0  0  3  0  0  0  0  0  0
  189.2780  178.4470  138.6350 C   0  0  0  0  0  2  0  0  0  0  0  0
  184.6180  177.6080  138.6400 C   0  0  0  0  0  2  0  0  0  0  0  0
  184.2800  179.3990  142.5700 C   0  0  0  0  0  2  0  0  0  0  0  0
  186.7590  178.5770  138.9650 C   0  0  1  0  0  3  0  0  0  0  0  0
  185.4080  179.4060  141.7430 O   0  0  0  0  0  0  0  0  0  0  0  0
  184.8960  179.2920  140.4470 C   0  0  0  0  0  2  0  0  0  0  0  0
  188.1330  178.5820  139.6620 C   0  0  1  0  0  3  0  0  0  0  0  0
  184.3170  178.2120  143.5230 C   0  0  0  0  0  2  0  0  0  0  0  0
  190.2520  178.4430  144.5200 O   0  0  0  0  0  0  0  0  0  0  0  0
  186.7520  177.6830  137.7570 C   0  0  2  0  0  3  0  0  0  0  0  0
  188.2570  177.5070  140.7340 C   0  0  0  0  0  2  0  0  0  0  0  0
  185.1560  176.2160  136.8100 C   0  0  1  0  0  3  0  0  0  0  0  0
  183.7550  176.0040  136.2130 C   0  0  2  0  0  3  0  0  0  0  0  0
  184.9500  176.2340  135.2900 C   0  0  1  0  0  3  0  0  0  0  0  0
  184.9620  177.5330  134.7670 O   0  0  0  0  0  1  0  0  0  0  0  0
  182.9070  177.1980  136.3220 N   0  0  0  0  0  2  0  0  0  0  0  0
  181.5500  176.8290  136.7360 C   0  0  2  0  0  3  0  0  0  0  0  0
  180.7360  175.7630  135.5010 S   0  0  0  0  0  1  0  0  0  0  0  0
  180.7410  178.0110  137.0030 N   0  0  0  0  0  2  0  0  0  0  0  0
  181.3720  178.7310  138.0980 C   0  0  1  0  0  3  0  0  0  0  0  0
  181.3950  180.1960  137.7900 C   0  0  0  0  0  0  0  0  0  0  0  0
  180.8380  180.6360  136.7480 O   0  0  0  0  0  0  0  0  0  0  0  0
  182.0200  181.0750  138.6660 O   0  0  0  0  0  1  0  0  0  0  0  0
  180.6140  178.4690  139.3890 C   0  0  0  0  0  2  0  0  0  0  0  0
  181.5130  178.1860  140.4170 O   0  0  0  0  0  1  0  0  0  0  0  0
  191.6540  176.6240  142.6690 C   0  0  0  0  0  0  0  0  0  0  0  0
  190.4800  175.9900  143.0210 C   0  0  1  0  0  3  0  0  0  0  0  0
  192.4390  177.1130  141.8180 O   0  0  0  0  0  0  0  0  0  0  0  0
  191.2750  176.3220  144.0870 O   0  0  0  0  0  0  0  0  0  0  0  0
  187.8850  177.6610  146.1750 N   0  0  0  0  0  2  0  0  0  0  0  0
  189.1840  177.7980  146.8210 C   0  0  0  0  0  2  0  0  0  0  0  0
  189.6410  176.4450  147.3250 C   0  0  0  0  0  2  0  0  0  0  0  0
  191.7030  177.4870  147.9310 O   0  0  0  0  0  1  0  0  0  0  0  0
  191.8440  175.2910  147.2710 O   0  0  0  0  0  0  0  0  0  0  0  0
  191.1150  176.4450  147.5300 C   0  0  0  0  0  0  0  0  0  0  0  0
  1 12  1  0  0  0  0
  2  9  1  6  0  0  0
  2  1  1  0  0  0  0
  2 21  1  0  0  0  0
  3  4  1  0  0  0  0
  3  6  1  0  0  0  0
  5 20  2  0  0  0  0
  5  6  1  0  0  0  0
  6 41  1  1  0  0  0
  8 21  1  0  0  0  0
  8 13  1  1  0  0  0
 10 13  1  6  0  0  0
 10 17  1  0  0  0  0
 11  7  1  6  0  0  0
 11 38  1  0  0  0  0
 11  5  1  0  0  0  0
 12 18  1  0  0  0  0
 14 19  1  0  0  0  0
 15 18  1  0  0  0  0
 15 10  1  0  0  0  0
 16 14  1  0  0  0  0
 17 16  1  0  0  0  0
 18 22  1  0  0  0  0
 19  4  1  0  0  0  0
 21 15  1  0  0  0  0
 22  7  1  0  0  0  0
 23  8  1  0  0  0  0
 24 27  1  0  0  0  0
 24 23  1  0  0  0  0
 25 24  1  0  0  0  0
 25 23  1  0  0  0  0
 26 25  1  0  0  0  0
 27 28  1  0  0  0  0
 28 30  1  0  0  0  0
 29 28  1  0  0  0  0
 30 31  1  0  0  0  0
 31 35  1  0  0  0  0
 32 31  1  0  0  0  0
 32 34  1  0  0  0  0
 33 32  2  0  0  0  0
 35 36  1  0  0  0  0
 37 38  1  0  0  0  0
 37 40  1  0  0  0  0
 38 40  1  0  0  0  0
 39 37  2  0  0  0  0
 41 42  1  0  0  0  0
 42 43  1  0  0  0  0
 43 46  1  0  0  0  0
 45 46  2  0  0  0  0
 46 44  1  0  0  0  0
M  END
>  <MODEL>
4

>  <REMARK>
 VINA RESULT:      -6.3      3.222     10.434
  Name = 
  12 active torsions:
  status: ('A' for Active; 'I' for Inactive)
    1  A    between atoms: C_1  and  N_25
    2  A    between atoms: C_2  and  CA_14
    3  A    between atoms: C_12  and  N_32
    4  A    between atoms: C_12  and  N_33
    5  A    between atoms: N_13  and  C_17
    6  A    between atoms: N_13  and  C_23
    7  A    between atoms: CA_14  and  CB_22
    8  A    between atoms: CA_14  and  N_33
    9  A    between atoms: C_15  and  C_31
   10  A    between atoms: C_20  and  N_32
   11  A    between atoms: C_21  and  C_34
   12  A    between atoms: C_23  and  C_34
                            x       y       z     vdW  Elec       q    Type
                         _______ _______ _______ _____ _____    ______ ____

>  <TORSDO>
F 12

$$$$
=
 OpenBabel11062416283D

 46 50  0  0  1  0  0  0  0  0999 V2000
  182.5220  179.8920  144.1730 C   0  0  0  0  0  2  0  0  0  0  0  0
  183.8870  179.2830  144.5610 C   0  0  1  0  0  3  0  0  0  0  0  0
  182.6650  176.6660  137.7400 C   0  0  0  0  0  2  0  0  0  0  0  0
  183.7140  177.0380  136.7050 C   0  0  0  0  0  2  0  0  0  0  0  0
  180.2000  176.9840  138.2910 C   0  0  0  0  0  0  0  0  0  0  0  0
  181.2610  176.9630  137.2130 C   0  0  2  0  0  3  0  0  0  0  0  0
  180.7260  177.5990  140.6270 C   0  0  0  0  0  2  0  0  0  0  0  0
  185.8800  178.2130  143.4790 N   0  0  1  0  0  0  0  0  0  0  0  0
  183.7580  178.5900  145.7660 O   0  0  0  0  0  1  0  0  0  0  0  0
  185.0020  178.1240  141.2030 C   0  0  1  0  0  3  0  0  0  0  0  0
  180.4820  176.4440  139.6700 C   0  0  1  0  0  3  0  0  0  0  0  0
  181.7500  179.0210  143.1650 C   0  0  0  0  0  2  0  0  0  0  0  0
  186.2140  177.8600  142.0920 C   0  0  0  0  0  2  0  0  0  0  0  0
  185.3850  178.4790  137.8860 C   0  0  0  0  0  2  0  0  0  0  0  0
  184.0640  178.8630  142.1200 C   0  0  1  0  0  3  0  0  0  0  0  0
  184.5460  178.7980  138.9590 O   0  0  0  0  0  0  0  0  0  0  0  0
  185.4120  179.0030  140.0360 C   0  0  0  0  0  2  0  0  0  0  0  0
  182.5470  178.7830  141.8640 C   0  0  1  0  0  3  0  0  0  0  0  0
  185.0810  177.0840  137.3590 C   0  0  0  0  0  2  0  0  0  0  0  0
  179.1110  177.4870  138.0400 O   0  0  0  0  0  0  0  0  0  0  0  0
  184.4280  178.3360  143.4790 C   0  0  2  0  0  3  0  0  0  0  0  0
  182.1250  177.4700  141.2200 C   0  0  0  0  0  2  0  0  0  0  0  0
  186.2390  177.0650  144.3170 C   0  0  1  0  0  3  0  0  0  0  0  0
  187.7570  176.8830  144.4830 C   0  0  2  0  0  3  0  0  0  0  0  0
  186.9310  177.4790  145.6210 C   0  0  1  0  0  3  0  0  0  0  0  0
  187.1000  178.8660  145.7170 O   0  0  0  0  0  1  0  0  0  0  0  0
  188.5300  177.9070  143.7700 N   0  0  0  0  0  2  0  0  0  0  0  0
  189.6000  177.2870  142.9810 C   0  0  2  0  0  3  0  0  0  0  0  0
  191.1280  177.0890  143.9560 S   0  0  0  0  0  1  0  0  0  0  0  0
  189.8640  178.0460  141.7650 N   0  0  0  0  0  2  0  0  0  0  0  0
  189.8190  177.1110  140.6510 C   0  0  1  0  0  3  0  0  0  0  0  0
  188.8960  177.6320  139.5950 C   0  0  0  0  0  0  0  0  0  0  0  0
  188.2210  176.8340  138.8890 O   0  0  0  0  0  0  0  0  0  0  0  0
  188.7710  179.0030  139.4030 O   0  0  0  0  0  1  0  0  0  0  0  0
  191.2170  176.9150  140.0890 C   0  0  0  0  0  2  0  0  0  0  0  0
  192.0790  177.8770  140.6170 O   0  0  0  0  0  1  0  0  0  0  0  0
  179.7140  174.2340  140.0880 C   0  0  0  0  0  0  0  0  0  0  0  0
  179.3430  175.5600  140.1750 C   0  0  1  0  0  3  0  0  0  0  0  0
  179.9380  173.1860  139.4320 O   0  0  0  0  0  0  0  0  0  0  0  0
  179.6860  174.9970  141.3770 O   0  0  0  0  0  0  0  0  0  0  0  0
  180.9010  176.1040  136.0810 N   0  0  0  0  0  2  0  0  0  0  0  0
  180.5270  174.7690  136.5310 C   0  0  0  0  0  2  0  0  0  0  0  0
  181.1870  173.7350  135.6430 C   0  0  0  0  0  2  0  0  0  0  0  0
  183.5010  173.6420  136.2250 O   0  0  0  0  0  0  0  0  0  0  0  0
  182.1760  171.9920  137.1160 O   0  0  0  0  0  1  0  0  0  0  0  0
  182.3540  173.1300  136.3400 C   0  0  0  0  0  0  0  0  0  0  0  0
  1  2  1  0  0  0  0
  2  9  1  1  0  0  0
  4 19  1  0  0  0  0
  4  3  1  0  0  0  0
  5 11  1  0  0  0  0
  6 41  1  6  0  0  0
  6  3  1  0  0  0  0
  6  5  1  0  0  0  0
  7 22  1  0  0  0  0
  8 13  1  6  0  0  0
  8 23  1  0  0  0  0
 10 17  1  6  0  0  0
 10 13  1  0  0  0  0
 10 15  1  0  0  0  0
 11 38  1  0  0  0  0
 11  7  1  1  0  0  0
 12  1  1  0  0  0  0
 14 16  1  0  0  0  0
 15 21  1  0  0  0  0
 16 17  1  0  0  0  0
 18 15  1  0  0  0  0
 18 12  1  0  0  0  0
 19 14  1  0  0  0  0
 20  5  2  0  0  0  0
 21  8  1  0  0  0  0
 21  2  1  0  0  0  0
 22 18  1  0  0  0  0
 23 24  1  0  0  0  0
 23 25  1  0  0  0  0
 24 25  1  0  0  0  0
 25 26  1  0  0  0  0
 27 24  1  0  0  0  0
 28 27  1  0  0  0  0
 28 29  1  0  0  0  0
 30 28  1  0  0  0  0
 31 30  1  0  0  0  0
 32 31  1  0  0  0  0
 33 32  2  0  0  0  0
 34 32  1  0  0  0  0
 35 36  1  0  0  0  0
 35 31  1  0  0  0  0
 37 38  1  0  0  0  0
 37 40  1  0  0  0  0
 38 40  1  0  0  0  0
 39 37  2  0  0  0  0
 41 42  1  0  0  0  0
 43 46  1  0  0  0  0
 43 42  1  0  0  0  0
 44 46  2  0  0  0  0
 46 45  1  0  0  0  0
M  END
>  <MODEL>
5

>  <REMARK>
 VINA RESULT:      -6.1      1.949      2.740
  Name = 
  12 active torsions:
  status: ('A' for Active; 'I' for Inactive)
    1  A    between atoms: C_1  and  N_25
    2  A    between atoms: C_2  and  CA_14
    3  A    between atoms: C_12  and  N_32
    4  A    between atoms: C_12  and  N_33
    5  A    between atoms: N_13  and  C_17
    6  A    between atoms: N_13  and  C_23
    7  A    between atoms: CA_14  and  CB_22
    8  A    between atoms: CA_14  and  N_33
    9  A    between atoms: C_15  and  C_31
   10  A    between atoms: C_20  and  N_32
   11  A    between atoms: C_21  and  C_34
   12  A    between atoms: C_23  and  C_34
                            x       y       z     vdW  Elec       q    Type
                         _______ _______ _______ _____ _____    ______ ____

>  <TORSDO>
F 12

$$$$
=
 OpenBabel11062416283D

 46 50  0  0  1  0  0  0  0  0999 V2000
  183.1670  180.1070  143.7220 C   0  0  0  0  0  2  0  0  0  0  0  0
  184.1980  179.3910  144.6200 C   0  0  1  0  0  3  0  0  0  0  0  0
  185.6420  176.7680  137.8440 C   0  0  0  0  0  2  0  0  0  0  0  0
  187.0480  177.0310  137.3330 C   0  0  0  0  0  2  0  0  0  0  0  0
  183.2030  177.3050  137.3500 C   0  0  0  0  0  0  0  0  0  0  0  0
  184.6040  177.1750  136.7970 C   0  0  2  0  0  3  0  0  0  0  0  0
  182.7820  177.9140  139.7090 C   0  0  0  0  0  2  0  0  0  0  0  0
  186.3600  178.1360  144.4240 N   0  0  1  0  0  0  0  0  0  0  0  0
  183.5310  178.7320  145.6550 O   0  0  0  0  0  1  0  0  0  0  0  0
  186.4810  178.0820  141.9850 C   0  0  1  0  0  3  0  0  0  0  0  0
  182.8520  176.7670  138.7140 C   0  0  1  0  0  3  0  0  0  0  0  0
  182.8010  179.2880  142.4700 C   0  0  0  0  0  2  0  0  0  0  0  0
  187.1980  177.7310  143.2860 C   0  0  0  0  0  2  0  0  0  0  0  0
  188.2100  178.3440  139.1200 C   0  0  0  0  0  2  0  0  0  0  0  0
  185.3180  178.9150  142.4550 C   0  0  1  0  0  3  0  0  0  0  0  0
  187.0370  178.7530  139.7630 O   0  0  0  0  0  0  0  0  0  0  0  0
  187.4040  178.9020  141.1030 C   0  0  0  0  0  2  0  0  0  0  0  0
  184.0360  178.9600  141.6030 C   0  0  1  0  0  3  0  0  0  0  0  0
  188.0300  176.9710  138.4880 C   0  0  0  0  0  2  0  0  0  0  0  0
  182.3560  177.8950  136.6870 O   0  0  0  0  0  0  0  0  0  0  0  0
  185.0500  178.3820  143.8340 C   0  0  2  0  0  3  0  0  0  0  0  0
  183.8010  177.6760  140.8170 C   0  0  0  0  0  2  0  0  0  0  0  0
  186.2480  176.9760  145.3130 C   0  0  1  0  0  3  0  0  0  0  0  0
  187.5360  176.6850  146.1000 C   0  0  2  0  0  3  0  0  0  0  0  0
  186.3540  177.3560  146.7950 C   0  0  1  0  0  3  0  0  0  0  0  0
  186.5670  178.7280  146.9790 O   0  0  0  0  0  1  0  0  0  0  0  0
  188.6100  177.6390  145.7990 N   0  0  0  0  0  2  0  0  0  0  0  0
  189.9170  177.0660  146.1380 C   0  0  2  0  0  3  0  0  0  0  0  0
  190.4180  177.4910  147.8390 S   0  0  0  0  0  1  0  0  0  0  0  0
  190.9380  177.4840  145.1860 N   0  0  0  0  0  2  0  0  0  0  0  0
  190.7020  176.7560  143.9480 C   0  0  1  0  0  3  0  0  0  0  0  0
  190.6850  177.7130  142.7980 C   0  0  0  0  0  0  0  0  0  0  0  0
  190.8390  177.2940  141.6180 O   0  0  0  0  0  0  0  0  0  0  0  0
  190.4820  179.0680  143.0300 O   0  0  0  0  0  1  0  0  0  0  0  0
  191.7850  175.7080  143.7550 C   0  0  0  0  0  2  0  0  0  0  0  0
  192.1400  175.1600  144.9880 O   0  0  0  0  0  1  0  0  0  0  0  0
  181.7720  174.6870  138.3160 C   0  0  0  0  0  0  0  0  0  0  0  0
  181.5350  175.9930  138.6950 C   0  0  1  0  0  3  0  0  0  0  0  0
  182.0400  173.8140  137.4530 O   0  0  0  0  0  0  0  0  0  0  0  0
  181.5040  175.0980  139.7330 O   0  0  0  0  0  0  0  0  0  0  0  0
  184.6640  176.3300  135.6010 N   0  0  0  0  0  2  0  0  0  0  0  0
  184.6310  174.9160  135.9520 C   0  0  0  0  0  2  0  0  0  0  0  0
  185.7760  174.1990  135.2680 C   0  0  0  0  0  2  0  0  0  0  0  0
  186.3560  173.3400  137.4200 O   0  0  0  0  0  1  0  0  0  0  0  0
  186.8700  171.9950  135.6300 O   0  0  0  0  0  0  0  0  0  0  0  0
  186.3450  173.1610  136.1700 C   0  0  0  0  0  0  0  0  0  0  0  0
  1  2  1  0  0  0  0
  2  9  1  1  0  0  0
  4  3  1  0  0  0  0
  4 19  1  0  0  0  0
  5 11  1  0  0  0  0
  6 41  1  6  0  0  0
  6  5  1  0  0  0  0
  6  3  1  0  0  0  0
  7 22  1  0  0  0  0
  8 13  1  6  0  0  0
  8 23  1  0  0  0  0
 10 17  1  6  0  0  0
 10 15  1  0  0  0  0
 10 13  1  0  0  0  0
 11  7  1  1  0  0  0
 12  1  1  0  0  0  0
 14 16  1  0  0  0  0
 15 21  1  0  0  0  0
 16 17  1  0  0  0  0
 18 15  1  0  0  0  0
 18 12  1  0  0  0  0
 19 14  1  0  0  0  0
 20  5  2  0  0  0  0
 21  8  1  0  0  0  0
 21  2  1  0  0  0  0
 22 18  1  0  0  0  0
 23 24  1  0  0  0  0
 23 25  1  0  0  0  0
 24 25  1  0  0  0  0
 25 26  1  0  0  0  0
 27 24  1  0  0  0  0
 27 28  1  0  0  0  0
 28 29  1  0  0  0  0
 30 28  1  0  0  0  0
 31 30  1  0  0  0  0
 32 34  1  0  0  0  0
 32 31  1  0  0  0  0
 33 32  2  0  0  0  0
 35 31  1  0  0  0  0
 35 36  1  0  0  0  0
 37 38  1  0  0  0  0
 37 40  1  0  0  0  0
 38 11  1  0  0  0  0
 38 40  1  0  0  0  0
 39 37  2  0  0  0  0
 41 42  1  0  0  0  0
 43 42  1  0  0  0  0
 43 46  1  0  0  0  0
 45 46  2  0  0  0  0
 46 44  1  0  0  0  0
M  END
>  <MODEL>
6

>  <REMARK>
 VINA RESULT:      -5.8      1.727      2.211
  Name = 
  12 active torsions:
  status: ('A' for Active; 'I' for Inactive)
    1  A    between atoms: C_1  and  N_25
    2  A    between atoms: C_2  and  CA_14
    3  A    between atoms: C_12  and  N_32
    4  A    between atoms: C_12  and  N_33
    5  A    between atoms: N_13  and  C_17
    6  A    between atoms: N_13  and  C_23
    7  A    between atoms: CA_14  and  CB_22
    8  A    between atoms: CA_14  and  N_33
    9  A    between atoms: C_15  and  C_31
   10  A    between atoms: C_20  and  N_32
   11  A    between atoms: C_21  and  C_34
   12  A    between atoms: C_23  and  C_34
                            x       y       z     vdW  Elec       q    Type
                         _______ _______ _______ _____ _____    ______ ____

>  <TORSDO>
F 12

$$$$
=
 OpenBabel11062416283D

 46 50  0  0  1  0  0  0  0  0999 V2000
  183.5090  177.5130  134.6940 C   0  0  0  0  0  2  0  0  0  0  0  0
  182.7300  177.5300  136.0270 C   0  0  1  0  0  3  0  0  0  0  0  0
  189.6550  175.8500  138.0510 C   0  0  0  0  0  2  0  0  0  0  0  0
  190.3020  176.8250  139.0190 C   0  0  0  0  0  2  0  0  0  0  0  0
  189.8910  174.9210  135.6920 C   0  0  0  0  0  0  0  0  0  0  0  0
  190.5850  175.5650  136.8710 C   0  0  2  0  0  3  0  0  0  0  0  0
  187.4920  175.2990  135.2250 C   0  0  0  0  0  2  0  0  0  0  0  0
  183.1640  177.6780  138.4930 N   0  0  1  0  0  0  0  0  0  0  0  0
  181.6430  176.6590  135.9380 O   0  0  0  0  0  1  0  0  0  0  0  0
  185.6020  177.5910  138.3970 C   0  0  1  0  0  3  0  0  0  0  0  0
  188.5060  174.3400  135.8280 C   0  0  1  0  0  3  0  0  0  0  0  0
  184.7280  176.5740  134.7320 C   0  0  0  0  0  2  0  0  0  0  0  0
  184.3860  177.7560  139.3050 C   0  0  0  0  0  2  0  0  0  0  0  0
  188.6250  178.6400  139.4140 C   0  0  0  0  0  2  0  0  0  0  0  0
  185.0040  177.6590  137.0160 C   0  0  1  0  0  3  0  0  0  0  0  0
  187.8600  178.3580  138.2780 O   0  0  0  0  0  0  0  0  0  0  0  0
  186.5610  178.7450  138.6210 C   0  0  0  0  0  2  0  0  0  0  0  0
  185.7210  176.9480  135.8530 C   0  0  1  0  0  3  0  0  0  0  0  0
  189.2550  177.3710  139.9700 C   0  0  0  0  0  2  0  0  0  0  0  0
  190.4550  174.9120  134.6040 O   0  0  0  0  0  0  0  0  0  0  0  0
  183.6130  177.1290  137.2190 C   0  0  2  0  0  3  0  0  0  0  0  0
  186.4970  175.7160  136.3020 C   0  0  0  0  0  2  0  0  0  0  0  0
  182.2850  176.6920  139.1270 C   0  0  1  0  0  3  0  0  0  0  0  0
  181.6800  177.1790  140.4540 C   0  0  2  0  0  3  0  0  0  0  0  0
  180.8240  177.1560  139.1900 C   0  0  1  0  0  3  0  0  0  0  0  0
  180.6500  178.4390  138.6550 O   0  0  0  0  0  1  0  0  0  0  0  0
  182.1080  178.5390  140.8050 N   0  0  0  0  0  2  0  0  0  0  0  0
  181.7600  178.8450  142.1960 C   0  0  2  0  0  3  0  0  0  0  0  0
  180.1530  179.6970  142.3170 S   0  0  0  0  0  1  0  0  0  0  0  0
  182.8050  179.6320  142.8380 N   0  0  0  0  0  2  0  0  0  0  0  0
  183.6940  178.7020  143.5180 C   0  0  1  0  0  3  0  0  0  0  0  0
  185.0750  178.8240  142.9550 C   0  0  0  0  0  0  0  0  0  0  0  0
  185.3250  179.6740  142.0580 O   0  0  0  0  0  0  0  0  0  0  0  0
  186.0910  178.0070  143.4370 O   0  0  0  0  0  1  0  0  0  0  0  0
  183.6970  178.9930  145.0100 C   0  0  0  0  0  2  0  0  0  0  0  0
  184.8190  178.4120  145.6030 O   0  0  0  0  0  1  0  0  0  0  0  0
  187.9100  172.0540  136.0800 C   0  0  0  0  0  0  0  0  0  0  0  0
  188.4020  172.9660  135.1690 C   0  0  1  0  0  3  0  0  0  0  0  0
  188.0360  171.3140  137.0880 O   0  0  0  0  0  0  0  0  0  0  0  0
  187.0850  172.6390  134.9740 O   0  0  0  0  0  0  0  0  0  0  0  0
  191.7940  174.8430  137.2800 N   0  0  0  0  0  2  0  0  0  0  0  0
  192.9440  175.7370  137.3430 C   0  0  0  0  0  2  0  0  0  0  0  0
  194.1450  174.9760  137.8640 C   0  0  0  0  0  2  0  0  0  0  0  0
  195.2800  173.1240  136.8720 O   0  0  0  0  0  1  0  0  0  0  0  0
  195.0480  174.9850  135.5460 O   0  0  0  0  0  0  0  0  0  0  0  0
  194.8530  174.3040  136.7400 C   0  0  0  0  0  0  0  0  0  0  0  0
  1 12  1  0  0  0  0
  1  2  1  0  0  0  0
  2  9  1  6  0  0  0
  2 21  1  0  0  0  0
  3  4  1  0  0  0  0
  4 19  1  0  0  0  0
  5 11  1  0  0  0  0
  5  6  1  0  0  0  0
  6 41  1  1  0  0  0
  6  3  1  0  0  0  0
  7 22  1  0  0  0  0
  8 23  1  0  0  0  0
  8 13  1  1  0  0  0
 10 17  1  6  0  0  0
 10 13  1  0  0  0  0
 11  7  1  6  0  0  0
 12 18  1  0  0  0  0
 14 19  1  0  0  0  0
 15 21  1  0  0  0  0
 15 10  1  0  0  0  0
 16 17  1  0  0  0  0
 16 14  1  0  0  0  0
 18 22  1  0  0  0  0
 18 15  1  0  0  0  0
 20  5  2  0  0  0  0
 21  8  1  0  0  0  0
 23 25  1  0  0  0  0
 23 24  1  0  0  0  0
 24 27  1  0  0  0  0
 25 24  1  0  0  0  0
 26 25  1  0  0  0  0
 27 28  1  0  0  0  0
 28 29  1  0  0  0  0
 28 30  1  0  0  0  0
 30 31  1  0  0  0  0
 31 35  1  0  0  0  0
 32 34  1  0  0  0  0
 32 31  1  0  0  0  0
 33 32  2  0  0  0  0
 35 36  1  0  0  0  0
 37 39  2  0  0  0  0
 38 11  1  0  0  0  0
 38 37  1  0  0  0  0
 40 38  1  0  0  0  0
 40 37  1  0  0  0  0
 41 42  1  0  0  0  0
 42 43  1  0  0  0  0
 45 46  2  0  0  0  0
 46 44  1  0  0  0  0
 46 43  1  0  0  0  0
M  END
>  <MODEL>
7

>  <REMARK>
 VINA RESULT:      -4.6      4.250      8.255
  Name = 
  12 active torsions:
  status: ('A' for Active; 'I' for Inactive)
    1  A    between atoms: C_1  and  N_25
    2  A    between atoms: C_2  and  CA_14
    3  A    between atoms: C_12  and  N_32
    4  A    between atoms: C_12  and  N_33
    5  A    between atoms: N_13  and  C_17
    6  A    between atoms: N_13  and  C_23
    7  A    between atoms: CA_14  and  CB_22
    8  A    between atoms: CA_14  and  N_33
    9  A    between atoms: C_15  and  C_31
   10  A    between atoms: C_20  and  N_32
   11  A    between atoms: C_21  and  C_34
   12  A    between atoms: C_23  and  C_34
                            x       y       z     vdW  Elec       q    Type
                         _______ _______ _______ _____ _____    ______ ____

>  <TORSDO>
F 12

$$$$
=
 OpenBabel11062416283D

 46 50  0  0  1  0  0  0  0  0999 V2000
  183.5980  179.7920  142.9200 C   0  0  0  0  0  2  0  0  0  0  0  0
  184.6640  179.2160  143.8770 C   0  0  1  0  0  3  0  0  0  0  0  0
  186.7590  176.7420  137.2170 C   0  0  0  0  0  2  0  0  0  0  0  0
  188.1460  177.1730  136.7720 C   0  0  0  0  0  2  0  0  0  0  0  0
  184.3000  176.9690  136.5970 C   0  0  0  0  0  0  0  0  0  0  0  0
  185.7330  177.0090  136.1150 C   0  0  2  0  0  3  0  0  0  0  0  0
  183.6900  177.5390  138.9240 C   0  0  0  0  0  2  0  0  0  0  0  0
  186.9710  178.2380  143.8040 N   0  0  1  0  0  0  0  0  0  0  0  0
  184.0320  178.4880  144.8870 O   0  0  0  0  0  1  0  0  0  0  0  0
  187.2200  178.1810  141.3760 C   0  0  1  0  0  3  0  0  0  0  0  0
  183.9500  176.4020  137.9490 C   0  0  1  0  0  3  0  0  0  0  0  0
  183.4000  178.9250  141.6630 C   0  0  0  0  0  2  0  0  0  0  0  0
  187.9090  177.9310  142.7150 C   0  0  0  0  0  2  0  0  0  0  0  0
  189.0460  178.6340  138.5950 C   0  0  0  0  0  2  0  0  0  0  0  0
  185.9410  178.8670  141.7770 C   0  0  1  0  0  3  0  0  0  0  0  0
  187.8010  178.8980  139.1740 O   0  0  0  0  0  0  0  0  0  0  0  0
  188.0780  179.1020  140.5290 C   0  0  0  0  0  2  0  0  0  0  0  0
  184.7080  178.7460  140.8620 C   0  0  1  0  0  3  0  0  0  0  0  0
  189.0680  177.2440  137.9740 C   0  0  0  0  0  2  0  0  0  0  0  0
  183.4220  177.4440  135.8850 O   0  0  0  0  0  0  0  0  0  0  0  0
  185.6720  178.3150  143.1480 C   0  0  2  0  0  3  0  0  0  0  0  0
  184.6740  177.4370  140.0840 C   0  0  0  0  0  2  0  0  0  0  0  0
  186.9590  177.0800  144.7030 C   0  0  1  0  0  3  0  0  0  0  0  0
  188.1420  177.0570  145.6840 C   0  0  2  0  0  3  0  0  0  0  0  0
  186.7570  177.4740  146.1710 C   0  0  1  0  0  3  0  0  0  0  0  0
  186.6600  178.8610  146.3410 O   0  0  0  0  0  1  0  0  0  0  0  0
  189.0370  178.2080  145.5180 N   0  0  0  0  0  2  0  0  0  0  0  0
  190.4260  177.8250  145.7870 C   0  0  2  0  0  3  0  0  0  0  0  0
  191.4480  177.8920  144.2790 S   0  0  0  0  0  1  0  0  0  0  0  0
  190.4990  176.5020  146.3940 N   0  0  0  0  0  2  0  0  0  0  0  0
  191.9070  176.1590  146.5200 C   0  0  1  0  0  3  0  0  0  0  0  0
  192.3480  176.3600  147.9360 C   0  0  0  0  0  0  0  0  0  0  0  0
  192.0480  177.4180  148.5530 O   0  0  0  0  0  0  0  0  0  0  0  0
  193.0800  175.3680  148.5790 O   0  0  0  0  0  1  0  0  0  0  0  0
  192.1240  174.7160  146.0930 C   0  0  0  0  0  2  0  0  0  0  0  0
  192.4100  174.6650  144.7290 O   0  0  0  0  0  1  0  0  0  0  0  0
  183.1700  174.1730  137.6840 C   0  0  0  0  0  0  0  0  0  0  0  0
  182.7420  175.4700  137.8760 C   0  0  1  0  0  3  0  0  0  0  0  0
  183.6400  173.2540  136.9660 O   0  0  0  0  0  0  0  0  0  0  0  0
  182.6830  174.6920  139.0030 O   0  0  0  0  0  0  0  0  0  0  0  0
  185.9580  176.1690  134.9340 N   0  0  0  0  0  2  0  0  0  0  0  0
  187.0120  175.1920  135.1760 C   0  0  0  0  0  2  0  0  0  0  0  0
  186.5870  174.2570  136.2900 C   0  0  0  0  0  2  0  0  0  0  0  0
  186.1630  172.1170  135.3180 O   0  0  0  0  0  0  0  0  0  0  0  0
  188.1980  172.3640  136.3540 O   0  0  0  0  0  1  0  0  0  0  0  0
  186.9630  172.8570  135.9560 C   0  0  0  0  0  0  0  0  0  0  0  0
  1  2  1  0  0  0  0
  2  9  1  1  0  0  0
  4  3  1  0  0  0  0
  4 19  1  0  0  0  0
  5 11  1  0  0  0  0
  6 41  1  6  0  0  0
  6  5  1  0  0  0  0
  6  3  1  0  0  0  0
  7 22  1  0  0  0  0
  8 13  1  6  0  0  0
  8 23  1  0  0  0  0
 10 17  1  6  0  0  0
 10 15  1  0  0  0  0
 10 13  1  0  0  0  0
 11  7  1  1  0  0  0
 12  1  1  0  0  0  0
 14 16  1  0  0  0  0
 15 21  1  0  0  0  0
 16 17  1  0  0  0  0
 18 12  1  0  0  0  0
 18 15  1  0  0  0  0
 19 14  1  0  0  0  0
 20  5  2  0  0  0  0
 21  8  1  0  0  0  0
 21  2  1  0  0  0  0
 22 18  1  0  0  0  0
 23 24  1  0  0  0  0
 23 25  1  0  0  0  0
 24 25  1  0  0  0  0
 25 26  1  0  0  0  0
 27 24  1  0  0  0  0
 27 28  1  0  0  0  0
 28 30  1  0  0  0  0
 29 28  1  0  0  0  0
 30 31  1  0  0  0  0
 31 32  1  0  0  0  0
 32 33  2  0  0  0  0
 32 34  1  0  0  0  0
 35 31  1  0  0  0  0
 36 35  1  0  0  0  0
 37 38  1  0  0  0  0
 37 40  1  0  0  0  0
 38 11  1  0  0  0  0
 38 40  1  0  0  0  0
 39 37  2  0  0  0  0
 41 42  1  0  0  0  0
 42 43  1  0  0  0  0
 44 46  2  0  0  0  0
 46 43  1  0  0  0  0
 46 45  1  0  0  0  0
M  END
>  <MODEL>
8

>  <REMARK>
 VINA RESULT:      -3.7      1.870      2.576
  Name = 
  12 active torsions:
  status: ('A' for Active; 'I' for Inactive)
    1  A    between atoms: C_1  and  N_25
    2  A    between atoms: C_2  and  CA_14
    3  A    between atoms: C_12  and  N_32
    4  A    between atoms: C_12  and  N_33
    5  A    between atoms: N_13  and  C_17
    6  A    between atoms: N_13  and  C_23
    7  A    between atoms: CA_14  and  CB_22
    8  A    between atoms: CA_14  and  N_33
    9  A    between atoms: C_15  and  C_31
   10  A    between atoms: C_20  and  N_32
   11  A    between atoms: C_21  and  C_34
   12  A    between atoms: C_23  and  C_34
                            x       y       z     vdW  Elec       q    Type
                         _______ _______ _______ _____ _____    ______ ____

>  <TORSDO>
F 12

$$$$
