=
 OpenBabel11062414353D

 38 41  0  0  1  0  0  0  0  0999 V2000
  183.6200  179.1240  140.3640 N   0  0  0  0  0  0  0  0  0  0  0  0
  186.3400  178.6090  140.3360 C   0  0  0  0  0  0  0  0  0  0  0  0
  183.5460  178.6980  142.7020 N   0  0  0  0  0  2  0  0  0  0  0  0
  185.6790  178.5390  141.5900 C   0  0  0  0  0  0  0  0  0  0  0  0
  184.2440  178.7950  141.6200 C   0  0  0  0  0  0  0  0  0  0  0  0
  185.7370  178.9200  139.2290 N   0  0  0  0  0  0  0  0  0  0  0  0
  186.6040  178.2650  142.5030 C   0  0  0  0  0  0  0  0  0  0  0  0
  187.7340  178.3330  140.6130 C   0  0  0  0  0  0  0  0  0  0  0  0
  184.3120  179.1850  139.2510 C   0  0  0  0  0  3  0  0  0  0  0  0
  187.8970  178.1260  141.8870 N   0  0  0  0  0  0  0  0  0  0  0  0
  190.3600  174.6460  137.8540 O   0  0  0  0  0  0  0  0  0  0  0  0
  188.8280  178.2530  139.6020 C   0  0  1  0  0  3  0  0  0  0  0  0
  190.6410  176.5920  136.3730 O   0  0  0  0  0  0  0  0  0  0  0  0
  188.4080  176.5190  137.9340 C   0  0  1  0  0  3  0  0  0  0  0  0
  190.1340  176.1240  137.7080 S   0  0  0  0  0  0  0  0  0  0  0  0
  189.9740  177.3420  140.0940 C   0  0  0  0  0  2  0  0  0  0  0  0
  190.9740  177.0190  138.9920 C   0  0  0  0  0  2  0  0  0  0  0  0
  188.2770  177.9350  138.2700 N   0  0  0  0  0  2  0  0  0  0  0  0
  187.5240  176.1250  136.7480 C   0  0  0  0  0  2  0  0  0  0  0  0
  186.3840  174.1190  137.3320 O   0  0  0  0  0  0  0  0  0  0  0  0
  186.3000  175.3590  137.1320 C   0  0  0  0  0  0  0  0  0  0  0  0
  184.1960  175.4120  135.1260 N   0  0  0  0  0  1  0  0  0  0  0  0
  182.9060  176.8170  136.6690 N   0  0  0  0  0  1  0  0  0  0  0  0
  184.0930  176.0920  136.3740 C   0  0  0  0  0  0  0  0  0  0  0  0
  185.0500  176.0550  137.2540 N   0  0  0  0  0  0  0  0  0  0  0  0
  186.3610  178.1520  143.9680 C   0  0  0  0  0  2  0  0  0  0  0  0
  187.0320  176.9010  144.5090 C   0  0  0  0  0  2  0  0  0  0  0  0
  187.5570  177.1530  145.8450 N   0  0  0  0  0  0  0  0  0  0  0  0
  188.7970  177.4450  146.1260 C   0  0  0  0  0  0  0  0  0  0  0  0
  189.8450  177.4930  145.0730 C   0  0  0  0  0  0  0  0  0  0  0  0
  190.2760  178.7170  144.5450 C   0  0  0  0  0  3  0  0  0  0  0  0
  191.8290  177.5500  143.1220 C   0  0  0  0  0  3  0  0  0  0  0  0
  191.4070  176.3690  143.6430 N   0  0  0  0  0  0  0  0  0  0  0  0
  191.2710  178.7500  143.5650 C   0  0  0  0  0  3  0  0  0  0  0  0
  190.4410  176.3170  144.5980 C   0  0  0  0  0  3  0  0  0  0  0  0
  188.1490  178.2760  148.5030 C   0  0  0  0  0  1  0  0  0  0  0  0
  190.3080  177.4680  147.9600 O   0  0  0  0  0  0  0  0  0  0  0  0
  189.1400  177.7040  147.5450 C   0  0  0  0  0  0  0  0  0  0  0  0
  1  5  1  0  0  0  0
  2  8  1  0  0  0  0
  2  4  1  0  0  0  0
  4  5  1  0  0  0  0
  4  7  2  0  0  0  0
  5  3  2  0  0  0  0
  6  9  1  0  0  0  0
  6  2  2  0  0  0  0
  7 26  1  0  0  0  0
  8 10  2  0  0  0  0
  9  1  2  0  0  0  0
 10  7  1  0  0  0  0
 12 16  1  0  0  0  0
 12  8  1  1  0  0  0
 13 15  2  0  0  0  0
 14 19  1  6  0  0  0
 14 18  1  0  0  0  0
 15 11  2  0  0  0  0
 15 14  1  0  0  0  0
 15 17  1  0  0  0  0
 17 16  1  0  0  0  0
 18 12  1  0  0  0  0
 19 21  1  0  0  0  0
 21 25  1  0  0  0  0
 21 20  2  0  0  0  0
 22 24  1  0  0  0  0
 24 23  1  0  0  0  0
 24 25  2  0  0  0  0
 26 27  1  0  0  0  0
 27 28  1  0  0  0  0
 28 29  2  0  0  0  0
 29 38  1  0  0  0  0
 30 29  1  0  0  0  0
 31 30  2  0  0  0  0
 32 34  2  0  0  0  0
 32 33  1  0  0  0  0
 33 35  2  0  0  0  0
 34 31  1  0  0  0  0
 35 30  1  0  0  0  0
 38 37  2  0  0  0  0
 38 36  1  0  0  0  0
M  END
>  <MODEL>
1

>  <REMARK>
 VINA RESULT:      -8.5      0.000      0.000
  Name = 
  9 active torsions:
  status: ('A' for Active; 'I' for Inactive)
    1  A    between atoms: N_3  and  C_20
    2  A    between atoms: C_4  and  C_7
    3  A    between atoms: C_4  and  C_34
    4  A    between atoms: C_8  and  C_30
    5  A    between atoms: C_15  and  C_20
    6  A    between atoms: C_15  and  C_22
    7  A    between atoms: C_19  and  C_26
    8  A    between atoms: C_19  and  C_32
    9  A    between atoms: N_29  and  C_32
                            x       y       z     vdW  Elec       q    Type
                         _______ _______ _______ _____ _____    ______ ____

>  <TORSDO>
F 9

$$$$
=
 OpenBabel11062414353D

 38 41  0  0  1  0  0  0  0  0999 V2000
  183.4590  179.1240  140.6480 N   0  0  0  0  0  0  0  0  0  0  0  0
  186.1860  178.6580  140.5460 C   0  0  0  0  0  0  0  0  0  0  0  0
  183.4490  178.6640  142.9810 N   0  0  0  0  0  2  0  0  0  0  0  0
  185.5570  178.5590  141.8150 C   0  0  0  0  0  0  0  0  0  0  0  0
  184.1190  178.7880  141.8830 C   0  0  0  0  0  0  0  0  0  0  0  0
  185.5510  178.9730  139.4590 N   0  0  0  0  0  0  0  0  0  0  0  0
  186.5090  178.2890  142.7010 C   0  0  0  0  0  0  0  0  0  0  0  0
  187.5910  178.4030  140.7850 C   0  0  0  0  0  0  0  0  0  0  0  0
  184.1220  179.2120  139.5190 C   0  0  0  0  0  3  0  0  0  0  0  0
  187.7890  178.1820  142.0520 N   0  0  0  0  0  0  0  0  0  0  0  0
  190.0210  174.8320  137.7130 O   0  0  0  0  0  0  0  0  0  0  0  0
  188.6610  178.3560  139.7470 C   0  0  1  0  0  3  0  0  0  0  0  0
  190.3460  176.8670  136.3680 O   0  0  0  0  0  0  0  0  0  0  0  0
  188.1430  176.7620  137.9700 C   0  0  1  0  0  3  0  0  0  0  0  0
  189.8480  176.3230  137.6780 S   0  0  0  0  0  0  0  0  0  0  0  0
  189.7810  177.3720  140.1470 C   0  0  0  0  0  2  0  0  0  0  0  0
  190.7460  177.0930  139.0030 C   0  0  0  0  0  2  0  0  0  0  0  0
  188.0720  178.1550  138.4080 N   0  0  0  0  0  2  0  0  0  0  0  0
  187.2220  176.4870  136.7790 C   0  0  0  0  0  2  0  0  0  0  0  0
  185.0470  175.5440  137.0020 O   0  0  0  0  0  0  0  0  0  0  0  0
  186.2890  175.3380  136.9860 C   0  0  0  0  0  0  0  0  0  0  0  0
  187.2680  173.5960  134.8740 N   0  0  0  0  0  1  0  0  0  0  0  0
  187.8090  171.9590  136.6190 N   0  0  0  0  0  1  0  0  0  0  0  0
  187.2810  173.2270  136.2510 C   0  0  0  0  0  0  0  0  0  0  0  0
  186.8340  174.0230  137.1760 N   0  0  0  0  0  0  0  0  0  0  0  0
  186.3040  178.1520  144.1700 C   0  0  0  0  0  2  0  0  0  0  0  0
  187.0190  176.9120  144.6790 C   0  0  0  0  0  2  0  0  0  0  0  0
  187.5870  177.1670  145.9960 N   0  0  0  0  0  0  0  0  0  0  0  0
  188.8380  177.4480  146.2380 C   0  0  0  0  0  0  0  0  0  0  0  0
  189.8540  177.4770  145.1540 C   0  0  0  0  0  0  0  0  0  0  0  0
  190.2660  178.6920  144.5890 C   0  0  0  0  0  3  0  0  0  0  0  0
  191.7790  177.5000  143.1440 C   0  0  0  0  0  3  0  0  0  0  0  0
  191.3750  176.3290  143.6990 N   0  0  0  0  0  0  0  0  0  0  0  0
  191.2310  178.7080  143.5800 C   0  0  0  0  0  3  0  0  0  0  0  0
  190.4380  176.2930  144.6840 C   0  0  0  0  0  3  0  0  0  0  0  0
  188.2510  178.2350  148.6450 C   0  0  0  0  0  1  0  0  0  0  0  0
  190.4190  177.5260  148.0100 O   0  0  0  0  0  0  0  0  0  0  0  0
  189.2270  177.7130  147.6440 C   0  0  0  0  0  0  0  0  0  0  0  0
  1  5  1  0  0  0  0
  2  8  1  0  0  0  0
  2  4  1  0  0  0  0
  4  5  1  0  0  0  0
  4  7  2  0  0  0  0
  5  3  2  0  0  0  0
  6  9  1  0  0  0  0
  6  2  2  0  0  0  0
  7 26  1  0  0  0  0
  8 10  2  0  0  0  0
  9  1  2  0  0  0  0
 10  7  1  0  0  0  0
 12 16  1  0  0  0  0
 12  8  1  1  0  0  0
 13 15  2  0  0  0  0
 14 19  1  6  0  0  0
 14 18  1  0  0  0  0
 15 11  2  0  0  0  0
 15 14  1  0  0  0  0
 15 17  1  0  0  0  0
 17 16  1  0  0  0  0
 18 12  1  0  0  0  0
 19 21  1  0  0  0  0
 21 20  2  0  0  0  0
 21 25  1  0  0  0  0
 22 24  1  0  0  0  0
 24 23  1  0  0  0  0
 24 25  2  0  0  0  0
 26 27  1  0  0  0  0
 27 28  1  0  0  0  0
 28 29  2  0  0  0  0
 29 38  1  0  0  0  0
 30 29  1  0  0  0  0
 31 30  2  0  0  0  0
 32 34  2  0  0  0  0
 32 33  1  0  0  0  0
 33 35  2  0  0  0  0
 34 31  1  0  0  0  0
 35 30  1  0  0  0  0
 38 37  2  0  0  0  0
 38 36  1  0  0  0  0
M  END
>  <MODEL>
2

>  <REMARK>
 VINA RESULT:      -8.4      1.227      1.557
  Name = 
  9 active torsions:
  status: ('A' for Active; 'I' for Inactive)
    1  A    between atoms: N_3  and  C_20
    2  A    between atoms: C_4  and  C_7
    3  A    between atoms: C_4  and  C_34
    4  A    between atoms: C_8  and  C_30
    5  A    between atoms: C_15  and  C_20
    6  A    between atoms: C_15  and  C_22
    7  A    between atoms: C_19  and  C_26
    8  A    between atoms: C_19  and  C_32
    9  A    between atoms: N_29  and  C_32
                            x       y       z     vdW  Elec       q    Type
                         _______ _______ _______ _____ _____    ______ ____

>  <TORSDO>
F 9

$$$$
=
 OpenBabel11062414353D

 38 41  0  0  1  0  0  0  0  0999 V2000
  189.9990  177.8610  138.9270 N   0  0  0  0  0  0  0  0  0  0  0  0
  189.0570  177.4970  141.5050 C   0  0  0  0  0  0  0  0  0  0  0  0
  187.9010  178.7700  138.2710 N   0  0  0  0  0  1  0  0  0  0  0  0
  188.1750  178.0990  140.5710 C   0  0  0  0  0  0  0  0  0  0  0  0
  188.6510  178.2860  139.2050 C   0  0  0  0  0  0  0  0  0  0  0  0
  190.2700  177.1390  141.2110 N   0  0  0  0  0  0  0  0  0  0  0  0
  187.0560  178.3930  141.2240 C   0  0  0  0  0  0  0  0  0  0  0  0
  188.3330  177.4590  142.7580 C   0  0  1  0  0  3  0  0  0  0  0  0
  190.7550  177.3300  139.8580 C   0  0  0  0  0  3  0  0  0  0  0  0
  187.1520  177.9820  142.6000 N   0  0  0  0  0  0  0  0  0  0  0  0
  188.9190  178.8830  147.8300 O   0  0  0  0  0  0  0  0  0  0  0  0
  188.8300  176.8770  144.0380 C   0  0  1  0  0  3  0  0  0  0  0  0
  188.7530  176.4400  148.0720 O   0  0  0  0  0  0  0  0  0  0  0  0
  187.4790  177.5770  145.9480 C   0  0  1  0  0  3  0  0  0  0  0  0
  188.8480  177.5760  147.0940 S   0  0  0  0  0  0  0  0  0  0  0  0
  189.9440  177.7540  144.6510 C   0  0  0  0  0  2  0  0  0  0  0  0
  190.2870  177.3470  146.0770 C   0  0  0  0  0  2  0  0  0  0  0  0
  187.7010  176.5510  144.9310 N   0  0  0  0  0  2  0  0  0  0  0  0
  186.1110  177.4320  146.6210 C   0  0  0  0  0  2  0  0  0  0  0  0
  185.6910  179.7060  147.1870 O   0  0  0  0  0  0  0  0  0  0  0  0
  185.2850  178.6760  146.5870 C   0  0  0  0  0  0  0  0  0  0  0  0
  184.7970  179.9330  144.0110 N   0  0  0  0  0  1  0  0  0  0  0  0
  182.4980  179.0890  144.1530 N   0  0  0  0  0  1  0  0  0  0  0  0
  183.7930  179.2160  144.7240 C   0  0  0  0  0  0  0  0  0  0  0  0
  184.0360  178.6660  145.8770 N   0  0  0  0  0  0  0  0  0  0  0  0
  185.8740  179.0850  140.6410 C   0  0  0  0  0  2  0  0  0  0  0  0
  184.6010  178.3540  141.0310 C   0  0  0  0  0  2  0  0  0  0  0  0
  183.4530  178.9630  140.3740 N   0  0  0  0  0  0  0  0  0  0  0  0
  182.8700  178.5100  139.2980 C   0  0  0  0  0  0  0  0  0  0  0  0
  183.3820  177.3130  138.5800 C   0  0  0  0  0  0  0  0  0  0  0  0
  184.4210  177.4260  137.6470 C   0  0  0  0  0  3  0  0  0  0  0  0
  184.3350  175.0490  137.2720 C   0  0  0  0  0  3  0  0  0  0  0  0
  183.3300  174.9490  138.1800 N   0  0  0  0  0  0  0  0  0  0  0  0
  184.9020  176.2920  136.9880 C   0  0  0  0  0  3  0  0  0  0  0  0
  182.8500  176.0410  138.8320 C   0  0  0  0  0  3  0  0  0  0  0  0
  181.4860  179.5040  137.3350 C   0  0  0  0  0  1  0  0  0  0  0  0
  180.8340  179.6960  139.6030 O   0  0  0  0  0  0  0  0  0  0  0  0
  181.6870  179.2450  138.7910 C   0  0  0  0  0  0  0  0  0  0  0  0
  1  5  2  0  0  0  0
  1  9  1  0  0  0  0
  3  5  1  0  0  0  0
  4  7  1  0  0  0  0
  4  2  2  0  0  0  0
  5  4  1  0  0  0  0
  6  2  1  0  0  0  0
  7 10  2  0  0  0  0
  8  2  1  6  0  0  0
  8 12  1  0  0  0  0
  9  6  2  0  0  0  0
 10  8  1  0  0  0  0
 12 16  1  1  0  0  0
 12 18  1  0  0  0  0
 14 19  1  1  0  0  0
 14 15  1  0  0  0  0
 15 11  2  0  0  0  0
 15 13  2  0  0  0  0
 16 17  1  0  0  0  0
 17 15  1  0  0  0  0
 18 14  1  0  0  0  0
 21 19  1  0  0  0  0
 21 20  2  0  0  0  0
 22 24  1  0  0  0  0
 23 24  1  0  0  0  0
 24 25  2  0  0  0  0
 25 21  1  0  0  0  0
 26 27  1  0  0  0  0
 26  7  1  0  0  0  0
 28 27  1  0  0  0  0
 29 28  2  0  0  0  0
 30 35  1  0  0  0  0
 30 29  1  0  0  0  0
 31 30  2  0  0  0  0
 32 33  1  0  0  0  0
 33 35  2  0  0  0  0
 34 32  2  0  0  0  0
 34 31  1  0  0  0  0
 36 38  1  0  0  0  0
 38 29  1  0  0  0  0
 38 37  2  0  0  0  0
M  END
>  <MODEL>
3

>  <REMARK>
 VINA RESULT:      -8.1      3.588      8.267
  Name = 
  9 active torsions:
  status: ('A' for Active; 'I' for Inactive)
    1  A    between atoms: N_3  and  C_20
    2  A    between atoms: C_4  and  C_7
    3  A    between atoms: C_4  and  C_34
    4  A    between atoms: C_8  and  C_30
    5  A    between atoms: C_15  and  C_20
    6  A    between atoms: C_15  and  C_22
    7  A    between atoms: C_19  and  C_26
    8  A    between atoms: C_19  and  C_32
    9  A    between atoms: N_29  and  C_32
                            x       y       z     vdW  Elec       q    Type
                         _______ _______ _______ _____ _____    ______ ____

>  <TORSDO>
F 9

$$$$
=
 OpenBabel11062414353D

 38 41  0  0  1  0  0  0  0  0999 V2000
  192.2580  176.8080  139.6440 N   0  0  0  0  0  0  0  0  0  0  0  0
  189.6460  177.2260  138.8240 C   0  0  0  0  0  0  0  0  0  0  0  0
  191.7400  177.6790  141.7950 N   0  0  0  0  0  2  0  0  0  0  0  0
  189.9650  177.5550  140.1670 C   0  0  0  0  0  0  0  0  0  0  0  0
  191.3400  177.3540  140.6110 C   0  0  0  0  0  0  0  0  0  0  0  0
  190.5060  176.7260  137.9900 N   0  0  0  0  0  0  0  0  0  0  0  0
  188.8440  177.9730  140.7440 C   0  0  0  0  0  0  0  0  0  0  0  0
  188.2330  177.5080  138.6780 C   0  0  0  0  0  0  0  0  0  0  0  0
  191.8720  176.5130  138.4250 C   0  0  0  0  0  3  0  0  0  0  0  0
  187.7540  177.9510  139.8030 N   0  0  0  0  0  0  0  0  0  0  0  0
  183.7630  175.1740  137.0450 O   0  0  0  0  0  0  0  0  0  0  0  0
  187.4370  177.3580  137.4250 C   0  0  1  0  0  3  0  0  0  0  0  0
  183.9410  176.9930  135.3960 O   0  0  0  0  0  0  0  0  0  0  0  0
  185.0330  177.4220  137.8560 C   0  0  1  0  0  3  0  0  0  0  0  0
  184.6270  176.2920  136.5350 S   0  0  0  0  0  0  0  0  0  0  0  0
  187.2200  175.8690  137.0800 C   0  0  0  0  0  2  0  0  0  0  0  0
  186.1930  175.6710  135.9730 C   0  0  0  0  0  2  0  0  0  0  0  0
  186.2200  178.1910  137.4850 N   0  0  0  0  0  2  0  0  0  0  0  0
  183.8710  178.3250  138.2760 C   0  0  0  0  0  2  0  0  0  0  0  0
  184.2630  180.5670  138.9740 O   0  0  0  0  0  0  0  0  0  0  0  0
  184.2400  179.3510  139.2980 C   0  0  0  0  0  0  0  0  0  0  0  0
  182.3250  178.6940  141.3850 N   0  0  0  0  0  1  0  0  0  0  0  0
  184.2380  178.1920  142.8360 N   0  0  0  0  0  1  0  0  0  0  0  0
  183.7350  178.6200  141.5780 C   0  0  0  0  0  0  0  0  0  0  0  0
  184.5710  178.9230  140.6290 N   0  0  0  0  0  0  0  0  0  0  0  0
  188.7060  178.3720  142.1710 C   0  0  0  0  0  2  0  0  0  0  0  0
  188.2180  177.1920  142.9940 C   0  0  0  0  0  2  0  0  0  0  0  0
  187.3940  177.6600  144.1010 N   0  0  0  0  0  0  0  0  0  0  0  0
  187.7990  177.8140  145.3310 C   0  0  0  0  0  0  0  0  0  0  0  0
  189.1800  177.4560  145.7490 C   0  0  0  0  0  0  0  0  0  0  0  0
  189.4020  176.5890  146.8270 C   0  0  0  0  0  3  0  0  0  0  0  0
  191.7780  176.7830  146.4880 C   0  0  0  0  0  3  0  0  0  0  0  0
  191.5530  177.6200  145.4420 N   0  0  0  0  0  0  0  0  0  0  0  0
  190.7040  176.2490  147.2010 C   0  0  0  0  0  3  0  0  0  0  0  0
  190.2930  177.9610  145.0620 C   0  0  0  0  0  3  0  0  0  0  0  0
  185.5370  178.9610  145.8990 C   0  0  0  0  0  1  0  0  0  0  0  0
  187.0930  178.2860  147.5500 O   0  0  0  0  0  0  0  0  0  0  0  0
  186.8250  178.3370  146.3190 C   0  0  0  0  0  0  0  0  0  0  0  0
  1  5  1  0  0  0  0
  2  4  1  0  0  0  0
  4  5  1  0  0  0  0
  4  7  2  0  0  0  0
  5  3  2  0  0  0  0
  6  9  1  0  0  0  0
  6  2  2  0  0  0  0
  7 26  1  0  0  0  0
  8  2  1  0  0  0  0
  8 10  2  0  0  0  0
  9  1  2  0  0  0  0
 10  7  1  0  0  0  0
 12 18  1  0  0  0  0
 12  8  1  1  0  0  0
 13 15  2  0  0  0  0
 14 19  1  6  0  0  0
 15 11  2  0  0  0  0
 15 14  1  0  0  0  0
 16 12  1  0  0  0  0
 17 15  1  0  0  0  0
 17 16  1  0  0  0  0
 18 14  1  0  0  0  0
 19 21  1  0  0  0  0
 20 21  2  0  0  0  0
 21 25  1  0  0  0  0
 22 24  1  0  0  0  0
 24 23  1  0  0  0  0
 25 24  2  0  0  0  0
 26 27  1  0  0  0  0
 27 28  1  0  0  0  0
 28 29  2  0  0  0  0
 29 30  1  0  0  0  0
 29 38  1  0  0  0  0
 30 31  1  0  0  0  0
 31 34  2  0  0  0  0
 32 34  1  0  0  0  0
 33 32  2  0  0  0  0
 35 33  1  0  0  0  0
 35 30  2  0  0  0  0
 36 38  1  0  0  0  0
 38 37  2  0  0  0  0
M  END
>  <MODEL>
4

>  <REMARK>
 VINA RESULT:      -8.0      2.584      4.850
  Name = 
  9 active torsions:
  status: ('A' for Active; 'I' for Inactive)
    1  A    between atoms: N_3  and  C_20
    2  A    between atoms: C_4  and  C_7
    3  A    between atoms: C_4  and  C_34
    4  A    between atoms: C_8  and  C_30
    5  A    between atoms: C_15  and  C_20
    6  A    between atoms: C_15  and  C_22
    7  A    between atoms: C_19  and  C_26
    8  A    between atoms: C_19  and  C_32
    9  A    between atoms: N_29  and  C_32
                            x       y       z     vdW  Elec       q    Type
                         _______ _______ _______ _____ _____    ______ ____

>  <TORSDO>
F 9

$$$$
=
 OpenBabel11062414353D

 38 41  0  0  1  0  0  0  0  0999 V2000
  181.4100  178.9990  143.4020 N   0  0  0  0  0  0  0  0  0  0  0  0
  182.4960  178.1330  141.0060 C   0  0  0  0  0  0  0  0  0  0  0  0
  183.5800  179.5370  144.2110 N   0  0  0  0  0  2  0  0  0  0  0  0
  183.3930  178.6550  141.9750 C   0  0  0  0  0  0  0  0  0  0  0  0
  182.8380  179.1030  143.2480 C   0  0  0  0  0  0  0  0  0  0  0  0
  181.2130  178.0680  141.1860 N   0  0  0  0  0  0  0  0  0  0  0  0
  184.6070  178.6310  141.4360 C   0  0  0  0  0  0  0  0  0  0  0  0
  183.3130  177.7920  139.8610 C   0  0  0  0  0  0  0  0  0  0  0  0
  180.6510  178.5210  142.4440 C   0  0  0  0  0  3  0  0  0  0  0  0
  184.5580  178.0800  140.1070 N   0  0  0  0  0  0  0  0  0  0  0  0
  184.6080  177.6620  134.7230 O   0  0  0  0  0  0  0  0  0  0  0  0
  182.8290  177.1680  138.5960 C   0  0  1  0  0  3  0  0  0  0  0  0
  183.4110  175.5220  134.9320 O   0  0  0  0  0  0  0  0  0  0  0  0
  184.6730  176.4730  137.1530 C   0  0  1  0  0  3  0  0  0  0  0  0
  183.7890  176.7950  135.6350 S   0  0  0  0  0  0  0  0  0  0  0  0
  182.5440  178.2410  137.5220 C   0  0  0  0  0  2  0  0  0  0  0  0
  182.3100  177.6370  136.1440 C   0  0  0  0  0  2  0  0  0  0  0  0
  183.7230  176.0680  138.1870 N   0  0  0  0  0  2  0  0  0  0  0  0
  185.8190  175.4700  136.9990 C   0  0  0  0  0  2  0  0  0  0  0  0
  187.7820  176.0030  135.7620 O   0  0  0  0  0  0  0  0  0  0  0  0
  187.1640  176.1040  136.8550 C   0  0  0  0  0  0  0  0  0  0  0  0
  187.2320  178.9930  137.1720 N   0  0  0  0  0  1  0  0  0  0  0  0
  188.3490  178.6260  139.3250 N   0  0  0  0  0  1  0  0  0  0  0  0
  187.7680  178.0960  138.1400 C   0  0  0  0  0  0  0  0  0  0  0  0
  187.7280  176.8070  137.9730 N   0  0  0  0  0  0  0  0  0  0  0  0
  185.8480  179.1370  142.0850 C   0  0  0  0  0  2  0  0  0  0  0  0
  186.7050  177.9690  142.5430 C   0  0  0  0  0  2  0  0  0  0  0  0
  186.6850  177.8730  143.9960 N   0  0  0  0  0  0  0  0  0  0  0  0
  187.7320  177.7060  144.7570 C   0  0  0  0  0  0  0  0  0  0  0  0
  189.0920  177.5310  144.1830 C   0  0  0  0  0  0  0  0  0  0  0  0
  190.0310  178.5690  144.2340 C   0  0  0  0  0  3  0  0  0  0  0  0
  191.6390  177.1620  143.1230 C   0  0  0  0  0  3  0  0  0  0  0  0
  190.7220  176.1610  143.0810 N   0  0  0  0  0  0  0  0  0  0  0  0
  191.3100  178.3880  143.7030 C   0  0  0  0  0  3  0  0  0  0  0  0
  189.4730  176.3170  143.5940 C   0  0  0  0  0  3  0  0  0  0  0  0
  186.3040  178.2490  146.8590 C   0  0  0  0  0  1  0  0  0  0  0  0
  188.4020  177.1580  146.9690 O   0  0  0  0  0  0  0  0  0  0  0  0
  187.5210  177.6670  146.2230 C   0  0  0  0  0  0  0  0  0  0  0  0
  2  6  2  0  0  0  0
  2  4  1  0  0  0  0
  4  5  1  0  0  0  0
  5  1  1  0  0  0  0
  5  3  2  0  0  0  0
  6  9  1  0  0  0  0
  7  4  2  0  0  0  0
  7 26  1  0  0  0  0
  8 10  2  0  0  0  0
  8  2  1  0  0  0  0
  9  1  2  0  0  0  0
 10  7  1  0  0  0  0
 11 15  2  0  0  0  0
 12  8  1  1  0  0  0
 13 15  2  0  0  0  0
 14 19  1  6  0  0  0
 14 18  1  0  0  0  0
 15 17  1  0  0  0  0
 15 14  1  0  0  0  0
 16 12  1  0  0  0  0
 17 16  1  0  0  0  0
 18 12  1  0  0  0  0
 20 21  2  0  0  0  0
 21 19  1  0  0  0  0
 21 25  1  0  0  0  0
 22 24  1  0  0  0  0
 24 23  1  0  0  0  0
 25 24  2  0  0  0  0
 26 27  1  0  0  0  0
 27 28  1  0  0  0  0
 28 29  2  0  0  0  0
 29 38  1  0  0  0  0
 30 31  1  0  0  0  0
 30 29  1  0  0  0  0
 32 34  1  0  0  0  0
 33 32  2  0  0  0  0
 33 35  1  0  0  0  0
 34 31  2  0  0  0  0
 35 30  2  0  0  0  0
 38 36  1  0  0  0  0
 38 37  2  0  0  0  0
M  END
>  <MODEL>
5

>  <REMARK>
 VINA RESULT:      -7.8      2.255      4.144
  Name = 
  9 active torsions:
  status: ('A' for Active; 'I' for Inactive)
    1  A    between atoms: N_3  and  C_20
    2  A    between atoms: C_4  and  C_7
    3  A    between atoms: C_4  and  C_34
    4  A    between atoms: C_8  and  C_30
    5  A    between atoms: C_15  and  C_20
    6  A    between atoms: C_15  and  C_22
    7  A    between atoms: C_19  and  C_26
    8  A    between atoms: C_19  and  C_32
    9  A    between atoms: N_29  and  C_32
                            x       y       z     vdW  Elec       q    Type
                         _______ _______ _______ _____ _____    ______ ____

>  <TORSDO>
F 9

$$$$
=
 OpenBabel11062414353D

 38 41  0  0  1  0  0  0  0  0999 V2000
  191.8600  176.7450  139.1120 N   0  0  0  0  0  0  0  0  0  0  0  0
  189.2270  177.4780  138.6700 C   0  0  0  0  0  0  0  0  0  0  0  0
  191.6680  177.3710  141.3990 N   0  0  0  0  0  2  0  0  0  0  0  0
  189.7220  177.6040  139.9940 C   0  0  0  0  0  0  0  0  0  0  0  0
  191.1120  177.2350  140.2410 C   0  0  0  0  0  0  0  0  0  0  0  0
  189.9370  177.0210  137.6840 N   0  0  0  0  0  0  0  0  0  0  0  0
  188.7170  178.0350  140.7470 C   0  0  0  0  0  0  0  0  0  0  0  0
  187.8410  177.8920  138.7300 C   0  0  0  0  0  0  0  0  0  0  0  0
  191.3160  176.6420  137.9230 C   0  0  0  0  0  3  0  0  0  0  0  0
  187.5330  178.2250  139.9500 N   0  0  0  0  0  0  0  0  0  0  0  0
  183.2560  175.7460  137.1590 O   0  0  0  0  0  0  0  0  0  0  0  0
  186.9010  177.9710  137.5750 C   0  0  1  0  0  3  0  0  0  0  0  0
  183.1920  177.8770  135.9290 O   0  0  0  0  0  0  0  0  0  0  0  0
  184.5670  177.8300  138.2820 C   0  0  1  0  0  3  0  0  0  0  0  0
  184.0270  176.9850  136.8050 S   0  0  0  0  0  0  0  0  0  0  0  0
  186.6750  176.5790  136.9460 C   0  0  0  0  0  2  0  0  0  0  0  0
  185.5260  176.5710  135.9470 C   0  0  0  0  0  2  0  0  0  0  0  0
  185.6830  178.7150  137.9500 N   0  0  0  0  0  2  0  0  0  0  0  0
  183.4460  178.5700  139.0160 C   0  0  0  0  0  2  0  0  0  0  0  0
  182.8440  176.6040  140.2160 O   0  0  0  0  0  0  0  0  0  0  0  0
  182.9460  177.8590  140.2320 C   0  0  0  0  0  0  0  0  0  0  0  0
  180.2290  178.4880  141.0520 N   0  0  0  0  0  1  0  0  0  0  0  0
  181.1950  179.6770  142.9680 N   0  0  0  0  0  1  0  0  0  0  0  0
  181.3760  178.9190  141.7790 C   0  0  0  0  0  0  0  0  0  0  0  0
  182.5820  178.6270  141.3890 N   0  0  0  0  0  0  0  0  0  0  0  0
  188.7760  178.2570  142.2180 C   0  0  0  0  0  2  0  0  0  0  0  0
  188.1840  177.0620  142.9460 C   0  0  0  0  0  2  0  0  0  0  0  0
  188.7730  176.9430  144.2740 N   0  0  0  0  0  0  0  0  0  0  0  0
  188.1870  177.2700  145.3920 C   0  0  0  0  0  0  0  0  0  0  0  0
  186.8290  177.8760  145.4130 C   0  0  0  0  0  0  0  0  0  0  0  0
  186.0180  177.8580  144.2700 C   0  0  0  0  0  3  0  0  0  0  0  0
  184.2810  178.9940  145.4920 C   0  0  0  0  0  3  0  0  0  0  0  0
  185.0740  179.0030  146.5950 N   0  0  0  0  0  0  0  0  0  0  0  0
  184.7400  178.4180  144.3060 C   0  0  0  0  0  3  0  0  0  0  0  0
  186.3200  178.4610  146.5800 C   0  0  0  0  0  3  0  0  0  0  0  0
  190.4200  177.1230  146.7140 C   0  0  0  0  0  1  0  0  0  0  0  0
  188.3030  176.7480  147.7070 O   0  0  0  0  0  0  0  0  0  0  0  0
  188.9310  177.0450  146.6540 C   0  0  0  0  0  0  0  0  0  0  0  0
  1  5  1  0  0  0  0
  2  8  1  0  0  0  0
  2  4  1  0  0  0  0
  4  5  1  0  0  0  0
  4  7  2  0  0  0  0
  5  3  2  0  0  0  0
  6  9  1  0  0  0  0
  6  2  2  0  0  0  0
  7 26  1  0  0  0  0
  8 10  2  0  0  0  0
  9  1  2  0  0  0  0
 10  7  1  0  0  0  0
 12 18  1  0  0  0  0
 12  8  1  1  0  0  0
 13 15  2  0  0  0  0
 14 19  1  6  0  0  0
 15 11  2  0  0  0  0
 15 14  1  0  0  0  0
 16 12  1  0  0  0  0
 17 15  1  0  0  0  0
 17 16  1  0  0  0  0
 18 14  1  0  0  0  0
 19 21  1  0  0  0  0
 20 21  2  0  0  0  0
 21 25  1  0  0  0  0
 22 24  1  0  0  0  0
 24 23  1  0  0  0  0
 25 24  2  0  0  0  0
 26 27  1  0  0  0  0
 27 28  1  0  0  0  0
 28 29  2  0  0  0  0
 29 30  1  0  0  0  0
 29 38  1  0  0  0  0
 30 35  1  0  0  0  0
 31 34  1  0  0  0  0
 31 30  2  0  0  0  0
 32 33  1  0  0  0  0
 34 32  2  0  0  0  0
 35 33  2  0  0  0  0
 38 36  1  0  0  0  0
 38 37  2  0  0  0  0
M  END
>  <MODEL>
6

>  <REMARK>
 VINA RESULT:      -7.6      2.835      5.339
  Name = 
  9 active torsions:
  status: ('A' for Active; 'I' for Inactive)
    1  A    between atoms: N_3  and  C_20
    2  A    between atoms: C_4  and  C_7
    3  A    between atoms: C_4  and  C_34
    4  A    between atoms: C_8  and  C_30
    5  A    between atoms: C_15  and  C_20
    6  A    between atoms: C_15  and  C_22
    7  A    between atoms: C_19  and  C_26
    8  A    between atoms: C_19  and  C_32
    9  A    between atoms: N_29  and  C_32
                            x       y       z     vdW  Elec       q    Type
                         _______ _______ _______ _____ _____    ______ ____

>  <TORSDO>
F 9

$$$$
=
 OpenBabel11062414353D

 38 41  0  0  1  0  0  0  0  0999 V2000
  189.2350  177.7810  138.3850 N   0  0  0  0  0  0  0  0  0  0  0  0
  188.5730  177.4900  141.0580 C   0  0  0  0  0  0  0  0  0  0  0  0
  187.0770  178.6720  137.9300 N   0  0  0  0  0  1  0  0  0  0  0  0
  187.5950  178.0670  140.2060 C   0  0  0  0  0  0  0  0  0  0  0  0
  187.9230  178.2130  138.7920 C   0  0  0  0  0  0  0  0  0  0  0  0
  189.7480  177.1230  140.6470 N   0  0  0  0  0  0  0  0  0  0  0  0
  186.5510  178.3790  140.9660 C   0  0  0  0  0  0  0  0  0  0  0  0
  187.9860  177.4880  142.3820 C   0  0  1  0  0  3  0  0  0  0  0  0
  190.0870  177.2750  139.2450 C   0  0  0  0  0  3  0  0  0  0  0  0
  186.7940  178.0070  142.3350 N   0  0  0  0  0  0  0  0  0  0  0  0
  188.9800  179.0060  147.3620 O   0  0  0  0  0  0  0  0  0  0  0  0
  188.6180  176.9420  143.6180 C   0  0  1  0  0  3  0  0  0  0  0  0
  188.9230  176.5620  147.6470 O   0  0  0  0  0  0  0  0  0  0  0  0
  187.4210  177.6240  145.6350 C   0  0  1  0  0  3  0  0  0  0  0  0
  188.8880  177.6870  146.6500 S   0  0  0  0  0  0  0  0  0  0  0  0
  189.7510  177.8650  144.1160 C   0  0  0  0  0  2  0  0  0  0  0  0
  190.2360  177.4910  145.5100 C   0  0  0  0  0  2  0  0  0  0  0  0
  187.5860  176.5920  144.6130 N   0  0  0  0  0  2  0  0  0  0  0  0
  186.1260  177.4430  146.4310 C   0  0  0  0  0  2  0  0  0  0  0  0
  185.6860  179.6810  147.1120 O   0  0  0  0  0  0  0  0  0  0  0  0
  185.2730  178.6680  146.4870 C   0  0  0  0  0  0  0  0  0  0  0  0
  184.6550  179.9800  143.9680 N   0  0  0  0  0  1  0  0  0  0  0  0
  182.3740  179.1050  144.1930 N   0  0  0  0  0  1  0  0  0  0  0  0
  183.6930  179.2340  144.7080 C   0  0  0  0  0  0  0  0  0  0  0  0
  183.9940  178.6590  145.8350 N   0  0  0  0  0  0  0  0  0  0  0  0
  185.3130  179.0560  140.4920 C   0  0  0  0  0  2  0  0  0  0  0  0
  184.0900  178.3490  141.0520 C   0  0  0  0  0  2  0  0  0  0  0  0
  183.5560  177.4180  140.0680 N   0  0  0  0  0  0  0  0  0  0  0  0
  182.5260  177.6410  139.2980 C   0  0  0  0  0  0  0  0  0  0  0  0
  181.7340  178.8950  139.3990 C   0  0  0  0  0  0  0  0  0  0  0  0
  181.8600  179.9020  138.4340 C   0  0  0  0  0  3  0  0  0  0  0  0
  180.2170  181.2190  139.6020 C   0  0  0  0  0  3  0  0  0  0  0  0
  180.1000  180.2350  140.5310 N   0  0  0  0  0  0  0  0  0  0  0  0
  181.1010  181.0700  138.5320 C   0  0  0  0  0  3  0  0  0  0  0  0
  180.8300  179.0910  140.4510 C   0  0  0  0  0  3  0  0  0  0  0  0
  182.9410  176.3340  137.0890 C   0  0  0  0  0  1  0  0  0  0  0  0
  181.1120  175.8940  138.5270 O   0  0  0  0  0  0  0  0  0  0  0  0
  182.1480  176.5860  138.3280 C   0  0  0  0  0  0  0  0  0  0  0  0
  1  5  2  0  0  0  0
  1  9  1  0  0  0  0
  3  5  1  0  0  0  0
  4  7  1  0  0  0  0
  4  2  2  0  0  0  0
  5  4  1  0  0  0  0
  6  2  1  0  0  0  0
  7 10  2  0  0  0  0
  8  2  1  6  0  0  0
  8 12  1  0  0  0  0
  9  6  2  0  0  0  0
 10  8  1  0  0  0  0
 12 16  1  1  0  0  0
 12 18  1  0  0  0  0
 14 19  1  1  0  0  0
 14 15  1  0  0  0  0
 15 11  2  0  0  0  0
 15 13  2  0  0  0  0
 16 17  1  0  0  0  0
 17 15  1  0  0  0  0
 18 14  1  0  0  0  0
 19 21  1  0  0  0  0
 21 20  2  0  0  0  0
 22 24  1  0  0  0  0
 23 24  1  0  0  0  0
 24 25  2  0  0  0  0
 25 21  1  0  0  0  0
 26  7  1  0  0  0  0
 26 27  1  0  0  0  0
 28 27  1  0  0  0  0
 29 30  1  0  0  0  0
 29 28  2  0  0  0  0
 30 35  1  0  0  0  0
 31 34  1  0  0  0  0
 31 30  2  0  0  0  0
 32 33  1  0  0  0  0
 34 32  2  0  0  0  0
 35 33  2  0  0  0  0
 36 38  1  0  0  0  0
 38 37  2  0  0  0  0
 38 29  1  0  0  0  0
M  END
>  <MODEL>
7

>  <REMARK>
 VINA RESULT:      -7.6      3.451      8.499
  Name = 
  9 active torsions:
  status: ('A' for Active; 'I' for Inactive)
    1  A    between atoms: N_3  and  C_20
    2  A    between atoms: C_4  and  C_7
    3  A    between atoms: C_4  and  C_34
    4  A    between atoms: C_8  and  C_30
    5  A    between atoms: C_15  and  C_20
    6  A    between atoms: C_15  and  C_22
    7  A    between atoms: C_19  and  C_26
    8  A    between atoms: C_19  and  C_32
    9  A    between atoms: N_29  and  C_32
                            x       y       z     vdW  Elec       q    Type
                         _______ _______ _______ _____ _____    ______ ____

>  <TORSDO>
F 9

$$$$
=
 OpenBabel11062414353D

 38 41  0  0  1  0  0  0  0  0999 V2000
  188.1840  177.4890  146.1350 N   0  0  0  0  0  0  0  0  0  0  0  0
  188.2060  177.8780  143.3930 C   0  0  0  0  0  0  0  0  0  0  0  0
  185.8370  177.8700  146.1870 N   0  0  0  0  0  2  0  0  0  0  0  0
  186.9490  177.9520  144.0500 C   0  0  0  0  0  0  0  0  0  0  0  0
  186.9230  177.7630  145.4960 C   0  0  0  0  0  0  0  0  0  0  0  0
  189.3180  177.6180  144.0110 N   0  0  0  0  0  0  0  0  0  0  0  0
  186.0320  178.1640  143.1130 C   0  0  0  0  0  0  0  0  0  0  0  0
  187.9260  178.0830  141.9880 C   0  0  0  0  0  0  0  0  0  0  0  0
  189.2990  177.4190  145.4470 C   0  0  0  0  0  3  0  0  0  0  0  0
  186.6480  178.2550  141.8150 N   0  0  0  0  0  0  0  0  0  0  0  0
  189.1850  175.4020  137.5920 O   0  0  0  0  0  0  0  0  0  0  0  0
  188.9370  178.1330  140.8930 C   0  0  1  0  0  3  0  0  0  0  0  0
  190.1130  177.6150  137.0430 O   0  0  0  0  0  0  0  0  0  0  0  0
  187.9730  177.5380  138.7290 C   0  0  1  0  0  3  0  0  0  0  0  0
  189.4690  176.7810  138.1150 S   0  0  0  0  0  0  0  0  0  0  0  0
  189.7070  176.7980  140.7880 C   0  0  0  0  0  2  0  0  0  0  0  0
  190.5500  176.7110  139.5220 C   0  0  0  0  0  2  0  0  0  0  0  0
  188.3220  178.6230  139.6440 N   0  0  0  0  0  2  0  0  0  0  0  0
  187.0180  178.0010  137.6260 C   0  0  0  0  0  2  0  0  0  0  0  0
  185.1200  179.1270  138.5200 O   0  0  0  0  0  0  0  0  0  0  0  0
  185.5850  178.0560  138.0490 C   0  0  0  0  0  0  0  0  0  0  0  0
  184.2380  177.1980  135.6200 N   0  0  0  0  0  1  0  0  0  0  0  0
  183.4150  175.2640  136.8850 N   0  0  0  0  0  1  0  0  0  0  0  0
  184.1640  176.4710  136.8440 C   0  0  0  0  0  0  0  0  0  0  0  0
  184.7740  176.8790  137.9180 N   0  0  0  0  0  0  0  0  0  0  0  0
  184.5650  178.2570  143.3490 C   0  0  0  0  0  2  0  0  0  0  0  0
  183.9340  179.1810  142.3220 C   0  0  0  0  0  2  0  0  0  0  0  0
  183.3670  178.4010  141.2290 N   0  0  0  0  0  0  0  0  0  0  0  0
  182.0950  178.2720  140.9730 C   0  0  0  0  0  0  0  0  0  0  0  0
  181.0580  178.8870  141.8440 C   0  0  0  0  0  0  0  0  0  0  0  0
  180.6900  178.2860  143.0540 C   0  0  0  0  0  3  0  0  0  0  0  0
  179.1340  180.0770  143.4640 C   0  0  0  0  0  3  0  0  0  0  0  0
  179.4990  180.6530  142.2900 N   0  0  0  0  0  0  0  0  0  0  0  0
  179.7250  178.8800  143.8700 C   0  0  0  0  0  3  0  0  0  0  0  0
  180.4380  180.0910  141.4840 C   0  0  0  0  0  3  0  0  0  0  0  0
  181.6290  175.9760  139.8480 C   0  0  0  0  0  1  0  0  0  0  0  0
  181.4590  178.0370  138.6960 O   0  0  0  0  0  0  0  0  0  0  0  0
  181.7060  177.4650  139.7920 C   0  0  0  0  0  0  0  0  0  0  0  0
  2  6  2  0  0  0  0
  2  4  1  0  0  0  0
  4  5  1  0  0  0  0
  5  1  1  0  0  0  0
  5  3  2  0  0  0  0
  6  9  1  0  0  0  0
  7 26  1  0  0  0  0
  7  4  2  0  0  0  0
  8  2  1  0  0  0  0
  9  1  2  0  0  0  0
 10  8  2  0  0  0  0
 10  7  1  0  0  0  0
 11 15  2  0  0  0  0
 12  8  1  1  0  0  0
 13 15  2  0  0  0  0
 14 19  1  6  0  0  0
 14 18  1  0  0  0  0
 15 14  1  0  0  0  0
 15 17  1  0  0  0  0
 16 12  1  0  0  0  0
 17 16  1  0  0  0  0
 18 12  1  0  0  0  0
 19 21  1  0  0  0  0
 21 20  2  0  0  0  0
 22 24  1  0  0  0  0
 24 23  1  0  0  0  0
 24 25  2  0  0  0  0
 25 21  1  0  0  0  0
 27 26  1  0  0  0  0
 28 27  1  0  0  0  0
 29 28  2  0  0  0  0
 29 30  1  0  0  0  0
 30 31  1  0  0  0  0
 31 34  2  0  0  0  0
 32 34  1  0  0  0  0
 33 32  2  0  0  0  0
 35 30  2  0  0  0  0
 35 33  1  0  0  0  0
 37 38  2  0  0  0  0
 38 36  1  0  0  0  0
 38 29  1  0  0  0  0
M  END
>  <MODEL>
8

>  <REMARK>
 VINA RESULT:      -7.6      2.690      6.485
  Name = 
  9 active torsions:
  status: ('A' for Active; 'I' for Inactive)
    1  A    between atoms: N_3  and  C_20
    2  A    between atoms: C_4  and  C_7
    3  A    between atoms: C_4  and  C_34
    4  A    between atoms: C_8  and  C_30
    5  A    between atoms: C_15  and  C_20
    6  A    between atoms: C_15  and  C_22
    7  A    between atoms: C_19  and  C_26
    8  A    between atoms: C_19  and  C_32
    9  A    between atoms: N_29  and  C_32
                            x       y       z     vdW  Elec       q    Type
                         _______ _______ _______ _____ _____    ______ ____

>  <TORSDO>
F 9

$$$$
=
 OpenBabel11062414353D

 38 41  0  0  1  0  0  0  0  0999 V2000
  181.5590  179.0350  143.6210 N   0  0  0  0  0  0  0  0  0  0  0  0
  183.3220  178.7640  141.5030 C   0  0  0  0  0  0  0  0  0  0  0  0
  183.3670  178.9350  145.1620 N   0  0  0  0  0  2  0  0  0  0  0  0
  183.8780  178.8130  142.8080 C   0  0  0  0  0  0  0  0  0  0  0  0
  182.9610  178.9410  143.9360 C   0  0  0  0  0  0  0  0  0  0  0  0
  182.0500  178.8630  141.2670 N   0  0  0  0  0  0  0  0  0  0  0  0
  185.1980  178.7520  142.6730 C   0  0  0  0  0  0  0  0  0  0  0  0
  184.4500  178.6540  140.6020 C   0  0  0  0  0  0  0  0  0  0  0  0
  181.1320  179.0010  142.3800 C   0  0  0  0  0  3  0  0  0  0  0  0
  185.5590  178.6430  141.2840 N   0  0  0  0  0  0  0  0  0  0  0  0
  185.4480  175.0580  136.8380 O   0  0  0  0  0  0  0  0  0  0  0  0
  184.3750  178.5310  139.1170 C   0  0  1  0  0  3  0  0  0  0  0  0
  183.7550  176.4330  135.6990 O   0  0  0  0  0  0  0  0  0  0  0  0
  183.6420  176.3080  138.4190 C   0  0  1  0  0  3  0  0  0  0  0  0
  184.6170  176.3050  136.9240 S   0  0  0  0  0  0  0  0  0  0  0  0
  185.7460  178.1410  138.5220 C   0  0  0  0  0  2  0  0  0  0  0  0
  185.6510  177.7430  137.0560 C   0  0  0  0  0  2  0  0  0  0  0  0
  183.2360  177.6780  138.7270 N   0  0  0  0  0  2  0  0  0  0  0  0
  182.4500  175.3490  138.3810 C   0  0  0  0  0  2  0  0  0  0  0  0
  180.5890  176.6850  137.7320 O   0  0  0  0  0  0  0  0  0  0  0  0
  181.1340  176.0080  138.6430 C   0  0  0  0  0  0  0  0  0  0  0  0
  178.9310  174.2210  139.2790 N   0  0  0  0  0  1  0  0  0  0  0  0
  179.0750  175.0360  141.5880 N   0  0  0  0  0  1  0  0  0  0  0  0
  179.5430  175.0700  140.2470 C   0  0  0  0  0  0  0  0  0  0  0  0
  180.5260  175.8630  139.9350 N   0  0  0  0  0  0  0  0  0  0  0  0
  186.1820  178.8240  143.7880 C   0  0  0  0  0  2  0  0  0  0  0  0
  186.7770  177.4500  144.0430 C   0  0  0  0  0  2  0  0  0  0  0  0
  187.2860  177.3700  145.4060 N   0  0  0  0  0  0  0  0  0  0  0  0
  188.5460  177.3920  145.7440 C   0  0  0  0  0  0  0  0  0  0  0  0
  189.6260  177.4430  144.7240 C   0  0  0  0  0  0  0  0  0  0  0  0
  190.2840  178.6460  144.4350 C   0  0  0  0  0  3  0  0  0  0  0  0
  191.6630  177.5010  142.8270 C   0  0  0  0  0  3  0  0  0  0  0  0
  191.0210  176.3390  143.1160 N   0  0  0  0  0  0  0  0  0  0  0  0
  191.3060  178.6790  143.4840 C   0  0  0  0  0  3  0  0  0  0  0  0
  190.0240  176.2870  144.0400 C   0  0  0  0  0  3  0  0  0  0  0  0
  187.9400  177.8560  148.2280 C   0  0  0  0  0  1  0  0  0  0  0  0
  189.9840  176.8660  147.5600 O   0  0  0  0  0  0  0  0  0  0  0  0
  188.8740  177.3360  147.1880 C   0  0  0  0  0  0  0  0  0  0  0  0
  1  5  1  0  0  0  0
  2  4  1  0  0  0  0
  4  5  1  0  0  0  0
  5  3  2  0  0  0  0
  6  2  2  0  0  0  0
  6  9  1  0  0  0  0
  7  4  2  0  0  0  0
  7 26  1  0  0  0  0
  8 10  2  0  0  0  0
  8  2  1  0  0  0  0
  9  1  2  0  0  0  0
 10  7  1  0  0  0  0
 11 15  2  0  0  0  0
 12  8  1  1  0  0  0
 13 15  2  0  0  0  0
 14 19  1  6  0  0  0
 14 18  1  0  0  0  0
 15 17  1  0  0  0  0
 15 14  1  0  0  0  0
 16 12  1  0  0  0  0
 17 16  1  0  0  0  0
 18 12  1  0  0  0  0
 19 21  1  0  0  0  0
 20 21  2  0  0  0  0
 21 25  1  0  0  0  0
 22 24  1  0  0  0  0
 24 23  1  0  0  0  0
 25 24  2  0  0  0  0
 26 27  1  0  0  0  0
 27 28  1  0  0  0  0
 28 29  2  0  0  0  0
 29 38  1  0  0  0  0
 30 29  1  0  0  0  0
 31 30  1  0  0  0  0
 32 33  2  0  0  0  0
 32 34  1  0  0  0  0
 33 35  1  0  0  0  0
 34 31  2  0  0  0  0
 35 30  2  0  0  0  0
 38 37  2  0  0  0  0
 38 36  1  0  0  0  0
M  END
>  <MODEL>
9

>  <REMARK>
 VINA RESULT:      -7.6      2.771      3.916
  Name = 
  9 active torsions:
  status: ('A' for Active; 'I' for Inactive)
    1  A    between atoms: N_3  and  C_20
    2  A    between atoms: C_4  and  C_7
    3  A    between atoms: C_4  and  C_34
    4  A    between atoms: C_8  and  C_30
    5  A    between atoms: C_15  and  C_20
    6  A    between atoms: C_15  and  C_22
    7  A    between atoms: C_19  and  C_26
    8  A    between atoms: C_19  and  C_32
    9  A    between atoms: N_29  and  C_32
                            x       y       z     vdW  Elec       q    Type
                         _______ _______ _______ _____ _____    ______ ____

>  <TORSDO>
F 9

$$$$
