=
 OpenBabel11062417173D

 26 28  0  0  1  0  0  0  0  0999 V2000
  191.1090  177.4120  141.6350 C   0  0  0  0  0  2  0  0  0  0  0  0
  191.0670  176.7120  142.9850 C   0  0  2  0  0  3  0  0  0  0  0  0
  190.4300  175.4740  142.8690 O   0  0  0  0  0  1  0  0  0  0  0  0
  190.5730  178.7650  144.0060 O   0  0  0  0  0  0  0  0  0  0  0  0
  190.3720  177.5600  144.0100 C   0  0  0  0  0  0  0  0  0  0  0  0
  187.9280  176.9750  144.5110 C   0  0  2  0  0  3  0  0  0  0  0  0
  188.4010  178.0320  145.4930 C   0  0  2  0  0  3  0  0  0  0  0  0
  189.3820  176.9790  144.9940 C   0  0  2  0  0  3  0  0  0  0  0  0
  187.7730  177.5600  143.2520 O   0  0  0  0  0  1  0  0  0  0  0  0
  188.9680  178.0760  147.9660 C   0  0  0  0  0  2  0  0  0  0  0  0
  187.9540  177.6990  146.9130 C   0  0  0  0  0  0  0  0  0  0  0  0
  186.6450  177.9790  147.3110 O   0  0  0  0  0  1  0  0  0  0  0  0
  188.6640  176.6100  147.6880 C   0  0  0  0  0  2  0  0  0  0  0  0
  190.0400  176.8470  140.7170 C   0  0  0  0  0  2  0  0  0  0  0  0
  189.8780  177.7330  139.4910 C   0  0  2  0  0  3  0  0  0  0  0  0
  191.5370  176.7560  138.0840 O   0  0  0  0  0  0  0  0  0  0  0  0
  188.1000  177.3660  137.9820 C   0  0  0  0  0  3  0  0  0  0  0  0
  189.2670  176.7170  137.2960 C   0  0  1  0  0  3  0  0  0  0  0  0
  188.4390  177.8980  139.1500 C   0  0  0  0  0  0  0  0  0  0  0  0
  190.3600  177.0150  138.2810 C   0  0  0  0  0  0  0  0  0  0  0  0
  189.0540  175.2690  137.1590 N   0  0  0  0  0  0  0  0  0  0  0  0
  189.6680  174.8300  135.9150 C   0  0  0  0  0  1  0  0  0  0  0  0
  187.6300  175.0210  136.9830 C   0  0  0  0  0  1  0  0  0  0  0  0
  187.5350  178.5620  139.9850 O   0  0  0  0  0  0  0  0  0  0  0  0
  185.5780  178.9380  140.8520 C   0  0  0  0  0  1  0  0  0  0  0  0
  186.2450  178.7110  139.6470 O   0  0  0  0  0  0  0  0  0  0  0  0
  1  2  1  0  0  0  0
  2  3  1  6  0  0  0
  2  5  1  0  0  0  0
  4  5  2  0  0  0  0
  6  9  1  6  0  0  0
  6  8  1  0  0  0  0
  6  7  1  0  0  0  0
  7 11  1  1  0  0  0
  8  5  1  6  0  0  0
  8  7  1  0  0  0  0
 11 12  1  0  0  0  0
 11 13  1  0  0  0  0
 11 10  1  0  0  0  0
 13 10  1  0  0  0  0
 14  1  1  0  0  0  0
 15 14  1  1  0  0  0
 16 20  2  0  0  0  0
 17 19  2  0  0  0  0
 18 21  1  1  0  0  0
 18 17  1  0  0  0  0
 18 20  1  0  0  0  0
 19 15  1  0  0  0  0
 19 24  1  0  0  0  0
 20 15  1  0  0  0  0
 22 21  1  0  0  0  0
 23 21  1  0  0  0  0
 26 24  1  0  0  0  0
 26 25  1  0  0  0  0
M  END
>  <MODEL>
1

>  <REMARK>
 VINA RESULT:      -6.8      0.000      0.000
  Name = 
  9 active torsions:
  status: ('A' for Active; 'I' for Inactive)
    1  A    between atoms: O_2  and  C_19
    2  A    between atoms: O_2  and  O_21
    3  A    between atoms: C_3  and  C_16
    4  A    between atoms: N_5  and  C_17
    5  A    between atoms: C_8  and  C_14
    6  A    between atoms: C_13  and  C_14
    7  A    between atoms: C_13  and  C_22
    8  A    between atoms: C_18  and  C_23
    9  A    between atoms: C_22  and  C_23
                            x       y       z     vdW  Elec       q    Type
                         _______ _______ _______ _____ _____    ______ ____

>  <TORSDO>
F 9

$$$$
=
 OpenBabel11062417173D

 26 28  0  0  1  0  0  0  0  0999 V2000
  185.8590  177.6630  144.8300 C   0  0  0  0  0  2  0  0  0  0  0  0
  184.9380  178.8720  144.8470 C   0  0  2  0  0  3  0  0  0  0  0  0
  184.2430  178.9350  146.0570 O   0  0  0  0  0  1  0  0  0  0  0  0
  182.9150  179.4300  143.7980 O   0  0  0  0  0  0  0  0  0  0  0  0
  183.9750  178.8310  143.6960 C   0  0  0  0  0  0  0  0  0  0  0  0
  185.3720  178.8410  141.5490 C   0  0  2  0  0  3  0  0  0  0  0  0
  183.9030  178.9730  141.1900 C   0  0  2  0  0  3  0  0  0  0  0  0
  184.3080  178.1350  142.3960 C   0  0  2  0  0  3  0  0  0  0  0  0
  185.8120  180.0400  142.1170 O   0  0  0  0  0  1  0  0  0  0  0  0
  184.5350  178.1200  138.8840 C   0  0  0  0  0  2  0  0  0  0  0  0
  183.5420  178.0630  140.0200 C   0  0  0  0  0  0  0  0  0  0  0  0
  183.0900  176.7650  140.2670 O   0  0  0  0  0  1  0  0  0  0  0  0
  183.1270  178.6690  138.6970 C   0  0  0  0  0  2  0  0  0  0  0  0
  187.3030  178.1000  145.0030 C   0  0  0  0  0  2  0  0  0  0  0  0
  188.2130  176.8850  145.0970 C   0  0  2  0  0  3  0  0  0  0  0  0
  188.2620  176.2580  142.7960 O   0  0  0  0  0  0  0  0  0  0  0  0
  190.5520  177.1590  145.2740 C   0  0  0  0  0  3  0  0  0  0  0  0
  190.3570  176.8370  143.8210 C   0  0  1  0  0  3  0  0  0  0  0  0
  189.4030  177.1850  145.9400 C   0  0  0  0  0  0  0  0  0  0  0  0
  188.8690  176.6420  143.7840 C   0  0  0  0  0  0  0  0  0  0  0  0
  190.7660  177.9680  142.9760 N   0  0  0  0  0  0  0  0  0  0  0  0
  191.6380  177.4650  141.9250 C   0  0  0  0  0  1  0  0  0  0  0  0
  191.6050  178.8610  143.7640 C   0  0  0  0  0  1  0  0  0  0  0  0
  189.3110  177.4600  147.3070 O   0  0  0  0  0  0  0  0  0  0  0  0
  187.8080  178.0260  148.7720 C   0  0  0  0  0  1  0  0  0  0  0  0
  188.3320  176.9420  148.0640 O   0  0  0  0  0  0  0  0  0  0  0  0
  1  2  1  0  0  0  0
  1 14  1  0  0  0  0
  2  3  1  1  0  0  0
  5  4  2  0  0  0  0
  5  2  1  0  0  0  0
  6  9  1  1  0  0  0
  6  8  1  0  0  0  0
  7 11  1  6  0  0  0
  7  6  1  0  0  0  0
  7  8  1  0  0  0  0
  8  5  1  1  0  0  0
 10 11  1  0  0  0  0
 11 12  1  0  0  0  0
 13 10  1  0  0  0  0
 13 11  1  0  0  0  0
 15 14  1  6  0  0  0
 15 19  1  0  0  0  0
 16 20  2  0  0  0  0
 17 19  2  0  0  0  0
 18 21  1  6  0  0  0
 18 17  1  0  0  0  0
 19 24  1  0  0  0  0
 20 18  1  0  0  0  0
 20 15  1  0  0  0  0
 21 23  1  0  0  0  0
 22 21  1  0  0  0  0
 24 26  1  0  0  0  0
 26 25  1  0  0  0  0
M  END
>  <MODEL>
2

>  <REMARK>
 VINA RESULT:      -6.8      3.331      7.203
  Name = 
  9 active torsions:
  status: ('A' for Active; 'I' for Inactive)
    1  A    between atoms: O_2  and  C_19
    2  A    between atoms: O_2  and  O_21
    3  A    between atoms: C_3  and  C_16
    4  A    between atoms: N_5  and  C_17
    5  A    between atoms: C_8  and  C_14
    6  A    between atoms: C_13  and  C_14
    7  A    between atoms: C_13  and  C_22
    8  A    between atoms: C_18  and  C_23
    9  A    between atoms: C_22  and  C_23
                            x       y       z     vdW  Elec       q    Type
                         _______ _______ _______ _____ _____    ______ ____

>  <TORSDO>
F 9

$$$$
=
 OpenBabel11062417173D

 26 28  0  0  1  0  0  0  0  0999 V2000
  188.1080  178.4250  141.6000 C   0  0  0  0  0  2  0  0  0  0  0  0
  187.4470  177.4960  142.6060 C   0  0  2  0  0  3  0  0  0  0  0  0
  186.4620  178.1790  143.3220 O   0  0  0  0  0  1  0  0  0  0  0  0
  189.0640  175.9060  143.2030 O   0  0  0  0  0  0  0  0  0  0  0  0
  188.4610  176.9100  143.5450 C   0  0  0  0  0  0  0  0  0  0  0  0
  190.0640  178.4370  144.8350 C   0  0  2  0  0  3  0  0  0  0  0  0
  190.1200  177.0410  145.4270 C   0  0  2  0  0  3  0  0  0  0  0  0
  188.8050  177.5650  144.8640 C   0  0  2  0  0  3  0  0  0  0  0  0
  190.7010  178.4310  143.5910 O   0  0  0  0  0  1  0  0  0  0  0  0
  188.7890  176.6130  147.5450 C   0  0  0  0  0  2  0  0  0  0  0  0
  190.0930  177.0910  146.9510 C   0  0  0  0  0  0  0  0  0  0  0  0
  191.2010  176.6510  147.6790 O   0  0  0  0  0  1  0  0  0  0  0  0
  189.1880  178.0790  147.6550 C   0  0  0  0  0  2  0  0  0  0  0  0
  188.2270  177.7400  140.2510 C   0  0  0  0  0  2  0  0  0  0  0  0
  189.4140  178.2960  139.4800 C   0  0  2  0  0  3  0  0  0  0  0  0
  191.1740  177.1050  140.5640 O   0  0  0  0  0  0  0  0  0  0  0  0
  189.9250  177.4800  137.3240 C   0  0  0  0  0  3  0  0  0  0  0  0
  190.9000  176.7520  138.2030 C   0  0  1  0  0  3  0  0  0  0  0  0
  189.1380  178.2940  138.0180 C   0  0  0  0  0  0  0  0  0  0  0  0
  190.5500  177.3370  139.5400 C   0  0  0  0  0  0  0  0  0  0  0  0
  190.6510  175.3040  138.1740 N   0  0  0  0  0  0  0  0  0  0  0  0
  191.8340  174.6440  137.6420 C   0  0  0  0  0  1  0  0  0  0  0  0
  189.6000  175.0300  137.2040 C   0  0  0  0  0  1  0  0  0  0  0  0
  188.1450  179.0860  137.4350 O   0  0  0  0  0  0  0  0  0  0  0  0
  186.2810  178.0040  137.1460 C   0  0  0  0  0  1  0  0  0  0  0  0
  187.3420  178.6110  136.4700 O   0  0  0  0  0  0  0  0  0  0  0  0
  1  2  1  0  0  0  0
  2  3  1  1  0  0  0
  2  5  1  0  0  0  0
  4  5  2  0  0  0  0
  6  9  1  6  0  0  0
  6  8  1  0  0  0  0
  6  7  1  0  0  0  0
  7 11  1  1  0  0  0
  8  5  1  6  0  0  0
  8  7  1  0  0  0  0
 10 13  1  0  0  0  0
 11 10  1  0  0  0  0
 11 13  1  0  0  0  0
 11 12  1  0  0  0  0
 14  1  1  0  0  0  0
 15 20  1  0  0  0  0
 15 14  1  1  0  0  0
 17 19  2  0  0  0  0
 17 18  1  0  0  0  0
 18 21  1  1  0  0  0
 18 20  1  0  0  0  0
 19 15  1  0  0  0  0
 20 16  2  0  0  0  0
 22 21  1  0  0  0  0
 23 21  1  0  0  0  0
 24 19  1  0  0  0  0
 26 25  1  0  0  0  0
 26 24  1  0  0  0  0
M  END
>  <MODEL>
3

>  <REMARK>
 VINA RESULT:      -6.8      1.846      2.680
  Name = 
  9 active torsions:
  status: ('A' for Active; 'I' for Inactive)
    1  A    between atoms: O_2  and  C_19
    2  A    between atoms: O_2  and  O_21
    3  A    between atoms: C_3  and  C_16
    4  A    between atoms: N_5  and  C_17
    5  A    between atoms: C_8  and  C_14
    6  A    between atoms: C_13  and  C_14
    7  A    between atoms: C_13  and  C_22
    8  A    between atoms: C_18  and  C_23
    9  A    between atoms: C_22  and  C_23
                            x       y       z     vdW  Elec       q    Type
                         _______ _______ _______ _____ _____    ______ ____

>  <TORSDO>
F 9

$$$$
=
 OpenBabel11062417173D

 26 28  0  0  1  0  0  0  0  0999 V2000
  190.3270  177.5140  141.9930 C   0  0  0  0  0  2  0  0  0  0  0  0
  190.0620  176.6190  143.1930 C   0  0  2  0  0  3  0  0  0  0  0  0
  190.5050  175.3200  142.9370 O   0  0  0  0  0  1  0  0  0  0  0  0
  187.9470  175.6100  143.3000 O   0  0  0  0  0  0  0  0  0  0  0  0
  188.6020  176.6100  143.5460 C   0  0  0  0  0  0  0  0  0  0  0  0
  188.2230  177.8380  145.7630 C   0  0  2  0  0  3  0  0  0  0  0  0
  186.8990  177.2930  145.2600 C   0  0  2  0  0  3  0  0  0  0  0  0
  187.9420  177.7700  144.2580 C   0  0  2  0  0  3  0  0  0  0  0  0
  189.0100  176.7770  146.2170 O   0  0  0  0  0  1  0  0  0  0  0  0
  185.9730  179.2540  146.5790 C   0  0  0  0  0  2  0  0  0  0  0  0
  185.7920  178.3340  145.3960 C   0  0  0  0  0  0  0  0  0  0  0  0
  185.3330  179.0090  144.2620 O   0  0  0  0  0  1  0  0  0  0  0  0
  184.8240  178.2550  146.5560 C   0  0  0  0  0  2  0  0  0  0  0  0
  190.2940  176.6980  140.7130 C   0  0  0  0  0  2  0  0  0  0  0  0
  190.6110  177.5830  139.5160 C   0  0  2  0  0  3  0  0  0  0  0  0
  192.3480  176.2850  138.5230 O   0  0  0  0  0  0  0  0  0  0  0  0
  189.2230  177.5480  137.6060 C   0  0  0  0  0  3  0  0  0  0  0  0
  190.3780  176.6770  137.2040 C   0  0  1  0  0  3  0  0  0  0  0  0
  189.3590  178.0190  138.8410 C   0  0  0  0  0  0  0  0  0  0  0  0
  191.2300  176.7690  138.4360 C   0  0  0  0  0  0  0  0  0  0  0  0
  189.9330  175.2960  136.9680 N   0  0  0  0  0  0  0  0  0  0  0  0
  190.4770  174.8490  135.6940 C   0  0  0  0  0  1  0  0  0  0  0  0
  188.4880  175.2960  136.7800 C   0  0  0  0  0  1  0  0  0  0  0  0
  188.4220  178.8560  139.4520 O   0  0  0  0  0  0  0  0  0  0  0  0
  186.8260  178.6390  140.9130 C   0  0  0  0  0  1  0  0  0  0  0  0
  187.1300  178.5070  139.5560 O   0  0  0  0  0  0  0  0  0  0  0  0
  1  2  1  0  0  0  0
  2  3  1  6  0  0  0
  2  5  1  0  0  0  0
  4  5  2  0  0  0  0
  6  9  1  6  0  0  0
  7 11  1  1  0  0  0
  7  6  1  0  0  0  0
  8  5  1  6  0  0  0
  8  7  1  0  0  0  0
  8  6  1  0  0  0  0
 11 13  1  0  0  0  0
 11 10  1  0  0  0  0
 12 11  1  0  0  0  0
 13 10  1  0  0  0  0
 14  1  1  0  0  0  0
 15 14  1  1  0  0  0
 17 19  2  0  0  0  0
 18 21  1  1  0  0  0
 18 17  1  0  0  0  0
 18 20  1  0  0  0  0
 19 24  1  0  0  0  0
 19 15  1  0  0  0  0
 20 16  2  0  0  0  0
 20 15  1  0  0  0  0
 22 21  1  0  0  0  0
 23 21  1  0  0  0  0
 24 26  1  0  0  0  0
 26 25  1  0  0  0  0
M  END
>  <MODEL>
4

>  <REMARK>
 VINA RESULT:      -6.7      1.539      2.015
  Name = 
  9 active torsions:
  status: ('A' for Active; 'I' for Inactive)
    1  A    between atoms: O_2  and  C_19
    2  A    between atoms: O_2  and  O_21
    3  A    between atoms: C_3  and  C_16
    4  A    between atoms: N_5  and  C_17
    5  A    between atoms: C_8  and  C_14
    6  A    between atoms: C_13  and  C_14
    7  A    between atoms: C_13  and  C_22
    8  A    between atoms: C_18  and  C_23
    9  A    between atoms: C_22  and  C_23
                            x       y       z     vdW  Elec       q    Type
                         _______ _______ _______ _____ _____    ______ ____

>  <TORSDO>
F 9

$$$$
=
 OpenBabel11062417173D

 26 28  0  0  1  0  0  0  0  0999 V2000
  189.5210  177.8710  141.2290 C   0  0  0  0  0  2  0  0  0  0  0  0
  190.4750  177.2280  142.2240 C   0  0  2  0  0  3  0  0  0  0  0  0
  190.2370  175.8550  142.3070 O   0  0  0  0  0  1  0  0  0  0  0  0
  190.5640  179.0580  143.6890 O   0  0  0  0  0  0  0  0  0  0  0  0
  190.3470  177.8620  143.5790 C   0  0  0  0  0  0  0  0  0  0  0  0
  188.3730  177.0670  145.0070 C   0  0  2  0  0  3  0  0  0  0  0  0
  189.2530  177.9840  145.8370 C   0  0  2  0  0  3  0  0  0  0  0  0
  189.8900  177.0790  144.7900 C   0  0  2  0  0  3  0  0  0  0  0  0
  187.6830  177.8300  144.0610 O   0  0  0  0  0  1  0  0  0  0  0  0
  188.2020  177.0540  147.9510 C   0  0  0  0  0  2  0  0  0  0  0  0
  189.4810  177.4100  147.2310 C   0  0  0  0  0  0  0  0  0  0  0  0
  190.4870  176.4630  147.4350 O   0  0  0  0  0  1  0  0  0  0  0  0
  189.0650  178.2060  148.4490 C   0  0  0  0  0  2  0  0  0  0  0  0
  189.2660  176.9300  140.0650 C   0  0  0  0  0  2  0  0  0  0  0  0
  189.9350  177.4580  138.8050 C   0  0  2  0  0  3  0  0  0  0  0  0
  192.1980  176.8870  139.2990 O   0  0  0  0  0  0  0  0  0  0  0  0
  189.8520  176.2140  136.8000 C   0  0  0  0  0  3  0  0  0  0  0  0
  191.2200  175.9040  137.3360 C   0  0  1  0  0  3  0  0  0  0  0  0
  189.1790  177.0380  137.5940 C   0  0  0  0  0  0  0  0  0  0  0  0
  191.2210  176.7450  138.5800 C   0  0  0  0  0  0  0  0  0  0  0  0
  191.3430  174.4760  137.6610 N   0  0  0  0  0  0  0  0  0  0  0  0
  192.6510  174.0150  137.2190 C   0  0  0  0  0  1  0  0  0  0  0  0
  190.3900  173.7290  136.8520 C   0  0  0  0  0  1  0  0  0  0  0  0
  187.8820  177.4820  137.3210 O   0  0  0  0  0  0  0  0  0  0  0  0
  186.0760  178.1890  138.3040 C   0  0  0  0  0  1  0  0  0  0  0  0
  187.3670  178.5640  137.9250 O   0  0  0  0  0  0  0  0  0  0  0  0
  1  2  1  0  0  0  0
  2  3  1  1  0  0  0
  2  5  1  0  0  0  0
  5  4  2  0  0  0  0
  6  9  1  6  0  0  0
  6  7  1  0  0  0  0
  7 11  1  1  0  0  0
  8  5  1  6  0  0  0
  8  6  1  0  0  0  0
  8  7  1  0  0  0  0
 10 13  1  0  0  0  0
 11 12  1  0  0  0  0
 11 10  1  0  0  0  0
 11 13  1  0  0  0  0
 14  1  1  0  0  0  0
 15 14  1  1  0  0  0
 17 18  1  0  0  0  0
 17 19  2  0  0  0  0
 18 21  1  1  0  0  0
 18 20  1  0  0  0  0
 19 15  1  0  0  0  0
 20 15  1  0  0  0  0
 20 16  2  0  0  0  0
 22 21  1  0  0  0  0
 23 21  1  0  0  0  0
 24 19  1  0  0  0  0
 24 26  1  0  0  0  0
 26 25  1  0  0  0  0
M  END
>  <MODEL>
5

>  <REMARK>
 VINA RESULT:      -6.5      1.647      1.931
  Name = 
  9 active torsions:
  status: ('A' for Active; 'I' for Inactive)
    1  A    between atoms: O_2  and  C_19
    2  A    between atoms: O_2  and  O_21
    3  A    between atoms: C_3  and  C_16
    4  A    between atoms: N_5  and  C_17
    5  A    between atoms: C_8  and  C_14
    6  A    between atoms: C_13  and  C_14
    7  A    between atoms: C_13  and  C_22
    8  A    between atoms: C_18  and  C_23
    9  A    between atoms: C_22  and  C_23
                            x       y       z     vdW  Elec       q    Type
                         _______ _______ _______ _____ _____    ______ ____

>  <TORSDO>
F 9

$$$$
=
 OpenBabel11062417173D

 26 28  0  0  1  0  0  0  0  0999 V2000
  187.6770  179.0530  141.7770 C   0  0  0  0  0  2  0  0  0  0  0  0
  188.6610  177.9130  141.9850 C   0  0  2  0  0  3  0  0  0  0  0  0
  188.5740  176.9990  140.9320 O   0  0  0  0  0  1  0  0  0  0  0  0
  188.2270  176.0150  143.2930 O   0  0  0  0  0  0  0  0  0  0  0  0
  188.4160  177.2210  143.2950 C   0  0  0  0  0  0  0  0  0  0  0  0
  189.8210  177.8970  145.3280 C   0  0  2  0  0  3  0  0  0  0  0  0
  188.6790  177.0080  145.7830 C   0  0  2  0  0  3  0  0  0  0  0  0
  188.4680  177.9600  144.6130 C   0  0  2  0  0  3  0  0  0  0  0  0
  190.7610  177.1200  144.6450 O   0  0  0  0  0  1  0  0  0  0  0  0
  188.9850  178.2410  147.9800 C   0  0  0  0  0  2  0  0  0  0  0  0
  188.0170  177.5670  147.0380 C   0  0  0  0  0  0  0  0  0  0  0  0
  186.8080  178.2600  146.9330 O   0  0  0  0  0  1  0  0  0  0  0  0
  188.3050  176.9390  148.3840 C   0  0  0  0  0  2  0  0  0  0  0  0
  186.5720  178.6270  140.8270 C   0  0  0  0  0  2  0  0  0  0  0  0
  185.2550  179.2750  141.2270 C   0  0  2  0  0  3  0  0  0  0  0  0
  184.5640  180.0950  139.0960 O   0  0  0  0  0  0  0  0  0  0  0  0
  183.3280  177.9520  141.5620 C   0  0  0  0  0  3  0  0  0  0  0  0
  183.1240  178.5060  140.1820 C   0  0  1  0  0  3  0  0  0  0  0  0
  184.4680  178.3660  142.1040 C   0  0  0  0  0  0  0  0  0  0  0  0
  184.3540  179.3570  140.0460 C   0  0  0  0  0  0  0  0  0  0  0  0
  183.1110  177.4280  139.1820 N   0  0  0  0  0  0  0  0  0  0  0  0
  182.3110  177.8640  138.0470 C   0  0  0  0  0  1  0  0  0  0  0  0
  182.3910  176.2890  139.7330 C   0  0  0  0  0  1  0  0  0  0  0  0
  184.8920  177.9940  143.3820 O   0  0  0  0  0  0  0  0  0  0  0  0
  183.9010  178.9480  145.0650 C   0  0  0  0  0  1  0  0  0  0  0  0
  185.0980  178.9030  144.3470 O   0  0  0  0  0  0  0  0  0  0  0  0
  1  2  1  0  0  0  0
  2  3  1  6  0  0  0
  2  5  1  0  0  0  0
  4  5  2  0  0  0  0
  6  9  1  6  0  0  0
  6  7  1  0  0  0  0
  7 11  1  1  0  0  0
  8  5  1  6  0  0  0
  8  6  1  0  0  0  0
  8  7  1  0  0  0  0
 10 13  1  0  0  0  0
 11 10  1  0  0  0  0
 11 13  1  0  0  0  0
 12 11  1  0  0  0  0
 14  1  1  0  0  0  0
 15 14  1  6  0  0  0
 15 19  1  0  0  0  0
 16 20  2  0  0  0  0
 17 19  2  0  0  0  0
 18 21  1  6  0  0  0
 18 17  1  0  0  0  0
 19 24  1  0  0  0  0
 20 18  1  0  0  0  0
 20 15  1  0  0  0  0
 21 23  1  0  0  0  0
 22 21  1  0  0  0  0
 24 26  1  0  0  0  0
 26 25  1  0  0  0  0
M  END
>  <MODEL>
6

>  <REMARK>
 VINA RESULT:      -6.5      3.103      4.555
  Name = 
  9 active torsions:
  status: ('A' for Active; 'I' for Inactive)
    1  A    between atoms: O_2  and  C_19
    2  A    between atoms: O_2  and  O_21
    3  A    between atoms: C_3  and  C_16
    4  A    between atoms: N_5  and  C_17
    5  A    between atoms: C_8  and  C_14
    6  A    between atoms: C_13  and  C_14
    7  A    between atoms: C_13  and  C_22
    8  A    between atoms: C_18  and  C_23
    9  A    between atoms: C_22  and  C_23
                            x       y       z     vdW  Elec       q    Type
                         _______ _______ _______ _____ _____    ______ ____

>  <TORSDO>
F 9

$$$$
=
 OpenBabel11062417173D

 26 28  0  0  1  0  0  0  0  0999 V2000
  186.9580  177.6210  145.8230 C   0  0  0  0  0  2  0  0  0  0  0  0
  186.0560  177.6750  144.6000 C   0  0  2  0  0  3  0  0  0  0  0  0
  186.8110  177.5340  143.4340 O   0  0  0  0  0  1  0  0  0  0  0  0
  185.2590  179.6610  145.5610 O   0  0  0  0  0  0  0  0  0  0  0  0
  185.2770  178.9580  144.5630 C   0  0  0  0  0  0  0  0  0  0  0  0
  183.0580  179.2380  143.3120 C   0  0  2  0  0  3  0  0  0  0  0  0
  183.9480  178.2800  142.5420 C   0  0  2  0  0  3  0  0  0  0  0  0
  184.5770  179.4360  143.3100 C   0  0  2  0  0  3  0  0  0  0  0  0
  182.5950  178.6020  144.4670 O   0  0  0  0  0  1  0  0  0  0  0  0
  182.5600  178.9640  140.5310 C   0  0  0  0  0  2  0  0  0  0  0  0
  183.9290  178.5940  141.0500 C   0  0  0  0  0  0  0  0  0  0  0  0
  184.9380  179.3840  140.4940 O   0  0  0  0  0  1  0  0  0  0  0  0
  183.2170  177.6610  140.0940 C   0  0  0  0  0  2  0  0  0  0  0  0
  188.2880  176.9830  145.4650 C   0  0  0  0  0  2  0  0  0  0  0  0
  189.4270  177.9560  145.7310 C   0  0  2  0  0  3  0  0  0  0  0  0
  189.6320  177.6790  148.0910 O   0  0  0  0  0  0  0  0  0  0  0  0
  191.6580  177.3360  145.2670 C   0  0  0  0  0  3  0  0  0  0  0  0
  191.5510  177.1350  146.7500 C   0  0  1  0  0  3  0  0  0  0  0  0
  190.5190  177.7690  144.7370 C   0  0  0  0  0  0  0  0  0  0  0  0
  190.1350  177.5760  146.9830 C   0  0  0  0  0  0  0  0  0  0  0  0
  191.7310  175.7190  147.1000 N   0  0  0  0  0  0  0  0  0  0  0  0
  192.7920  175.6210  148.0920 C   0  0  0  0  0  1  0  0  0  0  0  0
  192.2410  175.0110  145.9340 C   0  0  0  0  0  1  0  0  0  0  0  0
  190.3560  178.0350  143.3750 O   0  0  0  0  0  0  0  0  0  0  0  0
  190.1050  176.4110  141.9530 C   0  0  0  0  0  1  0  0  0  0  0  0
  191.0240  177.3440  142.4390 O   0  0  0  0  0  0  0  0  0  0  0  0
  2  3  1  6  0  0  0
  2  1  1  0  0  0  0
  5  2  1  0  0  0  0
  5  4  2  0  0  0  0
  6  9  1  1  0  0  0
  7 11  1  6  0  0  0
  7  8  1  0  0  0  0
  7  6  1  0  0  0  0
  8  6  1  0  0  0  0
  8  5  1  1  0  0  0
 10 11  1  0  0  0  0
 12 11  1  0  0  0  0
 13 10  1  0  0  0  0
 13 11  1  0  0  0  0
 14  1  1  0  0  0  0
 15 14  1  6  0  0  0
 15 20  1  0  0  0  0
 17 18  1  0  0  0  0
 18 20  1  0  0  0  0
 18 21  1  6  0  0  0
 19 17  2  0  0  0  0
 19 15  1  0  0  0  0
 20 16  2  0  0  0  0
 21 22  1  0  0  0  0
 23 21  1  0  0  0  0
 24 19  1  0  0  0  0
 25 26  1  0  0  0  0
 26 24  1  0  0  0  0
M  END
>  <MODEL>
7

>  <REMARK>
 VINA RESULT:      -6.3      3.514      7.436
  Name = 
  9 active torsions:
  status: ('A' for Active; 'I' for Inactive)
    1  A    between atoms: O_2  and  C_19
    2  A    between atoms: O_2  and  O_21
    3  A    between atoms: C_3  and  C_16
    4  A    between atoms: N_5  and  C_17
    5  A    between atoms: C_8  and  C_14
    6  A    between atoms: C_13  and  C_14
    7  A    between atoms: C_13  and  C_22
    8  A    between atoms: C_18  and  C_23
    9  A    between atoms: C_22  and  C_23
                            x       y       z     vdW  Elec       q    Type
                         _______ _______ _______ _____ _____    ______ ____

>  <TORSDO>
F 9

$$$$
=
 OpenBabel11062417173D

 26 28  0  0  1  0  0  0  0  0999 V2000
  191.6190  177.3490  141.8580 C   0  0  0  0  0  2  0  0  0  0  0  0
  190.9890  178.2760  142.8850 C   0  0  2  0  0  3  0  0  0  0  0  0
  191.9800  178.9380  143.6130 O   0  0  0  0  0  1  0  0  0  0  0  0
  189.7200  176.3970  143.4870 O   0  0  0  0  0  0  0  0  0  0  0  0
  190.0840  177.5160  143.8120 C   0  0  0  0  0  0  0  0  0  0  0  0
  190.4570  177.5000  146.3470 C   0  0  2  0  0  3  0  0  0  0  0  0
  189.0610  176.9870  146.0440 C   0  0  2  0  0  3  0  0  0  0  0  0
  189.6720  178.0660  145.1590 C   0  0  2  0  0  3  0  0  0  0  0  0
  191.3910  176.5310  145.9690 O   0  0  0  0  0  1  0  0  0  0  0  0
  188.6510  178.4200  148.0980 C   0  0  0  0  0  2  0  0  0  0  0  0
  188.0340  177.6040  146.9870 C   0  0  0  0  0  0  0  0  0  0  0  0
  186.8850  178.2020  146.4640 O   0  0  0  0  0  1  0  0  0  0  0  0
  187.9340  177.1140  148.4150 C   0  0  0  0  0  2  0  0  0  0  0  0
  191.0620  177.6420  140.4760 C   0  0  0  0  0  2  0  0  0  0  0  0
  189.9200  176.6880  140.1560 C   0  0  2  0  0  3  0  0  0  0  0  0
  188.0850  178.0150  140.9030 O   0  0  0  0  0  0  0  0  0  0  0  0
  189.1250  176.4820  137.9420 C   0  0  0  0  0  3  0  0  0  0  0  0
  188.1180  177.3930  138.5820 C   0  0  1  0  0  3  0  0  0  0  0  0
  190.0810  176.1190  138.7900 C   0  0  0  0  0  0  0  0  0  0  0  0
  188.6570  177.4530  139.9820 C   0  0  0  0  0  0  0  0  0  0  0  0
  188.1350  178.7190  137.9480 N   0  0  0  0  0  0  0  0  0  0  0  0
  187.1760  178.7180  136.8530 C   0  0  0  0  0  1  0  0  0  0  0  0
  189.4300  178.9160  137.3120 C   0  0  0  0  0  1  0  0  0  0  0  0
  191.1380  175.2740  138.4420 O   0  0  0  0  0  0  0  0  0  0  0  0
  192.1300  174.0190  136.9700 C   0  0  0  0  0  1  0  0  0  0  0  0
  190.9440  174.1790  137.6900 O   0  0  0  0  0  0  0  0  0  0  0  0
  1  2  1  0  0  0  0
  2  3  1  1  0  0  0
  2  5  1  0  0  0  0
  4  5  2  0  0  0  0
  6  9  1  6  0  0  0
  7  6  1  0  0  0  0
  7 11  1  1  0  0  0
  8  5  1  6  0  0  0
  8  7  1  0  0  0  0
  8  6  1  0  0  0  0
 10 13  1  0  0  0  0
 11 10  1  0  0  0  0
 11 13  1  0  0  0  0
 12 11  1  0  0  0  0
 14  1  1  0  0  0  0
 15 14  1  6  0  0  0
 17 18  1  0  0  0  0
 17 19  2  0  0  0  0
 18 21  1  6  0  0  0
 18 20  1  0  0  0  0
 19 15  1  0  0  0  0
 20 15  1  0  0  0  0
 20 16  2  0  0  0  0
 22 21  1  0  0  0  0
 23 21  1  0  0  0  0
 24 19  1  0  0  0  0
 25 26  1  0  0  0  0
 26 24  1  0  0  0  0
M  END
>  <MODEL>
8

>  <REMARK>
 VINA RESULT:      -6.3      1.672      3.466
  Name = 
  9 active torsions:
  status: ('A' for Active; 'I' for Inactive)
    1  A    between atoms: O_2  and  C_19
    2  A    between atoms: O_2  and  O_21
    3  A    between atoms: C_3  and  C_16
    4  A    between atoms: N_5  and  C_17
    5  A    between atoms: C_8  and  C_14
    6  A    between atoms: C_13  and  C_14
    7  A    between atoms: C_13  and  C_22
    8  A    between atoms: C_18  and  C_23
    9  A    between atoms: C_22  and  C_23
                            x       y       z     vdW  Elec       q    Type
                         _______ _______ _______ _____ _____    ______ ____

>  <TORSDO>
F 9

$$$$
=
 OpenBabel11062417173D

 26 28  0  0  1  0  0  0  0  0999 V2000
  190.5630  177.9900  142.8060 C   0  0  0  0  0  2  0  0  0  0  0  0
  190.0610  176.9520  141.8150 C   0  0  2  0  0  3  0  0  0  0  0  0
  190.5670  175.6910  142.1360 O   0  0  0  0  0  1  0  0  0  0  0  0
  191.5870  177.6840  140.1900 O   0  0  0  0  0  0  0  0  0  0  0  0
  190.4410  177.3220  140.4100 C   0  0  0  0  0  0  0  0  0  0  0  0
  189.7300  175.9930  138.3390 C   0  0  2  0  0  3  0  0  0  0  0  0
  190.1680  177.3830  137.9140 C   0  0  2  0  0  3  0  0  0  0  0  0
  189.4730  177.1920  139.2570 C   0  0  2  0  0  3  0  0  0  0  0  0
  190.8560  175.2550  138.7120 O   0  0  0  0  0  1  0  0  0  0  0  0
  188.7650  179.3870  137.2370 C   0  0  0  0  0  2  0  0  0  0  0  0
  189.1940  177.9780  136.9020 C   0  0  0  0  0  0  0  0  0  0  0  0
  189.4210  177.8020  135.5360 O   0  0  0  0  0  1  0  0  0  0  0  0
  187.7600  178.2450  137.3060 C   0  0  0  0  0  2  0  0  0  0  0  0
  189.4270  178.4530  143.7010 C   0  0  0  0  0  2  0  0  0  0  0  0
  188.6190  177.2590  144.1870 C   0  0  2  0  0  3  0  0  0  0  0  0
  189.8150  176.7700  146.1910 O   0  0  0  0  0  0  0  0  0  0  0  0
  186.5460  177.5830  145.2700 C   0  0  0  0  0  3  0  0  0  0  0  0
  187.4920  177.3430  146.4110 C   0  0  1  0  0  3  0  0  0  0  0  0
  187.1610  177.5400  144.0930 C   0  0  0  0  0  0  0  0  0  0  0  0
  188.7710  177.1120  145.6590 C   0  0  0  0  0  0  0  0  0  0  0  0
  187.5880  178.5330  147.2690 N   0  0  0  0  0  0  0  0  0  0  0  0
  187.9400  178.1020  148.6140 C   0  0  0  0  0  1  0  0  0  0  0  0
  186.2630  179.1230  147.4000 C   0  0  0  0  0  1  0  0  0  0  0  0
  186.5040  177.7310  142.8750 O   0  0  0  0  0  0  0  0  0  0  0  0
  184.5330  178.2560  142.1210 C   0  0  0  0  0  1  0  0  0  0  0  0
  185.7050  178.7880  142.6650 O   0  0  0  0  0  0  0  0  0  0  0  0
  1 14  1  0  0  0  0
  2  3  1  1  0  0  0
  2  1  1  0  0  0  0
  4  5  2  0  0  0  0
  5  2  1  0  0  0  0
  6  9  1  1  0  0  0
  6  8  1  0  0  0  0
  7 11  1  6  0  0  0
  7  6  1  0  0  0  0
  7  8  1  0  0  0  0
  8  5  1  1  0  0  0
 10 13  1  0  0  0  0
 11 10  1  0  0  0  0
 11 13  1  0  0  0  0
 12 11  1  0  0  0  0
 15 14  1  1  0  0  0
 15 20  1  0  0  0  0
 17 18  1  0  0  0  0
 18 21  1  1  0  0  0
 19 15  1  0  0  0  0
 19 17  2  0  0  0  0
 20 16  2  0  0  0  0
 20 18  1  0  0  0  0
 21 23  1  0  0  0  0
 21 22  1  0  0  0  0
 24 19  1  0  0  0  0
 25 26  1  0  0  0  0
 26 24  1  0  0  0  0
M  END
>  <MODEL>
9

>  <REMARK>
 VINA RESULT:      -6.1      2.764      7.474
  Name = 
  9 active torsions:
  status: ('A' for Active; 'I' for Inactive)
    1  A    between atoms: O_2  and  C_19
    2  A    between atoms: O_2  and  O_21
    3  A    between atoms: C_3  and  C_16
    4  A    between atoms: N_5  and  C_17
    5  A    between atoms: C_8  and  C_14
    6  A    between atoms: C_13  and  C_14
    7  A    between atoms: C_13  and  C_22
    8  A    between atoms: C_18  and  C_23
    9  A    between atoms: C_22  and  C_23
                            x       y       z     vdW  Elec       q    Type
                         _______ _______ _______ _____ _____    ______ ____

>  <TORSDO>
F 9

$$$$
