=
 OpenBabel11062413123D

 42 46  0  0  1  0  0  0  0  0999 V2000
  189.3360  177.6670  142.8520 C   0  0  2  0  0  3  0  0  0  0  0  0
  188.3260  178.8750  141.0010 O   0  0  0  0  0  1  0  0  0  0  0  0
  189.3910  178.0430  141.3590 C   0  0  2  0  0  3  0  0  0  0  0  0
  189.5240  176.8690  140.3830 C   0  0  0  0  0  2  0  0  0  0  0  0
  190.5760  176.9740  138.0260 C   0  0  1  0  0  3  0  0  0  0  0  0
  190.7760  176.9600  139.5180 C   0  0  2  0  0  3  0  0  0  0  0  0
  190.8840  175.7950  138.7420 O   0  0  0  0  0  0  0  0  0  0  0  0
  189.1450  176.9220  137.4040 C   0  0  1  0  0  0  0  0  0  0  0  0
  188.1990  176.6610  138.4040 O   0  0  0  0  0  1  0  0  0  0  0  0
  187.3840  178.4850  136.3510 C   0  0  0  0  0  1  0  0  0  0  0  0
  189.0920  179.3160  137.8010 O   0  0  0  0  0  1  0  0  0  0  0  0
  188.8140  178.3260  136.8560 C   0  0  1  0  0  3  0  0  0  0  0  0
  189.0240  175.8900  136.2840 C   0  0  0  0  0  0  0  0  0  0  0  0
  189.5150  176.1350  135.1890 O   0  0  0  0  0  0  0  0  0  0  0  0
  186.7850  174.5540  136.0610 C   0  0  1  0  0  3  0  0  0  0  0  0
  188.6020  173.6240  135.3760 C   0  0  2  0  0  3  0  0  0  0  0  0
  188.9400  173.3080  136.8120 C   0  0  0  0  0  2  0  0  0  0  0  0
  188.2390  174.6150  136.4850 C   0  0  1  0  0  0  0  0  0  0  0  0
  187.1240  173.4730  135.0540 C   0  0  0  0  0  2  0  0  0  0  0  0
  184.7370  174.7300  137.2740 O   0  0  0  0  0  1  0  0  0  0  0  0
  185.9150  173.9900  137.1750 C   0  0  0  0  0  2  0  0  0  0  0  0
  190.6910  177.8780  143.5250 C   0  0  0  0  0  2  0  0  0  0  0  0
  189.6390  177.9590  145.7970 C   0  0  0  0  0  3  0  0  0  0  0  0
  191.6470  176.6470  145.4920 C   0  0  0  0  0  3  0  0  0  0  0  0
  190.6540  177.4810  144.9650 C   0  0  0  0  0  0  0  0  0  0  0  0
  190.5960  176.7680  147.6340 N   0  0  0  0  0  0  0  0  0  0  0  0
  191.5980  176.2950  146.8420 C   0  0  0  0  0  3  0  0  0  0  0  0
  188.6050  178.0720  148.0070 N   0  0  0  0  0  1  0  0  0  0  0  0
  189.6280  177.5880  147.1440 C   0  0  0  0  0  0  0  0  0  0  0  0
  188.8290  176.2430  143.0920 C   0  0  0  0  0  2  0  0  0  0  0  0
  187.5250  176.2440  143.6090 O   0  0  0  0  0  0  0  0  0  0  0  0
  187.0820  177.5130  143.5180 O   0  0  0  0  0  0  0  0  0  0  0  0
  185.9130  178.0550  145.5900 C   0  0  0  0  0  3  0  0  0  0  0  0
  184.7770  178.5330  146.2480 C   0  0  0  0  0  3  0  0  0  0  0  0
  185.9380  177.9630  144.1890 C   0  0  0  0  0  0  0  0  0  0  0  0
  183.6680  178.8240  144.1160 C   0  0  0  0  0  3  0  0  0  0  0  0
  183.6550  178.9210  145.5120 C   0  0  0  0  0  3  0  0  0  0  0  0
  184.8010  178.3390  143.4540 C   0  0  0  0  0  0  0  0  0  0  0  0
  184.8010  178.2540  141.9630 C   0  0  0  0  0  2  0  0  0  0  0  0
  183.4630  178.5120  141.4540 N   0  0  0  0  0  2  0  0  0  0  0  0
  183.8010  179.5420  139.2830 C   0  0  0  0  0  1  0  0  0  0  0  0
  183.5090  178.2540  140.0240 C   0  0  0  0  0  2  0  0  0  0  0  0
  1 30  1  6  0  0  0
  1 22  1  0  0  0  0
  3  2  1  6  0  0  0
  3  1  1  0  0  0  0
  4  3  1  0  0  0  0
  5  8  1  1  0  0  0
  5  7  1  0  0  0  0
  5  6  1  0  0  0  0
  6  4  1  1  0  0  0
  7  6  1  0  0  0  0
  8  9  1  1  0  0  0
 12 10  1  1  0  0  0
 12  8  1  0  0  0  0
 12 11  1  0  0  0  0
 13  8  1  0  0  0  0
 14 13  2  0  0  0  0
 15 18  1  0  0  0  0
 15 21  1  1  0  0  0
 16 19  1  1  0  0  0
 16 18  1  0  0  0  0
 16 17  1  0  0  0  0
 18 13  1  1  0  0  0
 18 17  1  0  0  0  0
 19 15  1  0  0  0  0
 21 20  1  0  0  0  0
 22 25  1  0  0  0  0
 23 29  1  0  0  0  0
 24 27  2  0  0  0  0
 25 24  1  0  0  0  0
 25 23  2  0  0  0  0
 27 26  1  0  0  0  0
 29 26  2  0  0  0  0
 29 28  1  0  0  0  0
 30 31  1  0  0  0  0
 32 31  1  0  0  0  0
 32 35  1  0  0  0  0
 33 34  1  0  0  0  0
 35 33  2  0  0  0  0
 36 37  1  0  0  0  0
 37 34  2  0  0  0  0
 38 36  2  0  0  0  0
 38 35  1  0  0  0  0
 39 38  1  0  0  0  0
 40 39  1  0  0  0  0
 41 42  1  0  0  0  0
 42 40  1  0  0  0  0
M  END
>  <MODEL>
1

>  <REMARK>
 VINA RESULT:      -8.0      0.000      0.000
  Name = 
  17 active torsions:
  status: ('A' for Active; 'I' for Inactive)
    1  A    between atoms: C_1  and  C_4
    2  A    between atoms: C_1  and  C_24
    3  A    between atoms: C_1  and  C_32
    4  A    between atoms: N_3  and  C_33
    5  A    between atoms: N_3  and  C_36
    6  A    between atoms: C_4  and  C_17
    7  A    between atoms: C_5  and  C_20
    8  A    between atoms: C_5  and  C_31
    9  A    between atoms: C_8  and  C_19
   10  A    between atoms: O_15  and  O_30
   11  A    between atoms: O_15  and  C_37
   12  A    between atoms: C_21  and  O_30
   13  A    between atoms: C_28  and  C_40
   14  A    between atoms: C_31  and  C_34
   15  A    between atoms: C_31  and  C_37
   16  A    between atoms: C_34  and  C_40
   17  A    between atoms: C_35  and  C_36
                            x       y       z     vdW  Elec       q    Type
                         _______ _______ _______ _____ _____    ______ ____

>  <TORSDO>
F 17

$$$$
=
 OpenBabel11062413123D

 42 46  0  0  1  0  0  0  0  0999 V2000
  188.5020  177.5800  143.3410 C   0  0  2  0  0  3  0  0  0  0  0  0
  188.1090  179.1870  141.5610 O   0  0  0  0  0  1  0  0  0  0  0  0
  188.9290  178.1310  141.9670 C   0  0  2  0  0  3  0  0  0  0  0  0
  189.0790  177.0900  140.8520 C   0  0  0  0  0  2  0  0  0  0  0  0
  190.2970  177.2510  138.5790 C   0  0  1  0  0  3  0  0  0  0  0  0
  190.3860  177.2340  140.0820 C   0  0  2  0  0  3  0  0  0  0  0  0
  190.5960  176.0800  139.3120 O   0  0  0  0  0  0  0  0  0  0  0  0
  188.9180  177.1490  137.8540 C   0  0  1  0  0  0  0  0  0  0  0  0
  187.8790  177.3600  138.7690 O   0  0  0  0  0  1  0  0  0  0  0  0
  187.5540  178.3160  136.0020 C   0  0  0  0  0  1  0  0  0  0  0  0
  189.0020  179.5420  137.4560 O   0  0  0  0  0  1  0  0  0  0  0  0
  188.8330  178.3030  136.8340 C   0  0  1  0  0  3  0  0  0  0  0  0
  188.7240  175.8130  137.1380 C   0  0  0  0  0  0  0  0  0  0  0  0
  187.6750  175.1990  137.2910 O   0  0  0  0  0  0  0  0  0  0  0  0
  190.3100  173.7980  136.6160 C   0  0  1  0  0  3  0  0  0  0  0  0
  189.2620  174.7240  134.9780 C   0  0  2  0  0  3  0  0  0  0  0  0
  190.2770  175.8400  135.0070 C   0  0  0  0  0  2  0  0  0  0  0  0
  189.8350  175.2060  136.3140 C   0  0  1  0  0  0  0  0  0  0  0  0
  189.8630  173.3520  135.2380 C   0  0  0  0  0  2  0  0  0  0  0  0
  192.3460  172.9380  135.7170 O   0  0  0  0  0  1  0  0  0  0  0  0
  191.8260  173.7450  136.7280 C   0  0  0  0  0  2  0  0  0  0  0  0
  189.4270  176.4520  143.7960 C   0  0  0  0  0  2  0  0  0  0  0  0
  189.1020  177.1960  146.1650 C   0  0  0  0  0  3  0  0  0  0  0  0
  191.2930  176.4430  145.4740 C   0  0  0  0  0  3  0  0  0  0  0  0
  189.9490  176.6950  145.1740 C   0  0  0  0  0  0  0  0  0  0  0  0
  190.9180  177.1680  147.7190 N   0  0  0  0  0  0  0  0  0  0  0  0
  191.7620  176.6840  146.7660 C   0  0  0  0  0  3  0  0  0  0  0  0
  188.7640  177.9470  148.4650 N   0  0  0  0  0  1  0  0  0  0  0  0
  189.6110  177.4300  147.4460 C   0  0  0  0  0  0  0  0  0  0  0  0
  187.0400  177.1280  143.3760 C   0  0  0  0  0  2  0  0  0  0  0  0
  186.2820  177.9160  144.2540 O   0  0  0  0  0  0  0  0  0  0  0  0
  185.6400  178.8230  143.4930 O   0  0  0  0  0  0  0  0  0  0  0  0
  183.3600  178.9340  144.3540 C   0  0  0  0  0  3  0  0  0  0  0  0
  181.9810  178.9280  144.1290 C   0  0  0  0  0  3  0  0  0  0  0  0
  184.2560  178.7880  143.2830 C   0  0  0  0  0  0  0  0  0  0  0  0
  182.3700  178.6200  141.7600 C   0  0  0  0  0  3  0  0  0  0  0  0
  181.4860  178.7740  142.8330 C   0  0  0  0  0  3  0  0  0  0  0  0
  183.7530  178.6190  141.9820 C   0  0  0  0  0  0  0  0  0  0  0  0
  184.6820  178.4650  140.8230 C   0  0  0  0  0  2  0  0  0  0  0  0
  184.7350  179.7040  140.0640 N   0  0  0  0  0  2  0  0  0  0  0  0
  184.4560  178.0540  138.3080 C   0  0  0  0  0  1  0  0  0  0  0  0
  184.0790  179.4380  138.7940 C   0  0  0  0  0  2  0  0  0  0  0  0
  1 30  1  6  0  0  0
  1 22  1  0  0  0  0
  3  2  1  6  0  0  0
  3  1  1  0  0  0  0
  4  3  1  0  0  0  0
  5  8  1  1  0  0  0
  5  7  1  0  0  0  0
  5  6  1  0  0  0  0
  6  4  1  1  0  0  0
  7  6  1  0  0  0  0
  8  9  1  1  0  0  0
 12 10  1  1  0  0  0
 12 11  1  0  0  0  0
 12  8  1  0  0  0  0
 13 14  2  0  0  0  0
 13  8  1  0  0  0  0
 15 21  1  6  0  0  0
 16 17  1  6  0  0  0
 16 19  1  0  0  0  0
 16 18  1  0  0  0  0
 17 18  1  0  0  0  0
 18 15  1  0  0  0  0
 18 13  1  1  0  0  0
 19 15  1  0  0  0  0
 20 21  1  0  0  0  0
 22 25  1  0  0  0  0
 23 29  1  0  0  0  0
 24 27  2  0  0  0  0
 25 24  1  0  0  0  0
 25 23  2  0  0  0  0
 27 26  1  0  0  0  0
 29 26  2  0  0  0  0
 29 28  1  0  0  0  0
 30 31  1  0  0  0  0
 32 31  1  0  0  0  0
 34 33  1  0  0  0  0
 35 32  1  0  0  0  0
 35 33  2  0  0  0  0
 36 38  2  0  0  0  0
 36 37  1  0  0  0  0
 37 34  2  0  0  0  0
 38 35  1  0  0  0  0
 39 38  1  0  0  0  0
 40 39  1  0  0  0  0
 41 42  1  0  0  0  0
 42 40  1  0  0  0  0
M  END
>  <MODEL>
2

>  <REMARK>
 VINA RESULT:      -7.5      1.491      2.347
  Name = 
  17 active torsions:
  status: ('A' for Active; 'I' for Inactive)
    1  A    between atoms: C_1  and  C_4
    2  A    between atoms: C_1  and  C_24
    3  A    between atoms: C_1  and  C_32
    4  A    between atoms: N_3  and  C_33
    5  A    between atoms: N_3  and  C_36
    6  A    between atoms: C_4  and  C_17
    7  A    between atoms: C_5  and  C_20
    8  A    between atoms: C_5  and  C_31
    9  A    between atoms: C_8  and  C_19
   10  A    between atoms: O_15  and  O_30
   11  A    between atoms: O_15  and  C_37
   12  A    between atoms: C_21  and  O_30
   13  A    between atoms: C_28  and  C_40
   14  A    between atoms: C_31  and  C_34
   15  A    between atoms: C_31  and  C_37
   16  A    between atoms: C_34  and  C_40
   17  A    between atoms: C_35  and  C_36
                            x       y       z     vdW  Elec       q    Type
                         _______ _______ _______ _____ _____    ______ ____

>  <TORSDO>
F 17

$$$$
=
 OpenBabel11062413123D

 42 46  0  0  1  0  0  0  0  0999 V2000
  188.6700  177.4850  142.9340 C   0  0  2  0  0  3  0  0  0  0  0  0
  190.9760  177.9280  142.3070 O   0  0  0  0  0  1  0  0  0  0  0  0
  189.8800  177.0960  142.0640 C   0  0  2  0  0  3  0  0  0  0  0  0
  189.6050  176.9750  140.5600 C   0  0  0  0  0  2  0  0  0  0  0  0
  190.6940  177.1210  138.2230 C   0  0  1  0  0  3  0  0  0  0  0  0
  190.8690  177.0960  139.7180 C   0  0  2  0  0  3  0  0  0  0  0  0
  191.0110  175.9410  138.9330 O   0  0  0  0  0  0  0  0  0  0  0  0
  189.2750  177.0500  137.5770 C   0  0  1  0  0  0  0  0  0  0  0  0
  188.3180  176.7490  138.5550 O   0  0  0  0  0  1  0  0  0  0  0  0
  187.5320  178.5700  136.4330 C   0  0  0  0  0  1  0  0  0  0  0  0
  189.0740  179.4230  138.0480 O   0  0  0  0  0  1  0  0  0  0  0  0
  188.9230  178.4570  137.0500 C   0  0  1  0  0  3  0  0  0  0  0  0
  189.1940  176.0380  136.4350 C   0  0  0  0  0  0  0  0  0  0  0  0
  189.7410  176.2940  135.3690 O   0  0  0  0  0  0  0  0  0  0  0  0
  186.9560  174.7310  136.0720 C   0  0  1  0  0  3  0  0  0  0  0  0
  188.7990  173.7870  135.4790 C   0  0  2  0  0  3  0  0  0  0  0  0
  189.0520  173.4520  136.9270 C   0  0  0  0  0  2  0  0  0  0  0  0
  188.3850  174.7710  136.5770 C   0  0  1  0  0  0  0  0  0  0  0  0
  187.3400  173.6570  135.0730 C   0  0  0  0  0  2  0  0  0  0  0  0
  185.4300  172.9940  136.6580 O   0  0  0  0  0  1  0  0  0  0  0  0
  186.0180  174.1660  137.1280 C   0  0  0  0  0  2  0  0  0  0  0  0
  188.4270  176.4550  144.0350 C   0  0  0  0  0  2  0  0  0  0  0  0
  186.8650  177.6040  145.6200 C   0  0  0  0  0  3  0  0  0  0  0  0
  189.1600  177.2550  146.2980 C   0  0  0  0  0  3  0  0  0  0  0  0
  188.1430  177.1110  145.3470 C   0  0  0  0  0  0  0  0  0  0  0  0
  187.6210  178.3480  147.7620 N   0  0  0  0  0  0  0  0  0  0  0  0
  188.8750  177.8790  147.5140 C   0  0  0  0  0  3  0  0  0  0  0  0
  185.3280  178.7430  147.1390 N   0  0  0  0  0  1  0  0  0  0  0  0
  186.6210  178.2280  146.8470 C   0  0  0  0  0  0  0  0  0  0  0  0
  187.3960  177.7160  142.1180 C   0  0  0  0  0  2  0  0  0  0  0  0
  187.1780  179.0810  141.8830 O   0  0  0  0  0  0  0  0  0  0  0  0
  185.9530  179.1810  141.3320 O   0  0  0  0  0  0  0  0  0  0  0  0
  184.7590  179.5030  143.4340 C   0  0  0  0  0  3  0  0  0  0  0  0
  183.5730  179.4520  144.1720 C   0  0  0  0  0  3  0  0  0  0  0  0
  184.7770  179.1050  142.0880 C   0  0  0  0  0  0  0  0  0  0  0  0
  182.4070  178.5930  142.2330 C   0  0  0  0  0  3  0  0  0  0  0  0
  182.3970  179.0000  143.5710 C   0  0  0  0  0  3  0  0  0  0  0  0
  183.5940  178.6360  141.4920 C   0  0  0  0  0  0  0  0  0  0  0  0
  183.5840  178.2090  140.0610 C   0  0  0  0  0  2  0  0  0  0  0  0
  183.2740  179.3460  139.2090 N   0  0  0  0  0  2  0  0  0  0  0  0
  183.0330  177.7810  137.3700 C   0  0  0  0  0  1  0  0  0  0  0  0
  182.3560  178.8590  138.1910 C   0  0  0  0  0  2  0  0  0  0  0  0
  1 30  1  6  0  0  0
  1 22  1  0  0  0  0
  3  2  1  6  0  0  0
  3  1  1  0  0  0  0
  4  3  1  0  0  0  0
  5  8  1  1  0  0  0
  5  7  1  0  0  0  0
  5  6  1  0  0  0  0
  6  4  1  1  0  0  0
  7  6  1  0  0  0  0
  8  9  1  1  0  0  0
 12 10  1  1  0  0  0
 12  8  1  0  0  0  0
 12 11  1  0  0  0  0
 13  8  1  0  0  0  0
 14 13  2  0  0  0  0
 15 18  1  0  0  0  0
 15 21  1  1  0  0  0
 16 19  1  1  0  0  0
 16 18  1  0  0  0  0
 16 17  1  0  0  0  0
 18 13  1  1  0  0  0
 18 17  1  0  0  0  0
 19 15  1  0  0  0  0
 20 21  1  0  0  0  0
 22 25  1  0  0  0  0
 23 29  1  0  0  0  0
 24 27  2  0  0  0  0
 25 23  2  0  0  0  0
 25 24  1  0  0  0  0
 27 26  1  0  0  0  0
 29 28  1  0  0  0  0
 29 26  2  0  0  0  0
 31 30  1  0  0  0  0
 32 31  1  0  0  0  0
 32 35  1  0  0  0  0
 33 34  1  0  0  0  0
 35 33  2  0  0  0  0
 36 37  1  0  0  0  0
 37 34  2  0  0  0  0
 38 35  1  0  0  0  0
 38 36  2  0  0  0  0
 39 38  1  0  0  0  0
 40 39  1  0  0  0  0
 41 42  1  0  0  0  0
 42 40  1  0  0  0  0
M  END
>  <MODEL>
3

>  <REMARK>
 VINA RESULT:      -7.4      1.410      2.042
  Name = 
  17 active torsions:
  status: ('A' for Active; 'I' for Inactive)
    1  A    between atoms: C_1  and  C_4
    2  A    between atoms: C_1  and  C_24
    3  A    between atoms: C_1  and  C_32
    4  A    between atoms: N_3  and  C_33
    5  A    between atoms: N_3  and  C_36
    6  A    between atoms: C_4  and  C_17
    7  A    between atoms: C_5  and  C_20
    8  A    between atoms: C_5  and  C_31
    9  A    between atoms: C_8  and  C_19
   10  A    between atoms: O_15  and  O_30
   11  A    between atoms: O_15  and  C_37
   12  A    between atoms: C_21  and  O_30
   13  A    between atoms: C_28  and  C_40
   14  A    between atoms: C_31  and  C_34
   15  A    between atoms: C_31  and  C_37
   16  A    between atoms: C_34  and  C_40
   17  A    between atoms: C_35  and  C_36
                            x       y       z     vdW  Elec       q    Type
                         _______ _______ _______ _____ _____    ______ ____

>  <TORSDO>
F 17

$$$$
=
 OpenBabel11062413123D

 42 46  0  0  1  0  0  0  0  0999 V2000
  189.2240  177.5720  142.5520 C   0  0  2  0  0  3  0  0  0  0  0  0
  191.5090  177.5650  141.7260 O   0  0  0  0  0  1  0  0  0  0  0  0
  190.2280  177.0550  141.5040 C   0  0  2  0  0  3  0  0  0  0  0  0
  189.8100  177.2340  140.0400 C   0  0  0  0  0  2  0  0  0  0  0  0
  190.3700  176.2930  137.7000 C   0  0  1  0  0  3  0  0  0  0  0  0
  190.8560  176.7160  139.0610 C   0  0  2  0  0  3  0  0  0  0  0  0
  190.5770  175.3750  138.7550 O   0  0  0  0  0  0  0  0  0  0  0  0
  188.8610  176.4070  137.3140 C   0  0  1  0  0  0  0  0  0  0  0  0
  188.1050  176.7630  138.4380 O   0  0  0  0  0  1  0  0  0  0  0  0
  188.7830  178.9580  136.9430 C   0  0  0  0  0  1  0  0  0  0  0  0
  189.6570  177.4750  135.2840 O   0  0  0  0  0  1  0  0  0  0  0  0
  188.7150  177.5710  136.3120 C   0  0  1  0  0  3  0  0  0  0  0  0
  188.3110  175.1230  136.6950 C   0  0  0  0  0  0  0  0  0  0  0  0
  189.0620  174.3950  136.0580 O   0  0  0  0  0  0  0  0  0  0  0  0
  185.8260  175.6290  136.0490 C   0  0  1  0  0  3  0  0  0  0  0  0
  186.5390  173.6060  135.8600 C   0  0  2  0  0  3  0  0  0  0  0  0
  186.3820  173.4490  137.3520 C   0  0  0  0  0  2  0  0  0  0  0  0
  186.8420  174.7830  136.7910 C   0  0  1  0  0  0  0  0  0  0  0  0
  185.4310  174.4250  135.2180 C   0  0  0  0  0  2  0  0  0  0  0  0
  184.5440  177.4280  136.9520 O   0  0  0  0  0  1  0  0  0  0  0  0
  184.6840  176.0410  136.9670 C   0  0  0  0  0  2  0  0  0  0  0  0
  188.8230  176.4670  143.5270 C   0  0  0  0  0  2  0  0  0  0  0  0
  190.3650  176.6570  145.4920 C   0  0  0  0  0  3  0  0  0  0  0  0
  188.0800  177.4110  145.7310 C   0  0  0  0  0  3  0  0  0  0  0  0
  189.0970  176.8590  144.9430 C   0  0  0  0  0  0  0  0  0  0  0  0
  189.6010  177.5620  147.5670 N   0  0  0  0  0  0  0  0  0  0  0  0
  188.3560  177.7640  147.0530 C   0  0  0  0  0  3  0  0  0  0  0  0
  191.8840  176.8110  147.3990 N   0  0  0  0  0  1  0  0  0  0  0  0
  190.6000  177.0180  146.8220 C   0  0  0  0  0  0  0  0  0  0  0  0
  187.9850  178.2170  141.9270 C   0  0  0  0  0  2  0  0  0  0  0  0
  186.8330  177.9510  142.6820 O   0  0  0  0  0  0  0  0  0  0  0  0
  185.7950  178.4420  141.9760 O   0  0  0  0  0  0  0  0  0  0  0  0
  184.3330  178.7740  143.9000 C   0  0  0  0  0  3  0  0  0  0  0  0
  183.0520  178.9470  144.4300 C   0  0  0  0  0  3  0  0  0  0  0  0
  184.5140  178.5870  142.5210 C   0  0  0  0  0  0  0  0  0  0  0  0
  182.1090  178.7380  142.2110 C   0  0  0  0  0  3  0  0  0  0  0  0
  181.9400  178.9330  143.5860 C   0  0  0  0  0  3  0  0  0  0  0  0
  183.3900  178.5570  141.6770 C   0  0  0  0  0  0  0  0  0  0  0  0
  183.5530  178.3630  140.2050 C   0  0  0  0  0  2  0  0  0  0  0  0
  182.3620  178.8270  139.5110 N   0  0  0  0  0  2  0  0  0  0  0  0
  181.5920  180.9860  138.7170 C   0  0  0  0  0  1  0  0  0  0  0  0
  182.7530  180.0160  138.7720 C   0  0  0  0  0  2  0  0  0  0  0  0
  1 30  1  6  0  0  0
  1 22  1  0  0  0  0
  3  2  1  6  0  0  0
  3  1  1  0  0  0  0
  4  3  1  0  0  0  0
  5  8  1  1  0  0  0
  5  7  1  0  0  0  0
  5  6  1  0  0  0  0
  6  4  1  1  0  0  0
  7  6  1  0  0  0  0
  8  9  1  1  0  0  0
 11 12  1  0  0  0  0
 12 10  1  1  0  0  0
 12  8  1  0  0  0  0
 13  8  1  0  0  0  0
 14 13  2  0  0  0  0
 15 18  1  0  0  0  0
 15 21  1  1  0  0  0
 16 19  1  6  0  0  0
 16 18  1  0  0  0  0
 16 17  1  0  0  0  0
 18 13  1  1  0  0  0
 18 17  1  0  0  0  0
 19 15  1  0  0  0  0
 20 21  1  0  0  0  0
 22 25  1  0  0  0  0
 23 29  1  0  0  0  0
 24 27  2  0  0  0  0
 25 23  2  0  0  0  0
 25 24  1  0  0  0  0
 27 26  1  0  0  0  0
 29 28  1  0  0  0  0
 29 26  2  0  0  0  0
 30 31  1  0  0  0  0
 32 35  1  0  0  0  0
 32 31  1  0  0  0  0
 33 34  1  0  0  0  0
 35 33  2  0  0  0  0
 36 37  1  0  0  0  0
 37 34  2  0  0  0  0
 38 36  2  0  0  0  0
 38 35  1  0  0  0  0
 39 38  1  0  0  0  0
 40 39  1  0  0  0  0
 41 42  1  0  0  0  0
 42 40  1  0  0  0  0
M  END
>  <MODEL>
4

>  <REMARK>
 VINA RESULT:      -7.3      1.472      2.141
  Name = 
  17 active torsions:
  status: ('A' for Active; 'I' for Inactive)
    1  A    between atoms: C_1  and  C_4
    2  A    between atoms: C_1  and  C_24
    3  A    between atoms: C_1  and  C_32
    4  A    between atoms: N_3  and  C_33
    5  A    between atoms: N_3  and  C_36
    6  A    between atoms: C_4  and  C_17
    7  A    between atoms: C_5  and  C_20
    8  A    between atoms: C_5  and  C_31
    9  A    between atoms: C_8  and  C_19
   10  A    between atoms: O_15  and  O_30
   11  A    between atoms: O_15  and  C_37
   12  A    between atoms: C_21  and  O_30
   13  A    between atoms: C_28  and  C_40
   14  A    between atoms: C_31  and  C_34
   15  A    between atoms: C_31  and  C_37
   16  A    between atoms: C_34  and  C_40
   17  A    between atoms: C_35  and  C_36
                            x       y       z     vdW  Elec       q    Type
                         _______ _______ _______ _____ _____    ______ ____

>  <TORSDO>
F 17

$$$$
=
 OpenBabel11062413123D

 42 46  0  0  1  0  0  0  0  0999 V2000
  184.4230  178.2990  141.5820 C   0  0  2  0  0  3  0  0  0  0  0  0
  182.1270  178.9170  141.0830 O   0  0  0  0  0  1  0  0  0  0  0  0
  183.2910  178.3670  140.5400 C   0  0  2  0  0  3  0  0  0  0  0  0
  182.9880  177.0570  139.8030 C   0  0  0  0  0  2  0  0  0  0  0  0
  181.3800  176.1160  138.0130 C   0  0  1  0  0  3  0  0  0  0  0  0
  181.5950  177.0360  139.1860 C   0  0  2  0  0  3  0  0  0  0  0  0
  181.6720  177.4910  137.8610 O   0  0  0  0  0  0  0  0  0  0  0  0
  182.5340  175.2120  137.4780 C   0  0  1  0  0  0  0  0  0  0  0  0
  183.3520  174.8010  138.5390 O   0  0  0  0  0  1  0  0  0  0  0  0
  182.8540  172.7390  136.8180 C   0  0  0  0  0  1  0  0  0  0  0  0
  180.7560  173.5650  137.6120 O   0  0  0  0  0  1  0  0  0  0  0  0
  181.9020  173.9280  136.9010 C   0  0  1  0  0  3  0  0  0  0  0  0
  183.3750  175.9000  136.4030 C   0  0  0  0  0  0  0  0  0  0  0  0
  182.8480  176.2190  135.3440 O   0  0  0  0  0  0  0  0  0  0  0  0
  185.8430  175.1170  136.0260 C   0  0  1  0  0  3  0  0  0  0  0  0
  185.3450  177.1670  135.5950 C   0  0  2  0  0  3  0  0  0  0  0  0
  185.3960  177.4530  137.0750 C   0  0  0  0  0  2  0  0  0  0  0  0
  184.8570  176.1170  136.5970 C   0  0  1  0  0  0  0  0  0  0  0  0
  186.4160  176.1950  135.1290 C   0  0  0  0  0  2  0  0  0  0  0  0
  188.1510  174.8190  136.5540 O   0  0  0  0  0  1  0  0  0  0  0  0
  186.8630  174.6960  137.0740 C   0  0  0  0  0  2  0  0  0  0  0  0
  183.8990  178.5860  142.9880 C   0  0  0  0  0  2  0  0  0  0  0  0
  184.8590  179.0480  145.2540 C   0  0  0  0  0  3  0  0  0  0  0  0
  186.0860  177.6140  143.7420 C   0  0  0  0  0  3  0  0  0  0  0  0
  184.9660  178.4070  144.0180 C   0  0  0  0  0  0  0  0  0  0  0  0
  186.9490  178.0960  145.9170 N   0  0  0  0  0  0  0  0  0  0  0  0
  187.0750  177.4660  144.7160 C   0  0  0  0  0  3  0  0  0  0  0  0
  185.7850  179.5310  147.4630 N   0  0  0  0  0  1  0  0  0  0  0  0
  185.8730  178.8790  146.2010 C   0  0  0  0  0  0  0  0  0  0  0  0
  185.6010  179.2170  141.2460 C   0  0  0  0  0  2  0  0  0  0  0  0
  186.2860  178.7740  140.1050 O   0  0  0  0  0  0  0  0  0  0  0  0
  187.5970  178.7930  140.4190 O   0  0  0  0  0  0  0  0  0  0  0  0
  188.6380  178.3830  138.2510 C   0  0  0  0  0  3  0  0  0  0  0  0
  189.6310  177.7680  137.4840 C   0  0  0  0  0  3  0  0  0  0  0  0
  188.5690  178.1590  139.6350 C   0  0  0  0  0  0  0  0  0  0  0  0
  190.4950  176.6870  139.4700 C   0  0  0  0  0  3  0  0  0  0  0  0
  190.5610  176.9230  138.0930 C   0  0  0  0  0  3  0  0  0  0  0  0
  189.4980  177.2960  140.2410 C   0  0  0  0  0  0  0  0  0  0  0  0
  189.4490  177.0420  141.7120 C   0  0  0  0  0  2  0  0  0  0  0  0
  190.7940  177.0850  142.2650 N   0  0  0  0  0  2  0  0  0  0  0  0
  190.7260  178.8580  143.9190 C   0  0  0  0  0  1  0  0  0  0  0  0
  190.6470  177.3650  143.6840 C   0  0  0  0  0  2  0  0  0  0  0  0
  1 30  1  6  0  0  0
  1 22  1  0  0  0  0
  3  2  1  1  0  0  0
  3  1  1  0  0  0  0
  4  3  1  0  0  0  0
  5  8  1  6  0  0  0
  5  6  1  0  0  0  0
  6  4  1  6  0  0  0
  7  5  1  0  0  0  0
  7  6  1  0  0  0  0
  8  9  1  1  0  0  0
 12 10  1  1  0  0  0
 12  8  1  0  0  0  0
 12 11  1  0  0  0  0
 13  8  1  0  0  0  0
 14 13  2  0  0  0  0
 15 18  1  0  0  0  0
 15 21  1  1  0  0  0
 16 19  1  1  0  0  0
 16 18  1  0  0  0  0
 16 17  1  0  0  0  0
 18 13  1  1  0  0  0
 18 17  1  0  0  0  0
 19 15  1  0  0  0  0
 20 21  1  0  0  0  0
 22 25  1  0  0  0  0
 23 29  1  0  0  0  0
 24 25  1  0  0  0  0
 24 27  2  0  0  0  0
 25 23  2  0  0  0  0
 26 29  2  0  0  0  0
 27 26  1  0  0  0  0
 29 28  1  0  0  0  0
 31 32  1  0  0  0  0
 31 30  1  0  0  0  0
 33 35  1  0  0  0  0
 34 37  1  0  0  0  0
 34 33  2  0  0  0  0
 35 38  2  0  0  0  0
 35 32  1  0  0  0  0
 36 38  1  0  0  0  0
 37 36  2  0  0  0  0
 38 39  1  0  0  0  0
 39 40  1  0  0  0  0
 40 42  1  0  0  0  0
 42 41  1  0  0  0  0
M  END
>  <MODEL>
5

>  <REMARK>
 VINA RESULT:      -7.1      2.445      6.456
  Name = 
  17 active torsions:
  status: ('A' for Active; 'I' for Inactive)
    1  A    between atoms: C_1  and  C_4
    2  A    between atoms: C_1  and  C_24
    3  A    between atoms: C_1  and  C_32
    4  A    between atoms: N_3  and  C_33
    5  A    between atoms: N_3  and  C_36
    6  A    between atoms: C_4  and  C_17
    7  A    between atoms: C_5  and  C_20
    8  A    between atoms: C_5  and  C_31
    9  A    between atoms: C_8  and  C_19
   10  A    between atoms: O_15  and  O_30
   11  A    between atoms: O_15  and  C_37
   12  A    between atoms: C_21  and  O_30
   13  A    between atoms: C_28  and  C_40
   14  A    between atoms: C_31  and  C_34
   15  A    between atoms: C_31  and  C_37
   16  A    between atoms: C_34  and  C_40
   17  A    between atoms: C_35  and  C_36
                            x       y       z     vdW  Elec       q    Type
                         _______ _______ _______ _____ _____    ______ ____

>  <TORSDO>
F 17

$$$$
=
 OpenBabel11062413123D

 42 46  0  0  1  0  0  0  0  0999 V2000
  187.9970  177.2620  138.4780 C   0  0  2  0  0  3  0  0  0  0  0  0
  189.0830  179.2080  139.4460 O   0  0  0  0  0  1  0  0  0  0  0  0
  188.3960  178.0300  139.7520 C   0  0  2  0  0  3  0  0  0  0  0  0
  189.1460  177.2150  140.8110 C   0  0  0  0  0  2  0  0  0  0  0  0
  191.4290  177.1270  142.0170 C   0  0  1  0  0  3  0  0  0  0  0  0
  190.6540  177.4320  140.7630 C   0  0  2  0  0  3  0  0  0  0  0  0
  191.0040  178.4330  141.6820 O   0  0  0  0  0  0  0  0  0  0  0  0
  190.7120  176.5910  143.2960 C   0  0  1  0  0  0  0  0  0  0  0  0
  189.9770  175.4390  142.9850 O   0  0  0  0  0  1  0  0  0  0  0  0
  191.4960  176.5020  145.7520 C   0  0  0  0  0  1  0  0  0  0  0  0
  192.0600  174.7810  144.1910 O   0  0  0  0  0  1  0  0  0  0  0  0
  191.7980  176.1490  144.2990 C   0  0  1  0  0  3  0  0  0  0  0  0
  189.8040  177.6330  143.9470 C   0  0  0  0  0  0  0  0  0  0  0  0
  190.1590  178.8050  143.9710 O   0  0  0  0  0  0  0  0  0  0  0  0
  188.0590  177.9680  145.8680 C   0  0  1  0  0  3  0  0  0  0  0  0
  187.3340  177.8000  143.8480 C   0  0  2  0  0  3  0  0  0  0  0  0
  187.5250  176.3070  143.9410 C   0  0  0  0  0  2  0  0  0  0  0  0
  188.5190  177.2260  144.6290 C   0  0  1  0  0  0  0  0  0  0  0  0
  186.8160  178.4260  145.1330 C   0  0  0  0  0  2  0  0  0  0  0  0
  188.7080  176.9720  147.9380 O   0  0  0  0  0  1  0  0  0  0  0  0
  187.6930  176.9980  146.9820 C   0  0  0  0  0  2  0  0  0  0  0  0
  189.0370  177.4440  137.3740 C   0  0  0  0  0  2  0  0  0  0  0  0
  191.3950  176.6210  137.5590 C   0  0  0  0  0  3  0  0  0  0  0  0
  189.6300  175.0140  137.1780 C   0  0  0  0  0  3  0  0  0  0  0  0
  190.0400  176.3370  137.3770 C   0  0  0  0  0  0  0  0  0  0  0  0
  191.9010  174.2940  137.3620 N   0  0  0  0  0  0  0  0  0  0  0  0
  190.5850  173.9950  137.1780 C   0  0  0  0  0  3  0  0  0  0  0  0
  193.7070  175.8470  137.7220 N   0  0  0  0  0  1  0  0  0  0  0  0
  192.3210  175.5740  137.5470 C   0  0  0  0  0  0  0  0  0  0  0  0
  186.6000  177.6270  137.9700 C   0  0  0  0  0  2  0  0  0  0  0  0
  185.9920  178.5880  138.7910 O   0  0  0  0  0  0  0  0  0  0  0  0
  184.7410  178.1470  139.0300 O   0  0  0  0  0  0  0  0  0  0  0  0
  184.8120  178.6310  141.4200 C   0  0  0  0  0  3  0  0  0  0  0  0
  184.1470  178.8720  142.6250 C   0  0  0  0  0  3  0  0  0  0  0  0
  184.0860  178.3600  140.2490 C   0  0  0  0  0  0  0  0  0  0  0  0
  182.0210  178.5640  141.5110 C   0  0  0  0  0  3  0  0  0  0  0  0
  182.7520  178.8420  142.6700 C   0  0  0  0  0  3  0  0  0  0  0  0
  182.6830  178.3160  140.3030 C   0  0  0  0  0  0  0  0  0  0  0  0
  181.8860  178.0330  139.0720 C   0  0  0  0  0  2  0  0  0  0  0  0
  181.0120  179.1580  138.7800 N   0  0  0  0  0  2  0  0  0  0  0  0
  181.6400  181.4800  138.4620 C   0  0  0  0  0  1  0  0  0  0  0  0
  181.7770  180.0650  137.9390 C   0  0  0  0  0  2  0  0  0  0  0  0
  1 22  1  6  0  0  0
  1  3  1  0  0  0  0
  3  2  1  6  0  0  0
  3  4  1  0  0  0  0
  5  8  1  1  0  0  0
  6  4  1  1  0  0  0
  6  7  1  0  0  0  0
  6  5  1  0  0  0  0
  7  5  1  0  0  0  0
  8  9  1  6  0  0  0
  8 13  1  0  0  0  0
  8 12  1  0  0  0  0
 11 12  1  0  0  0  0
 12 10  1  1  0  0  0
 13 14  2  0  0  0  0
 15 21  1  1  0  0  0
 16 17  1  1  0  0  0
 16 18  1  0  0  0  0
 16 19  1  0  0  0  0
 17 18  1  0  0  0  0
 18 13  1  6  0  0  0
 18 15  1  0  0  0  0
 19 15  1  0  0  0  0
 21 20  1  0  0  0  0
 22 25  1  0  0  0  0
 24 25  1  0  0  0  0
 25 23  2  0  0  0  0
 26 29  2  0  0  0  0
 27 24  2  0  0  0  0
 27 26  1  0  0  0  0
 29 23  1  0  0  0  0
 29 28  1  0  0  0  0
 30  1  1  0  0  0  0
 30 31  1  0  0  0  0
 31 32  1  0  0  0  0
 32 35  1  0  0  0  0
 33 34  1  0  0  0  0
 34 37  2  0  0  0  0
 35 38  1  0  0  0  0
 35 33  2  0  0  0  0
 36 37  1  0  0  0  0
 38 36  2  0  0  0  0
 39 38  1  0  0  0  0
 40 39  1  0  0  0  0
 42 41  1  0  0  0  0
 42 40  1  0  0  0  0
M  END
>  <MODEL>
6

>  <REMARK>
 VINA RESULT:      -6.8      3.270      7.158
  Name = 
  17 active torsions:
  status: ('A' for Active; 'I' for Inactive)
    1  A    between atoms: C_1  and  C_4
    2  A    between atoms: C_1  and  C_24
    3  A    between atoms: C_1  and  C_32
    4  A    between atoms: N_3  and  C_33
    5  A    between atoms: N_3  and  C_36
    6  A    between atoms: C_4  and  C_17
    7  A    between atoms: C_5  and  C_20
    8  A    between atoms: C_5  and  C_31
    9  A    between atoms: C_8  and  C_19
   10  A    between atoms: O_15  and  O_30
   11  A    between atoms: O_15  and  C_37
   12  A    between atoms: C_21  and  O_30
   13  A    between atoms: C_28  and  C_40
   14  A    between atoms: C_31  and  C_34
   15  A    between atoms: C_31  and  C_37
   16  A    between atoms: C_34  and  C_40
   17  A    between atoms: C_35  and  C_36
                            x       y       z     vdW  Elec       q    Type
                         _______ _______ _______ _____ _____    ______ ____

>  <TORSDO>
F 17

$$$$
=
 OpenBabel11062413123D

 42 46  0  0  1  0  0  0  0  0999 V2000
  185.1580  178.2420  138.9940 C   0  0  2  0  0  3  0  0  0  0  0  0
  185.2800  177.7040  136.6280 O   0  0  0  0  0  1  0  0  0  0  0  0
  185.9980  178.2350  137.7030 C   0  0  2  0  0  3  0  0  0  0  0  0
  187.3820  177.5840  137.8160 C   0  0  0  0  0  2  0  0  0  0  0  0
  189.8690  178.2250  138.0900 C   0  0  1  0  0  3  0  0  0  0  0  0
  188.5170  178.5550  137.5160 C   0  0  2  0  0  3  0  0  0  0  0  0
  188.9710  179.1180  138.7190 O   0  0  0  0  0  0  0  0  0  0  0  0
  190.0910  176.9300  138.9340 C   0  0  1  0  0  0  0  0  0  0  0  0
  188.8560  176.3520  139.2570 O   0  0  0  0  0  1  0  0  0  0  0  0
  189.9100  174.9040  137.3470 C   0  0  0  0  0  1  0  0  0  0  0  0
  191.6330  176.5430  137.1000 O   0  0  0  0  0  1  0  0  0  0  0  0
  190.8260  175.9060  138.0450 C   0  0  1  0  0  3  0  0  0  0  0  0
  190.9010  177.1840  140.2040 C   0  0  0  0  0  0  0  0  0  0  0  0
  192.0750  177.5180  140.1090 O   0  0  0  0  0  0  0  0  0  0  0  0
  191.1990  176.8730  142.7850 C   0  0  1  0  0  3  0  0  0  0  0  0
  189.7100  178.2640  142.0890 C   0  0  2  0  0  3  0  0  0  0  0  0
  188.8030  177.0940  141.7990 C   0  0  0  0  0  2  0  0  0  0  0  0
  190.2970  176.9500  141.5690 C   0  0  1  0  0  0  0  0  0  0  0  0
  190.5220  178.1000  143.3640 C   0  0  0  0  0  2  0  0  0  0  0  0
  192.0540  175.1370  144.1820 O   0  0  0  0  0  1  0  0  0  0  0  0
  190.8810  175.6430  143.6240 C   0  0  0  0  0  2  0  0  0  0  0  0
  184.1330  179.3750  138.9810 C   0  0  0  0  0  2  0  0  0  0  0  0
  182.5240  177.5100  139.4300 C   0  0  0  0  0  3  0  0  0  0  0  0
  181.7180  179.7880  139.5200 C   0  0  0  0  0  3  0  0  0  0  0  0
  182.7660  178.8820  139.3240 C   0  0  0  0  0  0  0  0  0  0  0  0
  180.2330  177.9640  139.9370 N   0  0  0  0  0  0  0  0  0  0  0  0
  180.4460  179.3050  139.8330 C   0  0  0  0  0  3  0  0  0  0  0  0
  180.9690  175.6720  139.8430 N   0  0  0  0  0  1  0  0  0  0  0  0
  181.2350  177.0660  139.7390 C   0  0  0  0  0  0  0  0  0  0  0  0
  186.0110  178.3000  140.2640 C   0  0  0  0  0  2  0  0  0  0  0  0
  185.7720  179.4770  140.9890 O   0  0  0  0  0  0  0  0  0  0  0  0
  186.0070  179.1800  142.2820 O   0  0  0  0  0  0  0  0  0  0  0  0
  183.6520  179.3470  142.8960 C   0  0  0  0  0  3  0  0  0  0  0  0
  182.6290  179.1530  143.8270 C   0  0  0  0  0  3  0  0  0  0  0  0
  184.9780  179.0180  143.2180 C   0  0  0  0  0  0  0  0  0  0  0  0
  184.2410  178.3060  145.4200 C   0  0  0  0  0  3  0  0  0  0  0  0
  182.9220  178.6300  145.0880 C   0  0  0  0  0  3  0  0  0  0  0  0
  185.2710  178.5060  144.4930 C   0  0  0  0  0  0  0  0  0  0  0  0
  186.6720  178.1440  144.8620 C   0  0  0  0  0  2  0  0  0  0  0  0
  186.9650  178.6100  146.2080 N   0  0  0  0  0  2  0  0  0  0  0  0
  189.0830  177.5750  146.7810 C   0  0  0  0  0  1  0  0  0  0  0  0
  187.5760  177.4910  146.9070 C   0  0  0  0  0  2  0  0  0  0  0  0
  1 22  1  6  0  0  0
  1 30  1  0  0  0  0
  3  2  1  6  0  0  0
  3  4  1  0  0  0  0
  3  1  1  0  0  0  0
  5  7  1  0  0  0  0
  5  8  1  1  0  0  0
  6  4  1  1  0  0  0
  6  5  1  0  0  0  0
  6  7  1  0  0  0  0
  8  9  1  1  0  0  0
  8 13  1  0  0  0  0
 11 12  1  0  0  0  0
 12 10  1  6  0  0  0
 12  8  1  0  0  0  0
 14 13  2  0  0  0  0
 15 19  1  0  0  0  0
 15 21  1  1  0  0  0
 16 17  1  1  0  0  0
 16 19  1  0  0  0  0
 18 13  1  6  0  0  0
 18 17  1  0  0  0  0
 18 16  1  0  0  0  0
 18 15  1  0  0  0  0
 21 20  1  0  0  0  0
 22 25  1  0  0  0  0
 23 29  1  0  0  0  0
 24 27  2  0  0  0  0
 25 23  2  0  0  0  0
 25 24  1  0  0  0  0
 27 26  1  0  0  0  0
 29 28  1  0  0  0  0
 29 26  2  0  0  0  0
 30 31  1  0  0  0  0
 31 32  1  0  0  0  0
 32 35  1  0  0  0  0
 33 35  2  0  0  0  0
 33 34  1  0  0  0  0
 34 37  2  0  0  0  0
 35 38  1  0  0  0  0
 37 36  1  0  0  0  0
 38 39  1  0  0  0  0
 38 36  2  0  0  0  0
 39 40  1  0  0  0  0
 40 42  1  0  0  0  0
 41 42  1  0  0  0  0
M  END
>  <MODEL>
7

>  <REMARK>
 VINA RESULT:      -6.8      2.105      6.898
  Name = 
  17 active torsions:
  status: ('A' for Active; 'I' for Inactive)
    1  A    between atoms: C_1  and  C_4
    2  A    between atoms: C_1  and  C_24
    3  A    between atoms: C_1  and  C_32
    4  A    between atoms: N_3  and  C_33
    5  A    between atoms: N_3  and  C_36
    6  A    between atoms: C_4  and  C_17
    7  A    between atoms: C_5  and  C_20
    8  A    between atoms: C_5  and  C_31
    9  A    between atoms: C_8  and  C_19
   10  A    between atoms: O_15  and  O_30
   11  A    between atoms: O_15  and  C_37
   12  A    between atoms: C_21  and  O_30
   13  A    between atoms: C_28  and  C_40
   14  A    between atoms: C_31  and  C_34
   15  A    between atoms: C_31  and  C_37
   16  A    between atoms: C_34  and  C_40
   17  A    between atoms: C_35  and  C_36
                            x       y       z     vdW  Elec       q    Type
                         _______ _______ _______ _____ _____    ______ ____

>  <TORSDO>
F 17

$$$$
=
 OpenBabel11062413123D

 42 46  0  0  1  0  0  0  0  0999 V2000
  188.9640  178.2710  140.1430 C   0  0  2  0  0  3  0  0  0  0  0  0
  188.6930  179.2420  137.9330 O   0  0  0  0  0  1  0  0  0  0  0  0
  188.2310  178.2390  138.7890 C   0  0  2  0  0  3  0  0  0  0  0  0
  186.7000  178.2410  138.8630 C   0  0  0  0  0  2  0  0  0  0  0  0
  184.5410  177.8730  137.4930 C   0  0  1  0  0  3  0  0  0  0  0  0
  186.0440  177.9480  137.5190 C   0  0  2  0  0  3  0  0  0  0  0  0
  185.3590  176.7260  137.5980 O   0  0  0  0  0  0  0  0  0  0  0  0
  183.7010  178.1110  138.7870 C   0  0  1  0  0  0  0  0  0  0  0  0
  184.5410  178.1180  139.9090 O   0  0  0  0  0  1  0  0  0  0  0  0
  181.7990  179.7030  139.4990 C   0  0  0  0  0  1  0  0  0  0  0  0
  184.0130  180.5010  139.0790 O   0  0  0  0  0  1  0  0  0  0  0  0
  183.0880  179.5240  138.7020 C   0  0  1  0  0  3  0  0  0  0  0  0
  182.5900  177.0780  138.9700 C   0  0  0  0  0  0  0  0  0  0  0  0
  182.2800  176.7270  140.1010 O   0  0  0  0  0  0  0  0  0  0  0  0
  182.0140  174.9260  137.5980 C   0  0  1  0  0  3  0  0  0  0  0  0
  180.4260  176.3130  138.0370 C   0  0  2  0  0  3  0  0  0  0  0  0
  180.9340  177.1920  136.9220 C   0  0  0  0  0  2  0  0  0  0  0  0
  181.9300  176.4290  137.7770 C   0  0  1  0  0  0  0  0  0  0  0  0
  180.5060  174.8280  137.7220 C   0  0  0  0  0  2  0  0  0  0  0  0
  181.4680  173.8100  135.5600 O   0  0  0  0  0  1  0  0  0  0  0  0
  182.4570  174.5670  136.1870 C   0  0  0  0  0  2  0  0  0  0  0  0
  189.6800  176.9490  140.4160 C   0  0  0  0  0  2  0  0  0  0  0  0
  191.2170  176.3370  138.5360 C   0  0  0  0  0  3  0  0  0  0  0  0
  192.1360  177.4610  140.4700 C   0  0  0  0  0  3  0  0  0  0  0  0
  191.0370  176.9210  139.7920 C   0  0  0  0  0  0  0  0  0  0  0  0
  193.5490  176.8490  138.6440 N   0  0  0  0  0  0  0  0  0  0  0  0
  193.3960  177.4190  139.8710 C   0  0  0  0  0  3  0  0  0  0  0  0
  192.7000  175.7100  136.6980 N   0  0  0  0  0  1  0  0  0  0  0  0
  192.4960  176.3090  137.9730 C   0  0  0  0  0  0  0  0  0  0  0  0
  188.0470  178.6400  141.3120 C   0  0  0  0  0  2  0  0  0  0  0  0
  188.2320  177.7760  142.4010 O   0  0  0  0  0  0  0  0  0  0  0  0
  187.0010  177.4820  142.8650 O   0  0  0  0  0  0  0  0  0  0  0  0
  185.3120  178.4950  144.3040 C   0  0  0  0  0  3  0  0  0  0  0  0
  184.8690  178.8550  145.5790 C   0  0  0  0  0  3  0  0  0  0  0  0
  186.5600  177.8750  144.1340 C   0  0  0  0  0  0  0  0  0  0  0  0
  186.9180  177.9910  146.5340 C   0  0  0  0  0  3  0  0  0  0  0  0
  185.6690  178.6010  146.6940 C   0  0  0  0  0  3  0  0  0  0  0  0
  187.3690  177.6350  145.2580 C   0  0  0  0  0  0  0  0  0  0  0  0
  188.7000  176.9740  145.1070 C   0  0  0  0  0  2  0  0  0  0  0  0
  189.7520  177.8770  145.5450 N   0  0  0  0  0  2  0  0  0  0  0  0
  191.4750  176.8770  144.1610 C   0  0  0  0  0  1  0  0  0  0  0  0
  190.9790  177.0970  145.5740 C   0  0  0  0  0  2  0  0  0  0  0  0
  1 22  1  1  0  0  0
  1 30  1  0  0  0  0
  3  2  1  6  0  0  0
  3  4  1  0  0  0  0
  3  1  1  0  0  0  0
  5  6  1  0  0  0  0
  5  7  1  0  0  0  0
  5  8  1  1  0  0  0
  6  7  1  0  0  0  0
  6  4  1  1  0  0  0
  8 13  1  0  0  0  0
  8  9  1  1  0  0  0
 12  8  1  0  0  0  0
 12 11  1  0  0  0  0
 12 10  1  1  0  0  0
 13 14  2  0  0  0  0
 15 21  1  6  0  0  0
 15 19  1  0  0  0  0
 15 18  1  0  0  0  0
 16 17  1  6  0  0  0
 17 18  1  0  0  0  0
 18 16  1  0  0  0  0
 18 13  1  1  0  0  0
 19 16  1  0  0  0  0
 20 21  1  0  0  0  0
 23 25  1  0  0  0  0
 25 22  1  0  0  0  0
 25 24  2  0  0  0  0
 26 27  2  0  0  0  0
 27 24  1  0  0  0  0
 28 29  1  0  0  0  0
 29 23  2  0  0  0  0
 29 26  1  0  0  0  0
 30 31  1  0  0  0  0
 31 32  1  0  0  0  0
 32 35  1  0  0  0  0
 33 34  1  0  0  0  0
 34 37  2  0  0  0  0
 35 33  2  0  0  0  0
 35 38  1  0  0  0  0
 36 37  1  0  0  0  0
 38 36  2  0  0  0  0
 39 38  1  0  0  0  0
 39 40  1  0  0  0  0
 40 42  1  0  0  0  0
 41 42  1  0  0  0  0
M  END
>  <MODEL>
8

>  <REMARK>
 VINA RESULT:      -6.8      3.294      6.083
  Name = 
  17 active torsions:
  status: ('A' for Active; 'I' for Inactive)
    1  A    between atoms: C_1  and  C_4
    2  A    between atoms: C_1  and  C_24
    3  A    between atoms: C_1  and  C_32
    4  A    between atoms: N_3  and  C_33
    5  A    between atoms: N_3  and  C_36
    6  A    between atoms: C_4  and  C_17
    7  A    between atoms: C_5  and  C_20
    8  A    between atoms: C_5  and  C_31
    9  A    between atoms: C_8  and  C_19
   10  A    between atoms: O_15  and  O_30
   11  A    between atoms: O_15  and  C_37
   12  A    between atoms: C_21  and  O_30
   13  A    between atoms: C_28  and  C_40
   14  A    between atoms: C_31  and  C_34
   15  A    between atoms: C_31  and  C_37
   16  A    between atoms: C_34  and  C_40
   17  A    between atoms: C_35  and  C_36
                            x       y       z     vdW  Elec       q    Type
                         _______ _______ _______ _____ _____    ______ ____

>  <TORSDO>
F 17

$$$$
=
 OpenBabel11062413123D

 42 46  0  0  1  0  0  0  0  0999 V2000
  188.7710  178.1710  141.2290 C   0  0  2  0  0  3  0  0  0  0  0  0
  187.7860  178.6270  139.0560 O   0  0  0  0  0  1  0  0  0  0  0  0
  187.5010  178.2120  140.3590 C   0  0  2  0  0  3  0  0  0  0  0  0
  186.3220  179.0000  140.9420 C   0  0  0  0  0  2  0  0  0  0  0  0
  183.9340  178.0210  141.0490 C   0  0  1  0  0  3  0  0  0  0  0  0
  185.3100  178.1090  141.6520 C   0  0  2  0  0  3  0  0  0  0  0  0
  184.2450  178.8980  142.1130 O   0  0  0  0  0  0  0  0  0  0  0  0
  183.5780  178.7950  139.7400 C   0  0  1  0  0  0  0  0  0  0  0  0
  184.5570  179.7610  139.4740 O   0  0  0  0  0  1  0  0  0  0  0  0
  184.9090  177.8650  137.7370 C   0  0  0  0  0  1  0  0  0  0  0  0
  183.4310  176.4850  139.0110 O   0  0  0  0  0  1  0  0  0  0  0  0
  183.6320  177.7940  138.5680 C   0  0  1  0  0  3  0  0  0  0  0  0
  182.1980  179.4490  139.7960 C   0  0  0  0  0  0  0  0  0  0  0  0
  182.0130  180.5090  139.2110 O   0  0  0  0  0  0  0  0  0  0  0  0
  180.5850  179.5880  141.8520 C   0  0  1  0  0  3  0  0  0  0  0  0
  179.7490  179.0980  139.9300 C   0  0  2  0  0  3  0  0  0  0  0  0
  180.2590  177.6890  140.1060 C   0  0  0  0  0  2  0  0  0  0  0  0
  181.0890  178.8490  140.6280 C   0  0  1  0  0  0  0  0  0  0  0  0
  179.2170  179.7150  141.2130 C   0  0  0  0  0  2  0  0  0  0  0  0
  181.5510  178.9820  143.9490 O   0  0  0  0  0  1  0  0  0  0  0  0
  180.5250  178.6650  143.0610 C   0  0  0  0  0  2  0  0  0  0  0  0
  189.4570  176.8080  141.1430 C   0  0  0  0  0  2  0  0  0  0  0  0
  190.7870  176.3760  139.0660 C   0  0  0  0  0  3  0  0  0  0  0  0
  191.8760  177.4450  140.9420 C   0  0  0  0  0  3  0  0  0  0  0  0
  190.7300  176.8840  140.3650 C   0  0  0  0  0  0  0  0  0  0  0  0
  193.0900  177.0020  138.9320 N   0  0  0  0  0  0  0  0  0  0  0  0
  193.0570  177.4990  140.2000 C   0  0  0  0  0  3  0  0  0  0  0  0
  192.0690  175.9240  137.0360 N   0  0  0  0  0  1  0  0  0  0  0  0
  191.9910  176.4440  138.3580 C   0  0  0  0  0  0  0  0  0  0  0  0
  188.5100  178.5530  142.6880 C   0  0  0  0  0  2  0  0  0  0  0  0
  189.4450  177.9590  143.5490 O   0  0  0  0  0  0  0  0  0  0  0  0
  188.7500  177.1260  144.3480 O   0  0  0  0  0  0  0  0  0  0  0  0
  186.5040  177.7530  145.0650 C   0  0  0  0  0  3  0  0  0  0  0  0
  185.6310  178.1850  146.0670 C   0  0  0  0  0  3  0  0  0  0  0  0
  187.8720  177.5880  145.3360 C   0  0  0  0  0  0  0  0  0  0  0  0
  187.4800  178.3030  147.6240 C   0  0  0  0  0  3  0  0  0  0  0  0
  186.1180  178.4570  147.3470 C   0  0  0  0  0  3  0  0  0  0  0  0
  188.3590  177.8770  146.6220 C   0  0  0  0  0  0  0  0  0  0  0  0
  189.8090  177.7070  146.9390 C   0  0  0  0  0  2  0  0  0  0  0  0
  190.2230  176.3450  146.6430 N   0  0  0  0  0  2  0  0  0  0  0  0
  192.3150  175.7310  147.7070 C   0  0  0  0  0  1  0  0  0  0  0  0
  191.6690  176.3760  146.4990 C   0  0  0  0  0  2  0  0  0  0  0  0
  1 22  1  1  0  0  0
  1 30  1  0  0  0  0
  3  2  1  6  0  0  0
  3  4  1  0  0  0  0
  3  1  1  0  0  0  0
  5  8  1  6  0  0  0
  5  6  1  0  0  0  0
  5  7  1  0  0  0  0
  6  4  1  6  0  0  0
  6  7  1  0  0  0  0
  8  9  1  6  0  0  0
  8 13  1  0  0  0  0
 12 10  1  1  0  0  0
 12 11  1  0  0  0  0
 12  8  1  0  0  0  0
 14 13  2  0  0  0  0
 15 21  1  1  0  0  0
 16 17  1  1  0  0  0
 16 18  1  0  0  0  0
 16 19  1  0  0  0  0
 17 18  1  0  0  0  0
 18 13  1  6  0  0  0
 18 15  1  0  0  0  0
 19 15  1  0  0  0  0
 21 20  1  0  0  0  0
 23 25  1  0  0  0  0
 25 24  2  0  0  0  0
 25 22  1  0  0  0  0
 26 27  2  0  0  0  0
 27 24  1  0  0  0  0
 28 29  1  0  0  0  0
 29 26  1  0  0  0  0
 29 23  2  0  0  0  0
 30 31  1  0  0  0  0
 31 32  1  0  0  0  0
 32 35  1  0  0  0  0
 33 35  2  0  0  0  0
 33 34  1  0  0  0  0
 34 37  2  0  0  0  0
 35 38  1  0  0  0  0
 37 36  1  0  0  0  0
 38 39  1  0  0  0  0
 38 36  2  0  0  0  0
 40 39  1  0  0  0  0
 42 40  1  0  0  0  0
 42 41  1  0  0  0  0
M  END
>  <MODEL>
9

>  <REMARK>
 VINA RESULT:      -6.7      3.251      7.132
  Name = 
  17 active torsions:
  status: ('A' for Active; 'I' for Inactive)
    1  A    between atoms: C_1  and  C_4
    2  A    between atoms: C_1  and  C_24
    3  A    between atoms: C_1  and  C_32
    4  A    between atoms: N_3  and  C_33
    5  A    between atoms: N_3  and  C_36
    6  A    between atoms: C_4  and  C_17
    7  A    between atoms: C_5  and  C_20
    8  A    between atoms: C_5  and  C_31
    9  A    between atoms: C_8  and  C_19
   10  A    between atoms: O_15  and  O_30
   11  A    between atoms: O_15  and  C_37
   12  A    between atoms: C_21  and  O_30
   13  A    between atoms: C_28  and  C_40
   14  A    between atoms: C_31  and  C_34
   15  A    between atoms: C_31  and  C_37
   16  A    between atoms: C_34  and  C_40
   17  A    between atoms: C_35  and  C_36
                            x       y       z     vdW  Elec       q    Type
                         _______ _______ _______ _____ _____    ______ ____

>  <TORSDO>
F 17

$$$$
