=
 OpenBabel11062413203D

 30 34  0  0  1  0  0  0  0  0999 V2000
  189.3860  178.0160  145.1250 C   0  0  2  0  0  3  0  0  0  0  0  0
  184.6030  178.3720  142.8420 N   0  0  0  0  0  0  0  0  0  0  0  0
  186.0650  179.2630  146.2330 C   0  0  0  0  0  2  0  0  0  0  0  0
  190.9150  177.5750  147.4270 O   0  0  0  0  0  0  0  0  0  0  0  0
  189.6770  177.5640  148.0860 C   0  0  0  0  0  0  0  0  0  0  0  0
  186.8500  177.8990  144.4190 C   0  0  0  0  0  0  0  0  0  0  0  0
  190.1910  176.7100  145.2130 C   0  0  2  0  0  3  0  0  0  0  0  0
  185.7980  178.7630  144.8660 C   0  0  0  0  0  0  0  0  0  0  0  0
  185.6360  177.4620  142.3100 C   0  0  0  0  0  2  0  0  0  0  0  0
  187.4580  177.2260  146.8200 C   0  0  2  0  0  3  0  0  0  0  0  0
  186.8040  177.2610  143.2510 C   0  0  0  0  0  3  0  0  0  0  0  0
  188.6010  176.7460  147.6070 N   0  0  0  0  0  2  0  0  0  0  0  0
  187.9030  177.7790  145.4570 C   0  0  1  0  0  0  0  0  0  0  0  0
  187.4740  178.7360  146.5800 C   0  0  1  0  0  3  0  0  0  0  0  0
  189.4940  178.3170  149.0760 O   0  0  0  0  0  0  0  0  0  0  0  0
  184.7140  178.9870  144.1360 C   0  0  0  0  0  3  0  0  0  0  0  0
  191.2570  176.7260  146.3210 C   0  0  2  0  0  3  0  0  0  0  0  0
  183.2530  177.8180  140.8490 N   0  0  0  0  0  0  0  0  0  0  0  0
  183.5780  179.1740  140.8830 O   0  0  0  0  0  0  0  0  0  0  0  0
  182.2250  179.0030  142.7460 O   0  0  0  0  0  1  0  0  0  0  0  0
  183.3800  178.5700  142.0800 C   0  0  2  0  0  0  0  0  0  0  0  0
  181.8620  177.7390  140.4270 C   0  0  0  0  0  1  0  0  0  0  0  0
  190.6890  176.1650  143.9060 C   0  0  0  0  0  0  0  0  0  0  0  0
  191.9140  176.2280  143.6090 O   0  0  0  0  0  1  0  0  0  0  0  0
  189.7860  175.6210  143.0000 O   0  0  0  0  0  0  0  0  0  0  0  0
  191.5770  175.0310  146.9060 S   0  0  0  0  0  0  0  0  0  0  0  0
  192.7420  175.5970  148.1780 C   0  0  0  0  0  1  0  0  0  0  0  0
  189.6370  178.8930  143.8920 C   0  0  0  0  0  2  0  0  0  0  0  0
  192.0890  179.3380  143.9830 C   0  0  0  0  0  1  0  0  0  0  0  0
  190.7060  179.9340  144.1810 C   0  0  0  0  0  2  0  0  0  0  0  0
  1 28  1  6  0  0  0
  1  7  1  0  0  0  0
  1 13  1  0  0  0  0
  2 16  1  0  0  0  0
  4  5  1  0  0  0  0
  5 15  2  0  0  0  0
  6  8  1  0  0  0  0
  7 23  1  6  0  0  0
  7 17  1  0  0  0  0
  8  3  1  0  0  0  0
  9  2  1  0  0  0  0
  9 11  1  0  0  0  0
 10 12  1  1  0  0  0
 11  6  2  0  0  0  0
 12  5  1  0  0  0  0
 13  6  1  6  0  0  0
 13 14  1  0  0  0  0
 13 10  1  0  0  0  0
 14  3  1  6  0  0  0
 14 10  1  0  0  0  0
 16  8  2  0  0  0  0
 17 26  1  1  0  0  0
 17  4  1  0  0  0  0
 18 19  1  0  0  0  0
 18 21  1  0  0  0  0
 19 21  1  0  0  0  0
 21 20  1  1  0  0  0
 21  2  1  0  0  0  0
 22 18  1  0  0  0  0
 24 23  1  0  0  0  0
 25 23  2  0  0  0  0
 26 27  1  0  0  0  0
 28 30  1  0  0  0  0
 29 30  1  0  0  0  0
M  END
>  <MODEL>
1

>  <REMARK>
 VINA RESULT:      -6.0      0.000      0.000
  Name = 
  5 active torsions:
  status: ('A' for Active; 'I' for Inactive)
    1  A    between atoms: C_1  and  C_22
    2  A    between atoms: S_2  and  C_30
    3  A    between atoms: N_3  and  C_21
    4  A    between atoms: C_9  and  C_14
    5  A    between atoms: C_15  and  C_22
                            x       y       z     vdW  Elec       q    Type
                         _______ _______ _______ _____ _____    ______ ____

>  <TORSDO>
F 5

$$$$
=
 OpenBabel11062413203D

 30 34  0  0  1  0  0  0  0  0999 V2000
  182.7900  178.2430  141.1850 C   0  0  2  0  0  3  0  0  0  0  0  0
  187.7830  178.0950  142.9920 N   0  0  0  0  0  0  0  0  0  0  0  0
  184.3250  177.8540  144.5470 C   0  0  0  0  0  2  0  0  0  0  0  0
  180.1230  178.9930  141.5740 O   0  0  0  0  0  0  0  0  0  0  0  0
  180.5530  179.3650  142.8570 C   0  0  0  0  0  0  0  0  0  0  0  0
  185.1060  178.5820  142.3950 C   0  0  0  0  0  0  0  0  0  0  0  0
  182.2320  179.3850  140.3210 C   0  0  2  0  0  3  0  0  0  0  0  0
  185.4970  178.0340  143.6610 C   0  0  0  0  0  0  0  0  0  0  0  0
  187.4680  178.6680  141.6690 C   0  0  0  0  0  2  0  0  0  0  0  0
  183.0440  179.7250  143.4100 C   0  0  2  0  0  3  0  0  0  0  0  0
  185.9890  178.9080  141.4540 C   0  0  0  0  0  3  0  0  0  0  0  0
  181.7070  180.1970  143.0280 N   0  0  0  0  0  2  0  0  0  0  0  0
  183.6370  178.7870  142.3470 C   0  0  1  0  0  0  0  0  0  0  0  0
  183.1070  178.2200  143.6730 C   0  0  1  0  0  3  0  0  0  0  0  0
  179.9500  178.9200  143.8670 O   0  0  0  0  0  0  0  0  0  0  0  0
  186.7670  177.8110  143.9690 C   0  0  0  0  0  3  0  0  0  0  0  0
  180.6970  179.4760  140.3500 C   0  0  2  0  0  3  0  0  0  0  0  0
  189.6980  176.5620  143.2880 N   0  0  0  0  0  0  0  0  0  0  0  0
  189.3440  177.1740  144.4900 O   0  0  0  0  0  0  0  0  0  0  0  0
  190.0570  178.9960  143.2660 O   0  0  0  0  0  1  0  0  0  0  0  0
  189.1770  177.9110  143.3650 C   0  0  2  0  0  0  0  0  0  0  0  0
  191.1520  176.5670  143.2350 C   0  0  0  0  0  1  0  0  0  0  0  0
  182.8160  179.5010  138.9430 C   0  0  0  0  0  0  0  0  0  0  0  0
  182.2030  179.0350  137.9440 O   0  0  0  0  0  0  0  0  0  0  0  0
  184.0610  180.0970  138.7730 O   0  0  0  0  0  1  0  0  0  0  0  0
  180.1660  181.1900  140.0400 S   0  0  0  0  0  0  0  0  0  0  0  0
  179.0520  180.6920  138.6960 C   0  0  0  0  0  1  0  0  0  0  0  0
  183.4120  177.0590  140.4350 C   0  0  0  0  0  2  0  0  0  0  0  0
  182.7730  175.5390  138.5650 C   0  0  0  0  0  1  0  0  0  0  0  0
  182.3320  176.1400  139.8890 C   0  0  0  0  0  2  0  0  0  0  0  0
  1 28  1  6  0  0  0
  1 13  1  0  0  0  0
  2 21  1  0  0  0  0
  2 16  1  0  0  0  0
  4  5  1  0  0  0  0
  5 12  1  0  0  0  0
  5 15  2  0  0  0  0
  6  8  1  0  0  0  0
  7 23  1  6  0  0  0
  7 17  1  0  0  0  0
  7  1  1  0  0  0  0
  8 16  2  0  0  0  0
  8  3  1  0  0  0  0
  9  2  1  0  0  0  0
 10 12  1  6  0  0  0
 10 14  1  0  0  0  0
 11  9  1  0  0  0  0
 11  6  2  0  0  0  0
 13  6  1  6  0  0  0
 13 10  1  0  0  0  0
 13 14  1  0  0  0  0
 14  3  1  1  0  0  0
 17 26  1  1  0  0  0
 17  4  1  0  0  0  0
 18 21  1  0  0  0  0
 18 19  1  0  0  0  0
 21 20  1  6  0  0  0
 21 19  1  0  0  0  0
 22 18  1  0  0  0  0
 24 23  2  0  0  0  0
 25 23  1  0  0  0  0
 27 26  1  0  0  0  0
 29 30  1  0  0  0  0
 30 28  1  0  0  0  0
M  END
>  <MODEL>
2

>  <REMARK>
 VINA RESULT:      -5.8      3.827      8.783
  Name = 
  5 active torsions:
  status: ('A' for Active; 'I' for Inactive)
    1  A    between atoms: C_1  and  C_22
    2  A    between atoms: S_2  and  C_30
    3  A    between atoms: N_3  and  C_21
    4  A    between atoms: C_9  and  C_14
    5  A    between atoms: C_15  and  C_22
                            x       y       z     vdW  Elec       q    Type
                         _______ _______ _______ _____ _____    ______ ____

>  <TORSDO>
F 5

$$$$
=
 OpenBabel11062413203D

 30 34  0  0  1  0  0  0  0  0999 V2000
  181.5040  177.2690  138.1070 C   0  0  2  0  0  3  0  0  0  0  0  0
  180.6970  182.4420  137.2150 N   0  0  0  0  0  0  0  0  0  0  0  0
  180.2380  180.0920  140.1640 C   0  0  0  0  0  2  0  0  0  0  0  0
  180.7060  174.9020  139.3680 O   0  0  0  0  0  0  0  0  0  0  0  0
  179.7670  175.7200  140.0140 C   0  0  0  0  0  0  0  0  0  0  0  0
  180.5950  179.7250  137.8170 C   0  0  0  0  0  0  0  0  0  0  0  0
  180.9130  176.1520  137.2310 C   0  0  2  0  0  3  0  0  0  0  0  0
  180.4760  180.7180  138.8440 C   0  0  0  0  0  0  0  0  0  0  0  0
  180.8190  181.4860  136.0970 C   0  0  0  0  0  2  0  0  0  0  0  0
  179.1450  178.0550  139.1200 C   0  0  2  0  0  3  0  0  0  0  0  0
  180.7350  180.0390  136.5310 C   0  0  0  0  0  3  0  0  0  0  0  0
  178.9320  176.6090  139.2620 N   0  0  0  0  0  2  0  0  0  0  0  0
  180.4620  178.3630  138.3920 C   0  0  1  0  0  0  0  0  0  0  0  0
  180.3480  178.5740  139.9090 C   0  0  1  0  0  3  0  0  0  0  0  0
  179.6940  175.7080  141.2690 O   0  0  0  0  0  0  0  0  0  0  0  0
  180.5050  182.0150  138.5740 C   0  0  0  0  0  3  0  0  0  0  0  0
  180.8460  174.7910  137.9430 C   0  0  2  0  0  3  0  0  0  0  0  0
  179.3590  184.5020  136.9530 N   0  0  0  0  0  0  0  0  0  0  0  0
  180.0130  184.1650  135.7680 O   0  0  0  0  0  0  0  0  0  0  0  0
  181.8090  184.6380  137.1380 O   0  0  0  0  0  1  0  0  0  0  0  0
  180.6600  183.8660  136.9210 C   0  0  2  0  0  0  0  0  0  0  0  0
  179.4870  185.9450  137.0980 C   0  0  0  0  0  1  0  0  0  0  0  0
  181.4490  176.0730  135.8310 C   0  0  0  0  0  0  0  0  0  0  0  0
  181.0090  176.8390  134.9300 O   0  0  0  0  0  0  0  0  0  0  0  0
  182.4140  175.1220  135.5180 O   0  0  0  0  0  1  0  0  0  0  0  0
  179.4900  173.7910  137.2530 S   0  0  0  0  0  0  0  0  0  0  0  0
  180.2880  172.2290  137.7220 C   0  0  0  0  0  1  0  0  0  0  0  0
  182.8910  177.7880  137.7080 C   0  0  0  0  0  2  0  0  0  0  0  0
  184.1720  179.3950  139.1210 C   0  0  0  0  0  1  0  0  0  0  0  0
  183.7810  177.9390  138.9310 C   0  0  0  0  0  2  0  0  0  0  0  0
  1 28  1  6  0  0  0
  1 13  1  0  0  0  0
  2 16  1  0  0  0  0
  4  5  1  0  0  0  0
  5 15  2  0  0  0  0
  6  8  1  0  0  0  0
  7 23  1  6  0  0  0
  7 17  1  0  0  0  0
  7  1  1  0  0  0  0
  8  3  1  0  0  0  0
  9 11  1  0  0  0  0
  9  2  1  0  0  0  0
 10 12  1  1  0  0  0
 10 14  1  0  0  0  0
 11  6  2  0  0  0  0
 12  5  1  0  0  0  0
 13  6  1  6  0  0  0
 13 10  1  0  0  0  0
 13 14  1  0  0  0  0
 14  3  1  6  0  0  0
 16  8  2  0  0  0  0
 17 26  1  6  0  0  0
 17  4  1  0  0  0  0
 18 22  1  0  0  0  0
 19 21  1  0  0  0  0
 19 18  1  0  0  0  0
 21 18  1  0  0  0  0
 21 20  1  1  0  0  0
 21  2  1  0  0  0  0
 24 23  2  0  0  0  0
 25 23  1  0  0  0  0
 26 27  1  0  0  0  0
 28 30  1  0  0  0  0
 30 29  1  0  0  0  0
M  END
>  <MODEL>
3

>  <REMARK>
 VINA RESULT:      -5.4      8.803     10.849
  Name = 
  5 active torsions:
  status: ('A' for Active; 'I' for Inactive)
    1  A    between atoms: C_1  and  C_22
    2  A    between atoms: S_2  and  C_30
    3  A    between atoms: N_3  and  C_21
    4  A    between atoms: C_9  and  C_14
    5  A    between atoms: C_15  and  C_22
                            x       y       z     vdW  Elec       q    Type
                         _______ _______ _______ _____ _____    ______ ____

>  <TORSDO>
F 5

$$$$
=
 OpenBabel11062413203D

 30 34  0  0  1  0  0  0  0  0999 V2000
  184.2380  176.9890  137.0000 C   0  0  2  0  0  3  0  0  0  0  0  0
  180.9190  178.2500  140.9510 N   0  0  0  0  0  0  0  0  0  0  0  0
  183.7280  180.0130  139.0980 C   0  0  0  0  0  2  0  0  0  0  0  0
  186.7780  177.2000  135.8450 O   0  0  0  0  0  0  0  0  0  0  0  0
  187.0210  178.1260  136.8710 C   0  0  0  0  0  0  0  0  0  0  0  0
  183.0480  177.7130  139.2370 C   0  0  0  0  0  0  0  0  0  0  0  0
  185.1380  175.7420  137.0110 C   0  0  2  0  0  3  0  0  0  0  0  0
  182.7450  179.0530  139.6480 C   0  0  0  0  0  0  0  0  0  0  0  0
  181.1670  176.8420  140.5850 C   0  0  0  0  0  2  0  0  0  0  0  0
  185.5460  178.2470  138.9800 C   0  0  2  0  0  3  0  0  0  0  0  0
  182.3540  176.6600  139.6640 C   0  0  0  0  0  3  0  0  0  0  0  0
  186.7290  177.7990  138.2350 N   0  0  0  0  0  2  0  0  0  0  0  0
  184.2500  177.6950  138.3670 C   0  0  1  0  0  0  0  0  0  0  0  0
  184.6310  179.1700  138.1730 C   0  0  1  0  0  3  0  0  0  0  0  0
  187.4510  179.2720  136.5830 O   0  0  0  0  0  0  0  0  0  0  0  0
  181.7470  179.3250  140.4760 C   0  0  0  0  0  3  0  0  0  0  0  0
  186.3370  175.8500  136.0540 C   0  0  2  0  0  3  0  0  0  0  0  0
  180.1370  178.2100  143.2940 N   0  0  0  0  0  0  0  0  0  0  0  0
  179.3100  177.4500  142.4670 O   0  0  0  0  0  0  0  0  0  0  0  0
  178.9480  179.5660  141.6190 O   0  0  0  0  0  1  0  0  0  0  0  0
  179.8700  178.5520  141.9130 C   0  0  2  0  0  0  0  0  0  0  0  0
  179.2580  178.9450  144.1930 C   0  0  0  0  0  1  0  0  0  0  0  0
  184.4230  174.4250  136.9340 C   0  0  0  0  0  0  0  0  0  0  0  0
  183.9370  173.8950  137.9710 O   0  0  0  0  0  1  0  0  0  0  0  0
  184.3270  173.7660  135.7140 O   0  0  0  0  0  0  0  0  0  0  0  0
  187.7150  174.8250  136.6620 S   0  0  0  0  0  0  0  0  0  0  0  0
  188.7100  175.1300  135.1740 C   0  0  0  0  0  1  0  0  0  0  0  0
  182.8480  176.8230  136.3730 C   0  0  0  0  0  2  0  0  0  0  0  0
  181.2940  178.7470  136.0550 C   0  0  0  0  0  1  0  0  0  0  0  0
  182.5060  178.0180  135.4990 C   0  0  0  0  0  2  0  0  0  0  0  0
  1 28  1  1  0  0  0
  1  7  1  0  0  0  0
  1 13  1  0  0  0  0
  2 21  1  0  0  0  0
  3  8  1  0  0  0  0
  4 17  1  0  0  0  0
  4  5  1  0  0  0  0
  5 12  1  0  0  0  0
  6  8  1  0  0  0  0
  6 11  2  0  0  0  0
  7 23  1  6  0  0  0
  8 16  2  0  0  0  0
  9  2  1  0  0  0  0
 10 12  1  6  0  0  0
 11  9  1  0  0  0  0
 13 10  1  0  0  0  0
 13  6  1  1  0  0  0
 14 13  1  0  0  0  0
 14 10  1  0  0  0  0
 14  3  1  1  0  0  0
 15  5  2  0  0  0  0
 16  2  1  0  0  0  0
 17 26  1  1  0  0  0
 17  7  1  0  0  0  0
 18 22  1  0  0  0  0
 19 18  1  0  0  0  0
 21 20  1  6  0  0  0
 21 19  1  0  0  0  0
 21 18  1  0  0  0  0
 23 24  1  0  0  0  0
 25 23  2  0  0  0  0
 27 26  1  0  0  0  0
 30 29  1  0  0  0  0
 30 28  1  0  0  0  0
M  END
>  <MODEL>
4

>  <REMARK>
 VINA RESULT:      -5.4      7.554      8.941
  Name = 
  5 active torsions:
  status: ('A' for Active; 'I' for Inactive)
    1  A    between atoms: C_1  and  C_22
    2  A    between atoms: S_2  and  C_30
    3  A    between atoms: N_3  and  C_21
    4  A    between atoms: C_9  and  C_14
    5  A    between atoms: C_15  and  C_22
                            x       y       z     vdW  Elec       q    Type
                         _______ _______ _______ _____ _____    ______ ____

>  <TORSDO>
F 5

$$$$
=
 OpenBabel11062413203D

 30 34  0  0  1  0  0  0  0  0999 V2000
  181.8480  178.0830  137.8340 C   0  0  2  0  0  3  0  0  0  0  0  0
  186.5070  175.7710  136.7570 N   0  0  0  0  0  0  0  0  0  0  0  0
  183.0070  174.5600  137.6020 C   0  0  0  0  0  2  0  0  0  0  0  0
  179.4400  178.0710  139.2600 O   0  0  0  0  0  0  0  0  0  0  0  0
  179.8660  176.8120  139.7070 C   0  0  0  0  0  0  0  0  0  0  0  0
  184.0890  176.6980  137.7820 C   0  0  0  0  0  0  0  0  0  0  0  0
  181.6590  179.1430  138.9320 C   0  0  2  0  0  3  0  0  0  0  0  0
  184.2420  175.3370  137.3560 C   0  0  0  0  0  0  0  0  0  0  0  0
  186.4370  177.1830  137.1810 C   0  0  0  0  0  2  0  0  0  0  0  0
  182.3240  176.0580  139.5330 C   0  0  2  0  0  3  0  0  0  0  0  0
  185.0860  177.5780  137.7360 C   0  0  0  0  0  3  0  0  0  0  0  0
  181.1790  176.6340  140.2510 N   0  0  0  0  0  2  0  0  0  0  0  0
  182.7270  176.9220  138.3280 C   0  0  1  0  0  0  0  0  0  0  0  0
  181.9830  175.5950  138.1150 C   0  0  1  0  0  3  0  0  0  0  0  0
  179.1040  175.8190  139.5810 O   0  0  0  0  0  0  0  0  0  0  0  0
  185.3900  174.8750  136.8810 C   0  0  0  0  0  3  0  0  0  0  0  0
  180.1990  179.2830  139.3960 C   0  0  2  0  0  3  0  0  0  0  0  0
  188.0620  175.3490  134.8830 N   0  0  0  0  0  0  0  0  0  0  0  0
  187.6550  174.1590  135.4860 O   0  0  0  0  0  0  0  0  0  0  0  0
  188.8430  175.1360  137.2070 O   0  0  0  0  0  1  0  0  0  0  0  0
  187.7800  175.2360  136.2990 C   0  0  2  0  0  0  0  0  0  0  0  0
  189.4870  175.2130  134.6220 C   0  0  0  0  0  1  0  0  0  0  0  0
  182.3420  180.4570  138.6910 C   0  0  0  0  0  0  0  0  0  0  0  0
  181.6990  181.4430  138.2390 O   0  0  0  0  0  0  0  0  0  0  0  0
  183.7060  180.5760  138.9360 O   0  0  0  0  0  1  0  0  0  0  0  0
  180.1440  179.8690  141.1190 S   0  0  0  0  0  0  0  0  0  0  0  0
  179.1430  181.3190  140.6850 C   0  0  0  0  0  1  0  0  0  0  0  0
  182.1960  178.6040  136.4350 C   0  0  0  0  0  2  0  0  0  0  0  0
  182.1260  176.9240  134.5940 C   0  0  0  0  0  1  0  0  0  0  0  0
  181.3220  177.9440  135.3810 C   0  0  0  0  0  2  0  0  0  0  0  0
  1 28  1  6  0  0  0
  1 13  1  0  0  0  0
  1  7  1  0  0  0  0
  2 16  1  0  0  0  0
  2  9  1  0  0  0  0
  4 17  1  0  0  0  0
  4  5  1  0  0  0  0
  5 12  1  0  0  0  0
  7 23  1  6  0  0  0
  7 17  1  0  0  0  0
  8  3  1  0  0  0  0
  8  6  1  0  0  0  0
  9 11  1  0  0  0  0
 10 12  1  1  0  0  0
 11  6  2  0  0  0  0
 13  6  1  6  0  0  0
 13 10  1  0  0  0  0
 14  3  1  6  0  0  0
 14 13  1  0  0  0  0
 14 10  1  0  0  0  0
 15  5  2  0  0  0  0
 16  8  2  0  0  0  0
 17 26  1  1  0  0  0
 18 19  1  0  0  0  0
 18 21  1  0  0  0  0
 19 21  1  0  0  0  0
 21  2  1  0  0  0  0
 21 20  1  1  0  0  0
 22 18  1  0  0  0  0
 23 25  1  0  0  0  0
 24 23  2  0  0  0  0
 27 26  1  0  0  0  0
 29 30  1  0  0  0  0
 30 28  1  0  0  0  0
M  END
>  <MODEL>
5

>  <REMARK>
 VINA RESULT:      -5.3      8.215     10.706
  Name = 
  5 active torsions:
  status: ('A' for Active; 'I' for Inactive)
    1  A    between atoms: C_1  and  C_22
    2  A    between atoms: S_2  and  C_30
    3  A    between atoms: N_3  and  C_21
    4  A    between atoms: C_9  and  C_14
    5  A    between atoms: C_15  and  C_22
                            x       y       z     vdW  Elec       q    Type
                         _______ _______ _______ _____ _____    ______ ____

>  <TORSDO>
F 5

$$$$
=
 OpenBabel11062413203D

 30 34  0  0  1  0  0  0  0  0999 V2000
  189.1940  178.3230  143.8370 C   0  0  2  0  0  3  0  0  0  0  0  0
  189.2310  176.9630  138.7030 N   0  0  0  0  0  0  0  0  0  0  0  0
  186.7520  178.6270  141.0530 C   0  0  0  0  0  2  0  0  0  0  0  0
  187.7680  178.6230  146.2260 O   0  0  0  0  0  0  0  0  0  0  0  0
  186.6480  178.3130  145.4410 C   0  0  0  0  0  0  0  0  0  0  0  0
  188.7660  177.3690  141.4190 C   0  0  0  0  0  0  0  0  0  0  0  0
  189.4920  177.3380  144.9790 C   0  0  2  0  0  3  0  0  0  0  0  0
  187.8910  177.9200  140.4250 C   0  0  0  0  0  0  0  0  0  0  0  0
  190.1750  176.3530  139.6590 C   0  0  0  0  0  2  0  0  0  0  0  0
  186.8660  177.1830  143.1350 C   0  0  2  0  0  3  0  0  0  0  0  0
  189.8220  176.6210  141.1060 C   0  0  0  0  0  3  0  0  0  0  0  0
  186.6500  177.1610  144.5880 N   0  0  0  0  0  2  0  0  0  0  0  0
  188.2730  177.6880  142.7820 C   0  0  1  0  0  0  0  0  0  0  0  0
  187.0480  178.5910  142.5670 C   0  0  1  0  0  3  0  0  0  0  0  0
  185.6530  179.0820  145.4480 O   0  0  0  0  0  0  0  0  0  0  0  0
  188.0880  177.7230  139.1290 C   0  0  0  0  0  3  0  0  0  0  0  0
  188.9380  177.7990  146.3380 C   0  0  2  0  0  3  0  0  0  0  0  0
  188.9460  175.4060  136.8060 N   0  0  0  0  0  0  0  0  0  0  0  0
  190.2900  175.7120  137.0170 O   0  0  0  0  0  0  0  0  0  0  0  0
  189.4680  177.7750  136.3900 O   0  0  0  0  0  1  0  0  0  0  0  0
  189.3980  176.6970  137.2820 C   0  0  2  0  0  0  0  0  0  0  0  0
  188.7410  175.4250  135.3650 C   0  0  0  0  0  1  0  0  0  0  0  0
  190.9010  176.8270  145.0450 C   0  0  0  0  0  0  0  0  0  0  0  0
  191.3730  176.1210  144.1130 O   0  0  0  0  0  0  0  0  0  0  0  0
  191.6810  177.1060  146.1630 O   0  0  0  0  0  1  0  0  0  0  0  0
  188.5910  176.3550  147.3930 S   0  0  0  0  0  0  0  0  0  0  0  0
  187.9410  177.3860  148.7390 C   0  0  0  0  0  1  0  0  0  0  0  0
  190.3930  179.0910  143.2670 C   0  0  0  0  0  2  0  0  0  0  0  0
  192.5420  179.7530  144.3450 C   0  0  0  0  0  1  0  0  0  0  0  0
  191.0360  179.9570  144.3380 C   0  0  0  0  0  2  0  0  0  0  0  0
  1 28  1  6  0  0  0
  1  7  1  0  0  0  0
  2 16  1  0  0  0  0
  2  9  1  0  0  0  0
  4 17  1  0  0  0  0
  5 15  2  0  0  0  0
  5  4  1  0  0  0  0
  7 23  1  1  0  0  0
  7 17  1  0  0  0  0
  8  3  1  0  0  0  0
  8  6  1  0  0  0  0
  9 11  1  0  0  0  0
 10 12  1  1  0  0  0
 11  6  2  0  0  0  0
 12  5  1  0  0  0  0
 13  6  1  6  0  0  0
 13 10  1  0  0  0  0
 13  1  1  0  0  0  0
 14  3  1  6  0  0  0
 14 13  1  0  0  0  0
 14 10  1  0  0  0  0
 16  8  2  0  0  0  0
 17 26  1  1  0  0  0
 18 19  1  0  0  0  0
 18 21  1  0  0  0  0
 19 21  1  0  0  0  0
 21 20  1  6  0  0  0
 21  2  1  0  0  0  0
 22 18  1  0  0  0  0
 23 25  1  0  0  0  0
 24 23  2  0  0  0  0
 26 27  1  0  0  0  0
 28 30  1  0  0  0  0
 30 29  1  0  0  0  0
M  END
>  <MODEL>
6

>  <REMARK>
 VINA RESULT:      -5.2      3.708      4.912
  Name = 
  5 active torsions:
  status: ('A' for Active; 'I' for Inactive)
    1  A    between atoms: C_1  and  C_22
    2  A    between atoms: S_2  and  C_30
    3  A    between atoms: N_3  and  C_21
    4  A    between atoms: C_9  and  C_14
    5  A    between atoms: C_15  and  C_22
                            x       y       z     vdW  Elec       q    Type
                         _______ _______ _______ _____ _____    ______ ____

>  <TORSDO>
F 5

$$$$
=
 OpenBabel11062413203D

 30 34  0  0  1  0  0  0  0  0999 V2000
  186.0590  177.1240  136.8660 C   0  0  2  0  0  3  0  0  0  0  0  0
  191.1530  175.7990  137.5810 N   0  0  0  0  0  0  0  0  0  0  0  0
  188.2080  174.3350  135.6790 C   0  0  0  0  0  2  0  0  0  0  0  0
  183.3990  176.3230  136.5290 O   0  0  0  0  0  0  0  0  0  0  0  0
  183.9360  175.0280  136.4770 C   0  0  0  0  0  0  0  0  0  0  0  0
  188.3800  175.9990  137.4030 C   0  0  0  0  0  0  0  0  0  0  0  0
  185.0780  177.3850  138.0210 C   0  0  2  0  0  3  0  0  0  0  0  0
  189.1170  175.1120  136.5510 C   0  0  0  0  0  0  0  0  0  0  0  0
  190.4710  176.7300  138.5020 C   0  0  0  0  0  2  0  0  0  0  0  0
  186.3020  174.4930  137.3460 C   0  0  2  0  0  3  0  0  0  0  0  0
  188.9670  176.7490  138.3330 C   0  0  0  0  0  3  0  0  0  0  0  0
  184.8420  174.5710  137.4880 N   0  0  0  0  0  2  0  0  0  0  0  0
  186.9240  175.8830  137.1410 C   0  0  1  0  0  0  0  0  0  0  0  0
  186.8030  174.9070  135.9610 C   0  0  1  0  0  3  0  0  0  0  0  0
  183.6580  174.2800  135.5050 O   0  0  0  0  0  0  0  0  0  0  0  0
  190.4340  174.9920  136.6330 C   0  0  0  0  0  3  0  0  0  0  0  0
  183.6030  177.2460  137.6090 C   0  0  2  0  0  3  0  0  0  0  0  0
  193.2640  174.9830  136.5920 N   0  0  0  0  0  0  0  0  0  0  0  0
  192.9600  174.3070  137.7730 O   0  0  0  0  0  0  0  0  0  0  0  0
  193.3120  176.4430  138.5730 O   0  0  0  0  0  1  0  0  0  0  0  0
  192.5890  175.6090  137.7100 C   0  0  2  0  0  0  0  0  0  0  0  0
  194.6940  175.2540  136.6280 C   0  0  0  0  0  1  0  0  0  0  0  0
  185.3590  178.6050  138.8490 C   0  0  0  0  0  0  0  0  0  0  0  0
  184.6900  179.6620  138.6830 O   0  0  0  0  0  0  0  0  0  0  0  0
  186.3910  178.5800  139.7800 O   0  0  0  0  0  1  0  0  0  0  0  0
  182.5950  176.7630  139.0470 S   0  0  0  0  0  0  0  0  0  0  0  0
  181.0750  177.4320  138.3150 C   0  0  0  0  0  1  0  0  0  0  0  0
  186.8280  178.3400  136.3350 C   0  0  0  0  0  2  0  0  0  0  0  0
  188.5570  177.8980  134.5940 C   0  0  0  0  0  1  0  0  0  0  0  0
  187.0900  178.2020  134.8440 C   0  0  0  0  0  2  0  0  0  0  0  0
  1 28  1  1  0  0  0
  1 13  1  0  0  0  0
  1  7  1  0  0  0  0
  2 21  1  0  0  0  0
  2  9  1  0  0  0  0
  3  8  1  0  0  0  0
  4 17  1  0  0  0  0
  5  4  1  0  0  0  0
  5 12  1  0  0  0  0
  6 11  2  0  0  0  0
  7 23  1  6  0  0  0
  8 16  2  0  0  0  0
  8  6  1  0  0  0  0
 10 12  1  6  0  0  0
 11  9  1  0  0  0  0
 13 10  1  0  0  0  0
 13  6  1  1  0  0  0
 14  3  1  1  0  0  0
 14 13  1  0  0  0  0
 14 10  1  0  0  0  0
 15  5  2  0  0  0  0
 16  2  1  0  0  0  0
 17  7  1  0  0  0  0
 17 26  1  1  0  0  0
 18 22  1  0  0  0  0
 18 21  1  0  0  0  0
 18 19  1  0  0  0  0
 21 19  1  0  0  0  0
 21 20  1  1  0  0  0
 23 25  1  0  0  0  0
 24 23  2  0  0  0  0
 27 26  1  0  0  0  0
 29 30  1  0  0  0  0
 30 28  1  0  0  0  0
M  END
>  <MODEL>
7

>  <REMARK>
 VINA RESULT:      -5.2      7.006     10.589
  Name = 
  5 active torsions:
  status: ('A' for Active; 'I' for Inactive)
    1  A    between atoms: C_1  and  C_22
    2  A    between atoms: S_2  and  C_30
    3  A    between atoms: N_3  and  C_21
    4  A    between atoms: C_9  and  C_14
    5  A    between atoms: C_15  and  C_22
                            x       y       z     vdW  Elec       q    Type
                         _______ _______ _______ _____ _____    ______ ____

>  <TORSDO>
F 5

$$$$
=
 OpenBabel11062413203D

 30 34  0  0  1  0  0  0  0  0999 V2000
  182.2760  178.8620  138.3430 C   0  0  2  0  0  3  0  0  0  0  0  0
  184.2130  179.1400  143.2800 N   0  0  0  0  0  0  0  0  0  0  0  0
  185.6800  178.6260  139.8140 C   0  0  0  0  0  2  0  0  0  0  0  0
  182.4030  177.7490  135.7780 O   0  0  0  0  0  0  0  0  0  0  0  0
  183.5760  177.1390  136.2460 C   0  0  0  0  0  0  0  0  0  0  0  0
  183.4420  178.5100  140.6790 C   0  0  0  0  0  0  0  0  0  0  0  0
  181.1550  177.8970  137.9220 C   0  0  2  0  0  3  0  0  0  0  0  0
  184.8110  178.7880  141.0010 C   0  0  0  0  0  0  0  0  0  0  0  0
  182.7850  178.8590  143.0370 C   0  0  0  0  0  2  0  0  0  0  0  0
  184.1050  176.9400  138.7600 C   0  0  2  0  0  3  0  0  0  0  0  0
  182.4770  178.5130  141.5960 C   0  0  0  0  0  3  0  0  0  0  0  0
  183.5840  176.4240  137.4870 N   0  0  0  0  0  2  0  0  0  0  0  0
  183.3050  178.1590  139.2440 C   0  0  1  0  0  0  0  0  0  0  0  0
  184.7100  178.3400  138.6480 C   0  0  1  0  0  3  0  0  0  0  0  0
  184.6440  177.2670  135.5930 O   0  0  0  0  0  0  0  0  0  0  0  0
  185.1980  179.0730  142.2360 C   0  0  0  0  0  3  0  0  0  0  0  0
  181.1180  177.6310  136.4080 C   0  0  2  0  0  3  0  0  0  0  0  0
  184.9130  178.2210  145.4640 N   0  0  0  0  0  0  0  0  0  0  0  0
  183.7640  179.0010  145.5840 O   0  0  0  0  0  0  0  0  0  0  0  0
  185.3050  180.5940  144.9410 O   0  0  0  0  0  1  0  0  0  0  0  0
  184.6590  179.3860  144.6430 C   0  0  2  0  0  0  0  0  0  0  0  0
  185.7610  178.5570  146.5990 C   0  0  0  0  0  1  0  0  0  0  0  0
  179.8050  178.1700  138.5190 C   0  0  0  0  0  0  0  0  0  0  0  0
  178.9310  178.8050  137.8670 O   0  0  0  0  0  0  0  0  0  0  0  0
  179.5300  177.7510  139.8160 O   0  0  0  0  0  1  0  0  0  0  0  0
  180.4040  175.9890  136.0790 S   0  0  0  0  0  0  0  0  0  0  0  0
  179.3730  176.6130  134.7210 C   0  0  0  0  0  1  0  0  0  0  0  0
  181.8370  180.2490  138.8260 C   0  0  0  0  0  2  0  0  0  0  0  0
  180.6830  182.3310  138.0850 C   0  0  0  0  0  1  0  0  0  0  0  0
  181.5530  181.1650  137.6470 C   0  0  0  0  0  2  0  0  0  0  0  0
  1 28  1  1  0  0  0
  1 13  1  0  0  0  0
  2 21  1  0  0  0  0
  3  8  1  0  0  0  0
  4  5  1  0  0  0  0
  4 17  1  0  0  0  0
  5 12  1  0  0  0  0
  6  8  1  0  0  0  0
  6 11  2  0  0  0  0
  7  1  1  0  0  0  0
  7 23  1  6  0  0  0
  8 16  2  0  0  0  0
  9  2  1  0  0  0  0
 10 12  1  6  0  0  0
 10 13  1  0  0  0  0
 11  9  1  0  0  0  0
 13  6  1  1  0  0  0
 14 10  1  0  0  0  0
 14 13  1  0  0  0  0
 14  3  1  1  0  0  0
 15  5  2  0  0  0  0
 16  2  1  0  0  0  0
 17 26  1  1  0  0  0
 17  7  1  0  0  0  0
 18 19  1  0  0  0  0
 18 22  1  0  0  0  0
 21 20  1  1  0  0  0
 21 18  1  0  0  0  0
 21 19  1  0  0  0  0
 23 25  1  0  0  0  0
 24 23  2  0  0  0  0
 27 26  1  0  0  0  0
 30 29  1  0  0  0  0
 30 28  1  0  0  0  0
M  END
>  <MODEL>
8

>  <REMARK>
 VINA RESULT:      -5.1      5.264     10.139
  Name = 
  5 active torsions:
  status: ('A' for Active; 'I' for Inactive)
    1  A    between atoms: C_1  and  C_22
    2  A    between atoms: S_2  and  C_30
    3  A    between atoms: N_3  and  C_21
    4  A    between atoms: C_9  and  C_14
    5  A    between atoms: C_15  and  C_22
                            x       y       z     vdW  Elec       q    Type
                         _______ _______ _______ _____ _____    ______ ____

>  <TORSDO>
F 5

$$$$
=
 OpenBabel11062413203D

 30 34  0  0  1  0  0  0  0  0999 V2000
  190.2010  176.9770  137.3410 C   0  0  2  0  0  3  0  0  0  0  0  0
  190.5280  177.3410  142.6300 N   0  0  0  0  0  0  0  0  0  0  0  0
  193.0000  177.4050  139.7460 C   0  0  0  0  0  2  0  0  0  0  0  0
  191.3100  176.0990  134.9260 O   0  0  0  0  0  0  0  0  0  0  0  0
  192.4100  175.7360  135.7180 C   0  0  0  0  0  0  0  0  0  0  0  0
  190.7000  176.7350  139.9160 C   0  0  0  0  0  0  0  0  0  0  0  0
  189.5040  175.8180  136.6100 C   0  0  2  0  0  3  0  0  0  0  0  0
  191.8160  177.2880  140.6260 C   0  0  0  0  0  0  0  0  0  0  0  0
  189.3350  176.7660  141.9780 C   0  0  0  0  0  2  0  0  0  0  0  0
  192.2300  175.4870  138.2760 C   0  0  2  0  0  3  0  0  0  0  0  0
  189.5410  176.4590  140.5100 C   0  0  0  0  0  3  0  0  0  0  0  0
  192.2300  174.9570  136.9060 N   0  0  0  0  0  2  0  0  0  0  0  0
  191.0640  176.4610  138.5040 C   0  0  1  0  0  0  0  0  0  0  0  0
  192.4980  176.9910  138.3470 C   0  0  1  0  0  3  0  0  0  0  0  0
  193.5590  176.1430  135.4070 O   0  0  0  0  0  0  0  0  0  0  0  0
  191.7570  177.5670  141.9210 C   0  0  0  0  0  3  0  0  0  0  0  0
  189.9630  175.6560  135.1510 C   0  0  2  0  0  3  0  0  0  0  0  0
  190.9970  176.5270  144.9150 N   0  0  0  0  0  0  0  0  0  0  0  0
  189.6370  176.7790  144.7320 O   0  0  0  0  0  0  0  0  0  0  0  0
  190.5050  178.9080  144.5290 O   0  0  0  0  0  1  0  0  0  0  0  0
  190.4960  177.5860  144.0630 C   0  0  2  0  0  0  0  0  0  0  0  0
  191.3370  177.0370  146.2350 C   0  0  0  0  0  1  0  0  0  0  0  0
  188.0150  175.7420  136.7840 C   0  0  0  0  0  0  0  0  0  0  0  0
  187.5110  175.5000  137.9150 O   0  0  0  0  0  1  0  0  0  0  0  0
  187.1860  175.9050  135.6800 O   0  0  0  0  0  0  0  0  0  0  0  0
  189.7760  173.9220  134.6270 S   0  0  0  0  0  0  0  0  0  0  0  0
  189.7120  173.3210  136.3380 C   0  0  0  0  0  1  0  0  0  0  0  0
  189.3320  178.1960  137.6740 C   0  0  0  0  0  2  0  0  0  0  0  0
  187.4150  179.1980  136.4340 C   0  0  0  0  0  1  0  0  0  0  0  0
  188.9080  178.9190  136.4070 C   0  0  0  0  0  2  0  0  0  0  0  0
  1 28  1  1  0  0  0
  1 13  1  0  0  0  0
  2 21  1  0  0  0  0
  3  8  1  0  0  0  0
  4 17  1  0  0  0  0
  4  5  1  0  0  0  0
  5 12  1  0  0  0  0
  6 11  2  0  0  0  0
  6  8  1  0  0  0  0
  7 23  1  6  0  0  0
  7  1  1  0  0  0  0
  8 16  2  0  0  0  0
  9  2  1  0  0  0  0
 10 12  1  6  0  0  0
 10 14  1  0  0  0  0
 10 13  1  0  0  0  0
 11  9  1  0  0  0  0
 13  6  1  1  0  0  0
 14 13  1  0  0  0  0
 14  3  1  1  0  0  0
 15  5  2  0  0  0  0
 16  2  1  0  0  0  0
 17 26  1  1  0  0  0
 17  7  1  0  0  0  0
 18 22  1  0  0  0  0
 19 18  1  0  0  0  0
 21 20  1  1  0  0  0
 21 19  1  0  0  0  0
 21 18  1  0  0  0  0
 23 24  1  0  0  0  0
 25 23  2  0  0  0  0
 26 27  1  0  0  0  0
 30 29  1  0  0  0  0
 30 28  1  0  0  0  0
M  END
>  <MODEL>
9

>  <REMARK>
 VINA RESULT:      -5.0      6.275      9.203
  Name = 
  5 active torsions:
  status: ('A' for Active; 'I' for Inactive)
    1  A    between atoms: C_1  and  C_22
    2  A    between atoms: S_2  and  C_30
    3  A    between atoms: N_3  and  C_21
    4  A    between atoms: C_9  and  C_14
    5  A    between atoms: C_15  and  C_22
                            x       y       z     vdW  Elec       q    Type
                         _______ _______ _______ _____ _____    ______ ____

>  <TORSDO>
F 5

$$$$
