=
 OpenBabel11062412573D

 38 43  0  0  1  0  0  0  0  0999 V2000
  184.7430  179.0910  141.5390 C   0  0  0  0  0  2  0  0  0  0  0  0
  180.0960  171.4610  135.7180 C   0  0  0  0  0  0  0  0  0  0  0  0
  181.9430  172.9710  136.2810 O   0  0  0  0  0  0  0  0  0  0  0  0
  179.2200  179.2990  136.7980 C   0  0  0  0  0  2  0  0  0  0  0  0
  185.0610  174.2720  137.2660 C   0  0  0  0  0  2  0  0  0  0  0  0
  182.5030  178.2440  141.0630 C   0  0  2  0  0  3  0  0  0  0  0  0
  181.2860  175.9120  136.4960 S   0  0  0  0  0  0  0  0  0  0  0  0
  180.3810  178.4390  136.2970 C   0  0  0  0  0  2  0  0  0  0  0  0
  180.9500  170.7910  134.6750 C   0  0  0  0  0  2  0  0  0  0  0  0
  180.9060  177.4760  137.3540 C   0  0  2  0  0  3  0  0  0  0  0  0
  183.3480  178.9100  142.1300 C   0  0  0  0  0  2  0  0  0  0  0  0
  184.0190  176.3820  138.0200 C   0  0  0  0  0  0  0  0  0  0  0  0
  179.6780  173.6650  136.7620 C   0  0  0  0  0  2  0  0  0  0  0  0
  179.4840  180.0540  138.1050 C   0  0  0  0  0  2  0  0  0  0  0  0
  183.5170  177.4910  140.2300 C   0  0  2  0  0  3  0  0  0  0  0  0
  184.0760  175.0540  138.0600 C   0  0  0  0  0  3  0  0  0  0  0  0
  181.6620  179.2790  138.9370 C   0  0  0  0  0  0  0  0  0  0  0  0
  178.9310  171.1110  135.8250 O   0  0  0  0  0  0  0  0  0  0  0  0
  184.2430  172.3490  135.9240 C   0  0  2  0  0  3  0  0  0  0  0  0
  182.3590  171.3660  134.5940 C   0  0  0  0  0  2  0  0  0  0  0  0
  184.7580  178.3610  140.2080 C   0  0  0  0  0  2  0  0  0  0  0  0
  184.6820  172.8060  137.3060 C   0  0  0  0  0  2  0  0  0  0  0  0
  180.9470  180.4280  138.2980 C   0  0  0  0  0  2  0  0  0  0  0  0
  180.7750  171.8970  137.9520 O   0  0  0  0  0  1  0  0  0  0  0  0
  182.7870  171.8910  135.9570 C   0  0  2  0  0  3  0  0  0  0  0  0
  181.8280  179.3240  140.2660 C   0  0  0  0  0  3  0  0  0  0  0  0
  182.1220  178.1060  138.0820 C   0  0  1  0  0  3  0  0  0  0  0  0
  180.6710  172.4870  136.6880 C   0  0  1  0  0  0  0  0  0  0  0  0
  180.1330  174.9280  137.5090 C   0  0  1  0  0  3  0  0  0  0  0  0
  182.9740  177.0660  138.8570 C   0  0  1  0  0  3  0  0  0  0  0  0
  179.6400  174.2870  139.7600 O   0  0  0  0  0  0  0  0  0  0  0  0
  180.1380  175.5940  139.8810 C   0  0  0  0  0  2  0  0  0  0  0  0
  180.6940  174.6400  138.8970 C   0  0  2  0  0  3  0  0  0  0  0  0
  186.3860  171.4700  134.8960 C   0  0  0  0  0  3  0  0  0  0  0  0
  185.1040  171.2550  135.4890 N   0  0  0  0  0  2  0  0  0  0  0  0
  186.8200  172.6350  134.6970 O   0  0  0  0  0  0  0  0  0  0  0  0
  184.6810  177.3170  135.9200 O   0  0  0  0  0  1  0  0  0  0  0  0
  184.9170  177.0980  137.2200 O   0  0  0  0  0  0  0  0  0  0  0  0
  1 11  1  0  0  0  0
  2 18  2  0  0  0  0
  2 28  1  0  0  0  0
  3 28  1  0  0  0  0
  4 14  1  0  0  0  0
  5 22  1  0  0  0  0
  5 16  1  0  0  0  0
  6 26  1  6  0  0  0
  6 11  1  0  0  0  0
  7 10  1  0  0  0  0
  7 29  1  0  0  0  0
  8  4  1  0  0  0  0
  9  2  1  0  0  0  0
 10  8  1  6  0  0  0
 10 27  1  0  0  0  0
 12 16  2  0  0  0  0
 14 23  1  0  0  0  0
 15 21  1  6  0  0  0
 15  6  1  0  0  0  0
 17 26  2  0  0  0  0
 19 35  1  1  0  0  0
 19 25  1  0  0  0  0
 19 22  1  0  0  0  0
 20  9  1  0  0  0  0
 21  1  1  0  0  0  0
 23 17  1  0  0  0  0
 25 20  1  6  0  0  0
 25  3  1  0  0  0  0
 27 30  1  0  0  0  0
 27 17  1  1  0  0  0
 28 13  1  0  0  0  0
 28 24  1  1  0  0  0
 29 13  1  6  0  0  0
 29 33  1  0  0  0  0
 30 12  1  6  0  0  0
 30 15  1  0  0  0  0
 31 32  1  0  0  0  0
 33 31  1  0  0  0  0
 33 32  1  1  0  0  0
 34 35  1  0  0  0  0
 36 34  2  0  0  0  0
 37 38  1  0  0  0  0
 38 12  1  0  0  0  0
M  END
>  <MODEL>
1

>  <REMARK>
 VINA RESULT:      -5.2      0.000      0.000
  Name = 
  3 active torsions:
  status: ('A' for Active; 'I' for Inactive)
    1  A    between atoms: N_15  and  C_24
    2  A    between atoms: C_16  and  O_38
    3  A    between atoms: C_29  and  C_36
                            x       y       z     vdW  Elec       q    Type
                         _______ _______ _______ _____ _____    ______ ____

>  <TORSDO>
F 3

$$$$
=
 OpenBabel11062412573D

 38 43  0  0  1  0  0  0  0  0999 V2000
  180.5630  178.6580  141.8200 C   0  0  0  0  0  2  0  0  0  0  0  0
  188.0630  174.8250  135.2810 C   0  0  0  0  0  0  0  0  0  0  0  0
  187.1240  176.5120  136.7910 O   0  0  0  0  0  0  0  0  0  0  0  0
  180.6920  177.7540  134.5950 C   0  0  0  0  0  2  0  0  0  0  0  0
  186.5800  178.6910  139.5010 C   0  0  0  0  0  2  0  0  0  0  0  0
  180.7800  177.0120  140.0280 C   0  0  2  0  0  3  0  0  0  0  0  0
  184.3370  177.5010  136.1710 S   0  0  0  0  0  0  0  0  0  0  0  0
  182.0010  178.3380  135.1290 C   0  0  0  0  0  2  0  0  0  0  0  0
  189.3470  175.6050  135.1930 C   0  0  0  0  0  2  0  0  0  0  0  0
  182.5250  177.6000  136.3540 C   0  0  2  0  0  3  0  0  0  0  0  0
  180.0230  177.3280  141.3030 C   0  0  0  0  0  2  0  0  0  0  0  0
  184.1420  178.6990  139.0940 C   0  0  0  0  0  0  0  0  0  0  0  0
  185.6170  175.1310  135.5010 C   0  0  0  0  0  2  0  0  0  0  0  0
  179.5740  177.6050  135.6320 C   0  0  0  0  0  2  0  0  0  0  0  0
  182.0950  177.7380  140.2110 C   0  0  2  0  0  3  0  0  0  0  0  0
  185.2660  178.0200  139.3060 C   0  0  0  0  0  3  0  0  0  0  0  0
  180.5560  178.1680  137.8130 C   0  0  0  0  0  0  0  0  0  0  0  0
  187.9450  173.8220  134.5940 O   0  0  0  0  0  0  0  0  0  0  0  0
  188.5270  177.8870  138.1850 C   0  0  2  0  0  3  0  0  0  0  0  0
  189.3390  176.8700  136.0420 C   0  0  0  0  0  2  0  0  0  0  0  0
  181.7580  179.0160  140.9550 C   0  0  0  0  0  2  0  0  0  0  0  0
  187.6830  177.6550  139.4290 C   0  0  0  0  0  2  0  0  0  0  0  0
  179.6340  178.6500  136.7370 C   0  0  0  0  0  2  0  0  0  0  0  0
  186.9450  174.2730  137.3020 O   0  0  0  0  0  1  0  0  0  0  0  0
  188.4420  176.6770  137.2570 C   0  0  2  0  0  3  0  0  0  0  0  0
  179.9970  177.5720  138.8750 C   0  0  0  0  0  3  0  0  0  0  0  0
  182.0610  178.3250  137.6440 C   0  0  1  0  0  3  0  0  0  0  0  0
  186.9580  175.2050  136.2600 C   0  0  1  0  0  0  0  0  0  0  0  0
  184.3700  175.6780  136.2110 C   0  0  1  0  0  3  0  0  0  0  0  0
  182.8750  177.9140  138.9000 C   0  0  1  0  0  3  0  0  0  0  0  0
  183.9950  173.7420  137.5650 O   0  0  0  0  0  0  0  0  0  0  0  0
  182.8510  174.5290  137.7730 C   0  0  0  0  0  2  0  0  0  0  0  0
  184.1920  175.1350  137.6240 C   0  0  2  0  0  3  0  0  0  0  0  0
  190.6760  177.1500  139.3080 C   0  0  0  0  0  3  0  0  0  0  0  0
  189.9110  178.1160  138.5850 N   0  0  0  0  0  2  0  0  0  0  0  0
  190.1660  176.0530  139.6600 O   0  0  0  0  0  0  0  0  0  0  0  0
  183.0840  180.8100  138.7160 O   0  0  0  0  0  1  0  0  0  0  0  0
  184.1640  180.0970  139.0590 O   0  0  0  0  0  0  0  0  0  0  0  0
  2 28  1  0  0  0  0
  3 25  1  0  0  0  0
  4  8  1  0  0  0  0
  4 14  1  0  0  0  0
  6 26  1  6  0  0  0
  6 15  1  0  0  0  0
  6 11  1  0  0  0  0
  7 29  1  0  0  0  0
  7 10  1  0  0  0  0
  9  2  1  0  0  0  0
  9 20  1  0  0  0  0
 10  8  1  6  0  0  0
 10 27  1  0  0  0  0
 11  1  1  0  0  0  0
 12 16  2  0  0  0  0
 13 28  1  0  0  0  0
 14 23  1  0  0  0  0
 15 21  1  6  0  0  0
 16  5  1  0  0  0  0
 17 26  2  0  0  0  0
 18  2  2  0  0  0  0
 19 35  1  1  0  0  0
 19 22  1  0  0  0  0
 21  1  1  0  0  0  0
 22  5  1  0  0  0  0
 23 17  1  0  0  0  0
 25 20  1  6  0  0  0
 25 19  1  0  0  0  0
 27 17  1  1  0  0  0
 27 30  1  0  0  0  0
 28  3  1  0  0  0  0
 28 24  1  1  0  0  0
 29 13  1  1  0  0  0
 29 33  1  0  0  0  0
 30 12  1  1  0  0  0
 30 15  1  0  0  0  0
 31 33  1  0  0  0  0
 31 32  1  0  0  0  0
 33 32  1  6  0  0  0
 34 36  2  0  0  0  0
 35 34  1  0  0  0  0
 37 38  1  0  0  0  0
 38 12  1  0  0  0  0
M  END
>  <MODEL>
2

>  <REMARK>
 VINA RESULT:      -4.6      3.177      5.425
  Name = 
  3 active torsions:
  status: ('A' for Active; 'I' for Inactive)
    1  A    between atoms: N_15  and  C_24
    2  A    between atoms: C_16  and  O_38
    3  A    between atoms: C_29  and  C_36
                            x       y       z     vdW  Elec       q    Type
                         _______ _______ _______ _____ _____    ______ ____

>  <TORSDO>
F 3

$$$$
=
 OpenBabel11062412573D

 38 43  0  0  1  0  0  0  0  0999 V2000
  180.0560  177.8790  143.9670 C   0  0  0  0  0  2  0  0  0  0  0  0
  188.0530  177.5870  136.9210 C   0  0  0  0  0  0  0  0  0  0  0  0
  187.0610  178.1530  139.0890 O   0  0  0  0  0  0  0  0  0  0  0  0
  181.1630  181.4900  137.7410 C   0  0  0  0  0  2  0  0  0  0  0  0
  186.3260  178.3190  142.5270 C   0  0  0  0  0  2  0  0  0  0  0  0
  180.3820  177.6320  141.5590 C   0  0  2  0  0  3  0  0  0  0  0  0
  184.4980  179.7530  139.0430 S   0  0  0  0  0  0  0  0  0  0  0  0
  182.4270  181.4130  138.5990 C   0  0  0  0  0  2  0  0  0  0  0  0
  189.4020  178.0410  137.4100 C   0  0  0  0  0  2  0  0  0  0  0  0
  182.6950  180.0150  139.1390 C   0  0  2  0  0  3  0  0  0  0  0  0
  179.4770  177.2370  142.7100 C   0  0  0  0  0  2  0  0  0  0  0  0
  183.9860  178.9670  142.0650 C   0  0  0  0  0  0  0  0  0  0  0  0
  185.6400  178.0920  137.1340 C   0  0  0  0  0  2  0  0  0  0  0  0
  179.8960  180.9320  138.3960 C   0  0  0  0  0  2  0  0  0  0  0  0
  181.7160  177.8770  142.2290 C   0  0  2  0  0  3  0  0  0  0  0  0
  184.9990  178.1250  141.8820 C   0  0  0  0  0  3  0  0  0  0  0  0
  180.5930  179.9040  140.5160 C   0  0  0  0  0  0  0  0  0  0  0  0
  187.9460  177.2330  135.7560 O   0  0  0  0  0  0  0  0  0  0  0  0
  188.3640  178.1640  141.1160 C   0  0  2  0  0  3  0  0  0  0  0  0
  189.3860  178.5230  138.8540 C   0  0  0  0  0  2  0  0  0  0  0  0
  181.3930  178.4850  143.5800 C   0  0  0  0  0  2  0  0  0  0  0  0
  187.3280  177.3720  141.8990 C   0  0  0  0  0  2  0  0  0  0  0  0
  179.8890  181.0770  139.9120 C   0  0  0  0  0  2  0  0  0  0  0  0
  186.6040  176.1220  138.1020 O   0  0  0  0  0  1  0  0  0  0  0  0
  188.3060  177.7880  139.6370 C   0  0  2  0  0  3  0  0  0  0  0  0
  179.8320  178.8900  140.9500 C   0  0  0  0  0  3  0  0  0  0  0  0
  182.1150  179.8830  140.5700 C   0  0  1  0  0  3  0  0  0  0  0  0
  186.8550  177.4760  137.8580 C   0  0  1  0  0  0  0  0  0  0  0  0
  184.3570  178.2970  137.9550 C   0  0  1  0  0  3  0  0  0  0  0  0
  182.6940  178.6750  141.3540 C   0  0  1  0  0  3  0  0  0  0  0  0
  183.6360  176.0210  137.8060 O   0  0  0  0  0  0  0  0  0  0  0  0
  182.5340  176.6900  138.3640 C   0  0  0  0  0  2  0  0  0  0  0  0
  183.9240  177.0520  138.7200 C   0  0  2  0  0  3  0  0  0  0  0  0
  190.0360  178.1210  143.0190 C   0  0  0  0  0  3  0  0  0  0  0  0
  189.6880  177.8780  141.6540 N   0  0  0  0  0  2  0  0  0  0  0  0
  189.2050  178.6280  143.8180 O   0  0  0  0  0  0  0  0  0  0  0  0
  184.1940  179.9560  144.2330 O   0  0  0  0  0  1  0  0  0  0  0  0
  184.1400  180.0780  142.9000 O   0  0  0  0  0  0  0  0  0  0  0  0
  2  9  1  0  0  0  0
  2 28  1  0  0  0  0
  3 25  1  0  0  0  0
  4 14  1  0  0  0  0
  4  8  1  0  0  0  0
  6 26  1  1  0  0  0
  6 15  1  0  0  0  0
  6 11  1  0  0  0  0
  7 10  1  0  0  0  0
  9 20  1  0  0  0  0
 10  8  1  1  0  0  0
 10 27  1  0  0  0  0
 11  1  1  0  0  0  0
 12 38  1  0  0  0  0
 13 28  1  0  0  0  0
 14 23  1  0  0  0  0
 15 21  1  1  0  0  0
 16 12  2  0  0  0  0
 16  5  1  0  0  0  0
 17 26  2  0  0  0  0
 18  2  2  0  0  0  0
 19 35  1  1  0  0  0
 19 22  1  0  0  0  0
 21  1  1  0  0  0  0
 22  5  1  0  0  0  0
 23 17  1  0  0  0  0
 25 20  1  6  0  0  0
 25 19  1  0  0  0  0
 27 17  1  6  0  0  0
 27 30  1  0  0  0  0
 28 24  1  1  0  0  0
 28  3  1  0  0  0  0
 29 13  1  1  0  0  0
 29 33  1  0  0  0  0
 29  7  1  0  0  0  0
 30 12  1  1  0  0  0
 30 15  1  0  0  0  0
 31 32  1  0  0  0  0
 31 33  1  0  0  0  0
 33 32  1  6  0  0  0
 34 36  2  0  0  0  0
 35 34  1  0  0  0  0
 38 37  1  0  0  0  0
M  END
>  <MODEL>
3

>  <REMARK>
 VINA RESULT:      -3.9      4.154      6.761
  Name = 
  3 active torsions:
  status: ('A' for Active; 'I' for Inactive)
    1  A    between atoms: N_15  and  C_24
    2  A    between atoms: C_16  and  O_38
    3  A    between atoms: C_29  and  C_36
                            x       y       z     vdW  Elec       q    Type
                         _______ _______ _______ _____ _____    ______ ____

>  <TORSDO>
F 3

$$$$
=
 OpenBabel11062412573D

 38 43  0  0  1  0  0  0  0  0999 V2000
  193.9140  176.3390  137.0920 C   0  0  0  0  0  2  0  0  0  0  0  0
  183.3710  177.8650  137.5370 C   0  0  0  0  0  0  0  0  0  0  0  0
  185.5810  177.5190  138.5390 O   0  0  0  0  0  0  0  0  0  0  0  0
  188.3140  171.9970  135.4140 C   0  0  0  0  0  2  0  0  0  0  0  0
  188.5760  177.9390  140.3380 C   0  0  0  0  0  2  0  0  0  0  0  0
  191.9550  176.0920  135.6560 C   0  0  2  0  0  3  0  0  0  0  0  0
  187.1500  175.1180  137.5910 S   0  0  0  0  0  0  0  0  0  0  0  0
  188.0910  172.7490  136.7270 C   0  0  0  0  0  2  0  0  0  0  0  0
  182.7760  178.0840  138.9020 C   0  0  0  0  0  2  0  0  0  0  0  0
  188.4200  174.2330  136.6260 C   0  0  2  0  0  3  0  0  0  0  0  0
  193.4410  176.3890  135.6430 C   0  0  0  0  0  2  0  0  0  0  0  0
  189.7710  176.3710  138.8460 C   0  0  0  0  0  0  0  0  0  0  0  0
  185.1200  176.5630  136.3670 C   0  0  0  0  0  2  0  0  0  0  0  0
  189.6990  172.1820  134.7840 C   0  0  0  0  0  2  0  0  0  0  0  0
  191.5190  176.5370  137.0350 C   0  0  2  0  0  3  0  0  0  0  0  0
  189.0200  177.4580  139.0010 C   0  0  0  0  0  3  0  0  0  0  0  0
  190.8600  173.8830  136.1240 C   0  0  0  0  0  0  0  0  0  0  0  0
  182.6210  177.8550  136.5720 O   0  0  0  0  0  0  0  0  0  0  0  0
  186.1770  178.4950  140.6600 C   0  0  2  0  0  3  0  0  0  0  0  0
  183.8030  178.0010  140.0240 C   0  0  0  0  0  2  0  0  0  0  0  0
  192.6750  176.2030  137.9580 C   0  0  0  0  0  2  0  0  0  0  0  0
  187.5180  179.0070  140.1550 C   0  0  0  0  0  2  0  0  0  0  0  0
  190.7990  172.4220  135.8090 C   0  0  0  0  0  2  0  0  0  0  0  0
  185.3370  178.9220  136.7280 O   0  0  0  0  0  1  0  0  0  0  0  0
  185.1670  178.4460  139.5150 C   0  0  2  0  0  3  0  0  0  0  0  0
  191.7770  174.6110  135.4730 C   0  0  0  0  0  3  0  0  0  0  0  0
  189.8700  174.4840  137.1130 C   0  0  1  0  0  3  0  0  0  0  0  0
  184.8760  177.7460  137.3270 C   0  0  1  0  0  0  0  0  0  0  0  0
  186.5720  176.1010  136.1680 C   0  0  1  0  0  3  0  0  0  0  0  0
  190.1510  175.9740  137.4470 C   0  0  1  0  0  3  0  0  0  0  0  0
  187.1680  177.8000  134.5940 O   0  0  0  0  0  0  0  0  0  0  0  0
  188.2740  176.9340  134.5940 C   0  0  0  0  0  2  0  0  0  0  0  0
  187.5280  177.2400  135.8340 C   0  0  2  0  0  3  0  0  0  0  0  0
  185.6630  178.9910  143.0910 C   0  0  0  0  0  3  0  0  0  0  0  0
  185.6970  179.3780  141.7160 N   0  0  0  0  0  2  0  0  0  0  0  0
  186.0280  177.8390  143.4480 O   0  0  0  0  0  0  0  0  0  0  0  0
  190.9090  176.1980  140.9430 O   0  0  0  0  0  1  0  0  0  0  0  0
  190.1840  175.6400  139.9650 O   0  0  0  0  0  0  0  0  0  0  0  0
  1 21  1  0  0  0  0
  2  9  1  0  0  0  0
  3 25  1  0  0  0  0
  4  8  1  0  0  0  0
  6 26  1  1  0  0  0
  6 15  1  0  0  0  0
  9 20  1  0  0  0  0
 10  8  1  1  0  0  0
 10 27  1  0  0  0  0
 10  7  1  0  0  0  0
 11  6  1  0  0  0  0
 11  1  1  0  0  0  0
 12 16  2  0  0  0  0
 12 38  1  0  0  0  0
 13 28  1  0  0  0  0
 14  4  1  0  0  0  0
 14 23  1  0  0  0  0
 15 30  1  0  0  0  0
 15 21  1  1  0  0  0
 16  5  1  0  0  0  0
 18  2  2  0  0  0  0
 19 35  1  1  0  0  0
 22  5  1  0  0  0  0
 22 19  1  0  0  0  0
 23 17  1  0  0  0  0
 25 20  1  1  0  0  0
 25 19  1  0  0  0  0
 26 17  2  0  0  0  0
 27 17  1  6  0  0  0
 27 30  1  0  0  0  0
 28 24  1  6  0  0  0
 28  2  1  0  0  0  0
 28  3  1  0  0  0  0
 29 13  1  1  0  0  0
 29  7  1  0  0  0  0
 30 12  1  1  0  0  0
 31 32  1  0  0  0  0
 31 33  1  0  0  0  0
 33 32  1  6  0  0  0
 33 29  1  0  0  0  0
 34 36  2  0  0  0  0
 35 34  1  0  0  0  0
 38 37  1  0  0  0  0
M  END
>  <MODEL>
4

>  <REMARK>
 VINA RESULT:      -3.3      4.922      9.003
  Name = 
  3 active torsions:
  status: ('A' for Active; 'I' for Inactive)
    1  A    between atoms: N_15  and  C_24
    2  A    between atoms: C_16  and  O_38
    3  A    between atoms: C_29  and  C_36
                            x       y       z     vdW  Elec       q    Type
                         _______ _______ _______ _____ _____    ______ ____

>  <TORSDO>
F 3

$$$$
=
 OpenBabel11062412573D

 38 43  0  0  1  0  0  0  0  0999 V2000
  189.8300  178.4130  135.8900 C   0  0  0  0  0  2  0  0  0  0  0  0
  179.7180  175.9990  138.2600 C   0  0  0  0  0  0  0  0  0  0  0  0
  181.9760  176.7730  138.8170 O   0  0  0  0  0  0  0  0  0  0  0  0
  186.3460  172.0340  136.3310 C   0  0  0  0  0  2  0  0  0  0  0  0
  184.7240  178.7300  139.8170 C   0  0  0  0  0  2  0  0  0  0  0  0
  187.9900  177.0880  134.9820 C   0  0  2  0  0  3  0  0  0  0  0  0
  184.2680  174.9620  138.0480 S   0  0  0  0  0  0  0  0  0  0  0  0
  185.9890  172.9700  137.4870 C   0  0  0  0  0  2  0  0  0  0  0  0
  179.2490  176.3370  139.6500 C   0  0  0  0  0  2  0  0  0  0  0  0
  185.6670  174.3860  137.0280 C   0  0  2  0  0  3  0  0  0  0  0  0
  189.2120  177.8990  134.5940 C   0  0  0  0  0  2  0  0  0  0  0  0
  186.2730  177.3780  138.4450 C   0  0  0  0  0  0  0  0  0  0  0  0
  181.6970  175.1750  137.0240 C   0  0  0  0  0  2  0  0  0  0  0  0
  187.4490  172.5420  135.3970 C   0  0  0  0  0  2  0  0  0  0  0  0
  187.5750  177.6910  136.3060 C   0  0  2  0  0  3  0  0  0  0  0  0
  185.1670  178.1110  138.5380 C   0  0  0  0  0  3  0  0  0  0  0  0
  187.9590  174.8420  136.0970 C   0  0  0  0  0  0  0  0  0  0  0  0
  178.9310  175.4580  137.4970 O   0  0  0  0  0  0  0  0  0  0  0  0
  182.3640  178.4250  140.5270 C   0  0  2  0  0  3  0  0  0  0  0  0
  180.3440  176.9400  140.5210 C   0  0  0  0  0  2  0  0  0  0  0  0
  188.8650  178.0650  137.0100 C   0  0  0  0  0  2  0  0  0  0  0  0
  183.3080  179.2420  139.6580 C   0  0  0  0  0  2  0  0  0  0  0  0
  188.4650  173.4340  136.0970 C   0  0  0  0  0  2  0  0  0  0  0  0
  180.9690  177.4520  136.8580 O   0  0  0  0  0  1  0  0  0  0  0  0
  181.3360  177.7050  139.6560 C   0  0  2  0  0  3  0  0  0  0  0  0
  188.4150  175.6560  135.1360 C   0  0  0  0  0  3  0  0  0  0  0  0
  186.9330  175.2740  137.1360 C   0  0  1  0  0  3  0  0  0  0  0  0
  181.1040  176.3930  137.7620 C   0  0  1  0  0  0  0  0  0  0  0  0
  183.1760  175.2460  136.6160 C   0  0  1  0  0  3  0  0  0  0  0  0
  186.6160  176.7930  137.1030 C   0  0  1  0  0  3  0  0  0  0  0  0
  182.8540  176.5500  134.6370 O   0  0  0  0  0  0  0  0  0  0  0  0
  184.2130  176.1990  134.5940 C   0  0  0  0  0  2  0  0  0  0  0  0
  183.5360  176.5250  135.8680 C   0  0  2  0  0  3  0  0  0  0  0  0
  182.0270  179.3700  142.8540 C   0  0  0  0  0  3  0  0  0  0  0  0
  181.6910  179.3150  141.4660 N   0  0  0  0  0  2  0  0  0  0  0  0
  182.9140  178.6170  143.3350 O   0  0  0  0  0  0  0  0  0  0  0  0
  188.1440  177.9460  139.8230 O   0  0  0  0  0  1  0  0  0  0  0  0
  187.0770  177.1760  139.5710 O   0  0  0  0  0  0  0  0  0  0  0  0
  1 21  1  0  0  0  0
  2  9  1  0  0  0  0
  3 25  1  0  0  0  0
  4  8  1  0  0  0  0
  6 11  1  1  0  0  0
  6 26  1  0  0  0  0
  6 15  1  0  0  0  0
  9 20  1  0  0  0  0
 10 27  1  0  0  0  0
 10  8  1  1  0  0  0
 10  7  1  0  0  0  0
 11  1  1  0  0  0  0
 12 16  2  0  0  0  0
 12 38  1  0  0  0  0
 13 28  1  0  0  0  0
 14 23  1  0  0  0  0
 14  4  1  0  0  0  0
 15 21  1  1  0  0  0
 15 30  1  0  0  0  0
 16  5  1  0  0  0  0
 17 23  1  0  0  0  0
 18  2  2  0  0  0  0
 19 35  1  1  0  0  0
 22  5  1  0  0  0  0
 22 19  1  0  0  0  0
 25 20  1  1  0  0  0
 25 19  1  0  0  0  0
 26 17  2  0  0  0  0
 27 17  1  6  0  0  0
 28 24  1  6  0  0  0
 28  2  1  0  0  0  0
 28  3  1  0  0  0  0
 29 13  1  1  0  0  0
 29  7  1  0  0  0  0
 30 27  1  0  0  0  0
 30 12  1  1  0  0  0
 31 33  1  0  0  0  0
 32 31  1  0  0  0  0
 33 32  1  6  0  0  0
 33 29  1  0  0  0  0
 34 36  2  0  0  0  0
 35 34  1  0  0  0  0
 38 37  1  0  0  0  0
M  END
>  <MODEL>
5

>  <REMARK>
 VINA RESULT:      -3.2      3.565      7.110
  Name = 
  3 active torsions:
  status: ('A' for Active; 'I' for Inactive)
    1  A    between atoms: N_15  and  C_24
    2  A    between atoms: C_16  and  O_38
    3  A    between atoms: C_29  and  C_36
                            x       y       z     vdW  Elec       q    Type
                         _______ _______ _______ _____ _____    ______ ____

>  <TORSDO>
F 3

$$$$
=
 OpenBabel11062412573D

 38 43  0  0  1  0  0  0  0  0999 V2000
  178.9310  178.6640  134.8020 C   0  0  0  0  0  2  0  0  0  0  0  0
  188.3210  173.8540  136.3460 C   0  0  0  0  0  0  0  0  0  0  0  0
  185.8730  173.9020  136.2430 O   0  0  0  0  0  0  0  0  0  0  0  0
  183.8460  179.2310  140.1460 C   0  0  0  0  0  2  0  0  0  0  0  0
  182.5190  173.3330  135.3430 C   0  0  0  0  0  2  0  0  0  0  0  0
  181.2430  179.2580  135.3180 C   0  0  2  0  0  3  0  0  0  0  0  0
  184.4770  176.0010  137.9080 S   0  0  0  0  0  0  0  0  0  0  0  0
  183.6050  177.7780  139.7320 C   0  0  0  0  0  2  0  0  0  0  0  0
  188.2920  172.3630  136.5480 C   0  0  0  0  0  2  0  0  0  0  0  0
  183.6180  177.5800  138.2220 C   0  0  2  0  0  3  0  0  0  0  0  0
  179.9870  179.7500  134.6250 C   0  0  0  0  0  2  0  0  0  0  0  0
  181.8360  175.5370  136.2280 C   0  0  0  0  0  0  0  0  0  0  0  0
  187.0550  175.9110  136.8840 C   0  0  0  0  0  2  0  0  0  0  0  0
  182.9290  180.2600  139.4760 C   0  0  0  0  0  2  0  0  0  0  0  0
  181.1070  177.7520  135.2650 C   0  0  2  0  0  3  0  0  0  0  0  0
  182.6220  174.8140  135.4350 C   0  0  0  0  0  3  0  0  0  0  0  0
  181.6190  179.0440  137.7890 C   0  0  0  0  0  0  0  0  0  0  0  0
  189.4010  174.4250  136.3890 O   0  0  0  0  0  0  0  0  0  0  0  0
  184.5960  171.9850  135.5370 C   0  0  2  0  0  3  0  0  0  0  0  0
  186.8830  171.7840  136.5440 C   0  0  0  0  0  2  0  0  0  0  0  0
  179.6270  177.4680  135.4270 C   0  0  0  0  0  2  0  0  0  0  0  0
  183.7210  172.7960  134.5940 C   0  0  0  0  0  2  0  0  0  0  0  0
  181.5540  179.7050  139.1300 C   0  0  0  0  0  2  0  0  0  0  0  0
  187.1210  175.0200  134.6610 O   0  0  0  0  0  1  0  0  0  0  0  0
  185.9770  172.6260  135.6560 C   0  0  2  0  0  3  0  0  0  0  0  0
  181.2190  179.7640  136.7330 C   0  0  0  0  0  3  0  0  0  0  0  0
  182.1700  177.6300  137.6720 C   0  0  1  0  0  3  0  0  0  0  0  0
  187.0610  174.6430  136.0060 C   0  0  1  0  0  0  0  0  0  0  0  0
  185.7780  176.7650  136.8850 C   0  0  1  0  0  3  0  0  0  0  0  0
  182.0380  177.0270  136.2480 C   0  0  1  0  0  3  0  0  0  0  0  0
  186.3200  177.7050  134.7530 O   0  0  0  0  0  0  0  0  0  0  0  0
  185.3370  178.5670  135.2640 C   0  0  0  0  0  2  0  0  0  0  0  0
  185.2780  177.1060  135.4860 C   0  0  2  0  0  3  0  0  0  0  0  0
  183.7160  169.6280  135.2380 C   0  0  0  0  0  3  0  0  0  0  0  0
  184.7170  170.6260  135.0240 N   0  0  0  0  0  2  0  0  0  0  0  0
  182.6850  169.8810  135.9150 O   0  0  0  0  0  0  0  0  0  0  0  0
  181.0060  174.7410  138.3250 O   0  0  0  0  0  1  0  0  0  0  0  0
  180.8570  174.9090  137.0050 O   0  0  0  0  0  0  0  0  0  0  0  0
  1 21  1  0  0  0  0
  2 18  2  0  0  0  0
  2  9  1  0  0  0  0
  5 16  1  0  0  0  0
  6 11  1  6  0  0  0
  6 26  1  0  0  0  0
  7 10  1  0  0  0  0
  8  4  1  0  0  0  0
 10  8  1  1  0  0  0
 11  1  1  0  0  0  0
 12 38  1  0  0  0  0
 14  4  1  0  0  0  0
 15  6  1  0  0  0  0
 15 21  1  1  0  0  0
 15 30  1  0  0  0  0
 16 12  2  0  0  0  0
 17 23  1  0  0  0  0
 19 35  1  6  0  0  0
 19 25  1  0  0  0  0
 20  9  1  0  0  0  0
 22  5  1  0  0  0  0
 22 19  1  0  0  0  0
 23 14  1  0  0  0  0
 25  3  1  0  0  0  0
 25 20  1  1  0  0  0
 26 17  2  0  0  0  0
 27 17  1  6  0  0  0
 27 10  1  0  0  0  0
 28 24  1  6  0  0  0
 28  3  1  0  0  0  0
 28  2  1  0  0  0  0
 28 13  1  0  0  0  0
 29 13  1  6  0  0  0
 29  7  1  0  0  0  0
 30 12  1  1  0  0  0
 30 27  1  0  0  0  0
 31 32  1  0  0  0  0
 31 33  1  0  0  0  0
 33 32  1  1  0  0  0
 33 29  1  0  0  0  0
 34 36  2  0  0  0  0
 35 34  1  0  0  0  0
 38 37  1  0  0  0  0
M  END
>  <MODEL>
6

>  <REMARK>
 VINA RESULT:      -2.6      2.183      5.584
  Name = 
  3 active torsions:
  status: ('A' for Active; 'I' for Inactive)
    1  A    between atoms: N_15  and  C_24
    2  A    between atoms: C_16  and  O_38
    3  A    between atoms: C_29  and  C_36
                            x       y       z     vdW  Elec       q    Type
                         _______ _______ _______ _____ _____    ______ ____

>  <TORSDO>
F 3

$$$$
=
 OpenBabel11062412573D

 38 43  0  0  1  0  0  0  0  0999 V2000
  178.9310  175.0530  141.0560 C   0  0  0  0  0  2  0  0  0  0  0  0
  188.3140  177.4960  136.6180 C   0  0  0  0  0  0  0  0  0  0  0  0
  186.5020  177.8230  138.2360 O   0  0  0  0  0  0  0  0  0  0  0  0
  180.6270  177.9720  134.6030 C   0  0  0  0  0  2  0  0  0  0  0  0
  184.6290  178.0700  141.2050 C   0  0  0  0  0  2  0  0  0  0  0  0
  180.1320  174.6810  138.9620 C   0  0  2  0  0  3  0  0  0  0  0  0
  183.7070  178.0880  137.1200 S   0  0  0  0  0  0  0  0  0  0  0  0
  181.4450  178.5760  135.7450 C   0  0  0  0  0  2  0  0  0  0  0  0
  189.1280  178.5620  137.3000 C   0  0  0  0  0  2  0  0  0  0  0  0
  182.0280  177.5250  136.6800 C   0  0  2  0  0  3  0  0  0  0  0  0
  179.1140  174.0690  139.9050 C   0  0  0  0  0  2  0  0  0  0  0  0
  182.5340  177.5380  140.0080 C   0  0  0  0  0  0  0  0  0  0  0  0
  185.9790  176.8900  136.0680 C   0  0  0  0  0  2  0  0  0  0  0  0
  179.5310  176.9920  135.0340 C   0  0  0  0  0  2  0  0  0  0  0  0
  180.9520  175.5780  139.8640 C   0  0  2  0  0  3  0  0  0  0  0  0
  183.7880  177.2230  140.3160 C   0  0  0  0  0  3  0  0  0  0  0  0
  179.7970  176.6570  137.4540 C   0  0  0  0  0  0  0  0  0  0  0  0
  188.7580  176.9900  135.5980 O   0  0  0  0  0  0  0  0  0  0  0  0
  186.9190  178.6680  140.4530 C   0  0  2  0  0  3  0  0  0  0  0  0
  188.4330  179.1620  138.5160 C   0  0  0  0  0  2  0  0  0  0  0  0
  179.9770  176.1400  140.8800 C   0  0  0  0  0  2  0  0  0  0  0  0
  186.0670  177.6010  141.1230 C   0  0  0  0  0  2  0  0  0  0  0  0
  178.9490  177.3060  136.4050 C   0  0  0  0  0  2  0  0  0  0  0  0
  187.2310  175.6970  137.7270 O   0  0  0  0  0  1  0  0  0  0  0  0
  187.5220  178.1250  139.1590 C   0  0  2  0  0  3  0  0  0  0  0  0
  179.3860  175.4730  137.9260 C   0  0  0  0  0  3  0  0  0  0  0  0
  181.0900  177.3270  137.8990 C   0  0  1  0  0  3  0  0  0  0  0  0
  187.0090  176.9780  137.2130 C   0  0  1  0  0  0  0  0  0  0  0  0
  184.5190  176.5990  136.4500 C   0  0  1  0  0  3  0  0  0  0  0  0
  181.7830  176.6130  139.0910 C   0  0  1  0  0  3  0  0  0  0  0  0
  184.7510  174.2310  136.6900 O   0  0  0  0  0  0  0  0  0  0  0  0
  183.3700  174.4520  136.8240 C   0  0  0  0  0  2  0  0  0  0  0  0
  184.3650  175.3980  137.3760 C   0  0  2  0  0  3  0  0  0  0  0  0
  189.0980  178.2390  141.6740 C   0  0  0  0  0  3  0  0  0  0  0  0
  187.9800  179.0740  141.3680 N   0  0  0  0  0  2  0  0  0  0  0  0
  189.1990  177.0860  141.1770 O   0  0  0  0  0  0  0  0  0  0  0  0
  182.1970  179.9060  140.0170 O   0  0  0  0  0  1  0  0  0  0  0  0
  181.9520  178.6960  140.5360 O   0  0  0  0  0  0  0  0  0  0  0  0
  2 28  1  0  0  0  0
  2  9  1  0  0  0  0
  3 25  1  0  0  0  0
  4 14  1  0  0  0  0
  4  8  1  0  0  0  0
  6 26  1  6  0  0  0
  6 15  1  0  0  0  0
  6 11  1  0  0  0  0
  9 20  1  0  0  0  0
 10  8  1  6  0  0  0
 10  7  1  0  0  0  0
 10 27  1  0  0  0  0
 11  1  1  0  0  0  0
 12 16  2  0  0  0  0
 12 38  1  0  0  0  0
 13 28  1  0  0  0  0
 14 23  1  0  0  0  0
 15 21  1  1  0  0  0
 16  5  1  0  0  0  0
 17 26  2  0  0  0  0
 18  2  2  0  0  0  0
 19 22  1  0  0  0  0
 19 35  1  1  0  0  0
 21  1  1  0  0  0  0
 22  5  1  0  0  0  0
 23 17  1  0  0  0  0
 25 20  1  6  0  0  0
 25 19  1  0  0  0  0
 27 17  1  6  0  0  0
 27 30  1  0  0  0  0
 28 24  1  1  0  0  0
 28  3  1  0  0  0  0
 29 13  1  1  0  0  0
 29  7  1  0  0  0  0
 29 33  1  0  0  0  0
 30 15  1  0  0  0  0
 30 12  1  1  0  0  0
 31 32  1  0  0  0  0
 31 33  1  0  0  0  0
 33 32  1  6  0  0  0
 35 34  1  0  0  0  0
 36 34  2  0  0  0  0
 37 38  1  0  0  0  0
M  END
>  <MODEL>
7

>  <REMARK>
 VINA RESULT:      -2.6      3.274      6.494
  Name = 
  3 active torsions:
  status: ('A' for Active; 'I' for Inactive)
    1  A    between atoms: N_15  and  C_24
    2  A    between atoms: C_16  and  O_38
    3  A    between atoms: C_29  and  C_36
                            x       y       z     vdW  Elec       q    Type
                         _______ _______ _______ _____ _____    ______ ____

>  <TORSDO>
F 3

$$$$
=
 OpenBabel11062412573D

 38 43  0  0  1  0  0  0  0  0999 V2000
  178.9310  179.2330  134.7290 C   0  0  0  0  0  2  0  0  0  0  0  0
  188.4340  177.5690  139.2690 C   0  0  0  0  0  0  0  0  0  0  0  0
  186.5990  176.9950  137.7470 O   0  0  0  0  0  0  0  0  0  0  0  0
  180.7940  177.2520  141.4840 C   0  0  0  0  0  2  0  0  0  0  0  0
  184.6790  176.3150  134.8780 C   0  0  0  0  0  2  0  0  0  0  0  0
  180.1610  179.9080  136.7270 C   0  0  2  0  0  3  0  0  0  0  0  0
  183.8300  176.8410  138.9440 S   0  0  0  0  0  0  0  0  0  0  0  0
  181.6030  176.5100  140.4190 C   0  0  0  0  0  2  0  0  0  0  0  0
  189.2550  176.4320  138.7220 C   0  0  0  0  0  2  0  0  0  0  0  0
  182.1490  177.4330  139.3370 C   0  0  2  0  0  3  0  0  0  0  0  0
  179.1160  180.3680  135.7300 C   0  0  0  0  0  2  0  0  0  0  0  0
  182.5960  176.9720  136.0330 C   0  0  0  0  0  0  0  0  0  0  0  0
  186.0980  178.2080  139.7780 C   0  0  0  0  0  2  0  0  0  0  0  0
  179.6720  178.1460  140.9450 C   0  0  0  0  0  2  0  0  0  0  0  0
  180.9810  178.9090  135.9400 C   0  0  2  0  0  3  0  0  0  0  0  0
  183.8390  177.2620  135.6600 C   0  0  0  0  0  3  0  0  0  0  0  0
  179.8890  178.1510  138.4980 C   0  0  0  0  0  0  0  0  0  0  0  0
  188.8870  178.2160  140.2010 O   0  0  0  0  0  0  0  0  0  0  0  0
  186.9930  175.8620  135.6580 C   0  0  2  0  0  3  0  0  0  0  0  0
  188.5490  175.6610  137.6140 C   0  0  0  0  0  2  0  0  0  0  0  0
  179.9990  178.1980  135.0300 C   0  0  0  0  0  2  0  0  0  0  0  0
  186.1100  176.8130  134.8660 C   0  0  0  0  0  2  0  0  0  0  0  0
  179.0720  177.6380  139.6410 C   0  0  0  0  0  2  0  0  0  0  0  0
  187.2980  179.1820  137.9460 O   0  0  0  0  0  1  0  0  0  0  0  0
  187.6080  176.5860  136.8540 C   0  0  2  0  0  3  0  0  0  0  0  0
  179.4480  179.2530  137.8760 C   0  0  0  0  0  3  0  0  0  0  0  0
  181.1860  177.4470  138.1220 C   0  0  1  0  0  3  0  0  0  0  0  0
  187.1090  177.9800  138.6350 C   0  0  1  0  0  0  0  0  0  0  0  0
  184.6270  178.4200  139.3890 C   0  0  1  0  0  3  0  0  0  0  0  0
  181.8440  178.0020  136.8300 C   0  0  1  0  0  3  0  0  0  0  0  0
  184.6470  180.7550  138.8700 O   0  0  0  0  0  0  0  0  0  0  0  0
  183.3100  180.3740  138.6690 C   0  0  0  0  0  2  0  0  0  0  0  0
  184.4340  179.4810  138.3110 C   0  0  2  0  0  3  0  0  0  0  0  0
  188.5420  174.0140  134.8780 C   0  0  0  0  0  3  0  0  0  0  0  0
  188.0440  175.3510  134.7860 N   0  0  0  0  0  2  0  0  0  0  0  0
  188.1030  173.2190  135.7500 O   0  0  0  0  0  0  0  0  0  0  0  0
  182.4910  174.5860  136.1660 O   0  0  0  0  0  1  0  0  0  0  0  0
  182.0260  175.7440  135.6800 O   0  0  0  0  0  0  0  0  0  0  0  0
  1 21  1  0  0  0  0
  1 11  1  0  0  0  0
  2 18  2  0  0  0  0
  3 28  1  0  0  0  0
  5 16  1  0  0  0  0
  6 11  1  6  0  0  0
  6 26  1  0  0  0  0
  7 10  1  0  0  0  0
  7 29  1  0  0  0  0
  8  4  1  0  0  0  0
  9  2  1  0  0  0  0
 10  8  1  1  0  0  0
 14  4  1  0  0  0  0
 15 21  1  1  0  0  0
 15  6  1  0  0  0  0
 15 30  1  0  0  0  0
 16 12  2  0  0  0  0
 17 23  1  0  0  0  0
 19 35  1  6  0  0  0
 19 25  1  0  0  0  0
 20  9  1  0  0  0  0
 22  5  1  0  0  0  0
 22 19  1  0  0  0  0
 23 14  1  0  0  0  0
 25 20  1  1  0  0  0
 25  3  1  0  0  0  0
 26 17  2  0  0  0  0
 27 17  1  1  0  0  0
 27 10  1  0  0  0  0
 28 24  1  6  0  0  0
 28  2  1  0  0  0  0
 28 13  1  0  0  0  0
 29 13  1  6  0  0  0
 30 12  1  6  0  0  0
 30 27  1  0  0  0  0
 32 31  1  0  0  0  0
 33 32  1  1  0  0  0
 33 31  1  0  0  0  0
 33 29  1  0  0  0  0
 34 36  2  0  0  0  0
 35 34  1  0  0  0  0
 38 12  1  0  0  0  0
 38 37  1  0  0  0  0
M  END
>  <MODEL>
8

>  <REMARK>
 VINA RESULT:      -2.5      3.319      6.228
  Name = 
  3 active torsions:
  status: ('A' for Active; 'I' for Inactive)
    1  A    between atoms: N_15  and  C_24
    2  A    between atoms: C_16  and  O_38
    3  A    between atoms: C_29  and  C_36
                            x       y       z     vdW  Elec       q    Type
                         _______ _______ _______ _____ _____    ______ ____

>  <TORSDO>
F 3

$$$$
