=
 OpenBabel11062413473D

 35 38  0  0  1  0  0  0  0  0999 V2000
  180.6370  176.3180  140.0410 C   0  0  1  0  0  3  0  0  0  0  0  0
  180.9510  178.8150  140.8210 C   0  0  2  0  0  3  0  0  0  0  0  0
  182.8630  177.4550  139.8280 C   0  0  0  0  0  0  0  0  0  0  0  0
  182.0250  176.4810  139.4680 C   0  0  0  0  0  3  0  0  0  0  0  0
  178.9340  177.6210  141.0480 O   0  0  0  0  0  0  0  0  0  0  0  0
  182.4490  178.4880  140.8560 C   0  0  2  0  0  3  0  0  0  0  0  0
  180.0870  177.5910  140.6470 C   0  0  0  0  0  0  0  0  0  0  0  0
  179.6350  182.0410  139.2650 C   0  0  0  0  0  3  0  0  0  0  0  0
  180.0050  181.9230  137.8060 C   0  0  2  0  0  3  0  0  0  0  0  0
  180.7210  180.6360  137.4840 C   0  0  0  0  0  0  0  0  0  0  0  0
  181.0130  179.6500  138.5330 C   0  0  0  0  0  3  0  0  0  0  0  0
  181.0550  180.3860  136.2950 O   0  0  0  0  0  0  0  0  0  0  0  0
  180.6450  179.8640  139.7960 C   0  0  0  0  0  0  0  0  0  0  0  0
  179.9280  181.1010  140.1680 C   0  0  0  0  0  3  0  0  0  0  0  0
  182.0730  183.0930  138.0710 O   0  0  0  0  0  1  0  0  0  0  0  0
  180.8550  183.1140  137.3910 C   0  0  0  0  0  2  0  0  0  0  0  0
  184.6710  178.6950  142.5990 S   0  0  0  0  0  0  0  0  0  0  0  0
  182.9100  179.0270  144.5370 C   0  0  0  0  0  2  0  0  0  0  0  0
  182.0630  178.8780  143.3280 C   0  0  0  0  0  2  0  0  0  0  0  0
  184.2060  178.9850  144.2940 C   0  0  1  0  0  3  0  0  0  0  0  0
  182.9380  178.2000  142.2840 C   0  0  1  0  0  3  0  0  0  0  0  0
  185.9760  179.0230  146.2540 C   0  0  0  0  0  3  0  0  0  0  0  0
  185.1710  179.0070  145.3570 C   0  0  0  0  0  0  0  0  0  0  0  0
  179.6650  175.6960  139.0280 C   0  0  0  0  0  3  0  0  0  0  0  0
  179.9400  176.1450  137.6020 C   0  0  0  0  0  1  0  0  0  0  0  0
  179.6850  174.1800  139.1080 C   0  0  0  0  0  1  0  0  0  0  0  0
  184.1560  177.4940  139.2150 N   0  0  0  0  0  2  0  0  0  0  0  0
  184.9340  178.6740  138.9810 C   0  0  0  0  0  0  0  0  0  0  0  0
  184.4260  179.8200  139.1140 O   0  0  0  0  0  0  0  0  0  0  0  0
  188.7670  177.0810  138.4680 O   0  0  0  0  0  0  0  0  0  0  0  0
  186.5500  177.4320  137.5480 C   0  0  0  0  0  2  0  0  0  0  0  0
  187.2420  178.3640  139.7710 C   0  0  0  0  0  3  0  0  0  0  0  0
  188.3820  177.6780  139.6780 C   0  0  0  0  0  3  0  0  0  0  0  0
  188.0390  177.2790  137.2550 C   0  0  0  0  0  2  0  0  0  0  0  0
  186.3620  178.5560  138.5670 C   0  0  2  0  0  3  0  0  0  0  0  0
  1 24  1  6  0  0  0
  1  7  1  0  0  0  0
  2 13  1  6  0  0  0
  2  6  1  0  0  0  0
  4  3  2  0  0  0  0
  4  1  1  0  0  0  0
  6  3  1  6  0  0  0
  6 21  1  0  0  0  0
  7  2  1  0  0  0  0
  7  5  2  0  0  0  0
  8 14  2  0  0  0  0
  9 16  1  1  0  0  0
  9  8  1  0  0  0  0
 10  9  1  0  0  0  0
 10 11  1  0  0  0  0
 11 13  2  0  0  0  0
 12 10  2  0  0  0  0
 13 14  1  0  0  0  0
 16 15  1  0  0  0  0
 17 20  1  0  0  0  0
 19 18  1  0  0  0  0
 20 18  1  0  0  0  0
 20 23  1  1  0  0  0
 21 17  1  0  0  0  0
 21 19  1  1  0  0  0
 23 22  3  0  0  0  0
 24 26  1  0  0  0  0
 25 24  1  0  0  0  0
 27  3  1  0  0  0  0
 28 29  2  0  0  0  0
 28 27  1  0  0  0  0
 30 33  1  0  0  0  0
 31 35  1  0  0  0  0
 33 32  2  0  0  0  0
 34 31  1  0  0  0  0
 34 30  1  0  0  0  0
 35 28  1  1  0  0  0
 35 32  1  0  0  0  0
M  END
>  <MODEL>
1

>  <REMARK>
 VINA RESULT:      -6.8      0.000      0.000
  Name = 
  7 active torsions:
  status: ('A' for Active; 'I' for Inactive)
    1  A    between atoms: C_1  and  C_6
    2  A    between atoms: C_3  and  C_27
    3  A    between atoms: N_10  and  C_16
    4  A    between atoms: C_11  and  C_35
    5  A    between atoms: C_13  and  C_18
    6  A    between atoms: C_22  and  C_29
    7  A    between atoms: C_28  and  C_33
                            x       y       z     vdW  Elec       q    Type
                         _______ _______ _______ _____ _____    ______ ____

>  <TORSDO>
F 7

$$$$
=
 OpenBabel11062413473D

 35 38  0  0  1  0  0  0  0  0999 V2000
  180.6480  180.0610  138.9210 C   0  0  1  0  0  3  0  0  0  0  0  0
  181.1620  178.2100  140.7240 C   0  0  2  0  0  3  0  0  0  0  0  0
  182.4030  178.3180  138.5020 C   0  0  0  0  0  0  0  0  0  0  0  0
  181.8710  179.5120  138.2270 C   0  0  0  0  0  3  0  0  0  0  0  0
  179.4840  179.8430  140.9730 O   0  0  0  0  0  0  0  0  0  0  0  0
  181.7930  177.4280  139.5640 C   0  0  2  0  0  3  0  0  0  0  0  0
  180.3800  179.4140  140.2630 C   0  0  0  0  0  0  0  0  0  0  0  0
  182.6710  179.3750  144.0300 C   0  0  0  0  0  3  0  0  0  0  0  0
  184.1600  179.3120  143.7970 C   0  0  2  0  0  3  0  0  0  0  0  0
  184.5180  178.8440  142.4090 C   0  0  0  0  0  0  0  0  0  0  0  0
  183.4740  178.4840  141.4400 C   0  0  0  0  0  3  0  0  0  0  0  0
  185.7280  178.7810  142.0620 O   0  0  0  0  0  0  0  0  0  0  0  0
  182.1840  178.5700  141.7580 C   0  0  0  0  0  0  0  0  0  0  0  0
  181.7740  179.0370  143.0990 C   0  0  0  0  0  3  0  0  0  0  0  0
  184.3640  178.7590  146.1130 O   0  0  0  0  0  1  0  0  0  0  0  0
  184.8090  178.4120  144.8370 C   0  0  0  0  0  2  0  0  0  0  0  0
  181.6690  175.0760  137.9940 S   0  0  0  0  0  0  0  0  0  0  0  0
  179.7240  174.3020  139.6010 C   0  0  0  0  0  2  0  0  0  0  0  0
  180.1120  175.6260  140.1480 C   0  0  0  0  0  2  0  0  0  0  0  0
  180.4410  173.9180  138.5630 C   0  0  1  0  0  3  0  0  0  0  0  0
  180.8480  176.3440  139.0250 C   0  0  1  0  0  3  0  0  0  0  0  0
  179.8710  171.7050  137.2380 C   0  0  0  0  0  3  0  0  0  0  0  0
  180.1350  172.7140  137.8430 C   0  0  0  0  0  0  0  0  0  0  0  0
  180.6790  181.5930  139.0160 C   0  0  0  0  0  3  0  0  0  0  0  0
  181.8610  182.2000  138.2780 C   0  0  0  0  0  1  0  0  0  0  0  0
  179.3830  182.2010  138.5110 C   0  0  0  0  0  1  0  0  0  0  0  0
  183.5600  177.9100  137.7650 N   0  0  0  0  0  2  0  0  0  0  0  0
  184.9040  178.3350  138.0200 C   0  0  0  0  0  0  0  0  0  0  0  0
  185.1420  179.2910  138.8050 O   0  0  0  0  0  0  0  0  0  0  0  0
  188.0430  175.6540  137.3440 O   0  0  0  0  0  0  0  0  0  0  0  0
  185.7000  176.1920  137.0260 C   0  0  0  0  0  2  0  0  0  0  0  0
  187.2870  177.7490  138.1860 C   0  0  0  0  0  3  0  0  0  0  0  0
  188.2190  176.7950  138.1400 C   0  0  0  0  0  3  0  0  0  0  0  0
  186.9360  175.5100  136.4520 C   0  0  0  0  0  2  0  0  0  0  0  0
  186.0440  177.6470  137.3460 C   0  0  2  0  0  3  0  0  0  0  0  0
  1 24  1  1  0  0  0
  1  7  1  0  0  0  0
  2 13  1  1  0  0  0
  4  3  2  0  0  0  0
  4  1  1  0  0  0  0
  6  3  1  6  0  0  0
  6  2  1  0  0  0  0
  7  2  1  0  0  0  0
  7  5  2  0  0  0  0
  9  8  1  0  0  0  0
  9 16  1  1  0  0  0
 10  9  1  0  0  0  0
 11 13  2  0  0  0  0
 11 10  1  0  0  0  0
 12 10  2  0  0  0  0
 13 14  1  0  0  0  0
 14  8  2  0  0  0  0
 16 15  1  0  0  0  0
 17 20  1  0  0  0  0
 17 21  1  0  0  0  0
 18 19  1  0  0  0  0
 20 23  1  6  0  0  0
 20 18  1  0  0  0  0
 21  6  1  0  0  0  0
 21 19  1  1  0  0  0
 22 23  3  0  0  0  0
 25 24  1  0  0  0  0
 26 24  1  0  0  0  0
 27 28  1  0  0  0  0
 27  3  1  0  0  0  0
 28 29  2  0  0  0  0
 30 33  1  0  0  0  0
 31 35  1  0  0  0  0
 33 32  2  0  0  0  0
 34 31  1  0  0  0  0
 34 30  1  0  0  0  0
 35 28  1  1  0  0  0
 35 32  1  0  0  0  0
M  END
>  <MODEL>
2

>  <REMARK>
 VINA RESULT:      -6.8      2.153      5.699
  Name = 
  7 active torsions:
  status: ('A' for Active; 'I' for Inactive)
    1  A    between atoms: C_1  and  C_6
    2  A    between atoms: C_3  and  C_27
    3  A    between atoms: N_10  and  C_16
    4  A    between atoms: C_11  and  C_35
    5  A    between atoms: C_13  and  C_18
    6  A    between atoms: C_22  and  C_29
    7  A    between atoms: C_28  and  C_33
                            x       y       z     vdW  Elec       q    Type
                         _______ _______ _______ _____ _____    ______ ____

>  <TORSDO>
F 7

$$$$
=
 OpenBabel11062413473D

 35 38  0  0  1  0  0  0  0  0999 V2000
  181.7360  180.0360  137.6130 C   0  0  1  0  0  3  0  0  0  0  0  0
  182.1150  177.4420  137.8700 C   0  0  2  0  0  3  0  0  0  0  0  0
  183.3330  179.1400  139.3270 C   0  0  0  0  0  0  0  0  0  0  0  0
  182.5600  180.1300  138.8740 C   0  0  0  0  0  3  0  0  0  0  0  0
  180.7050  178.3990  136.2450 O   0  0  0  0  0  0  0  0  0  0  0  0
  183.4200  177.8250  138.5790 C   0  0  2  0  0  3  0  0  0  0  0  0
  181.4510  178.6110  137.1890 C   0  0  0  0  0  0  0  0  0  0  0  0
  180.1070  174.6310  139.4940 C   0  0  0  0  0  3  0  0  0  0  0  0
  179.3260  175.3210  140.5850 C   0  0  2  0  0  3  0  0  0  0  0  0
  179.5880  176.8040  140.6480 C   0  0  0  0  0  0  0  0  0  0  0  0
  180.5340  177.4440  139.7240 C   0  0  0  0  0  3  0  0  0  0  0  0
  178.9730  177.5140  141.4880 O   0  0  0  0  0  0  0  0  0  0  0  0
  181.1780  176.7330  138.8000 C   0  0  0  0  0  0  0  0  0  0  0  0
  180.9490  175.2770  138.6820 C   0  0  0  0  0  3  0  0  0  0  0  0
  179.6510  173.2870  141.7990 O   0  0  0  0  0  1  0  0  0  0  0  0
  179.6350  174.6760  141.9280 C   0  0  0  0  0  2  0  0  0  0  0  0
  186.2220  178.1960  138.4080 S   0  0  0  0  0  0  0  0  0  0  0  0
  186.2280  176.1410  136.7530 C   0  0  0  0  0  2  0  0  0  0  0  0
  184.7960  176.2800  137.1190 C   0  0  0  0  0  2  0  0  0  0  0  0
  187.0220  177.0080  137.3500 C   0  0  1  0  0  3  0  0  0  0  0  0
  184.6350  177.6990  137.6470 C   0  0  1  0  0  3  0  0  0  0  0  0
  189.5960  177.1540  136.7750 C   0  0  0  0  0  3  0  0  0  0  0  0
  188.4200  177.0870  137.0340 C   0  0  0  0  0  0  0  0  0  0  0  0
  180.4550  180.8780  137.6980 C   0  0  0  0  0  3  0  0  0  0  0  0
  179.9770  181.0710  139.1280 C   0  0  0  0  0  1  0  0  0  0  0  0
  180.6390  182.2270  137.0260 C   0  0  0  0  0  1  0  0  0  0  0  0
  184.0730  179.3580  140.5320 N   0  0  0  0  0  2  0  0  0  0  0  0
  183.6310  179.0240  141.8540 C   0  0  0  0  0  0  0  0  0  0  0  0
  182.4350  178.6940  142.0720 O   0  0  0  0  0  0  0  0  0  0  0  0
  185.5500  178.0170  145.4320 O   0  0  0  0  0  0  0  0  0  0  0  0
  185.4870  177.8320  143.0150 C   0  0  0  0  0  2  0  0  0  0  0  0
  183.8540  179.2410  144.2930 C   0  0  0  0  0  3  0  0  0  0  0  0
  184.3510  178.7460  145.4280 C   0  0  0  0  0  3  0  0  0  0  0  0
  186.3600  177.8770  144.2640 C   0  0  0  0  0  2  0  0  0  0  0  0
  184.5920  179.0710  142.9950 C   0  0  2  0  0  3  0  0  0  0  0  0
  1 24  1  1  0  0  0
  1  4  1  0  0  0  0
  2  6  1  0  0  0  0
  2 13  1  1  0  0  0
  3 27  1  0  0  0  0
  4  3  2  0  0  0  0
  5  7  2  0  0  0  0
  6  3  1  6  0  0  0
  7  1  1  0  0  0  0
  7  2  1  0  0  0  0
  8  9  1  0  0  0  0
  9 10  1  0  0  0  0
  9 16  1  1  0  0  0
 10 12  2  0  0  0  0
 11 10  1  0  0  0  0
 13 11  2  0  0  0  0
 14 13  1  0  0  0  0
 14  8  2  0  0  0  0
 15 16  1  0  0  0  0
 18 19  1  0  0  0  0
 18 20  1  0  0  0  0
 20 23  1  6  0  0  0
 20 17  1  0  0  0  0
 21 19  1  1  0  0  0
 21 17  1  0  0  0  0
 21  6  1  0  0  0  0
 22 23  3  0  0  0  0
 24 25  1  0  0  0  0
 26 24  1  0  0  0  0
 27 28  1  0  0  0  0
 28 29  2  0  0  0  0
 31 34  1  0  0  0  0
 32 33  2  0  0  0  0
 33 30  1  0  0  0  0
 34 30  1  0  0  0  0
 35 28  1  6  0  0  0
 35 31  1  0  0  0  0
 35 32  1  0  0  0  0
M  END
>  <MODEL>
3

>  <REMARK>
 VINA RESULT:      -6.2      2.300      6.249
  Name = 
  7 active torsions:
  status: ('A' for Active; 'I' for Inactive)
    1  A    between atoms: C_1  and  C_6
    2  A    between atoms: C_3  and  C_27
    3  A    between atoms: N_10  and  C_16
    4  A    between atoms: C_11  and  C_35
    5  A    between atoms: C_13  and  C_18
    6  A    between atoms: C_22  and  C_29
    7  A    between atoms: C_28  and  C_33
                            x       y       z     vdW  Elec       q    Type
                         _______ _______ _______ _____ _____    ______ ____

>  <TORSDO>
F 7

$$$$
=
 OpenBabel11062413473D

 35 38  0  0  1  0  0  0  0  0999 V2000
  188.9060  177.9830  136.7250 C   0  0  1  0  0  3  0  0  0  0  0  0
  189.6870  175.5150  136.2410 C   0  0  2  0  0  3  0  0  0  0  0  0
  189.9030  176.5760  138.5470 C   0  0  0  0  0  0  0  0  0  0  0  0
  189.1660  177.6240  138.1680 C   0  0  0  0  0  3  0  0  0  0  0  0
  188.8150  176.9540  134.5930 O   0  0  0  0  0  0  0  0  0  0  0  0
  190.5290  175.6600  137.5150 C   0  0  2  0  0  3  0  0  0  0  0  0
  189.0980  176.8220  135.7740 C   0  0  0  0  0  0  0  0  0  0  0  0
  186.3770  173.8390  137.1310 C   0  0  0  0  0  3  0  0  0  0  0  0
  186.5790  172.3950  136.7420 C   0  0  2  0  0  3  0  0  0  0  0  0
  187.9500  172.1260  136.1740 C   0  0  0  0  0  0  0  0  0  0  0  0
  188.9320  173.2090  136.0260 C   0  0  0  0  0  3  0  0  0  0  0  0
  188.2720  170.9540  135.8430 O   0  0  0  0  0  0  0  0  0  0  0  0
  188.6400  174.4550  136.3960 C   0  0  0  0  0  0  0  0  0  0  0  0
  187.3170  174.7740  136.9720 C   0  0  0  0  0  3  0  0  0  0  0  0
  184.3700  171.5360  136.4280 O   0  0  0  0  0  1  0  0  0  0  0  0
  185.5080  171.9720  135.7480 C   0  0  0  0  0  2  0  0  0  0  0  0
  193.1910  174.8060  137.9580 S   0  0  0  0  0  0  0  0  0  0  0  0
  193.7090  175.7050  135.5320 C   0  0  0  0  0  2  0  0  0  0  0  0
  192.2620  175.9850  135.6970 C   0  0  0  0  0  2  0  0  0  0  0  0
  194.2620  175.1010  136.5650 C   0  0  1  0  0  3  0  0  0  0  0  0
  192.0000  175.9670  137.1970 C   0  0  1  0  0  3  0  0  0  0  0  0
  196.8600  174.6350  136.6620 C   0  0  0  0  0  3  0  0  0  0  0  0
  195.6740  174.8480  136.6210 C   0  0  0  0  0  0  0  0  0  0  0  0
  187.5410  178.6610  136.5380 C   0  0  0  0  0  3  0  0  0  0  0  0
  186.8760  178.2830  135.2240 C   0  0  0  0  0  1  0  0  0  0  0  0
  186.6110  178.3520  137.6980 C   0  0  0  0  0  1  0  0  0  0  0  0
  190.0820  176.3490  139.9480 N   0  0  0  0  0  2  0  0  0  0  0  0
  191.0590  176.9870  140.7790 C   0  0  0  0  0  0  0  0  0  0  0  0
  191.9970  177.6600  140.2740 O   0  0  0  0  0  0  0  0  0  0  0  0
  190.1850  177.8690  144.7730 O   0  0  0  0  0  0  0  0  0  0  0  0
  189.5280  176.7400  142.7290 C   0  0  0  0  0  2  0  0  0  0  0  0
  191.6890  177.9950  142.9310 C   0  0  0  0  0  3  0  0  0  0  0  0
  191.2960  178.4330  144.1290 C   0  0  0  0  0  3  0  0  0  0  0  0
  189.5020  176.7270  144.2540 C   0  0  0  0  0  2  0  0  0  0  0  0
  190.9790  176.8510  142.2630 C   0  0  2  0  0  3  0  0  0  0  0  0
  1 24  1  1  0  0  0
  1  4  1  0  0  0  0
  2 13  1  1  0  0  0
  2  6  1  0  0  0  0
  3 27  1  0  0  0  0
  4  3  2  0  0  0  0
  5  7  2  0  0  0  0
  6  3  1  1  0  0  0
  7  2  1  0  0  0  0
  7  1  1  0  0  0  0
  9 16  1  6  0  0  0
  9  8  1  0  0  0  0
 10  9  1  0  0  0  0
 11 10  1  0  0  0  0
 11 13  2  0  0  0  0
 12 10  2  0  0  0  0
 13 14  1  0  0  0  0
 14  8  2  0  0  0  0
 16 15  1  0  0  0  0
 18 19  1  0  0  0  0
 18 20  1  0  0  0  0
 20 23  1  1  0  0  0
 20 17  1  0  0  0  0
 21 19  1  6  0  0  0
 21  6  1  0  0  0  0
 21 17  1  0  0  0  0
 23 22  3  0  0  0  0
 24 26  1  0  0  0  0
 25 24  1  0  0  0  0
 27 28  1  0  0  0  0
 29 28  2  0  0  0  0
 31 34  1  0  0  0  0
 32 33  2  0  0  0  0
 33 30  1  0  0  0  0
 34 30  1  0  0  0  0
 35 28  1  6  0  0  0
 35 31  1  0  0  0  0
 35 32  1  0  0  0  0
M  END
>  <MODEL>
4

>  <REMARK>
 VINA RESULT:      -5.7      6.348     10.058
  Name = 
  7 active torsions:
  status: ('A' for Active; 'I' for Inactive)
    1  A    between atoms: C_1  and  C_6
    2  A    between atoms: C_3  and  C_27
    3  A    between atoms: N_10  and  C_16
    4  A    between atoms: C_11  and  C_35
    5  A    between atoms: C_13  and  C_18
    6  A    between atoms: C_22  and  C_29
    7  A    between atoms: C_28  and  C_33
                            x       y       z     vdW  Elec       q    Type
                         _______ _______ _______ _____ _____    ______ ____

>  <TORSDO>
F 7

$$$$
=
 OpenBabel11062413473D

 35 38  0  0  1  0  0  0  0  0999 V2000
  180.9200  178.7730  136.6340 C   0  0  1  0  0  3  0  0  0  0  0  0
  181.0860  177.1730  138.7200 C   0  0  2  0  0  3  0  0  0  0  0  0
  183.0790  177.6280  137.2000 C   0  0  0  0  0  0  0  0  0  0  0  0
  182.4200  178.6080  136.5760 C   0  0  0  0  0  3  0  0  0  0  0  0
  179.0960  178.2360  138.0460 O   0  0  0  0  0  0  0  0  0  0  0  0
  182.3340  176.6050  138.0320 C   0  0  2  0  0  3  0  0  0  0  0  0
  180.2880  178.0870  137.8250 C   0  0  0  0  0  0  0  0  0  0  0  0
  180.7620  179.3190  141.8590 C   0  0  0  0  0  3  0  0  0  0  0  0
  182.0890  179.1520  142.5570 C   0  0  2  0  0  3  0  0  0  0  0  0
  183.0370  178.2500  141.8090 C   0  0  0  0  0  0  0  0  0  0  0  0
  182.6380  177.6160  140.5450 C   0  0  0  0  0  3  0  0  0  0  0  0
  184.1980  178.0520  142.2570 O   0  0  0  0  0  0  0  0  0  0  0  0
  181.4310  177.8290  140.0220 C   0  0  0  0  0  0  0  0  0  0  0  0
  180.4660  178.7150  140.7040 C   0  0  0  0  0  3  0  0  0  0  0  0
  180.5030  178.5070  144.2250 O   0  0  0  0  0  1  0  0  0  0  0  0
  181.8680  178.6270  143.9680 C   0  0  0  0  0  2  0  0  0  0  0  0
  183.4820  174.1790  137.1300 S   0  0  0  0  0  0  0  0  0  0  0  0
  181.1290  173.0820  137.6010 C   0  0  0  0  0  2  0  0  0  0  0  0
  180.9300  174.4980  137.9960 C   0  0  0  0  0  2  0  0  0  0  0  0
  182.3510  172.8050  137.1910 C   0  0  1  0  0  3  0  0  0  0  0  0
  182.0360  175.2850  137.3060 C   0  0  1  0  0  3  0  0  0  0  0  0
  182.9820  170.4270  136.2300 C   0  0  0  0  0  3  0  0  0  0  0  0
  182.6950  171.5110  136.6720 C   0  0  0  0  0  0  0  0  0  0  0  0
  180.5000  180.2460  136.5280 C   0  0  0  0  0  3  0  0  0  0  0  0
  181.1480  181.1170  137.5910 C   0  0  0  0  0  1  0  0  0  0  0  0
  180.7970  180.8040  135.1470 C   0  0  0  0  0  1  0  0  0  0  0  0
  184.5020  177.5760  137.0580 N   0  0  0  0  0  2  0  0  0  0  0  0
  185.4500  178.2440  137.9010 C   0  0  0  0  0  0  0  0  0  0  0  0
  185.0760  179.1200  138.7260 O   0  0  0  0  0  0  0  0  0  0  0  0
  189.1450  177.1870  136.2510 O   0  0  0  0  0  0  0  0  0  0  0  0
  187.6530  178.9550  136.9790 C   0  0  0  0  0  2  0  0  0  0  0  0
  187.0820  176.5270  137.2400 C   0  0  0  0  0  3  0  0  0  0  0  0
  188.1680  176.2190  136.5290 C   0  0  0  0  0  3  0  0  0  0  0  0
  189.0990  178.5000  136.8110 C   0  0  0  0  0  2  0  0  0  0  0  0
  186.9010  177.9090  137.8020 C   0  0  2  0  0  3  0  0  0  0  0  0
  1 24  1  1  0  0  0
  1  7  1  0  0  0  0
  2 13  1  1  0  0  0
  4  1  1  0  0  0  0
  4  3  2  0  0  0  0
  6  3  1  6  0  0  0
  6  2  1  0  0  0  0
  7  5  2  0  0  0  0
  7  2  1  0  0  0  0
  8  9  1  0  0  0  0
  9 16  1  1  0  0  0
 10 12  2  0  0  0  0
 10  9  1  0  0  0  0
 11 10  1  0  0  0  0
 13 11  2  0  0  0  0
 13 14  1  0  0  0  0
 14  8  2  0  0  0  0
 16 15  1  0  0  0  0
 17 20  1  0  0  0  0
 17 21  1  0  0  0  0
 18 19  1  0  0  0  0
 20 23  1  6  0  0  0
 20 18  1  0  0  0  0
 21 19  1  1  0  0  0
 21  6  1  0  0  0  0
 22 23  3  0  0  0  0
 24 25  1  0  0  0  0
 26 24  1  0  0  0  0
 27  3  1  0  0  0  0
 27 28  1  0  0  0  0
 28 29  2  0  0  0  0
 30 33  1  0  0  0  0
 30 34  1  0  0  0  0
 31 35  1  0  0  0  0
 32 35  1  0  0  0  0
 33 32  2  0  0  0  0
 34 31  1  0  0  0  0
 35 28  1  6  0  0  0
M  END
>  <MODEL>
5

>  <REMARK>
 VINA RESULT:      -5.5      2.557      5.717
  Name = 
  7 active torsions:
  status: ('A' for Active; 'I' for Inactive)
    1  A    between atoms: C_1  and  C_6
    2  A    between atoms: C_3  and  C_27
    3  A    between atoms: N_10  and  C_16
    4  A    between atoms: C_11  and  C_35
    5  A    between atoms: C_13  and  C_18
    6  A    between atoms: C_22  and  C_29
    7  A    between atoms: C_28  and  C_33
                            x       y       z     vdW  Elec       q    Type
                         _______ _______ _______ _____ _____    ______ ____

>  <TORSDO>
F 7

$$$$
=
 OpenBabel11062413473D

 35 38  0  0  1  0  0  0  0  0999 V2000
  188.5920  177.7060  136.4360 C   0  0  1  0  0  3  0  0  0  0  0  0
  187.5540  178.2660  138.7910 C   0  0  2  0  0  3  0  0  0  0  0  0
  186.9380  176.1530  137.5070 C   0  0  0  0  0  0  0  0  0  0  0  0
  187.9140  176.3700  136.6220 C   0  0  0  0  0  3  0  0  0  0  0  0
  189.0500  179.6850  137.6550 O   0  0  0  0  0  0  0  0  0  0  0  0
  186.4510  177.2710  138.4070 C   0  0  2  0  0  3  0  0  0  0  0  0
  188.4560  178.6180  137.6360 C   0  0  0  0  0  0  0  0  0  0  0  0
  190.3770  176.7520  140.8650 C   0  0  0  0  0  3  0  0  0  0  0  0
  189.8650  176.8120  142.2830 C   0  0  2  0  0  3  0  0  0  0  0  0
  188.4840  177.4090  142.3840 C   0  0  0  0  0  0  0  0  0  0  0  0
  187.7760  177.8820  141.1870 C   0  0  0  0  0  3  0  0  0  0  0  0
  187.9160  177.4850  143.5060 O   0  0  0  0  0  0  0  0  0  0  0  0
  188.3310  177.7870  139.9790 C   0  0  0  0  0  0  0  0  0  0  0  0
  189.6760  177.1960  139.8190 C   0  0  0  0  0  3  0  0  0  0  0  0
  191.6810  176.7140  143.8350 O   0  0  0  0  0  1  0  0  0  0  0  0
  190.8390  177.5920  143.1520 C   0  0  0  0  0  2  0  0  0  0  0  0
  183.7220  176.8980  137.7560 S   0  0  0  0  0  0  0  0  0  0  0  0
  183.3510  179.3670  138.6090 C   0  0  0  0  0  2  0  0  0  0  0  0
  184.8040  179.1510  138.8130 C   0  0  0  0  0  2  0  0  0  0  0  0
  182.7130  178.3190  138.1250 C   0  0  1  0  0  3  0  0  0  0  0  0
  185.1850  177.9840  137.9110 C   0  0  1  0  0  3  0  0  0  0  0  0
  180.1600  178.4390  137.4590 C   0  0  0  0  0  3  0  0  0  0  0  0
  181.3240  178.3840  137.7670 C   0  0  0  0  0  0  0  0  0  0  0  0
  190.0540  177.5520  135.9930 C   0  0  0  0  0  3  0  0  0  0  0  0
  190.8730  176.7140  136.9600 C   0  0  0  0  0  1  0  0  0  0  0  0
  190.1450  176.9690  134.5940 C   0  0  0  0  0  1  0  0  0  0  0  0
  186.3710  174.8420  137.5790 N   0  0  0  0  0  2  0  0  0  0  0  0
  185.7410  174.1450  136.4960 C   0  0  0  0  0  0  0  0  0  0  0  0
  185.4490  174.7420  135.4260 O   0  0  0  0  0  0  0  0  0  0  0  0
  183.7990  170.4780  135.9730 O   0  0  0  0  0  0  0  0  0  0  0  0
  185.5940  171.9630  135.3010 C   0  0  0  0  0  2  0  0  0  0  0  0
  184.0290  172.5180  137.1790 C   0  0  0  0  0  3  0  0  0  0  0  0
  183.3030  171.4440  136.8600 C   0  0  0  0  0  3  0  0  0  0  0  0
  185.1350  170.5190  135.4700 C   0  0  0  0  0  2  0  0  0  0  0  0
  185.4170  172.6940  136.6310 C   0  0  2  0  0  3  0  0  0  0  0  0
  1 24  1  1  0  0  0
  1  4  1  0  0  0  0
  1  7  1  0  0  0  0
  2 13  1  1  0  0  0
  3 27  1  0  0  0  0
  4  3  2  0  0  0  0
  6  3  1  6  0  0  0
  6  2  1  0  0  0  0
  7  5  2  0  0  0  0
  7  2  1  0  0  0  0
  8  9  1  0  0  0  0
  9 10  1  0  0  0  0
  9 16  1  1  0  0  0
 10 12  2  0  0  0  0
 11 10  1  0  0  0  0
 13 11  2  0  0  0  0
 14 13  1  0  0  0  0
 14  8  2  0  0  0  0
 16 15  1  0  0  0  0
 17 21  1  0  0  0  0
 17 20  1  0  0  0  0
 18 19  1  0  0  0  0
 20 23  1  6  0  0  0
 20 18  1  0  0  0  0
 21  6  1  0  0  0  0
 21 19  1  1  0  0  0
 22 23  3  0  0  0  0
 24 25  1  0  0  0  0
 26 24  1  0  0  0  0
 28 27  1  0  0  0  0
 29 28  2  0  0  0  0
 30 33  1  0  0  0  0
 31 34  1  0  0  0  0
 31 35  1  0  0  0  0
 33 32  2  0  0  0  0
 34 30  1  0  0  0  0
 35 28  1  6  0  0  0
 35 32  1  0  0  0  0
M  END
>  <MODEL>
6

>  <REMARK>
 VINA RESULT:      -5.5      4.068      8.614
  Name = 
  7 active torsions:
  status: ('A' for Active; 'I' for Inactive)
    1  A    between atoms: C_1  and  C_6
    2  A    between atoms: C_3  and  C_27
    3  A    between atoms: N_10  and  C_16
    4  A    between atoms: C_11  and  C_35
    5  A    between atoms: C_13  and  C_18
    6  A    between atoms: C_22  and  C_29
    7  A    between atoms: C_28  and  C_33
                            x       y       z     vdW  Elec       q    Type
                         _______ _______ _______ _____ _____    ______ ____

>  <TORSDO>
F 7

$$$$
=
 OpenBabel11062413473D

 35 38  0  0  1  0  0  0  0  0999 V2000
  184.0000  177.5660  137.2280 C   0  0  1  0  0  3  0  0  0  0  0  0
  182.4870  176.7020  139.2040 C   0  0  2  0  0  3  0  0  0  0  0  0
  182.1130  178.9680  138.1020 C   0  0  0  0  0  0  0  0  0  0  0  0
  182.9790  178.6740  137.1290 C   0  0  0  0  0  3  0  0  0  0  0  0
  184.3340  175.5110  138.3580 O   0  0  0  0  0  0  0  0  0  0  0  0
  182.1030  178.1750  139.3920 C   0  0  2  0  0  3  0  0  0  0  0  0
  183.6450  176.5150  138.2560 C   0  0  0  0  0  0  0  0  0  0  0  0
  179.7130  175.1970  137.0580 C   0  0  0  0  0  3  0  0  0  0  0  0
  178.9650  174.2920  138.0060 C   0  0  2  0  0  3  0  0  0  0  0  0
  179.5370  174.3010  139.4020 C   0  0  0  0  0  0  0  0  0  0  0  0
  180.7140  175.1160  139.7300 C   0  0  0  0  0  3  0  0  0  0  0  0
  178.9870  173.6200  140.3080 O   0  0  0  0  0  0  0  0  0  0  0  0
  181.3020  175.8760  138.8070 C   0  0  0  0  0  0  0  0  0  0  0  0
  180.7760  175.9170  137.4260 C   0  0  0  0  0  3  0  0  0  0  0  0
  180.1760  172.5650  136.8810 O   0  0  0  0  0  1  0  0  0  0  0  0
  178.9440  172.8730  137.4580 C   0  0  0  0  0  2  0  0  0  0  0  0
  182.1240  178.5720  142.1950 S   0  0  0  0  0  0  0  0  0  0  0  0
  184.7570  178.5370  142.0140 C   0  0  0  0  0  2  0  0  0  0  0  0
  184.3160  178.3290  140.6130 C   0  0  0  0  0  2  0  0  0  0  0  0
  183.7670  178.6380  142.8800 C   0  0  1  0  0  3  0  0  0  0  0  0
  182.8780  178.8250  140.5480 C   0  0  1  0  0  3  0  0  0  0  0  0
  184.2130  179.2020  145.4210 C   0  0  0  0  0  3  0  0  0  0  0  0
  184.0070  178.9460  144.2620 C   0  0  0  0  0  0  0  0  0  0  0  0
  184.3140  176.9490  135.8580 C   0  0  0  0  0  3  0  0  0  0  0  0
  183.4090  177.4790  134.7570 C   0  0  0  0  0  1  0  0  0  0  0  0
  185.7700  177.1600  135.4810 C   0  0  0  0  0  1  0  0  0  0  0  0
  181.2000  180.0500  137.8870 N   0  0  0  0  0  2  0  0  0  0  0  0
  181.4960  181.4400  138.0690 C   0  0  0  0  0  0  0  0  0  0  0  0
  182.5530  181.8050  138.6510 O   0  0  0  0  0  0  0  0  0  0  0  0
  179.7710  184.3500  135.6100 O   0  0  0  0  0  0  0  0  0  0  0  0
  179.8550  182.0230  136.2870 C   0  0  0  0  0  2  0  0  0  0  0  0
  181.2490  183.7900  137.3900 C   0  0  0  0  0  3  0  0  0  0  0  0
  180.8400  184.6590  136.4640 C   0  0  0  0  0  3  0  0  0  0  0  0
  178.9890  183.1640  135.7650 C   0  0  0  0  0  2  0  0  0  0  0  0
  180.5440  182.4760  137.5740 C   0  0  2  0  0  3  0  0  0  0  0  0
  1 24  1  6  0  0  0
  1  7  1  0  0  0  0
  2 13  1  6  0  0  0
  2  6  1  0  0  0  0
  4  1  1  0  0  0  0
  4  3  2  0  0  0  0
  6  3  1  6  0  0  0
  6 21  1  0  0  0  0
  7  5  2  0  0  0  0
  7  2  1  0  0  0  0
  8 14  2  0  0  0  0
  8  9  1  0  0  0  0
  9 16  1  6  0  0  0
  9 10  1  0  0  0  0
 10 11  1  0  0  0  0
 10 12  2  0  0  0  0
 13 11  2  0  0  0  0
 14 13  1  0  0  0  0
 15 16  1  0  0  0  0
 17 20  1  0  0  0  0
 18 20  1  0  0  0  0
 19 18  1  0  0  0  0
 20 23  1  6  0  0  0
 21 19  1  1  0  0  0
 21 17  1  0  0  0  0
 23 22  3  0  0  0  0
 25 24  1  0  0  0  0
 26 24  1  0  0  0  0
 27 28  1  0  0  0  0
 27  3  1  0  0  0  0
 28 29  2  0  0  0  0
 30 34  1  0  0  0  0
 30 33  1  0  0  0  0
 31 35  1  0  0  0  0
 32 35  1  0  0  0  0
 33 32  2  0  0  0  0
 34 31  1  0  0  0  0
 35 28  1  6  0  0  0
M  END
>  <MODEL>
7

>  <REMARK>
 VINA RESULT:      -5.1      2.418      6.319
  Name = 
  7 active torsions:
  status: ('A' for Active; 'I' for Inactive)
    1  A    between atoms: C_1  and  C_6
    2  A    between atoms: C_3  and  C_27
    3  A    between atoms: N_10  and  C_16
    4  A    between atoms: C_11  and  C_35
    5  A    between atoms: C_13  and  C_18
    6  A    between atoms: C_22  and  C_29
    7  A    between atoms: C_28  and  C_33
                            x       y       z     vdW  Elec       q    Type
                         _______ _______ _______ _____ _____    ______ ____

>  <TORSDO>
F 7

$$$$
=
 OpenBabel11062413473D

 35 38  0  0  1  0  0  0  0  0999 V2000
  183.6800  178.1200  140.5080 C   0  0  1  0  0  3  0  0  0  0  0  0
  183.3350  178.8260  137.9940 C   0  0  2  0  0  3  0  0  0  0  0  0
  182.4880  176.6030  138.9050 C   0  0  0  0  0  0  0  0  0  0  0  0
  182.7550  176.9790  140.1580 C   0  0  0  0  0  3  0  0  0  0  0  0
  184.5090  180.1290  139.5660 O   0  0  0  0  0  0  0  0  0  0  0  0
  183.1100  177.3310  137.7320 C   0  0  2  0  0  3  0  0  0  0  0  0
  183.8700  179.1050  139.3760 C   0  0  0  0  0  0  0  0  0  0  0  0
  180.5560  181.4130  138.3740 C   0  0  0  0  0  3  0  0  0  0  0  0
  179.6720  181.1830  137.1730 C   0  0  2  0  0  3  0  0  0  0  0  0
  180.1620  180.0630  136.2890 C   0  0  0  0  0  0  0  0  0  0  0  0
  181.3910  179.3270  136.6140 C   0  0  0  0  0  3  0  0  0  0  0  0
  179.4990  179.7340  135.2700 O   0  0  0  0  0  0  0  0  0  0  0  0
  182.1010  179.6230  137.7020 C   0  0  0  0  0  0  0  0  0  0  0  0
  181.6610  180.7010  138.6110 C   0  0  0  0  0  3  0  0  0  0  0  0
  180.7920  182.8400  135.8640 O   0  0  0  0  0  1  0  0  0  0  0  0
  179.5460  182.4680  136.3690 C   0  0  0  0  0  2  0  0  0  0  0  0
  184.3290  174.8290  137.2120 S   0  0  0  0  0  0  0  0  0  0  0  0
  185.4210  175.9850  135.1060 C   0  0  0  0  0  2  0  0  0  0  0  0
  184.6120  177.0720  135.7090 C   0  0  0  0  0  2  0  0  0  0  0  0
  185.3340  174.8330  135.7410 C   0  0  1  0  0  3  0  0  0  0  0  0
  184.3630  176.6570  137.1530 C   0  0  1  0  0  3  0  0  0  0  0  0
  186.8060  172.7560  135.0370 C   0  0  0  0  0  3  0  0  0  0  0  0
  186.1310  173.7010  135.3590 C   0  0  0  0  0  0  0  0  0  0  0  0
  183.2670  178.8150  141.8130 C   0  0  0  0  0  3  0  0  0  0  0  0
  181.7950  178.6230  142.1380 C   0  0  0  0  0  1  0  0  0  0  0  0
  184.1210  178.3470  142.9790 C   0  0  0  0  0  1  0  0  0  0  0  0
  181.6000  175.4980  138.7070 N   0  0  0  0  0  2  0  0  0  0  0  0
  180.2690  175.5810  138.1830 C   0  0  0  0  0  0  0  0  0  0  0  0
  179.6940  176.6950  138.0500 O   0  0  0  0  0  0  0  0  0  0  0  0
  179.2820  172.0790  136.1190 O   0  0  0  0  0  0  0  0  0  0  0  0
  180.4140  173.0990  138.0060 C   0  0  0  0  0  2  0  0  0  0  0  0
  179.0610  174.4360  136.3720 C   0  0  0  0  0  3  0  0  0  0  0  0
  178.9310  173.3420  135.6200 C   0  0  0  0  0  3  0  0  0  0  0  0
  179.6690  171.8780  137.4800 C   0  0  0  0  0  2  0  0  0  0  0  0
  179.5430  174.3370  137.7930 C   0  0  2  0  0  3  0  0  0  0  0  0
  1 24  1  1  0  0  0
  2 13  1  1  0  0  0
  2  7  1  0  0  0  0
  3  4  2  0  0  0  0
  4  1  1  0  0  0  0
  6  2  1  0  0  0  0
  6  3  1  1  0  0  0
  7  5  2  0  0  0  0
  7  1  1  0  0  0  0
  8 14  2  0  0  0  0
  9 16  1  6  0  0  0
  9  8  1  0  0  0  0
 10 11  1  0  0  0  0
 10  9  1  0  0  0  0
 11 13  2  0  0  0  0
 12 10  2  0  0  0  0
 13 14  1  0  0  0  0
 15 16  1  0  0  0  0
 18 19  1  0  0  0  0
 18 20  1  0  0  0  0
 20 23  1  1  0  0  0
 20 17  1  0  0  0  0
 21 19  1  6  0  0  0
 21 17  1  0  0  0  0
 21  6  1  0  0  0  0
 22 23  3  0  0  0  0
 24 25  1  0  0  0  0
 24 26  1  0  0  0  0
 27  3  1  0  0  0  0
 28 27  1  0  0  0  0
 29 28  2  0  0  0  0
 30 34  1  0  0  0  0
 32 35  1  0  0  0  0
 33 30  1  0  0  0  0
 33 32  2  0  0  0  0
 34 31  1  0  0  0  0
 35 31  1  0  0  0  0
 35 28  1  6  0  0  0
M  END
>  <MODEL>
8

>  <REMARK>
 VINA RESULT:      -5.0      2.781      6.581
  Name = 
  7 active torsions:
  status: ('A' for Active; 'I' for Inactive)
    1  A    between atoms: C_1  and  C_6
    2  A    between atoms: C_3  and  C_27
    3  A    between atoms: N_10  and  C_16
    4  A    between atoms: C_11  and  C_35
    5  A    between atoms: C_13  and  C_18
    6  A    between atoms: C_22  and  C_29
    7  A    between atoms: C_28  and  C_33
                            x       y       z     vdW  Elec       q    Type
                         _______ _______ _______ _____ _____    ______ ____

>  <TORSDO>
F 7

$$$$
=
 OpenBabel11062413473D

 35 38  0  0  1  0  0  0  0  0999 V2000
  180.8180  179.3840  137.5580 C   0  0  1  0  0  3  0  0  0  0  0  0
  180.9950  177.5930  139.4810 C   0  0  2  0  0  3  0  0  0  0  0  0
  182.4100  177.4550  137.3680 C   0  0  0  0  0  0  0  0  0  0  0  0
  182.0280  178.6790  136.9940 C   0  0  0  0  0  3  0  0  0  0  0  0
  179.4810  179.3970  139.5130 O   0  0  0  0  0  0  0  0  0  0  0  0
  181.6290  176.6900  138.4160 C   0  0  2  0  0  3  0  0  0  0  0  0
  180.3810  178.8420  138.9010 C   0  0  0  0  0  0  0  0  0  0  0  0
  184.2540  177.7450  141.4610 C   0  0  0  0  0  3  0  0  0  0  0  0
  183.8810  178.4770  142.7270 C   0  0  2  0  0  3  0  0  0  0  0  0
  182.4250  178.8660  142.7740 C   0  0  0  0  0  0  0  0  0  0  0  0
  181.5220  178.5510  141.6580 C   0  0  0  0  0  3  0  0  0  0  0  0
  181.9650  179.4490  143.7920 O   0  0  0  0  0  0  0  0  0  0  0  0
  181.9650  177.9060  140.5790 C   0  0  0  0  0  0  0  0  0  0  0  0
  183.3790  177.4870  140.4850 C   0  0  0  0  0  3  0  0  0  0  0  0
  185.7500  179.7230  141.9090 O   0  0  0  0  0  1  0  0  0  0  0  0
  184.7590  179.7090  142.8900 C   0  0  0  0  0  2  0  0  0  0  0  0
  181.3730  174.1180  137.2600 S   0  0  0  0  0  0  0  0  0  0  0  0
  179.0300  173.9900  138.4670 C   0  0  0  0  0  2  0  0  0  0  0  0
  179.5480  175.3200  138.8700 C   0  0  0  0  0  2  0  0  0  0  0  0
  179.8550  173.3000  137.7030 C   0  0  1  0  0  3  0  0  0  0  0  0
  180.6220  175.6780  137.8510 C   0  0  1  0  0  3  0  0  0  0  0  0
  179.1600  170.9750  136.6590 C   0  0  0  0  0  3  0  0  0  0  0  0
  179.4740  172.0370  137.1340 C   0  0  0  0  0  0  0  0  0  0  0  0
  181.0010  180.9080  137.5840 C   0  0  0  0  0  3  0  0  0  0  0  0
  179.6920  181.6500  137.7990 C   0  0  0  0  0  1  0  0  0  0  0  0
  182.0120  181.3230  138.6380 C   0  0  0  0  0  1  0  0  0  0  0  0
  183.5720  176.8930  136.7500 N   0  0  0  0  0  2  0  0  0  0  0  0
  184.9300  177.1860  137.1040 C   0  0  0  0  0  0  0  0  0  0  0  0
  185.2050  178.1490  137.8690 O   0  0  0  0  0  0  0  0  0  0  0  0
  188.5970  176.1480  135.3820 O   0  0  0  0  0  0  0  0  0  0  0  0
  187.3040  176.4930  137.4040 C   0  0  0  0  0  2  0  0  0  0  0  0
  186.2960  176.6990  135.1180 C   0  0  0  0  0  3  0  0  0  0  0  0
  187.5160  176.5690  134.5940 C   0  0  0  0  0  3  0  0  0  0  0  0
  188.4330  175.7170  136.7340 C   0  0  0  0  0  2  0  0  0  0  0  0
  186.0390  176.3520  136.5570 C   0  0  2  0  0  3  0  0  0  0  0  0
  1 24  1  1  0  0  0
  1  7  1  0  0  0  0
  2 13  1  1  0  0  0
  4  3  2  0  0  0  0
  4  1  1  0  0  0  0
  6  3  1  6  0  0  0
  6  2  1  0  0  0  0
  7  2  1  0  0  0  0
  7  5  2  0  0  0  0
  8  9  1  0  0  0  0
  9 10  1  0  0  0  0
  9 16  1  6  0  0  0
 10 12  2  0  0  0  0
 11 10  1  0  0  0  0
 13 11  2  0  0  0  0
 14 13  1  0  0  0  0
 14  8  2  0  0  0  0
 15 16  1  0  0  0  0
 17 20  1  0  0  0  0
 17 21  1  0  0  0  0
 18 19  1  0  0  0  0
 20 23  1  6  0  0  0
 20 18  1  0  0  0  0
 21  6  1  0  0  0  0
 21 19  1  1  0  0  0
 22 23  3  0  0  0  0
 24 25  1  0  0  0  0
 24 26  1  0  0  0  0
 27 28  1  0  0  0  0
 27  3  1  0  0  0  0
 28 29  2  0  0  0  0
 30 34  1  0  0  0  0
 32 35  1  0  0  0  0
 33 32  2  0  0  0  0
 33 30  1  0  0  0  0
 34 31  1  0  0  0  0
 35 28  1  1  0  0  0
 35 31  1  0  0  0  0
M  END
>  <MODEL>
9

>  <REMARK>
 VINA RESULT:      -4.9      2.441      5.977
  Name = 
  7 active torsions:
  status: ('A' for Active; 'I' for Inactive)
    1  A    between atoms: C_1  and  C_6
    2  A    between atoms: C_3  and  C_27
    3  A    between atoms: N_10  and  C_16
    4  A    between atoms: C_11  and  C_35
    5  A    between atoms: C_13  and  C_18
    6  A    between atoms: C_22  and  C_29
    7  A    between atoms: C_28  and  C_33
                            x       y       z     vdW  Elec       q    Type
                         _______ _______ _______ _____ _____    ______ ____

>  <TORSDO>
F 7

$$$$
