=
 OpenBabel11062412323D

 33 37  0  0  1  0  0  0  0  0999 V2000
  186.8510  177.7420  138.0270 C   0  0  0  0  0  0  0  0  0  0  0  0
  186.8690  178.2990  139.2640 N   0  0  0  0  0  0  0  0  0  0  0  0
  187.9430  178.8920  141.3170 N   0  0  0  0  0  1  0  0  0  0  0  0
  189.1170  177.1050  138.2570 C   0  0  0  0  0  0  0  0  0  0  0  0
  185.6620  177.7780  137.2490 N   0  0  0  0  0  1  0  0  0  0  0  0
  187.9680  177.1540  137.5330 N   0  0  0  0  0  0  0  0  0  0  0  0
  189.1690  177.6800  139.5360 C   0  0  0  0  0  0  0  0  0  0  0  0
  187.9900  178.2860  140.0300 C   0  0  0  0  0  0  0  0  0  0  0  0
  190.8730  174.7480  135.8240 C   0  0  1  0  0  3  0  0  0  0  0  0
  190.2240  176.4380  135.8540 S   0  0  0  0  0  0  0  0  0  0  0  0
  190.3360  176.4650  137.6700 C   0  0  2  0  0  3  0  0  0  0  0  0
  191.3440  174.4170  137.2240 C   0  0  0  0  0  2  0  0  0  0  0  0
  190.4900  175.1090  138.1730 N   0  0  0  0  0  2  0  0  0  0  0  0
  189.8080  173.7960  135.3850 C   0  0  0  0  0  0  0  0  0  0  0  0
  190.0830  172.2210  134.8800 S   0  0  0  0  0  0  0  0  0  0  0  0
  188.4410  171.9580  134.5960 C   0  0  0  0  0  3  0  0  0  0  0  0
  187.7430  173.0790  134.8950 N   0  0  0  0  0  0  0  0  0  0  0  0
  188.4920  174.0920  135.3280 N   0  0  0  0  0  0  0  0  0  0  0  0
  190.3830  177.6230  140.2420 O   0  0  0  0  0  0  0  0  0  0  0  0
  190.8390  176.5140  141.0030 C   0  0  0  0  0  2  0  0  0  0  0  0
  190.8900  178.4080  142.7580 C   0  0  0  0  0  2  0  0  0  0  0  0
  191.0580  176.9420  142.4130 C   0  0  0  0  0  0  0  0  0  0  0  0
  190.8730  179.9670  144.5930 F   0  0  0  0  0  0  0  0  0  0  0  0
  191.2840  178.7050  144.2030 C   0  0  1  0  0  3  0  0  0  0  0  0
  191.1930  175.9930  143.3600 C   0  0  0  0  0  3  0  0  0  0  0  0
  191.3560  176.3400  144.8170 C   0  0  0  0  0  2  0  0  0  0  0  0
  190.7660  177.6490  145.0760 N   0  0  0  0  0  0  0  0  0  0  0  0
  188.2090  178.0060  147.8140 C   0  0  0  0  0  3  0  0  0  0  0  0
  187.0680  177.7280  145.7000 C   0  0  0  0  0  3  0  0  0  0  0  0
  189.4410  177.9160  147.1580 C   0  0  0  0  0  3  0  0  0  0  0  0
  188.3000  177.6380  145.0450 C   0  0  0  0  0  3  0  0  0  0  0  0
  187.0230  177.9110  147.0840 C   0  0  0  0  0  3  0  0  0  0  0  0
  189.5010  177.7280  145.7670 C   0  0  0  0  0  0  0  0  0  0  0  0
  1  2  2  0  0  0  0
  2  8  1  0  0  0  0
  4  7  1  0  0  0  0
  5  1  1  0  0  0  0
  6  1  1  0  0  0  0
  6  4  2  0  0  0  0
  7  8  2  0  0  0  0
  7 19  1  0  0  0  0
  8  3  1  0  0  0  0
  9 14  1  1  0  0  0
  9 10  1  0  0  0  0
  9 12  1  0  0  0  0
 10 11  1  0  0  0  0
 11 13  1  0  0  0  0
 11  4  1  1  0  0  0
 12 13  1  0  0  0  0
 15 14  1  0  0  0  0
 16 15  1  0  0  0  0
 16 17  2  0  0  0  0
 17 18  1  0  0  0  0
 18 14  2  0  0  0  0
 19 20  1  0  0  0  0
 20 22  1  0  0  0  0
 21 24  1  0  0  0  0
 22 21  1  0  0  0  0
 22 25  2  0  0  0  0
 24 23  1  1  0  0  0
 24 27  1  0  0  0  0
 25 26  1  0  0  0  0
 26 27  1  0  0  0  0
 27 33  1  0  0  0  0
 29 32  1  0  0  0  0
 30 28  1  0  0  0  0
 31 29  2  0  0  0  0
 31 33  1  0  0  0  0
 32 28  2  0  0  0  0
 33 30  2  0  0  0  0
M  END
>  <MODEL>
1

>  <REMARK>
 VINA RESULT:      -8.4      0.000      0.000
  Name = 
  6 active torsions:
  status: ('A' for Active; 'I' for Inactive)
    1  A    between atoms: C_2  and  C_8
    2  A    between atoms: C_4  and  C_29
    3  A    between atoms: O_16  and  C_29
    4  A    between atoms: O_16  and  C_30
    5  A    between atoms: C_18  and  C_24
    6  A    between atoms: N_23  and  C_32
                            x       y       z     vdW  Elec       q    Type
                         _______ _______ _______ _____ _____    ______ ____

>  <TORSDO>
F 6

$$$$
=
 OpenBabel11062412323D

 33 37  0  0  1  0  0  0  0  0999 V2000
  186.1050  178.1840  143.5450 C   0  0  0  0  0  0  0  0  0  0  0  0
  185.4610  178.6430  142.4430 N   0  0  0  0  0  0  0  0  0  0  0  0
  185.3680  179.2620  140.1340 N   0  0  0  0  0  1  0  0  0  0  0  0
  188.1120  177.9730  142.3130 C   0  0  0  0  0  0  0  0  0  0  0  0
  185.4020  178.0490  144.7730 N   0  0  0  0  0  1  0  0  0  0  0  0
  187.4170  177.8510  143.4740 N   0  0  0  0  0  0  0  0  0  0  0  0
  187.4710  178.4370  141.1530 C   0  0  0  0  0  0  0  0  0  0  0  0
  186.1030  178.7790  141.2540 C   0  0  0  0  0  0  0  0  0  0  0  0
  191.3060  176.6110  143.8930 C   0  0  1  0  0  3  0  0  0  0  0  0
  189.8000  175.9830  143.1090 S   0  0  0  0  0  0  0  0  0  0  0  0
  189.5540  177.5780  142.2680 C   0  0  2  0  0  3  0  0  0  0  0  0
  191.6280  177.9460  143.2550 C   0  0  0  0  0  2  0  0  0  0  0  0
  190.3810  178.5970  142.8960 N   0  0  0  0  0  2  0  0  0  0  0  0
  191.0960  176.7640  145.3650 C   0  0  0  0  0  0  0  0  0  0  0  0
  189.6460  177.2010  146.0830 S   0  0  0  0  0  0  0  0  0  0  0  0
  190.3180  177.1360  147.6290 C   0  0  0  0  0  3  0  0  0  0  0  0
  191.6230  176.7850  147.5420 N   0  0  0  0  0  0  0  0  0  0  0  0
  192.0550  176.5810  146.2980 N   0  0  0  0  0  0  0  0  0  0  0  0
  188.2240  178.5290  139.9700 O   0  0  0  0  0  0  0  0  0  0  0  0
  188.8080  177.4340  139.2800 C   0  0  0  0  0  2  0  0  0  0  0  0
  187.6940  175.9370  137.4950 C   0  0  0  0  0  2  0  0  0  0  0  0
  188.1770  177.3030  137.9380 C   0  0  0  0  0  0  0  0  0  0  0  0
  186.5160  174.7830  135.7410 F   0  0  0  0  0  0  0  0  0  0  0  0
  187.2040  175.9430  136.0490 C   0  0  1  0  0  3  0  0  0  0  0  0
  187.8740  178.4260  137.2570 C   0  0  0  0  0  3  0  0  0  0  0  0
  187.1790  178.3840  135.9210 C   0  0  0  0  0  2  0  0  0  0  0  0
  186.4080  177.1500  135.8100 N   0  0  0  0  0  0  0  0  0  0  0  0
  182.9610  177.4010  137.2980 C   0  0  0  0  0  3  0  0  0  0  0  0
  182.7710  177.2070  134.8940 C   0  0  0  0  0  3  0  0  0  0  0  0
  184.3530  177.3360  137.1910 C   0  0  0  0  0  3  0  0  0  0  0  0
  184.1640  177.1420  134.7890 C   0  0  0  0  0  3  0  0  0  0  0  0
  182.1700  177.3350  136.1480 C   0  0  0  0  0  3  0  0  0  0  0  0
  184.9710  177.2020  135.9360 C   0  0  0  0  0  0  0  0  0  0  0  0
  1  5  1  0  0  0  0
  2  1  2  0  0  0  0
  3  8  1  0  0  0  0
  4  6  2  0  0  0  0
  6  1  1  0  0  0  0
  7  8  2  0  0  0  0
  7  4  1  0  0  0  0
  8  2  1  0  0  0  0
  9 14  1  1  0  0  0
 10  9  1  0  0  0  0
 11  4  1  1  0  0  0
 11 13  1  0  0  0  0
 11 10  1  0  0  0  0
 12  9  1  0  0  0  0
 13 12  1  0  0  0  0
 14 15  1  0  0  0  0
 14 18  2  0  0  0  0
 15 16  1  0  0  0  0
 17 16  2  0  0  0  0
 18 17  1  0  0  0  0
 19  7  1  0  0  0  0
 20 19  1  0  0  0  0
 21 22  1  0  0  0  0
 22 20  1  0  0  0  0
 24 23  1  1  0  0  0
 24 21  1  0  0  0  0
 25 22  2  0  0  0  0
 26 25  1  0  0  0  0
 27 26  1  0  0  0  0
 27 33  1  0  0  0  0
 27 24  1  0  0  0  0
 29 32  1  0  0  0  0
 30 28  1  0  0  0  0
 31 29  2  0  0  0  0
 31 33  1  0  0  0  0
 32 28  2  0  0  0  0
 33 30  2  0  0  0  0
M  END
>  <MODEL>
2

>  <REMARK>
 VINA RESULT:      -8.1      3.858      8.764
  Name = 
  6 active torsions:
  status: ('A' for Active; 'I' for Inactive)
    1  A    between atoms: C_2  and  C_8
    2  A    between atoms: C_4  and  C_29
    3  A    between atoms: O_16  and  C_29
    4  A    between atoms: O_16  and  C_30
    5  A    between atoms: C_18  and  C_24
    6  A    between atoms: N_23  and  C_32
                            x       y       z     vdW  Elec       q    Type
                         _______ _______ _______ _____ _____    ______ ____

>  <TORSDO>
F 6

$$$$
=
 OpenBabel11062412323D

 33 37  0  0  1  0  0  0  0  0999 V2000
  185.9370  178.2740  143.7190 C   0  0  0  0  0  0  0  0  0  0  0  0
  185.2640  178.7970  142.6640 N   0  0  0  0  0  0  0  0  0  0  0  0
  185.0870  179.4940  140.3830 N   0  0  0  0  0  1  0  0  0  0  0  0
  187.8690  178.0080  142.3800 C   0  0  0  0  0  0  0  0  0  0  0  0
  185.2900  178.1320  144.9770 N   0  0  0  0  0  1  0  0  0  0  0  0
  187.2270  177.8820  143.5710 N   0  0  0  0  0  0  0  0  0  0  0  0
  187.1960  178.5380  141.2690 C   0  0  0  0  0  0  0  0  0  0  0  0
  185.8520  178.9410  141.4490 C   0  0  0  0  0  0  0  0  0  0  0  0
  191.0990  176.5380  143.7810 C   0  0  1  0  0  3  0  0  0  0  0  0
  189.5180  175.9620  143.1140 S   0  0  0  0  0  0  0  0  0  0  0  0
  189.2860  177.5470  142.2510 C   0  0  2  0  0  3  0  0  0  0  0  0
  191.4350  177.8430  143.0900 C   0  0  0  0  0  2  0  0  0  0  0  0
  190.1970  178.5420  142.7980 N   0  0  0  0  0  2  0  0  0  0  0  0
  190.9940  176.7330  145.2590 C   0  0  0  0  0  0  0  0  0  0  0  0
  189.6070  177.2210  146.0640 S   0  0  0  0  0  0  0  0  0  0  0  0
  190.3830  177.1790  147.5610 C   0  0  0  0  0  3  0  0  0  0  0  0
  191.6710  176.7960  147.3940 N   0  0  0  0  0  0  0  0  0  0  0  0
  192.0120  176.5510  146.1290 N   0  0  0  0  0  0  0  0  0  0  0  0
  187.8930  178.6330  140.0530 O   0  0  0  0  0  0  0  0  0  0  0  0
  187.4230  178.1630  138.7980 C   0  0  0  0  0  2  0  0  0  0  0  0
  189.6830  176.9230  138.6470 C   0  0  0  0  0  2  0  0  0  0  0  0
  188.5810  177.7160  137.9750 C   0  0  0  0  0  0  0  0  0  0  0  0
  191.7240  175.7180  138.2260 F   0  0  0  0  0  0  0  0  0  0  0  0
  190.8580  176.6630  137.7080 C   0  0  1  0  0  3  0  0  0  0  0  0
  188.5100  177.8520  136.6360 C   0  0  0  0  0  3  0  0  0  0  0  0
  189.6110  177.3690  135.7270 C   0  0  0  0  0  2  0  0  0  0  0  0
  190.3500  176.2960  136.3840 N   0  0  0  0  0  0  0  0  0  0  0  0
  190.7910  173.0160  134.5940 C   0  0  0  0  0  3  0  0  0  0  0  0
  188.9110  172.8430  136.1060 C   0  0  0  0  0  3  0  0  0  0  0  0
  190.9880  174.3410  134.9930 C   0  0  0  0  0  3  0  0  0  0  0  0
  189.1090  174.1680  136.5040 C   0  0  0  0  0  3  0  0  0  0  0  0
  189.7510  172.2670  135.1500 C   0  0  0  0  0  3  0  0  0  0  0  0
  190.1480  174.9340  135.9510 C   0  0  0  0  0  0  0  0  0  0  0  0
  1  5  1  0  0  0  0
  2  1  2  0  0  0  0
  3  8  1  0  0  0  0
  4  6  2  0  0  0  0
  6  1  1  0  0  0  0
  7  8  2  0  0  0  0
  7  4  1  0  0  0  0
  8  2  1  0  0  0  0
  9 14  1  1  0  0  0
 10  9  1  0  0  0  0
 11  4  1  1  0  0  0
 11 13  1  0  0  0  0
 11 10  1  0  0  0  0
 12  9  1  0  0  0  0
 13 12  1  0  0  0  0
 14 15  1  0  0  0  0
 14 18  2  0  0  0  0
 15 16  1  0  0  0  0
 17 16  2  0  0  0  0
 18 17  1  0  0  0  0
 19  7  1  0  0  0  0
 20 19  1  0  0  0  0
 22 21  1  0  0  0  0
 22 20  1  0  0  0  0
 24 23  1  1  0  0  0
 24 21  1  0  0  0  0
 25 22  2  0  0  0  0
 26 27  1  0  0  0  0
 26 25  1  0  0  0  0
 27 24  1  0  0  0  0
 28 30  2  0  0  0  0
 28 32  1  0  0  0  0
 29 31  1  0  0  0  0
 30 33  1  0  0  0  0
 32 29  2  0  0  0  0
 33 27  1  0  0  0  0
 33 31  2  0  0  0  0
M  END
>  <MODEL>
3

>  <REMARK>
 VINA RESULT:      -8.1      3.200      8.615
  Name = 
  6 active torsions:
  status: ('A' for Active; 'I' for Inactive)
    1  A    between atoms: C_2  and  C_8
    2  A    between atoms: C_4  and  C_29
    3  A    between atoms: O_16  and  C_29
    4  A    between atoms: O_16  and  C_30
    5  A    between atoms: C_18  and  C_24
    6  A    between atoms: N_23  and  C_32
                            x       y       z     vdW  Elec       q    Type
                         _______ _______ _______ _____ _____    ______ ____

>  <TORSDO>
F 6

$$$$
=
 OpenBabel11062412323D

 33 37  0  0  1  0  0  0  0  0999 V2000
  185.9310  178.2800  143.6120 C   0  0  0  0  0  0  0  0  0  0  0  0
  185.2730  178.7660  142.5300 N   0  0  0  0  0  0  0  0  0  0  0  0
  185.1390  179.4080  140.2300 N   0  0  0  0  0  1  0  0  0  0  0  0
  187.9020  178.0320  142.3290 C   0  0  0  0  0  0  0  0  0  0  0  0
  185.2540  178.1510  144.8560 N   0  0  0  0  0  1  0  0  0  0  0  0
  187.2320  177.9160  143.5060 N   0  0  0  0  0  0  0  0  0  0  0  0
  187.2450  178.5220  141.1900 C   0  0  0  0  0  0  0  0  0  0  0  0
  185.8880  178.8970  141.3270 C   0  0  0  0  0  0  0  0  0  0  0  0
  191.1100  176.6130  143.8300 C   0  0  1  0  0  3  0  0  0  0  0  0
  189.5660  176.0110  143.1010 S   0  0  0  0  0  0  0  0  0  0  0  0
  189.3320  177.6010  142.2460 C   0  0  2  0  0  3  0  0  0  0  0  0
  191.4430  177.9320  143.1640 C   0  0  0  0  0  2  0  0  0  0  0  0
  190.2010  178.6080  142.8350 N   0  0  0  0  0  2  0  0  0  0  0  0
  190.9490  176.7900  145.3050 C   0  0  0  0  0  0  0  0  0  0  0  0
  189.5140  177.1970  146.0680 S   0  0  0  0  0  0  0  0  0  0  0  0
  190.2430  177.1840  147.5890 C   0  0  0  0  0  3  0  0  0  0  0  0
  191.5540  176.8710  147.4600 N   0  0  0  0  0  0  0  0  0  0  0  0
  191.9470  176.6550  146.2050 N   0  0  0  0  0  0  0  0  0  0  0  0
  187.9710  178.6070  139.9900 O   0  0  0  0  0  0  0  0  0  0  0  0
  188.7410  177.5590  139.4190 C   0  0  0  0  0  2  0  0  0  0  0  0
  188.9180  176.2030  137.2290 C   0  0  0  0  0  2  0  0  0  0  0  0
  188.1530  177.1730  138.1070 C   0  0  0  0  0  0  0  0  0  0  0  0
  188.7880  174.9420  135.1820 F   0  0  0  0  0  0  0  0  0  0  0  0
  188.2550  176.0200  135.8650 C   0  0  1  0  0  3  0  0  0  0  0  0
  186.8830  177.5350  137.8390 C   0  0  0  0  0  3  0  0  0  0  0  0
  186.1930  177.1320  136.5620 C   0  0  0  0  0  2  0  0  0  0  0  0
  186.8040  175.9150  136.0390 N   0  0  0  0  0  0  0  0  0  0  0  0
  185.1860  172.8630  137.5320 C   0  0  0  0  0  3  0  0  0  0  0  0
  184.8980  172.8140  135.1310 C   0  0  0  0  0  3  0  0  0  0  0  0
  185.8840  174.0700  137.4210 C   0  0  0  0  0  3  0  0  0  0  0  0
  185.5960  174.0210  135.0220 C   0  0  0  0  0  3  0  0  0  0  0  0
  184.6940  172.2350  136.3850 C   0  0  0  0  0  3  0  0  0  0  0  0
  186.1000  174.6610  136.1660 C   0  0  0  0  0  0  0  0  0  0  0  0
  1  5  1  0  0  0  0
  2  1  2  0  0  0  0
  3  8  1  0  0  0  0
  4  6  2  0  0  0  0
  6  1  1  0  0  0  0
  7  8  2  0  0  0  0
  7  4  1  0  0  0  0
  8  2  1  0  0  0  0
  9 14  1  1  0  0  0
 10  9  1  0  0  0  0
 11  4  1  1  0  0  0
 11 13  1  0  0  0  0
 11 10  1  0  0  0  0
 12  9  1  0  0  0  0
 13 12  1  0  0  0  0
 14 15  1  0  0  0  0
 14 18  2  0  0  0  0
 15 16  1  0  0  0  0
 17 16  2  0  0  0  0
 18 17  1  0  0  0  0
 19  7  1  0  0  0  0
 20 19  1  0  0  0  0
 21 22  1  0  0  0  0
 22 20  1  0  0  0  0
 24 23  1  1  0  0  0
 24 27  1  0  0  0  0
 24 21  1  0  0  0  0
 25 22  2  0  0  0  0
 26 25  1  0  0  0  0
 27 33  1  0  0  0  0
 27 26  1  0  0  0  0
 29 32  1  0  0  0  0
 30 28  1  0  0  0  0
 31 29  2  0  0  0  0
 31 33  1  0  0  0  0
 32 28  2  0  0  0  0
 33 30  2  0  0  0  0
M  END
>  <MODEL>
4

>  <REMARK>
 VINA RESULT:      -8.1      3.805      8.726
  Name = 
  6 active torsions:
  status: ('A' for Active; 'I' for Inactive)
    1  A    between atoms: C_2  and  C_8
    2  A    between atoms: C_4  and  C_29
    3  A    between atoms: O_16  and  C_29
    4  A    between atoms: O_16  and  C_30
    5  A    between atoms: C_18  and  C_24
    6  A    between atoms: N_23  and  C_32
                            x       y       z     vdW  Elec       q    Type
                         _______ _______ _______ _____ _____    ______ ____

>  <TORSDO>
F 6

$$$$
=
 OpenBabel11062412323D

 33 37  0  0  1  0  0  0  0  0999 V2000
  187.0100  178.0200  135.9960 C   0  0  0  0  0  0  0  0  0  0  0  0
  188.2570  177.7810  136.4730 N   0  0  0  0  0  0  0  0  0  0  0  0
  189.8390  177.4710  138.2390 N   0  0  0  0  0  1  0  0  0  0  0  0
  186.1750  178.1840  138.2020 C   0  0  0  0  0  0  0  0  0  0  0  0
  186.7810  178.0610  134.5940 N   0  0  0  0  0  1  0  0  0  0  0  0
  185.9820  178.2160  136.8580 N   0  0  0  0  0  0  0  0  0  0  0  0
  187.4520  177.9300  138.7250 C   0  0  0  0  0  0  0  0  0  0  0  0
  188.5080  177.7310  137.8060 C   0  0  0  0  0  0  0  0  0  0  0  0
  182.4530  178.6180  138.9200 C   0  0  1  0  0  3  0  0  0  0  0  0
  183.6430  177.2780  138.6650 S   0  0  0  0  0  0  0  0  0  0  0  0
  185.0120  178.3860  139.1220 C   0  0  2  0  0  3  0  0  0  0  0  0
  183.1950  179.7680  139.5670 C   0  0  0  0  0  2  0  0  0  0  0  0
  184.5620  179.7690  139.0760 N   0  0  0  0  0  2  0  0  0  0  0  0
  181.8610  179.0370  137.6130 C   0  0  0  0  0  0  0  0  0  0  0  0
  181.1980  180.5450  137.3030 S   0  0  0  0  0  0  0  0  0  0  0  0
  180.8110  180.1200  135.7170 C   0  0  0  0  0  3  0  0  0  0  0  0
  181.2000  178.8450  135.4820 N   0  0  0  0  0  0  0  0  0  0  0  0
  181.7760  178.2450  136.5220 N   0  0  0  0  0  0  0  0  0  0  0  0
  187.6020  177.8880  140.1220 O   0  0  0  0  0  0  0  0  0  0  0  0
  188.4550  178.7300  140.8830 C   0  0  0  0  0  2  0  0  0  0  0  0
  190.0770  178.6070  142.8890 C   0  0  0  0  0  2  0  0  0  0  0  0
  189.0000  177.9640  142.0390 C   0  0  0  0  0  0  0  0  0  0  0  0
  191.3960  178.3080  144.8810 F   0  0  0  0  0  0  0  0  0  0  0  0
  190.6270  177.6460  143.9400 C   0  0  1  0  0  3  0  0  0  0  0  0
  188.3810  176.8250  142.4060 C   0  0  0  0  0  3  0  0  0  0  0  0
  188.8300  176.0240  143.6000 C   0  0  0  0  0  2  0  0  0  0  0  0
  189.5210  176.8980  144.5420 N   0  0  0  0  0  0  0  0  0  0  0  0
  188.8380  177.6310  148.1690 C   0  0  0  0  0  3  0  0  0  0  0  0
  186.8760  178.1880  146.8690 C   0  0  0  0  0  3  0  0  0  0  0  0
  189.4940  177.2270  147.0030 C   0  0  0  0  0  3  0  0  0  0  0  0
  187.5340  177.7840  145.7030 C   0  0  0  0  0  3  0  0  0  0  0  0
  187.5280  178.1100  148.1020 C   0  0  0  0  0  3  0  0  0  0  0  0
  188.8500  177.2960  145.7560 C   0  0  0  0  0  0  0  0  0  0  0  0
  1  2  2  0  0  0  0
  1  6  1  0  0  0  0
  2  8  1  0  0  0  0
  4  7  1  0  0  0  0
  5  1  1  0  0  0  0
  6  4  2  0  0  0  0
  7 19  1  0  0  0  0
  8  3  1  0  0  0  0
  8  7  2  0  0  0  0
  9 14  1  6  0  0  0
  9 12  1  0  0  0  0
 10  9  1  0  0  0  0
 10 11  1  0  0  0  0
 11  4  1  6  0  0  0
 13 11  1  0  0  0  0
 13 12  1  0  0  0  0
 15 14  1  0  0  0  0
 16 15  1  0  0  0  0
 17 16  2  0  0  0  0
 17 18  1  0  0  0  0
 18 14  2  0  0  0  0
 19 20  1  0  0  0  0
 20 22  1  0  0  0  0
 21 24  1  0  0  0  0
 22 25  2  0  0  0  0
 22 21  1  0  0  0  0
 24 27  1  0  0  0  0
 24 23  1  1  0  0  0
 25 26  1  0  0  0  0
 26 27  1  0  0  0  0
 27 33  1  0  0  0  0
 29 32  2  0  0  0  0
 30 28  2  0  0  0  0
 31 33  2  0  0  0  0
 31 29  1  0  0  0  0
 32 28  1  0  0  0  0
 33 30  1  0  0  0  0
M  END
>  <MODEL>
5

>  <REMARK>
 VINA RESULT:      -8.0      3.380      5.429
  Name = 
  6 active torsions:
  status: ('A' for Active; 'I' for Inactive)
    1  A    between atoms: C_2  and  C_8
    2  A    between atoms: C_4  and  C_29
    3  A    between atoms: O_16  and  C_29
    4  A    between atoms: O_16  and  C_30
    5  A    between atoms: C_18  and  C_24
    6  A    between atoms: N_23  and  C_32
                            x       y       z     vdW  Elec       q    Type
                         _______ _______ _______ _____ _____    ______ ____

>  <TORSDO>
F 6

$$$$
=
 OpenBabel11062412323D

 33 37  0  0  1  0  0  0  0  0999 V2000
  184.8470  178.6740  139.3240 C   0  0  0  0  0  0  0  0  0  0  0  0
  185.2130  178.7870  140.6250 N   0  0  0  0  0  0  0  0  0  0  0  0
  186.8170  178.7430  142.3980 N   0  0  0  0  0  1  0  0  0  0  0  0
  187.0770  178.1710  138.7180 C   0  0  0  0  0  0  0  0  0  0  0  0
  183.4910  178.8760  138.9460 N   0  0  0  0  0  1  0  0  0  0  0  0
  185.7750  178.3710  138.3830 N   0  0  0  0  0  0  0  0  0  0  0  0
  187.4870  178.2900  140.0550 C   0  0  0  0  0  0  0  0  0  0  0  0
  186.5000  178.6050  141.0170 C   0  0  0  0  0  0  0  0  0  0  0  0
  188.0990  176.6600  135.3670 C   0  0  1  0  0  3  0  0  0  0  0  0
  187.3700  178.1900  136.0050 S   0  0  0  0  0  0  0  0  0  0  0  0
  188.0760  177.8580  137.6490 C   0  0  2  0  0  3  0  0  0  0  0  0
  189.0320  176.1220  136.4310 C   0  0  0  0  0  2  0  0  0  0  0  0
  188.4910  176.4660  137.7340 N   0  0  0  0  0  2  0  0  0  0  0  0
  187.0240  175.6690  135.0540 C   0  0  0  0  0  0  0  0  0  0  0  0
  185.3940  176.0350  134.9280 S   0  0  0  0  0  0  0  0  0  0  0  0
  184.9930  174.4300  134.5960 C   0  0  0  0  0  3  0  0  0  0  0  0
  186.1160  173.6730  134.5950 N   0  0  0  0  0  0  0  0  0  0  0  0
  187.2350  174.3510  134.8480 N   0  0  0  0  0  0  0  0  0  0  0  0
  188.8460  178.0930  140.3520 O   0  0  0  0  0  0  0  0  0  0  0  0
  189.4280  176.8650  140.7640 C   0  0  0  0  0  2  0  0  0  0  0  0
  190.2160  178.4540  142.6410 C   0  0  0  0  0  2  0  0  0  0  0  0
  190.0790  177.0480  142.0910 C   0  0  0  0  0  0  0  0  0  0  0  0
  190.9150  179.7080  144.5730 F   0  0  0  0  0  0  0  0  0  0  0  0
  191.0260  178.4860  143.9350 C   0  0  1  0  0  3  0  0  0  0  0  0
  190.3340  175.9570  142.8390 C   0  0  0  0  0  3  0  0  0  0  0  0
  190.9340  176.0600  144.2180 C   0  0  0  0  0  2  0  0  0  0  0  0
  190.6230  177.3660  144.7890 N   0  0  0  0  0  0  0  0  0  0  0  0
  188.9890  177.6640  148.1650 C   0  0  0  0  0  3  0  0  0  0  0  0
  187.2740  177.6000  146.4610 C   0  0  0  0  0  3  0  0  0  0  0  0
  189.9720  177.5540  147.1770 C   0  0  0  0  0  3  0  0  0  0  0  0
  188.2580  177.4910  145.4730 C   0  0  0  0  0  3  0  0  0  0  0  0
  187.6390  177.6860  147.8060 C   0  0  0  0  0  3  0  0  0  0  0  0
  189.6180  177.4640  145.8200 C   0  0  0  0  0  0  0  0  0  0  0  0
  1  2  2  0  0  0  0
  2  8  1  0  0  0  0
  4  7  1  0  0  0  0
  5  1  1  0  0  0  0
  6  4  2  0  0  0  0
  6  1  1  0  0  0  0
  7 19  1  0  0  0  0
  7  8  2  0  0  0  0
  8  3  1  0  0  0  0
  9 14  1  1  0  0  0
  9 10  1  0  0  0  0
  9 12  1  0  0  0  0
 10 11  1  0  0  0  0
 11 13  1  0  0  0  0
 11  4  1  1  0  0  0
 12 13  1  0  0  0  0
 15 14  1  0  0  0  0
 16 15  1  0  0  0  0
 17 16  2  0  0  0  0
 17 18  1  0  0  0  0
 18 14  2  0  0  0  0
 19 20  1  0  0  0  0
 20 22  1  0  0  0  0
 21 24  1  0  0  0  0
 22 21  1  0  0  0  0
 22 25  2  0  0  0  0
 24 23  1  1  0  0  0
 24 27  1  0  0  0  0
 25 26  1  0  0  0  0
 26 27  1  0  0  0  0
 27 33  1  0  0  0  0
 29 32  2  0  0  0  0
 30 28  2  0  0  0  0
 31 33  2  0  0  0  0
 31 29  1  0  0  0  0
 32 28  1  0  0  0  0
 33 30  1  0  0  0  0
M  END
>  <MODEL>
6

>  <REMARK>
 VINA RESULT:      -8.0      1.945      2.264
  Name = 
  6 active torsions:
  status: ('A' for Active; 'I' for Inactive)
    1  A    between atoms: C_2  and  C_8
    2  A    between atoms: C_4  and  C_29
    3  A    between atoms: O_16  and  C_29
    4  A    between atoms: O_16  and  C_30
    5  A    between atoms: C_18  and  C_24
    6  A    between atoms: N_23  and  C_32
                            x       y       z     vdW  Elec       q    Type
                         _______ _______ _______ _____ _____    ______ ____

>  <TORSDO>
F 6

$$$$
=
 OpenBabel11062412323D

 33 37  0  0  1  0  0  0  0  0999 V2000
  187.1790  178.6650  140.8420 C   0  0  0  0  0  0  0  0  0  0  0  0
  187.2390  178.2210  139.5620 N   0  0  0  0  0  0  0  0  0  0  0  0
  188.3090  177.0880  137.7480 N   0  0  0  0  0  1  0  0  0  0  0  0
  189.3110  177.7420  141.2840 C   0  0  0  0  0  0  0  0  0  0  0  0
  186.0370  179.3820  141.2930 N   0  0  0  0  0  1  0  0  0  0  0  0
  188.2070  178.4220  141.6910 N   0  0  0  0  0  0  0  0  0  0  0  0
  189.3970  177.2620  139.9680 C   0  0  0  0  0  0  0  0  0  0  0  0
  188.3130  177.5300  139.1010 C   0  0  0  0  0  0  0  0  0  0  0  0
  190.6440  176.8410  144.7440 C   0  0  1  0  0  3  0  0  0  0  0  0
  190.0410  176.0030  143.2560 S   0  0  0  0  0  0  0  0  0  0  0  0
  190.4170  177.4760  142.2560 C   0  0  2  0  0  3  0  0  0  0  0  0
  191.3080  178.1280  144.3030 C   0  0  0  0  0  2  0  0  0  0  0  0
  190.6160  178.6240  143.1260 N   0  0  0  0  0  2  0  0  0  0  0  0
  189.5080  177.1230  145.6730 C   0  0  0  0  0  0  0  0  0  0  0  0
  189.6200  177.1380  147.3450 S   0  0  0  0  0  0  0  0  0  0  0  0
  187.9820  177.5010  147.5160 C   0  0  0  0  0  3  0  0  0  0  0  0
  187.4080  177.5960  146.2940 N   0  0  0  0  0  0  0  0  0  0  0  0
  188.2430  177.3870  145.2770 N   0  0  0  0  0  0  0  0  0  0  0  0
  190.5480  176.5470  139.5960 O   0  0  0  0  0  0  0  0  0  0  0  0
  191.6340  177.0700  138.8450 C   0  0  0  0  0  2  0  0  0  0  0  0
  193.2310  176.3770  136.9370 C   0  0  0  0  0  2  0  0  0  0  0  0
  191.9750  176.1240  137.7460 C   0  0  0  0  0  0  0  0  0  0  0  0
  194.6280  175.4570  135.2060 F   0  0  0  0  0  0  0  0  0  0  0  0
  193.3640  175.4060  135.7660 C   0  0  1  0  0  3  0  0  0  0  0  0
  191.2760  174.9770  137.6450 C   0  0  0  0  0  3  0  0  0  0  0  0
  191.5970  173.9380  136.6020 C   0  0  0  0  0  2  0  0  0  0  0  0
  192.9970  174.0590  136.2080 N   0  0  0  0  0  0  0  0  0  0  0  0
  195.6100  172.3390  138.2990 C   0  0  0  0  0  3  0  0  0  0  0  0
  195.0250  170.9110  136.4360 C   0  0  0  0  0  3  0  0  0  0  0  0
  194.7030  173.3000  137.8440 C   0  0  0  0  0  3  0  0  0  0  0  0
  194.1180  171.8740  135.9820 C   0  0  0  0  0  3  0  0  0  0  0  0
  195.7710  171.1440  137.5930 C   0  0  0  0  0  3  0  0  0  0  0  0
  193.9480  173.0810  136.6790 C   0  0  0  0  0  0  0  0  0  0  0  0
  1  5  1  0  0  0  0
  1  6  1  0  0  0  0
  2  1  2  0  0  0  0
  3  8  1  0  0  0  0
  4  6  2  0  0  0  0
  7  4  1  0  0  0  0
  8  2  1  0  0  0  0
  8  7  2  0  0  0  0
  9 14  1  1  0  0  0
 10  9  1  0  0  0  0
 11  4  1  6  0  0  0
 11 13  1  0  0  0  0
 11 10  1  0  0  0  0
 12  9  1  0  0  0  0
 13 12  1  0  0  0  0
 14 15  1  0  0  0  0
 15 16  1  0  0  0  0
 17 16  2  0  0  0  0
 18 14  2  0  0  0  0
 18 17  1  0  0  0  0
 19  7  1  0  0  0  0
 20 19  1  0  0  0  0
 21 22  1  0  0  0  0
 22 20  1  0  0  0  0
 24 23  1  1  0  0  0
 24 27  1  0  0  0  0
 24 21  1  0  0  0  0
 25 22  2  0  0  0  0
 26 25  1  0  0  0  0
 27 26  1  0  0  0  0
 27 33  1  0  0  0  0
 29 32  1  0  0  0  0
 30 28  1  0  0  0  0
 31 29  2  0  0  0  0
 31 33  1  0  0  0  0
 32 28  2  0  0  0  0
 33 30  2  0  0  0  0
M  END
>  <MODEL>
7

>  <REMARK>
 VINA RESULT:      -7.9      3.893      8.829
  Name = 
  6 active torsions:
  status: ('A' for Active; 'I' for Inactive)
    1  A    between atoms: C_2  and  C_8
    2  A    between atoms: C_4  and  C_29
    3  A    between atoms: O_16  and  C_29
    4  A    between atoms: O_16  and  C_30
    5  A    between atoms: C_18  and  C_24
    6  A    between atoms: N_23  and  C_32
                            x       y       z     vdW  Elec       q    Type
                         _______ _______ _______ _____ _____    ______ ____

>  <TORSDO>
F 6

$$$$
=
 OpenBabel11062412323D

 33 37  0  0  1  0  0  0  0  0999 V2000
  182.0010  179.0240  143.3020 C   0  0  0  0  0  0  0  0  0  0  0  0
  182.9820  179.0080  144.2390 N   0  0  0  0  0  0  0  0  0  0  0  0
  185.2330  178.6420  144.9600 N   0  0  0  0  0  1  0  0  0  0  0  0
  183.5260  178.2680  141.6610 C   0  0  0  0  0  0  0  0  0  0  0  0
  180.6850  179.4280  143.6580 N   0  0  0  0  0  1  0  0  0  0  0  0
  182.2770  178.6600  142.0260 N   0  0  0  0  0  0  0  0  0  0  0  0
  184.5640  178.2490  142.6060 C   0  0  0  0  0  0  0  0  0  0  0  0
  184.2500  178.6320  143.9310 C   0  0  0  0  0  0  0  0  0  0  0  0
  182.9210  178.5430  137.9040 C   0  0  1  0  0  3  0  0  0  0  0  0
  183.8790  179.3790  139.1940 S   0  0  0  0  0  0  0  0  0  0  0  0
  183.7980  177.8910  140.2390 C   0  0  2  0  0  3  0  0  0  0  0  0
  182.8090  177.0850  138.2940 C   0  0  0  0  0  2  0  0  0  0  0  0
  182.7620  176.9980  139.7430 N   0  0  0  0  0  2  0  0  0  0  0  0
  181.5680  179.1650  137.7830 C   0  0  0  0  0  0  0  0  0  0  0  0
  180.8580  180.1430  138.9440 S   0  0  0  0  0  0  0  0  0  0  0  0
  179.4630  180.3410  138.0170 C   0  0  0  0  0  3  0  0  0  0  0  0
  179.5880  179.6540  136.8560 N   0  0  0  0  0  0  0  0  0  0  0  0
  180.7440  179.0050  136.7240 N   0  0  0  0  0  0  0  0  0  0  0  0
  185.8430  177.8560  142.1800 O   0  0  0  0  0  0  0  0  0  0  0  0
  186.9150  178.7360  141.8750 C   0  0  0  0  0  2  0  0  0  0  0  0
  189.3990  178.9650  142.5430 C   0  0  0  0  0  2  0  0  0  0  0  0
  188.2060  178.0840  142.2310 C   0  0  0  0  0  0  0  0  0  0  0  0
  191.6830  178.9190  143.3010 F   0  0  0  0  0  0  0  0  0  0  0  0
  190.6740  178.1510  142.7500 C   0  0  1  0  0  3  0  0  0  0  0  0
  188.2140  176.7570  142.4620 C   0  0  0  0  0  3  0  0  0  0  0  0
  189.4640  176.0310  142.8880 C   0  0  0  0  0  2  0  0  0  0  0  0
  190.3680  176.9640  143.5520 N   0  0  0  0  0  0  0  0  0  0  0  0
  189.6290  177.2780  147.2280 C   0  0  0  0  0  3  0  0  0  0  0  0
  191.8230  176.3010  146.9460 C   0  0  0  0  0  3  0  0  0  0  0  0
  189.4860  177.3530  145.8400 C   0  0  0  0  0  3  0  0  0  0  0  0
  191.6790  176.3770  145.5570 C   0  0  0  0  0  3  0  0  0  0  0  0
  190.7990  176.7530  147.7810 C   0  0  0  0  0  3  0  0  0  0  0  0
  190.5090  176.9060  144.9880 C   0  0  0  0  0  0  0  0  0  0  0  0
  1  5  1  0  0  0  0
  1  2  2  0  0  0  0
  4  6  2  0  0  0  0
  4  7  1  0  0  0  0
  6  1  1  0  0  0  0
  7  8  2  0  0  0  0
  8  2  1  0  0  0  0
  8  3  1  0  0  0  0
  9 14  1  1  0  0  0
  9 12  1  0  0  0  0
  9 10  1  0  0  0  0
 10 11  1  0  0  0  0
 11  4  1  1  0  0  0
 12 13  1  0  0  0  0
 13 11  1  0  0  0  0
 14 15  1  0  0  0  0
 16 15  1  0  0  0  0
 17 16  2  0  0  0  0
 18 17  1  0  0  0  0
 18 14  2  0  0  0  0
 19  7  1  0  0  0  0
 20 19  1  0  0  0  0
 20 22  1  0  0  0  0
 21 24  1  0  0  0  0
 22 25  2  0  0  0  0
 22 21  1  0  0  0  0
 24 23  1  1  0  0  0
 24 27  1  0  0  0  0
 25 26  1  0  0  0  0
 26 27  1  0  0  0  0
 27 33  1  0  0  0  0
 28 32  1  0  0  0  0
 29 32  2  0  0  0  0
 30 28  2  0  0  0  0
 31 29  1  0  0  0  0
 33 31  2  0  0  0  0
 33 30  1  0  0  0  0
M  END
>  <MODEL>
8

>  <REMARK>
 VINA RESULT:      -7.8      4.821      6.648
  Name = 
  6 active torsions:
  status: ('A' for Active; 'I' for Inactive)
    1  A    between atoms: C_2  and  C_8
    2  A    between atoms: C_4  and  C_29
    3  A    between atoms: O_16  and  C_29
    4  A    between atoms: O_16  and  C_30
    5  A    between atoms: C_18  and  C_24
    6  A    between atoms: N_23  and  C_32
                            x       y       z     vdW  Elec       q    Type
                         _______ _______ _______ _____ _____    ______ ____

>  <TORSDO>
F 6

$$$$
=
 OpenBabel11062412323D

 33 37  0  0  1  0  0  0  0  0999 V2000
  186.0670  178.2860  143.4840 C   0  0  0  0  0  0  0  0  0  0  0  0
  185.4070  178.7640  142.4000 N   0  0  0  0  0  0  0  0  0  0  0  0
  185.2640  179.3770  140.0930 N   0  0  0  0  0  1  0  0  0  0  0  0
  188.0260  177.9960  142.1910 C   0  0  0  0  0  0  0  0  0  0  0  0
  185.3990  178.1810  144.7340 N   0  0  0  0  0  1  0  0  0  0  0  0
  187.3630  177.9040  143.3740 N   0  0  0  0  0  0  0  0  0  0  0  0
  187.3670  178.4790  141.0490 C   0  0  0  0  0  0  0  0  0  0  0  0
  186.0150  178.8720  141.1910 C   0  0  0  0  0  0  0  0  0  0  0  0
  191.2190  176.5310  143.6800 C   0  0  1  0  0  3  0  0  0  0  0  0
  189.6650  175.9520  142.9520 S   0  0  0  0  0  0  0  0  0  0  0  0
  189.4500  177.5470  142.1030 C   0  0  2  0  0  3  0  0  0  0  0  0
  191.5680  177.8470  143.0170 C   0  0  0  0  0  2  0  0  0  0  0  0
  190.3340  178.5410  142.6930 N   0  0  0  0  0  2  0  0  0  0  0  0
  191.0630  176.7050  145.1560 C   0  0  0  0  0  0  0  0  0  0  0  0
  189.6430  177.1590  145.9200 S   0  0  0  0  0  0  0  0  0  0  0  0
  190.3710  177.1120  147.4410 C   0  0  0  0  0  3  0  0  0  0  0  0
  191.6700  176.7530  147.3120 N   0  0  0  0  0  0  0  0  0  0  0  0
  192.0550  176.5300  146.0560 N   0  0  0  0  0  0  0  0  0  0  0  0
  188.0840  178.5390  139.8430 O   0  0  0  0  0  0  0  0  0  0  0  0
  187.5090  178.6280  138.5480 C   0  0  0  0  0  2  0  0  0  0  0  0
  188.9770  178.1090  136.4880 C   0  0  0  0  0  2  0  0  0  0  0  0
  188.1450  177.6190  137.6560 C   0  0  0  0  0  0  0  0  0  0  0  0
  190.4150  177.3740  134.7020 F   0  0  0  0  0  0  0  0  0  0  0  0
  189.4400  176.9620  135.5930 C   0  0  1  0  0  3  0  0  0  0  0  0
  188.1290  176.3260  138.0320 C   0  0  0  0  0  3  0  0  0  0  0  0
  188.8030  175.2510  137.2190 C   0  0  0  0  0  2  0  0  0  0  0  0
  189.8780  175.8400  136.4270 N   0  0  0  0  0  0  0  0  0  0  0  0
  193.3500  174.4050  136.6500 C   0  0  0  0  0  3  0  0  0  0  0  0
  193.1710  176.2790  138.1690 C   0  0  0  0  0  3  0  0  0  0  0  0
  192.0190  174.5940  136.2640 C   0  0  0  0  0  3  0  0  0  0  0  0
  191.8410  176.4660  137.7830 C   0  0  0  0  0  3  0  0  0  0  0  0
  193.9250  175.2480  137.6030 C   0  0  0  0  0  3  0  0  0  0  0  0
  191.2480  175.6240  136.8280 C   0  0  0  0  0  0  0  0  0  0  0  0
  1  5  1  0  0  0  0
  2  1  2  0  0  0  0
  3  8  1  0  0  0  0
  4  6  2  0  0  0  0
  6  1  1  0  0  0  0
  7  8  2  0  0  0  0
  7  4  1  0  0  0  0
  8  2  1  0  0  0  0
  9 14  1  1  0  0  0
 10  9  1  0  0  0  0
 11  4  1  1  0  0  0
 11 13  1  0  0  0  0
 11 10  1  0  0  0  0
 12  9  1  0  0  0  0
 13 12  1  0  0  0  0
 14 15  1  0  0  0  0
 14 18  2  0  0  0  0
 15 16  1  0  0  0  0
 17 16  2  0  0  0  0
 18 17  1  0  0  0  0
 19  7  1  0  0  0  0
 20 19  1  0  0  0  0
 21 22  1  0  0  0  0
 22 25  2  0  0  0  0
 22 20  1  0  0  0  0
 24 23  1  1  0  0  0
 24 27  1  0  0  0  0
 24 21  1  0  0  0  0
 26 25  1  0  0  0  0
 27 33  1  0  0  0  0
 27 26  1  0  0  0  0
 28 32  1  0  0  0  0
 30 28  2  0  0  0  0
 30 33  1  0  0  0  0
 31 29  1  0  0  0  0
 32 29  2  0  0  0  0
 33 31  2  0  0  0  0
M  END
>  <MODEL>
9

>  <REMARK>
 VINA RESULT:      -7.8      3.433      8.379
  Name = 
  6 active torsions:
  status: ('A' for Active; 'I' for Inactive)
    1  A    between atoms: C_2  and  C_8
    2  A    between atoms: C_4  and  C_29
    3  A    between atoms: O_16  and  C_29
    4  A    between atoms: O_16  and  C_30
    5  A    between atoms: C_18  and  C_24
    6  A    between atoms: N_23  and  C_32
                            x       y       z     vdW  Elec       q    Type
                         _______ _______ _______ _____ _____    ______ ____

>  <TORSDO>
F 6

$$$$
