=
 OpenBabel11062417153D

 26 28  0  0  1  0  0  0  0  0999 V2000
  185.1310  178.9730  146.1930 C   0  0  0  0  0  3  0  0  0  0  0  0
  185.9870  177.9150  144.1960 C   0  0  0  0  0  0  0  0  0  0  0  0
  186.1570  178.2990  145.5330 C   0  0  0  0  0  3  0  0  0  0  0  0
  184.7790  178.2070  143.5390 C   0  0  0  0  0  0  0  0  0  0  0  0
  183.7780  178.8880  144.2480 C   0  0  0  0  0  3  0  0  0  0  0  0
  183.9720  179.2520  145.5420 N   0  0  0  0  0  0  0  0  0  0  0  0
  188.1430  176.6580  144.4600 C   0  0  0  0  0  2  0  0  0  0  0  0
  187.0790  177.1750  143.4780 C   0  0  2  0  0  3  0  0  0  0  0  0
  189.5010  177.1220  143.9290 C   0  0  1  0  0  3  0  0  0  0  0  0
  189.9880  178.5890  142.0680 O   0  0  0  0  0  0  0  0  0  0  0  0
  187.7580  178.0420  142.5300 N   0  0  0  0  0  2  0  0  0  0  0  0
  189.1450  177.9840  142.7810 C   0  0  0  0  0  0  0  0  0  0  0  0
  190.3130  177.8560  145.0030 C   0  0  0  0  0  2  0  0  0  0  0  0
  191.7520  175.9600  144.6950 O   0  0  0  0  0  1  0  0  0  0  0  0
  191.5270  177.0750  145.5050 C   0  0  2  0  0  3  0  0  0  0  0  0
  190.1510  176.6080  147.4040 O   0  0  0  0  0  0  0  0  0  0  0  0
  191.3100  176.6410  146.9140 C   0  0  0  0  0  0  0  0  0  0  0  0
  192.4000  176.2900  147.7000 O   0  0  0  0  0  1  0  0  0  0  0  0
  184.5990  177.8090  142.1680 N   0  0  0  0  0  2  0  0  0  0  0  0
  182.5660  178.4990  140.9110 C   0  0  0  0  0  3  0  0  0  0  0  0
  184.7380  179.2710  140.2200 C   0  0  0  0  0  3  0  0  0  0  0  0
  182.8140  179.9440  139.0030 C   0  0  0  0  0  0  0  0  0  0  0  0
  181.9900  179.2110  139.8590 C   0  0  0  0  0  3  0  0  0  0  0  0
  183.9540  178.5230  141.1030 C   0  0  0  0  0  0  0  0  0  0  0  0
  184.1590  179.9590  139.2000 N   0  0  0  0  0  0  0  0  0  0  0  0
  182.2720  180.6410  137.9760 F   0  0  0  0  0  0  0  0  0  0  0  0
  2  3  1  0  0  0  0
  3  1  2  0  0  0  0
  4  2  2  0  0  0  0
  4  5  1  0  0  0  0
  5  6  2  0  0  0  0
  6  1  1  0  0  0  0
  8  2  1  1  0  0  0
  8  7  1  0  0  0  0
  9  7  1  0  0  0  0
  9 13  1  1  0  0  0
 10 12  2  0  0  0  0
 11 12  1  0  0  0  0
 11  8  1  0  0  0  0
 12  9  1  0  0  0  0
 13 15  1  0  0  0  0
 15 14  1  6  0  0  0
 15 17  1  0  0  0  0
 17 16  2  0  0  0  0
 17 18  1  0  0  0  0
 19  4  1  0  0  0  0
 20 24  1  0  0  0  0
 21 24  2  0  0  0  0
 22 25  2  0  0  0  0
 22 23  1  0  0  0  0
 23 20  2  0  0  0  0
 24 19  1  0  0  0  0
 25 21  1  0  0  0  0
 26 22  1  0  0  0  0
M  END
>  <MODEL>
1

>  <REMARK>
 VINA RESULT:      -8.2      0.000      0.000
  Name = 
  6 active torsions:
  status: ('A' for Active; 'I' for Inactive)
    1  A    between atoms: N_5  and  C_14
    2  A    between atoms: N_5  and  C_19
    3  A    between atoms: C_8  and  C_9
    4  A    between atoms: C_11  and  C_25
    5  A    between atoms: C_15  and  C_16
    6  A    between atoms: C_15  and  C_25
                            x       y       z     vdW  Elec       q    Type
                         _______ _______ _______ _____ _____    ______ ____

>  <TORSDO>
F 6

$$$$
=
 OpenBabel11062417153D

 26 28  0  0  1  0  0  0  0  0999 V2000
  186.8660  178.1900  146.8730 C   0  0  0  0  0  3  0  0  0  0  0  0
  186.7060  177.7940  144.4940 C   0  0  0  0  0  0  0  0  0  0  0  0
  187.3600  177.5890  145.7160 C   0  0  0  0  0  3  0  0  0  0  0  0
  185.5520  178.5960  144.4510 C   0  0  0  0  0  0  0  0  0  0  0  0
  185.0960  179.1790  145.6430 C   0  0  0  0  0  3  0  0  0  0  0  0
  185.7530  178.9670  146.8140 N   0  0  0  0  0  0  0  0  0  0  0  0
  188.2200  176.0200  143.5690 C   0  0  0  0  0  2  0  0  0  0  0  0
  187.2200  177.1410  143.2430 C   0  0  2  0  0  3  0  0  0  0  0  0
  189.4720  176.2830  142.7300 C   0  0  1  0  0  3  0  0  0  0  0  0
  189.9910  178.1830  141.3260 O   0  0  0  0  0  0  0  0  0  0  0  0
  187.9140  178.1010  142.4020 N   0  0  0  0  0  2  0  0  0  0  0  0
  189.1910  177.5890  142.0940 C   0  0  0  0  0  0  0  0  0  0  0  0
  190.7430  176.2940  143.5890 C   0  0  0  0  0  2  0  0  0  0  0  0
  191.6470  178.3880  144.3360 O   0  0  0  0  0  1  0  0  0  0  0  0
  190.7500  177.3730  144.6720 C   0  0  2  0  0  3  0  0  0  0  0  0
  190.5710  177.1630  147.0470 O   0  0  0  0  0  1  0  0  0  0  0  0
  191.1270  176.7770  145.9850 C   0  0  0  0  0  0  0  0  0  0  0  0
  192.1150  175.8020  146.0380 O   0  0  0  0  0  0  0  0  0  0  0  0
  184.8740  178.8030  143.1990 N   0  0  0  0  0  2  0  0  0  0  0  0
  182.4960  178.8680  143.9250 C   0  0  0  0  0  3  0  0  0  0  0  0
  183.0460  178.5890  141.5990 C   0  0  0  0  0  3  0  0  0  0  0  0
  180.7670  178.6460  142.2650 C   0  0  0  0  0  0  0  0  0  0  0  0
  181.1400  178.8140  143.6000 C   0  0  0  0  0  3  0  0  0  0  0  0
  183.4670  178.7550  142.9210 C   0  0  0  0  0  0  0  0  0  0  0  0
  181.7190  178.5380  141.3000 N   0  0  0  0  0  0  0  0  0  0  0  0
  179.4560  178.5920  141.9310 F   0  0  0  0  0  0  0  0  0  0  0  0
  2  3  1  0  0  0  0
  3  1  2  0  0  0  0
  4  2  2  0  0  0  0
  4  5  1  0  0  0  0
  5  6  2  0  0  0  0
  6  1  1  0  0  0  0
  8  7  1  0  0  0  0
  8  2  1  1  0  0  0
  9  7  1  0  0  0  0
  9 13  1  1  0  0  0
 10 12  2  0  0  0  0
 11  8  1  0  0  0  0
 12 11  1  0  0  0  0
 12  9  1  0  0  0  0
 13 15  1  0  0  0  0
 15 14  1  6  0  0  0
 15 17  1  0  0  0  0
 17 18  2  0  0  0  0
 17 16  1  0  0  0  0
 19  4  1  0  0  0  0
 21 24  1  0  0  0  0
 22 23  2  0  0  0  0
 23 20  1  0  0  0  0
 24 19  1  0  0  0  0
 24 20  2  0  0  0  0
 25 21  2  0  0  0  0
 25 22  1  0  0  0  0
 26 22  1  0  0  0  0
M  END
>  <MODEL>
2

>  <REMARK>
 VINA RESULT:      -7.7      1.815      2.237
  Name = 
  6 active torsions:
  status: ('A' for Active; 'I' for Inactive)
    1  A    between atoms: N_5  and  C_14
    2  A    between atoms: N_5  and  C_19
    3  A    between atoms: C_8  and  C_9
    4  A    between atoms: C_11  and  C_25
    5  A    between atoms: C_15  and  C_16
    6  A    between atoms: C_15  and  C_25
                            x       y       z     vdW  Elec       q    Type
                         _______ _______ _______ _____ _____    ______ ____

>  <TORSDO>
F 6

$$$$
=
 OpenBabel11062417153D

 26 28  0  0  1  0  0  0  0  0999 V2000
  191.6760  178.5860  144.0980 C   0  0  0  0  0  3  0  0  0  0  0  0
  189.7180  177.6830  143.0060 C   0  0  0  0  0  0  0  0  0  0  0  0
  191.0030  178.2370  142.9280 C   0  0  0  0  0  3  0  0  0  0  0  0
  189.1260  177.4770  144.2650 C   0  0  0  0  0  0  0  0  0  0  0  0
  189.8450  177.8460  145.4110 C   0  0  0  0  0  3  0  0  0  0  0  0
  191.0880  178.3850  145.3070 N   0  0  0  0  0  0  0  0  0  0  0  0
  189.8560  176.3870  140.8620 C   0  0  0  0  0  2  0  0  0  0  0  0
  188.9890  177.2900  141.7530 C   0  0  2  0  0  3  0  0  0  0  0  0
  189.8440  177.0030  139.4610 C   0  0  1  0  0  3  0  0  0  0  0  0
  188.8940  179.1040  138.7290 O   0  0  0  0  0  0  0  0  0  0  0  0
  188.6380  178.4590  140.9660 N   0  0  0  0  0  2  0  0  0  0  0  0
  189.1110  178.2730  139.6500 C   0  0  0  0  0  0  0  0  0  0  0  0
  191.2620  177.2030  138.9130 C   0  0  0  0  0  2  0  0  0  0  0  0
  191.2230  174.9280  138.1460 O   0  0  0  0  0  1  0  0  0  0  0  0
  191.6460  176.2160  137.8100 C   0  0  2  0  0  3  0  0  0  0  0  0
  193.9070  176.2760  138.5860 O   0  0  0  0  0  1  0  0  0  0  0  0
  193.1220  176.2270  137.6030 C   0  0  0  0  0  0  0  0  0  0  0  0
  193.6340  176.2030  136.3120 O   0  0  0  0  0  0  0  0  0  0  0  0
  187.8100  176.9030  144.3470 N   0  0  0  0  0  2  0  0  0  0  0  0
  186.1280  177.8600  145.9110 C   0  0  0  0  0  3  0  0  0  0  0  0
  185.7390  177.9060  143.5370 C   0  0  0  0  0  3  0  0  0  0  0  0
  184.1180  178.8260  145.0070 C   0  0  0  0  0  0  0  0  0  0  0  0
  184.9040  178.4970  146.1130 C   0  0  0  0  0  3  0  0  0  0  0  0
  186.5600  177.5570  144.6130 C   0  0  0  0  0  0  0  0  0  0  0  0
  184.5480  178.5260  143.7530 N   0  0  0  0  0  0  0  0  0  0  0  0
  182.9260  179.4440  145.1840 F   0  0  0  0  0  0  0  0  0  0  0  0
  1  6  1  0  0  0  0
  2  4  2  0  0  0  0
  3  2  1  0  0  0  0
  3  1  2  0  0  0  0
  4 19  1  0  0  0  0
  4  5  1  0  0  0  0
  6  5  2  0  0  0  0
  7  8  1  0  0  0  0
  8  2  1  1  0  0  0
  9 13  1  1  0  0  0
  9 12  1  0  0  0  0
  9  7  1  0  0  0  0
 10 12  2  0  0  0  0
 11  8  1  0  0  0  0
 12 11  1  0  0  0  0
 15 14  1  1  0  0  0
 15 13  1  0  0  0  0
 17 15  1  0  0  0  0
 17 16  1  0  0  0  0
 18 17  2  0  0  0  0
 19 24  1  0  0  0  0
 20 23  1  0  0  0  0
 21 25  2  0  0  0  0
 21 24  1  0  0  0  0
 22 26  1  0  0  0  0
 22 23  2  0  0  0  0
 24 20  2  0  0  0  0
 25 22  1  0  0  0  0
M  END
>  <MODEL>
3

>  <REMARK>
 VINA RESULT:      -7.6      4.068      6.139
  Name = 
  6 active torsions:
  status: ('A' for Active; 'I' for Inactive)
    1  A    between atoms: N_5  and  C_14
    2  A    between atoms: N_5  and  C_19
    3  A    between atoms: C_8  and  C_9
    4  A    between atoms: C_11  and  C_25
    5  A    between atoms: C_15  and  C_16
    6  A    between atoms: C_15  and  C_25
                            x       y       z     vdW  Elec       q    Type
                         _______ _______ _______ _____ _____    ______ ____

>  <TORSDO>
F 6

$$$$
=
 OpenBabel11062417153D

 26 28  0  0  1  0  0  0  0  0999 V2000
  187.5100  178.6310  140.3280 C   0  0  0  0  0  3  0  0  0  0  0  0
  189.3870  177.2670  141.0060 C   0  0  0  0  0  0  0  0  0  0  0  0
  188.3460  178.1460  141.3330 C   0  0  0  0  0  3  0  0  0  0  0  0
  189.5710  176.8780  139.6670 C   0  0  0  0  0  0  0  0  0  0  0  0
  188.7030  177.3940  138.6940 C   0  0  0  0  0  3  0  0  0  0  0  0
  187.7030  178.2480  139.0390 N   0  0  0  0  0  0  0  0  0  0  0  0
  189.4890  176.3630  143.3440 C   0  0  0  0  0  2  0  0  0  0  0  0
  190.2850  176.7280  142.0810 C   0  0  2  0  0  3  0  0  0  0  0  0
  190.1840  177.0490  144.5220 C   0  0  1  0  0  3  0  0  0  0  0  0
  192.0250  178.6190  144.4990 O   0  0  0  0  0  0  0  0  0  0  0  0
  191.2790  177.7130  142.4720 N   0  0  0  0  0  2  0  0  0  0  0  0
  191.2290  177.8700  143.8730 C   0  0  0  0  0  0  0  0  0  0  0  0
  189.2020  177.8770  145.3600 C   0  0  0  0  0  2  0  0  0  0  0  0
  190.0530  176.5070  147.1380 O   0  0  0  0  0  1  0  0  0  0  0  0
  189.3670  177.6920  146.8690 C   0  0  2  0  0  3  0  0  0  0  0  0
  187.9370  177.5830  148.7830 O   0  0  0  0  0  1  0  0  0  0  0  0
  188.0310  177.6650  147.5300 C   0  0  0  0  0  0  0  0  0  0  0  0
  186.8800  177.7120  146.7540 O   0  0  0  0  0  0  0  0  0  0  0  0
  190.6350  175.9710  139.3290 N   0  0  0  0  0  2  0  0  0  0  0  0
  191.3500  175.6340  136.9700 C   0  0  0  0  0  3  0  0  0  0  0  0
  192.8500  176.6430  138.5580 C   0  0  0  0  0  3  0  0  0  0  0  0
  193.5570  176.3310  136.3140 C   0  0  0  0  0  0  0  0  0  0  0  0
  192.3270  175.7590  135.9830 C   0  0  0  0  0  3  0  0  0  0  0  0
  191.6030  176.0770  138.2750 C   0  0  0  0  0  0  0  0  0  0  0  0
  193.7910  176.7580  137.5830 N   0  0  0  0  0  0  0  0  0  0  0  0
  194.5180  176.4620  135.3680 F   0  0  0  0  0  0  0  0  0  0  0  0
  1  3  1  0  0  0  0
  2  3  2  0  0  0  0
  4  2  1  0  0  0  0
  5  6  1  0  0  0  0
  5  4  2  0  0  0  0
  6  1  2  0  0  0  0
  7  9  1  0  0  0  0
  8  2  1  6  0  0  0
  8 11  1  0  0  0  0
  8  7  1  0  0  0  0
  9 13  1  6  0  0  0
 11 12  1  0  0  0  0
 12 10  2  0  0  0  0
 12  9  1  0  0  0  0
 13 15  1  0  0  0  0
 15 14  1  6  0  0  0
 15 17  1  0  0  0  0
 17 16  1  0  0  0  0
 18 17  2  0  0  0  0
 19  4  1  0  0  0  0
 20 24  1  0  0  0  0
 22 25  2  0  0  0  0
 23 22  1  0  0  0  0
 23 20  2  0  0  0  0
 24 21  2  0  0  0  0
 24 19  1  0  0  0  0
 25 21  1  0  0  0  0
 26 22  1  0  0  0  0
M  END
>  <MODEL>
4

>  <REMARK>
 VINA RESULT:      -7.5      4.837      6.795
  Name = 
  6 active torsions:
  status: ('A' for Active; 'I' for Inactive)
    1  A    between atoms: N_5  and  C_14
    2  A    between atoms: N_5  and  C_19
    3  A    between atoms: C_8  and  C_9
    4  A    between atoms: C_11  and  C_25
    5  A    between atoms: C_15  and  C_16
    6  A    between atoms: C_15  and  C_25
                            x       y       z     vdW  Elec       q    Type
                         _______ _______ _______ _____ _____    ______ ____

>  <TORSDO>
F 6

$$$$
=
 OpenBabel11062417153D

 26 28  0  0  1  0  0  0  0  0999 V2000
  184.8970  178.3660  143.4310 C   0  0  0  0  0  3  0  0  0  0  0  0
  187.0700  177.9290  142.4670 C   0  0  0  0  0  0  0  0  0  0  0  0
  186.1720  177.8120  143.5360 C   0  0  0  0  0  3  0  0  0  0  0  0
  186.6700  178.5980  141.2960 C   0  0  0  0  0  0  0  0  0  0  0  0
  185.3760  179.1380  141.2410 C   0  0  0  0  0  3  0  0  0  0  0  0
  184.5280  179.0130  142.2950 N   0  0  0  0  0  0  0  0  0  0  0  0
  188.6700  176.6740  143.9360 C   0  0  0  0  0  2  0  0  0  0  0  0
  188.4410  177.3250  142.5630 C   0  0  2  0  0  3  0  0  0  0  0  0
  189.9880  177.2320  144.4780 C   0  0  1  0  0  3  0  0  0  0  0  0
  191.3920  178.9780  143.5660 O   0  0  0  0  0  0  0  0  0  0  0  0
  189.4690  178.3370  142.3920 N   0  0  0  0  0  2  0  0  0  0  0  0
  190.3620  178.2580  143.4810 C   0  0  0  0  0  0  0  0  0  0  0  0
  189.8270  177.8000  145.8940 C   0  0  0  0  0  2  0  0  0  0  0  0
  189.3590  177.1870  148.1670 O   0  0  0  0  0  1  0  0  0  0  0  0
  189.9970  176.7590  147.0020 C   0  0  2  0  0  3  0  0  0  0  0  0
  192.1050  175.7150  146.5760 O   0  0  0  0  0  0  0  0  0  0  0  0
  191.4450  176.5300  147.2710 C   0  0  0  0  0  0  0  0  0  0  0  0
  192.0650  177.2100  148.3120 O   0  0  0  0  0  1  0  0  0  0  0  0
  187.5870  178.7140  140.1940 N   0  0  0  0  0  2  0  0  0  0  0  0
  188.7460  177.0310  138.7750 C   0  0  0  0  0  3  0  0  0  0  0  0
  186.6600  177.9930  138.0560 C   0  0  0  0  0  3  0  0  0  0  0  0
  187.7460  176.3890  136.6820 C   0  0  0  0  0  0  0  0  0  0  0  0
  188.7840  176.2680  137.6070 C   0  0  0  0  0  3  0  0  0  0  0  0
  187.6770  177.9060  139.0110 C   0  0  0  0  0  0  0  0  0  0  0  0
  186.7140  177.2410  136.9230 N   0  0  0  0  0  0  0  0  0  0  0  0
  187.7660  175.6560  135.5430 F   0  0  0  0  0  0  0  0  0  0  0  0
  1  3  1  0  0  0  0
  2  3  2  0  0  0  0
  4  2  1  0  0  0  0
  5  4  2  0  0  0  0
  5  6  1  0  0  0  0
  6  1  2  0  0  0  0
  7  9  1  0  0  0  0
  8  2  1  1  0  0  0
  8  7  1  0  0  0  0
  9 13  1  1  0  0  0
 11  8  1  0  0  0  0
 11 12  1  0  0  0  0
 12 10  2  0  0  0  0
 12  9  1  0  0  0  0
 13 15  1  0  0  0  0
 15 17  1  0  0  0  0
 15 14  1  1  0  0  0
 16 17  2  0  0  0  0
 17 18  1  0  0  0  0
 19  4  1  0  0  0  0
 20 24  1  0  0  0  0
 21 24  2  0  0  0  0
 22 25  2  0  0  0  0
 22 23  1  0  0  0  0
 23 20  2  0  0  0  0
 24 19  1  0  0  0  0
 25 21  1  0  0  0  0
 26 22  1  0  0  0  0
M  END
>  <MODEL>
5

>  <REMARK>
 VINA RESULT:      -7.3      2.870      3.733
  Name = 
  6 active torsions:
  status: ('A' for Active; 'I' for Inactive)
    1  A    between atoms: N_5  and  C_14
    2  A    between atoms: N_5  and  C_19
    3  A    between atoms: C_8  and  C_9
    4  A    between atoms: C_11  and  C_25
    5  A    between atoms: C_15  and  C_16
    6  A    between atoms: C_15  and  C_25
                            x       y       z     vdW  Elec       q    Type
                         _______ _______ _______ _____ _____    ______ ____

>  <TORSDO>
F 6

$$$$
=
 OpenBabel11062417153D

 26 28  0  0  1  0  0  0  0  0999 V2000
  190.3760  176.5090  140.2920 C   0  0  0  0  0  3  0  0  0  0  0  0
  189.1340  177.9480  141.7860 C   0  0  0  0  0  0  0  0  0  0  0  0
  190.1960  177.0630  141.5590 C   0  0  0  0  0  3  0  0  0  0  0  0
  188.2660  178.2750  140.7280 C   0  0  0  0  0  0  0  0  0  0  0  0
  188.4900  177.6910  139.4730 C   0  0  0  0  0  3  0  0  0  0  0  0
  189.5260  176.8320  139.2830 N   0  0  0  0  0  0  0  0  0  0  0  0
  190.2320  178.5110  143.9700 C   0  0  0  0  0  2  0  0  0  0  0  0
  188.9380  178.5610  143.1420 C   0  0  2  0  0  3  0  0  0  0  0  0
  189.8720  177.8880  145.3210 C   0  0  1  0  0  3  0  0  0  0  0  0
  187.7770  176.9120  146.0370 O   0  0  0  0  0  0  0  0  0  0  0  0
  187.9210  177.8470  143.8950 N   0  0  0  0  0  2  0  0  0  0  0  0
  188.4580  177.4890  145.1490 C   0  0  0  0  0  0  0  0  0  0  0  0
  190.7910  176.7120  145.6710 C   0  0  0  0  0  2  0  0  0  0  0  0
  190.5100  177.5350  147.9080 O   0  0  0  0  0  1  0  0  0  0  0  0
  190.8660  176.4070  147.1670 C   0  0  2  0  0  3  0  0  0  0  0  0
  192.8310  175.0770  146.8720 O   0  0  0  0  0  0  0  0  0  0  0  0
  192.2440  175.9740  147.5330 C   0  0  0  0  0  0  0  0  0  0  0  0
  192.8780  176.5520  148.6250 O   0  0  0  0  0  1  0  0  0  0  0  0
  187.1790  179.1880  140.9560 N   0  0  0  0  0  2  0  0  0  0  0  0
  185.1160  178.7040  142.2610 C   0  0  0  0  0  3  0  0  0  0  0  0
  185.0290  178.8340  139.8590 C   0  0  0  0  0  3  0  0  0  0  0  0
  183.0460  178.3700  141.0800 C   0  0  0  0  0  0  0  0  0  0  0  0
  183.7480  178.4340  142.2850 C   0  0  0  0  0  3  0  0  0  0  0  0
  185.7740  178.9080  141.0400 C   0  0  0  0  0  0  0  0  0  0  0  0
  183.6950  178.5700  139.9030 N   0  0  0  0  0  0  0  0  0  0  0  0
  181.7170  178.1080  141.0850 F   0  0  0  0  0  0  0  0  0  0  0  0
  1  3  1  0  0  0  0
  3  2  2  0  0  0  0
  4 19  1  0  0  0  0
  4  2  1  0  0  0  0
  5  4  2  0  0  0  0
  6  5  1  0  0  0  0
  6  1  2  0  0  0  0
  7  9  1  0  0  0  0
  8  2  1  6  0  0  0
  8 11  1  0  0  0  0
  8  7  1  0  0  0  0
  9 13  1  6  0  0  0
 11 12  1  0  0  0  0
 12  9  1  0  0  0  0
 12 10  2  0  0  0  0
 13 15  1  0  0  0  0
 15 17  1  0  0  0  0
 15 14  1  1  0  0  0
 16 17  2  0  0  0  0
 17 18  1  0  0  0  0
 19 24  1  0  0  0  0
 20 23  1  0  0  0  0
 21 25  2  0  0  0  0
 21 24  1  0  0  0  0
 22 26  1  0  0  0  0
 22 23  2  0  0  0  0
 24 20  2  0  0  0  0
 25 22  1  0  0  0  0
M  END
>  <MODEL>
6

>  <REMARK>
 VINA RESULT:      -7.1      2.270      3.914
  Name = 
  6 active torsions:
  status: ('A' for Active; 'I' for Inactive)
    1  A    between atoms: N_5  and  C_14
    2  A    between atoms: N_5  and  C_19
    3  A    between atoms: C_8  and  C_9
    4  A    between atoms: C_11  and  C_25
    5  A    between atoms: C_15  and  C_16
    6  A    between atoms: C_15  and  C_25
                            x       y       z     vdW  Elec       q    Type
                         _______ _______ _______ _____ _____    ______ ____

>  <TORSDO>
F 6

$$$$
=
 OpenBabel11062417153D

 26 28  0  0  1  0  0  0  0  0999 V2000
  192.0180  177.4890  142.2490 C   0  0  0  0  0  3  0  0  0  0  0  0
  189.7520  177.3580  141.4170 C   0  0  0  0  0  0  0  0  0  0  0  0
  191.1120  177.6160  141.1970 C   0  0  0  0  0  3  0  0  0  0  0  0
  189.3190  176.9640  142.6950 C   0  0  0  0  0  0  0  0  0  0  0  0
  190.2710  176.8510  143.7200 C   0  0  0  0  0  3  0  0  0  0  0  0
  191.5820  177.1120  143.4800 N   0  0  0  0  0  0  0  0  0  0  0  0
  189.0390  176.4290  139.1980 C   0  0  0  0  0  2  0  0  0  0  0  0
  188.7690  177.4780  140.2880 C   0  0  2  0  0  3  0  0  0  0  0  0
  189.1110  177.1810  137.8670 C   0  0  1  0  0  3  0  0  0  0  0  0
  189.0730  179.5660  137.4610 O   0  0  0  0  0  0  0  0  0  0  0  0
  188.8580  178.7840  139.6570 N   0  0  0  0  0  2  0  0  0  0  0  0
  189.0290  178.6020  138.2690 C   0  0  0  0  0  0  0  0  0  0  0  0
  190.3930  176.8490  137.0920 C   0  0  0  0  0  2  0  0  0  0  0  0
  192.6580  176.7440  137.8780 O   0  0  0  0  0  1  0  0  0  0  0  0
  191.4300  176.0810  137.9120 C   0  0  2  0  0  3  0  0  0  0  0  0
  192.6730  174.3290  136.8610 O   0  0  0  0  0  0  0  0  0  0  0  0
  191.5850  174.6990  137.3760 C   0  0  0  0  0  0  0  0  0  0  0  0
  190.5120  173.8190  137.4270 O   0  0  0  0  0  1  0  0  0  0  0  0
  187.9250  176.6920  142.9220 N   0  0  0  0  0  2  0  0  0  0  0  0
  185.9240  178.0650  143.4700 C   0  0  0  0  0  3  0  0  0  0  0  0
  187.2770  177.1380  145.2310 C   0  0  0  0  0  3  0  0  0  0  0  0
  185.3730  178.4460  145.7820 C   0  0  0  0  0  0  0  0  0  0  0  0
  185.0890  178.6400  144.4290 C   0  0  0  0  0  3  0  0  0  0  0  0
  187.0330  177.3040  143.8650 C   0  0  0  0  0  0  0  0  0  0  0  0
  186.4510  177.7050  146.1520 N   0  0  0  0  0  0  0  0  0  0  0  0
  184.5730  178.9960  146.7260 F   0  0  0  0  0  0  0  0  0  0  0  0
  1  6  1  0  0  0  0
  2  4  2  0  0  0  0
  3  2  1  0  0  0  0
  3  1  2  0  0  0  0
  4 19  1  0  0  0  0
  4  5  1  0  0  0  0
  6  5  2  0  0  0  0
  7  8  1  0  0  0  0
  8  2  1  1  0  0  0
  9 13  1  1  0  0  0
  9 12  1  0  0  0  0
  9  7  1  0  0  0  0
 10 12  2  0  0  0  0
 11  8  1  0  0  0  0
 12 11  1  0  0  0  0
 13 15  1  0  0  0  0
 15 14  1  6  0  0  0
 16 17  2  0  0  0  0
 17 18  1  0  0  0  0
 17 15  1  0  0  0  0
 19 24  1  0  0  0  0
 20 24  2  0  0  0  0
 20 23  1  0  0  0  0
 21 25  2  0  0  0  0
 22 25  1  0  0  0  0
 22 26  1  0  0  0  0
 23 22  2  0  0  0  0
 24 21  1  0  0  0  0
M  END
>  <MODEL>
7

>  <REMARK>
 VINA RESULT:      -7.1      4.506      6.842
  Name = 
  6 active torsions:
  status: ('A' for Active; 'I' for Inactive)
    1  A    between atoms: N_5  and  C_14
    2  A    between atoms: N_5  and  C_19
    3  A    between atoms: C_8  and  C_9
    4  A    between atoms: C_11  and  C_25
    5  A    between atoms: C_15  and  C_16
    6  A    between atoms: C_15  and  C_25
                            x       y       z     vdW  Elec       q    Type
                         _______ _______ _______ _____ _____    ______ ____

>  <TORSDO>
F 6

$$$$
=
 OpenBabel11062417153D

 26 28  0  0  1  0  0  0  0  0999 V2000
  191.4400  178.6170  144.9170 C   0  0  0  0  0  3  0  0  0  0  0  0
  189.5340  177.4150  144.0440 C   0  0  0  0  0  0  0  0  0  0  0  0
  190.1920  178.0290  145.1180 C   0  0  0  0  0  3  0  0  0  0  0  0
  190.1370  177.4070  142.7740 C   0  0  0  0  0  0  0  0  0  0  0  0
  191.3940  178.0120  142.6250 C   0  0  0  0  0  3  0  0  0  0  0  0
  192.0110  178.5970  143.6850 N   0  0  0  0  0  0  0  0  0  0  0  0
  187.1530  177.3570  143.2560 C   0  0  0  0  0  2  0  0  0  0  0  0
  188.1830  176.7900  144.2450 C   0  0  2  0  0  3  0  0  0  0  0  0
  185.9430  177.8010  144.0810 C   0  0  1  0  0  3  0  0  0  0  0  0
  185.6850  177.8770  146.4850 O   0  0  0  0  0  0  0  0  0  0  0  0
  187.6820  177.0520  145.5830 N   0  0  0  0  0  2  0  0  0  0  0  0
  186.3900  177.6070  145.4780 C   0  0  0  0  0  0  0  0  0  0  0  0
  185.5430  179.2490  143.7730 C   0  0  0  0  0  2  0  0  0  0  0  0
  183.2230  178.6510  143.6250 O   0  0  0  0  0  1  0  0  0  0  0  0
  184.2330  179.3780  142.9950 C   0  0  2  0  0  3  0  0  0  0  0  0
  183.7880  177.8760  141.1880 O   0  0  0  0  0  1  0  0  0  0  0  0
  184.4170  178.8860  141.6000 C   0  0  0  0  0  0  0  0  0  0  0  0
  185.3050  179.5380  140.7530 O   0  0  0  0  0  0  0  0  0  0  0  0
  189.4610  176.7820  141.6690 N   0  0  0  0  0  2  0  0  0  0  0  0
  190.2160  176.6740  139.3010 C   0  0  0  0  0  3  0  0  0  0  0  0
  188.4710  178.2000  139.9480 C   0  0  0  0  0  3  0  0  0  0  0  0
  189.1730  178.1170  137.6810 C   0  0  0  0  0  0  0  0  0  0  0  0
  190.1090  177.1270  137.9850 C   0  0  0  0  0  3  0  0  0  0  0  0
  189.3930  177.2100  140.3000 C   0  0  0  0  0  0  0  0  0  0  0  0
  188.3800  178.6290  138.6600 N   0  0  0  0  0  0  0  0  0  0  0  0
  189.0560  178.5690  136.4090 F   0  0  0  0  0  0  0  0  0  0  0  0
  1  3  1  0  0  0  0
  2  3  2  0  0  0  0
  4  2  1  0  0  0  0
  5  4  2  0  0  0  0
  5  6  1  0  0  0  0
  6  1  2  0  0  0  0
  7  9  1  0  0  0  0
  7  8  1  0  0  0  0
  8  2  1  1  0  0  0
  8 11  1  0  0  0  0
  9 13  1  1  0  0  0
  9 12  1  0  0  0  0
 12 11  1  0  0  0  0
 12 10  2  0  0  0  0
 15 14  1  1  0  0  0
 15 13  1  0  0  0  0
 16 17  1  0  0  0  0
 17 15  1  0  0  0  0
 18 17  2  0  0  0  0
 19  4  1  0  0  0  0
 20 24  1  0  0  0  0
 21 24  2  0  0  0  0
 22 23  1  0  0  0  0
 22 25  2  0  0  0  0
 23 20  2  0  0  0  0
 24 19  1  0  0  0  0
 25 21  1  0  0  0  0
 26 22  1  0  0  0  0
M  END
>  <MODEL>
8

>  <REMARK>
 VINA RESULT:      -7.1      3.579      6.457
  Name = 
  6 active torsions:
  status: ('A' for Active; 'I' for Inactive)
    1  A    between atoms: N_5  and  C_14
    2  A    between atoms: N_5  and  C_19
    3  A    between atoms: C_8  and  C_9
    4  A    between atoms: C_11  and  C_25
    5  A    between atoms: C_15  and  C_16
    6  A    between atoms: C_15  and  C_25
                            x       y       z     vdW  Elec       q    Type
                         _______ _______ _______ _____ _____    ______ ____

>  <TORSDO>
F 6

$$$$
=
 OpenBabel11062417153D

 26 28  0  0  1  0  0  0  0  0999 V2000
  186.1270  178.6290  141.7350 C   0  0  0  0  0  3  0  0  0  0  0  0
  188.4200  177.9370  141.4070 C   0  0  0  0  0  0  0  0  0  0  0  0
  187.2640  178.5690  140.9300 C   0  0  0  0  0  3  0  0  0  0  0  0
  188.4220  177.3780  142.6970 C   0  0  0  0  0  0  0  0  0  0  0  0
  187.2530  177.4650  143.4670 C   0  0  0  0  0  3  0  0  0  0  0  0
  186.1440  178.0800  142.9780 N   0  0  0  0  0  0  0  0  0  0  0  0
  189.4320  178.5710  139.2000 C   0  0  0  0  0  2  0  0  0  0  0  0
  189.6540  177.8770  140.5540 C   0  0  2  0  0  3  0  0  0  0  0  0
  189.8690  177.5820  138.1170 C   0  0  1  0  0  3  0  0  0  0  0  0
  190.5530  175.2740  138.3500 O   0  0  0  0  0  0  0  0  0  0  0  0
  190.0280  176.5020  140.2730 N   0  0  0  0  0  2  0  0  0  0  0  0
  190.1720  176.3510  138.8780 C   0  0  0  0  0  0  0  0  0  0  0  0
  188.7810  177.3810  137.0560 C   0  0  0  0  0  2  0  0  0  0  0  0
  187.1970  175.5770  137.0370 O   0  0  0  0  0  1  0  0  0  0  0  0
  187.4710  176.8200  137.6100 C   0  0  2  0  0  3  0  0  0  0  0  0
  186.4890  178.9990  137.5330 O   0  0  0  0  0  1  0  0  0  0  0  0
  186.3510  177.7640  137.3310 C   0  0  0  0  0  0  0  0  0  0  0  0
  185.1400  177.2720  136.8630 O   0  0  0  0  0  0  0  0  0  0  0  0
  189.6090  176.7330  143.1910 N   0  0  0  0  0  2  0  0  0  0  0  0
  189.4000  177.1290  145.6390 C   0  0  0  0  0  3  0  0  0  0  0  0
  191.4890  176.3830  144.7060 C   0  0  0  0  0  3  0  0  0  0  0  0
  191.3170  176.7540  147.0450 C   0  0  0  0  0  0  0  0  0  0  0  0
  189.9800  177.1310  146.9080 C   0  0  0  0  0  3  0  0  0  0  0  0
  190.1540  176.7530  144.5190 C   0  0  0  0  0  0  0  0  0  0  0  0
  192.0380  176.3900  145.9510 N   0  0  0  0  0  0  0  0  0  0  0  0
  191.8960  176.7490  148.2690 F   0  0  0  0  0  0  0  0  0  0  0  0
  1  6  1  0  0  0  0
  2  4  2  0  0  0  0
  3  2  1  0  0  0  0
  3  1  2  0  0  0  0
  4 19  1  0  0  0  0
  4  5  1  0  0  0  0
  6  5  2  0  0  0  0
  7  8  1  0  0  0  0
  8  2  1  1  0  0  0
  9 13  1  6  0  0  0
  9 12  1  0  0  0  0
  9  7  1  0  0  0  0
 10 12  2  0  0  0  0
 11  8  1  0  0  0  0
 12 11  1  0  0  0  0
 13 15  1  0  0  0  0
 15 14  1  6  0  0  0
 17 16  1  0  0  0  0
 17 15  1  0  0  0  0
 18 17  2  0  0  0  0
 19 24  1  0  0  0  0
 20 23  1  0  0  0  0
 21 25  2  0  0  0  0
 22 26  1  0  0  0  0
 23 22  2  0  0  0  0
 24 21  1  0  0  0  0
 24 20  2  0  0  0  0
 25 22  1  0  0  0  0
M  END
>  <MODEL>
9

>  <REMARK>
 VINA RESULT:      -6.9      4.836      8.069
  Name = 
  6 active torsions:
  status: ('A' for Active; 'I' for Inactive)
    1  A    between atoms: N_5  and  C_14
    2  A    between atoms: N_5  and  C_19
    3  A    between atoms: C_8  and  C_9
    4  A    between atoms: C_11  and  C_25
    5  A    between atoms: C_15  and  C_16
    6  A    between atoms: C_15  and  C_25
                            x       y       z     vdW  Elec       q    Type
                         _______ _______ _______ _____ _____    ______ ____

>  <TORSDO>
F 6

$$$$
