=
 OpenBabel11062412223D

 43 49  0  0  1  0  0  0  0  0999 V2000
  184.8840  179.0930  139.1480 C   0  0  0  0  0  2  0  0  0  0  0  0
  183.3510  177.2560  139.6560 C   0  0  0  0  0  2  0  0  0  0  0  0
  183.4260  178.4820  141.8480 C   0  0  0  0  0  0  0  0  0  0  0  0
  183.0680  178.6460  137.8630 O   0  0  0  0  0  1  0  0  0  0  0  0
  185.3030  178.4400  143.5720 C   0  0  2  0  0  3  0  0  0  0  0  0
  185.8920  178.5330  139.9400 O   0  0  0  0  0  0  0  0  0  0  0  0
  181.2520  179.0490  142.2680 C   0  0  0  0  0  3  0  0  0  0  0  0
  182.8260  179.7490  144.0660 C   0  0  0  0  0  2  0  0  0  0  0  0
  182.4760  179.0980  142.7670 C   0  0  0  0  0  0  0  0  0  0  0  0
  184.0230  178.0420  138.6080 N   0  0  0  0  0  0  0  0  0  0  0  0
  181.2930  178.3650  140.9330 C   0  0  2  0  0  3  0  0  0  0  0  0
  185.7430  179.1320  141.1950 C   0  0  0  0  0  2  0  0  0  0  0  0
  184.3410  177.7770  144.4490 N   0  0  0  0  0  2  0  0  0  0  0  0
  182.7580  178.0790  140.7730 C   0  0  0  0  0  0  0  0  0  0  0  0
  183.4620  178.7730  145.0680 C   0  0  0  0  0  2  0  0  0  0  0  0
  184.9000  178.2410  142.1040 C   0  0  2  0  0  3  0  0  0  0  0  0
  179.8370  181.0190  137.8940 C   0  0  0  0  0  0  0  0  0  0  0  0
  180.6450  181.4550  138.9000 N   0  0  0  0  0  0  0  0  0  0  0  0
  181.1140  180.6190  139.8650 C   0  0  0  0  0  3  0  0  0  0  0  0
  179.9400  178.7890  138.8290 C   0  0  0  0  0  3  0  0  0  0  0  0
  179.4680  179.6630  137.8510 C   0  0  0  0  0  3  0  0  0  0  0  0
  180.7730  179.2650  139.8490 C   0  0  0  0  0  0  0  0  0  0  0  0
  180.3100  182.0490  135.6720 C   0  0  1  0  0  3  0  0  0  0  0  0
  181.4060  183.3120  137.4900 O   0  0  0  0  0  1  0  0  0  0  0  0
  178.9310  181.4300  135.5450 C   0  0  0  0  0  2  0  0  0  0  0  0
  180.2930  183.2000  136.6490 C   0  0  2  0  0  0  0  0  0  0  0  0
  179.3550  182.0280  136.8740 C   0  0  1  0  0  0  0  0  0  0  0  0
  180.4650  185.3560  136.6380 O   0  0  0  0  0  1  0  0  0  0  0  0
  179.6870  184.3830  136.2100 O   0  0  0  0  0  0  0  0  0  0  0  0
  186.6910  177.8610  143.8140 C   0  0  0  0  0  2  0  0  0  0  0  0
  186.9850  177.7530  145.3070 C   0  0  2  0  0  3  0  0  0  0  0  0
  186.5330  178.9920  146.0650 C   0  0  0  0  0  1  0  0  0  0  0  0
  188.4360  177.4210  145.5720 C   0  0  0  0  0  0  0  0  0  0  0  0
  188.8940  177.1310  146.8030 C   0  0  0  0  0  3  0  0  0  0  0  0
  192.0960  177.4180  141.1280 C   0  0  0  0  0  1  0  0  0  0  0  0
  191.1290  178.5240  143.1440 C   0  0  0  0  0  3  0  0  0  0  0  0
  189.4500  176.3520  143.5280 C   0  0  0  0  0  3  0  0  0  0  0  0
  191.1560  177.4300  142.2780 C   0  0  0  0  0  0  0  0  0  0  0  0
  190.3230  176.3760  142.4850 N   0  0  0  0  0  0  0  0  0  0  0  0
  189.3830  177.4280  144.4280 C   0  0  0  0  0  0  0  0  0  0  0  0
  190.2390  178.5180  144.2180 C   0  0  0  0  0  3  0  0  0  0  0  0
  188.2580  177.9930  148.9680 C   0  0  0  0  0  2  0  0  0  0  0  0
  188.0620  177.1030  148.0080 C   0  0  0  0  0  3  0  0  0  0  0  0
  1  6  1  0  0  0  0
  2 14  1  0  0  0  0
  3 16  1  0  0  0  0
  3  9  1  0  0  0  0
  4 10  1  0  0  0  0
  5 30  1  6  0  0  0
  5 13  1  0  0  0  0
  6 12  1  0  0  0  0
  7  9  2  0  0  0  0
  8 15  1  0  0  0  0
  9  8  1  0  0  0  0
 10  1  1  0  0  0  0
 10  2  1  0  0  0  0
 11 22  1  6  0  0  0
 11  7  1  0  0  0  0
 13 15  1  0  0  0  0
 14 11  1  0  0  0  0
 14  3  2  0  0  0  0
 16 12  1  6  0  0  0
 16  5  1  0  0  0  0
 17 18  1  0  0  0  0
 18 19  2  0  0  0  0
 20 22  2  0  0  0  0
 21 17  2  0  0  0  0
 21 20  1  0  0  0  0
 22 19  1  0  0  0  0
 23 25  1  6  0  0  0
 23 26  1  0  0  0  0
 23 27  1  0  0  0  0
 25 27  1  0  0  0  0
 26 27  1  0  0  0  0
 26 24  1  1  0  0  0
 27 17  1  1  0  0  0
 29 28  1  0  0  0  0
 29 26  1  0  0  0  0
 30 31  1  0  0  0  0
 31 33  1  0  0  0  0
 31 32  1  1  0  0  0
 33 34  2  0  0  0  0
 34 43  1  0  0  0  0
 35 38  1  0  0  0  0
 36 41  1  0  0  0  0
 37 40  1  0  0  0  0
 38 39  1  0  0  0  0
 38 36  2  0  0  0  0
 39 37  2  0  0  0  0
 40 33  1  0  0  0  0
 41 40  2  0  0  0  0
 43 42  2  0  0  0  0
M  END
>  <MODEL>
1

>  <REMARK>
 VINA RESULT:      -9.3      0.000      0.000
  Name = 
  8 active torsions:
  status: ('A' for Active; 'I' for Inactive)
    1  A    between atoms: C_9  and  C_11
    2  A    between atoms: C_9  and  C_16
    3  A    between atoms: C_16  and  C_18
    4  A    between atoms: C_18  and  C_35
    5  A    between atoms: C_22  and  C_40
    6  A    between atoms: C_24  and  C_26
    7  A    between atoms: C_25  and  O_43
    8  A    between atoms: C_27  and  C_39
                            x       y       z     vdW  Elec       q    Type
                         _______ _______ _______ _____ _____    ______ ____

>  <TORSDO>
F 8

$$$$
=
 OpenBabel11062412223D

 43 49  0  0  1  0  0  0  0  0999 V2000
  187.6320  177.0570  137.4500 C   0  0  0  0  0  2  0  0  0  0  0  0
  189.4020  178.7170  137.7550 C   0  0  0  0  0  2  0  0  0  0  0  0
  189.1830  177.7690  140.0720 C   0  0  0  0  0  0  0  0  0  0  0  0
  189.4810  177.1070  136.1340 O   0  0  0  0  0  1  0  0  0  0  0  0
  187.3430  178.2600  141.7670 C   0  0  2  0  0  3  0  0  0  0  0  0
  186.7160  177.8340  138.1660 O   0  0  0  0  0  0  0  0  0  0  0  0
  191.2640  176.9660  140.5680 C   0  0  0  0  0  3  0  0  0  0  0  0
  189.6260  176.6930  142.4230 C   0  0  0  0  0  2  0  0  0  0  0  0
  190.0490  177.1400  141.0620 C   0  0  0  0  0  0  0  0  0  0  0  0
  188.6220  177.9140  136.7990 N   0  0  0  0  0  0  0  0  0  0  0  0
  191.3040  177.4930  139.1640 C   0  0  2  0  0  3  0  0  0  0  0  0
  186.7930  177.3680  139.4810 C   0  0  0  0  0  2  0  0  0  0  0  0
  188.3940  178.8820  142.5700 N   0  0  0  0  0  2  0  0  0  0  0  0
  189.8890  177.9540  138.9630 C   0  0  0  0  0  0  0  0  0  0  0  0
  189.1360  177.8540  143.3040 C   0  0  0  0  0  2  0  0  0  0  0  0
  187.7560  178.2340  140.2890 C   0  0  2  0  0  3  0  0  0  0  0  0
  192.4670  174.4800  136.3420 C   0  0  0  0  0  0  0  0  0  0  0  0
  193.1570  175.6470  136.4700 N   0  0  0  0  0  0  0  0  0  0  0  0
  192.7970  176.6050  137.3650 C   0  0  0  0  0  3  0  0  0  0  0  0
  190.9580  175.2250  138.0810 C   0  0  0  0  0  3  0  0  0  0  0  0
  191.3420  174.2570  137.1550 C   0  0  0  0  0  3  0  0  0  0  0  0
  191.6890  176.4140  138.1930 C   0  0  0  0  0  0  0  0  0  0  0  0
  192.8810  172.0610  135.8930 C   0  0  1  0  0  3  0  0  0  0  0  0
  194.8930  173.1500  136.8260 O   0  0  0  0  0  1  0  0  0  0  0  0
  191.8740  172.5000  134.8470 C   0  0  0  0  0  2  0  0  0  0  0  0
  194.2120  172.7400  135.6740 C   0  0  2  0  0  0  0  0  0  0  0  0
  192.9380  173.4790  135.3070 C   0  0  1  0  0  0  0  0  0  0  0  0
  196.2210  172.5980  134.8870 O   0  0  0  0  0  1  0  0  0  0  0  0
  194.9760  172.2830  134.5940 O   0  0  0  0  0  0  0  0  0  0  0  0
  186.0480  179.0440  141.9330 C   0  0  0  0  0  2  0  0  0  0  0  0
  184.9240  178.1450  142.4360 C   0  0  2  0  0  3  0  0  0  0  0  0
  183.8100  178.0020  141.4090 C   0  0  0  0  0  1  0  0  0  0  0  0
  184.4040  178.5930  143.7820 C   0  0  0  0  0  0  0  0  0  0  0  0
  183.1760  179.1190  143.9400 C   0  0  0  0  0  3  0  0  0  0  0  0
  187.8280  178.0740  148.3820 C   0  0  0  0  0  1  0  0  0  0  0  0
  187.0490  177.2700  146.1520 C   0  0  0  0  0  3  0  0  0  0  0  0
  185.2310  179.3590  146.0350 C   0  0  0  0  0  3  0  0  0  0  0  0
  186.9500  178.1970  147.1900 C   0  0  0  0  0  0  0  0  0  0  0  0
  186.0500  179.2140  147.1110 N   0  0  0  0  0  0  0  0  0  0  0  0
  185.2910  178.4520  144.9650 C   0  0  0  0  0  0  0  0  0  0  0  0
  186.2160  177.4010  145.0410 C   0  0  0  0  0  3  0  0  0  0  0  0
  180.9180  179.3290  143.1060 C   0  0  0  0  0  2  0  0  0  0  0  0
  182.2170  179.3180  142.8510 C   0  0  0  0  0  3  0  0  0  0  0  0
  1  6  1  0  0  0  0
  2 14  1  0  0  0  0
  3 16  1  0  0  0  0
  3  9  1  0  0  0  0
  4 10  1  0  0  0  0
  5 30  1  6  0  0  0
  5 13  1  0  0  0  0
  6 12  1  0  0  0  0
  7  9  2  0  0  0  0
  8 15  1  0  0  0  0
  9  8  1  0  0  0  0
 10  1  1  0  0  0  0
 10  2  1  0  0  0  0
 11 22  1  6  0  0  0
 11  7  1  0  0  0  0
 13 15  1  0  0  0  0
 14 11  1  0  0  0  0
 14  3  2  0  0  0  0
 16 12  1  6  0  0  0
 16  5  1  0  0  0  0
 17 18  2  0  0  0  0
 17 21  1  0  0  0  0
 18 19  1  0  0  0  0
 19 22  2  0  0  0  0
 20 22  1  0  0  0  0
 21 20  2  0  0  0  0
 23 25  1  6  0  0  0
 25 27  1  0  0  0  0
 26 23  1  0  0  0  0
 26 24  1  1  0  0  0
 27 26  1  0  0  0  0
 27 23  1  0  0  0  0
 27 17  1  1  0  0  0
 29 28  1  0  0  0  0
 29 26  1  0  0  0  0
 30 31  1  0  0  0  0
 31 32  1  6  0  0  0
 31 33  1  0  0  0  0
 33 34  2  0  0  0  0
 33 40  1  0  0  0  0
 36 38  1  0  0  0  0
 37 39  1  0  0  0  0
 38 35  1  0  0  0  0
 39 38  2  0  0  0  0
 40 41  1  0  0  0  0
 40 37  2  0  0  0  0
 41 36  2  0  0  0  0
 43 42  2  0  0  0  0
 43 34  1  0  0  0  0
M  END
>  <MODEL>
2

>  <REMARK>
 VINA RESULT:      -8.5      4.775     10.018
  Name = 
  8 active torsions:
  status: ('A' for Active; 'I' for Inactive)
    1  A    between atoms: C_9  and  C_11
    2  A    between atoms: C_9  and  C_16
    3  A    between atoms: C_16  and  C_18
    4  A    between atoms: C_18  and  C_35
    5  A    between atoms: C_22  and  C_40
    6  A    between atoms: C_24  and  C_26
    7  A    between atoms: C_25  and  O_43
    8  A    between atoms: C_27  and  C_39
                            x       y       z     vdW  Elec       q    Type
                         _______ _______ _______ _____ _____    ______ ____

>  <TORSDO>
F 8

$$$$
=
 OpenBabel11062412223D

 43 49  0  0  1  0  0  0  0  0999 V2000
  187.3710  176.9510  136.4230 C   0  0  0  0  0  2  0  0  0  0  0  0
  188.7820  178.8370  137.0840 C   0  0  0  0  0  2  0  0  0  0  0  0
  187.7880  178.1430  139.2850 C   0  0  0  0  0  0  0  0  0  0  0  0
  189.5670  177.0720  135.8620 O   0  0  0  0  0  1  0  0  0  0  0  0
  185.4230  178.5980  140.1190 C   0  0  2  0  0  3  0  0  0  0  0  0
  186.2030  177.6880  136.6390 O   0  0  0  0  0  0  0  0  0  0  0  0
  189.5900  177.6600  140.6070 C   0  0  0  0  0  3  0  0  0  0  0  0
  187.4050  177.4060  141.7740 C   0  0  0  0  0  2  0  0  0  0  0  0
  188.2690  177.7410  140.6020 C   0  0  0  0  0  0  0  0  0  0  0  0
  188.4680  177.8400  136.0460 N   0  0  0  0  0  0  0  0  0  0  0  0
  190.1080  178.0220  139.2460 C   0  0  2  0  0  3  0  0  0  0  0  0
  185.8210  177.3890  137.9500 C   0  0  0  0  0  2  0  0  0  0  0  0
  186.0550  179.4320  141.1390 N   0  0  0  0  0  2  0  0  0  0  0  0
  188.8400  178.2820  138.4870 C   0  0  0  0  0  0  0  0  0  0  0  0
  186.5440  178.5920  142.2360 C   0  0  0  0  0  2  0  0  0  0  0  0
  186.3540  178.4530  138.9070 C   0  0  2  0  0  3  0  0  0  0  0  0
  192.2930  174.7310  137.5750 C   0  0  0  0  0  0  0  0  0  0  0  0
  190.9770  174.6230  137.9100 N   0  0  0  0  0  0  0  0  0  0  0  0
  190.2770  175.6620  138.4360 C   0  0  0  0  0  3  0  0  0  0  0  0
  192.2530  177.0330  138.3200 C   0  0  0  0  0  3  0  0  0  0  0  0
  192.9540  175.9540  137.7840 C   0  0  0  0  0  3  0  0  0  0  0  0
  190.9000  176.8930  138.6520 C   0  0  0  0  0  0  0  0  0  0  0  0
  193.8630  173.9240  135.8120 C   0  0  1  0  0  3  0  0  0  0  0  0
  191.5260  173.8660  135.0160 O   0  0  0  0  0  1  0  0  0  0  0  0
  194.5030  173.5360  137.1330 C   0  0  0  0  0  2  0  0  0  0  0  0
  192.5840  173.1530  135.5900 C   0  0  2  0  0  0  0  0  0  0  0  0
  192.9900  173.5130  137.0080 C   0  0  1  0  0  0  0  0  0  0  0  0
  191.5830  171.4690  134.6740 O   0  0  0  0  0  1  0  0  0  0  0  0
  192.7210  171.8020  135.2480 O   0  0  0  0  0  0  0  0  0  0  0  0
  184.1060  179.2340  139.6910 C   0  0  0  0  0  2  0  0  0  0  0  0
  182.9230  178.5500  140.3680 C   0  0  2  0  0  3  0  0  0  0  0  0
  182.7720  177.1040  139.9190 C   0  0  0  0  0  1  0  0  0  0  0  0
  181.6440  179.3360  140.1960 C   0  0  0  0  0  0  0  0  0  0  0  0
  180.7610  179.5020  141.1970 C   0  0  0  0  0  3  0  0  0  0  0  0
  180.5350  181.6890  135.0590 C   0  0  0  0  0  1  0  0  0  0  0  0
  180.7520  179.6850  136.5290 C   0  0  0  0  0  3  0  0  0  0  0  0
  181.4100  181.3240  138.6650 C   0  0  0  0  0  3  0  0  0  0  0  0
  180.8190  181.0700  136.3790 C   0  0  0  0  0  0  0  0  0  0  0  0
  181.1440  181.8550  137.4410 N   0  0  0  0  0  0  0  0  0  0  0  0
  181.3570  179.9360  138.8680 C   0  0  0  0  0  0  0  0  0  0  0  0
  181.0230  179.1220  137.7760 C   0  0  0  0  0  3  0  0  0  0  0  0
  179.9010  178.9240  143.3790 C   0  0  0  0  0  2  0  0  0  0  0  0
  180.9270  178.9520  142.5440 C   0  0  0  0  0  3  0  0  0  0  0  0
  1  6  1  0  0  0  0
  2 14  1  0  0  0  0
  3  9  1  0  0  0  0
  4 10  1  0  0  0  0
  5 30  1  6  0  0  0
  5 13  1  0  0  0  0
  6 12  1  0  0  0  0
  8 15  1  0  0  0  0
  9  7  2  0  0  0  0
  9  8  1  0  0  0  0
 10  1  1  0  0  0  0
 10  2  1  0  0  0  0
 11 22  1  6  0  0  0
 11  7  1  0  0  0  0
 13 15  1  0  0  0  0
 14 11  1  0  0  0  0
 14  3  2  0  0  0  0
 16 12  1  6  0  0  0
 16  3  1  0  0  0  0
 16  5  1  0  0  0  0
 17 21  2  0  0  0  0
 17 18  1  0  0  0  0
 18 19  2  0  0  0  0
 19 22  1  0  0  0  0
 20 22  2  0  0  0  0
 21 20  1  0  0  0  0
 23 27  1  0  0  0  0
 23 25  1  1  0  0  0
 26 24  1  6  0  0  0
 26 23  1  0  0  0  0
 26 27  1  0  0  0  0
 27 25  1  0  0  0  0
 27 17  1  1  0  0  0
 28 29  1  0  0  0  0
 29 26  1  0  0  0  0
 30 31  1  0  0  0  0
 31 32  1  6  0  0  0
 33 31  1  0  0  0  0
 33 34  2  0  0  0  0
 34 43  1  0  0  0  0
 35 38  1  0  0  0  0
 36 41  1  0  0  0  0
 37 40  1  0  0  0  0
 38 36  2  0  0  0  0
 38 39  1  0  0  0  0
 39 37  2  0  0  0  0
 40 33  1  0  0  0  0
 41 40  2  0  0  0  0
 43 42  2  0  0  0  0
M  END
>  <MODEL>
3

>  <REMARK>
 VINA RESULT:      -8.0      4.198     10.581
  Name = 
  8 active torsions:
  status: ('A' for Active; 'I' for Inactive)
    1  A    between atoms: C_9  and  C_11
    2  A    between atoms: C_9  and  C_16
    3  A    between atoms: C_16  and  C_18
    4  A    between atoms: C_18  and  C_35
    5  A    between atoms: C_22  and  C_40
    6  A    between atoms: C_24  and  C_26
    7  A    between atoms: C_25  and  O_43
    8  A    between atoms: C_27  and  C_39
                            x       y       z     vdW  Elec       q    Type
                         _______ _______ _______ _____ _____    ______ ____

>  <TORSDO>
F 8

$$$$
=
 OpenBabel11062412223D

 43 49  0  0  1  0  0  0  0  0999 V2000
  185.2260  178.2000  138.6420 C   0  0  0  0  0  2  0  0  0  0  0  0
  183.3590  179.7150  139.0920 C   0  0  0  0  0  2  0  0  0  0  0  0
  182.2190  177.4760  139.1150 C   0  0  0  0  0  0  0  0  0  0  0  0
  185.2970  179.7430  140.3040 O   0  0  0  0  0  1  0  0  0  0  0  0
  181.6010  176.0430  137.0990 C   0  0  2  0  0  3  0  0  0  0  0  0
  184.7530  177.9250  137.3550 O   0  0  0  0  0  0  0  0  0  0  0  0
  181.2620  177.3340  141.1860 C   0  0  0  0  0  3  0  0  0  0  0  0
  180.8040  175.3580  139.7430 C   0  0  0  0  0  2  0  0  0  0  0  0
  181.3880  176.7020  140.0310 C   0  0  0  0  0  0  0  0  0  0  0  0
  184.8210  179.5430  139.0530 N   0  0  0  0  0  0  0  0  0  0  0  0
  182.0210  178.6270  141.1230 C   0  0  2  0  0  3  0  0  0  0  0  0
  183.9760  176.7710  137.4910 C   0  0  0  0  0  2  0  0  0  0  0  0
  180.2130  176.2890  137.4820 N   0  0  0  0  0  2  0  0  0  0  0  0
  182.6120  178.5770  139.7440 C   0  0  0  0  0  0  0  0  0  0  0  0
  179.8230  175.3770  138.5600 C   0  0  0  0  0  2  0  0  0  0  0  0
  182.5060  177.1470  137.6640 C   0  0  2  0  0  3  0  0  0  0  0  0
  185.0830  178.7060  144.1250 C   0  0  0  0  0  0  0  0  0  0  0  0
  185.1740  177.9040  143.0280 N   0  0  0  0  0  0  0  0  0  0  0  0
  184.2100  177.8770  142.0700 C   0  0  0  0  0  3  0  0  0  0  0  0
  182.9550  179.5180  143.3070 C   0  0  0  0  0  3  0  0  0  0  0  0
  183.9540  179.5290  144.2800 C   0  0  0  0  0  3  0  0  0  0  0  0
  183.0780  178.6860  142.1880 C   0  0  0  0  0  0  0  0  0  0  0  0
  186.2290  177.2790  145.8210 C   0  0  1  0  0  3  0  0  0  0  0  0
  184.3700  178.5490  146.8360 O   0  0  0  0  0  1  0  0  0  0  0  0
  187.3050  177.6650  144.8230 C   0  0  0  0  0  2  0  0  0  0  0  0
  185.7440  178.4900  146.5810 C   0  0  2  0  0  0  0  0  0  0  0  0
  186.2020  178.6570  145.1440 C   0  0  1  0  0  0  0  0  0  0  0  0
  186.0550  180.1290  147.9570 O   0  0  0  0  0  1  0  0  0  0  0  0
  186.6100  179.0040  147.5540 O   0  0  0  0  0  0  0  0  0  0  0  0
  181.7090  176.0060  135.5810 C   0  0  0  0  0  2  0  0  0  0  0  0
  181.5890  174.5780  135.0580 C   0  0  2  0  0  3  0  0  0  0  0  0
  180.1590  174.2370  134.6670 C   0  0  0  0  0  1  0  0  0  0  0  0
  182.1700  173.5740  136.0260 C   0  0  0  0  0  0  0  0  0  0  0  0
  181.4000  172.7230  136.7280 C   0  0  0  0  0  3  0  0  0  0  0  0
  187.8860  173.4500  136.7060 C   0  0  0  0  0  1  0  0  0  0  0  0
  185.5840  173.0770  137.5930 C   0  0  0  0  0  3  0  0  0  0  0  0
  184.5170  173.9310  135.1820 C   0  0  0  0  0  3  0  0  0  0  0  0
  186.4100  173.4770  136.5430 C   0  0  0  0  0  0  0  0  0  0  0  0
  185.8640  173.8930  135.3690 N   0  0  0  0  0  0  0  0  0  0  0  0
  183.6430  173.5390  136.2090 C   0  0  0  0  0  0  0  0  0  0  0  0
  184.2000  173.1100  137.4220 C   0  0  0  0  0  3  0  0  0  0  0  0
  179.3060  171.5240  136.8430 C   0  0  0  0  0  2  0  0  0  0  0  0
  179.9390  172.6690  136.6420 C   0  0  0  0  0  3  0  0  0  0  0  0
  1 10  1  0  0  0  0
  2 14  1  0  0  0  0
  3 14  2  0  0  0  0
  3  9  1  0  0  0  0
  5 30  1  6  0  0  0
  5 13  1  0  0  0  0
  5 16  1  0  0  0  0
  6 12  1  0  0  0  0
  6  1  1  0  0  0  0
  8  9  1  0  0  0  0
  9  7  2  0  0  0  0
 10  2  1  0  0  0  0
 10  4  1  0  0  0  0
 11  7  1  0  0  0  0
 11 22  1  1  0  0  0
 13 15  1  0  0  0  0
 14 11  1  0  0  0  0
 15  8  1  0  0  0  0
 16 12  1  1  0  0  0
 16  3  1  0  0  0  0
 17 21  1  0  0  0  0
 18 17  2  0  0  0  0
 19 22  2  0  0  0  0
 19 18  1  0  0  0  0
 20 21  2  0  0  0  0
 22 20  1  0  0  0  0
 23 25  1  1  0  0  0
 23 26  1  0  0  0  0
 25 27  1  0  0  0  0
 26 24  1  1  0  0  0
 26 29  1  0  0  0  0
 27 17  1  6  0  0  0
 27 23  1  0  0  0  0
 27 26  1  0  0  0  0
 29 28  1  0  0  0  0
 31 32  1  1  0  0  0
 31 30  1  0  0  0  0
 31 33  1  0  0  0  0
 33 40  1  0  0  0  0
 33 34  2  0  0  0  0
 37 39  2  0  0  0  0
 37 40  1  0  0  0  0
 38 35  1  0  0  0  0
 38 36  2  0  0  0  0
 39 38  1  0  0  0  0
 40 41  2  0  0  0  0
 41 36  1  0  0  0  0
 43 34  1  0  0  0  0
 43 42  2  0  0  0  0
M  END
>  <MODEL>
4

>  <REMARK>
 VINA RESULT:      -7.7      4.132      9.116
  Name = 
  8 active torsions:
  status: ('A' for Active; 'I' for Inactive)
    1  A    between atoms: C_9  and  C_11
    2  A    between atoms: C_9  and  C_16
    3  A    between atoms: C_16  and  C_18
    4  A    between atoms: C_18  and  C_35
    5  A    between atoms: C_22  and  C_40
    6  A    between atoms: C_24  and  C_26
    7  A    between atoms: C_25  and  O_43
    8  A    between atoms: C_27  and  C_39
                            x       y       z     vdW  Elec       q    Type
                         _______ _______ _______ _____ _____    ______ ____

>  <TORSDO>
F 8

$$$$
=
 OpenBabel11062412223D

 43 49  0  0  1  0  0  0  0  0999 V2000
  187.6850  177.0970  136.5990 C   0  0  0  0  0  2  0  0  0  0  0  0
  189.4280  178.7030  137.2060 C   0  0  0  0  0  2  0  0  0  0  0  0
  188.7360  177.8210  139.4550 C   0  0  0  0  0  0  0  0  0  0  0  0
  189.7510  177.0500  135.6600 O   0  0  0  0  0  1  0  0  0  0  0  0
  186.6280  178.4170  140.7590 C   0  0  2  0  0  3  0  0  0  0  0  0
  186.6800  177.9230  137.1130 O   0  0  0  0  0  0  0  0  0  0  0  0
  190.6530  176.9600  140.3540 C   0  0  0  0  0  3  0  0  0  0  0  0
  188.6830  176.7900  141.8670 C   0  0  0  0  0  2  0  0  0  0  0  0
  189.3740  177.1880  140.6040 C   0  0  0  0  0  0  0  0  0  0  0  0
  188.8130  177.9030  136.1330 N   0  0  0  0  0  0  0  0  0  0  0  0
  190.9790  177.4500  138.9740 C   0  0  2  0  0  3  0  0  0  0  0  0
  186.4890  177.4870  138.4270 C   0  0  0  0  0  2  0  0  0  0  0  0
  187.5300  179.0230  141.7360 N   0  0  0  0  0  2  0  0  0  0  0  0
  189.6470  177.9540  138.4980 C   0  0  0  0  0  0  0  0  0  0  0  0
  188.0800  177.9890  142.6170 C   0  0  0  0  0  2  0  0  0  0  0  0
  187.3130  178.3400  139.3880 C   0  0  2  0  0  3  0  0  0  0  0  0
  192.5360  174.3310  136.4750 C   0  0  0  0  0  0  0  0  0  0  0  0
  193.1950  175.5100  136.6460 N   0  0  0  0  0  0  0  0  0  0  0  0
  192.7110  176.5020  137.4400 C   0  0  0  0  0  3  0  0  0  0  0  0
  190.7970  175.1340  137.9550 C   0  0  0  0  0  3  0  0  0  0  0  0
  191.3100  174.1300  137.1340 C   0  0  0  0  0  3  0  0  0  0  0  0
  191.4990  176.3340  138.1140 C   0  0  0  0  0  0  0  0  0  0  0  0
  192.8440  171.8840  136.0940 C   0  0  1  0  0  3  0  0  0  0  0  0
  194.6660  172.8050  137.4840 O   0  0  0  0  0  1  0  0  0  0  0  0
  192.1450  172.4030  134.8510 C   0  0  0  0  0  2  0  0  0  0  0  0
  194.2400  172.4500  136.1990 C   0  0  2  0  0  0  0  0  0  0  0  0
  193.1500  173.2920  135.5610 C   0  0  1  0  0  0  0  0  0  0  0  0
  196.3610  172.2700  135.8210 O   0  0  0  0  0  1  0  0  0  0  0  0
  195.1930  171.9280  135.3180 O   0  0  0  0  0  0  0  0  0  0  0  0
  185.3570  179.2490  140.6610 C   0  0  0  0  0  2  0  0  0  0  0  0
  184.3390  178.8200  141.7120 C   0  0  2  0  0  3  0  0  0  0  0  0
  184.8810  177.7140  142.6070 C   0  0  0  0  0  1  0  0  0  0  0  0
  183.0110  178.4510  141.0930 C   0  0  0  0  0  0  0  0  0  0  0  0
  181.8380  178.7040  141.7010 C   0  0  0  0  0  3  0  0  0  0  0  0
  183.0100  175.8690  135.9470 C   0  0  0  0  0  1  0  0  0  0  0  0
  183.0430  175.7460  138.4380 C   0  0  0  0  0  3  0  0  0  0  0  0
  182.9780  178.5140  138.5740 C   0  0  0  0  0  3  0  0  0  0  0  0
  183.0110  176.5230  137.2800 C   0  0  0  0  0  0  0  0  0  0  0  0
  182.9800  177.8800  137.3710 N   0  0  0  0  0  0  0  0  0  0  0  0
  183.0110  177.7780  139.7690 C   0  0  0  0  0  0  0  0  0  0  0  0
  183.0440  176.3780  139.6820 C   0  0  0  0  0  3  0  0  0  0  0  0
  181.4320  178.6280  144.0820 C   0  0  0  0  0  2  0  0  0  0  0  0
  181.7090  179.3520  143.0090 C   0  0  0  0  0  3  0  0  0  0  0  0
  1  6  1  0  0  0  0
  2 14  1  0  0  0  0
  3  9  1  0  0  0  0
  4 10  1  0  0  0  0
  5 30  1  6  0  0  0
  5 13  1  0  0  0  0
  6 12  1  0  0  0  0
  7  9  2  0  0  0  0
  8 15  1  0  0  0  0
  9  8  1  0  0  0  0
 10  1  1  0  0  0  0
 10  2  1  0  0  0  0
 11 22  1  6  0  0  0
 11  7  1  0  0  0  0
 13 15  1  0  0  0  0
 14 11  1  0  0  0  0
 14  3  2  0  0  0  0
 16 12  1  6  0  0  0
 16  3  1  0  0  0  0
 16  5  1  0  0  0  0
 17 18  2  0  0  0  0
 17 21  1  0  0  0  0
 18 19  1  0  0  0  0
 19 22  2  0  0  0  0
 20 22  1  0  0  0  0
 21 20  2  0  0  0  0
 23 25  1  6  0  0  0
 23 26  1  0  0  0  0
 25 27  1  0  0  0  0
 26 24  1  1  0  0  0
 27 23  1  0  0  0  0
 27 26  1  0  0  0  0
 27 17  1  1  0  0  0
 29 28  1  0  0  0  0
 29 26  1  0  0  0  0
 30 31  1  0  0  0  0
 31 32  1  6  0  0  0
 33 34  2  0  0  0  0
 33 31  1  0  0  0  0
 34 43  1  0  0  0  0
 35 38  1  0  0  0  0
 36 41  1  0  0  0  0
 37 40  1  0  0  0  0
 38 39  1  0  0  0  0
 38 36  2  0  0  0  0
 39 37  2  0  0  0  0
 40 33  1  0  0  0  0
 41 40  2  0  0  0  0
 43 42  2  0  0  0  0
M  END
>  <MODEL>
5

>  <REMARK>
 VINA RESULT:      -7.7      4.904     10.487
  Name = 
  8 active torsions:
  status: ('A' for Active; 'I' for Inactive)
    1  A    between atoms: C_9  and  C_11
    2  A    between atoms: C_9  and  C_16
    3  A    between atoms: C_16  and  C_18
    4  A    between atoms: C_18  and  C_35
    5  A    between atoms: C_22  and  C_40
    6  A    between atoms: C_24  and  C_26
    7  A    between atoms: C_25  and  O_43
    8  A    between atoms: C_27  and  C_39
                            x       y       z     vdW  Elec       q    Type
                         _______ _______ _______ _____ _____    ______ ____

>  <TORSDO>
F 8

$$$$
=
 OpenBabel11062412223D

 43 49  0  0  1  0  0  0  0  0999 V2000
  188.7940  178.6040  137.2680 C   0  0  0  0  0  2  0  0  0  0  0  0
  188.6800  176.6800  138.7730 C   0  0  0  0  0  2  0  0  0  0  0  0
  187.0960  175.9970  136.9460 C   0  0  0  0  0  0  0  0  0  0  0  0
  190.6540  177.5150  137.9780 O   0  0  0  0  0  1  0  0  0  0  0  0
  184.7210  176.8450  136.5710 C   0  0  2  0  0  3  0  0  0  0  0  0
  187.5040  179.0140  137.6190 O   0  0  0  0  0  0  0  0  0  0  0  0
  187.9410  174.0260  136.1540 C   0  0  0  0  0  3  0  0  0  0  0  0
  185.8290  174.7240  135.0330 C   0  0  0  0  0  2  0  0  0  0  0  0
  186.9350  174.8770  136.0260 C   0  0  0  0  0  0  0  0  0  0  0  0
  189.4180  177.8920  138.3820 N   0  0  0  0  0  0  0  0  0  0  0  0
  188.8780  174.5300  137.2120 C   0  0  2  0  0  3  0  0  0  0  0  0
  186.6660  178.4370  136.6600 C   0  0  0  0  0  2  0  0  0  0  0  0
  184.2980  175.4810  136.8790 N   0  0  0  0  0  2  0  0  0  0  0  0
  188.2280  175.8210  137.6170 C   0  0  0  0  0  0  0  0  0  0  0  0
  184.4450  174.6330  135.6940 C   0  0  0  0  0  2  0  0  0  0  0  0
  186.1030  177.1170  137.1820 C   0  0  2  0  0  3  0  0  0  0  0  0
  192.7720  175.1820  135.5350 C   0  0  0  0  0  0  0  0  0  0  0  0
  191.6600  175.7780  135.0210 N   0  0  0  0  0  0  0  0  0  0  0  0
  190.4230  175.5800  135.5490 C   0  0  0  0  0  3  0  0  0  0  0  0
  191.3810  174.1140  137.2030 C   0  0  0  0  0  3  0  0  0  0  0  0
  192.6400  174.3280  136.6450 C   0  0  0  0  0  3  0  0  0  0  0  0
  190.2560  174.7430  136.6550 C   0  0  0  0  0  0  0  0  0  0  0  0
  195.2480  175.0610  135.8150 C   0  0  1  0  0  3  0  0  0  0  0  0
  194.3680  177.2290  136.6060 O   0  0  0  0  0  1  0  0  0  0  0  0
  194.9370  174.2160  134.5940 C   0  0  0  0  0  2  0  0  0  0  0  0
  194.9480  176.5160  135.5500 C   0  0  2  0  0  0  0  0  0  0  0  0
  194.1040  175.4540  134.8690 C   0  0  1  0  0  0  0  0  0  0  0  0
  195.9070  178.4230  135.2020 O   0  0  0  0  0  1  0  0  0  0  0  0
  195.8460  177.1980  134.7210 O   0  0  0  0  0  0  0  0  0  0  0  0
  183.7020  177.8300  137.1280 C   0  0  0  0  0  2  0  0  0  0  0  0
  183.2760  177.4370  138.5390 C   0  0  2  0  0  3  0  0  0  0  0  0
  182.0150  176.5850  138.5340 C   0  0  0  0  0  1  0  0  0  0  0  0
  183.1460  178.6410  139.4430 C   0  0  0  0  0  0  0  0  0  0  0  0
  182.4330  179.7270  139.0970 C   0  0  0  0  0  3  0  0  0  0  0  0
  185.8740  178.5520  144.5130 C   0  0  0  0  0  1  0  0  0  0  0  0
  183.7640  178.5790  143.1820 C   0  0  0  0  0  3  0  0  0  0  0  0
  185.2440  178.6130  140.8390 C   0  0  0  0  0  3  0  0  0  0  0  0
  185.1590  178.5750  143.2110 C   0  0  0  0  0  0  0  0  0  0  0  0
  185.8650  178.5920  142.0490 N   0  0  0  0  0  0  0  0  0  0  0  0
  183.8430  178.6180  140.7550 C   0  0  0  0  0  0  0  0  0  0  0  0
  183.1100  178.6010  141.9500 C   0  0  0  0  0  3  0  0  0  0  0  0
  180.3890  179.8430  137.8140 C   0  0  0  0  0  2  0  0  0  0  0  0
  181.7120  179.8720  137.8300 C   0  0  0  0  0  3  0  0  0  0  0  0
  1  6  1  0  0  0  0
  1 10  1  0  0  0  0
  3 16  1  0  0  0  0
  3 14  2  0  0  0  0
  4 10  1  0  0  0  0
  5 13  1  0  0  0  0
  5 30  1  1  0  0  0
  5 16  1  0  0  0  0
  7 11  1  0  0  0  0
  8 15  1  0  0  0  0
  8  9  1  0  0  0  0
  9  7  2  0  0  0  0
  9  3  1  0  0  0  0
 10  2  1  0  0  0  0
 11 22  1  6  0  0  0
 11 14  1  0  0  0  0
 12  6  1  0  0  0  0
 14  2  1  0  0  0  0
 15 13  1  0  0  0  0
 16 12  1  6  0  0  0
 17 21  1  0  0  0  0
 18 17  2  0  0  0  0
 18 19  1  0  0  0  0
 19 22  2  0  0  0  0
 21 20  2  0  0  0  0
 22 20  1  0  0  0  0
 23 25  1  6  0  0  0
 25 27  1  0  0  0  0
 26 23  1  0  0  0  0
 26 24  1  1  0  0  0
 27 17  1  1  0  0  0
 27 26  1  0  0  0  0
 27 23  1  0  0  0  0
 29 28  1  0  0  0  0
 29 26  1  0  0  0  0
 30 31  1  0  0  0  0
 31 32  1  6  0  0  0
 31 33  1  0  0  0  0
 33 40  1  0  0  0  0
 34 33  2  0  0  0  0
 36 38  1  0  0  0  0
 37 39  1  0  0  0  0
 38 35  1  0  0  0  0
 39 38  2  0  0  0  0
 40 37  2  0  0  0  0
 40 41  1  0  0  0  0
 41 36  2  0  0  0  0
 42 43  2  0  0  0  0
 43 34  1  0  0  0  0
M  END
>  <MODEL>
6

>  <REMARK>
 VINA RESULT:      -7.6      5.119     10.576
  Name = 
  8 active torsions:
  status: ('A' for Active; 'I' for Inactive)
    1  A    between atoms: C_9  and  C_11
    2  A    between atoms: C_9  and  C_16
    3  A    between atoms: C_16  and  C_18
    4  A    between atoms: C_18  and  C_35
    5  A    between atoms: C_22  and  C_40
    6  A    between atoms: C_24  and  C_26
    7  A    between atoms: C_25  and  O_43
    8  A    between atoms: C_27  and  C_39
                            x       y       z     vdW  Elec       q    Type
                         _______ _______ _______ _____ _____    ______ ____

>  <TORSDO>
F 8

$$$$
=
 OpenBabel11062412223D

 43 49  0  0  1  0  0  0  0  0999 V2000
  188.2030  176.2170  135.9710 C   0  0  0  0  0  2  0  0  0  0  0  0
  189.6290  178.1630  136.3800 C   0  0  0  0  0  2  0  0  0  0  0  0
  188.8360  177.6110  138.7000 C   0  0  0  0  0  0  0  0  0  0  0  0
  190.3420  176.3260  135.2190 O   0  0  0  0  0  1  0  0  0  0  0  0
  186.5400  178.0940  139.6970 C   0  0  2  0  0  3  0  0  0  0  0  0
  187.0440  176.9540  136.2340 O   0  0  0  0  0  0  0  0  0  0  0  0
  190.7500  177.2440  139.8940 C   0  0  0  0  0  3  0  0  0  0  0  0
  188.6760  177.0450  141.2560 C   0  0  0  0  0  2  0  0  0  0  0  0
  189.4320  177.3070  139.9950 C   0  0  0  0  0  0  0  0  0  0  0  0
  189.2490  177.0920  135.4420 N   0  0  0  0  0  0  0  0  0  0  0  0
  191.1470  177.5170  138.4730 C   0  0  2  0  0  3  0  0  0  0  0  0
  186.7790  176.7420  137.5900 C   0  0  0  0  0  2  0  0  0  0  0  0
  187.2400  179.0040  140.6000 N   0  0  0  0  0  2  0  0  0  0  0  0
  189.8150  177.7080  137.8070 C   0  0  0  0  0  0  0  0  0  0  0  0
  187.8340  178.2490  141.7070 C   0  0  0  0  0  2  0  0  0  0  0  0
  187.3700  177.8760  138.4240 C   0  0  2  0  0  3  0  0  0  0  0  0
  193.3860  174.2780  136.7720 C   0  0  0  0  0  0  0  0  0  0  0  0
  193.8940  175.5400  136.8470 N   0  0  0  0  0  0  0  0  0  0  0  0
  193.1920  176.5710  137.3890 C   0  0  0  0  0  3  0  0  0  0  0  0
  191.3570  175.0730  137.8250 C   0  0  0  0  0  3  0  0  0  0  0  0
  192.0920  174.0300  137.2640 C   0  0  0  0  0  3  0  0  0  0  0  0
  191.9070  176.3590  137.8920 C   0  0  0  0  0  0  0  0  0  0  0  0
  193.7480  171.8160  136.5930 C   0  0  1  0  0  3  0  0  0  0  0  0
  195.0470  172.7740  138.4640 O   0  0  0  0  0  1  0  0  0  0  0  0
  193.4970  172.2930  135.1750 C   0  0  0  0  0  2  0  0  0  0  0  0
  195.0480  172.3730  137.1230 C   0  0  2  0  0  0  0  0  0  0  0  0
  194.2390  173.1990  136.1400 C   0  0  1  0  0  0  0  0  0  0  0  0
  197.1060  171.8980  137.5870 O   0  0  0  0  0  1  0  0  0  0  0  0
  196.2230  171.8080  136.6130 O   0  0  0  0  0  0  0  0  0  0  0  0
  185.1820  178.6820  139.3400 C   0  0  0  0  0  2  0  0  0  0  0  0
  184.0530  177.8780  139.9770 C   0  0  2  0  0  3  0  0  0  0  0  0
  183.3140  177.0300  138.9530 C   0  0  0  0  0  1  0  0  0  0  0  0
  183.1150  178.7570  140.7720 C   0  0  0  0  0  0  0  0  0  0  0  0
  183.2260  178.9080  142.1040 C   0  0  0  0  0  3  0  0  0  0  0  0
  178.9310  181.5260  137.9480 C   0  0  0  0  0  1  0  0  0  0  0  0
  179.6830  180.0420  139.8070 C   0  0  0  0  0  3  0  0  0  0  0  0
  182.2980  180.2520  138.9150 C   0  0  0  0  0  3  0  0  0  0  0  0
  180.0010  180.8070  138.6850 C   0  0  0  0  0  0  0  0  0  0  0  0
  181.2920  180.8960  138.2650 N   0  0  0  0  0  0  0  0  0  0  0  0
  182.0300  179.4690  140.0490 C   0  0  0  0  0  0  0  0  0  0  0  0
  180.7010  179.3730  140.4860 C   0  0  0  0  0  3  0  0  0  0  0  0
  184.8630  178.9300  143.8800 C   0  0  0  0  0  2  0  0  0  0  0  0
  184.2440  178.2520  142.9270 C   0  0  0  0  0  3  0  0  0  0  0  0
  1  6  1  0  0  0  0
  2 14  1  0  0  0  0
  3  9  1  0  0  0  0
  4 10  1  0  0  0  0
  5 30  1  6  0  0  0
  5 13  1  0  0  0  0
  6 12  1  0  0  0  0
  7  9  2  0  0  0  0
  8 15  1  0  0  0  0
  9  8  1  0  0  0  0
 10  1  1  0  0  0  0
 10  2  1  0  0  0  0
 11 22  1  6  0  0  0
 11  7  1  0  0  0  0
 13 15  1  0  0  0  0
 14 11  1  0  0  0  0
 14  3  2  0  0  0  0
 16 12  1  1  0  0  0
 16  3  1  0  0  0  0
 16  5  1  0  0  0  0
 17 18  2  0  0  0  0
 17 21  1  0  0  0  0
 18 19  1  0  0  0  0
 19 22  2  0  0  0  0
 20 22  1  0  0  0  0
 21 20  2  0  0  0  0
 23 25  1  6  0  0  0
 23 26  1  0  0  0  0
 25 27  1  0  0  0  0
 26 24  1  1  0  0  0
 27 23  1  0  0  0  0
 27 17  1  1  0  0  0
 27 26  1  0  0  0  0
 29 26  1  0  0  0  0
 29 28  1  0  0  0  0
 30 31  1  0  0  0  0
 31 32  1  6  0  0  0
 31 33  1  0  0  0  0
 33 34  2  0  0  0  0
 34 43  1  0  0  0  0
 35 38  1  0  0  0  0
 36 41  1  0  0  0  0
 37 40  1  0  0  0  0
 38 36  2  0  0  0  0
 39 38  1  0  0  0  0
 39 37  2  0  0  0  0
 40 41  2  0  0  0  0
 40 33  1  0  0  0  0
 43 42  2  0  0  0  0
M  END
>  <MODEL>
7

>  <REMARK>
 VINA RESULT:      -7.5      5.053     11.222
  Name = 
  8 active torsions:
  status: ('A' for Active; 'I' for Inactive)
    1  A    between atoms: C_9  and  C_11
    2  A    between atoms: C_9  and  C_16
    3  A    between atoms: C_16  and  C_18
    4  A    between atoms: C_18  and  C_35
    5  A    between atoms: C_22  and  C_40
    6  A    between atoms: C_24  and  C_26
    7  A    between atoms: C_25  and  O_43
    8  A    between atoms: C_27  and  C_39
                            x       y       z     vdW  Elec       q    Type
                         _______ _______ _______ _____ _____    ______ ____

>  <TORSDO>
F 8

$$$$
=
 OpenBabel11062412223D

 43 49  0  0  1  0  0  0  0  0999 V2000
  187.6000  177.0220  136.2410 C   0  0  0  0  0  2  0  0  0  0  0  0
  189.0500  178.8420  136.9980 C   0  0  0  0  0  2  0  0  0  0  0  0
  187.9250  178.1580  139.1380 C   0  0  0  0  0  0  0  0  0  0  0  0
  189.8240  177.0640  135.7870 O   0  0  0  0  0  1  0  0  0  0  0  0
  185.5420  178.6960  139.8650 C   0  0  2  0  0  3  0  0  0  0  0  0
  186.4530  177.8030  136.4130 O   0  0  0  0  0  0  0  0  0  0  0  0
  189.6410  177.5860  140.5360 C   0  0  0  0  0  3  0  0  0  0  0  0
  187.3950  177.4030  141.5940 C   0  0  0  0  0  2  0  0  0  0  0  0
  188.3260  177.7190  140.4700 C   0  0  0  0  0  0  0  0  0  0  0  0
  188.7480  177.8730  135.9300 N   0  0  0  0  0  0  0  0  0  0  0  0
  190.2380  177.9460  139.2080 C   0  0  2  0  0  3  0  0  0  0  0  0
  185.9970  177.5010  137.7000 C   0  0  0  0  0  2  0  0  0  0  0  0
  186.1560  179.4890  140.9270 N   0  0  0  0  0  2  0  0  0  0  0  0
  189.0190  178.2670  138.3930 C   0  0  0  0  0  0  0  0  0  0  0  0
  186.5590  178.6160  142.0330 C   0  0  0  0  0  2  0  0  0  0  0  0
  186.5240  178.5300  138.6970 C   0  0  2  0  0  3  0  0  0  0  0  0
  192.3720  174.5930  137.5930 C   0  0  0  0  0  0  0  0  0  0  0  0
  191.0440  174.5250  137.8880 N   0  0  0  0  0  0  0  0  0  0  0  0
  190.3590  175.5840  138.3950 C   0  0  0  0  0  3  0  0  0  0  0  0
  192.3800  176.8940  138.3440 C   0  0  0  0  0  3  0  0  0  0  0  0
  193.0630  175.7950  137.8270 C   0  0  0  0  0  3  0  0  0  0  0  0
  191.0130  176.7950  138.6340 C   0  0  0  0  0  0  0  0  0  0  0  0
  193.9900  173.7460  135.8940 C   0  0  1  0  0  3  0  0  0  0  0  0
  191.6900  173.7840  134.9930 O   0  0  0  0  0  1  0  0  0  0  0  0
  194.5540  173.3210  137.2370 C   0  0  0  0  0  2  0  0  0  0  0  0
  192.6940  173.0260  135.6050 C   0  0  2  0  0  0  0  0  0  0  0  0
  193.0490  173.3560  137.0440 C   0  0  1  0  0  0  0  0  0  0  0  0
  191.6380  171.3660  134.7080 O   0  0  0  0  0  1  0  0  0  0  0  0
  192.7970  171.6750  135.2530 O   0  0  0  0  0  0  0  0  0  0  0  0
  184.2730  179.3890  139.3860 C   0  0  0  0  0  2  0  0  0  0  0  0
  183.0320  178.7210  139.9660 C   0  0  2  0  0  3  0  0  0  0  0  0
  183.3850  177.5030  140.8080 C   0  0  0  0  0  1  0  0  0  0  0  0
  182.0140  178.3980  138.8970 C   0  0  0  0  0  0  0  0  0  0  0  0
  181.2170  179.3370  138.3550 C   0  0  0  0  0  3  0  0  0  0  0  0
  181.5060  172.9350  137.1510 C   0  0  0  0  0  1  0  0  0  0  0  0
  182.6360  175.1560  137.0350 C   0  0  0  0  0  3  0  0  0  0  0  0
  180.9110  176.1330  138.9720 C   0  0  0  0  0  3  0  0  0  0  0  0
  181.6470  174.3460  137.5930 C   0  0  0  0  0  0  0  0  0  0  0  0
  180.8120  174.8470  138.5420 N   0  0  0  0  0  0  0  0  0  0  0  0
  181.8890  176.9900  138.4420 C   0  0  0  0  0  0  0  0  0  0  0  0
  182.7530  176.4790  137.4620 C   0  0  0  0  0  3  0  0  0  0  0  0
  180.2640  181.2570  139.4690 C   0  0  0  0  0  2  0  0  0  0  0  0
  181.2380  180.7530  138.7290 C   0  0  0  0  0  3  0  0  0  0  0  0
  1  6  1  0  0  0  0
  2 14  1  0  0  0  0
  3  9  1  0  0  0  0
  4 10  1  0  0  0  0
  5 30  1  6  0  0  0
  5 13  1  0  0  0  0
  6 12  1  0  0  0  0
  8 15  1  0  0  0  0
  9  7  2  0  0  0  0
  9  8  1  0  0  0  0
 10  1  1  0  0  0  0
 10  2  1  0  0  0  0
 11 22  1  6  0  0  0
 11  7  1  0  0  0  0
 13 15  1  0  0  0  0
 14  3  2  0  0  0  0
 14 11  1  0  0  0  0
 16 12  1  6  0  0  0
 16  3  1  0  0  0  0
 16  5  1  0  0  0  0
 17 21  2  0  0  0  0
 17 18  1  0  0  0  0
 18 19  2  0  0  0  0
 19 22  1  0  0  0  0
 20 22  2  0  0  0  0
 21 20  1  0  0  0  0
 23 27  1  0  0  0  0
 23 25  1  1  0  0  0
 26 24  1  6  0  0  0
 26 23  1  0  0  0  0
 26 27  1  0  0  0  0
 27 25  1  0  0  0  0
 27 17  1  1  0  0  0
 28 29  1  0  0  0  0
 29 26  1  0  0  0  0
 30 31  1  0  0  0  0
 31 32  1  6  0  0  0
 33 31  1  0  0  0  0
 34 43  1  0  0  0  0
 34 33  2  0  0  0  0
 35 38  1  0  0  0  0
 36 41  2  0  0  0  0
 36 38  1  0  0  0  0
 38 39  2  0  0  0  0
 39 37  1  0  0  0  0
 40 33  1  0  0  0  0
 40 37  2  0  0  0  0
 41 40  1  0  0  0  0
 43 42  2  0  0  0  0
M  END
>  <MODEL>
8

>  <REMARK>
 VINA RESULT:      -7.4      4.493     10.642
  Name = 
  8 active torsions:
  status: ('A' for Active; 'I' for Inactive)
    1  A    between atoms: C_9  and  C_11
    2  A    between atoms: C_9  and  C_16
    3  A    between atoms: C_16  and  C_18
    4  A    between atoms: C_18  and  C_35
    5  A    between atoms: C_22  and  C_40
    6  A    between atoms: C_24  and  C_26
    7  A    between atoms: C_25  and  O_43
    8  A    between atoms: C_27  and  C_39
                            x       y       z     vdW  Elec       q    Type
                         _______ _______ _______ _____ _____    ______ ____

>  <TORSDO>
F 8

$$$$
=
 OpenBabel11062412223D

 43 49  0  0  1  0  0  0  0  0999 V2000
  186.2260  174.0150  136.2380 C   0  0  0  0  0  2  0  0  0  0  0  0
  186.3760  175.9200  134.7120 C   0  0  0  0  0  2  0  0  0  0  0  0
  185.9440  177.0570  136.9110 C   0  0  0  0  0  0  0  0  0  0  0  0
  187.9910  174.3080  134.8420 O   0  0  0  0  0  1  0  0  0  0  0  0
  183.7220  177.2150  138.1510 C   0  0  2  0  0  3  0  0  0  0  0  0
  184.8460  174.1850  136.3900 O   0  0  0  0  0  0  0  0  0  0  0  0
  187.7250  178.4600  137.1970 C   0  0  0  0  0  3  0  0  0  0  0  0
  186.0470  178.5990  139.0310 C   0  0  0  0  0  2  0  0  0  0  0  0
  186.5760  178.0810  137.7340 C   0  0  0  0  0  0  0  0  0  0  0  0
  186.6520  174.4890  134.9230 N   0  0  0  0  0  0  0  0  0  0  0  0
  187.9490  177.6950  135.9260 C   0  0  2  0  0  3  0  0  0  0  0  0
  184.7010  174.9850  137.5280 C   0  0  0  0  0  2  0  0  0  0  0  0
  183.8020  178.6510  137.8970 N   0  0  0  0  0  2  0  0  0  0  0  0
  186.7400  176.8070  135.8780 C   0  0  0  0  0  0  0  0  0  0  0  0
  184.6800  179.2850  138.8840 C   0  0  0  0  0  2  0  0  0  0  0  0
  184.5710  176.4510  137.1250 C   0  0  2  0  0  3  0  0  0  0  0  0
  191.6040  175.4520  135.9990 C   0  0  0  0  0  0  0  0  0  0  0  0
  191.2170  176.1560  134.9000 N   0  0  0  0  0  0  0  0  0  0  0  0
  190.0620  176.8740  134.8710 C   0  0  0  0  0  3  0  0  0  0  0  0
  189.5960  176.1880  137.1320 C   0  0  0  0  0  3  0  0  0  0  0  0
  190.7830  175.4570  137.1410 C   0  0  0  0  0  3  0  0  0  0  0  0
  189.2260  176.9070  135.9880 C   0  0  0  0  0  0  0  0  0  0  0  0
  193.4080  174.3820  137.3510 C   0  0  1  0  0  3  0  0  0  0  0  0
  193.9440  176.7430  136.8600 O   0  0  0  0  0  1  0  0  0  0  0  0
  192.8250  173.2690  136.5010 C   0  0  0  0  0  2  0  0  0  0  0  0
  194.1090  175.4040  136.4880 C   0  0  2  0  0  0  0  0  0  0  0  0
  192.9010  174.6730  135.9310 C   0  0  1  0  0  0  0  0  0  0  0  0
  196.2170  175.8830  136.4390 O   0  0  0  0  0  1  0  0  0  0  0  0
  195.3450  175.0240  135.9510 O   0  0  0  0  0  0  0  0  0  0  0  0
  182.2690  176.7660  138.0630 C   0  0  0  0  0  2  0  0  0  0  0  0
  181.6580  176.6170  139.4520 C   0  0  2  0  0  3  0  0  0  0  0  0
  180.4180  175.7350  139.4340 C   0  0  0  0  0  1  0  0  0  0  0  0
  181.3930  177.9580  140.0970 C   0  0  0  0  0  0  0  0  0  0  0  0
  180.5930  178.8810  139.5350 C   0  0  0  0  0  3  0  0  0  0  0  0
  183.9160  179.1420  145.1360 C   0  0  0  0  0  1  0  0  0  0  0  0
  184.0400  178.3100  142.7870 C   0  0  0  0  0  3  0  0  0  0  0  0
  181.3270  178.7880  142.4760 C   0  0  0  0  0  3  0  0  0  0  0  0
  183.2760  178.8320  143.8310 C   0  0  0  0  0  0  0  0  0  0  0  0
  181.9470  179.0580  143.6560 N   0  0  0  0  0  0  0  0  0  0  0  0
  182.0510  178.2610  141.3940 C   0  0  0  0  0  0  0  0  0  0  0  0
  183.4220  178.0250  141.5690 C   0  0  0  0  0  3  0  0  0  0  0  0
  180.1790  179.4980  137.2360 C   0  0  0  0  0  2  0  0  0  0  0  0
  179.8990  178.7040  138.2570 C   0  0  0  0  0  3  0  0  0  0  0  0
  1  6  1  0  0  0  0
  2 10  1  0  0  0  0
  2 14  1  0  0  0  0
  3 16  1  0  0  0  0
  3  9  1  0  0  0  0
  4 10  1  0  0  0  0
  5 30  1  6  0  0  0
  6 12  1  0  0  0  0
  7  9  2  0  0  0  0
  9  8  1  0  0  0  0
 10  1  1  0  0  0  0
 11 22  1  1  0  0  0
 11  7  1  0  0  0  0
 13  5  1  0  0  0  0
 13 15  1  0  0  0  0
 14 11  1  0  0  0  0
 14  3  2  0  0  0  0
 15  8  1  0  0  0  0
 16 12  1  1  0  0  0
 16  5  1  0  0  0  0
 17 21  1  0  0  0  0
 18 17  2  0  0  0  0
 19 18  1  0  0  0  0
 19 22  2  0  0  0  0
 20 21  2  0  0  0  0
 22 20  1  0  0  0  0
 23 25  1  6  0  0  0
 26 24  1  1  0  0  0
 26 23  1  0  0  0  0
 27 17  1  6  0  0  0
 27 26  1  0  0  0  0
 27 25  1  0  0  0  0
 27 23  1  0  0  0  0
 29 28  1  0  0  0  0
 29 26  1  0  0  0  0
 30 31  1  0  0  0  0
 31 32  1  6  0  0  0
 31 33  1  0  0  0  0
 33 40  1  0  0  0  0
 34 33  2  0  0  0  0
 36 38  1  0  0  0  0
 37 39  1  0  0  0  0
 38 35  1  0  0  0  0
 39 38  2  0  0  0  0
 40 41  1  0  0  0  0
 40 37  2  0  0  0  0
 41 36  2  0  0  0  0
 42 43  2  0  0  0  0
 43 34  1  0  0  0  0
M  END
>  <MODEL>
9

>  <REMARK>
 VINA RESULT:      -7.4      4.716     10.297
  Name = 
  8 active torsions:
  status: ('A' for Active; 'I' for Inactive)
    1  A    between atoms: C_9  and  C_11
    2  A    between atoms: C_9  and  C_16
    3  A    between atoms: C_16  and  C_18
    4  A    between atoms: C_18  and  C_35
    5  A    between atoms: C_22  and  C_40
    6  A    between atoms: C_24  and  C_26
    7  A    between atoms: C_25  and  O_43
    8  A    between atoms: C_27  and  C_39
                            x       y       z     vdW  Elec       q    Type
                         _______ _______ _______ _____ _____    ______ ____

>  <TORSDO>
F 8

$$$$
