=
 OpenBabel11062416353D

 29 31  0  0  1  0  0  0  0  0999 V2000
  187.5530  177.7350  145.5440 C   0  0  0  0  0  0  0  0  0  0  0  0
  188.8960  176.2860  144.2200 O   0  0  0  0  0  1  0  0  0  0  0  0
  187.3960  178.6890  146.6780 C   0  0  0  0  0  2  0  0  0  0  0  0
  188.5610  177.3600  148.3590 N   0  0  0  0  0  0  0  0  0  0  0  0
  189.8850  177.2100  146.2680 C   0  0  0  0  0  0  0  0  0  0  0  0
  188.7240  177.0880  145.3460 C   0  0  0  0  0  0  0  0  0  0  0  0
  189.7840  177.2680  147.6100 C   0  0  0  0  0  3  0  0  0  0  0  0
  187.4780  177.9610  147.9750 C   0  0  0  0  0  3  0  0  0  0  0  0
  186.3720  177.6090  144.6620 C   0  0  0  0  0  3  0  0  0  0  0  0
  185.4070  178.5160  144.5390 C   0  0  0  0  0  3  0  0  0  0  0  0
  184.5490  178.9320  142.2650 C   0  0  0  0  0  2  0  0  0  0  0  0
  181.9260  179.2840  143.1870 C   0  0  0  0  0  2  0  0  0  0  0  0
  182.0490  178.4620  141.9070 C   0  0  0  0  0  2  0  0  0  0  0  0
  182.9600  178.8450  144.2310 C   0  0  0  0  0  2  0  0  0  0  0  0
  184.2580  178.2890  143.6180 C   0  0  0  0  0  3  0  0  0  0  0  0
  183.4270  178.6430  141.2570 C   0  0  0  0  0  2  0  0  0  0  0  0
  191.2520  177.0750  145.6650 C   0  0  1  0  0  3  0  0  0  0  0  0
  191.9100  175.8710  146.1500 N   0  0  0  0  0  1  0  0  0  0  0  0
  191.7400  179.2950  143.9410 O   0  0  0  0  0  0  0  0  0  0  0  0
  191.1650  177.0480  144.2100 N   0  0  0  0  0  2  0  0  0  0  0  0
  191.4310  178.1960  143.4030 C   0  0  0  0  0  0  0  0  0  0  0  0
  191.3440  178.0850  142.0140 O   0  0  0  0  0  0  0  0  0  0  0  0
  190.3760  177.2610  141.3730 C   0  0  1  0  0  3  0  0  0  0  0  0
  189.0170  177.9370  141.4500 C   0  0  0  0  0  2  0  0  0  0  0  0
  188.7250  178.5870  140.1670 N   0  0  0  0  0  0  0  0  0  0  0  0
  187.3640  178.2290  139.8090 C   0  0  0  0  0  1  0  0  0  0  0  0
  191.5520  176.6500  139.3990 O   0  0  0  0  0  0  0  0  0  0  0  0
  190.6180  177.2360  139.9220 C   0  0  0  0  0  0  0  0  0  0  0  0
  189.6020  177.9870  139.1650 C   0  0  0  0  0  2  0  0  0  0  0  0
  1  3  1  0  0  0  0
  2  6  1  0  0  0  0
  3  8  1  0  0  0  0
  5  7  2  0  0  0  0
  6  1  2  0  0  0  0
  6  5  1  0  0  0  0
  7  4  1  0  0  0  0
  8  4  2  0  0  0  0
  9  1  1  0  0  0  0
 10  9  2  0  0  0  0
 11 15  1  0  0  0  0
 12 14  1  0  0  0  0
 13 12  1  0  0  0  0
 15 14  1  0  0  0  0
 15 10  1  0  0  0  0
 16 13  1  0  0  0  0
 16 11  1  0  0  0  0
 17 18  1  1  0  0  0
 17  5  1  0  0  0  0
 20 17  1  0  0  0  0
 21 19  2  0  0  0  0
 21 20  1  0  0  0  0
 22 21  1  0  0  0  0
 23 24  1  0  0  0  0
 23 22  1  1  0  0  0
 25 24  1  0  0  0  0
 26 25  1  0  0  0  0
 27 28  2  0  0  0  0
 28 23  1  0  0  0  0
 29 28  1  0  0  0  0
 29 25  1  0  0  0  0
M  END
>  <MODEL>
1

>  <REMARK>
 VINA RESULT:      -9.1      0.000      0.000
  Name = 
  6 active torsions:
  status: ('A' for Active; 'I' for Inactive)
    1  A    between atoms: C_2  and  C_6
    2  A    between atoms: N_4  and  C_10
    3  A    between atoms: C_5  and  O_25
    4  A    between atoms: C_7  and  O_25
    5  A    between atoms: C_10  and  C_21
    6  A    between atoms: C_15  and  C_27
                            x       y       z     vdW  Elec       q    Type
                         _______ _______ _______ _____ _____    ______ ____

>  <TORSDO>
F 6

$$$$
=
 OpenBabel11062416353D

 29 31  0  0  1  0  0  0  0  0999 V2000
  187.0580  178.0230  145.6090 C   0  0  0  0  0  0  0  0  0  0  0  0
  188.1140  176.9290  143.7810 O   0  0  0  0  0  1  0  0  0  0  0  0
  187.1130  178.6330  146.9670 C   0  0  0  0  0  2  0  0  0  0  0  0
  188.3460  176.8360  148.0620 N   0  0  0  0  0  0  0  0  0  0  0  0
  189.4060  177.2020  145.8500 C   0  0  0  0  0  0  0  0  0  0  0  0
  188.1410  177.3970  145.0920 C   0  0  0  0  0  0  0  0  0  0  0  0
  189.4640  176.8930  147.1600 C   0  0  0  0  0  3  0  0  0  0  0  0
  187.2810  177.5730  147.9990 C   0  0  0  0  0  3  0  0  0  0  0  0
  185.7780  178.2040  144.8900 C   0  0  0  0  0  3  0  0  0  0  0  0
  185.2250  179.3760  144.5950 C   0  0  0  0  0  3  0  0  0  0  0  0
  182.8650  178.6610  144.6270 C   0  0  0  0  0  2  0  0  0  0  0  0
  182.8030  178.3170  141.8470 C   0  0  0  0  0  2  0  0  0  0  0  0
  181.5650  178.9880  142.4360 C   0  0  0  0  0  2  0  0  0  0  0  0
  184.0890  178.9170  142.4290 C   0  0  0  0  0  2  0  0  0  0  0  0
  183.9280  179.4470  143.8650 C   0  0  0  0  0  3  0  0  0  0  0  0
  181.4900  178.7850  143.9550 C   0  0  0  0  0  2  0  0  0  0  0  0
  190.6790  177.1700  145.0570 C   0  0  1  0  0  3  0  0  0  0  0  0
  191.6870  176.3720  145.7370 N   0  0  0  0  0  1  0  0  0  0  0  0
  191.8160  178.1760  142.6420 O   0  0  0  0  0  0  0  0  0  0  0  0
  190.4330  176.6370  143.7230 N   0  0  0  0  0  2  0  0  0  0  0  0
  191.0410  177.1830  142.5530 C   0  0  0  0  0  0  0  0  0  0  0  0
  190.7690  176.6050  141.3110 O   0  0  0  0  0  0  0  0  0  0  0  0
  190.7030  177.3680  140.1120 C   0  0  1  0  0  3  0  0  0  0  0  0
  191.1120  176.4910  138.9400 C   0  0  0  0  0  2  0  0  0  0  0  0
  189.9090  176.0280  138.2380 N   0  0  0  0  0  0  0  0  0  0  0  0
  190.1410  176.2310  136.8190 C   0  0  0  0  0  1  0  0  0  0  0  0
  188.6170  178.4730  140.4040 O   0  0  0  0  0  0  0  0  0  0  0  0
  189.3010  177.6720  139.7850 C   0  0  0  0  0  0  0  0  0  0  0  0
  188.8130  176.9140  138.6220 C   0  0  0  0  0  2  0  0  0  0  0  0
  1  3  1  0  0  0  0
  2  6  1  0  0  0  0
  3  8  1  0  0  0  0
  5  7  2  0  0  0  0
  6  1  2  0  0  0  0
  6  5  1  0  0  0  0
  7  4  1  0  0  0  0
  8  4  2  0  0  0  0
  9  1  1  0  0  0  0
 10  9  2  0  0  0  0
 12 14  1  0  0  0  0
 12 13  1  0  0  0  0
 13 16  1  0  0  0  0
 14 15  1  0  0  0  0
 15 10  1  0  0  0  0
 15 11  1  0  0  0  0
 16 11  1  0  0  0  0
 17 18  1  1  0  0  0
 17  5  1  0  0  0  0
 20 17  1  0  0  0  0
 21 19  2  0  0  0  0
 21 20  1  0  0  0  0
 22 21  1  0  0  0  0
 23 22  1  1  0  0  0
 24 23  1  0  0  0  0
 25 29  1  0  0  0  0
 25 24  1  0  0  0  0
 26 25  1  0  0  0  0
 28 23  1  0  0  0  0
 28 27  2  0  0  0  0
 29 28  1  0  0  0  0
M  END
>  <MODEL>
2

>  <REMARK>
 VINA RESULT:      -8.7      1.337      1.937
  Name = 
  6 active torsions:
  status: ('A' for Active; 'I' for Inactive)
    1  A    between atoms: C_2  and  C_6
    2  A    between atoms: N_4  and  C_10
    3  A    between atoms: C_5  and  O_25
    4  A    between atoms: C_7  and  O_25
    5  A    between atoms: C_10  and  C_21
    6  A    between atoms: C_15  and  C_27
                            x       y       z     vdW  Elec       q    Type
                         _______ _______ _______ _____ _____    ______ ____

>  <TORSDO>
F 6

$$$$
=
 OpenBabel11062416353D

 29 31  0  0  1  0  0  0  0  0999 V2000
  189.2750  177.8930  142.3780 C   0  0  0  0  0  0  0  0  0  0  0  0
  187.0660  178.1910  141.5480 O   0  0  0  0  0  1  0  0  0  0  0  0
  190.7450  177.7940  142.1570 C   0  0  0  0  0  2  0  0  0  0  0  0
  190.6700  176.2420  140.2770 N   0  0  0  0  0  0  0  0  0  0  0  0
  188.8760  177.9150  139.9120 C   0  0  0  0  0  0  0  0  0  0  0  0
  188.4260  177.9870  141.3280 C   0  0  0  0  0  0  0  0  0  0  0  0
  189.8360  177.0840  139.4620 C   0  0  0  0  0  3  0  0  0  0  0  0
  191.0760  176.5110  141.4790 C   0  0  0  0  0  3  0  0  0  0  0  0
  188.8530  177.9300  143.7950 C   0  0  0  0  0  3  0  0  0  0  0  0
  188.8980  176.9010  144.6350 C   0  0  0  0  0  3  0  0  0  0  0  0
  187.3980  178.1500  146.1420 C   0  0  0  0  0  2  0  0  0  0  0  0
  189.2800  178.1450  148.2180 C   0  0  0  0  0  2  0  0  0  0  0  0
  187.8450  177.8660  148.6560 C   0  0  0  0  0  2  0  0  0  0  0  0
  189.6470  177.3370  146.9670 C   0  0  0  0  0  2  0  0  0  0  0  0
  188.4480  177.0460  146.0480 C   0  0  0  0  0  3  0  0  0  0  0  0
  186.8410  178.2690  147.5680 C   0  0  0  0  0  2  0  0  0  0  0  0
  188.0780  178.6870  138.9030 C   0  0  1  0  0  3  0  0  0  0  0  0
  188.9490  179.2530  137.8840 N   0  0  0  0  0  1  0  0  0  0  0  0
  185.2840  179.2480  138.7700 O   0  0  0  0  0  0  0  0  0  0  0  0
  187.0740  177.8300  138.2850 N   0  0  0  0  0  2  0  0  0  0  0  0
  185.6890  178.1730  138.2450 C   0  0  0  0  0  0  0  0  0  0  0  0
  184.7910  177.3070  137.6190 O   0  0  0  0  0  0  0  0  0  0  0  0
  183.3800  177.4390  137.7580 C   0  0  1  0  0  3  0  0  0  0  0  0
  182.6980  176.7710  136.5750 C   0  0  0  0  0  2  0  0  0  0  0  0
  182.2110  175.4480  136.9800 N   0  0  0  0  0  0  0  0  0  0  0  0
  180.8470  175.3310  136.4960 C   0  0  0  0  0  1  0  0  0  0  0  0
  183.1080  176.8870  140.0550 O   0  0  0  0  0  0  0  0  0  0  0  0
  182.9060  176.6170  138.8820 C   0  0  0  0  0  0  0  0  0  0  0  0
  182.1500  175.4330  138.4380 C   0  0  0  0  0  2  0  0  0  0  0  0
  1  9  1  0  0  0  0
  3  1  1  0  0  0  0
  4  8  2  0  0  0  0
  5  6  1  0  0  0  0
  6  2  1  0  0  0  0
  6  1  2  0  0  0  0
  7  5  2  0  0  0  0
  7  4  1  0  0  0  0
  8  3  1  0  0  0  0
  9 10  2  0  0  0  0
 10 15  1  0  0  0  0
 11 16  1  0  0  0  0
 12 13  1  0  0  0  0
 14 12  1  0  0  0  0
 15 11  1  0  0  0  0
 15 14  1  0  0  0  0
 16 13  1  0  0  0  0
 17 18  1  6  0  0  0
 17  5  1  0  0  0  0
 20 17  1  0  0  0  0
 21 20  1  0  0  0  0
 21 19  2  0  0  0  0
 22 21  1  0  0  0  0
 23 22  1  6  0  0  0
 23 28  1  0  0  0  0
 24 25  1  0  0  0  0
 24 23  1  0  0  0  0
 25 29  1  0  0  0  0
 26 25  1  0  0  0  0
 28 27  2  0  0  0  0
 29 28  1  0  0  0  0
M  END
>  <MODEL>
3

>  <REMARK>
 VINA RESULT:      -8.4      3.597      7.161
  Name = 
  6 active torsions:
  status: ('A' for Active; 'I' for Inactive)
    1  A    between atoms: C_2  and  C_6
    2  A    between atoms: N_4  and  C_10
    3  A    between atoms: C_5  and  O_25
    4  A    between atoms: C_7  and  O_25
    5  A    between atoms: C_10  and  C_21
    6  A    between atoms: C_15  and  C_27
                            x       y       z     vdW  Elec       q    Type
                         _______ _______ _______ _____ _____    ______ ____

>  <TORSDO>
F 6

$$$$
=
 OpenBabel11062416353D

 29 31  0  0  1  0  0  0  0  0999 V2000
  188.9210  177.5010  139.9340 C   0  0  0  0  0  0  0  0  0  0  0  0
  191.0320  176.5860  140.5310 O   0  0  0  0  0  1  0  0  0  0  0  0
  187.8330  177.7230  138.9400 C   0  0  0  0  0  2  0  0  0  0  0  0
  189.2520  178.4010  137.0770 N   0  0  0  0  0  0  0  0  0  0  0  0
  190.3620  176.4730  138.1720 C   0  0  0  0  0  0  0  0  0  0  0  0
  190.0700  176.8870  139.5710 C   0  0  0  0  0  0  0  0  0  0  0  0
  190.0390  177.1980  137.0840 C   0  0  0  0  0  3  0  0  0  0  0  0
  188.2830  178.6790  137.8920 C   0  0  0  0  0  3  0  0  0  0  0  0
  188.6160  177.9520  141.3100 C   0  0  0  0  0  3  0  0  0  0  0  0
  188.3110  177.1520  142.3280 C   0  0  0  0  0  3  0  0  0  0  0  0
  188.8570  176.9830  144.7270 C   0  0  0  0  0  2  0  0  0  0  0  0
  186.2090  177.4910  145.4910 C   0  0  0  0  0  2  0  0  0  0  0  0
  187.2650  178.2080  146.3270 C   0  0  0  0  0  2  0  0  0  0  0  0
  186.5180  177.6030  143.9920 C   0  0  0  0  0  2  0  0  0  0  0  0
  188.0200  177.7110  143.6780 C   0  0  0  0  0  3  0  0  0  0  0  0
  188.6550  177.5910  146.1220 C   0  0  0  0  0  2  0  0  0  0  0  0
  191.2300  175.2630  137.9860 C   0  0  1  0  0  3  0  0  0  0  0  0
  190.4520  174.1480  137.4700 N   0  0  0  0  0  1  0  0  0  0  0  0
  193.6800  176.5160  138.7380 O   0  0  0  0  0  0  0  0  0  0  0  0
  192.3350  175.5640  137.0840 N   0  0  0  0  0  2  0  0  0  0  0  0
  193.5410  176.1870  137.5270 C   0  0  0  0  0  0  0  0  0  0  0  0
  194.5610  176.4270  136.6050 O   0  0  0  0  0  0  0  0  0  0  0  0
  195.2790  175.3750  135.9690 C   0  0  1  0  0  3  0  0  0  0  0  0
  196.4590  175.9620  135.2130 C   0  0  0  0  0  2  0  0  0  0  0  0
  197.6810  175.7770  136.0030 N   0  0  0  0  0  0  0  0  0  0  0  0
  198.6970  175.2650  135.1010 C   0  0  0  0  0  1  0  0  0  0  0  0
  195.3670  173.7740  137.7250 O   0  0  0  0  0  0  0  0  0  0  0  0
  195.9520  174.5420  136.9780 C   0  0  0  0  0  0  0  0  0  0  0  0
  197.4120  174.7280  136.9820 C   0  0  0  0  0  2  0  0  0  0  0  0
  1  9  1  0  0  0  0
  3  1  1  0  0  0  0
  4  7  1  0  0  0  0
  4  8  2  0  0  0  0
  5  6  1  0  0  0  0
  6  1  2  0  0  0  0
  6  2  1  0  0  0  0
  7  5  2  0  0  0  0
  8  3  1  0  0  0  0
  9 10  2  0  0  0  0
 10 15  1  0  0  0  0
 11 16  1  0  0  0  0
 12 13  1  0  0  0  0
 14 12  1  0  0  0  0
 15 14  1  0  0  0  0
 15 11  1  0  0  0  0
 16 13  1  0  0  0  0
 17 18  1  6  0  0  0
 17  5  1  0  0  0  0
 20 21  1  0  0  0  0
 20 17  1  0  0  0  0
 21 19  2  0  0  0  0
 22 21  1  0  0  0  0
 23 22  1  1  0  0  0
 23 28  1  0  0  0  0
 24 23  1  0  0  0  0
 24 25  1  0  0  0  0
 25 29  1  0  0  0  0
 26 25  1  0  0  0  0
 28 29  1  0  0  0  0
 28 27  2  0  0  0  0
M  END
>  <MODEL>
4

>  <REMARK>
 VINA RESULT:      -8.3      4.435      7.562
  Name = 
  6 active torsions:
  status: ('A' for Active; 'I' for Inactive)
    1  A    between atoms: C_2  and  C_6
    2  A    between atoms: N_4  and  C_10
    3  A    between atoms: C_5  and  O_25
    4  A    between atoms: C_7  and  O_25
    5  A    between atoms: C_10  and  C_21
    6  A    between atoms: C_15  and  C_27
                            x       y       z     vdW  Elec       q    Type
                         _______ _______ _______ _____ _____    ______ ____

>  <TORSDO>
F 6

$$$$
=
 OpenBabel11062416353D

 29 31  0  0  1  0  0  0  0  0999 V2000
  186.1720  177.9120  144.0300 C   0  0  0  0  0  0  0  0  0  0  0  0
  186.8080  178.3590  141.7830 O   0  0  0  0  0  1  0  0  0  0  0  0
  185.1240  177.7010  145.0680 C   0  0  0  0  0  2  0  0  0  0  0  0
  183.7320  179.6200  144.4930 N   0  0  0  0  0  0  0  0  0  0  0  0
  184.4310  178.5630  142.3610 C   0  0  0  0  0  0  0  0  0  0  0  0
  185.8310  178.2740  142.7720 C   0  0  0  0  0  0  0  0  0  0  0  0
  183.5370  179.2190  143.1270 C   0  0  0  0  0  3  0  0  0  0  0  0
  184.4410  178.9880  145.3760 C   0  0  0  0  0  3  0  0  0  0  0  0
  187.5580  177.6480  144.4750 C   0  0  0  0  0  3  0  0  0  0  0  0
  188.0540  177.9670  145.6660 C   0  0  0  0  0  3  0  0  0  0  0  0
  190.1300  176.9100  144.8570 C   0  0  0  0  0  2  0  0  0  0  0  0
  190.7610  175.9160  147.4000 C   0  0  0  0  0  2  0  0  0  0  0  0
  191.9430  176.4980  146.6300 C   0  0  0  0  0  2  0  0  0  0  0  0
  189.5350  176.8350  147.3140 C   0  0  0  0  0  2  0  0  0  0  0  0
  189.4690  177.6540  146.0140 C   0  0  0  0  0  3  0  0  0  0  0  0
  191.6170  176.6500  145.1380 C   0  0  0  0  0  2  0  0  0  0  0  0
  184.0620  178.2640  140.9380 C   0  0  1  0  0  3  0  0  0  0  0  0
  182.8550  178.9840  140.5590 N   0  0  0  0  0  1  0  0  0  0  0  0
  184.3310  177.3950  138.2350 O   0  0  0  0  0  0  0  0  0  0  0  0
  185.1580  178.6170  140.0440 N   0  0  0  0  0  2  0  0  0  0  0  0
  185.2290  178.1540  138.6960 C   0  0  0  0  0  0  0  0  0  0  0  0
  186.3030  178.5500  137.8960 O   0  0  0  0  0  0  0  0  0  0  0  0
  187.6010  177.9800  138.0230 C   0  0  1  0  0  3  0  0  0  0  0  0
  187.6020  176.5980  137.3910 C   0  0  0  0  0  2  0  0  0  0  0  0
  188.2060  176.6770  136.0560 N   0  0  0  0  0  0  0  0  0  0  0  0
  189.1540  175.5810  135.9530 C   0  0  0  0  0  1  0  0  0  0  0  0
  188.9600  179.8300  137.4040 O   0  0  0  0  0  0  0  0  0  0  0  0
  188.5540  178.7030  137.1680 C   0  0  0  0  0  0  0  0  0  0  0  0
  188.9770  177.9150  135.9980 C   0  0  0  0  0  2  0  0  0  0  0  0
  1  9  1  0  0  0  0
  1  3  1  0  0  0  0
  2  6  1  0  0  0  0
  3  8  1  0  0  0  0
  4  8  2  0  0  0  0
  5  6  1  0  0  0  0
  5  7  2  0  0  0  0
  6  1  2  0  0  0  0
  7  4  1  0  0  0  0
  9 10  2  0  0  0  0
 10 15  1  0  0  0  0
 11 16  1  0  0  0  0
 11 15  1  0  0  0  0
 13 12  1  0  0  0  0
 14 12  1  0  0  0  0
 15 14  1  0  0  0  0
 16 13  1  0  0  0  0
 17 18  1  6  0  0  0
 17  5  1  0  0  0  0
 19 21  2  0  0  0  0
 20 17  1  0  0  0  0
 21 20  1  0  0  0  0
 22 21  1  0  0  0  0
 23 22  1  6  0  0  0
 24 23  1  0  0  0  0
 25 24  1  0  0  0  0
 26 25  1  0  0  0  0
 28 27  2  0  0  0  0
 28 23  1  0  0  0  0
 29 25  1  0  0  0  0
 29 28  1  0  0  0  0
M  END
>  <MODEL>
5

>  <REMARK>
 VINA RESULT:      -8.3      3.503      6.573
  Name = 
  6 active torsions:
  status: ('A' for Active; 'I' for Inactive)
    1  A    between atoms: C_2  and  C_6
    2  A    between atoms: N_4  and  C_10
    3  A    between atoms: C_5  and  O_25
    4  A    between atoms: C_7  and  O_25
    5  A    between atoms: C_10  and  C_21
    6  A    between atoms: C_15  and  C_27
                            x       y       z     vdW  Elec       q    Type
                         _______ _______ _______ _____ _____    ______ ____

>  <TORSDO>
F 6

$$$$
=
 OpenBabel11062416353D

 29 31  0  0  1  0  0  0  0  0999 V2000
  189.1450  177.8330  142.1880 C   0  0  0  0  0  0  0  0  0  0  0  0
  186.9640  178.1650  141.3000 O   0  0  0  0  0  1  0  0  0  0  0  0
  190.6210  177.7340  142.0090 C   0  0  0  0  0  2  0  0  0  0  0  0
  190.5980  176.2390  140.0820 N   0  0  0  0  0  0  0  0  0  0  0  0
  188.8220  177.9290  139.7120 C   0  0  0  0  0  0  0  0  0  0  0  0
  188.3290  177.9610  141.1160 C   0  0  0  0  0  0  0  0  0  0  0  0
  189.7930  177.1080  139.2680 C   0  0  0  0  0  3  0  0  0  0  0  0
  190.9680  176.4700  141.3030 C   0  0  0  0  0  3  0  0  0  0  0  0
  188.6800  177.8300  143.5920 C   0  0  0  0  0  3  0  0  0  0  0  0
  189.1170  177.0080  144.5420 C   0  0  0  0  0  3  0  0  0  0  0  0
  187.4880  178.1530  145.9970 C   0  0  0  0  0  2  0  0  0  0  0  0
  189.2460  178.1440  148.1790 C   0  0  0  0  0  2  0  0  0  0  0  0
  187.7990  177.7990  148.5220 C   0  0  0  0  0  2  0  0  0  0  0  0
  189.7140  177.3920  146.9260 C   0  0  0  0  0  2  0  0  0  0  0  0
  188.5820  177.0900  145.9290 C   0  0  0  0  0  3  0  0  0  0  0  0
  186.8450  178.2040  147.3900 C   0  0  0  0  0  2  0  0  0  0  0  0
  188.0580  178.7350  138.7030 C   0  0  1  0  0  3  0  0  0  0  0  0
  188.9670  179.3920  137.7760 N   0  0  0  0  0  1  0  0  0  0  0  0
  185.2270  179.0740  138.6220 O   0  0  0  0  0  0  0  0  0  0  0  0
  187.1270  177.8830  137.9730 N   0  0  0  0  0  2  0  0  0  0  0  0
  185.7180  178.1130  137.9670 C   0  0  0  0  0  0  0  0  0  0  0  0
  184.8930  177.2620  137.2280 O   0  0  0  0  0  0  0  0  0  0  0  0
  185.1250  175.8610  137.1390 C   0  0  1  0  0  3  0  0  0  0  0  0
  183.9010  175.1190  137.6500 C   0  0  0  0  0  2  0  0  0  0  0  0
  183.1040  174.6540  136.5090 N   0  0  0  0  0  0  0  0  0  0  0  0
  182.7620  173.2660  136.7680 C   0  0  0  0  0  1  0  0  0  0  0  0
  186.0780  175.7060  134.9660 O   0  0  0  0  0  0  0  0  0  0  0  0
  185.1610  175.4450  135.7280 C   0  0  0  0  0  0  0  0  0  0  0  0
  183.9740  174.6670  135.3370 C   0  0  0  0  0  2  0  0  0  0  0  0
  1  9  1  0  0  0  0
  3  1  1  0  0  0  0
  4  8  2  0  0  0  0
  5  6  1  0  0  0  0
  6  2  1  0  0  0  0
  6  1  2  0  0  0  0
  7  5  2  0  0  0  0
  7  4  1  0  0  0  0
  8  3  1  0  0  0  0
  9 10  2  0  0  0  0
 10 15  1  0  0  0  0
 11 16  1  0  0  0  0
 12 13  1  0  0  0  0
 14 12  1  0  0  0  0
 15 11  1  0  0  0  0
 15 14  1  0  0  0  0
 16 13  1  0  0  0  0
 17 18  1  6  0  0  0
 17  5  1  0  0  0  0
 20 17  1  0  0  0  0
 21 20  1  0  0  0  0
 21 19  2  0  0  0  0
 22 21  1  0  0  0  0
 23 22  1  6  0  0  0
 23 24  1  0  0  0  0
 25 26  1  0  0  0  0
 25 24  1  0  0  0  0
 27 28  2  0  0  0  0
 28 23  1  0  0  0  0
 29 28  1  0  0  0  0
 29 25  1  0  0  0  0
M  END
>  <MODEL>
6

>  <REMARK>
 VINA RESULT:      -8.3      3.865      7.042
  Name = 
  6 active torsions:
  status: ('A' for Active; 'I' for Inactive)
    1  A    between atoms: C_2  and  C_6
    2  A    between atoms: N_4  and  C_10
    3  A    between atoms: C_5  and  O_25
    4  A    between atoms: C_7  and  O_25
    5  A    between atoms: C_10  and  C_21
    6  A    between atoms: C_15  and  C_27
                            x       y       z     vdW  Elec       q    Type
                         _______ _______ _______ _____ _____    ______ ____

>  <TORSDO>
F 6

$$$$
=
 OpenBabel11062416353D

 29 31  0  0  1  0  0  0  0  0999 V2000
  189.9060  177.3780  140.8250 C   0  0  0  0  0  0  0  0  0  0  0  0
  187.6100  177.9230  141.1220 O   0  0  0  0  0  1  0  0  0  0  0  0
  191.1050  177.2280  139.9540 C   0  0  0  0  0  2  0  0  0  0  0  0
  190.0260  175.9770  138.1590 N   0  0  0  0  0  0  0  0  0  0  0  0
  188.4660  177.7870  138.8250 C   0  0  0  0  0  0  0  0  0  0  0  0
  188.6990  177.6750  140.2900 C   0  0  0  0  0  0  0  0  0  0  0  0
  189.0240  176.9770  137.9040 C   0  0  0  0  0  3  0  0  0  0  0  0
  190.9490  176.0410  139.0670 C   0  0  0  0  0  3  0  0  0  0  0  0
  190.1600  177.2300  142.2750 C   0  0  0  0  0  3  0  0  0  0  0  0
  190.3130  178.2350  143.1320 C   0  0  0  0  0  3  0  0  0  0  0  0
  191.3810  176.6940  144.7340 C   0  0  0  0  0  2  0  0  0  0  0  0
  189.3080  176.9970  146.5960 C   0  0  0  0  0  2  0  0  0  0  0  0
  190.7110  176.9960  147.1960 C   0  0  0  0  0  2  0  0  0  0  0  0
  189.2380  177.8890  145.3490 C   0  0  0  0  0  2  0  0  0  0  0  0
  190.5660  177.9750  144.5770 C   0  0  0  0  0  3  0  0  0  0  0  0
  191.7420  176.4390  146.2050 C   0  0  0  0  0  2  0  0  0  0  0  0
  187.4020  178.7440  138.3750 C   0  0  1  0  0  3  0  0  0  0  0  0
  187.7530  179.3350  137.0920 N   0  0  0  0  0  1  0  0  0  0  0  0
  184.9400  179.7210  139.4320 O   0  0  0  0  0  0  0  0  0  0  0  0
  186.1150  178.0660  138.2790 N   0  0  0  0  0  2  0  0  0  0  0  0
  184.9160  178.6150  138.8250 C   0  0  0  0  0  0  0  0  0  0  0  0
  183.7180  177.9130  138.6770 O   0  0  0  0  0  0  0  0  0  0  0  0
  183.1620  177.1230  139.7230 C   0  0  1  0  0  3  0  0  0  0  0  0
  182.0310  177.8960  140.3830 C   0  0  0  0  0  2  0  0  0  0  0  0
  180.7460  177.4040  139.8730 N   0  0  0  0  0  0  0  0  0  0  0  0
  179.8820  177.2040  141.0230 C   0  0  0  0  0  1  0  0  0  0  0  0
  183.0030  175.0090  138.6470 O   0  0  0  0  0  0  0  0  0  0  0  0
  182.4470  175.9690  139.1580 C   0  0  0  0  0  0  0  0  0  0  0  0
  180.9850  176.0900  139.2840 C   0  0  0  0  0  2  0  0  0  0  0  0
  1  9  1  0  0  0  0
  3  1  1  0  0  0  0
  4  8  2  0  0  0  0
  5  6  1  0  0  0  0
  6  1  2  0  0  0  0
  6  2  1  0  0  0  0
  7  4  1  0  0  0  0
  7  5  2  0  0  0  0
  8  3  1  0  0  0  0
  9 10  2  0  0  0  0
 10 15  1  0  0  0  0
 11 16  1  0  0  0  0
 12 13  1  0  0  0  0
 14 12  1  0  0  0  0
 15 11  1  0  0  0  0
 15 14  1  0  0  0  0
 16 13  1  0  0  0  0
 17 18  1  6  0  0  0
 17  5  1  0  0  0  0
 20 17  1  0  0  0  0
 20 21  1  0  0  0  0
 21 19  2  0  0  0  0
 22 21  1  0  0  0  0
 23 22  1  6  0  0  0
 23 24  1  0  0  0  0
 25 24  1  0  0  0  0
 25 26  1  0  0  0  0
 27 28  2  0  0  0  0
 28 29  1  0  0  0  0
 28 23  1  0  0  0  0
 29 25  1  0  0  0  0
M  END
>  <MODEL>
7

>  <REMARK>
 VINA RESULT:      -8.3      3.760      7.968
  Name = 
  6 active torsions:
  status: ('A' for Active; 'I' for Inactive)
    1  A    between atoms: C_2  and  C_6
    2  A    between atoms: N_4  and  C_10
    3  A    between atoms: C_5  and  O_25
    4  A    between atoms: C_7  and  O_25
    5  A    between atoms: C_10  and  C_21
    6  A    between atoms: C_15  and  C_27
                            x       y       z     vdW  Elec       q    Type
                         _______ _______ _______ _____ _____    ______ ____

>  <TORSDO>
F 6

$$$$
=
 OpenBabel11062416353D

 29 31  0  0  1  0  0  0  0  0999 V2000
  186.4340  178.1110  144.9250 C   0  0  0  0  0  0  0  0  0  0  0  0
  187.9010  176.5590  143.8800 O   0  0  0  0  0  1  0  0  0  0  0  0
  186.1660  179.1640  145.9450 C   0  0  0  0  0  2  0  0  0  0  0  0
  187.1630  178.0110  147.8480 N   0  0  0  0  0  0  0  0  0  0  0  0
  188.6850  177.6800  145.9190 C   0  0  0  0  0  0  0  0  0  0  0  0
  187.6200  177.4600  144.9040 C   0  0  0  0  0  0  0  0  0  0  0  0
  188.4540  177.8620  147.2330 C   0  0  0  0  0  3  0  0  0  0  0  0
  186.1220  178.5610  147.3060 C   0  0  0  0  0  3  0  0  0  0  0  0
  185.3450  177.8910  143.9480 C   0  0  0  0  0  3  0  0  0  0  0  0
  185.1990  178.5490  142.8030 C   0  0  0  0  0  3  0  0  0  0  0  0
  184.2480  179.0010  140.5730 C   0  0  0  0  0  2  0  0  0  0  0  0
  181.6240  178.9940  141.5540 C   0  0  0  0  0  2  0  0  0  0  0  0
  181.8110  178.2690  140.2240 C   0  0  0  0  0  2  0  0  0  0  0  0
  182.7240  178.6130  142.5540 C   0  0  0  0  0  2  0  0  0  0  0  0
  184.0630  178.2490  141.8880 C   0  0  0  0  0  3  0  0  0  0  0  0
  183.1450  178.6460  139.5660 C   0  0  0  0  0  2  0  0  0  0  0  0
  190.1050  177.5040  145.4670 C   0  0  1  0  0  3  0  0  0  0  0  0
  190.7280  176.3840  146.1570 N   0  0  0  0  0  1  0  0  0  0  0  0
  191.4970  179.1610  143.6090 O   0  0  0  0  0  0  0  0  0  0  0  0
  190.1570  177.2950  144.0250 N   0  0  0  0  0  2  0  0  0  0  0  0
  190.8800  178.1600  143.1490 C   0  0  0  0  0  0  0  0  0  0  0  0
  190.8960  177.8840  141.7800 O   0  0  0  0  0  0  0  0  0  0  0  0
  189.8770  177.1220  141.1430 C   0  0  1  0  0  3  0  0  0  0  0  0
  188.6610  178.0070  140.9170 C   0  0  0  0  0  2  0  0  0  0  0  0
  188.6420  178.4550  139.5200 N   0  0  0  0  0  0  0  0  0  0  0  0
  187.2890  178.2590  139.0310 C   0  0  0  0  0  1  0  0  0  0  0  0
  191.1430  175.9900  139.4790 O   0  0  0  0  0  0  0  0  0  0  0  0
  190.2750  176.8010  139.7640 C   0  0  0  0  0  0  0  0  0  0  0  0
  189.5050  177.5550  138.7610 C   0  0  0  0  0  2  0  0  0  0  0  0
  1  3  1  0  0  0  0
  2  6  1  0  0  0  0
  3  8  1  0  0  0  0
  5  7  2  0  0  0  0
  6  1  2  0  0  0  0
  6  5  1  0  0  0  0
  7  4  1  0  0  0  0
  8  4  2  0  0  0  0
  9  1  1  0  0  0  0
 10  9  2  0  0  0  0
 11 15  1  0  0  0  0
 12 14  1  0  0  0  0
 13 12  1  0  0  0  0
 15 14  1  0  0  0  0
 15 10  1  0  0  0  0
 16 13  1  0  0  0  0
 16 11  1  0  0  0  0
 17  5  1  0  0  0  0
 17 18  1  1  0  0  0
 20 17  1  0  0  0  0
 21 19  2  0  0  0  0
 21 20  1  0  0  0  0
 22 21  1  0  0  0  0
 23 22  1  6  0  0  0
 24 23  1  0  0  0  0
 25 24  1  0  0  0  0
 26 25  1  0  0  0  0
 27 28  2  0  0  0  0
 28 23  1  0  0  0  0
 29 25  1  0  0  0  0
 29 28  1  0  0  0  0
M  END
>  <MODEL>
8

>  <REMARK>
 VINA RESULT:      -8.2      1.012      1.269
  Name = 
  6 active torsions:
  status: ('A' for Active; 'I' for Inactive)
    1  A    between atoms: C_2  and  C_6
    2  A    between atoms: N_4  and  C_10
    3  A    between atoms: C_5  and  O_25
    4  A    between atoms: C_7  and  O_25
    5  A    between atoms: C_10  and  C_21
    6  A    between atoms: C_15  and  C_27
                            x       y       z     vdW  Elec       q    Type
                         _______ _______ _______ _____ _____    ______ ____

>  <TORSDO>
F 6

$$$$
=
 OpenBabel11062416353D

 29 31  0  0  1  0  0  0  0  0999 V2000
  191.0230  177.3860  140.9120 C   0  0  0  0  0  0  0  0  0  0  0  0
  188.6500  177.5250  140.9770 O   0  0  0  0  0  1  0  0  0  0  0  0
  192.3140  177.5030  140.1770 C   0  0  0  0  0  2  0  0  0  0  0  0
  191.6530  176.2430  138.1950 N   0  0  0  0  0  0  0  0  0  0  0  0
  189.7480  177.7160  138.7890 C   0  0  0  0  0  0  0  0  0  0  0  0
  189.8450  177.5250  140.2620 C   0  0  0  0  0  0  0  0  0  0  0  0
  190.5270  177.0840  137.8900 C   0  0  0  0  0  3  0  0  0  0  0  0
  192.4530  176.3830  139.2060 C   0  0  0  0  0  3  0  0  0  0  0  0
  191.1490  177.1640  142.3700 C   0  0  0  0  0  3  0  0  0  0  0  0
  190.9850  178.0970  143.3030 C   0  0  0  0  0  3  0  0  0  0  0  0
  191.6800  176.3490  144.8980 C   0  0  0  0  0  2  0  0  0  0  0  0
  189.6450  177.0150  146.7040 C   0  0  0  0  0  2  0  0  0  0  0  0
  191.0000  176.7310  147.3450 C   0  0  0  0  0  2  0  0  0  0  0  0
  189.7900  177.9260  145.4780 C   0  0  0  0  0  2  0  0  0  0  0  0
  191.1350  177.7670  144.7480 C   0  0  0  0  0  3  0  0  0  0  0  0
  191.9360  176.0030  146.3720 C   0  0  0  0  0  2  0  0  0  0  0  0
  188.5890  178.5210  138.2810 C   0  0  1  0  0  3  0  0  0  0  0  0
  189.0550  179.6420  137.4790 N   0  0  0  0  0  1  0  0  0  0  0  0
  185.7420  178.7050  138.2740 O   0  0  0  0  0  0  0  0  0  0  0  0
  187.6920  177.6820  137.4970 N   0  0  0  0  0  2  0  0  0  0  0  0
  186.2720  177.8310  137.5320 C   0  0  0  0  0  0  0  0  0  0  0  0
  185.4800  177.0000  136.7380 O   0  0  0  0  0  0  0  0  0  0  0  0
  184.7680  175.8880  137.2700 C   0  0  1  0  0  3  0  0  0  0  0  0
  183.3960  175.8180  136.6190 C   0  0  0  0  0  2  0  0  0  0  0  0
  183.4100  174.7940  135.5680 N   0  0  0  0  0  0  0  0  0  0  0  0
  182.2150  173.9880  135.7440 C   0  0  0  0  0  1  0  0  0  0  0  0
  186.4550  174.2140  137.2180 O   0  0  0  0  0  0  0  0  0  0  0  0
  185.3820  174.6320  136.8140 C   0  0  0  0  0  0  0  0  0  0  0  0
  184.5540  173.9240  135.8230 C   0  0  0  0  0  2  0  0  0  0  0  0
  1  9  1  0  0  0  0
  3  1  1  0  0  0  0
  4  8  2  0  0  0  0
  5  6  1  0  0  0  0
  6  1  2  0  0  0  0
  6  2  1  0  0  0  0
  7  4  1  0  0  0  0
  7  5  2  0  0  0  0
  8  3  1  0  0  0  0
  9 10  2  0  0  0  0
 10 15  1  0  0  0  0
 11 16  1  0  0  0  0
 12 13  1  0  0  0  0
 14 12  1  0  0  0  0
 15 11  1  0  0  0  0
 15 14  1  0  0  0  0
 16 13  1  0  0  0  0
 17 18  1  6  0  0  0
 17  5  1  0  0  0  0
 20 21  1  0  0  0  0
 20 17  1  0  0  0  0
 21 19  2  0  0  0  0
 22 21  1  0  0  0  0
 23 22  1  6  0  0  0
 24 23  1  0  0  0  0
 25 26  1  0  0  0  0
 25 29  1  0  0  0  0
 25 24  1  0  0  0  0
 28 27  2  0  0  0  0
 28 23  1  0  0  0  0
 29 28  1  0  0  0  0
M  END
>  <MODEL>
9

>  <REMARK>
 VINA RESULT:      -8.0      4.407      7.898
  Name = 
  6 active torsions:
  status: ('A' for Active; 'I' for Inactive)
    1  A    between atoms: C_2  and  C_6
    2  A    between atoms: N_4  and  C_10
    3  A    between atoms: C_5  and  O_25
    4  A    between atoms: C_7  and  O_25
    5  A    between atoms: C_10  and  C_21
    6  A    between atoms: C_15  and  C_27
                            x       y       z     vdW  Elec       q    Type
                         _______ _______ _______ _____ _____    ______ ____

>  <TORSDO>
F 6

$$$$
