=
 OpenBabel11062413473D

 35 37  0  0  1  0  0  0  0  0999 V2000
  186.3040  177.8900  146.9400 N   0  0  0  0  0  1  0  0  0  0  0  0
  186.9500  177.6120  143.4270 C   0  0  0  0  0  3  0  0  0  0  0  0
  186.4200  177.8570  144.5920 C   0  0  0  0  0  0  0  0  0  0  0  0
  184.1260  178.7740  143.1390 C   0  0  2  0  0  3  0  0  0  0  0  0
  184.6270  179.0840  145.5720 N   0  0  0  0  0  0  0  0  0  0  0  0
  185.7640  178.2050  145.6620 C   0  0  0  0  0  0  0  0  0  0  0  0
  183.9150  179.3690  144.5130 C   0  0  0  0  0  3  0  0  0  0  0  0
  185.3740  179.3850  142.4940 C   0  0  0  0  0  2  0  0  0  0  0  0
  186.4320  178.3030  142.1860 C   0  0  1  0  0  3  0  0  0  0  0  0
  188.8270  178.6060  142.0320 O   0  0  0  0  0  0  0  0  0  0  0  0
  187.6010  178.9010  141.3930 C   0  0  1  0  0  3  0  0  0  0  0  0
  187.7220  178.3080  140.0610 C   0  0  0  0  0  0  0  0  0  0  0  0
  189.3790  177.5110  141.4050 N   0  0  0  0  0  0  0  0  0  0  0  0
  186.9870  178.5290  139.1120 O   0  0  0  0  0  0  0  0  0  0  0  0
  188.9150  177.4930  140.0180 C   0  0  0  0  0  2  0  0  0  0  0  0
  190.8470  177.6340  141.3950 C   0  0  1  0  0  3  0  0  0  0  0  0
  190.0990  176.6110  144.5910 O   0  0  0  0  0  0  0  0  0  0  0  0
  191.4850  177.1290  142.7180 C   0  0  2  0  0  3  0  0  0  0  0  0
  190.2830  175.0280  142.9210 O   0  0  0  0  0  0  0  0  0  0  0  0
  190.5780  176.1620  143.3830 C   0  0  0  0  0  0  0  0  0  0  0  0
  191.6230  178.2130  143.8010 C   0  0  0  0  0  3  0  0  0  0  0  0
  190.5970  177.8980  144.8940 C   0  0  0  0  0  3  0  0  0  0  0  0
  191.4000  176.9420  140.1770 C   0  0  0  0  0  0  0  0  0  0  0  0
  192.4590  177.3530  139.6330 O   0  0  0  0  0  0  0  0  0  0  0  0
  190.7280  175.8510  139.6410 O   0  0  0  0  0  1  0  0  0  0  0  0
  182.8960  178.9800  142.2460 C   0  0  2  0  0  3  0  0  0  0  0  0
  179.4050  178.6280  144.4450 C   0  0  0  0  0  1  0  0  0  0  0  0
  180.6390  178.7530  143.6680 C   0  0  0  0  0  0  0  0  0  0  0  0
  181.6550  178.8560  143.0290 C   0  0  0  0  0  0  0  0  0  0  0  0
  182.8710  177.9490  141.1220 C   0  0  0  0  0  2  0  0  0  0  0  0
  182.0270  178.4100  140.0310 N   0  0  0  0  0  2  0  0  0  0  0  0
  183.0780  178.8210  138.6900 P   0  0  0  0  0  0  0  0  0  0  0  0
  184.0020  177.4720  138.2560 O   0  0  0  0  0  1  0  0  0  0  0  0
  182.2380  179.2510  137.5110 O   0  0  0  0  0  0  0  0  0  0  0  0
  184.1040  180.0900  139.1360 O   0  0  0  0  0  1  0  0  0  0  0  0
  2  3  2  0  0  0  0
  3  6  2  0  0  0  0
  4 26  1  6  0  0  0
  4  7  1  0  0  0  0
  5  6  1  0  0  0  0
  6  1  1  0  0  0  0
  7  5  2  0  0  0  0
  8  4  1  0  0  0  0
  9  8  1  1  0  0  0
  9  2  1  0  0  0  0
 11 12  1  6  0  0  0
 11 10  1  0  0  0  0
 11  9  1  0  0  0  0
 13 10  1  0  0  0  0
 14 12  2  0  0  0  0
 15 12  1  0  0  0  0
 15 13  1  0  0  0  0
 16 23  1  6  0  0  0
 16 13  1  0  0  0  0
 17 22  1  0  0  0  0
 18 16  1  6  0  0  0
 18 20  1  0  0  0  0
 18 21  1  0  0  0  0
 19 20  2  0  0  0  0
 20 17  1  0  0  0  0
 21 22  2  0  0  0  0
 24 23  2  0  0  0  0
 25 23  1  0  0  0  0
 26 30  1  6  0  0  0
 26 29  1  0  0  0  0
 28 27  1  0  0  0  0
 29 28  3  0  0  0  0
 31 30  1  0  0  0  0
 32 35  1  0  0  0  0
 32 31  1  0  0  0  0
 33 32  1  0  0  0  0
 34 32  2  0  0  0  0
M  END
>  <MODEL>
1

>  <REMARK>
 VINA RESULT:      -8.9      0.000      0.000
  Name = 
  9 active torsions:
  status: ('A' for Active; 'I' for Inactive)
    1  A    between atoms: C_3  and  C_5
    2  A    between atoms: C_3  and  C_6
    3  A    between atoms: C_3  and  N_23
    4  A    between atoms: P_7  and  N_25
    5  A    between atoms: C_11  and  C_12
    6  A    between atoms: C_11  and  C_24
    7  A    between atoms: C_11  and  C_26
    8  A    between atoms: C_15  and  C_31
    9  A    between atoms: C_24  and  N_25
                            x       y       z     vdW  Elec       q    Type
                         _______ _______ _______ _____ _____    ______ ____

>  <TORSDO>
F 9

$$$$
=
 OpenBabel11062413473D

 35 37  0  0  1  0  0  0  0  0999 V2000
  184.9970  178.6430  146.5790 N   0  0  0  0  0  1  0  0  0  0  0  0
  186.3830  177.8850  143.3640 C   0  0  0  0  0  3  0  0  0  0  0  0
  185.5920  178.2150  144.3460 C   0  0  0  0  0  0  0  0  0  0  0  0
  183.5170  178.3470  142.3730 C   0  0  2  0  0  3  0  0  0  0  0  0
  183.4490  179.1870  144.7300 N   0  0  0  0  0  0  0  0  0  0  0  0
  184.6820  178.6020  145.1920 C   0  0  0  0  0  0  0  0  0  0  0  0
  182.9290  179.1190  143.5320 C   0  0  0  0  0  3  0  0  0  0  0  0
  184.7430  179.0840  141.8250 C   0  0  0  0  0  2  0  0  0  0  0  0
  186.0140  178.2160  141.9350 C   0  0  1  0  0  3  0  0  0  0  0  0
  188.3950  178.6490  141.9430 O   0  0  0  0  0  0  0  0  0  0  0  0
  187.1960  178.8980  141.2350 C   0  0  1  0  0  3  0  0  0  0  0  0
  187.4320  178.3520  139.8980 C   0  0  0  0  0  0  0  0  0  0  0  0
  189.0430  177.6040  141.3230 N   0  0  0  0  0  0  0  0  0  0  0  0
  186.7470  178.5630  138.9100 O   0  0  0  0  0  0  0  0  0  0  0  0
  188.6680  177.6030  139.9090 C   0  0  0  0  0  2  0  0  0  0  0  0
  190.5000  177.8040  141.4100 C   0  0  1  0  0  3  0  0  0  0  0  0
  189.5820  176.6870  144.5290 O   0  0  0  0  0  0  0  0  0  0  0  0
  191.0640  177.3980  142.7990 C   0  0  2  0  0  3  0  0  0  0  0  0
  190.1630  175.1460  142.9130 O   0  0  0  0  0  0  0  0  0  0  0  0
  190.2420  176.3110  143.3830 C   0  0  0  0  0  0  0  0  0  0  0  0
  190.9320  178.4920  143.8730 C   0  0  0  0  0  3  0  0  0  0  0  0
  189.8550  178.0330  144.8610 C   0  0  0  0  0  3  0  0  0  0  0  0
  191.1740  177.0840  140.2710 C   0  0  0  0  0  0  0  0  0  0  0  0
  192.2560  177.5170  139.7920 O   0  0  0  0  0  1  0  0  0  0  0  0
  190.5900  175.9440  139.7360 O   0  0  0  0  0  0  0  0  0  0  0  0
  182.4780  178.1220  141.2670 C   0  0  2  0  0  3  0  0  0  0  0  0
  184.2540  176.5240  137.8850 C   0  0  0  0  0  1  0  0  0  0  0  0
  183.6270  177.0880  139.0800 C   0  0  0  0  0  0  0  0  0  0  0  0
  183.1100  177.5530  140.0650 C   0  0  0  0  0  0  0  0  0  0  0  0
  181.8040  179.4370  140.8890 C   0  0  0  0  0  2  0  0  0  0  0  0
  181.0310  179.2760  139.6680 N   0  0  0  0  0  2  0  0  0  0  0  0
  181.5170  180.5490  138.5660 P   0  0  0  0  0  0  0  0  0  0  0  0
  181.2660  180.0480  136.9700 O   0  0  0  0  0  0  0  0  0  0  0  0
  180.6930  181.7860  138.8360 O   0  0  0  0  0  1  0  0  0  0  0  0
  183.1540  180.9090  138.7960 O   0  0  0  0  0  1  0  0  0  0  0  0
  2  3  2  0  0  0  0
  3  6  2  0  0  0  0
  4 26  1  6  0  0  0
  4  7  1  0  0  0  0
  5  6  1  0  0  0  0
  6  1  1  0  0  0  0
  7  5  2  0  0  0  0
  8  4  1  0  0  0  0
  9  8  1  1  0  0  0
  9  2  1  0  0  0  0
 11 12  1  6  0  0  0
 11  9  1  0  0  0  0
 11 10  1  0  0  0  0
 12 15  1  0  0  0  0
 13 16  1  0  0  0  0
 13 10  1  0  0  0  0
 14 12  2  0  0  0  0
 15 13  1  0  0  0  0
 16 23  1  6  0  0  0
 17 22  1  0  0  0  0
 18 16  1  6  0  0  0
 18 20  1  0  0  0  0
 18 21  1  0  0  0  0
 19 20  2  0  0  0  0
 20 17  1  0  0  0  0
 21 22  2  0  0  0  0
 24 23  1  0  0  0  0
 25 23  2  0  0  0  0
 26 29  1  6  0  0  0
 27 28  1  0  0  0  0
 28 29  3  0  0  0  0
 30 26  1  0  0  0  0
 31 30  1  0  0  0  0
 32 35  1  0  0  0  0
 32 34  1  0  0  0  0
 32 31  1  0  0  0  0
 33 32  2  0  0  0  0
M  END
>  <MODEL>
2

>  <REMARK>
 VINA RESULT:      -8.2      1.299      2.214
  Name = 
  9 active torsions:
  status: ('A' for Active; 'I' for Inactive)
    1  A    between atoms: C_3  and  C_5
    2  A    between atoms: C_3  and  C_6
    3  A    between atoms: C_3  and  N_23
    4  A    between atoms: P_7  and  N_25
    5  A    between atoms: C_11  and  C_12
    6  A    between atoms: C_11  and  C_24
    7  A    between atoms: C_11  and  C_26
    8  A    between atoms: C_15  and  C_31
    9  A    between atoms: C_24  and  N_25
                            x       y       z     vdW  Elec       q    Type
                         _______ _______ _______ _____ _____    ______ ____

>  <TORSDO>
F 9

$$$$
=
 OpenBabel11062413473D

 35 37  0  0  1  0  0  0  0  0999 V2000
  192.4380  174.7250  144.3500 N   0  0  0  0  0  1  0  0  0  0  0  0
  190.0190  176.0080  142.0410 C   0  0  0  0  0  3  0  0  0  0  0  0
  190.7230  175.7410  143.1040 C   0  0  0  0  0  0  0  0  0  0  0  0
  188.8440  177.3740  144.5230 C   0  0  2  0  0  3  0  0  0  0  0  0
  191.0540  176.5230  145.3310 N   0  0  0  0  0  0  0  0  0  0  0  0
  191.3350  175.6180  144.2460 C   0  0  0  0  0  0  0  0  0  0  0  0
  190.0150  177.3030  145.4760 C   0  0  0  0  0  3  0  0  0  0  0  0
  189.2550  178.1190  143.2490 C   0  0  0  0  0  2  0  0  0  0  0  0
  189.1120  177.2180  142.0030 C   0  0  1  0  0  3  0  0  0  0  0  0
  190.3980  177.4240  139.9640 O   0  0  0  0  0  0  0  0  0  0  0  0
  189.3670  178.0230  140.7220 C   0  0  1  0  0  3  0  0  0  0  0  0
  188.2040  178.0260  139.8340 C   0  0  0  0  0  0  0  0  0  0  0  0
  189.8110  176.6560  138.9830 N   0  0  0  0  0  0  0  0  0  0  0  0
  187.1750  178.6590  140.0080 O   0  0  0  0  0  0  0  0  0  0  0  0
  188.5080  177.2360  138.6620 C   0  0  0  0  0  2  0  0  0  0  0  0
  190.6390  176.6890  137.7660 C   0  0  1  0  0  3  0  0  0  0  0  0
  193.9820  176.4070  137.0100 O   0  0  0  0  0  0  0  0  0  0  0  0
  191.8560  175.7290  137.8590 C   0  0  2  0  0  3  0  0  0  0  0  0
  193.3650  177.1740  139.0980 O   0  0  0  0  0  0  0  0  0  0  0  0
  193.1030  176.5060  138.0630 C   0  0  0  0  0  0  0  0  0  0  0  0
  192.1700  174.9860  136.5480 C   0  0  0  0  0  3  0  0  0  0  0  0
  193.4650  175.5830  135.9860 C   0  0  0  0  0  3  0  0  0  0  0  0
  189.7740  176.4220  136.5620 C   0  0  0  0  0  0  0  0  0  0  0  0
  189.7380  177.2400  135.6050 O   0  0  0  0  0  0  0  0  0  0  0  0
  188.9980  175.2710  136.5160 O   0  0  0  0  0  1  0  0  0  0  0  0
  187.6300  178.0460  145.1780 C   0  0  2  0  0  3  0  0  0  0  0  0
  187.9610  177.9800  149.3050 C   0  0  0  0  0  1  0  0  0  0  0  0
  187.8440  178.0030  147.8470 C   0  0  0  0  0  0  0  0  0  0  0  0
  187.7480  178.0210  146.6460 C   0  0  0  0  0  0  0  0  0  0  0  0
  186.3420  177.3330  144.7790 C   0  0  0  0  0  2  0  0  0  0  0  0
  185.6800  178.0500  143.7000 N   0  0  0  0  0  2  0  0  0  0  0  0
  184.3930  179.0010  144.4140 P   0  0  0  0  0  0  0  0  0  0  0  0
  184.3580  178.7510  146.0860 O   0  0  0  0  0  1  0  0  0  0  0  0
  184.6400  180.4650  144.1330 O   0  0  0  0  0  1  0  0  0  0  0  0
  182.9080  178.5470  143.7430 O   0  0  0  0  0  0  0  0  0  0  0  0
  2  3  2  0  0  0  0
  3  6  2  0  0  0  0
  4 26  1  1  0  0  0
  4  7  1  0  0  0  0
  5  7  2  0  0  0  0
  6  1  1  0  0  0  0
  6  5  1  0  0  0  0
  8  4  1  0  0  0  0
  9  2  1  1  0  0  0
  9  8  1  0  0  0  0
 10 11  1  0  0  0  0
 11 12  1  6  0  0  0
 11  9  1  0  0  0  0
 12 14  2  0  0  0  0
 13 10  1  0  0  0  0
 15 13  1  0  0  0  0
 15 12  1  0  0  0  0
 16 23  1  6  0  0  0
 16 13  1  0  0  0  0
 17 20  1  0  0  0  0
 18 16  1  6  0  0  0
 18 20  1  0  0  0  0
 20 19  2  0  0  0  0
 21 18  1  0  0  0  0
 22 21  2  0  0  0  0
 22 17  1  0  0  0  0
 24 23  2  0  0  0  0
 25 23  1  0  0  0  0
 26 30  1  1  0  0  0
 26 29  1  0  0  0  0
 28 27  1  0  0  0  0
 29 28  3  0  0  0  0
 31 32  1  0  0  0  0
 31 30  1  0  0  0  0
 32 33  1  0  0  0  0
 34 32  1  0  0  0  0
 35 32  2  0  0  0  0
M  END
>  <MODEL>
3

>  <REMARK>
 VINA RESULT:      -8.2      3.447      5.755
  Name = 
  9 active torsions:
  status: ('A' for Active; 'I' for Inactive)
    1  A    between atoms: C_3  and  C_5
    2  A    between atoms: C_3  and  C_6
    3  A    between atoms: C_3  and  N_23
    4  A    between atoms: P_7  and  N_25
    5  A    between atoms: C_11  and  C_12
    6  A    between atoms: C_11  and  C_24
    7  A    between atoms: C_11  and  C_26
    8  A    between atoms: C_15  and  C_31
    9  A    between atoms: C_24  and  N_25
                            x       y       z     vdW  Elec       q    Type
                         _______ _______ _______ _____ _____    ______ ____

>  <TORSDO>
F 9

$$$$
=
 OpenBabel11062413473D

 35 37  0  0  1  0  0  0  0  0999 V2000
  186.4860  178.3670  147.8890 N   0  0  0  0  0  1  0  0  0  0  0  0
  187.2070  176.7560  144.7720 C   0  0  0  0  0  3  0  0  0  0  0  0
  186.7290  177.5280  145.7060 C   0  0  0  0  0  0  0  0  0  0  0  0
  185.0230  178.6090  143.6740 C   0  0  2  0  0  3  0  0  0  0  0  0
  185.4480  179.5210  145.9650 N   0  0  0  0  0  0  0  0  0  0  0  0
  186.1800  178.4010  146.5000 C   0  0  0  0  0  0  0  0  0  0  0  0
  184.9570  179.6570  144.7620 C   0  0  0  0  0  3  0  0  0  0  0  0
  186.4450  178.5330  143.1110 C   0  0  0  0  0  2  0  0  0  0  0  0
  187.0540  177.1290  143.3140 C   0  0  1  0  0  3  0  0  0  0  0  0
  188.2210  176.9550  141.2010 O   0  0  0  0  0  0  0  0  0  0  0  0
  188.4080  177.0190  142.6010 C   0  0  1  0  0  3  0  0  0  0  0  0
  189.2390  178.2050  142.8120 C   0  0  0  0  0  0  0  0  0  0  0  0
  188.4140  178.2180  140.6900 N   0  0  0  0  0  0  0  0  0  0  0  0
  189.8240  178.4910  143.8440 O   0  0  0  0  0  0  0  0  0  0  0  0
  189.3390  178.9350  141.5680 C   0  0  0  0  0  2  0  0  0  0  0  0
  189.0320  178.1240  139.3560 C   0  0  1  0  0  3  0  0  0  0  0  0
  191.8160  176.6920  137.9320 O   0  0  0  0  0  0  0  0  0  0  0  0
  189.7600  176.7680  139.1440 C   0  0  2  0  0  3  0  0  0  0  0  0
  191.8970  177.3420  140.1450 O   0  0  0  0  0  0  0  0  0  0  0  0
  191.2290  176.9740  139.1430 C   0  0  0  0  0  0  0  0  0  0  0  0
  189.5390  176.1490  137.7520 C   0  0  0  0  0  3  0  0  0  0  0  0
  190.8570  176.2760  136.9820 C   0  0  0  0  0  3  0  0  0  0  0  0
  187.9950  178.4010  138.3000 C   0  0  0  0  0  0  0  0  0  0  0  0
  186.8630  177.8500  138.3550 O   0  0  0  0  0  1  0  0  0  0  0  0
  188.2940  179.2600  137.2500 O   0  0  0  0  0  0  0  0  0  0  0  0
  184.0110  178.8980  142.5580 C   0  0  2  0  0  3  0  0  0  0  0  0
  180.1340  178.6530  143.9900 C   0  0  0  0  0  1  0  0  0  0  0  0
  181.5030  178.7390  143.4850 C   0  0  0  0  0  0  0  0  0  0  0  0
  182.6320  178.8120  143.0680 C   0  0  0  0  0  0  0  0  0  0  0  0
  184.1730  177.8990  141.4160 C   0  0  0  0  0  2  0  0  0  0  0  0
  182.9930  177.9080  140.5650 N   0  0  0  0  0  2  0  0  0  0  0  0
  183.3110  179.0060  139.2360 P   0  0  0  0  0  0  0  0  0  0  0  0
  184.7250  179.8810  139.5460 O   0  0  0  0  0  1  0  0  0  0  0  0
  183.4850  178.2110  137.9630 O   0  0  0  0  0  0  0  0  0  0  0  0
  182.0120  180.0740  139.0540 O   0  0  0  0  0  1  0  0  0  0  0  0
  2  3  2  0  0  0  0
  3  6  2  0  0  0  0
  4 26  1  6  0  0  0
  4  7  1  0  0  0  0
  5  6  1  0  0  0  0
  6  1  1  0  0  0  0
  7  5  2  0  0  0  0
  8  4  1  0  0  0  0
  9  8  1  1  0  0  0
  9  2  1  0  0  0  0
 11 10  1  6  0  0  0
 11 12  1  0  0  0  0
 11  9  1  0  0  0  0
 12 14  2  0  0  0  0
 13 10  1  0  0  0  0
 13 15  1  0  0  0  0
 15 12  1  0  0  0  0
 16 23  1  6  0  0  0
 16 13  1  0  0  0  0
 17 20  1  0  0  0  0
 18 16  1  6  0  0  0
 20 18  1  0  0  0  0
 20 19  2  0  0  0  0
 21 18  1  0  0  0  0
 22 21  2  0  0  0  0
 22 17  1  0  0  0  0
 23 24  1  0  0  0  0
 25 23  2  0  0  0  0
 26 30  1  6  0  0  0
 26 29  1  0  0  0  0
 28 27  1  0  0  0  0
 29 28  3  0  0  0  0
 31 30  1  0  0  0  0
 32 33  1  0  0  0  0
 32 31  1  0  0  0  0
 34 32  2  0  0  0  0
 35 32  1  0  0  0  0
M  END
>  <MODEL>
4

>  <REMARK>
 VINA RESULT:      -7.9      1.533      3.311
  Name = 
  9 active torsions:
  status: ('A' for Active; 'I' for Inactive)
    1  A    between atoms: C_3  and  C_5
    2  A    between atoms: C_3  and  C_6
    3  A    between atoms: C_3  and  N_23
    4  A    between atoms: P_7  and  N_25
    5  A    between atoms: C_11  and  C_12
    6  A    between atoms: C_11  and  C_24
    7  A    between atoms: C_11  and  C_26
    8  A    between atoms: C_15  and  C_31
    9  A    between atoms: C_24  and  N_25
                            x       y       z     vdW  Elec       q    Type
                         _______ _______ _______ _____ _____    ______ ____

>  <TORSDO>
F 9

$$$$
=
 OpenBabel11062413473D

 35 37  0  0  1  0  0  0  0  0999 V2000
  184.3970  178.5950  146.9400 N   0  0  0  0  0  1  0  0  0  0  0  0
  185.0900  179.0820  143.4600 C   0  0  0  0  0  3  0  0  0  0  0  0
  185.1630  178.7840  144.7260 C   0  0  0  0  0  0  0  0  0  0  0  0
  187.8920  178.0830  144.2040 C   0  0  2  0  0  3  0  0  0  0  0  0
  186.5440  177.5820  146.2520 N   0  0  0  0  0  0  0  0  0  0  0  0
  185.3950  178.3960  145.9470 C   0  0  0  0  0  0  0  0  0  0  0  0
  187.6180  177.4060  145.5280 C   0  0  0  0  0  3  0  0  0  0  0  0
  187.0220  177.4570  143.1100 C   0  0  0  0  0  2  0  0  0  0  0  0
  186.0820  178.5050  142.4750 C   0  0  1  0  0  3  0  0  0  0  0  0
  183.9420  177.9440  141.4940 O   0  0  0  0  0  0  0  0  0  0  0  0
  185.3390  177.9060  141.2740 C   0  0  1  0  0  3  0  0  0  0  0  0
  185.5460  178.6870  140.0540 C   0  0  0  0  0  0  0  0  0  0  0  0
  183.4420  179.0510  140.8460 N   0  0  0  0  0  0  0  0  0  0  0  0
  186.5680  178.7120  139.3890 O   0  0  0  0  0  0  0  0  0  0  0  0
  184.3090  179.3490  139.7060 C   0  0  0  0  0  2  0  0  0  0  0  0
  182.0940  178.7560  140.3300 C   0  0  1  0  0  3  0  0  0  0  0  0
  180.8390  176.2880  138.2910 O   0  0  0  0  0  0  0  0  0  0  0  0
  181.8180  177.2290  140.2540 C   0  0  2  0  0  3  0  0  0  0  0  0
  183.1050  176.7260  138.2570 O   0  0  0  0  0  0  0  0  0  0  0  0
  182.0020  176.7480  138.8640 C   0  0  0  0  0  0  0  0  0  0  0  0
  180.3520  176.8430  140.5200 C   0  0  0  0  0  3  0  0  0  0  0  0
  179.7500  176.3960  139.1840 C   0  0  0  0  0  3  0  0  0  0  0  0
  181.0690  179.4950  141.1500 C   0  0  0  0  0  0  0  0  0  0  0  0
  180.1950  180.2080  140.5900 O   0  0  0  0  0  0  0  0  0  0  0  0
  181.0990  179.4020  142.5350 O   0  0  0  0  0  1  0  0  0  0  0  0
  189.3780  178.0000  143.8320 C   0  0  2  0  0  3  0  0  0  0  0  0
  189.8410  177.1310  139.8100 C   0  0  0  0  0  1  0  0  0  0  0  0
  189.6770  177.4370  141.2310 C   0  0  0  0  0  0  0  0  0  0  0  0
  189.5410  177.6900  142.4010 C   0  0  0  0  0  0  0  0  0  0  0  0
  190.0760  176.9170  144.6490 C   0  0  0  0  0  2  0  0  0  0  0  0
  191.1380  177.4980  145.4550 N   0  0  0  0  0  2  0  0  0  0  0  0
  191.3310  176.4900  146.8760 P   0  0  0  0  0  0  0  0  0  0  0  0
  192.0350  177.3910  148.1230 O   0  0  0  0  0  1  0  0  0  0  0  0
  189.9760  175.9930  147.3230 O   0  0  0  0  0  1  0  0  0  0  0  0
  192.3170  175.1660  146.5080 O   0  0  0  0  0  0  0  0  0  0  0  0
  2  3  2  0  0  0  0
  3  6  2  0  0  0  0
  4 26  1  6  0  0  0
  4  7  1  0  0  0  0
  6  5  1  0  0  0  0
  6  1  1  0  0  0  0
  7  5  2  0  0  0  0
  8  4  1  0  0  0  0
  9  8  1  1  0  0  0
  9  2  1  0  0  0  0
 11 12  1  6  0  0  0
 11 10  1  0  0  0  0
 11  9  1  0  0  0  0
 13 10  1  0  0  0  0
 14 12  2  0  0  0  0
 15 12  1  0  0  0  0
 15 13  1  0  0  0  0
 16 13  1  0  0  0  0
 16 23  1  1  0  0  0
 17 20  1  0  0  0  0
 17 22  1  0  0  0  0
 18 16  1  6  0  0  0
 18 21  1  0  0  0  0
 19 20  2  0  0  0  0
 20 18  1  0  0  0  0
 22 21  2  0  0  0  0
 23 25  1  0  0  0  0
 24 23  2  0  0  0  0
 26 29  1  6  0  0  0
 26 30  1  0  0  0  0
 27 28  1  0  0  0  0
 28 29  3  0  0  0  0
 30 31  1  0  0  0  0
 31 32  1  0  0  0  0
 32 34  1  0  0  0  0
 32 33  1  0  0  0  0
 35 32  2  0  0  0  0
M  END
>  <MODEL>
5

>  <REMARK>
 VINA RESULT:      -7.9      3.153      8.347
  Name = 
  9 active torsions:
  status: ('A' for Active; 'I' for Inactive)
    1  A    between atoms: C_3  and  C_5
    2  A    between atoms: C_3  and  C_6
    3  A    between atoms: C_3  and  N_23
    4  A    between atoms: P_7  and  N_25
    5  A    between atoms: C_11  and  C_12
    6  A    between atoms: C_11  and  C_24
    7  A    between atoms: C_11  and  C_26
    8  A    between atoms: C_15  and  C_31
    9  A    between atoms: C_24  and  N_25
                            x       y       z     vdW  Elec       q    Type
                         _______ _______ _______ _____ _____    ______ ____

>  <TORSDO>
F 9

$$$$
=
 OpenBabel11062413473D

 35 37  0  0  1  0  0  0  0  0999 V2000
  183.1500  179.0020  145.6490 N   0  0  0  0  0  1  0  0  0  0  0  0
  185.5330  178.0370  143.1550 C   0  0  0  0  0  3  0  0  0  0  0  0
  184.4560  178.4110  143.7860 C   0  0  0  0  0  0  0  0  0  0  0  0
  183.1450  178.2580  141.2420 C   0  0  2  0  0  3  0  0  0  0  0  0
  182.2870  179.2990  143.3510 N   0  0  0  0  0  0  0  0  0  0  0  0
  183.3100  178.8220  144.2470 C   0  0  0  0  0  0  0  0  0  0  0  0
  182.1920  179.0980  142.0630 C   0  0  0  0  0  3  0  0  0  0  0  0
  184.4670  179.0080  141.0520 C   0  0  0  0  0  2  0  0  0  0  0  0
  185.6490  178.2210  141.6580 C   0  0  1  0  0  3  0  0  0  0  0  0
  187.8860  178.7760  142.3970 O   0  0  0  0  0  0  0  0  0  0  0  0
  186.9820  178.8990  141.3160 C   0  0  1  0  0  3  0  0  0  0  0  0
  187.6560  178.2510  140.1900 C   0  0  0  0  0  0  0  0  0  0  0  0
  188.7230  177.7160  142.1290 N   0  0  0  0  0  0  0  0  0  0  0  0
  187.3300  178.3390  139.0180 O   0  0  0  0  0  0  0  0  0  0  0  0
  188.8340  177.5710  140.6780 C   0  0  0  0  0  2  0  0  0  0  0  0
  190.0660  177.9980  142.6650 C   0  0  1  0  0  3  0  0  0  0  0  0
  191.6630  177.5730  145.6800 O   0  0  0  0  0  0  0  0  0  0  0  0
  190.0230  178.4120  144.1620 C   0  0  2  0  0  3  0  0  0  0  0  0
  192.2530  179.3580  144.3400 O   0  0  0  0  0  0  0  0  0  0  0  0
  191.4010  178.5040  144.7030 C   0  0  0  0  0  0  0  0  0  0  0  0
  189.4020  177.3520  145.0880 C   0  0  0  0  0  3  0  0  0  0  0  0
  190.5390  176.7520  145.9210 C   0  0  0  0  0  3  0  0  0  0  0  0
  190.9660  176.8180  142.4110 C   0  0  0  0  0  0  0  0  0  0  0  0
  192.1110  176.9830  141.9110 O   0  0  0  0  0  0  0  0  0  0  0  0
  190.5240  175.5370  142.7140 O   0  0  0  0  0  1  0  0  0  0  0  0
  182.5330  177.8820  139.8870 C   0  0  2  0  0  3  0  0  0  0  0  0
  179.1570  175.5410  140.4010 C   0  0  0  0  0  1  0  0  0  0  0  0
  180.3500  176.3680  140.2190 C   0  0  0  0  0  0  0  0  0  0  0  0
  181.3330  177.0490  140.0690 C   0  0  0  0  0  0  0  0  0  0  0  0
  183.5400  177.1110  139.0400 C   0  0  0  0  0  2  0  0  0  0  0  0
  183.2300  177.2590  137.6260 N   0  0  0  0  0  2  0  0  0  0  0  0
  184.4030  176.3140  136.7290 P   0  0  0  0  0  0  0  0  0  0  0  0
  185.7380  177.2790  136.3440 O   0  0  0  0  0  1  0  0  0  0  0  0
  184.8570  175.1490  137.5760 O   0  0  0  0  0  1  0  0  0  0  0  0
  183.6980  175.7290  135.3070 O   0  0  0  0  0  0  0  0  0  0  0  0
  2  3  2  0  0  0  0
  3  6  2  0  0  0  0
  4 26  1  6  0  0  0
  4  7  1  0  0  0  0
  5  6  1  0  0  0  0
  6  1  1  0  0  0  0
  7  5  2  0  0  0  0
  8  4  1  0  0  0  0
  9  8  1  1  0  0  0
  9  2  1  0  0  0  0
 11 12  1  6  0  0  0
 11  9  1  0  0  0  0
 11 10  1  0  0  0  0
 12 15  1  0  0  0  0
 13 10  1  0  0  0  0
 13 16  1  0  0  0  0
 14 12  2  0  0  0  0
 15 13  1  0  0  0  0
 16 23  1  1  0  0  0
 17 22  1  0  0  0  0
 18 16  1  6  0  0  0
 18 20  1  0  0  0  0
 18 21  1  0  0  0  0
 19 20  2  0  0  0  0
 20 17  1  0  0  0  0
 21 22  2  0  0  0  0
 23 25  1  0  0  0  0
 24 23  2  0  0  0  0
 26 30  1  6  0  0  0
 26 29  1  0  0  0  0
 28 27  1  0  0  0  0
 29 28  3  0  0  0  0
 31 30  1  0  0  0  0
 32 34  1  0  0  0  0
 32 31  1  0  0  0  0
 33 32  1  0  0  0  0
 35 32  2  0  0  0  0
M  END
>  <MODEL>
6

>  <REMARK>
 VINA RESULT:      -7.7      2.014      2.867
  Name = 
  9 active torsions:
  status: ('A' for Active; 'I' for Inactive)
    1  A    between atoms: C_3  and  C_5
    2  A    between atoms: C_3  and  C_6
    3  A    between atoms: C_3  and  N_23
    4  A    between atoms: P_7  and  N_25
    5  A    between atoms: C_11  and  C_12
    6  A    between atoms: C_11  and  C_24
    7  A    between atoms: C_11  and  C_26
    8  A    between atoms: C_15  and  C_31
    9  A    between atoms: C_24  and  N_25
                            x       y       z     vdW  Elec       q    Type
                         _______ _______ _______ _____ _____    ______ ____

>  <TORSDO>
F 9

$$$$
=
 OpenBabel11062413473D

 35 37  0  0  1  0  0  0  0  0999 V2000
  179.0150  179.7270  144.3380 N   0  0  0  0  0  1  0  0  0  0  0  0
  182.3710  178.6210  143.7490 C   0  0  0  0  0  3  0  0  0  0  0  0
  181.1200  178.9650  143.6220 C   0  0  0  0  0  0  0  0  0  0  0  0
  181.3760  178.1570  140.8840 C   0  0  2  0  0  3  0  0  0  0  0  0
  179.5150  179.4610  141.9320 N   0  0  0  0  0  0  0  0  0  0  0  0
  179.9030  179.3030  143.3100 C   0  0  0  0  0  0  0  0  0  0  0  0
  180.1260  179.0070  140.8690 C   0  0  0  0  0  3  0  0  0  0  0  0
  182.5890  179.0220  141.2410 C   0  0  0  0  0  2  0  0  0  0  0  0
  183.2690  178.5270  142.5350 C   0  0  1  0  0  3  0  0  0  0  0  0
  185.1390  178.9040  144.0240 O   0  0  0  0  0  0  0  0  0  0  0  0
  184.5720  179.2950  142.7890 C   0  0  1  0  0  3  0  0  0  0  0  0
  185.5970  178.9820  141.7920 C   0  0  0  0  0  0  0  0  0  0  0  0
  186.1150  177.9690  143.7650 N   0  0  0  0  0  0  0  0  0  0  0  0
  185.6110  179.3730  140.6370 O   0  0  0  0  0  0  0  0  0  0  0  0
  186.6480  178.2170  142.4260 C   0  0  0  0  0  2  0  0  0  0  0  0
  187.2160  178.1210  144.7310 C   0  0  1  0  0  3  0  0  0  0  0  0
  187.2120  178.7690  148.1080 O   0  0  0  0  0  0  0  0  0  0  0  0
  186.8720  177.5020  146.1130 C   0  0  2  0  0  3  0  0  0  0  0  0
  185.3000  179.1860  146.8830 O   0  0  0  0  0  0  0  0  0  0  0  0
  186.3800  178.5560  147.0340 C   0  0  0  0  0  0  0  0  0  0  0  0
  188.0940  176.9700  146.8840 C   0  0  0  0  0  3  0  0  0  0  0  0
  188.3410  177.9220  148.0590 C   0  0  0  0  0  3  0  0  0  0  0  0
  188.4840  177.5630  144.1400 C   0  0  0  0  0  0  0  0  0  0  0  0
  188.5310  176.3710  143.7340 O   0  0  0  0  0  0  0  0  0  0  0  0
  189.6150  178.3650  144.0570 O   0  0  0  0  0  1  0  0  0  0  0  0
  181.5880  177.4510  139.5390 C   0  0  2  0  0  3  0  0  0  0  0  0
  179.6910  173.7710  139.5010 C   0  0  0  0  0  1  0  0  0  0  0  0
  180.3610  175.0710  139.5140 C   0  0  0  0  0  0  0  0  0  0  0  0
  180.9140  176.1410  139.5240 C   0  0  0  0  0  0  0  0  0  0  0  0
  183.0750  177.2390  139.2730 C   0  0  0  0  0  2  0  0  0  0  0  0
  183.4120  177.6550  137.9210 N   0  0  0  0  0  2  0  0  0  0  0  0
  184.1880  176.2980  137.1300 P   0  0  0  0  0  0  0  0  0  0  0  0
  183.7310  174.8580  137.8910 O   0  0  0  0  0  1  0  0  0  0  0  0
  183.7630  176.2540  135.6810 O   0  0  0  0  0  0  0  0  0  0  0  0
  185.8690  176.4730  137.2130 O   0  0  0  0  0  1  0  0  0  0  0  0
  3  2  2  0  0  0  0
  4 26  1  6  0  0  0
  4  8  1  0  0  0  0
  5  6  1  0  0  0  0
  6  3  2  0  0  0  0
  6  1  1  0  0  0  0
  7  4  1  0  0  0  0
  7  5  2  0  0  0  0
  9  8  1  6  0  0  0
  9 11  1  0  0  0  0
  9  2  1  0  0  0  0
 11 12  1  6  0  0  0
 11 10  1  0  0  0  0
 12 15  1  0  0  0  0
 13 10  1  0  0  0  0
 13 16  1  0  0  0  0
 14 12  2  0  0  0  0
 15 13  1  0  0  0  0
 16 23  1  6  0  0  0
 18 16  1  6  0  0  0
 18 21  1  0  0  0  0
 18 20  1  0  0  0  0
 19 20  2  0  0  0  0
 20 17  1  0  0  0  0
 21 22  2  0  0  0  0
 22 17  1  0  0  0  0
 24 23  2  0  0  0  0
 25 23  1  0  0  0  0
 26 30  1  1  0  0  0
 27 28  1  0  0  0  0
 28 29  3  0  0  0  0
 29 26  1  0  0  0  0
 31 30  1  0  0  0  0
 32 35  1  0  0  0  0
 32 33  1  0  0  0  0
 32 31  1  0  0  0  0
 34 32  2  0  0  0  0
M  END
>  <MODEL>
7

>  <REMARK>
 VINA RESULT:      -7.6      2.846      4.782
  Name = 
  9 active torsions:
  status: ('A' for Active; 'I' for Inactive)
    1  A    between atoms: C_3  and  C_5
    2  A    between atoms: C_3  and  C_6
    3  A    between atoms: C_3  and  N_23
    4  A    between atoms: P_7  and  N_25
    5  A    between atoms: C_11  and  C_12
    6  A    between atoms: C_11  and  C_24
    7  A    between atoms: C_11  and  C_26
    8  A    between atoms: C_15  and  C_31
    9  A    between atoms: C_24  and  N_25
                            x       y       z     vdW  Elec       q    Type
                         _______ _______ _______ _____ _____    ______ ____

>  <TORSDO>
F 9

$$$$
=
 OpenBabel11062413473D

 35 37  0  0  1  0  0  0  0  0999 V2000
  187.8190  178.5970  138.5920 N   0  0  0  0  0  1  0  0  0  0  0  0
  185.1520  178.2600  140.9590 C   0  0  0  0  0  3  0  0  0  0  0  0
  186.3160  178.3040  140.3750 C   0  0  0  0  0  0  0  0  0  0  0  0
  187.3940  177.4530  142.8910 C   0  0  2  0  0  3  0  0  0  0  0  0
  188.6380  178.3450  140.9100 N   0  0  0  0  0  0  0  0  0  0  0  0
  187.5510  178.3410  139.9650 C   0  0  0  0  0  0  0  0  0  0  0  0
  188.6080  177.9940  142.1690 C   0  0  0  0  0  3  0  0  0  0  0  0
  186.4000  178.5880  143.1580 C   0  0  0  0  0  2  0  0  0  0  0  0
  185.0460  178.3200  142.4670 C   0  0  1  0  0  3  0  0  0  0  0  0
  183.0260  179.5120  141.8730 O   0  0  0  0  0  0  0  0  0  0  0  0
  184.0120  179.3760  142.8770 C   0  0  1  0  0  3  0  0  0  0  0  0
  183.2710  178.9830  144.0770 C   0  0  0  0  0  0  0  0  0  0  0  0
  181.9340  178.7600  142.2470 N   0  0  0  0  0  0  0  0  0  0  0  0
  183.7050  178.9890  145.2170 O   0  0  0  0  0  0  0  0  0  0  0  0
  181.9060  178.6820  143.7070 C   0  0  0  0  0  2  0  0  0  0  0  0
  180.6980  179.4250  141.8000 C   0  0  1  0  0  3  0  0  0  0  0  0
  182.1040  178.2790  138.8790 O   0  0  0  0  0  0  0  0  0  0  0  0
  180.3980  179.1560  140.3000 C   0  0  2  0  0  3  0  0  0  0  0  0
  180.9670  176.7960  140.2340 O   0  0  0  0  0  0  0  0  0  0  0  0
  181.1620  177.9730  139.8330 C   0  0  0  0  0  0  0  0  0  0  0  0
  180.9190  180.2500  139.3510 C   0  0  0  0  0  3  0  0  0  0  0  0
  182.1070  179.6600  138.5850 C   0  0  0  0  0  3  0  0  0  0  0  0
  179.5600  179.0300  142.7040 C   0  0  0  0  0  0  0  0  0  0  0  0
  179.1240  177.8480  142.7050 O   0  0  0  0  0  0  0  0  0  0  0  0
  178.9770  179.9800  143.5320 O   0  0  0  0  0  1  0  0  0  0  0  0
  187.7870  176.7550  144.1990 C   0  0  2  0  0  3  0  0  0  0  0  0
  186.3460  178.8480  147.4680 C   0  0  0  0  0  1  0  0  0  0  0  0
  186.8550  178.1080  146.3130 C   0  0  0  0  0  0  0  0  0  0  0  0
  187.2750  177.4990  145.3620 C   0  0  0  0  0  0  0  0  0  0  0  0
  189.3040  176.6470  144.3150 C   0  0  0  0  0  2  0  0  0  0  0  0
  189.7170  176.8000  145.7010 N   0  0  0  0  0  2  0  0  0  0  0  0
  191.4690  176.8020  145.7300 P   0  0  0  0  0  0  0  0  0  0  0  0
  192.0510  178.2110  144.9990 O   0  0  0  0  0  1  0  0  0  0  0  0
  191.9440  176.7510  147.1640 O   0  0  0  0  0  1  0  0  0  0  0  0
  192.0560  175.4490  144.9000 O   0  0  0  0  0  0  0  0  0  0  0  0
  1  6  1  0  0  0  0
  3  2  2  0  0  0  0
  4  8  1  0  0  0  0
  4 26  1  1  0  0  0
  5  7  2  0  0  0  0
  6  3  2  0  0  0  0
  6  5  1  0  0  0  0
  7  4  1  0  0  0  0
  9  2  1  6  0  0  0
  9 11  1  0  0  0  0
  9  8  1  0  0  0  0
 10 13  1  0  0  0  0
 11 10  1  6  0  0  0
 11 12  1  0  0  0  0
 12 14  2  0  0  0  0
 13 15  1  0  0  0  0
 15 12  1  0  0  0  0
 16 13  1  0  0  0  0
 16 23  1  1  0  0  0
 17 20  1  0  0  0  0
 18 16  1  1  0  0  0
 20 19  2  0  0  0  0
 20 18  1  0  0  0  0
 21 18  1  0  0  0  0
 22 17  1  0  0  0  0
 22 21  2  0  0  0  0
 23 24  2  0  0  0  0
 23 25  1  0  0  0  0
 26 30  1  1  0  0  0
 26 29  1  0  0  0  0
 28 27  1  0  0  0  0
 29 28  3  0  0  0  0
 30 31  1  0  0  0  0
 31 32  1  0  0  0  0
 32 34  1  0  0  0  0
 33 32  1  0  0  0  0
 35 32  2  0  0  0  0
M  END
>  <MODEL>
8

>  <REMARK>
 VINA RESULT:      -7.5      3.332      8.697
  Name = 
  9 active torsions:
  status: ('A' for Active; 'I' for Inactive)
    1  A    between atoms: C_3  and  C_5
    2  A    between atoms: C_3  and  C_6
    3  A    between atoms: C_3  and  N_23
    4  A    between atoms: P_7  and  N_25
    5  A    between atoms: C_11  and  C_12
    6  A    between atoms: C_11  and  C_24
    7  A    between atoms: C_11  and  C_26
    8  A    between atoms: C_15  and  C_31
    9  A    between atoms: C_24  and  N_25
                            x       y       z     vdW  Elec       q    Type
                         _______ _______ _______ _____ _____    ______ ____

>  <TORSDO>
F 9

$$$$
=
 OpenBabel11062413473D

 35 37  0  0  1  0  0  0  0  0999 V2000
  180.3180  179.2270  142.5810 N   0  0  0  0  0  1  0  0  0  0  0  0
  183.7460  178.2450  142.2370 C   0  0  0  0  0  3  0  0  0  0  0  0
  182.5150  178.6100  142.0150 C   0  0  0  0  0  0  0  0  0  0  0  0
  183.1400  178.3400  139.2310 C   0  0  2  0  0  3  0  0  0  0  0  0
  181.1300  179.4250  140.2540 N   0  0  0  0  0  0  0  0  0  0  0  0
  181.3400  179.0050  141.6160 C   0  0  0  0  0  0  0  0  0  0  0  0
  181.8830  179.1800  139.2140 C   0  0  0  0  0  3  0  0  0  0  0  0
  184.2770  179.1170  139.9020 C   0  0  0  0  0  2  0  0  0  0  0  0
  184.7950  178.3820  141.1560 C   0  0  1  0  0  3  0  0  0  0  0  0
  186.1010  178.9160  143.1220 O   0  0  0  0  0  0  0  0  0  0  0  0
  186.0370  179.0850  141.7200 C   0  0  1  0  0  3  0  0  0  0  0  0
  187.2780  178.4950  141.2160 C   0  0  0  0  0  0  0  0  0  0  0  0
  186.9630  177.8760  143.3850 N   0  0  0  0  0  0  0  0  0  0  0  0
  187.7290  178.6350  140.0910 O   0  0  0  0  0  0  0  0  0  0  0  0
  187.9390  177.8000  142.2980 C   0  0  0  0  0  2  0  0  0  0  0  0
  187.6930  178.1410  144.6360 C   0  0  1  0  0  3  0  0  0  0  0  0
  186.5360  178.8340  147.7990 O   0  0  0  0  0  0  0  0  0  0  0  0
  186.9910  177.5060  145.8680 C   0  0  2  0  0  3  0  0  0  0  0  0
  185.0850  179.0040  146.0120 O   0  0  0  0  0  0  0  0  0  0  0  0
  186.1210  178.5080  146.5290 C   0  0  0  0  0  0  0  0  0  0  0  0
  187.9510  177.1330  147.0130 C   0  0  0  0  0  3  0  0  0  0  0  0
  187.7040  178.1240  148.1550 C   0  0  0  0  0  3  0  0  0  0  0  0
  189.1250  177.6980  144.4870 C   0  0  0  0  0  0  0  0  0  0  0  0
  190.0680  178.5180  144.6460 O   0  0  0  0  0  1  0  0  0  0  0  0
  189.4060  176.3790  144.1540 O   0  0  0  0  0  0  0  0  0  0  0  0
  183.5400  177.9030  137.8160 C   0  0  2  0  0  3  0  0  0  0  0  0
  181.2590  174.6780  136.5740 C   0  0  0  0  0  1  0  0  0  0  0  0
  182.0650  175.8180  137.0130 C   0  0  0  0  0  0  0  0  0  0  0  0
  182.7280  176.7570  137.3740 C   0  0  0  0  0  0  0  0  0  0  0  0
  185.0120  177.5050  137.7740 C   0  0  0  0  0  2  0  0  0  0  0  0
  185.4870  177.4700  136.3990 N   0  0  0  0  0  2  0  0  0  0  0  0
  187.2150  177.7600  136.4330 P   0  0  0  0  0  0  0  0  0  0  0  0
  187.5140  179.3730  136.8450 O   0  0  0  0  0  1  0  0  0  0  0  0
  187.8530  176.8560  137.4610 O   0  0  0  0  0  1  0  0  0  0  0  0
  187.8790  177.4320  134.9120 O   0  0  0  0  0  0  0  0  0  0  0  0
  3  2  2  0  0  0  0
  4 26  1  6  0  0  0
  4  8  1  0  0  0  0
  5  6  1  0  0  0  0
  6  3  2  0  0  0  0
  6  1  1  0  0  0  0
  7  4  1  0  0  0  0
  7  5  2  0  0  0  0
  9  8  1  6  0  0  0
  9 11  1  0  0  0  0
  9  2  1  0  0  0  0
 10 13  1  0  0  0  0
 11 12  1  6  0  0  0
 11 10  1  0  0  0  0
 12 15  1  0  0  0  0
 13 16  1  0  0  0  0
 14 12  2  0  0  0  0
 15 13  1  0  0  0  0
 16 23  1  6  0  0  0
 17 22  1  0  0  0  0
 18 16  1  6  0  0  0
 18 20  1  0  0  0  0
 18 21  1  0  0  0  0
 19 20  2  0  0  0  0
 20 17  1  0  0  0  0
 21 22  2  0  0  0  0
 23 24  1  0  0  0  0
 25 23  2  0  0  0  0
 26 29  1  1  0  0  0
 27 28  1  0  0  0  0
 28 29  3  0  0  0  0
 30 26  1  0  0  0  0
 31 32  1  0  0  0  0
 31 30  1  0  0  0  0
 32 33  1  0  0  0  0
 32 34  1  0  0  0  0
 35 32  2  0  0  0  0
M  END
>  <MODEL>
9

>  <REMARK>
 VINA RESULT:      -7.5      3.032      5.080
  Name = 
  9 active torsions:
  status: ('A' for Active; 'I' for Inactive)
    1  A    between atoms: C_3  and  C_5
    2  A    between atoms: C_3  and  C_6
    3  A    between atoms: C_3  and  N_23
    4  A    between atoms: P_7  and  N_25
    5  A    between atoms: C_11  and  C_12
    6  A    between atoms: C_11  and  C_24
    7  A    between atoms: C_11  and  C_26
    8  A    between atoms: C_15  and  C_31
    9  A    between atoms: C_24  and  N_25
                            x       y       z     vdW  Elec       q    Type
                         _______ _______ _______ _____ _____    ______ ____

>  <TORSDO>
F 9

$$$$
