=
 OpenBabel11062416373D

 62 68  0  0  1  0  0  0  0  0999 V2000
  190.3150  176.5710  143.5790 C   0  0  0  0  0  0  0  0  0  0  0  0
  190.4380  176.3760  142.0910 C   0  0  0  0  0  2  0  0  0  0  0  0
  188.2670  177.8700  143.2000 C   0  0  0  0  0  3  0  0  0  0  0  0
  189.2730  177.2470  144.0840 C   0  0  0  0  0  3  0  0  0  0  0  0
  188.4720  177.9480  141.8820 C   0  0  0  0  0  0  0  0  0  0  0  0
  189.7990  177.5190  141.2920 C   0  0  2  0  0  3  0  0  0  0  0  0
  191.7200  176.5200  145.6240 C   0  0  0  0  0  1  0  0  0  0  0  0
  191.2600  175.9500  144.4010 O   0  0  0  0  0  0  0  0  0  0  0  0
  187.3970  178.5510  141.0280 C   0  0  0  0  0  2  0  0  0  0  0  0
  182.3500  179.1730  141.0000 N   0  0  0  0  0  0  0  0  0  0  0  0
  184.7520  178.5300  143.7240 C   0  0  0  0  0  0  0  0  0  0  0  0
  183.6440  178.6860  142.9630 C   0  0  0  0  0  0  0  0  0  0  0  0
  184.8630  178.7890  140.9490 C   0  0  0  0  0  3  0  0  0  0  0  0
  186.0560  178.5650  141.6900 C   0  0  0  0  0  0  0  0  0  0  0  0
  182.2050  179.3810  139.5790 C   0  0  0  0  0  0  0  0  0  0  0  0
  183.2080  179.6130  138.8610 O   0  0  0  0  0  0  0  0  0  0  0  0
  184.3570  178.6440  145.1740 C   0  0  0  0  0  2  0  0  0  0  0  0
  181.3760  179.2060  143.2980 N   0  0  0  0  0  0  0  0  0  0  0  0
  183.6250  178.8550  141.6080 C   0  0  0  0  0  0  0  0  0  0  0  0
  186.0020  178.4640  143.1060 C   0  0  0  0  0  3  0  0  0  0  0  0
  181.1180  179.1060  141.8370 C   0  0  0  0  0  2  0  0  0  0  0  0
  182.5470  178.9450  143.7780 C   0  0  0  0  0  0  0  0  0  0  0  0
  182.9470  178.9460  145.1090 O   0  0  0  0  0  0  0  0  0  0  0  0
  180.4720  180.6800  138.3710 C   0  0  0  0  0  1  0  0  0  0  0  0
  180.8410  179.3320  138.9480 C   0  0  1  0  0  3  0  0  0  0  0  0
  180.6670  178.2470  137.8780 C   0  0  0  0  0  2  0  0  0  0  0  0
  180.3850  177.6970  135.4780 C   0  0  0  0  0  2  0  0  0  0  0  0
  182.5780  178.2550  134.5940 O   0  0  0  0  0  1  0  0  0  0  0  0
  181.8830  177.6710  135.6530 C   0  0  1  0  0  0  0  0  0  0  0  0
  181.0630  178.6570  136.4530 C   0  0  2  0  0  3  0  0  0  0  0  0
  182.4830  176.4380  136.3180 C   0  0  0  0  0  2  0  0  0  0  0  0
  183.6640  176.8030  137.1990 C   0  0  1  0  0  3  0  0  0  0  0  0
  183.7320  175.8370  138.3640 C   0  0  0  0  0  2  0  0  0  0  0  0
  182.5950  175.9540  139.1590 O   0  0  0  0  0  1  0  0  0  0  0  0
  184.9420  176.7720  136.3590 C   0  0  2  0  0  3  0  0  0  0  0  0
  184.9050  175.7670  135.3880 O   0  0  0  0  0  1  0  0  0  0  0  0
  186.2210  176.7000  137.2040 C   0  0  0  0  0  2  0  0  0  0  0  0
  187.3580  178.1170  135.6110 N   0  0  0  0  0  2  0  0  0  0  0  0
  187.2560  177.7210  136.8260 C   0  0  0  0  0  3  0  0  0  0  0  0
  189.6850  177.1010  139.8370 C   0  0  0  0  0  2  0  0  0  0  0  0
  191.1330  175.9700  138.0520 N   0  0  0  0  0  0  0  0  0  0  0  0
  192.0650  177.1430  139.8570 O   0  0  0  0  0  0  0  0  0  0  0  0
  191.0240  176.7530  139.2600 C   0  0  0  0  0  0  0  0  0  0  0  0
  192.8170  176.3720  136.2770 C   0  0  0  0  0  3  0  0  0  0  0  0
  194.9470  175.2230  136.3290 C   0  0  0  0  0  0  0  0  0  0  0  0
  194.0720  176.1280  135.7140 C   0  0  0  0  0  3  0  0  0  0  0  0
  192.4230  175.7120  137.4530 C   0  0  0  0  0  0  0  0  0  0  0  0
  194.5700  174.5750  137.5020 C   0  0  0  0  0  3  0  0  0  0  0  0
  193.3190  174.8190  138.0660 C   0  0  0  0  0  3  0  0  0  0  0  0
  197.2410  174.6990  135.2440 N   0  0  0  0  0  0  0  0  0  0  0  0
  196.2200  174.9310  135.7300 C   0  0  0  0  0  0  0  0  0  0  0  0
  189.9320  175.5500  137.3900 C   0  0  0  0  0  3  0  0  0  0  0  0
  189.8720  174.3660  136.7920 C   0  0  0  0  0  3  0  0  0  0  0  0
  188.7260  173.9260  136.0020 C   0  0  0  0  0  0  0  0  0  0  0  0
  187.9040  172.8400  136.4390 N   0  0  0  0  0  2  0  0  0  0  0  0
  188.4040  174.5970  134.9850 O   0  0  0  0  0  0  0  0  0  0  0  0
  183.8460  172.0010  135.8790 N   0  0  0  0  0  2  0  0  0  0  0  0
  184.7520  171.1070  135.1440 C   0  0  0  0  0  2  0  0  0  0  0  0
  185.5990  172.9630  137.3090 C   0  0  0  0  0  2  0  0  0  0  0  0
  186.4930  172.7250  136.0830 C   0  0  0  0  0  3  0  0  0  0  0  0
  186.2350  171.3580  135.4390 C   0  0  0  0  0  2  0  0  0  0  0  0
  184.2890  172.1570  137.2570 C   0  0  0  0  0  2  0  0  0  0  0  0
  1  4  2  0  0  0  0
  1  8  1  0  0  0  0
  2  1  1  0  0  0  0
  3  4  1  0  0  0  0
  5  3  2  0  0  0  0
  6 40  1  6  0  0  0
  6  5  1  0  0  0  0
  6  2  1  0  0  0  0
  8  7  1  0  0  0  0
  9 14  1  0  0  0  0
  9  5  1  0  0  0  0
 10 19  1  0  0  0  0
 10 21  1  0  0  0  0
 11 17  1  0  0  0  0
 12 11  2  0  0  0  0
 12 22  1  0  0  0  0
 13 19  2  0  0  0  0
 13 14  1  0  0  0  0
 14 20  2  0  0  0  0
 15 10  1  0  0  0  0
 16 15  2  0  0  0  0
 18 22  2  0  0  0  0
 19 12  1  0  0  0  0
 20 11  1  0  0  0  0
 21 18  1  0  0  0  0
 22 23  1  0  0  0  0
 23 17  1  0  0  0  0
 25 24  1  6  0  0  0
 25 15  1  0  0  0  0
 26 25  1  0  0  0  0
 27 29  1  0  0  0  0
 27 30  1  0  0  0  0
 29 28  1  6  0  0  0
 29 31  1  0  0  0  0
 29 30  1  0  0  0  0
 30 26  1  1  0  0  0
 32 31  1  6  0  0  0
 32 33  1  0  0  0  0
 33 34  1  0  0  0  0
 35 36  1  6  0  0  0
 35 32  1  0  0  0  0
 35 37  1  0  0  0  0
 38 39  2  0  0  0  0
 39 37  1  0  0  0  0
 41 43  1  0  0  0  0
 43 40  1  0  0  0  0
 43 42  2  0  0  0  0
 44 47  1  0  0  0  0
 45 48  2  0  0  0  0
 46 44  2  0  0  0  0
 46 45  1  0  0  0  0
 47 41  1  0  0  0  0
 47 49  2  0  0  0  0
 48 49  1  0  0  0  0
 50 51  3  0  0  0  0
 51 45  1  0  0  0  0
 52 41  1  0  0  0  0
 53 52  2  0  0  0  0
 54 55  1  0  0  0  0
 54 53  1  0  0  0  0
 56 54  2  0  0  0  0
 57 62  1  0  0  0  0
 58 61  1  0  0  0  0
 58 57  1  0  0  0  0
 60 55  1  0  0  0  0
 60 59  1  0  0  0  0
 61 60  1  0  0  0  0
 62 59  1  0  0  0  0
M  END
>  <MODEL>
1

>  <REMARK>
 VINA RESULT:      -7.4      0.000      0.000
  Name = 
  19 active torsions:
  status: ('A' for Active; 'I' for Inactive)
    1  A    between atoms: C_2  and  C_16
    2  A    between atoms: C_2  and  C_57
    3  A    between atoms: N_4  and  C_7
    4  A    between atoms: N_4  and  C_49
    5  A    between atoms: C_8  and  O_51
    6  A    between atoms: C_9  and  C_34
    7  A    between atoms: C_11  and  C_17
    8  A    between atoms: C_14  and  C_23
    9  A    between atoms: C_15  and  C_23
   10  A    between atoms: C_15  and  C_34
   11  A    between atoms: C_16  and  C_29
   12  A    between atoms: C_23  and  C_30
   13  A    between atoms: C_27  and  C_56
   14  A    between atoms: N_28  and  C_32
   15  A    between atoms: C_30  and  C_50
   16  A    between atoms: C_37  and  C_41
   17  A    between atoms: C_40  and  C_56
   18  A    between atoms: C_48  and  C_52
   19  A    between atoms: C_52  and  C_59
                            x       y       z     vdW  Elec       q    Type
                         _______ _______ _______ _____ _____    ______ ____

>  <TORSDO>
F 19

$$$$
=
 OpenBabel11062416373D

 62 68  0  0  1  0  0  0  0  0999 V2000
  184.5760  178.6730  142.5530 C   0  0  0  0  0  0  0  0  0  0  0  0
  183.3600  178.4380  141.6970 C   0  0  0  0  0  2  0  0  0  0  0  0
  185.9070  178.9700  140.5120 C   0  0  0  0  0  3  0  0  0  0  0  0
  185.7560  178.9520  141.9820 C   0  0  0  0  0  3  0  0  0  0  0  0
  184.9300  178.5170  139.7210 C   0  0  0  0  0  0  0  0  0  0  0  0
  183.7100  177.8530  140.3230 C   0  0  2  0  0  3  0  0  0  0  0  0
  183.4440  179.4960  144.6030 C   0  0  0  0  0  1  0  0  0  0  0  0
  184.4080  178.6810  143.9410 O   0  0  0  0  0  0  0  0  0  0  0  0
  185.1200  178.6000  138.2360 C   0  0  0  0  0  2  0  0  0  0  0  0
  189.7710  176.5600  138.5020 N   0  0  0  0  0  0  0  0  0  0  0  0
  187.1120  176.3420  135.9550 C   0  0  0  0  0  0  0  0  0  0  0  0
  188.2180  176.1640  136.7130 C   0  0  0  0  0  0  0  0  0  0  0  0
  187.4250  177.5380  138.4550 C   0  0  0  0  0  3  0  0  0  0  0  0
  186.2130  177.7120  137.7300 C   0  0  0  0  0  0  0  0  0  0  0  0
  190.1410  177.1300  139.7750 C   0  0  0  0  0  0  0  0  0  0  0  0
  189.4690  178.0630  140.2780 O   0  0  0  0  0  0  0  0  0  0  0  0
  187.3630  175.7460  134.5940 C   0  0  0  0  0  2  0  0  0  0  0  0
  190.3940  175.3210  136.4270 N   0  0  0  0  0  0  0  0  0  0  0  0
  188.4550  176.7450  137.9260 C   0  0  0  0  0  0  0  0  0  0  0  0
  186.0670  177.1280  136.4440 C   0  0  0  0  0  3  0  0  0  0  0  0
  190.7110  175.6030  137.8510 C   0  0  0  0  0  2  0  0  0  0  0  0
  189.2090  175.5430  135.9610 C   0  0  0  0  0  0  0  0  0  0  0  0
  188.7330  175.2970  134.6780 O   0  0  0  0  0  0  0  0  0  0  0  0
  192.6000  177.3290  140.0350 C   0  0  0  0  0  1  0  0  0  0  0  0
  191.3520  176.6170  140.5040 C   0  0  1  0  0  3  0  0  0  0  0  0
  191.2580  176.6890  142.0340 C   0  0  0  0  0  2  0  0  0  0  0  0
  192.0340  178.0770  143.9350 C   0  0  0  0  0  2  0  0  0  0  0  0
  190.1730  179.6170  144.1990 O   0  0  0  0  0  1  0  0  0  0  0  0
  190.5410  178.2940  143.9490 C   0  0  1  0  0  0  0  0  0  0  0  0
  191.2470  178.1050  142.6260 C   0  0  2  0  0  3  0  0  0  0  0  0
  189.6820  177.1820  144.5390 C   0  0  0  0  0  2  0  0  0  0  0  0
  188.9260  177.6580  145.7660 C   0  0  1  0  0  3  0  0  0  0  0  0
  187.4390  177.6330  145.4730 C   0  0  0  0  0  2  0  0  0  0  0  0
  186.7490  178.4130  146.3980 O   0  0  0  0  0  1  0  0  0  0  0  0
  189.2860  176.7640  146.9520 C   0  0  2  0  0  3  0  0  0  0  0  0
  188.3350  176.8420  147.9740 O   0  0  0  0  0  1  0  0  0  0  0  0
  190.7080  176.9990  147.4800 C   0  0  0  0  0  2  0  0  0  0  0  0
  192.5880  175.5170  147.8020 N   0  0  0  0  0  2  0  0  0  0  0  0
  191.7090  175.9890  146.9980 C   0  0  0  0  0  3  0  0  0  0  0  0
  182.4910  177.9430  139.4220 C   0  0  0  0  0  2  0  0  0  0  0  0
  180.9470  176.4200  138.0590 N   0  0  0  0  0  0  0  0  0  0  0  0
  182.4620  175.5720  139.6360 O   0  0  0  0  0  0  0  0  0  0  0  0
  181.9810  176.5830  139.0530 C   0  0  0  0  0  0  0  0  0  0  0  0
  179.3400  174.5320  138.1450 C   0  0  0  0  0  3  0  0  0  0  0  0
  179.7000  172.5580  136.7920 C   0  0  0  0  0  0  0  0  0  0  0  0
  178.9310  173.2650  137.7250 C   0  0  0  0  0  3  0  0  0  0  0  0
  180.5220  175.1020  137.6430 C   0  0  0  0  0  0  0  0  0  0  0  0
  180.8660  173.1200  136.2790 C   0  0  0  0  0  3  0  0  0  0  0  0
  181.2750  174.3860  136.6960 C   0  0  0  0  0  3  0  0  0  0  0  0
  178.9930  170.1710  136.0740 N   0  0  0  0  0  0  0  0  0  0  0  0
  179.3100  171.2340  136.3920 C   0  0  0  0  0  0  0  0  0  0  0  0
  180.4280  177.5850  137.4050 C   0  0  0  0  0  3  0  0  0  0  0  0
  181.2190  178.3450  136.6540 C   0  0  0  0  0  3  0  0  0  0  0  0
  180.7870  179.6050  136.0580 C   0  0  0  0  0  0  0  0  0  0  0  0
  180.5760  180.7670  136.8660 N   0  0  0  0  0  2  0  0  0  0  0  0
  180.7160  179.6830  134.8020 O   0  0  0  0  0  0  0  0  0  0  0  0
  180.5390  184.8230  135.8470 N   0  0  0  0  0  2  0  0  0  0  0  0
  179.4740  184.0320  135.2110 C   0  0  0  0  0  2  0  0  0  0  0  0
  181.1600  183.0860  137.4710 C   0  0  0  0  0  2  0  0  0  0  0  0
  180.7340  182.1250  136.3520 C   0  0  0  0  0  3  0  0  0  0  0  0
  179.4340  182.5710  135.6730 C   0  0  0  0  0  2  0  0  0  0  0  0
  180.6250  184.5140  137.2660 C   0  0  0  0  0  2  0  0  0  0  0  0
  1  8  1  0  0  0  0
  2  1  1  0  0  0  0
  3  4  1  0  0  0  0
  4  1  2  0  0  0  0
  5  6  1  0  0  0  0
  5  3  2  0  0  0  0
  6 40  1  6  0  0  0
  6  2  1  0  0  0  0
  8  7  1  0  0  0  0
  9  5  1  0  0  0  0
 10 15  1  0  0  0  0
 11 20  2  0  0  0  0
 11 12  1  0  0  0  0
 12 19  2  0  0  0  0
 14  9  1  0  0  0  0
 14 13  2  0  0  0  0
 15 16  2  0  0  0  0
 15 25  1  0  0  0  0
 17 23  1  0  0  0  0
 17 11  1  0  0  0  0
 18 21  1  0  0  0  0
 19 13  1  0  0  0  0
 19 10  1  0  0  0  0
 20 14  1  0  0  0  0
 21 10  1  0  0  0  0
 22 18  2  0  0  0  0
 22 12  1  0  0  0  0
 23 22  1  0  0  0  0
 25 24  1  6  0  0  0
 25 26  1  0  0  0  0
 27 29  1  0  0  0  0
 29 28  1  1  0  0  0
 29 31  1  0  0  0  0
 30 26  1  1  0  0  0
 30 27  1  0  0  0  0
 30 29  1  0  0  0  0
 32 31  1  6  0  0  0
 32 35  1  0  0  0  0
 33 32  1  0  0  0  0
 33 34  1  0  0  0  0
 35 37  1  0  0  0  0
 35 36  1  1  0  0  0
 39 37  1  0  0  0  0
 39 38  2  0  0  0  0
 41 43  1  0  0  0  0
 43 40  1  0  0  0  0
 43 42  2  0  0  0  0
 45 46  2  0  0  0  0
 46 44  1  0  0  0  0
 47 41  1  0  0  0  0
 47 44  2  0  0  0  0
 48 49  2  0  0  0  0
 48 45  1  0  0  0  0
 49 47  1  0  0  0  0
 50 51  3  0  0  0  0
 51 45  1  0  0  0  0
 52 41  1  0  0  0  0
 53 52  2  0  0  0  0
 54 53  1  0  0  0  0
 54 55  1  0  0  0  0
 56 54  2  0  0  0  0
 57 62  1  0  0  0  0
 58 61  1  0  0  0  0
 58 57  1  0  0  0  0
 60 55  1  0  0  0  0
 60 59  1  0  0  0  0
 61 60  1  0  0  0  0
 62 59  1  0  0  0  0
M  END
>  <MODEL>
2

>  <REMARK>
 VINA RESULT:      -7.3      3.037     10.748
  Name = 
  19 active torsions:
  status: ('A' for Active; 'I' for Inactive)
    1  A    between atoms: C_2  and  C_16
    2  A    between atoms: C_2  and  C_57
    3  A    between atoms: N_4  and  C_7
    4  A    between atoms: N_4  and  C_49
    5  A    between atoms: C_8  and  O_51
    6  A    between atoms: C_9  and  C_34
    7  A    between atoms: C_11  and  C_17
    8  A    between atoms: C_14  and  C_23
    9  A    between atoms: C_15  and  C_23
   10  A    between atoms: C_15  and  C_34
   11  A    between atoms: C_16  and  C_29
   12  A    between atoms: C_23  and  C_30
   13  A    between atoms: C_27  and  C_56
   14  A    between atoms: N_28  and  C_32
   15  A    between atoms: C_30  and  C_50
   16  A    between atoms: C_37  and  C_41
   17  A    between atoms: C_40  and  C_56
   18  A    between atoms: C_48  and  C_52
   19  A    between atoms: C_52  and  C_59
                            x       y       z     vdW  Elec       q    Type
                         _______ _______ _______ _____ _____    ______ ____

>  <TORSDO>
F 19

$$$$
=
 OpenBabel11062416373D

 62 68  0  0  1  0  0  0  0  0999 V2000
  190.8080  176.5770  143.8930 C   0  0  0  0  0  0  0  0  0  0  0  0
  190.8830  176.2470  142.4260 C   0  0  0  0  0  2  0  0  0  0  0  0
  188.8990  178.0470  143.4250 C   0  0  0  0  0  3  0  0  0  0  0  0
  189.8520  177.3980  144.3490 C   0  0  0  0  0  3  0  0  0  0  0  0
  189.0860  177.9920  142.1030 C   0  0  0  0  0  0  0  0  0  0  0  0
  190.3510  177.3800  141.5390 C   0  0  2  0  0  3  0  0  0  0  0  0
  191.7880  176.2290  146.1470 C   0  0  0  0  0  1  0  0  0  0  0  0
  191.6990  175.9320  144.7560 O   0  0  0  0  0  0  0  0  0  0  0  0
  188.0630  178.6300  141.2110 C   0  0  0  0  0  2  0  0  0  0  0  0
  183.0380  179.3530  140.9230 N   0  0  0  0  0  0  0  0  0  0  0  0
  185.2420  178.3620  143.7090 C   0  0  0  0  0  0  0  0  0  0  0  0
  184.1910  178.6240  142.9000 C   0  0  0  0  0  0  0  0  0  0  0  0
  185.5430  178.9270  140.9940 C   0  0  0  0  0  3  0  0  0  0  0  0
  186.6810  178.5970  141.7820 C   0  0  0  0  0  0  0  0  0  0  0  0
  182.9920  179.7200  139.5280 C   0  0  0  0  0  0  0  0  0  0  0  0
  184.0440  180.0110  138.9080 O   0  0  0  0  0  0  0  0  0  0  0  0
  184.7520  178.3220  145.1330 C   0  0  0  0  0  2  0  0  0  0  0  0
  181.9120  179.1490  143.1410 N   0  0  0  0  0  0  0  0  0  0  0  0
  184.2650  178.9440  141.5740 C   0  0  0  0  0  0  0  0  0  0  0  0
  186.5300  178.3400  143.1700 C   0  0  0  0  0  3  0  0  0  0  0  0
  181.7510  179.2170  141.6650 C   0  0  0  0  0  2  0  0  0  0  0  0
  183.0450  178.8130  143.6640 C   0  0  0  0  0  0  0  0  0  0  0  0
  183.3530  178.6580  145.0100 O   0  0  0  0  0  0  0  0  0  0  0  0
  181.5980  180.9890  137.9160 C   0  0  0  0  0  1  0  0  0  0  0  0
  181.6730  179.7700  138.8070 C   0  0  1  0  0  3  0  0  0  0  0  0
  181.3380  178.5130  137.9940 C   0  0  0  0  0  2  0  0  0  0  0  0
  181.3210  178.1110  135.5480 C   0  0  0  0  0  2  0  0  0  0  0  0
  183.2010  176.5930  135.2960 O   0  0  0  0  0  1  0  0  0  0  0  0
  182.0940  176.9290  136.0760 C   0  0  1  0  0  0  0  0  0  0  0  0
  182.2280  178.2660  136.7680 C   0  0  2  0  0  3  0  0  0  0  0  0
  181.2900  175.8010  136.7110 C   0  0  0  0  0  2  0  0  0  0  0  0
  182.1320  175.0050  137.6910 C   0  0  1  0  0  3  0  0  0  0  0  0
  181.5880  175.2070  139.0910 C   0  0  0  0  0  2  0  0  0  0  0  0
  180.2120  174.9960  139.1140 O   0  0  0  0  0  1  0  0  0  0  0  0
  182.1150  173.5310  137.2830 C   0  0  2  0  0  3  0  0  0  0  0  0
  183.4030  172.9920  137.2180 O   0  0  0  0  0  1  0  0  0  0  0  0
  181.3220  173.2670  135.9960 C   0  0  0  0  0  2  0  0  0  0  0  0
  179.8350  171.9250  137.3470 N   0  0  0  0  0  2  0  0  0  0  0  0
  180.0690  172.4670  136.2100 C   0  0  0  0  0  3  0  0  0  0  0  0
  190.1680  176.8570  140.1250 C   0  0  0  0  0  2  0  0  0  0  0  0
  191.6060  175.7480  138.3190 N   0  0  0  0  0  0  0  0  0  0  0  0
  192.5020  177.2520  139.8800 O   0  0  0  0  0  0  0  0  0  0  0  0
  191.4860  176.6440  139.4450 C   0  0  0  0  0  0  0  0  0  0  0  0
  193.2020  176.4990  136.5760 C   0  0  0  0  0  3  0  0  0  0  0  0
  195.3160  175.3570  136.2790 C   0  0  0  0  0  0  0  0  0  0  0  0
  194.4220  176.3710  135.9090 C   0  0  0  0  0  3  0  0  0  0  0  0
  192.8600  175.6140  137.6120 C   0  0  0  0  0  0  0  0  0  0  0  0
  194.9910  174.4840  137.3140 C   0  0  0  0  0  3  0  0  0  0  0  0
  193.7740  174.6120  137.9820 C   0  0  0  0  0  3  0  0  0  0  0  0
  197.5420  175.0540  134.9880 N   0  0  0  0  0  0  0  0  0  0  0  0
  196.5520  175.1900  135.5660 C   0  0  0  0  0  0  0  0  0  0  0  0
  190.4320  175.0800  137.8390 C   0  0  0  0  0  3  0  0  0  0  0  0
  189.4160  175.7770  137.3410 C   0  0  0  0  0  3  0  0  0  0  0  0
  188.1490  175.1720  136.9460 C   0  0  0  0  0  0  0  0  0  0  0  0
  188.1100  174.0930  136.0070 N   0  0  0  0  0  2  0  0  0  0  0  0
  187.0970  175.5390  137.5350 O   0  0  0  0  0  0  0  0  0  0  0  0
  185.4050  170.9510  135.4550 N   0  0  0  0  0  2  0  0  0  0  0  0
  185.1570  172.1170  134.5940 C   0  0  0  0  0  2  0  0  0  0  0  0
  187.6440  171.6750  136.1660 C   0  0  0  0  0  2  0  0  0  0  0  0
  187.0540  173.0840  136.0070 C   0  0  0  0  0  3  0  0  0  0  0  0
  186.2150  173.2170  134.7310 C   0  0  0  0  0  2  0  0  0  0  0  0
  186.8160  170.5980  135.4420 C   0  0  0  0  0  2  0  0  0  0  0  0
  1  4  2  0  0  0  0
  1  8  1  0  0  0  0
  2  1  1  0  0  0  0
  3  4  1  0  0  0  0
  5  3  2  0  0  0  0
  6 40  1  6  0  0  0
  6  5  1  0  0  0  0
  6  2  1  0  0  0  0
  8  7  1  0  0  0  0
  9 14  1  0  0  0  0
  9  5  1  0  0  0  0
 10 19  1  0  0  0  0
 10 21  1  0  0  0  0
 11 17  1  0  0  0  0
 12 22  1  0  0  0  0
 12 11  2  0  0  0  0
 13 19  2  0  0  0  0
 13 14  1  0  0  0  0
 14 20  2  0  0  0  0
 15 10  1  0  0  0  0
 16 15  2  0  0  0  0
 18 22  2  0  0  0  0
 19 12  1  0  0  0  0
 20 11  1  0  0  0  0
 21 18  1  0  0  0  0
 22 23  1  0  0  0  0
 23 17  1  0  0  0  0
 25 24  1  6  0  0  0
 25 15  1  0  0  0  0
 26 25  1  0  0  0  0
 27 29  1  0  0  0  0
 27 30  1  0  0  0  0
 29 28  1  6  0  0  0
 29 31  1  0  0  0  0
 29 30  1  0  0  0  0
 30 26  1  1  0  0  0
 32 31  1  6  0  0  0
 32 33  1  0  0  0  0
 33 34  1  0  0  0  0
 35 36  1  6  0  0  0
 35 32  1  0  0  0  0
 37 39  1  0  0  0  0
 37 35  1  0  0  0  0
 39 38  2  0  0  0  0
 41 43  1  0  0  0  0
 43 42  2  0  0  0  0
 43 40  1  0  0  0  0
 44 47  1  0  0  0  0
 45 48  2  0  0  0  0
 46 45  1  0  0  0  0
 46 44  2  0  0  0  0
 47 49  2  0  0  0  0
 47 41  1  0  0  0  0
 48 49  1  0  0  0  0
 50 51  3  0  0  0  0
 51 45  1  0  0  0  0
 52 41  1  0  0  0  0
 53 52  2  0  0  0  0
 54 53  1  0  0  0  0
 54 56  2  0  0  0  0
 55 60  1  0  0  0  0
 55 54  1  0  0  0  0
 58 61  1  0  0  0  0
 58 57  1  0  0  0  0
 60 59  1  0  0  0  0
 61 60  1  0  0  0  0
 62 57  1  0  0  0  0
 62 59  1  0  0  0  0
M  END
>  <MODEL>
3

>  <REMARK>
 VINA RESULT:      -6.8      1.469      2.327
  Name = 
  19 active torsions:
  status: ('A' for Active; 'I' for Inactive)
    1  A    between atoms: C_2  and  C_16
    2  A    between atoms: C_2  and  C_57
    3  A    between atoms: N_4  and  C_7
    4  A    between atoms: N_4  and  C_49
    5  A    between atoms: C_8  and  O_51
    6  A    between atoms: C_9  and  C_34
    7  A    between atoms: C_11  and  C_17
    8  A    between atoms: C_14  and  C_23
    9  A    between atoms: C_15  and  C_23
   10  A    between atoms: C_15  and  C_34
   11  A    between atoms: C_16  and  C_29
   12  A    between atoms: C_23  and  C_30
   13  A    between atoms: C_27  and  C_56
   14  A    between atoms: N_28  and  C_32
   15  A    between atoms: C_30  and  C_50
   16  A    between atoms: C_37  and  C_41
   17  A    between atoms: C_40  and  C_56
   18  A    between atoms: C_48  and  C_52
   19  A    between atoms: C_52  and  C_59
                            x       y       z     vdW  Elec       q    Type
                         _______ _______ _______ _____ _____    ______ ____

>  <TORSDO>
F 19

$$$$
=
 OpenBabel11062416373D

 62 68  0  0  1  0  0  0  0  0999 V2000
  187.4110  177.8640  136.5770 C   0  0  0  0  0  0  0  0  0  0  0  0
  188.3570  176.7700  136.9980 C   0  0  0  0  0  2  0  0  0  0  0  0
  186.0960  176.1990  135.3430 C   0  0  0  0  0  3  0  0  0  0  0  0
  186.3380  177.5730  135.8270 C   0  0  0  0  0  3  0  0  0  0  0  0
  187.0350  175.2550  135.4690 C   0  0  0  0  0  0  0  0  0  0  0  0
  188.4110  175.6170  135.9880 C   0  0  2  0  0  3  0  0  0  0  0  0
  188.9270  179.6150  137.4700 C   0  0  0  0  0  1  0  0  0  0  0  0
  187.6390  179.1530  137.0690 O   0  0  0  0  0  0  0  0  0  0  0  0
  186.7180  173.8670  135.0000 C   0  0  0  0  0  2  0  0  0  0  0  0
  181.8880  174.9340  136.1810 N   0  0  0  0  0  0  0  0  0  0  0  0
  183.6110  171.7620  135.4240 C   0  0  0  0  0  0  0  0  0  0  0  0
  182.7020  172.7350  135.6610 C   0  0  0  0  0  0  0  0  0  0  0  0
  184.2970  174.4640  135.5160 C   0  0  0  0  0  3  0  0  0  0  0  0
  185.2850  173.4900  135.2000 C   0  0  0  0  0  0  0  0  0  0  0  0
  182.0520  176.3600  136.3250 C   0  0  0  0  0  0  0  0  0  0  0  0
  183.1970  176.8680  136.4040 O   0  0  0  0  0  0  0  0  0  0  0  0
  182.9550  170.4260  135.6610 C   0  0  0  0  0  2  0  0  0  0  0  0
  180.4920  172.8820  136.4490 N   0  0  0  0  0  0  0  0  0  0  0  0
  182.9710  174.0700  135.7560 C   0  0  0  0  0  0  0  0  0  0  0  0
  184.9410  172.1120  135.1840 C   0  0  0  0  0  3  0  0  0  0  0  0
  180.5160  174.3600  136.2980 C   0  0  0  0  0  2  0  0  0  0  0  0
  181.5060  172.1680  136.0850 C   0  0  0  0  0  0  0  0  0  0  0  0
  181.6320  170.7840  136.1150 O   0  0  0  0  0  0  0  0  0  0  0  0
  179.9640  176.8680  137.5630 C   0  0  0  0  0  1  0  0  0  0  0  0
  180.8440  177.2520  136.3940 C   0  0  1  0  0  3  0  0  0  0  0  0
  181.1560  178.7530  136.4530 C   0  0  0  0  0  2  0  0  0  0  0  0
  181.1030  180.9210  137.6540 C   0  0  0  0  0  2  0  0  0  0  0  0
  180.7200  180.1960  139.9410 O   0  0  0  0  0  1  0  0  0  0  0  0
  181.4070  179.9360  138.7550 C   0  0  1  0  0  0  0  0  0  0  0  0
  180.5060  179.5150  137.6160 C   0  0  2  0  0  3  0  0  0  0  0  0
  182.8370  179.4170  138.8490 C   0  0  0  0  0  2  0  0  0  0  0  0
  183.0600  178.6380  140.1310 C   0  0  1  0  0  3  0  0  0  0  0  0
  183.1570  177.1620  139.8050 C   0  0  0  0  0  2  0  0  0  0  0  0
  181.9510  176.5230  140.0810 O   0  0  0  0  0  1  0  0  0  0  0  0
  184.3280  179.1530  140.8140 C   0  0  2  0  0  3  0  0  0  0  0  0
  185.3750  179.3340  139.9050 O   0  0  0  0  0  1  0  0  0  0  0  0
  184.7590  178.3020  142.0160 C   0  0  0  0  0  2  0  0  0  0  0  0
  184.6090  179.1590  144.2690 N   0  0  0  0  0  2  0  0  0  0  0  0
  184.0080  178.6110  143.2790 C   0  0  0  0  0  3  0  0  0  0  0  0
  189.1250  174.4370  136.6240 C   0  0  0  0  0  2  0  0  0  0  0  0
  191.5090  175.1070  137.2790 N   0  0  0  0  0  0  0  0  0  0  0  0
  191.0360  173.9610  135.2880 O   0  0  0  0  0  0  0  0  0  0  0  0
  190.5980  174.4770  136.3530 C   0  0  0  0  0  0  0  0  0  0  0  0
  193.7390  174.1070  137.6980 C   0  0  0  0  0  3  0  0  0  0  0  0
  195.7000  174.9800  136.5770 C   0  0  0  0  0  0  0  0  0  0  0  0
  195.1150  174.0650  137.4630 C   0  0  0  0  0  3  0  0  0  0  0  0
  192.9370  175.0650  137.0560 C   0  0  0  0  0  0  0  0  0  0  0  0
  194.9100  175.9230  135.9260 C   0  0  0  0  0  3  0  0  0  0  0  0
  193.5350  175.9650  136.1580 C   0  0  0  0  0  3  0  0  0  0  0  0
  198.2640  174.9680  136.2050 N   0  0  0  0  0  0  0  0  0  0  0  0
  197.1220  174.9730  136.3680 C   0  0  0  0  0  0  0  0  0  0  0  0
  190.9830  175.6750  138.4860 C   0  0  0  0  0  3  0  0  0  0  0  0
  191.5320  176.7640  139.0130 C   0  0  0  0  0  3  0  0  0  0  0  0
  191.1240  177.3230  140.2970 C   0  0  0  0  0  0  0  0  0  0  0  0
  189.8070  177.8530  140.4840 N   0  0  0  0  0  2  0  0  0  0  0  0
  191.9140  177.2270  141.2750 O   0  0  0  0  0  0  0  0  0  0  0  0
  188.4440  177.5510  144.4260 N   0  0  0  0  0  2  0  0  0  0  0  0
  188.2040  176.3500  143.6130 C   0  0  0  0  0  2  0  0  0  0  0  0
  189.9990  178.5890  142.8310 C   0  0  0  0  0  2  0  0  0  0  0  0
  189.1400  177.8680  141.7830 C   0  0  0  0  0  3  0  0  0  0  0  0
  188.8000  176.4340  142.2030 C   0  0  0  0  0  2  0  0  0  0  0  0
  189.8090  178.0230  144.2490 C   0  0  0  0  0  2  0  0  0  0  0  0
  1  2  1  0  0  0  0
  1  8  1  0  0  0  0
  3  5  2  0  0  0  0
  3  4  1  0  0  0  0
  4  1  2  0  0  0  0
  5  6  1  0  0  0  0
  6 40  1  1  0  0  0
  6  2  1  0  0  0  0
  8  7  1  0  0  0  0
  9 14  1  0  0  0  0
  9  5  1  0  0  0  0
 10 21  1  0  0  0  0
 10 15  1  0  0  0  0
 11 17  1  0  0  0  0
 11 12  1  0  0  0  0
 12 19  2  0  0  0  0
 12 22  1  0  0  0  0
 13 19  1  0  0  0  0
 14 13  2  0  0  0  0
 15 25  1  0  0  0  0
 15 16  2  0  0  0  0
 17 23  1  0  0  0  0
 19 10  1  0  0  0  0
 20 14  1  0  0  0  0
 20 11  2  0  0  0  0
 21 18  1  0  0  0  0
 22 23  1  0  0  0  0
 22 18  2  0  0  0  0
 25 26  1  0  0  0  0
 25 24  1  1  0  0  0
 27 29  1  0  0  0  0
 29 31  1  0  0  0  0
 29 28  1  1  0  0  0
 30 26  1  6  0  0  0
 30 27  1  0  0  0  0
 30 29  1  0  0  0  0
 32 31  1  6  0  0  0
 32 35  1  0  0  0  0
 33 34  1  0  0  0  0
 33 32  1  0  0  0  0
 35 36  1  6  0  0  0
 35 37  1  0  0  0  0
 37 39  1  0  0  0  0
 39 38  2  0  0  0  0
 41 52  1  0  0  0  0
 42 43  2  0  0  0  0
 43 40  1  0  0  0  0
 43 41  1  0  0  0  0
 45 46  2  0  0  0  0
 46 44  1  0  0  0  0
 47 41  1  0  0  0  0
 47 44  2  0  0  0  0
 48 49  2  0  0  0  0
 48 45  1  0  0  0  0
 49 47  1  0  0  0  0
 50 51  3  0  0  0  0
 51 45  1  0  0  0  0
 52 53  2  0  0  0  0
 53 54  1  0  0  0  0
 54 55  1  0  0  0  0
 54 56  2  0  0  0  0
 55 60  1  0  0  0  0
 58 57  1  0  0  0  0
 59 62  1  0  0  0  0
 60 61  1  0  0  0  0
 60 59  1  0  0  0  0
 61 58  1  0  0  0  0
 62 57  1  0  0  0  0
M  END
>  <MODEL>
4

>  <REMARK>
 VINA RESULT:      -6.2      2.177      6.764
  Name = 
  19 active torsions:
  status: ('A' for Active; 'I' for Inactive)
    1  A    between atoms: C_2  and  C_16
    2  A    between atoms: C_2  and  C_57
    3  A    between atoms: N_4  and  C_7
    4  A    between atoms: N_4  and  C_49
    5  A    between atoms: C_8  and  O_51
    6  A    between atoms: C_9  and  C_34
    7  A    between atoms: C_11  and  C_17
    8  A    between atoms: C_14  and  C_23
    9  A    between atoms: C_15  and  C_23
   10  A    between atoms: C_15  and  C_34
   11  A    between atoms: C_16  and  C_29
   12  A    between atoms: C_23  and  C_30
   13  A    between atoms: C_27  and  C_56
   14  A    between atoms: N_28  and  C_32
   15  A    between atoms: C_30  and  C_50
   16  A    between atoms: C_37  and  C_41
   17  A    between atoms: C_40  and  C_56
   18  A    between atoms: C_48  and  C_52
   19  A    between atoms: C_52  and  C_59
                            x       y       z     vdW  Elec       q    Type
                         _______ _______ _______ _____ _____    ______ ____

>  <TORSDO>
F 19

$$$$
=
 OpenBabel11062416373D

 62 68  0  0  1  0  0  0  0  0999 V2000
  192.0270  174.0020  136.7710 C   0  0  0  0  0  0  0  0  0  0  0  0
  191.7910  175.2680  137.5510 C   0  0  0  0  0  2  0  0  0  0  0  0
  189.6810  174.0540  136.0510 C   0  0  0  0  0  3  0  0  0  0  0  0
  191.0360  173.4630  136.0470 C   0  0  0  0  0  3  0  0  0  0  0  0
  189.3580  175.0140  136.9220 C   0  0  0  0  0  0  0  0  0  0  0  0
  190.3350  175.4160  138.0080 C   0  0  2  0  0  3  0  0  0  0  0  0
  193.6110  172.1360  136.3570 C   0  0  0  0  0  1  0  0  0  0  0  0
  193.3220  173.4740  136.7550 O   0  0  0  0  0  0  0  0  0  0  0  0
  187.9830  175.6080  136.8520 C   0  0  0  0  0  2  0  0  0  0  0  0
  183.2440  173.7980  137.2050 N   0  0  0  0  0  0  0  0  0  0  0  0
  186.3140  172.4240  135.6930 C   0  0  0  0  0  0  0  0  0  0  0  0
  185.0420  172.6770  136.0730 C   0  0  0  0  0  0  0  0  0  0  0  0
  185.5770  174.7830  136.9850 C   0  0  0  0  0  3  0  0  0  0  0  0
  186.9200  174.5990  136.5530 C   0  0  0  0  0  0  0  0  0  0  0  0
  182.6820  174.9140  137.9260 C   0  0  0  0  0  0  0  0  0  0  0  0
  183.4270  175.7730  138.4580 O   0  0  0  0  0  0  0  0  0  0  0  0
  186.4010  170.9910  135.2330 C   0  0  0  0  0  2  0  0  0  0  0  0
  183.0380  171.4730  136.3220 N   0  0  0  0  0  0  0  0  0  0  0  0
  184.6160  173.7910  136.7400 C   0  0  0  0  0  0  0  0  0  0  0  0
  187.3010  173.3850  135.9230 C   0  0  0  0  0  3  0  0  0  0  0  0
  182.3320  172.7010  136.7690 C   0  0  0  0  0  2  0  0  0  0  0  0
  184.2760  171.5230  135.9550 C   0  0  0  0  0  0  0  0  0  0  0  0
  185.0690  170.4880  135.4710 O   0  0  0  0  0  0  0  0  0  0  0  0
  180.6450  174.0360  139.0370 C   0  0  0  0  0  1  0  0  0  0  0  0
  181.1900  175.0500  138.0560 C   0  0  1  0  0  3  0  0  0  0  0  0
  180.7040  176.4540  138.4400 C   0  0  0  0  0  2  0  0  0  0  0  0
  179.1750  177.9560  139.6830 C   0  0  0  0  0  2  0  0  0  0  0  0
  179.0740  176.8580  141.8480 O   0  0  0  0  0  1  0  0  0  0  0  0
  179.9010  177.2300  140.7880 C   0  0  1  0  0  0  0  0  0  0  0  0
  179.5950  176.4990  139.5000 C   0  0  2  0  0  3  0  0  0  0  0  0
  181.3200  177.6880  141.1050 C   0  0  0  0  0  2  0  0  0  0  0  0
  181.3200  178.8880  142.0320 C   0  0  1  0  0  3  0  0  0  0  0  0
  179.9740  178.9850  142.7200 C   0  0  0  0  0  2  0  0  0  0  0  0
  180.0810  178.6050  144.0550 O   0  0  0  0  0  1  0  0  0  0  0  0
  182.4630  178.7420  143.0380 C   0  0  2  0  0  3  0  0  0  0  0  0
  182.7850  179.9600  143.6440 O   0  0  0  0  0  1  0  0  0  0  0  0
  183.7020  178.0520  142.4530 C   0  0  0  0  0  2  0  0  0  0  0  0
  185.3590  179.7290  141.9300 N   0  0  0  0  0  2  0  0  0  0  0  0
  184.9850  178.7870  142.7130 C   0  0  0  0  0  3  0  0  0  0  0  0
  190.1120  176.8350  138.4990 C   0  0  0  0  0  2  0  0  0  0  0  0
  188.9590  177.6550  140.6340 N   0  0  0  0  0  0  0  0  0  0  0  0
  190.8410  176.2560  140.6900 O   0  0  0  0  0  0  0  0  0  0  0  0
  189.9990  176.8870  139.9930 C   0  0  0  0  0  0  0  0  0  0  0  0
  187.8190  176.8260  142.6750 C   0  0  0  0  0  3  0  0  0  0  0  0
  188.5380  177.5690  144.8640 C   0  0  0  0  0  0  0  0  0  0  0  0
  187.6850  176.7970  144.0650 C   0  0  0  0  0  3  0  0  0  0  0  0
  188.8010  177.6290  142.0720 C   0  0  0  0  0  0  0  0  0  0  0  0
  189.5230  178.3570  144.2750 C   0  0  0  0  0  3  0  0  0  0  0  0
  189.6600  178.3860  142.8870 C   0  0  0  0  0  3  0  0  0  0  0  0
  188.2480  177.5880  147.4390 N   0  0  0  0  0  0  0  0  0  0  0  0
  188.3750  177.5800  146.2920 C   0  0  0  0  0  0  0  0  0  0  0  0
  188.0100  178.3510  139.8160 C   0  0  0  0  0  3  0  0  0  0  0  0
  186.9410  177.7220  139.3400 C   0  0  0  0  0  3  0  0  0  0  0  0
  186.0010  178.3360  138.4080 C   0  0  0  0  0  0  0  0  0  0  0  0
  184.5980  178.3620  138.6880 N   0  0  0  0  0  2  0  0  0  0  0  0
  186.4590  178.9470  137.4060 O   0  0  0  0  0  0  0  0  0  0  0  0
  181.5750  181.0460  137.6170 N   0  0  0  0  0  2  0  0  0  0  0  0
  181.5480  179.7800  136.8700 C   0  0  0  0  0  2  0  0  0  0  0  0
  183.1550  180.2580  139.3270 C   0  0  0  0  0  2  0  0  0  0  0  0
  183.7100  179.4030  138.1790 C   0  0  0  0  0  3  0  0  0  0  0  0
  182.5940  178.7650  137.3440 C   0  0  0  0  0  2  0  0  0  0  0  0
  181.7410  180.7950  139.0410 C   0  0  0  0  0  2  0  0  0  0  0  0
  1  2  1  0  0  0  0
  2  6  1  0  0  0  0
  3  5  2  0  0  0  0
  4  3  1  0  0  0  0
  4  1  2  0  0  0  0
  5  6  1  0  0  0  0
  6 40  1  6  0  0  0
  7  8  1  0  0  0  0
  8  1  1  0  0  0  0
  9  5  1  0  0  0  0
 10 15  1  0  0  0  0
 11 20  2  0  0  0  0
 11 12  1  0  0  0  0
 12 19  2  0  0  0  0
 14  9  1  0  0  0  0
 14 13  2  0  0  0  0
 15 25  1  0  0  0  0
 15 16  2  0  0  0  0
 17 23  1  0  0  0  0
 17 11  1  0  0  0  0
 18 21  1  0  0  0  0
 19 13  1  0  0  0  0
 19 10  1  0  0  0  0
 20 14  1  0  0  0  0
 21 10  1  0  0  0  0
 22 12  1  0  0  0  0
 22 18  2  0  0  0  0
 23 22  1  0  0  0  0
 25 26  1  0  0  0  0
 25 24  1  1  0  0  0
 27 29  1  0  0  0  0
 29 31  1  0  0  0  0
 29 28  1  1  0  0  0
 30 26  1  6  0  0  0
 30 27  1  0  0  0  0
 30 29  1  0  0  0  0
 32 31  1  6  0  0  0
 32 33  1  0  0  0  0
 32 35  1  0  0  0  0
 33 34  1  0  0  0  0
 35 36  1  6  0  0  0
 37 39  1  0  0  0  0
 37 35  1  0  0  0  0
 38 39  2  0  0  0  0
 40 43  1  0  0  0  0
 41 47  1  0  0  0  0
 43 41  1  0  0  0  0
 43 42  2  0  0  0  0
 44 46  1  0  0  0  0
 45 51  1  0  0  0  0
 46 45  2  0  0  0  0
 47 44  2  0  0  0  0
 47 49  1  0  0  0  0
 48 45  1  0  0  0  0
 49 48  2  0  0  0  0
 51 50  3  0  0  0  0
 52 41  1  0  0  0  0
 53 52  2  0  0  0  0
 54 55  1  0  0  0  0
 54 53  1  0  0  0  0
 56 54  2  0  0  0  0
 57 62  1  0  0  0  0
 58 61  1  0  0  0  0
 58 57  1  0  0  0  0
 60 55  1  0  0  0  0
 60 59  1  0  0  0  0
 61 60  1  0  0  0  0
 62 59  1  0  0  0  0
M  END
>  <MODEL>
5

>  <REMARK>
 VINA RESULT:      -5.8      2.654      7.736
  Name = 
  19 active torsions:
  status: ('A' for Active; 'I' for Inactive)
    1  A    between atoms: C_2  and  C_16
    2  A    between atoms: C_2  and  C_57
    3  A    between atoms: N_4  and  C_7
    4  A    between atoms: N_4  and  C_49
    5  A    between atoms: C_8  and  O_51
    6  A    between atoms: C_9  and  C_34
    7  A    between atoms: C_11  and  C_17
    8  A    between atoms: C_14  and  C_23
    9  A    between atoms: C_15  and  C_23
   10  A    between atoms: C_15  and  C_34
   11  A    between atoms: C_16  and  C_29
   12  A    between atoms: C_23  and  C_30
   13  A    between atoms: C_27  and  C_56
   14  A    between atoms: N_28  and  C_32
   15  A    between atoms: C_30  and  C_50
   16  A    between atoms: C_37  and  C_41
   17  A    between atoms: C_40  and  C_56
   18  A    between atoms: C_48  and  C_52
   19  A    between atoms: C_52  and  C_59
                            x       y       z     vdW  Elec       q    Type
                         _______ _______ _______ _____ _____    ______ ____

>  <TORSDO>
F 19

$$$$
=
 OpenBabel11062416373D

 62 68  0  0  1  0  0  0  0  0999 V2000
  189.5550  177.0190  144.7390 C   0  0  0  0  0  0  0  0  0  0  0  0
  189.6440  176.4520  143.3470 C   0  0  0  0  0  2  0  0  0  0  0  0
  187.7880  178.5380  143.9650 C   0  0  0  0  0  3  0  0  0  0  0  0
  188.6570  177.9750  145.0190 C   0  0  0  0  0  3  0  0  0  0  0  0
  188.0080  178.2550  142.6770 C   0  0  0  0  0  0  0  0  0  0  0  0
  189.2340  177.4640  142.2700 C   0  0  2  0  0  3  0  0  0  0  0  0
  191.7660  176.6980  145.8220 C   0  0  0  0  0  1  0  0  0  0  0  0
  190.3640  176.4550  145.7300 O   0  0  0  0  0  0  0  0  0  0  0  0
  187.0680  178.8190  141.6540 C   0  0  0  0  0  2  0  0  0  0  0  0
  182.1310  178.3120  140.5450 N   0  0  0  0  0  0  0  0  0  0  0  0
  183.9180  178.7740  143.7370 C   0  0  0  0  0  0  0  0  0  0  0  0
  183.0050  178.5280  142.7720 C   0  0  0  0  0  0  0  0  0  0  0  0
  184.6160  178.4800  141.0530 C   0  0  0  0  0  3  0  0  0  0  0  0
  185.6290  178.6760  142.0340 C   0  0  0  0  0  0  0  0  0  0  0  0
  182.2830  178.1880  139.1150 C   0  0  0  0  0  0  0  0  0  0  0  0
  183.3690  178.4820  138.5590 O   0  0  0  0  0  0  0  0  0  0  0  0
  183.1880  179.0940  145.0170 C   0  0  0  0  0  2  0  0  0  0  0  0
  180.6660  178.6000  142.5440 N   0  0  0  0  0  0  0  0  0  0  0  0
  183.2680  178.4090  141.4370 C   0  0  0  0  0  0  0  0  0  0  0  0
  185.2690  178.8570  143.3960 C   0  0  0  0  0  3  0  0  0  0  0  0
  180.7700  178.1500  141.1320 C   0  0  0  0  0  2  0  0  0  0  0  0
  181.7230  178.7030  143.2810 C   0  0  0  0  0  0  0  0  0  0  0  0
  181.8000  179.0620  144.6210 O   0  0  0  0  0  0  0  0  0  0  0  0
  180.3880  176.5940  138.9660 C   0  0  0  0  0  1  0  0  0  0  0  0
  181.1280  177.7170  138.2750 C   0  0  1  0  0  3  0  0  0  0  0  0
  180.1380  178.8160  137.8690 C   0  0  0  0  0  2  0  0  0  0  0  0
  180.9980  179.7680  135.7490 C   0  0  0  0  0  2  0  0  0  0  0  0
  178.9320  180.3180  134.5940 O   0  0  0  0  0  1  0  0  0  0  0  0
  179.5980  180.3230  135.8200 C   0  0  1  0  0  0  0  0  0  0  0  0
  179.8720  178.9390  136.3630 C   0  0  2  0  0  3  0  0  0  0  0  0
  179.3620  181.4960  136.7640 C   0  0  0  0  0  2  0  0  0  0  0  0
  180.5280  182.4680  136.7430 C   0  0  1  0  0  3  0  0  0  0  0  0
  180.4490  183.3100  135.4860 C   0  0  0  0  0  2  0  0  0  0  0  0
  181.5190  183.0240  134.6420 O   0  0  0  0  0  1  0  0  0  0  0  0
  180.4850  183.3280  138.0060 C   0  0  2  0  0  3  0  0  0  0  0  0
  179.4000  182.9990  138.8260 O   0  0  0  0  0  1  0  0  0  0  0  0
  180.5430  184.8330  137.7180 C   0  0  0  0  0  2  0  0  0  0  0  0
  179.4030  186.4710  139.0790 N   0  0  0  0  0  2  0  0  0  0  0  0
  179.3190  185.5840  138.1590 C   0  0  0  0  0  3  0  0  0  0  0  0
  189.0480  176.7350  140.9520 C   0  0  0  0  0  2  0  0  0  0  0  0
  190.3920  176.0750  138.8740 N   0  0  0  0  0  0  0  0  0  0  0  0
  191.4220  176.8500  140.8330 O   0  0  0  0  0  0  0  0  0  0  0  0
  190.3500  176.5670  140.2300 C   0  0  0  0  0  0  0  0  0  0  0  0
  191.7450  175.2670  136.9580 C   0  0  0  0  0  3  0  0  0  0  0  0
  194.0720  175.8980  136.7530 C   0  0  0  0  0  0  0  0  0  0  0  0
  192.9540  175.2130  136.2620 C   0  0  0  0  0  3  0  0  0  0  0  0
  191.6430  175.9990  138.1530 C   0  0  0  0  0  0  0  0  0  0  0  0
  193.9770  176.6370  137.9290 C   0  0  0  0  0  3  0  0  0  0  0  0
  192.7700  176.6940  138.6250 C   0  0  0  0  0  3  0  0  0  0  0  0
  196.3440  175.7300  135.5180 N   0  0  0  0  0  0  0  0  0  0  0  0
  195.3320  175.8070  136.0670 C   0  0  0  0  0  0  0  0  0  0  0  0
  189.1570  175.7730  138.2100 C   0  0  0  0  0  3  0  0  0  0  0  0
  188.3490  176.7500  137.8140 C   0  0  0  0  0  3  0  0  0  0  0  0
  187.0280  176.5120  137.2410 C   0  0  0  0  0  0  0  0  0  0  0  0
  186.6460  175.2090  136.7880 N   0  0  0  0  0  2  0  0  0  0  0  0
  186.1860  177.4490  137.2600 O   0  0  0  0  0  0  0  0  0  0  0  0
  182.9110  173.3720  136.3860 N   0  0  0  0  0  2  0  0  0  0  0  0
  183.3220  174.1620  135.2160 C   0  0  0  0  0  2  0  0  0  0  0  0
  185.1290  173.3790  137.4460 C   0  0  0  0  0  2  0  0  0  0  0  0
  185.2590  174.7530  136.7740 C   0  0  0  0  0  3  0  0  0  0  0  0
  184.7360  174.7430  135.3330 C   0  0  0  0  0  2  0  0  0  0  0  0
  184.0030  172.5230  136.8380 C   0  0  0  0  0  2  0  0  0  0  0  0
  1  4  2  0  0  0  0
  1  8  1  0  0  0  0
  2  1  1  0  0  0  0
  3  4  1  0  0  0  0
  5  3  2  0  0  0  0
  6 40  1  6  0  0  0
  6  5  1  0  0  0  0
  6  2  1  0  0  0  0
  8  7  1  0  0  0  0
  9 14  1  0  0  0  0
  9  5  1  0  0  0  0
 10 21  1  0  0  0  0
 10 19  1  0  0  0  0
 11 17  1  0  0  0  0
 12 22  1  0  0  0  0
 12 11  2  0  0  0  0
 13 19  2  0  0  0  0
 13 14  1  0  0  0  0
 14 20  2  0  0  0  0
 15 10  1  0  0  0  0
 16 15  2  0  0  0  0
 18 22  2  0  0  0  0
 19 12  1  0  0  0  0
 20 11  1  0  0  0  0
 21 18  1  0  0  0  0
 22 23  1  0  0  0  0
 23 17  1  0  0  0  0
 25 24  1  1  0  0  0
 25 15  1  0  0  0  0
 26 25  1  0  0  0  0
 27 29  1  0  0  0  0
 27 30  1  0  0  0  0
 29 28  1  6  0  0  0
 29 30  1  0  0  0  0
 29 31  1  0  0  0  0
 30 26  1  1  0  0  0
 32 33  1  6  0  0  0
 32 31  1  0  0  0  0
 32 35  1  0  0  0  0
 34 33  1  0  0  0  0
 35 36  1  6  0  0  0
 37 35  1  0  0  0  0
 37 39  1  0  0  0  0
 39 38  2  0  0  0  0
 41 43  1  0  0  0  0
 43 42  2  0  0  0  0
 43 40  1  0  0  0  0
 44 47  1  0  0  0  0
 45 48  2  0  0  0  0
 46 45  1  0  0  0  0
 46 44  2  0  0  0  0
 47 49  2  0  0  0  0
 47 41  1  0  0  0  0
 48 49  1  0  0  0  0
 50 51  3  0  0  0  0
 51 45  1  0  0  0  0
 52 41  1  0  0  0  0
 53 52  2  0  0  0  0
 54 56  2  0  0  0  0
 54 53  1  0  0  0  0
 55 54  1  0  0  0  0
 57 62  1  0  0  0  0
 58 61  1  0  0  0  0
 58 57  1  0  0  0  0
 60 55  1  0  0  0  0
 60 59  1  0  0  0  0
 61 60  1  0  0  0  0
 62 59  1  0  0  0  0
M  END
>  <MODEL>
6

>  <REMARK>
 VINA RESULT:      -5.2      2.212      3.908
  Name = 
  19 active torsions:
  status: ('A' for Active; 'I' for Inactive)
    1  A    between atoms: C_2  and  C_16
    2  A    between atoms: C_2  and  C_57
    3  A    between atoms: N_4  and  C_7
    4  A    between atoms: N_4  and  C_49
    5  A    between atoms: C_8  and  O_51
    6  A    between atoms: C_9  and  C_34
    7  A    between atoms: C_11  and  C_17
    8  A    between atoms: C_14  and  C_23
    9  A    between atoms: C_15  and  C_23
   10  A    between atoms: C_15  and  C_34
   11  A    between atoms: C_16  and  C_29
   12  A    between atoms: C_23  and  C_30
   13  A    between atoms: C_27  and  C_56
   14  A    between atoms: N_28  and  C_32
   15  A    between atoms: C_30  and  C_50
   16  A    between atoms: C_37  and  C_41
   17  A    between atoms: C_40  and  C_56
   18  A    between atoms: C_48  and  C_52
   19  A    between atoms: C_52  and  C_59
                            x       y       z     vdW  Elec       q    Type
                         _______ _______ _______ _____ _____    ______ ____

>  <TORSDO>
F 19

$$$$
=
 OpenBabel11062416373D

 62 68  0  0  1  0  0  0  0  0999 V2000
  187.8340  177.7070  136.1230 C   0  0  0  0  0  0  0  0  0  0  0  0
  188.7850  176.7180  136.7430 C   0  0  0  0  0  2  0  0  0  0  0  0
  186.8520  175.8810  134.8090 C   0  0  0  0  0  3  0  0  0  0  0  0
  186.9130  177.2930  135.2410 C   0  0  0  0  0  3  0  0  0  0  0  0
  187.8290  175.0270  135.1280 C   0  0  0  0  0  0  0  0  0  0  0  0
  189.0790  175.5260  135.8230 C   0  0  2  0  0  3  0  0  0  0  0  0
  188.4980  179.4180  137.7950 C   0  0  0  0  0  1  0  0  0  0  0  0
  187.8870  179.0320  136.5660 O   0  0  0  0  0  0  0  0  0  0  0  0
  187.6940  173.5970  134.7000 C   0  0  0  0  0  2  0  0  0  0  0  0
  182.9280  173.9040  136.4480 N   0  0  0  0  0  0  0  0  0  0  0  0
  184.9540  171.0580  135.2630 C   0  0  0  0  0  0  0  0  0  0  0  0
  183.9580  171.8780  135.6700 C   0  0  0  0  0  0  0  0  0  0  0  0
  185.2880  173.8170  135.5060 C   0  0  0  0  0  3  0  0  0  0  0  0
  186.3530  173.0120  135.0130 C   0  0  0  0  0  0  0  0  0  0  0  0
  182.9200  175.3260  136.6900 C   0  0  0  0  0  0  0  0  0  0  0  0
  183.9910  175.9800  136.6940 O   0  0  0  0  0  0  0  0  0  0  0  0
  184.5080  169.6310  135.4560 C   0  0  0  0  0  2  0  0  0  0  0  0
  181.8490  171.6660  136.6870 N   0  0  0  0  0  0  0  0  0  0  0  0
  184.0600  173.2290  135.8460 C   0  0  0  0  0  0  0  0  0  0  0  0
  186.1920  171.6040  134.9200 C   0  0  0  0  0  3  0  0  0  0  0  0
  181.6640  173.1400  136.6560 C   0  0  0  0  0  2  0  0  0  0  0  0
  182.9010  171.1240  136.1660 C   0  0  0  0  0  0  0  0  0  0  0  0
  183.2090  169.7720  136.0690 O   0  0  0  0  0  0  0  0  0  0  0  0
  180.7010  175.9280  135.7590 C   0  0  0  0  0  1  0  0  0  0  0  0
  181.6210  176.0360  136.9540 C   0  0  1  0  0  3  0  0  0  0  0  0
  180.8830  175.5750  138.2180 C   0  0  0  0  0  2  0  0  0  0  0  0
  180.8470  176.6230  140.4640 C   0  0  0  0  0  2  0  0  0  0  0  0
  183.2010  177.1250  140.7990 O   0  0  0  0  0  1  0  0  0  0  0  0
  182.1480  177.1200  139.8840 C   0  0  1  0  0  0  0  0  0  0  0  0
  181.6640  175.7320  139.5300 C   0  0  2  0  0  3  0  0  0  0  0  0
  182.0690  178.2540  138.8690 C   0  0  0  0  0  2  0  0  0  0  0  0
  182.3960  179.5910  139.5070 C   0  0  1  0  0  3  0  0  0  0  0  0
  183.6600  180.1440  138.8810 C   0  0  0  0  0  2  0  0  0  0  0  0
  184.6910  180.1760  139.8170 O   0  0  0  0  0  1  0  0  0  0  0  0
  181.2090  180.5380  139.3190 C   0  0  2  0  0  3  0  0  0  0  0  0
  180.0220  179.8430  139.0670 O   0  0  0  0  0  1  0  0  0  0  0  0
  181.4630  181.6290  138.2710 C   0  0  0  0  0  2  0  0  0  0  0  0
  180.1940  181.4160  136.2270 N   0  0  0  0  0  2  0  0  0  0  0  0
  180.2750  181.9230  137.4010 C   0  0  0  0  0  3  0  0  0  0  0  0
  189.7750  174.4420  136.6250 C   0  0  0  0  0  2  0  0  0  0  0  0
  192.1490  175.3630  136.9010 N   0  0  0  0  0  0  0  0  0  0  0  0
  191.6810  173.5030  135.5510 O   0  0  0  0  0  0  0  0  0  0  0  0
  191.2430  174.3970  136.3280 C   0  0  0  0  0  0  0  0  0  0  0  0
  194.1620  175.7660  135.5100 C   0  0  0  0  0  3  0  0  0  0  0  0
  196.3480  175.0850  136.2960 C   0  0  0  0  0  0  0  0  0  0  0  0
  195.5420  175.6770  135.3150 C   0  0  0  0  0  3  0  0  0  0  0  0
  193.5750  175.2610  136.6820 C   0  0  0  0  0  0  0  0  0  0  0  0
  195.7760  174.5940  137.4670 C   0  0  0  0  0  3  0  0  0  0  0  0
  194.3990  174.6840  137.6640 C   0  0  0  0  0  3  0  0  0  0  0  0
  198.8980  174.8410  135.9070 N   0  0  0  0  0  0  0  0  0  0  0  0
  197.7620  174.9470  136.0800 C   0  0  0  0  0  0  0  0  0  0  0  0
  191.6250  176.3590  137.7900 C   0  0  0  0  0  3  0  0  0  0  0  0
  191.7190  176.2050  139.1060 C   0  0  0  0  0  3  0  0  0  0  0  0
  191.1050  177.1180  140.0640 C   0  0  0  0  0  0  0  0  0  0  0  0
  189.6940  177.0940  140.3040 N   0  0  0  0  0  2  0  0  0  0  0  0
  191.8550  177.8500  140.7640 O   0  0  0  0  0  0  0  0  0  0  0  0
  187.5680  177.7160  143.8510 N   0  0  0  0  0  2  0  0  0  0  0  0
  186.9270  178.2850  142.6570 C   0  0  0  0  0  2  0  0  0  0  0  0
  189.1860  176.3510  142.6010 C   0  0  0  0  0  2  0  0  0  0  0  0
  189.1030  177.4930  141.5780 C   0  0  0  0  0  3  0  0  0  0  0  0
  187.6610  177.9610  141.3510 C   0  0  0  0  0  2  0  0  0  0  0  0
  188.0090  176.3530  143.5930 C   0  0  0  0  0  2  0  0  0  0  0  0
  1  8  1  0  0  0  0
  1  2  1  0  0  0  0
  3  5  2  0  0  0  0
  3  4  1  0  0  0  0
  4  1  2  0  0  0  0
  5  6  1  0  0  0  0
  6 40  1  1  0  0  0
  6  2  1  0  0  0  0
  8  7  1  0  0  0  0
  9 14  1  0  0  0  0
  9  5  1  0  0  0  0
 10 21  1  0  0  0  0
 10 15  1  0  0  0  0
 11 17  1  0  0  0  0
 11 12  1  0  0  0  0
 12 19  2  0  0  0  0
 12 22  1  0  0  0  0
 13 19  1  0  0  0  0
 14 13  2  0  0  0  0
 15 16  2  0  0  0  0
 15 25  1  0  0  0  0
 17 23  1  0  0  0  0
 19 10  1  0  0  0  0
 20 14  1  0  0  0  0
 20 11  2  0  0  0  0
 21 18  1  0  0  0  0
 22 18  2  0  0  0  0
 23 22  1  0  0  0  0
 25 24  1  6  0  0  0
 25 26  1  0  0  0  0
 29 27  1  0  0  0  0
 29 28  1  1  0  0  0
 30 26  1  6  0  0  0
 30 29  1  0  0  0  0
 30 27  1  0  0  0  0
 31 29  1  0  0  0  0
 32 31  1  6  0  0  0
 33 32  1  0  0  0  0
 33 34  1  0  0  0  0
 35 36  1  6  0  0  0
 35 32  1  0  0  0  0
 37 35  1  0  0  0  0
 38 39  2  0  0  0  0
 39 37  1  0  0  0  0
 41 52  1  0  0  0  0
 42 43  2  0  0  0  0
 43 40  1  0  0  0  0
 43 41  1  0  0  0  0
 44 47  1  0  0  0  0
 45 48  2  0  0  0  0
 46 44  2  0  0  0  0
 46 45  1  0  0  0  0
 47 41  1  0  0  0  0
 47 49  2  0  0  0  0
 48 49  1  0  0  0  0
 50 51  3  0  0  0  0
 51 45  1  0  0  0  0
 52 53  2  0  0  0  0
 53 54  1  0  0  0  0
 54 55  1  0  0  0  0
 54 56  2  0  0  0  0
 55 60  1  0  0  0  0
 58 57  1  0  0  0  0
 59 62  1  0  0  0  0
 60 59  1  0  0  0  0
 61 60  1  0  0  0  0
 61 58  1  0  0  0  0
 62 57  1  0  0  0  0
M  END
>  <MODEL>
7

>  <REMARK>
 VINA RESULT:      -5.1      2.451      6.985
  Name = 
  19 active torsions:
  status: ('A' for Active; 'I' for Inactive)
    1  A    between atoms: C_2  and  C_16
    2  A    between atoms: C_2  and  C_57
    3  A    between atoms: N_4  and  C_7
    4  A    between atoms: N_4  and  C_49
    5  A    between atoms: C_8  and  O_51
    6  A    between atoms: C_9  and  C_34
    7  A    between atoms: C_11  and  C_17
    8  A    between atoms: C_14  and  C_23
    9  A    between atoms: C_15  and  C_23
   10  A    between atoms: C_15  and  C_34
   11  A    between atoms: C_16  and  C_29
   12  A    between atoms: C_23  and  C_30
   13  A    between atoms: C_27  and  C_56
   14  A    between atoms: N_28  and  C_32
   15  A    between atoms: C_30  and  C_50
   16  A    between atoms: C_37  and  C_41
   17  A    between atoms: C_40  and  C_56
   18  A    between atoms: C_48  and  C_52
   19  A    between atoms: C_52  and  C_59
                            x       y       z     vdW  Elec       q    Type
                         _______ _______ _______ _____ _____    ______ ____

>  <TORSDO>
F 19

$$$$
=
 OpenBabel11062416373D

 62 68  0  0  1  0  0  0  0  0999 V2000
  190.4230  174.6310  135.1380 C   0  0  0  0  0  0  0  0  0  0  0  0
  190.5530  175.8360  136.0310 C   0  0  0  0  0  2  0  0  0  0  0  0
  187.9820  174.7970  135.3340 C   0  0  0  0  0  3  0  0  0  0  0  0
  189.2090  174.1750  134.7960 C   0  0  0  0  0  3  0  0  0  0  0  0
  188.0480  175.6920  136.3240 C   0  0  0  0  0  0  0  0  0  0  0  0
  189.3730  175.9820  137.0000 C   0  0  2  0  0  3  0  0  0  0  0  0
  192.4080  173.1530  135.3370 C   0  0  0  0  0  1  0  0  0  0  0  0
  191.5940  174.0740  134.6140 O   0  0  0  0  0  0  0  0  0  0  0  0
  186.7750  176.3230  136.8020 C   0  0  0  0  0  2  0  0  0  0  0  0
  181.9750  174.9990  137.8350 N   0  0  0  0  0  0  0  0  0  0  0  0
  184.6550  173.3190  135.9380 C   0  0  0  0  0  0  0  0  0  0  0  0
  183.4790  173.7000  136.4850 C   0  0  0  0  0  0  0  0  0  0  0  0
  184.3410  175.7440  137.2790 C   0  0  0  0  0  3  0  0  0  0  0  0
  185.5860  175.4250  136.6690 C   0  0  0  0  0  0  0  0  0  0  0  0
  181.6310  176.1680  138.6070 C   0  0  0  0  0  0  0  0  0  0  0  0
  182.5240  176.9490  139.0170 O   0  0  0  0  0  0  0  0  0  0  0  0
  184.5350  171.8830  135.4950 C   0  0  0  0  0  2  0  0  0  0  0  0
  181.4200  172.7020  137.0290 N   0  0  0  0  0  0  0  0  0  0  0  0
  183.2620  174.8520  137.1860 C   0  0  0  0  0  0  0  0  0  0  0  0
  185.7540  174.1760  136.0140 C   0  0  0  0  0  3  0  0  0  0  0  0
  180.9080  173.9970  137.5470 C   0  0  0  0  0  2  0  0  0  0  0  0
  182.5940  172.6270  136.4930 C   0  0  0  0  0  0  0  0  0  0  0  0
  183.2060  171.5160  135.9240 O   0  0  0  0  0  0  0  0  0  0  0  0
  180.0000  176.5560  140.4350 C   0  0  0  0  0  1  0  0  0  0  0  0
  180.1920  176.4530  138.9390 C   0  0  1  0  0  3  0  0  0  0  0  0
  179.6100  177.6970  138.2560 C   0  0  0  0  0  2  0  0  0  0  0  0
  180.8100  178.5180  136.2490 C   0  0  0  0  0  2  0  0  0  0  0  0
  178.9760  178.8360  134.6870 O   0  0  0  0  0  1  0  0  0  0  0  0
  179.3960  178.9870  136.0090 C   0  0  1  0  0  0  0  0  0  0  0  0
  179.6270  177.6740  136.7220 C   0  0  2  0  0  3  0  0  0  0  0  0
  178.9310  180.2180  136.7770 C   0  0  0  0  0  2  0  0  0  0  0  0
  180.0080  181.2870  136.8140 C   0  0  1  0  0  3  0  0  0  0  0  0
  179.6390  182.3960  135.8490 C   0  0  0  0  0  2  0  0  0  0  0  0
  180.7550  183.1750  135.5550 O   0  0  0  0  0  1  0  0  0  0  0  0
  180.1500  181.8040  138.2460 C   0  0  2  0  0  3  0  0  0  0  0  0
  180.3400  183.1890  138.2850 O   0  0  0  0  0  1  0  0  0  0  0  0
  181.2180  181.0600  139.0570 C   0  0  0  0  0  2  0  0  0  0  0  0
  183.5490  180.4310  138.9610 N   0  0  0  0  0  2  0  0  0  0  0  0
  182.5770  181.0640  138.4170 C   0  0  0  0  0  3  0  0  0  0  0  0
  189.4180  177.3630  137.6290 C   0  0  0  0  0  2  0  0  0  0  0  0
  190.6570  177.1290  139.8590 N   0  0  0  0  0  0  0  0  0  0  0  0
  188.3240  177.3390  139.7430 O   0  0  0  0  0  0  0  0  0  0  0  0
  189.4230  177.2830  139.1260 C   0  0  0  0  0  0  0  0  0  0  0  0
  191.6860  177.7920  142.0160 C   0  0  0  0  0  3  0  0  0  0  0  0
  190.6360  177.1840  144.1100 C   0  0  0  0  0  0  0  0  0  0  0  0
  191.6760  177.8120  143.4120 C   0  0  0  0  0  3  0  0  0  0  0  0
  190.6640  177.1410  141.3050 C   0  0  0  0  0  0  0  0  0  0  0  0
  189.6120  176.5480  143.4130 C   0  0  0  0  0  3  0  0  0  0  0  0
  189.6200  176.5290  142.0190 C   0  0  0  0  0  3  0  0  0  0  0  0
  190.6540  177.1350  146.7000 N   0  0  0  0  0  0  0  0  0  0  0  0
  190.6440  177.1590  145.5470 C   0  0  0  0  0  0  0  0  0  0  0  0
  191.8910  177.0800  139.1310 C   0  0  0  0  0  3  0  0  0  0  0  0
  192.4740  175.9150  138.8700 C   0  0  0  0  0  3  0  0  0  0  0  0
  193.7850  175.7990  138.2400 C   0  0  0  0  0  0  0  0  0  0  0  0
  194.7530  174.8630  138.7220 N   0  0  0  0  0  2  0  0  0  0  0  0
  194.0080  176.4580  137.1890 O   0  0  0  0  0  0  0  0  0  0  0  0
  197.6920  172.6580  136.7220 N   0  0  0  0  0  2  0  0  0  0  0  0
  198.2040  173.4790  137.8300 C   0  0  0  0  0  2  0  0  0  0  0  0
  195.3270  172.8930  137.3510 C   0  0  0  0  0  2  0  0  0  0  0  0
  195.7750  174.2700  137.8630 C   0  0  0  0  0  3  0  0  0  0  0  0
  197.1060  174.1990  138.6200 C   0  0  0  0  0  2  0  0  0  0  0  0
  196.5040  171.9260  137.1370 C   0  0  0  0  0  2  0  0  0  0  0  0
  1  2  1  0  0  0  0
  2  6  1  0  0  0  0
  3  5  2  0  0  0  0
  4  1  2  0  0  0  0
  4  3  1  0  0  0  0
  5  9  1  0  0  0  0
  5  6  1  0  0  0  0
  6 40  1  6  0  0  0
  8  1  1  0  0  0  0
  8  7  1  0  0  0  0
 10 15  1  0  0  0  0
 11 20  2  0  0  0  0
 11 12  1  0  0  0  0
 12 22  1  0  0  0  0
 12 19  2  0  0  0  0
 14  9  1  0  0  0  0
 14 13  2  0  0  0  0
 15 25  1  0  0  0  0
 15 16  2  0  0  0  0
 17 23  1  0  0  0  0
 17 11  1  0  0  0  0
 18 21  1  0  0  0  0
 19 13  1  0  0  0  0
 19 10  1  0  0  0  0
 20 14  1  0  0  0  0
 21 10  1  0  0  0  0
 22 18  2  0  0  0  0
 23 22  1  0  0  0  0
 25 24  1  1  0  0  0
 26 25  1  0  0  0  0
 27 30  1  0  0  0  0
 29 28  1  6  0  0  0
 29 27  1  0  0  0  0
 29 30  1  0  0  0  0
 29 31  1  0  0  0  0
 30 26  1  1  0  0  0
 31 32  1  0  0  0  0
 32 33  1  6  0  0  0
 32 35  1  0  0  0  0
 34 33  1  0  0  0  0
 35 36  1  6  0  0  0
 35 37  1  0  0  0  0
 39 38  2  0  0  0  0
 39 37  1  0  0  0  0
 40 43  1  0  0  0  0
 41 47  1  0  0  0  0
 43 42  2  0  0  0  0
 43 41  1  0  0  0  0
 44 46  1  0  0  0  0
 45 51  1  0  0  0  0
 46 45  2  0  0  0  0
 47 44  2  0  0  0  0
 47 49  1  0  0  0  0
 48 45  1  0  0  0  0
 49 48  2  0  0  0  0
 51 50  3  0  0  0  0
 52 41  1  0  0  0  0
 53 52  2  0  0  0  0
 54 55  1  0  0  0  0
 54 53  1  0  0  0  0
 56 54  2  0  0  0  0
 57 62  1  0  0  0  0
 57 58  1  0  0  0  0
 58 61  1  0  0  0  0
 59 60  1  0  0  0  0
 60 61  1  0  0  0  0
 60 55  1  0  0  0  0
 62 59  1  0  0  0  0
M  END
>  <MODEL>
8

>  <REMARK>
 VINA RESULT:      -5.0      2.938      7.616
  Name = 
  19 active torsions:
  status: ('A' for Active; 'I' for Inactive)
    1  A    between atoms: C_2  and  C_16
    2  A    between atoms: C_2  and  C_57
    3  A    between atoms: N_4  and  C_7
    4  A    between atoms: N_4  and  C_49
    5  A    between atoms: C_8  and  O_51
    6  A    between atoms: C_9  and  C_34
    7  A    between atoms: C_11  and  C_17
    8  A    between atoms: C_14  and  C_23
    9  A    between atoms: C_15  and  C_23
   10  A    between atoms: C_15  and  C_34
   11  A    between atoms: C_16  and  C_29
   12  A    between atoms: C_23  and  C_30
   13  A    between atoms: C_27  and  C_56
   14  A    between atoms: N_28  and  C_32
   15  A    between atoms: C_30  and  C_50
   16  A    between atoms: C_37  and  C_41
   17  A    between atoms: C_40  and  C_56
   18  A    between atoms: C_48  and  C_52
   19  A    between atoms: C_52  and  C_59
                            x       y       z     vdW  Elec       q    Type
                         _______ _______ _______ _____ _____    ______ ____

>  <TORSDO>
F 19

$$$$
=
 OpenBabel11062416373D

 62 68  0  0  1  0  0  0  0  0999 V2000
  186.7610  178.1880  138.8610 C   0  0  0  0  0  0  0  0  0  0  0  0
  187.7750  177.0760  138.8620 C   0  0  0  0  0  2  0  0  0  0  0  0
  185.9590  177.4040  136.6780 C   0  0  0  0  0  3  0  0  0  0  0  0
  185.8960  178.3090  137.8440 C   0  0  0  0  0  3  0  0  0  0  0  0
  186.9950  176.5760  136.5120 C   0  0  0  0  0  0  0  0  0  0  0  0
  188.1850  176.6510  137.4460 C   0  0  2  0  0  3  0  0  0  0  0  0
  185.8310  178.7630  141.0900 C   0  0  0  0  0  1  0  0  0  0  0  0
  186.6960  179.0170  139.9860 O   0  0  0  0  0  0  0  0  0  0  0  0
  186.9850  175.6490  135.3340 C   0  0  0  0  0  2  0  0  0  0  0  0
  182.5280  173.8710  137.0160 N   0  0  0  0  0  0  0  0  0  0  0  0
  185.1870  172.3480  134.9650 C   0  0  0  0  0  0  0  0  0  0  0  0
  184.0350  172.6370  135.6120 C   0  0  0  0  0  0  0  0  0  0  0  0
  184.7080  174.8350  136.1330 C   0  0  0  0  0  3  0  0  0  0  0  0
  185.9140  174.6080  135.4120 C   0  0  0  0  0  0  0  0  0  0  0  0
  182.1200  175.0590  137.7270 C   0  0  0  0  0  0  0  0  0  0  0  0
  182.9440  175.9750  137.9670 O   0  0  0  0  0  0  0  0  0  0  0  0
  185.2050  170.8730  134.6560 C   0  0  0  0  0  2  0  0  0  0  0  0
  182.1890  171.4600  136.4670 N   0  0  0  0  0  0  0  0  0  0  0  0
  183.7480  173.8170  136.2370 C   0  0  0  0  0  0  0  0  0  0  0  0
  186.1700  173.3320  134.8440 C   0  0  0  0  0  3  0  0  0  0  0  0
  181.5730  172.7290  136.9350 C   0  0  0  0  0  2  0  0  0  0  0  0
  183.3000  171.4730  135.8080 C   0  0  0  0  0  0  0  0  0  0  0  0
  183.9860  170.3940  135.2630 O   0  0  0  0  0  0  0  0  0  0  0  0
  180.4140  174.2430  139.3310 C   0  0  0  0  0  1  0  0  0  0  0  0
  180.7000  175.2030  138.1980 C   0  0  1  0  0  3  0  0  0  0  0  0
  180.3010  176.6250  138.6120 C   0  0  0  0  0  2  0  0  0  0  0  0
  181.0900  178.7790  137.6730 C   0  0  0  0  0  2  0  0  0  0  0  0
  179.0390  179.6720  136.7250 O   0  0  0  0  0  1  0  0  0  0  0  0
  179.6040  178.9970  137.8080 C   0  0  1  0  0  0  0  0  0  0  0  0
  180.1180  177.6190  137.4580 C   0  0  2  0  0  3  0  0  0  0  0  0
  179.0690  179.2970  139.2030 C   0  0  0  0  0  2  0  0  0  0  0  0
  180.1740  179.7660  140.1310 C   0  0  1  0  0  3  0  0  0  0  0  0
  180.7040  181.0980  139.6390 C   0  0  0  0  0  2  0  0  0  0  0  0
  179.6550  181.9160  139.2290 O   0  0  0  0  0  1  0  0  0  0  0  0
  179.6230  179.8640  141.5540 C   0  0  2  0  0  3  0  0  0  0  0  0
  179.4260  181.1920  141.9480 O   0  0  0  0  0  1  0  0  0  0  0  0
  180.4530  179.0840  142.5810 C   0  0  0  0  0  2  0  0  0  0  0  0
  182.7440  178.5020  143.0840 N   0  0  0  0  0  2  0  0  0  0  0  0
  181.9370  179.2140  142.3880 C   0  0  0  0  0  3  0  0  0  0  0  0
  188.9500  175.3420  137.5250 C   0  0  0  0  0  2  0  0  0  0  0  0
  191.4810  175.7250  137.6100 N   0  0  0  0  0  0  0  0  0  0  0  0
  190.3500  175.2990  135.6000 O   0  0  0  0  0  0  0  0  0  0  0  0
  190.2850  175.4460  136.8520 C   0  0  0  0  0  0  0  0  0  0  0  0
  192.9430  176.2850  135.6870 C   0  0  0  0  0  3  0  0  0  0  0  0
  195.3090  175.7800  135.7610 C   0  0  0  0  0  0  0  0  0  0  0  0
  194.2020  176.3050  135.0830 C   0  0  0  0  0  3  0  0  0  0  0  0
  192.7770  175.7360  136.9690 C   0  0  0  0  0  0  0  0  0  0  0  0
  195.1570  175.2460  137.0380 C   0  0  0  0  0  3  0  0  0  0  0  0
  193.9010  175.2270  137.6430 C   0  0  0  0  0  3  0  0  0  0  0  0
  197.6340  175.7290  134.6190 N   0  0  0  0  0  0  0  0  0  0  0  0
  196.5980  175.7540  135.1260 C   0  0  0  0  0  0  0  0  0  0  0  0
  191.3780  175.8750  139.0320 C   0  0  0  0  0  3  0  0  0  0  0  0
  191.2910  177.0830  139.5780 C   0  0  0  0  0  3  0  0  0  0  0  0
  191.3030  177.3130  141.0190 C   0  0  0  0  0  0  0  0  0  0  0  0
  190.1050  177.6670  141.7160 N   0  0  0  0  0  2  0  0  0  0  0  0
  192.3640  177.0790  141.6570 O   0  0  0  0  0  0  0  0  0  0  0  0
  189.1880  177.3560  145.7850 N   0  0  0  0  0  2  0  0  0  0  0  0
  190.4220  178.1030  145.5010 C   0  0  0  0  0  2  0  0  0  0  0  0
  188.3860  177.3670  143.4610 C   0  0  0  0  0  2  0  0  0  0  0  0
  189.8840  177.3410  143.1220 C   0  0  0  0  0  3  0  0  0  0  0  0
  190.6910  178.3000  144.0050 C   0  0  0  0  0  2  0  0  0  0  0  0
  188.1110  177.7990  144.9120 C   0  0  0  0  0  2  0  0  0  0  0  0
  1  2  1  0  0  0  0
  1  8  1  0  0  0  0
  3  4  1  0  0  0  0
  4  1  2  0  0  0  0
  5  3  2  0  0  0  0
  5  6  1  0  0  0  0
  6 40  1  1  0  0  0
  6  2  1  0  0  0  0
  8  7  1  0  0  0  0
  9 14  1  0  0  0  0
  9  5  1  0  0  0  0
 10 15  1  0  0  0  0
 11 12  1  0  0  0  0
 12 22  1  0  0  0  0
 12 19  2  0  0  0  0
 13 19  1  0  0  0  0
 14 13  2  0  0  0  0
 15 16  2  0  0  0  0
 15 25  1  0  0  0  0
 17 11  1  0  0  0  0
 17 23  1  0  0  0  0
 18 21  1  0  0  0  0
 19 10  1  0  0  0  0
 20 11  2  0  0  0  0
 20 14  1  0  0  0  0
 21 10  1  0  0  0  0
 22 18  2  0  0  0  0
 23 22  1  0  0  0  0
 25 26  1  0  0  0  0
 25 24  1  1  0  0  0
 27 29  1  0  0  0  0
 29 28  1  6  0  0  0
 29 31  1  0  0  0  0
 30 27  1  0  0  0  0
 30 29  1  0  0  0  0
 30 26  1  1  0  0  0
 32 31  1  6  0  0  0
 32 35  1  0  0  0  0
 33 32  1  0  0  0  0
 34 33  1  0  0  0  0
 35 36  1  1  0  0  0
 35 37  1  0  0  0  0
 39 37  1  0  0  0  0
 39 38  2  0  0  0  0
 41 52  1  0  0  0  0
 42 43  2  0  0  0  0
 43 40  1  0  0  0  0
 43 41  1  0  0  0  0
 44 47  1  0  0  0  0
 45 48  2  0  0  0  0
 46 44  2  0  0  0  0
 46 45  1  0  0  0  0
 47 41  1  0  0  0  0
 47 49  2  0  0  0  0
 48 49  1  0  0  0  0
 50 51  3  0  0  0  0
 51 45  1  0  0  0  0
 52 53  2  0  0  0  0
 53 54  1  0  0  0  0
 54 56  2  0  0  0  0
 54 55  1  0  0  0  0
 55 60  1  0  0  0  0
 58 57  1  0  0  0  0
 59 62  1  0  0  0  0
 60 59  1  0  0  0  0
 60 61  1  0  0  0  0
 61 58  1  0  0  0  0
 62 57  1  0  0  0  0
M  END
>  <MODEL>
9

>  <REMARK>
 VINA RESULT:      -4.9      2.310      7.085
  Name = 
  19 active torsions:
  status: ('A' for Active; 'I' for Inactive)
    1  A    between atoms: C_2  and  C_16
    2  A    between atoms: C_2  and  C_57
    3  A    between atoms: N_4  and  C_7
    4  A    between atoms: N_4  and  C_49
    5  A    between atoms: C_8  and  O_51
    6  A    between atoms: C_9  and  C_34
    7  A    between atoms: C_11  and  C_17
    8  A    between atoms: C_14  and  C_23
    9  A    between atoms: C_15  and  C_23
   10  A    between atoms: C_15  and  C_34
   11  A    between atoms: C_16  and  C_29
   12  A    between atoms: C_23  and  C_30
   13  A    between atoms: C_27  and  C_56
   14  A    between atoms: N_28  and  C_32
   15  A    between atoms: C_30  and  C_50
   16  A    between atoms: C_37  and  C_41
   17  A    between atoms: C_40  and  C_56
   18  A    between atoms: C_48  and  C_52
   19  A    between atoms: C_52  and  C_59
                            x       y       z     vdW  Elec       q    Type
                         _______ _______ _______ _____ _____    ______ ____

>  <TORSDO>
F 19

$$$$
