=
 OpenBabel11062414173D

 60 64  0  0  1  0  0  0  0  0999 V2000
  185.3190  177.3600  136.4940 C   0  0  0  0  0  2  0  0  0  0  0  0
  184.4580  175.9280  134.6060 C   0  0  0  0  0  1  0  0  0  0  0  0
  184.1370  177.0790  135.5550 C   0  0  1  0  0  3  0  0  0  0  0  0
  182.7450  176.9700  136.2430 C   0  0  0  0  0  0  0  0  0  0  0  0
  181.7050  176.4860  135.2390 C   0  0  0  0  0  1  0  0  0  0  0  0
  182.2700  178.3480  136.7020 C   0  0  0  0  0  1  0  0  0  0  0  0
  182.8170  177.6300  140.9420 C   0  0  2  0  0  3  0  0  0  0  0  0
  179.8140  175.6280  139.4880 C   0  0  1  0  0  3  0  0  0  0  0  0
  180.6710  176.7340  138.8290 C   0  0  2  0  0  3  0  0  0  0  0  0
  182.3500  174.5390  137.1250 C   0  0  0  0  0  0  0  0  0  0  0  0
  181.1030  174.1970  137.3150 C   0  0  0  0  0  0  0  0  0  0  0  0
  179.8460  173.9880  137.5780 C   0  0  0  0  0  3  0  0  0  0  0  0
  183.1050  177.4990  139.4570 C   0  0  0  0  0  2  0  0  0  0  0  0
  180.4000  178.3160  140.7960 C   0  0  0  0  0  2  0  0  0  0  0  0
  182.2010  176.4540  138.8060 C   0  0  2  0  0  3  0  0  0  0  0  0
  182.7460  175.9660  137.4380 C   0  0  2  0  0  3  0  0  0  0  0  0
  179.1760  174.7580  138.5410 O   0  0  0  0  0  0  0  0  0  0  0  0
  180.2500  178.1310  139.2900 C   0  0  0  0  0  2  0  0  0  0  0  0
  181.8100  178.7460  141.1710 C   0  0  0  0  0  2  0  0  0  0  0  0
  184.7120  173.6800  137.1890 C   0  0  0  0  0  3  0  0  0  0  0  0
  183.0240  172.3980  136.0230 C   0  0  0  0  0  3  0  0  0  0  0  0
  185.3090  171.6030  136.1020 C   0  0  0  0  0  0  0  0  0  0  0  0
  186.3320  170.5880  135.7360 C   0  0  0  0  0  1  0  0  0  0  0  0
  183.3760  173.5270  136.7780 C   0  0  0  0  0  0  0  0  0  0  0  0
  185.6730  172.7230  136.8520 C   0  0  0  0  0  3  0  0  0  0  0  0
  183.9840  171.4390  135.6890 C   0  0  0  0  0  3  0  0  0  0  0  0
  179.5420  174.1080  141.4520 C   0  0  0  0  0  1  0  0  0  0  0  0
  180.5410  174.8420  140.5790 C   0  0  0  0  0  2  0  0  0  0  0  0
  184.0740  178.2490  142.8370 O   0  0  0  0  0  0  0  0  0  0  0  0
  184.0870  177.9540  141.6540 C   0  0  0  0  0  3  0  0  0  0  0  0
  186.4610  178.0950  135.8010 C   0  0  0  0  0  2  0  0  0  0  0  0
  190.5500  176.5250  137.2670 C   0  0  0  0  0  0  0  0  0  0  0  0
  187.7830  177.7750  136.4770 C   0  0  1  0  0  3  0  0  0  0  0  0
  189.7700  176.4570  138.5550 C   0  0  2  0  0  3  0  0  0  0  0  0
  189.1190  175.2300  138.6970 O   0  0  0  0  0  1  0  0  0  0  0  0
  187.5380  177.5090  137.9560 C   0  0  0  0  0  2  0  0  0  0  0  0
  188.4980  176.6140  135.7730 C   0  0  1  0  0  3  0  0  0  0  0  0
  189.9740  176.5920  136.0600 C   0  0  0  0  0  3  0  0  0  0  0  0
  188.8260  177.6430  138.7630 C   0  0  1  0  0  3  0  0  0  0  0  0
  192.0160  176.4870  137.3000 C   0  0  0  0  0  3  0  0  0  0  0  0
  192.7360  175.8200  136.4060 C   0  0  0  0  0  3  0  0  0  0  0  0
  194.2240  175.8480  136.4880 C   0  0  0  0  0  2  0  0  0  0  0  0
  194.7170  174.6740  137.1960 N   0  0  0  0  0  2  0  0  0  0  0  0
  196.6410  174.6090  135.7230 C   0  0  0  0  0  1  0  0  0  0  0  0
  196.1740  174.6900  137.1610 C   0  0  2  0  0  3  0  0  0  0  0  0
  198.1600  173.4700  137.8330 O   0  0  0  0  0  1  0  0  0  0  0  0
  196.7660  173.5250  137.9540 C   0  0  2  0  0  3  0  0  0  0  0  0
  195.3260  171.7460  138.6340 O   0  0  0  0  0  1  0  0  0  0  0  0
  196.1250  172.1920  137.5790 C   0  0  2  0  0  3  0  0  0  0  0  0
  196.5130  170.4250  136.3050 C   0  0  0  0  0  1  0  0  0  0  0  0
  197.0950  171.2330  137.2860 O   0  0  0  0  0  0  0  0  0  0  0  0
  188.5130  177.7550  140.1210 O   0  0  0  0  0  0  0  0  0  0  0  0
  189.7400  177.6740  140.7840 C   0  0  0  0  0  2  0  0  0  0  0  0
  189.6130  176.7830  141.9770 C   0  0  0  0  0  0  0  0  0  0  0  0
  188.4810  176.8380  142.7860 O   0  0  0  0  0  1  0  0  0  0  0  0
  190.5270  175.9580  142.2330 O   0  0  0  0  0  0  0  0  0  0  0  0
  187.8230  175.2580  135.9860 C   0  0  0  0  0  2  0  0  0  0  0  0
  188.8140  173.1020  134.5950 O   0  0  0  0  0  0  0  0  0  0  0  0
  189.7920  173.4500  135.4690 N   0  0  0  0  0  0  0  0  0  0  0  0
  188.6600  174.1500  135.4470 C   0  0  0  0  0  0  0  0  0  0  0  0
  3  2  1  1  0  0  0
  3  4  1  0  0  0  0
  3  1  1  0  0  0  0
  4  6  1  0  0  0  0
  5  4  1  0  0  0  0
  7 19  1  0  0  0  0
  7 30  1  1  0  0  0
  8 28  1  1  0  0  0
  9 18  1  1  0  0  0
  9  8  1  0  0  0  0
 10 11  2  0  0  0  0
 10 16  1  0  0  0  0
 11 12  2  0  0  0  0
 12 17  1  0  0  0  0
 13  7  1  0  0  0  0
 14 19  1  0  0  0  0
 15  9  1  0  0  0  0
 15 13  1  6  0  0  0
 16  4  1  6  0  0  0
 16 15  1  0  0  0  0
 17  8  1  0  0  0  0
 18 14  1  0  0  0  0
 21 24  1  0  0  0  0
 22 25  2  0  0  0  0
 23 22  1  0  0  0  0
 24 10  1  0  0  0  0
 24 20  2  0  0  0  0
 25 20  1  0  0  0  0
 26 21  2  0  0  0  0
 26 22  1  0  0  0  0
 28 27  1  0  0  0  0
 30 29  2  0  0  0  0
 31  1  1  0  0  0  0
 32 40  1  0  0  0  0
 32 34  1  0  0  0  0
 33 31  1  6  0  0  0
 33 36  1  0  0  0  0
 34 35  1  6  0  0  0
 34 39  1  0  0  0  0
 36 39  1  0  0  0  0
 37 57  1  1  0  0  0
 37 38  1  0  0  0  0
 37 33  1  0  0  0  0
 38 32  2  0  0  0  0
 39 52  1  1  0  0  0
 41 42  1  0  0  0  0
 41 40  2  0  0  0  0
 42 43  1  0  0  0  0
 45 44  1  6  0  0  0
 45 43  1  0  0  0  0
 45 47  1  0  0  0  0
 47 46  1  6  0  0  0
 49 47  1  0  0  0  0
 49 48  1  1  0  0  0
 50 51  1  0  0  0  0
 51 49  1  0  0  0  0
 52 53  1  0  0  0  0
 53 54  1  0  0  0  0
 54 56  2  0  0  0  0
 54 55  1  0  0  0  0
 58 60  1  0  0  0  0
 58 59  1  0  0  0  0
 60 59  2  0  0  0  0
 60 57  1  0  0  0  0
M  END
>  <MODEL>
1

>  <REMARK>
 VINA RESULT:      -5.1      0.000      0.000
  Name = 
  20 active torsions:
  status: ('A' for Active; 'I' for Inactive)
    1  A    between atoms: C_2  and  C_54
    2  A    between atoms: C_3  and  C_11
    3  A    between atoms: C_4  and  C_17
    4  A    between atoms: C_7  and  C_32
    5  A    between atoms: N_12  and  C_39
    6  A    between atoms: N_12  and  C_56
    7  A    between atoms: C_14  and  C_43
    8  A    between atoms: C_16  and  C_19
    9  A    between atoms: C_16  and  C_44
   10  A    between atoms: C_19  and  C_20
   11  A    between atoms: C_20  and  C_43
   12  A    between atoms: O_22  and  C_40
   13  A    between atoms: O_22  and  C_59
   14  A    between atoms: C_34  and  C_51
   15  A    between atoms: C_34  and  C_53
   16  A    between atoms: O_36  and  C_45
   17  A    between atoms: C_39  and  C_47
   18  A    between atoms: C_40  and  C_42
   19  A    between atoms: C_45  and  C_46
   20  A    between atoms: C_46  and  C_56
                            x       y       z     vdW  Elec       q    Type
                         _______ _______ _______ _____ _____    ______ ____

>  <TORSDO>
F 20

$$$$
=
 OpenBabel11062414173D

 60 64  0  0  1  0  0  0  0  0999 V2000
  185.6540  176.5190  137.1100 C   0  0  0  0  0  2  0  0  0  0  0  0
  185.4650  176.6320  134.5990 C   0  0  0  0  0  1  0  0  0  0  0  0
  184.9060  177.1450  135.9230 C   0  0  1  0  0  3  0  0  0  0  0  0
  183.3530  177.1120  136.0180 C   0  0  0  0  0  0  0  0  0  0  0  0
  182.7630  176.6240  134.7000 C   0  0  0  0  0  1  0  0  0  0  0  0
  182.8030  178.5220  136.2220 C   0  0  0  0  0  1  0  0  0  0  0  0
  182.7740  177.7320  140.6870 C   0  0  2  0  0  3  0  0  0  0  0  0
  179.6250  176.7220  138.6380 C   0  0  1  0  0  3  0  0  0  0  0  0
  180.8740  177.5170  138.1930 C   0  0  2  0  0  3  0  0  0  0  0  0
  182.1040  174.9150  136.6920 C   0  0  0  0  0  0  0  0  0  0  0  0
  180.7990  174.9640  136.6470 C   0  0  0  0  0  0  0  0  0  0  0  0
  179.5100  175.1440  136.6790 C   0  0  0  0  0  3  0  0  0  0  0  0
  183.2720  177.5160  139.2680 C   0  0  0  0  0  2  0  0  0  0  0  0
  180.7360  179.1130  140.1630 C   0  0  0  0  0  2  0  0  0  0  0  0
  182.2310  176.7900  138.4190 C   0  0  2  0  0  3  0  0  0  0  0  0
  182.8420  176.1580  137.1410 C   0  0  2  0  0  3  0  0  0  0  0  0
  178.9370  176.0820  137.5510 O   0  0  0  0  0  0  0  0  0  0  0  0
  180.8110  178.9780  138.6470 C   0  0  0  0  0  2  0  0  0  0  0  0
  182.1190  179.0990  140.7960 C   0  0  0  0  0  2  0  0  0  0  0  0
  182.3910  172.7130  135.5130 C   0  0  0  0  0  3  0  0  0  0  0  0
  183.9680  173.3390  137.2370 C   0  0  0  0  0  3  0  0  0  0  0  0
  184.2110  171.2250  136.0840 C   0  0  0  0  0  0  0  0  0  0  0  0
  184.9390  169.9440  135.8840 C   0  0  0  0  0  1  0  0  0  0  0  0
  182.8290  173.6400  136.4750 C   0  0  0  0  0  0  0  0  0  0  0  0
  183.0790  171.5110  135.3190 C   0  0  0  0  0  3  0  0  0  0  0  0
  184.6570  172.1400  137.0420 C   0  0  0  0  0  3  0  0  0  0  0  0
  179.1680  176.2380  141.0450 C   0  0  0  0  0  1  0  0  0  0  0  0
  179.8770  175.7570  139.7950 C   0  0  0  0  0  2  0  0  0  0  0  0
  184.8750  178.4260  141.4990 O   0  0  0  0  0  0  0  0  0  0  0  0
  183.9340  177.6610  141.6220 C   0  0  0  0  0  3  0  0  0  0  0  0
  186.7200  175.5190  136.6760 C   0  0  0  0  0  2  0  0  0  0  0  0
  190.3320  176.7870  139.2600 C   0  0  0  0  0  0  0  0  0  0  0  0
  187.9640  175.6650  137.5340 C   0  0  1  0  0  3  0  0  0  0  0  0
  191.0390  175.9610  138.2150 C   0  0  2  0  0  3  0  0  0  0  0  0
  191.4090  176.7360  137.1120 O   0  0  0  0  0  1  0  0  0  0  0  0
  189.1390  175.0010  136.8300 C   0  0  0  0  0  2  0  0  0  0  0  0
  188.2300  177.1370  137.8780 C   0  0  1  0  0  3  0  0  0  0  0  0
  189.1040  177.2920  139.0930 C   0  0  0  0  0  3  0  0  0  0  0  0
  190.2730  174.7010  137.8080 C   0  0  1  0  0  3  0  0  0  0  0  0
  191.0090  177.0950  140.5240 C   0  0  0  0  0  3  0  0  0  0  0  0
  190.5790  176.6440  141.6960 C   0  0  0  0  0  3  0  0  0  0  0  0
  191.3340  176.9780  142.9370 C   0  0  0  0  0  2  0  0  0  0  0  0
  190.7130  178.1040  143.6230 N   0  0  0  0  0  2  0  0  0  0  0  0
  191.4390  176.6810  145.4460 C   0  0  0  0  0  1  0  0  0  0  0  0
  190.4200  177.7070  144.9950 C   0  0  2  0  0  3  0  0  0  0  0  0
  188.2290  177.4100  143.9980 O   0  0  0  0  0  1  0  0  0  0  0  0
  189.0160  177.1170  145.1190 C   0  0  2  0  0  3  0  0  0  0  0  0
  188.5830  176.6130  147.4120 O   0  0  0  0  0  1  0  0  0  0  0  0
  188.3250  177.5500  146.4090 C   0  0  2  0  0  3  0  0  0  0  0  0
  186.5300  178.5570  147.2220 C   0  0  0  0  0  1  0  0  0  0  0  0
  186.9470  177.6720  146.2240 O   0  0  0  0  0  0  0  0  0  0  0  0
  191.1570  173.7870  137.2260 O   0  0  0  0  0  0  0  0  0  0  0  0
  190.8790  173.8350  135.8570 C   0  0  0  0  0  2  0  0  0  0  0  0
  190.8970  172.4540  135.2880 C   0  0  0  0  0  0  0  0  0  0  0  0
  192.0850  171.8930  134.8270 O   0  0  0  0  0  0  0  0  0  0  0  0
  189.8320  171.7860  135.2540 O   0  0  0  0  0  1  0  0  0  0  0  0
  188.7030  177.9700  136.6860 C   0  0  0  0  0  2  0  0  0  0  0  0
  187.0690  179.8070  135.4530 O   0  0  0  0  0  0  0  0  0  0  0  0
  186.9090  180.0160  136.7840 N   0  0  0  0  0  0  0  0  0  0  0  0
  187.7330  179.0570  136.3700 C   0  0  0  0  0  0  0  0  0  0  0  0
  3  2  1  6  0  0  0
  3  4  1  0  0  0  0
  3  1  1  0  0  0  0
  4  6  1  0  0  0  0
  5  4  1  0  0  0  0
  7 19  1  0  0  0  0
  7 30  1  1  0  0  0
  8 28  1  1  0  0  0
  9 15  1  0  0  0  0
  9  8  1  0  0  0  0
  9 18  1  1  0  0  0
 10 16  1  0  0  0  0
 11 12  2  0  0  0  0
 11 10  2  0  0  0  0
 12 17  1  0  0  0  0
 13  7  1  0  0  0  0
 14 19  1  0  0  0  0
 15 13  1  6  0  0  0
 16  4  1  6  0  0  0
 16 15  1  0  0  0  0
 17  8  1  0  0  0  0
 18 14  1  0  0  0  0
 20 24  1  0  0  0  0
 22 26  2  0  0  0  0
 23 22  1  0  0  0  0
 24 10  1  0  0  0  0
 24 21  2  0  0  0  0
 25 20  2  0  0  0  0
 25 22  1  0  0  0  0
 26 21  1  0  0  0  0
 28 27  1  0  0  0  0
 29 30  2  0  0  0  0
 31  1  1  0  0  0  0
 32 40  1  0  0  0  0
 33 31  1  6  0  0  0
 33 37  1  0  0  0  0
 34 35  1  6  0  0  0
 34 32  1  0  0  0  0
 36 33  1  0  0  0  0
 36 39  1  0  0  0  0
 37 57  1  6  0  0  0
 37 38  1  0  0  0  0
 38 32  2  0  0  0  0
 39 52  1  6  0  0  0
 39 34  1  0  0  0  0
 40 41  2  0  0  0  0
 41 42  1  0  0  0  0
 42 43  1  0  0  0  0
 43 45  1  0  0  0  0
 45 47  1  0  0  0  0
 45 44  1  6  0  0  0
 47 46  1  6  0  0  0
 47 49  1  0  0  0  0
 49 48  1  1  0  0  0
 51 49  1  0  0  0  0
 51 50  1  0  0  0  0
 53 52  1  0  0  0  0
 54 53  1  0  0  0  0
 55 54  2  0  0  0  0
 56 54  1  0  0  0  0
 58 60  1  0  0  0  0
 58 59  1  0  0  0  0
 60 57  1  0  0  0  0
 60 59  2  0  0  0  0
M  END
>  <MODEL>
2

>  <REMARK>
 VINA RESULT:      -4.9      2.920      5.858
  Name = 
  20 active torsions:
  status: ('A' for Active; 'I' for Inactive)
    1  A    between atoms: C_2  and  C_54
    2  A    between atoms: C_3  and  C_11
    3  A    between atoms: C_4  and  C_17
    4  A    between atoms: C_7  and  C_32
    5  A    between atoms: N_12  and  C_39
    6  A    between atoms: N_12  and  C_56
    7  A    between atoms: C_14  and  C_43
    8  A    between atoms: C_16  and  C_19
    9  A    between atoms: C_16  and  C_44
   10  A    between atoms: C_19  and  C_20
   11  A    between atoms: C_20  and  C_43
   12  A    between atoms: O_22  and  C_40
   13  A    between atoms: O_22  and  C_59
   14  A    between atoms: C_34  and  C_51
   15  A    between atoms: C_34  and  C_53
   16  A    between atoms: O_36  and  C_45
   17  A    between atoms: C_39  and  C_47
   18  A    between atoms: C_40  and  C_42
   19  A    between atoms: C_45  and  C_46
   20  A    between atoms: C_46  and  C_56
                            x       y       z     vdW  Elec       q    Type
                         _______ _______ _______ _____ _____    ______ ____

>  <TORSDO>
F 20

$$$$
=
 OpenBabel11062414173D

 60 64  0  0  1  0  0  0  0  0999 V2000
  186.1680  177.8300  136.2140 C   0  0  0  0  0  2  0  0  0  0  0  0
  186.4110  177.0010  138.5820 C   0  0  0  0  0  1  0  0  0  0  0  0
  186.9420  177.9730  137.5330 C   0  0  1  0  0  3  0  0  0  0  0  0
  188.4930  177.9890  137.4010 C   0  0  0  0  0  0  0  0  0  0  0  0
  189.0520  179.2730  138.0020 C   0  0  0  0  0  1  0  0  0  0  0  0
  188.9010  178.0070  135.9290 C   0  0  0  0  0  1  0  0  0  0  0  0
  189.2160  173.4730  136.1330 C   0  0  2  0  0  3  0  0  0  0  0  0
  192.3620  175.5780  137.0320 C   0  0  1  0  0  3  0  0  0  0  0  0
  191.0070  176.0370  136.4460 C   0  0  2  0  0  3  0  0  0  0  0  0
  190.0270  177.1340  139.3390 C   0  0  0  0  0  0  0  0  0  0  0  0
  191.3130  177.2660  139.1490 C   0  0  0  0  0  0  0  0  0  0  0  0
  192.5710  177.3360  138.8220 C   0  0  0  0  0  3  0  0  0  0  0  0
  188.6800  174.8220  136.5820 C   0  0  0  0  0  2  0  0  0  0  0  0
  191.0460  174.2850  134.6080 C   0  0  0  0  0  2  0  0  0  0  0  0
  189.7590  175.6410  137.2880 C   0  0  2  0  0  3  0  0  0  0  0  0
  189.1670  176.7920  138.1420 C   0  0  2  0  0  3  0  0  0  0  0  0
  193.0680  176.6210  137.7230 O   0  0  0  0  0  0  0  0  0  0  0  0
  190.9160  175.7670  134.9420 C   0  0  0  0  0  2  0  0  0  0  0  0
  189.7070  173.5700  134.6970 C   0  0  0  0  0  2  0  0  0  0  0  0
  189.9300  176.2860  141.7050 C   0  0  0  0  0  3  0  0  0  0  0  0
  188.4060  178.0350  141.0180 C   0  0  0  0  0  3  0  0  0  0  0  0
  188.3390  177.1920  143.2860 C   0  0  0  0  0  0  0  0  0  0  0  0
  187.7430  177.2080  144.6480 C   0  0  0  0  0  1  0  0  0  0  0  0
  189.4510  177.1510  140.7050 C   0  0  0  0  0  0  0  0  0  0  0  0
  189.3760  176.3060  142.9880 C   0  0  0  0  0  3  0  0  0  0  0  0
  187.8540  178.0580  142.3010 C   0  0  0  0  0  3  0  0  0  0  0  0
  193.1360  173.2130  137.2420 C   0  0  0  0  0  1  0  0  0  0  0  0
  192.2830  174.3000  137.8650 C   0  0  0  0  0  2  0  0  0  0  0  0
  187.9390  171.8320  137.2410 O   0  0  0  0  0  0  0  0  0  0  0  0
  188.1190  172.4660  136.2160 C   0  0  0  0  0  3  0  0  0  0  0  0
  185.4310  176.4990  136.1040 C   0  0  0  0  0  2  0  0  0  0  0  0
  181.3120  176.0210  138.1390 C   0  0  0  0  0  0  0  0  0  0  0  0
  184.0450  176.6100  136.7140 C   0  0  1  0  0  3  0  0  0  0  0  0
  180.8840  176.6280  136.8270 C   0  0  2  0  0  3  0  0  0  0  0  0
  180.6490  175.6460  135.8610 O   0  0  0  0  0  1  0  0  0  0  0  0
  183.0810  177.1590  135.6710 C   0  0  0  0  0  2  0  0  0  0  0  0
  183.5880  175.2670  137.2990 C   0  0  1  0  0  3  0  0  0  0  0  0
  182.4990  175.4300  138.3250 C   0  0  0  0  0  3  0  0  0  0  0  0
  181.8230  177.7250  136.3230 C   0  0  1  0  0  3  0  0  0  0  0  0
  180.3940  176.0360  139.2830 C   0  0  0  0  0  3  0  0  0  0  0  0
  180.2750  177.0810  140.0930 C   0  0  0  0  0  3  0  0  0  0  0  0
  179.3010  177.0340  141.2200 C   0  0  0  0  0  2  0  0  0  0  0  0
  179.4400  178.2140  142.0620 N   0  0  0  0  0  2  0  0  0  0  0  0
  179.7380  177.4340  144.3380 C   0  0  0  0  0  1  0  0  0  0  0  0
  180.4360  177.9360  143.0910 C   0  0  2  0  0  3  0  0  0  0  0  0
  181.1150  180.1750  142.4540 O   0  0  0  0  0  1  0  0  0  0  0  0
  181.2530  179.1810  143.4310 C   0  0  2  0  0  3  0  0  0  0  0  0
  183.3800  179.9900  144.1530 O   0  0  0  0  0  1  0  0  0  0  0  0
  182.7210  178.8520  143.6820 C   0  0  2  0  0  3  0  0  0  0  0  0
  184.4880  179.1890  142.3920 C   0  0  0  0  0  1  0  0  0  0  0  0
  183.3420  178.4000  142.5160 O   0  0  0  0  0  0  0  0  0  0  0  0
  181.1450  178.5310  135.4020 O   0  0  0  0  0  0  0  0  0  0  0  0
  181.3450  179.8390  135.8490 C   0  0  0  0  0  2  0  0  0  0  0  0
  180.5610  180.0710  137.1000 C   0  0  0  0  0  0  0  0  0  0  0  0
  179.1690  180.0380  137.0810 O   0  0  0  0  0  0  0  0  0  0  0  0
  181.1690  180.2690  138.1830 O   0  0  0  0  0  1  0  0  0  0  0  0
  183.2630  174.2150  136.2390 C   0  0  0  0  0  2  0  0  0  0  0  0
  182.9490  171.6580  137.2030 O   0  0  0  0  0  0  0  0  0  0  0  0
  184.2880  171.8760  137.1840 N   0  0  0  0  0  0  0  0  0  0  0  0
  183.4660  172.8370  136.7680 C   0  0  0  0  0  0  0  0  0  0  0  0
  1  3  1  0  0  0  0
  3  2  1  1  0  0  0
  4  3  1  0  0  0  0
  4  5  1  0  0  0  0
  6  4  1  0  0  0  0
  7 30  1  6  0  0  0
  7 13  1  0  0  0  0
  8 17  1  0  0  0  0
  8 28  1  1  0  0  0
  9 18  1  6  0  0  0
  9  8  1  0  0  0  0
  9 15  1  0  0  0  0
 10 24  1  0  0  0  0
 11 10  2  0  0  0  0
 12 11  2  0  0  0  0
 14 19  1  0  0  0  0
 14 18  1  0  0  0  0
 15 13  1  6  0  0  0
 15 16  1  0  0  0  0
 16  4  1  6  0  0  0
 16 10  1  0  0  0  0
 17 12  1  0  0  0  0
 19  7  1  0  0  0  0
 20 25  1  0  0  0  0
 21 26  2  0  0  0  0
 22 23  1  0  0  0  0
 24 21  1  0  0  0  0
 24 20  2  0  0  0  0
 25 22  2  0  0  0  0
 26 22  1  0  0  0  0
 27 28  1  0  0  0  0
 30 29  2  0  0  0  0
 31  1  1  0  0  0  0
 32 38  2  0  0  0  0
 32 40  1  0  0  0  0
 33 31  1  6  0  0  0
 33 37  1  0  0  0  0
 34 35  1  6  0  0  0
 34 32  1  0  0  0  0
 36 39  1  0  0  0  0
 36 33  1  0  0  0  0
 37 57  1  6  0  0  0
 37 38  1  0  0  0  0
 39 52  1  6  0  0  0
 39 34  1  0  0  0  0
 40 41  2  0  0  0  0
 41 42  1  0  0  0  0
 42 43  1  0  0  0  0
 43 45  1  0  0  0  0
 45 47  1  0  0  0  0
 45 44  1  1  0  0  0
 47 46  1  6  0  0  0
 47 49  1  0  0  0  0
 49 48  1  6  0  0  0
 50 51  1  0  0  0  0
 51 49  1  0  0  0  0
 52 53  1  0  0  0  0
 53 54  1  0  0  0  0
 54 56  1  0  0  0  0
 55 54  2  0  0  0  0
 57 60  1  0  0  0  0
 59 58  1  0  0  0  0
 60 59  2  0  0  0  0
 60 58  1  0  0  0  0
M  END
>  <MODEL>
3

>  <REMARK>
 VINA RESULT:      -4.7      3.052     10.862
  Name = 
  20 active torsions:
  status: ('A' for Active; 'I' for Inactive)
    1  A    between atoms: C_2  and  C_54
    2  A    between atoms: C_3  and  C_11
    3  A    between atoms: C_4  and  C_17
    4  A    between atoms: C_7  and  C_32
    5  A    between atoms: N_12  and  C_39
    6  A    between atoms: N_12  and  C_56
    7  A    between atoms: C_14  and  C_43
    8  A    between atoms: C_16  and  C_19
    9  A    between atoms: C_16  and  C_44
   10  A    between atoms: C_19  and  C_20
   11  A    between atoms: C_20  and  C_43
   12  A    between atoms: O_22  and  C_40
   13  A    between atoms: O_22  and  C_59
   14  A    between atoms: C_34  and  C_51
   15  A    between atoms: C_34  and  C_53
   16  A    between atoms: O_36  and  C_45
   17  A    between atoms: C_39  and  C_47
   18  A    between atoms: C_40  and  C_42
   19  A    between atoms: C_45  and  C_46
   20  A    between atoms: C_46  and  C_56
                            x       y       z     vdW  Elec       q    Type
                         _______ _______ _______ _____ _____    ______ ____

>  <TORSDO>
F 20

$$$$
=
 OpenBabel11062414173D

 60 64  0  0  1  0  0  0  0  0999 V2000
  185.3620  178.6800  138.5790 C   0  0  0  0  0  2  0  0  0  0  0  0
  186.8160  177.9260  140.4950 C   0  0  0  0  0  1  0  0  0  0  0  0
  186.7880  178.6470  139.1510 C   0  0  1  0  0  3  0  0  0  0  0  0
  187.8970  178.1940  138.1580 C   0  0  0  0  0  0  0  0  0  0  0  0
  188.9420  179.2940  138.0100 C   0  0  0  0  0  1  0  0  0  0  0  0
  187.3110  177.9870  136.7630 C   0  0  0  0  0  1  0  0  0  0  0  0
  187.6840  173.6830  136.6980 C   0  0  2  0  0  3  0  0  0  0  0  0
  191.1620  175.4210  136.5550 C   0  0  1  0  0  3  0  0  0  0  0  0
  189.7490  176.0380  136.4370 C   0  0  2  0  0  3  0  0  0  0  0  0
  189.8650  177.1100  139.4980 C   0  0  0  0  0  0  0  0  0  0  0  0
  191.0310  177.1190  138.9070 C   0  0  0  0  0  0  0  0  0  0  0  0
  192.1190  177.0740  138.1950 C   0  0  0  0  0  3  0  0  0  0  0  0
  187.4690  175.0600  137.3030 C   0  0  0  0  0  2  0  0  0  0  0  0
  189.0120  174.3670  134.6720 C   0  0  0  0  0  2  0  0  0  0  0  0
  188.7990  175.7360  137.6310 C   0  0  2  0  0  3  0  0  0  0  0  0
  188.6380  176.9060  138.6360 C   0  0  2  0  0  3  0  0  0  0  0  0
  192.1600  176.3580  136.9900 O   0  0  0  0  0  0  0  0  0  0  0  0
  189.1570  175.8400  135.0390 C   0  0  0  0  0  2  0  0  0  0  0  0
  187.7010  173.7880  135.1810 C   0  0  0  0  0  2  0  0  0  0  0  0
  189.6750  175.9350  141.7130 C   0  0  0  0  0  3  0  0  0  0  0  0
  189.7320  178.3530  141.6640 C   0  0  0  0  0  3  0  0  0  0  0  0
  189.5460  177.1880  143.7780 C   0  0  0  0  0  0  0  0  0  0  0  0
  189.4240  177.2210  145.2600 C   0  0  0  0  0  1  0  0  0  0  0  0
  189.7580  177.1300  140.9760 C   0  0  0  0  0  0  0  0  0  0  0  0
  189.5690  175.9640  143.1060 C   0  0  0  0  0  3  0  0  0  0  0  0
  189.6280  178.3830  143.0580 C   0  0  0  0  0  3  0  0  0  0  0  0
  191.4110  172.9380  136.4390 C   0  0  0  0  0  1  0  0  0  0  0  0
  191.2130  174.1240  137.3610 C   0  0  0  0  0  2  0  0  0  0  0  0
  185.6100  173.2410  137.7260 O   0  0  0  0  0  0  0  0  0  0  0  0
  186.5680  172.7900  137.1210 C   0  0  0  0  0  3  0  0  0  0  0  0
  184.3110  179.0090  139.6330 C   0  0  0  0  0  2  0  0  0  0  0  0
  180.4480  176.9910  138.1050 C   0  0  0  0  0  0  0  0  0  0  0  0
  183.0390  178.2190  139.3770 C   0  0  1  0  0  3  0  0  0  0  0  0
  179.9500  177.5410  139.4170 C   0  0  2  0  0  3  0  0  0  0  0  0
  179.4630  178.8430  139.2760 O   0  0  0  0  0  1  0  0  0  0  0  0
  182.0410  178.5010  140.4910 C   0  0  0  0  0  2  0  0  0  0  0  0
  182.4750  178.5170  137.9810 C   0  0  1  0  0  3  0  0  0  0  0  0
  181.5540  177.4320  137.4930 C   0  0  0  0  0  3  0  0  0  0  0  0
  180.9640  177.4220  140.5560 C   0  0  1  0  0  3  0  0  0  0  0  0
  179.6880  175.9380  137.4220 C   0  0  0  0  0  3  0  0  0  0  0  0
  179.7510  174.6610  137.7790 C   0  0  0  0  0  3  0  0  0  0  0  0
  178.9310  173.6500  137.0550 C   0  0  0  0  0  2  0  0  0  0  0  0
  179.5210  173.3500  135.7580 N   0  0  0  0  0  2  0  0  0  0  0  0
  179.2660  171.2200  136.8860 C   0  0  0  0  0  1  0  0  0  0  0  0
  179.4840  171.9070  135.5540 C   0  0  2  0  0  3  0  0  0  0  0  0
  180.9010  170.0060  135.0450 O   0  0  0  0  0  1  0  0  0  0  0  0
  180.7790  171.3960  134.9240 C   0  0  2  0  0  3  0  0  0  0  0  0
  183.0760  171.9550  134.5940 O   0  0  0  0  0  1  0  0  0  0  0  0
  182.0070  172.1110  135.4790 C   0  0  2  0  0  3  0  0  0  0  0  0
  183.3980  170.7100  136.4790 C   0  0  0  0  0  1  0  0  0  0  0  0
  182.3580  171.6070  136.7330 O   0  0  0  0  0  0  0  0  0  0  0  0
  180.2980  177.5050  141.7830 O   0  0  0  0  0  0  0  0  0  0  0  0
  180.7290  178.7080  142.3480 C   0  0  0  0  0  2  0  0  0  0  0  0
  179.6500  179.2770  143.2110 C   0  0  0  0  0  0  0  0  0  0  0  0
  179.2530  178.6220  144.3740 O   0  0  0  0  0  1  0  0  0  0  0  0
  179.1170  180.3710  142.8940 O   0  0  0  0  0  0  0  0  0  0  0  0
  181.8780  179.9180  137.8470 C   0  0  0  0  0  2  0  0  0  0  0  0
  179.8410  180.0750  136.0050 O   0  0  0  0  0  0  0  0  0  0  0  0
  180.9880  180.1570  135.2840 N   0  0  0  0  0  0  0  0  0  0  0  0
  181.0580  180.0370  136.6080 C   0  0  0  0  0  0  0  0  0  0  0  0
  1  3  1  0  0  0  0
  1 31  1  0  0  0  0
  3  2  1  1  0  0  0
  4  3  1  0  0  0  0
  5  4  1  0  0  0  0
  6  4  1  0  0  0  0
  7 30  1  6  0  0  0
  7 13  1  0  0  0  0
  8 17  1  0  0  0  0
  8 28  1  1  0  0  0
  9 18  1  6  0  0  0
  9  8  1  0  0  0  0
  9 15  1  0  0  0  0
 10 24  1  0  0  0  0
 11 10  2  0  0  0  0
 12 11  2  0  0  0  0
 14 18  1  0  0  0  0
 14 19  1  0  0  0  0
 15 13  1  6  0  0  0
 15 16  1  0  0  0  0
 16  4  1  6  0  0  0
 16 10  1  0  0  0  0
 17 12  1  0  0  0  0
 19  7  1  0  0  0  0
 20 25  1  0  0  0  0
 21 26  2  0  0  0  0
 22 23  1  0  0  0  0
 24 21  1  0  0  0  0
 24 20  2  0  0  0  0
 25 22  2  0  0  0  0
 26 22  1  0  0  0  0
 27 28  1  0  0  0  0
 30 29  2  0  0  0  0
 32 34  1  0  0  0  0
 33 31  1  1  0  0  0
 33 36  1  0  0  0  0
 34 35  1  6  0  0  0
 34 39  1  0  0  0  0
 36 39  1  0  0  0  0
 37 57  1  1  0  0  0
 37 33  1  0  0  0  0
 38 37  1  0  0  0  0
 38 32  2  0  0  0  0
 39 52  1  1  0  0  0
 40 41  2  0  0  0  0
 40 32  1  0  0  0  0
 42 41  1  0  0  0  0
 43 42  1  0  0  0  0
 45 43  1  0  0  0  0
 45 44  1  1  0  0  0
 47 46  1  1  0  0  0
 47 49  1  0  0  0  0
 47 45  1  0  0  0  0
 49 48  1  6  0  0  0
 49 51  1  0  0  0  0
 50 51  1  0  0  0  0
 52 53  1  0  0  0  0
 53 54  1  0  0  0  0
 54 55  1  0  0  0  0
 56 54  2  0  0  0  0
 58 60  1  0  0  0  0
 59 58  1  0  0  0  0
 59 60  2  0  0  0  0
 60 57  1  0  0  0  0
M  END
>  <MODEL>
4

>  <REMARK>
 VINA RESULT:      -4.1      3.894     10.611
  Name = 
  20 active torsions:
  status: ('A' for Active; 'I' for Inactive)
    1  A    between atoms: C_2  and  C_54
    2  A    between atoms: C_3  and  C_11
    3  A    between atoms: C_4  and  C_17
    4  A    between atoms: C_7  and  C_32
    5  A    between atoms: N_12  and  C_39
    6  A    between atoms: N_12  and  C_56
    7  A    between atoms: C_14  and  C_43
    8  A    between atoms: C_16  and  C_19
    9  A    between atoms: C_16  and  C_44
   10  A    between atoms: C_19  and  C_20
   11  A    between atoms: C_20  and  C_43
   12  A    between atoms: O_22  and  C_40
   13  A    between atoms: O_22  and  C_59
   14  A    between atoms: C_34  and  C_51
   15  A    between atoms: C_34  and  C_53
   16  A    between atoms: O_36  and  C_45
   17  A    between atoms: C_39  and  C_47
   18  A    between atoms: C_40  and  C_42
   19  A    between atoms: C_45  and  C_46
   20  A    between atoms: C_46  and  C_56
                            x       y       z     vdW  Elec       q    Type
                         _______ _______ _______ _____ _____    ______ ____

>  <TORSDO>
F 20

$$$$
=
 OpenBabel11062414173D

 60 64  0  0  1  0  0  0  0  0999 V2000
  186.1350  177.0300  135.6990 C   0  0  0  0  0  2  0  0  0  0  0  0
  186.0940  176.0930  138.0390 C   0  0  0  0  0  1  0  0  0  0  0  0
  186.5550  177.2520  137.1600 C   0  0  1  0  0  3  0  0  0  0  0  0
  188.0390  177.6670  137.3750 C   0  0  0  0  0  0  0  0  0  0  0  0
  188.1070  178.9380  138.2140 C   0  0  0  0  0  1  0  0  0  0  0  0
  188.6930  178.0160  136.0390 C   0  0  0  0  0  1  0  0  0  0  0  0
  188.7440  173.0640  136.4620 C   0  0  2  0  0  3  0  0  0  0  0  0
  191.9030  175.3270  136.6570 C   0  0  1  0  0  3  0  0  0  0  0  0
  190.4580  175.6890  136.2430 C   0  0  2  0  0  3  0  0  0  0  0  0
  189.8800  177.0560  139.1300 C   0  0  0  0  0  0  0  0  0  0  0  0
  191.1170  177.1990  138.7330 C   0  0  0  0  0  0  0  0  0  0  0  0
  192.3070  177.2660  138.2120 C   0  0  0  0  0  3  0  0  0  0  0  0
  188.2290  174.4380  136.8530 C   0  0  0  0  0  2  0  0  0  0  0  0
  190.2920  173.7580  134.6030 C   0  0  0  0  0  2  0  0  0  0  0  0
  189.3680  175.3520  137.3010 C   0  0  2  0  0  3  0  0  0  0  0  0
  188.8650  176.5710  138.1180 C   0  0  2  0  0  3  0  0  0  0  0  0
  192.6620  176.4530  137.1250 O   0  0  0  0  0  0  0  0  0  0  0  0
  190.1530  175.2630  134.8050 C   0  0  0  0  0  2  0  0  0  0  0  0
  189.0100  173.0240  134.9660 C   0  0  0  0  0  2  0  0  0  0  0  0
  188.2570  177.7010  140.9390 C   0  0  0  0  0  3  0  0  0  0  0  0
  190.4300  176.8400  141.5600 C   0  0  0  0  0  3  0  0  0  0  0  0
  188.8440  177.4740  143.2750 C   0  0  0  0  0  0  0  0  0  0  0  0
  188.4940  177.6270  144.7120 C   0  0  0  0  0  1  0  0  0  0  0  0
  189.5150  177.2000  140.5600 C   0  0  0  0  0  0  0  0  0  0  0  0
  187.9240  177.8380  142.2900 C   0  0  0  0  0  3  0  0  0  0  0  0
  190.0970  176.9730  142.9110 C   0  0  0  0  0  3  0  0  0  0  0  0
  193.2720  173.3570  137.3530 C   0  0  0  0  0  1  0  0  0  0  0  0
  192.0010  174.1400  137.6140 C   0  0  0  0  0  2  0  0  0  0  0  0
  186.5460  172.2160  136.5060 O   0  0  0  0  0  0  0  0  0  0  0  0
  187.7140  172.0440  136.8110 C   0  0  0  0  0  3  0  0  0  0  0  0
  185.2750  175.7850  135.5150 C   0  0  0  0  0  2  0  0  0  0  0  0
  180.9680  175.7240  137.1830 C   0  0  0  0  0  0  0  0  0  0  0  0
  183.8640  176.0380  136.0180 C   0  0  1  0  0  3  0  0  0  0  0  0
  180.7300  176.4440  135.8800 C   0  0  2  0  0  3  0  0  0  0  0  0
  180.4630  175.5480  134.8410 O   0  0  0  0  0  1  0  0  0  0  0  0
  183.0680  176.7540  134.9360 C   0  0  0  0  0  2  0  0  0  0  0  0
  183.2010  174.7350  136.4840 C   0  0  1  0  0  3  0  0  0  0  0  0
  182.0550  174.9810  137.4270 C   0  0  0  0  0  3  0  0  0  0  0  0
  181.8340  177.4390  135.5190 C   0  0  1  0  0  3  0  0  0  0  0  0
  179.9630  175.7970  138.2490 C   0  0  0  0  0  3  0  0  0  0  0  0
  180.2060  176.3590  139.4260 C   0  0  0  0  0  3  0  0  0  0  0  0
  179.1270  176.4190  140.4530 C   0  0  0  0  0  2  0  0  0  0  0  0
  179.0230  177.7640  141.0050 N   0  0  0  0  0  2  0  0  0  0  0  0
  180.8800  178.0550  142.5350 C   0  0  0  0  0  1  0  0  0  0  0  0
  180.3670  178.3160  141.1350 C   0  0  2  0  0  3  0  0  0  0  0  0
  179.2280  180.4470  141.3390 O   0  0  0  0  0  1  0  0  0  0  0  0
  180.3830  179.8180  140.8580 C   0  0  2  0  0  3  0  0  0  0  0  0
  181.7510  179.4610  138.9340 O   0  0  0  0  0  1  0  0  0  0  0  0
  180.6070  180.1260  139.3800 C   0  0  2  0  0  3  0  0  0  0  0  0
  181.9250  181.6260  138.4250 C   0  0  0  0  0  1  0  0  0  0  0  0
  180.7480  181.4990  139.1680 O   0  0  0  0  0  0  0  0  0  0  0  0
  181.3410  178.3670  134.5970 O   0  0  0  0  0  0  0  0  0  0  0  0
  181.4600  179.6070  135.2310 C   0  0  0  0  0  2  0  0  0  0  0  0
  180.1200  180.2620  135.3170 C   0  0  0  0  0  0  0  0  0  0  0  0
  179.8820  181.4750  134.6770 O   0  0  0  0  0  0  0  0  0  0  0  0
  179.1940  179.6950  135.9510 O   0  0  0  0  0  1  0  0  0  0  0  0
  182.8440  173.7850  135.3400 C   0  0  0  0  0  2  0  0  0  0  0  0
  182.9380  171.3630  136.6380 O   0  0  0  0  0  0  0  0  0  0  0  0
  183.5630  171.1610  135.4510 N   0  0  0  0  0  0  0  0  0  0  0  0
  183.0680  172.3640  135.7300 C   0  0  0  0  0  0  0  0  0  0  0  0
  1  3  1  0  0  0  0
  3  4  1  0  0  0  0
  3  2  1  1  0  0  0
  4  5  1  0  0  0  0
  6  4  1  0  0  0  0
  7 30  1  6  0  0  0
  7 13  1  0  0  0  0
  8 17  1  0  0  0  0
  8 28  1  1  0  0  0
  9 18  1  6  0  0  0
  9  8  1  0  0  0  0
  9 15  1  0  0  0  0
 10 24  1  0  0  0  0
 11 10  2  0  0  0  0
 12 11  2  0  0  0  0
 14 18  1  0  0  0  0
 14 19  1  0  0  0  0
 15 13  1  6  0  0  0
 15 16  1  0  0  0  0
 16  4  1  6  0  0  0
 16 10  1  0  0  0  0
 17 12  1  0  0  0  0
 19  7  1  0  0  0  0
 20 25  1  0  0  0  0
 21 26  2  0  0  0  0
 22 23  1  0  0  0  0
 24 20  2  0  0  0  0
 24 21  1  0  0  0  0
 25 22  2  0  0  0  0
 26 22  1  0  0  0  0
 27 28  1  0  0  0  0
 29 30  2  0  0  0  0
 31  1  1  0  0  0  0
 32 38  2  0  0  0  0
 32 40  1  0  0  0  0
 33 31  1  6  0  0  0
 33 37  1  0  0  0  0
 34 35  1  6  0  0  0
 34 32  1  0  0  0  0
 36 39  1  0  0  0  0
 36 33  1  0  0  0  0
 37 57  1  6  0  0  0
 37 38  1  0  0  0  0
 39 52  1  6  0  0  0
 39 34  1  0  0  0  0
 40 41  2  0  0  0  0
 41 42  1  0  0  0  0
 42 43  1  0  0  0  0
 43 45  1  0  0  0  0
 45 44  1  1  0  0  0
 47 45  1  0  0  0  0
 47 46  1  6  0  0  0
 49 48  1  1  0  0  0
 49 47  1  0  0  0  0
 50 51  1  0  0  0  0
 51 49  1  0  0  0  0
 52 53  1  0  0  0  0
 53 54  1  0  0  0  0
 54 56  1  0  0  0  0
 55 54  2  0  0  0  0
 57 60  1  0  0  0  0
 59 60  2  0  0  0  0
 59 58  1  0  0  0  0
 60 58  1  0  0  0  0
M  END
>  <MODEL>
5

>  <REMARK>
 VINA RESULT:      -3.7      3.299     11.116
  Name = 
  20 active torsions:
  status: ('A' for Active; 'I' for Inactive)
    1  A    between atoms: C_2  and  C_54
    2  A    between atoms: C_3  and  C_11
    3  A    between atoms: C_4  and  C_17
    4  A    between atoms: C_7  and  C_32
    5  A    between atoms: N_12  and  C_39
    6  A    between atoms: N_12  and  C_56
    7  A    between atoms: C_14  and  C_43
    8  A    between atoms: C_16  and  C_19
    9  A    between atoms: C_16  and  C_44
   10  A    between atoms: C_19  and  C_20
   11  A    between atoms: C_20  and  C_43
   12  A    between atoms: O_22  and  C_40
   13  A    between atoms: O_22  and  C_59
   14  A    between atoms: C_34  and  C_51
   15  A    between atoms: C_34  and  C_53
   16  A    between atoms: O_36  and  C_45
   17  A    between atoms: C_39  and  C_47
   18  A    between atoms: C_40  and  C_42
   19  A    between atoms: C_45  and  C_46
   20  A    between atoms: C_46  and  C_56
                            x       y       z     vdW  Elec       q    Type
                         _______ _______ _______ _____ _____    ______ ____

>  <TORSDO>
F 20

$$$$
=
 OpenBabel11062414173D

 60 64  0  0  1  0  0  0  0  0999 V2000
  185.1990  178.5230  140.2890 C   0  0  0  0  0  2  0  0  0  0  0  0
  185.0180  179.0560  137.8320 C   0  0  0  0  0  1  0  0  0  0  0  0
  184.2800  179.0290  139.1680 C   0  0  1  0  0  3  0  0  0  0  0  0
  182.8710  178.3700  139.1070 C   0  0  0  0  0  0  0  0  0  0  0  0
  181.8800  179.1880  139.9270 C   0  0  0  0  0  1  0  0  0  0  0  0
  182.9030  176.9870  139.7530 C   0  0  0  0  0  1  0  0  0  0  0  0
  184.0270  175.5990  135.4320 C   0  0  2  0  0  3  0  0  0  0  0  0
  180.3390  175.4470  136.6650 C   0  0  1  0  0  3  0  0  0  0  0  0
  181.6280  175.7680  137.4560 C   0  0  2  0  0  3  0  0  0  0  0  0
  180.9810  178.9480  137.3940 C   0  0  0  0  0  0  0  0  0  0  0  0
  179.9070  178.2070  137.4580 C   0  0  0  0  0  0  0  0  0  0  0  0
  178.9310  177.3480  137.5250 C   0  0  0  0  0  3  0  0  0  0  0  0
  183.9300  176.6390  136.5340 C   0  0  0  0  0  2  0  0  0  0  0  0
  182.8400  173.7090  136.5950 C   0  0  0  0  0  2  0  0  0  0  0  0
  182.4740  176.9420  136.8860 C   0  0  2  0  0  3  0  0  0  0  0  0
  182.3150  178.2820  137.6520 C   0  0  2  0  0  3  0  0  0  0  0  0
  179.1510  175.9880  137.2640 O   0  0  0  0  0  0  0  0  0  0  0  0
  182.4020  174.4990  137.8230 C   0  0  0  0  0  2  0  0  0  0  0  0
  184.1640  174.2150  136.0460 C   0  0  0  0  0  2  0  0  0  0  0  0
  181.0860  181.4260  137.8110 C   0  0  0  0  0  3  0  0  0  0  0  0
  180.6710  180.6260  135.5660 C   0  0  0  0  0  3  0  0  0  0  0  0
  180.7750  183.0040  136.0040 C   0  0  0  0  0  0  0  0  0  0  0  0
  180.6920  184.4070  135.5190 C   0  0  0  0  0  1  0  0  0  0  0  0
  180.9140  180.3510  136.9200 C   0  0  0  0  0  0  0  0  0  0  0  0
  181.0160  182.7450  137.3550 C   0  0  0  0  0  3  0  0  0  0  0  0
  180.6040  181.9450  135.1090 C   0  0  0  0  0  3  0  0  0  0  0  0
  179.0650  176.2060  134.6540 C   0  0  0  0  0  1  0  0  0  0  0  0
  180.4220  175.7760  135.1750 C   0  0  0  0  0  2  0  0  0  0  0  0
  186.0420  176.7230  134.9530 O   0  0  0  0  0  0  0  0  0  0  0  0
  185.2250  175.8920  134.5940 C   0  0  0  0  0  3  0  0  0  0  0  0
  185.9520  179.6490  140.9890 C   0  0  0  0  0  2  0  0  0  0  0  0
  187.6630  178.1570  145.0110 C   0  0  0  0  0  0  0  0  0  0  0  0
  186.2800  179.2570  142.4190 C   0  0  1  0  0  3  0  0  0  0  0  0
  186.3120  177.4880  145.0410 C   0  0  2  0  0  3  0  0  0  0  0  0
  186.3470  176.2330  144.4290 O   0  0  0  0  0  1  0  0  0  0  0  0
  185.1510  178.4000  142.9750 C   0  0  0  0  0  2  0  0  0  0  0  0
  187.6490  178.5690  142.5050 C   0  0  1  0  0  3  0  0  0  0  0  0
  188.2300  178.6220  143.8910 C   0  0  0  0  0  3  0  0  0  0  0  0
  185.1820  178.3660  144.5010 C   0  0  1  0  0  3  0  0  0  0  0  0
  188.4350  178.2940  146.2510 C   0  0  0  0  0  3  0  0  0  0  0  0
  189.1110  177.2860  146.7900 C   0  0  0  0  0  3  0  0  0  0  0  0
  189.8950  177.5070  148.0380 C   0  0  0  0  0  2  0  0  0  0  0  0
  191.3140  177.2850  147.7940 N   0  0  0  0  0  2  0  0  0  0  0  0
  192.3970  175.2000  147.1960 C   0  0  0  0  0  1  0  0  0  0  0  0
  191.4520  176.2910  146.7360 C   0  0  2  0  0  3  0  0  0  0  0  0
  192.0480  178.3120  145.5360 O   0  0  0  0  0  1  0  0  0  0  0  0
  191.9850  176.9160  145.4470 C   0  0  2  0  0  3  0  0  0  0  0  0
  191.7930  175.3530  143.6530 O   0  0  0  0  0  1  0  0  0  0  0  0
  191.1870  176.4740  144.2240 C   0  0  2  0  0  3  0  0  0  0  0  0
  192.0050  177.1270  142.2740 C   0  0  0  0  0  1  0  0  0  0  0  0
  191.1080  177.4980  143.2790 O   0  0  0  0  0  0  0  0  0  0  0  0
  183.9560  177.8920  144.9780 O   0  0  0  0  0  0  0  0  0  0  0  0
  183.1100  179.0050  144.9720 C   0  0  0  0  0  2  0  0  0  0  0  0
  181.8850  178.7040  144.1720 C   0  0  0  0  0  0  0  0  0  0  0  0
  180.9160  177.8320  144.6590 O   0  0  0  0  0  1  0  0  0  0  0  0
  181.7190  179.2690  143.0600 O   0  0  0  0  0  0  0  0  0  0  0  0
  187.6690  177.1660  141.8970 C   0  0  0  0  0  2  0  0  0  0  0  0
  189.7160  176.5330  140.1730 O   0  0  0  0  0  0  0  0  0  0  0  0
  189.0290  177.5330  139.5670 N   0  0  0  0  0  0  0  0  0  0  0  0
  188.6210  177.0890  140.7530 C   0  0  0  0  0  0  0  0  0  0  0  0
  1 31  1  0  0  0  0
  3  2  1  6  0  0  0
  3  1  1  0  0  0  0
  4  3  1  0  0  0  0
  4  6  1  0  0  0  0
  4  5  1  0  0  0  0
  7 30  1  6  0  0  0
  7 19  1  0  0  0  0
  7 13  1  0  0  0  0
  8 28  1  6  0  0  0
  8 17  1  0  0  0  0
  8  9  1  0  0  0  0
  9 18  1  6  0  0  0
 10 11  2  0  0  0  0
 10 16  1  0  0  0  0
 11 12  2  0  0  0  0
 14 18  1  0  0  0  0
 15 13  1  1  0  0  0
 15  9  1  0  0  0  0
 15 16  1  0  0  0  0
 16  4  1  1  0  0  0
 17 12  1  0  0  0  0
 19 14  1  0  0  0  0
 21 24  1  0  0  0  0
 22 25  2  0  0  0  0
 23 22  1  0  0  0  0
 24 10  1  0  0  0  0
 24 20  2  0  0  0  0
 25 20  1  0  0  0  0
 26 21  2  0  0  0  0
 26 22  1  0  0  0  0
 27 28  1  0  0  0  0
 30 29  2  0  0  0  0
 32 34  1  0  0  0  0
 32 40  1  0  0  0  0
 33 31  1  6  0  0  0
 33 37  1  0  0  0  0
 33 36  1  0  0  0  0
 34 35  1  6  0  0  0
 36 39  1  0  0  0  0
 37 57  1  1  0  0  0
 37 38  1  0  0  0  0
 38 32  2  0  0  0  0
 39 52  1  6  0  0  0
 39 34  1  0  0  0  0
 40 41  2  0  0  0  0
 41 42  1  0  0  0  0
 43 42  1  0  0  0  0
 45 44  1  1  0  0  0
 45 43  1  0  0  0  0
 47 46  1  1  0  0  0
 47 45  1  0  0  0  0
 49 48  1  6  0  0  0
 49 47  1  0  0  0  0
 50 51  1  0  0  0  0
 51 49  1  0  0  0  0
 53 52  1  0  0  0  0
 54 55  1  0  0  0  0
 54 53  1  0  0  0  0
 56 54  2  0  0  0  0
 58 60  1  0  0  0  0
 59 58  1  0  0  0  0
 59 60  2  0  0  0  0
 60 57  1  0  0  0  0
M  END
>  <MODEL>
6

>  <REMARK>
 VINA RESULT:      -3.2      4.119      7.757
  Name = 
  20 active torsions:
  status: ('A' for Active; 'I' for Inactive)
    1  A    between atoms: C_2  and  C_54
    2  A    between atoms: C_3  and  C_11
    3  A    between atoms: C_4  and  C_17
    4  A    between atoms: C_7  and  C_32
    5  A    between atoms: N_12  and  C_39
    6  A    between atoms: N_12  and  C_56
    7  A    between atoms: C_14  and  C_43
    8  A    between atoms: C_16  and  C_19
    9  A    between atoms: C_16  and  C_44
   10  A    between atoms: C_19  and  C_20
   11  A    between atoms: C_20  and  C_43
   12  A    between atoms: O_22  and  C_40
   13  A    between atoms: O_22  and  C_59
   14  A    between atoms: C_34  and  C_51
   15  A    between atoms: C_34  and  C_53
   16  A    between atoms: O_36  and  C_45
   17  A    between atoms: C_39  and  C_47
   18  A    between atoms: C_40  and  C_42
   19  A    between atoms: C_45  and  C_46
   20  A    between atoms: C_46  and  C_56
                            x       y       z     vdW  Elec       q    Type
                         _______ _______ _______ _____ _____    ______ ____

>  <TORSDO>
F 20

$$$$
=
 OpenBabel11062414173D

 60 64  0  0  1  0  0  0  0  0999 V2000
  184.8430  179.0790  140.9680 C   0  0  0  0  0  2  0  0  0  0  0  0
  183.2850  177.1280  140.6160 C   0  0  0  0  0  1  0  0  0  0  0  0
  184.2860  178.0700  139.9530 C   0  0  1  0  0  3  0  0  0  0  0  0
  183.7970  178.6760  138.6050 C   0  0  0  0  0  0  0  0  0  0  0  0
  184.7580  178.2930  137.4850 C   0  0  0  0  0  1  0  0  0  0  0  0
  183.8220  180.2020  138.6690 C   0  0  0  0  0  1  0  0  0  0  0  0
  179.4610  179.7880  140.1800 C   0  0  2  0  0  3  0  0  0  0  0  0
  180.1550  180.3350  136.3900 C   0  0  1  0  0  3  0  0  0  0  0  0
  181.1340  180.3830  137.5870 C   0  0  2  0  0  3  0  0  0  0  0  0
  182.2740  177.4260  136.8860 C   0  0  0  0  0  0  0  0  0  0  0  0
  181.9310  178.1080  135.8250 C   0  0  0  0  0  0  0  0  0  0  0  0
  181.5530  178.9010  134.8650 C   0  0  0  0  0  3  0  0  0  0  0  0
  180.8690  179.2680  139.9520 C   0  0  0  0  0  2  0  0  0  0  0  0
  179.6540  181.9580  138.9190 C   0  0  0  0  0  2  0  0  0  0  0  0
  181.1650  179.0970  138.4620 C   0  0  2  0  0  3  0  0  0  0  0  0
  182.3790  178.1690  138.2000 C   0  0  2  0  0  3  0  0  0  0  0  0
  180.7980  180.0510  135.1380 O   0  0  0  0  0  0  0  0  0  0  0  0
  181.0440  181.7100  138.3440 C   0  0  0  0  0  2  0  0  0  0  0  0
  179.4860  181.3050  140.2820 C   0  0  0  0  0  2  0  0  0  0  0  0
  183.3190  175.2700  137.6490 C   0  0  0  0  0  3  0  0  0  0  0  0
  181.5740  175.2040  135.9740 C   0  0  0  0  0  3  0  0  0  0  0  0
  182.6060  173.1490  136.7300 C   0  0  0  0  0  0  0  0  0  0  0  0
  182.7240  171.6680  136.6640 C   0  0  0  0  0  1  0  0  0  0  0  0
  182.3910  175.9490  136.8390 C   0  0  0  0  0  0  0  0  0  0  0  0
  183.4250  173.8770  137.5940 C   0  0  0  0  0  3  0  0  0  0  0  0
  181.6790  173.8120  135.9210 C   0  0  0  0  0  3  0  0  0  0  0  0
  179.0060  178.2190  135.7290 C   0  0  0  0  0  1  0  0  0  0  0  0
  178.9350  179.4450  136.6170 C   0  0  0  0  0  2  0  0  0  0  0  0
  179.5460  178.3340  142.0320 O   0  0  0  0  0  0  0  0  0  0  0  0
  178.9330  179.2130  141.4500 C   0  0  0  0  0  3  0  0  0  0  0  0
  186.3100  179.4130  140.7240 C   0  0  0  0  0  2  0  0  0  0  0  0
  189.4880  177.5150  143.4880 C   0  0  0  0  0  0  0  0  0  0  0  0
  187.1740  178.8420  141.8350 C   0  0  1  0  0  3  0  0  0  0  0  0
  188.2830  176.6980  143.8800 C   0  0  2  0  0  3  0  0  0  0  0  0
  188.1450  175.5670  143.0710 O   0  0  0  0  0  1  0  0  0  0  0  0
  186.3830  177.7830  142.5910 C   0  0  0  0  0  2  0  0  0  0  0  0
  188.5050  178.3120  141.2850 C   0  0  1  0  0  3  0  0  0  0  0  0
  189.5650  178.2130  142.3480 C   0  0  0  0  0  3  0  0  0  0  0  0
  186.9900  177.5130  143.9650 C   0  0  1  0  0  3  0  0  0  0  0  0
  190.6640  177.5440  144.3640 C   0  0  0  0  0  3  0  0  0  0  0  0
  191.1810  176.4490  144.9070 C   0  0  0  0  0  3  0  0  0  0  0  0
  192.3930  176.5530  145.7670 C   0  0  0  0  0  2  0  0  0  0  0  0
  192.4350  175.4540  146.7230 N   0  0  0  0  0  2  0  0  0  0  0  0
  190.3010  174.9720  147.7660 C   0  0  0  0  0  1  0  0  0  0  0  0
  191.5740  175.7880  147.8510 C   0  0  2  0  0  3  0  0  0  0  0  0
  191.8750  177.9490  148.9100 O   0  0  0  0  0  1  0  0  0  0  0  0
  191.2250  177.2750  147.8680 C   0  0  2  0  0  3  0  0  0  0  0  0
  189.3360  178.2820  146.8130 O   0  0  0  0  0  1  0  0  0  0  0  0
  189.7190  177.5100  147.9120 C   0  0  2  0  0  3  0  0  0  0  0  0
  187.9530  178.0340  149.1380 C   0  0  0  0  0  1  0  0  0  0  0  0
  189.3440  178.1540  149.0920 O   0  0  0  0  0  0  0  0  0  0  0  0
  186.0610  176.8300  144.7560 O   0  0  0  0  0  0  0  0  0  0  0  0
  186.1570  177.4230  146.0190 C   0  0  0  0  0  2  0  0  0  0  0  0
  185.3390  178.6720  146.0540 C   0  0  0  0  0  0  0  0  0  0  0  0
  183.9490  178.6110  146.0140 O   0  0  0  0  0  0  0  0  0  0  0  0
  185.9160  179.7860  146.1480 O   0  0  0  0  0  1  0  0  0  0  0  0
  188.3620  177.0340  140.4580 C   0  0  0  0  0  2  0  0  0  0  0  0
  190.3470  177.2790  138.5700 O   0  0  0  0  0  0  0  0  0  0  0  0
  190.5550  176.0750  139.1590 N   0  0  0  0  0  0  0  0  0  0  0  0
  189.5410  176.8340  139.5690 C   0  0  0  0  0  0  0  0  0  0  0  0
  3  2  1  1  0  0  0
  3  1  1  0  0  0  0
  4  6  1  0  0  0  0
  4  3  1  0  0  0  0
  5  4  1  0  0  0  0
  7 19  1  0  0  0  0
  7 30  1  1  0  0  0
  8 28  1  1  0  0  0
  8  9  1  0  0  0  0
  9 18  1  1  0  0  0
  9 15  1  0  0  0  0
 10 16  1  0  0  0  0
 11 10  2  0  0  0  0
 12 17  1  0  0  0  0
 12 11  2  0  0  0  0
 13  7  1  0  0  0  0
 14 19  1  0  0  0  0
 15 13  1  1  0  0  0
 16 15  1  0  0  0  0
 16  4  1  6  0  0  0
 17  8  1  0  0  0  0
 18 14  1  0  0  0  0
 21 24  1  0  0  0  0
 22 25  2  0  0  0  0
 23 22  1  0  0  0  0
 24 10  1  0  0  0  0
 24 20  2  0  0  0  0
 25 20  1  0  0  0  0
 26 21  2  0  0  0  0
 26 22  1  0  0  0  0
 27 28  1  0  0  0  0
 30 29  2  0  0  0  0
 31  1  1  0  0  0  0
 32 34  1  0  0  0  0
 32 40  1  0  0  0  0
 33 31  1  6  0  0  0
 33 36  1  0  0  0  0
 34 35  1  6  0  0  0
 34 39  1  0  0  0  0
 36 39  1  0  0  0  0
 37 57  1  1  0  0  0
 37 33  1  0  0  0  0
 37 38  1  0  0  0  0
 38 32  2  0  0  0  0
 39 52  1  1  0  0  0
 40 41  2  0  0  0  0
 41 42  1  0  0  0  0
 42 43  1  0  0  0  0
 43 45  1  0  0  0  0
 45 44  1  6  0  0  0
 45 47  1  0  0  0  0
 47 49  1  0  0  0  0
 47 46  1  1  0  0  0
 49 48  1  6  0  0  0
 49 51  1  0  0  0  0
 51 50  1  0  0  0  0
 52 53  1  0  0  0  0
 53 54  1  0  0  0  0
 54 56  1  0  0  0  0
 55 54  2  0  0  0  0
 58 59  1  0  0  0  0
 58 60  1  0  0  0  0
 59 60  2  0  0  0  0
 60 57  1  0  0  0  0
M  END
>  <MODEL>
7

>  <REMARK>
 VINA RESULT:      -3.0      4.122      7.020
  Name = 
  20 active torsions:
  status: ('A' for Active; 'I' for Inactive)
    1  A    between atoms: C_2  and  C_54
    2  A    between atoms: C_3  and  C_11
    3  A    between atoms: C_4  and  C_17
    4  A    between atoms: C_7  and  C_32
    5  A    between atoms: N_12  and  C_39
    6  A    between atoms: N_12  and  C_56
    7  A    between atoms: C_14  and  C_43
    8  A    between atoms: C_16  and  C_19
    9  A    between atoms: C_16  and  C_44
   10  A    between atoms: C_19  and  C_20
   11  A    between atoms: C_20  and  C_43
   12  A    between atoms: O_22  and  C_40
   13  A    between atoms: O_22  and  C_59
   14  A    between atoms: C_34  and  C_51
   15  A    between atoms: C_34  and  C_53
   16  A    between atoms: O_36  and  C_45
   17  A    between atoms: C_39  and  C_47
   18  A    between atoms: C_40  and  C_42
   19  A    between atoms: C_45  and  C_46
   20  A    between atoms: C_46  and  C_56
                            x       y       z     vdW  Elec       q    Type
                         _______ _______ _______ _____ _____    ______ ____

>  <TORSDO>
F 20

$$$$
=
 OpenBabel11062414173D

 60 64  0  0  1  0  0  0  0  0999 V2000
  186.2050  178.1950  137.7520 C   0  0  0  0  0  2  0  0  0  0  0  0
  186.2780  175.7000  137.3980 C   0  0  0  0  0  1  0  0  0  0  0  0
  185.9800  177.0500  136.7530 C   0  0  1  0  0  3  0  0  0  0  0  0
  184.6370  177.1010  135.9670 C   0  0  0  0  0  0  0  0  0  0  0  0
  184.7650  176.3130  134.6690 C   0  0  0  0  0  1  0  0  0  0  0  0
  184.3170  178.5360  135.5530 C   0  0  0  0  0  1  0  0  0  0  0  0
  182.4790  178.4590  139.9700 C   0  0  2  0  0  3  0  0  0  0  0  0
  180.2590  178.1400  136.7900 C   0  0  1  0  0  3  0  0  0  0  0  0
  181.7640  178.4780  136.9090 C   0  0  2  0  0  3  0  0  0  0  0  0
  182.6000  175.4620  136.0520 C   0  0  0  0  0  0  0  0  0  0  0  0
  181.5090  175.8770  135.4670 C   0  0  0  0  0  0  0  0  0  0  0  0
  180.4420  176.4230  134.9580 C   0  0  0  0  0  3  0  0  0  0  0  0
  183.4030  177.9280  138.8880 C   0  0  0  0  0  2  0  0  0  0  0  0
  181.3650  180.2870  138.6470 C   0  0  0  0  0  2  0  0  0  0  0  0
  182.6140  177.4270  137.6790 C   0  0  2  0  0  3  0  0  0  0  0  0
  183.4500  176.4870  136.7720 C   0  0  2  0  0  3  0  0  0  0  0  0
  179.8970  177.5900  135.5130 O   0  0  0  0  0  0  0  0  0  0  0  0
  181.9890  179.9420  137.2990 C   0  0  0  0  0  2  0  0  0  0  0  0
  182.3010  179.9590  139.7990 C   0  0  0  0  0  2  0  0  0  0  0  0
  183.7210  173.3790  135.1970 C   0  0  0  0  0  3  0  0  0  0  0  0
  182.3890  173.2570  137.2130 C   0  0  0  0  0  3  0  0  0  0  0  0
  183.4790  171.2710  136.3590 C   0  0  0  0  0  0  0  0  0  0  0  0
  183.7710  169.8170  136.4640 C   0  0  0  0  0  1  0  0  0  0  0  0
  182.9100  174.0150  136.1540 C   0  0  0  0  0  0  0  0  0  0  0  0
  184.0020  172.0140  135.2990 C   0  0  0  0  0  3  0  0  0  0  0  0
  182.6720  171.8920  137.3170 C   0  0  0  0  0  3  0  0  0  0  0  0
  178.9610  178.1800  138.9230 C   0  0  0  0  0  1  0  0  0  0  0  0
  179.7140  177.3010  137.9440 C   0  0  0  0  0  2  0  0  0  0  0  0
  182.3830  178.1010  142.2970 O   0  0  0  0  0  0  0  0  0  0  0  0
  183.0850  178.1780  141.3030 C   0  0  0  0  0  3  0  0  0  0  0  0
  187.6630  178.6320  137.8300 C   0  0  0  0  0  2  0  0  0  0  0  0
  189.8470  177.7520  141.8040 C   0  0  0  0  0  0  0  0  0  0  0  0
  188.1810  178.4950  139.2510 C   0  0  1  0  0  3  0  0  0  0  0  0
  188.4540  177.3080  142.1710 C   0  0  2  0  0  3  0  0  0  0  0  0
  188.2440  175.9640  141.8550 O   0  0  0  0  0  1  0  0  0  0  0  0
  187.0720  177.9430  140.1370 C   0  0  0  0  0  2  0  0  0  0  0  0
  189.4580  177.6450  139.2960 C   0  0  1  0  0  3  0  0  0  0  0  0
  190.2670  177.8920  140.5400 C   0  0  0  0  0  3  0  0  0  0  0  0
  187.3550  178.2140  141.6120 C   0  0  1  0  0  3  0  0  0  0  0  0
  190.8270  178.0230  142.8610 C   0  0  0  0  0  3  0  0  0  0  0  0
  190.4920  178.1220  144.1410 C   0  0  0  0  0  3  0  0  0  0  0  0
  191.5470  178.3740  145.1630 C   0  0  0  0  0  2  0  0  0  0  0  0
  191.8540  177.1490  145.8900 N   0  0  0  0  0  2  0  0  0  0  0  0
  192.2040  176.3840  148.1640 C   0  0  0  0  0  1  0  0  0  0  0  0
  191.3990  177.3010  147.2670 C   0  0  2  0  0  3  0  0  0  0  0  0
  189.4200  176.3120  146.2730 O   0  0  0  0  0  1  0  0  0  0  0  0
  189.9130  176.9720  147.4060 C   0  0  2  0  0  3  0  0  0  0  0  0
  188.7020  178.1730  149.0770 O   0  0  0  0  0  1  0  0  0  0  0  0
  189.0800  178.2080  147.7320 C   0  0  2  0  0  3  0  0  0  0  0  0
  186.9730  178.8850  147.7270 C   0  0  0  0  0  1  0  0  0  0  0  0
  187.9430  178.2760  146.9260 O   0  0  0  0  0  0  0  0  0  0  0  0
  186.1820  178.0320  142.3500 O   0  0  0  0  0  0  0  0  0  0  0  0
  186.4640  178.5550  143.6150 C   0  0  0  0  0  2  0  0  0  0  0  0
  185.1900  178.8610  144.3320 C   0  0  0  0  0  0  0  0  0  0  0  0
  184.6620  177.9610  145.2540 O   0  0  0  0  0  1  0  0  0  0  0  0
  184.6070  179.9540  144.1180 O   0  0  0  0  0  0  0  0  0  0  0  0
  189.2170  176.1600  139.0200 C   0  0  0  0  0  2  0  0  0  0  0  0
  191.4200  175.7490  137.4250 O   0  0  0  0  0  0  0  0  0  0  0  0
  190.9340  174.5110  137.6970 N   0  0  0  0  0  0  0  0  0  0  0  0
  190.3220  175.5780  138.2070 C   0  0  0  0  0  0  0  0  0  0  0  0
  1 31  1  0  0  0  0
  3  2  1  1  0  0  0
  3  1  1  0  0  0  0
  4  3  1  0  0  0  0
  5  4  1  0  0  0  0
  6  4  1  0  0  0  0
  7 30  1  1  0  0  0
  8  9  1  0  0  0  0
  8 28  1  1  0  0  0
  9 18  1  1  0  0  0
  9 15  1  0  0  0  0
 10 24  1  0  0  0  0
 10 16  1  0  0  0  0
 11 10  2  0  0  0  0
 12 11  2  0  0  0  0
 12 17  1  0  0  0  0
 13  7  1  0  0  0  0
 14 19  1  0  0  0  0
 15 13  1  1  0  0  0
 16  4  1  6  0  0  0
 16 15  1  0  0  0  0
 17  8  1  0  0  0  0
 18 14  1  0  0  0  0
 19  7  1  0  0  0  0
 20 25  2  0  0  0  0
 20 24  1  0  0  0  0
 21 26  1  0  0  0  0
 22 23  1  0  0  0  0
 22 26  2  0  0  0  0
 24 21  2  0  0  0  0
 25 22  1  0  0  0  0
 28 27  1  0  0  0  0
 30 29  2  0  0  0  0
 32 34  1  0  0  0  0
 32 40  1  0  0  0  0
 33 31  1  6  0  0  0
 33 37  1  0  0  0  0
 33 36  1  0  0  0  0
 34 35  1  6  0  0  0
 36 39  1  0  0  0  0
 37 57  1  1  0  0  0
 37 38  1  0  0  0  0
 38 32  2  0  0  0  0
 39 34  1  0  0  0  0
 39 52  1  1  0  0  0
 40 41  2  0  0  0  0
 41 42  1  0  0  0  0
 42 43  1  0  0  0  0
 43 45  1  0  0  0  0
 45 47  1  0  0  0  0
 45 44  1  1  0  0  0
 47 46  1  6  0  0  0
 47 49  1  0  0  0  0
 49 48  1  1  0  0  0
 51 50  1  0  0  0  0
 51 49  1  0  0  0  0
 52 53  1  0  0  0  0
 53 54  1  0  0  0  0
 54 55  1  0  0  0  0
 56 54  2  0  0  0  0
 58 59  1  0  0  0  0
 58 60  1  0  0  0  0
 59 60  2  0  0  0  0
 60 57  1  0  0  0  0
M  END
>  <MODEL>
8

>  <REMARK>
 VINA RESULT:      -2.9      3.246      6.197
  Name = 
  20 active torsions:
  status: ('A' for Active; 'I' for Inactive)
    1  A    between atoms: C_2  and  C_54
    2  A    between atoms: C_3  and  C_11
    3  A    between atoms: C_4  and  C_17
    4  A    between atoms: C_7  and  C_32
    5  A    between atoms: N_12  and  C_39
    6  A    between atoms: N_12  and  C_56
    7  A    between atoms: C_14  and  C_43
    8  A    between atoms: C_16  and  C_19
    9  A    between atoms: C_16  and  C_44
   10  A    between atoms: C_19  and  C_20
   11  A    between atoms: C_20  and  C_43
   12  A    between atoms: O_22  and  C_40
   13  A    between atoms: O_22  and  C_59
   14  A    between atoms: C_34  and  C_51
   15  A    between atoms: C_34  and  C_53
   16  A    between atoms: O_36  and  C_45
   17  A    between atoms: C_39  and  C_47
   18  A    between atoms: C_40  and  C_42
   19  A    between atoms: C_45  and  C_46
   20  A    between atoms: C_46  and  C_56
                            x       y       z     vdW  Elec       q    Type
                         _______ _______ _______ _____ _____    ______ ____

>  <TORSDO>
F 20

$$$$
=
 OpenBabel11062414173D

 60 64  0  0  1  0  0  0  0  0999 V2000
  186.4820  178.0250  137.2430 C   0  0  0  0  0  2  0  0  0  0  0  0
  186.5930  176.7880  135.0490 C   0  0  0  0  0  1  0  0  0  0  0  0
  185.7960  177.7800  135.8900 C   0  0  1  0  0  3  0  0  0  0  0  0
  184.2700  177.4810  135.9580 C   0  0  0  0  0  0  0  0  0  0  0  0
  183.7750  176.9970  134.6000 C   0  0  0  0  0  1  0  0  0  0  0  0
  183.4900  178.7600  136.2520 C   0  0  0  0  0  1  0  0  0  0  0  0
  183.1260  177.7140  140.5580 C   0  0  2  0  0  3  0  0  0  0  0  0
  180.5460  176.0280  138.1810 C   0  0  1  0  0  3  0  0  0  0  0  0
  181.5820  177.1360  137.8810 C   0  0  2  0  0  3  0  0  0  0  0  0
  183.5760  175.0080  136.4560 C   0  0  0  0  0  0  0  0  0  0  0  0
  182.3130  174.7240  136.2820 C   0  0  0  0  0  0  0  0  0  0  0  0
  181.0250  174.5670  136.1880 C   0  0  0  0  0  3  0  0  0  0  0  0
  183.7900  177.6990  139.1920 C   0  0  0  0  0  2  0  0  0  0  0  0
  180.8560  178.5500  139.8620 C   0  0  0  0  0  2  0  0  0  0  0  0
  183.0540  176.7700  138.2270 C   0  0  2  0  0  3  0  0  0  0  0  0
  183.9230  176.3760  137.0040 C   0  0  2  0  0  3  0  0  0  0  0  0
  180.1510  175.2850  137.0180 O   0  0  0  0  0  0  0  0  0  0  0  0
  181.1010  178.5090  138.3580 C   0  0  0  0  0  2  0  0  0  0  0  0
  182.1310  178.8620  140.6300 C   0  0  0  0  0  2  0  0  0  0  0  0
  185.3440  173.4820  137.3900 C   0  0  0  0  0  3  0  0  0  0  0  0
  184.9150  173.4700  135.0080 C   0  0  0  0  0  3  0  0  0  0  0  0
  186.6120  172.0170  135.9410 C   0  0  0  0  0  0  0  0  0  0  0  0
  187.6690  170.9890  135.7550 C   0  0  0  0  0  1  0  0  0  0  0  0
  184.6240  173.9730  136.2860 C   0  0  0  0  0  0  0  0  0  0  0  0
  186.3330  172.5100  137.2170 C   0  0  0  0  0  3  0  0  0  0  0  0
  185.9020  172.4960  134.8360 C   0  0  0  0  0  3  0  0  0  0  0  0
  179.8230  175.0620  140.3690 C   0  0  0  0  0  1  0  0  0  0  0  0
  180.9330  175.1070  139.3380 C   0  0  0  0  0  2  0  0  0  0  0  0
  185.1730  178.5540  141.3660 O   0  0  0  0  0  0  0  0  0  0  0  0
  184.1730  177.8980  141.6020 C   0  0  0  0  0  3  0  0  0  0  0  0
  187.7740  178.8240  137.1120 C   0  0  0  0  0  2  0  0  0  0  0  0
  191.0250  176.7330  139.6420 C   0  0  0  0  0  0  0  0  0  0  0  0
  188.7990  178.3420  138.1240 C   0  0  1  0  0  3  0  0  0  0  0  0
  189.9230  176.8330  140.6670 C   0  0  2  0  0  3  0  0  0  0  0  0
  189.0790  175.7200  140.6220 O   0  0  0  0  0  1  0  0  0  0  0  0
  188.1240  178.1740  139.4790 C   0  0  0  0  0  2  0  0  0  0  0  0
  189.4930  177.0610  137.6420 C   0  0  1  0  0  3  0  0  0  0  0  0
  190.8150  176.8350  138.3230 C   0  0  0  0  0  3  0  0  0  0  0  0
  189.1490  178.1510  140.6090 C   0  0  1  0  0  3  0  0  0  0  0  0
  192.4030  176.4830  140.0760 C   0  0  0  0  0  3  0  0  0  0  0  0
  193.4590  176.8920  139.3830 C   0  0  0  0  0  3  0  0  0  0  0  0
  194.8300  176.6230  139.9000 C   0  0  0  0  0  2  0  0  0  0  0  0
  195.6640  176.0440  138.8550 N   0  0  0  0  0  2  0  0  0  0  0  0
  195.1860  173.6830  139.1270 C   0  0  0  0  0  1  0  0  0  0  0  0
  194.9550  174.9110  138.2710 C   0  0  2  0  0  3  0  0  0  0  0  0
  196.4470  175.5050  136.4540 O   0  0  0  0  0  1  0  0  0  0  0  0
  195.4230  174.6330  136.8440 C   0  0  2  0  0  3  0  0  0  0  0  0
  194.7010  174.1420  134.6220 O   0  0  0  0  0  1  0  0  0  0  0  0
  194.2680  174.6540  135.8470 C   0  0  2  0  0  3  0  0  0  0  0  0
  192.5810  175.7890  134.9740 C   0  0  0  0  0  1  0  0  0  0  0  0
  193.7820  175.9510  135.6690 O   0  0  0  0  0  0  0  0  0  0  0  0
  188.4990  178.3620  141.8290 O   0  0  0  0  0  0  0  0  0  0  0  0
  189.2370  177.6310  142.7640 C   0  0  0  0  0  2  0  0  0  0  0  0
  188.4350  177.4510  144.0120 C   0  0  0  0  0  0  0  0  0  0  0  0
  188.7680  178.1400  145.1750 O   0  0  0  0  0  1  0  0  0  0  0  0
  187.4340  176.6890  143.9990 O   0  0  0  0  0  0  0  0  0  0  0  0
  188.5890  175.8280  137.6600 C   0  0  0  0  0  2  0  0  0  0  0  0
  190.2950  173.6950  137.3420 O   0  0  0  0  0  0  0  0  0  0  0  0
  189.4910  173.6810  136.2490 N   0  0  0  0  0  0  0  0  0  0  0  0
  189.3150  174.6210  137.1750 C   0  0  0  0  0  0  0  0  0  0  0  0
  3  2  1  1  0  0  0
  3  4  1  0  0  0  0
  3  1  1  0  0  0  0
  4  6  1  0  0  0  0
  5  4  1  0  0  0  0
  7 19  1  0  0  0  0
  7 30  1  1  0  0  0
  8 28  1  1  0  0  0
  9  8  1  0  0  0  0
  9 15  1  0  0  0  0
  9 18  1  1  0  0  0
 10 16  1  0  0  0  0
 11 10  2  0  0  0  0
 12 11  2  0  0  0  0
 12 17  1  0  0  0  0
 13  7  1  0  0  0  0
 14 19  1  0  0  0  0
 15 13  1  6  0  0  0
 16  4  1  6  0  0  0
 16 15  1  0  0  0  0
 17  8  1  0  0  0  0
 18 14  1  0  0  0  0
 21 24  1  0  0  0  0
 22 25  2  0  0  0  0
 23 22  1  0  0  0  0
 24 10  1  0  0  0  0
 24 20  2  0  0  0  0
 25 20  1  0  0  0  0
 26 21  2  0  0  0  0
 26 22  1  0  0  0  0
 28 27  1  0  0  0  0
 29 30  2  0  0  0  0
 31  1  1  0  0  0  0
 32 40  1  0  0  0  0
 32 34  1  0  0  0  0
 33 31  1  6  0  0  0
 33 36  1  0  0  0  0
 34 35  1  6  0  0  0
 36 39  1  0  0  0  0
 37 57  1  1  0  0  0
 37 33  1  0  0  0  0
 37 38  1  0  0  0  0
 38 32  2  0  0  0  0
 39 34  1  0  0  0  0
 39 52  1  1  0  0  0
 41 42  1  0  0  0  0
 41 40  2  0  0  0  0
 43 42  1  0  0  0  0
 45 43  1  0  0  0  0
 45 44  1  1  0  0  0
 47 46  1  6  0  0  0
 47 45  1  0  0  0  0
 49 48  1  6  0  0  0
 49 47  1  0  0  0  0
 50 51  1  0  0  0  0
 51 49  1  0  0  0  0
 52 53  1  0  0  0  0
 53 54  1  0  0  0  0
 54 55  1  0  0  0  0
 56 54  2  0  0  0  0
 59 60  2  0  0  0  0
 59 58  1  0  0  0  0
 60 58  1  0  0  0  0
 60 57  1  0  0  0  0
M  END
>  <MODEL>
9

>  <REMARK>
 VINA RESULT:      -2.9      1.801      2.401
  Name = 
  20 active torsions:
  status: ('A' for Active; 'I' for Inactive)
    1  A    between atoms: C_2  and  C_54
    2  A    between atoms: C_3  and  C_11
    3  A    between atoms: C_4  and  C_17
    4  A    between atoms: C_7  and  C_32
    5  A    between atoms: N_12  and  C_39
    6  A    between atoms: N_12  and  C_56
    7  A    between atoms: C_14  and  C_43
    8  A    between atoms: C_16  and  C_19
    9  A    between atoms: C_16  and  C_44
   10  A    between atoms: C_19  and  C_20
   11  A    between atoms: C_20  and  C_43
   12  A    between atoms: O_22  and  C_40
   13  A    between atoms: O_22  and  C_59
   14  A    between atoms: C_34  and  C_51
   15  A    between atoms: C_34  and  C_53
   16  A    between atoms: O_36  and  C_45
   17  A    between atoms: C_39  and  C_47
   18  A    between atoms: C_40  and  C_42
   19  A    between atoms: C_45  and  C_46
   20  A    between atoms: C_46  and  C_56
                            x       y       z     vdW  Elec       q    Type
                         _______ _______ _______ _____ _____    ______ ____

>  <TORSDO>
F 20

$$$$
