=
 OpenBabel11062414333D

 31 34  0  0  1  0  0  0  0  0999 V2000
  181.8510  177.1120  140.1630 C   0  0  0  0  0  0  0  0  0  0  0  0
  184.8550  177.8640  142.0480 C   0  0  0  0  0  2  0  0  0  0  0  0
  184.8210  178.8350  146.2220 C   0  0  0  0  0  3  0  0  0  0  0  0
  183.9480  178.7820  141.2320 C   0  0  1  0  0  3  0  0  0  0  0  0
  182.5320  179.0520  143.3050 C   0  0  0  0  0  0  0  0  0  0  0  0
  183.9870  178.3300  139.7560 C   0  0  1  0  0  3  0  0  0  0  0  0
  180.9510  175.8280  139.7140 S   0  0  0  0  0  0  0  0  0  0  0  0
  183.7390  178.7780  144.1090 C   0  0  0  0  0  0  0  0  0  0  0  0
  181.4860  179.4770  143.8650 O   0  0  0  0  0  0  0  0  0  0  0  0
  186.0560  178.0390  144.2920 C   0  0  0  0  0  0  0  0  0  0  0  0
  185.9920  178.3300  145.6630 C   0  0  0  0  0  3  0  0  0  0  0  0
  182.6480  177.8730  139.1540 C   0  0  0  0  0  2  0  0  0  0  0  0
  183.7320  179.0500  145.4410 N   0  0  0  0  0  0  0  0  0  0  0  0
  181.8060  177.5910  141.5050 N   0  0  0  0  0  2  0  0  0  0  0  0
  182.5230  178.8180  141.8240 C   0  0  2  0  0  3  0  0  0  0  0  0
  184.9050  178.2680  143.4980 C   0  0  0  0  0  0  0  0  0  0  0  0
  188.8630  176.0450  142.9570 C   0  0  0  0  0  3  0  0  0  0  0  0
  189.4720  177.4110  142.8880 C   0  0  1  0  0  3  0  0  0  0  0  0
  188.3760  178.2680  143.4250 C   0  0  0  0  0  3  0  0  0  0  0  0
  187.6360  176.1170  143.4470 C   0  0  0  0  0  3  0  0  0  0  0  0
  187.3350  177.5100  143.7470 C   0  0  0  0  0  0  0  0  0  0  0  0
  191.0980  179.2280  144.2980 Cl  0  0  0  0  0  0  0  0  0  0  0  0
  190.7320  177.5580  143.7490 C   0  0  1  0  0  3  0  0  0  0  0  0
  192.0330  175.7730  144.6340 O   0  0  0  0  0  1  0  0  0  0  0  0
  190.8620  176.5030  144.8550 C   0  0  1  0  0  3  0  0  0  0  0  0
  191.6940  176.2980  147.2380 C   0  0  0  0  0  1  0  0  0  0  0  0
  189.4290  177.1360  146.8100 C   0  0  0  0  0  1  0  0  0  0  0  0
  190.8450  177.1050  146.2690 C   0  0  0  0  0  3  0  0  0  0  0  0
  185.6870  179.0700  138.0790 O   0  0  0  0  0  0  0  0  0  0  0  0
  184.6110  179.3800  138.9020 C   0  0  0  0  0  0  0  0  0  0  0  0
  184.1570  180.5530  138.9240 O   0  0  0  0  0  1  0  0  0  0  0  0
  1 14  1  0  0  0  0
  2 16  1  0  0  0  0
  4 15  1  0  0  0  0
  4  2  1  1  0  0  0
  5  9  2  0  0  0  0
  5  8  1  0  0  0  0
  6 30  1  6  0  0  0
  6  4  1  0  0  0  0
  7  1  2  0  0  0  0
  8 13  1  0  0  0  0
 10 11  2  0  0  0  0
 11  3  1  0  0  0  0
 12  6  1  0  0  0  0
 12  1  1  0  0  0  0
 13  3  2  0  0  0  0
 15 14  1  1  0  0  0
 15  5  1  0  0  0  0
 16  8  2  0  0  0  0
 16 10  1  0  0  0  0
 17 20  2  0  0  0  0
 18 17  1  0  0  0  0
 18 19  1  0  0  0  0
 18 23  1  1  0  0  0
 19 21  2  0  0  0  0
 20 21  1  0  0  0  0
 21 10  1  0  0  0  0
 23 22  1  1  0  0  0
 23 25  1  0  0  0  0
 25 24  1  6  0  0  0
 25 28  1  0  0  0  0
 28 27  1  0  0  0  0
 28 26  1  0  0  0  0
 29 30  2  0  0  0  0
 30 31  1  0  0  0  0
M  END
>  <MODEL>
1

>  <REMARK>
 VINA RESULT:      -9.1      0.000      0.000
  Name = 
  5 active torsions:
  status: ('A' for Active; 'I' for Inactive)
    1  A    between atoms: C_8  and  C_31
    2  A    between atoms: C_9  and  C_19
    3  A    between atoms: C_17  and  C_30
    4  A    between atoms: C_24  and  C_25
    5  A    between atoms: C_25  and  C_31
                            x       y       z     vdW  Elec       q    Type
                         _______ _______ _______ _____ _____    ______ ____

>  <TORSDO>
F 5

$$$$
=
 OpenBabel11062414333D

 31 34  0  0  1  0  0  0  0  0999 V2000
  190.3210  174.3060  135.9570 C   0  0  0  0  0  0  0  0  0  0  0  0
  190.3110  176.2530  139.0140 C   0  0  0  0  0  2  0  0  0  0  0  0
  186.9940  178.6740  140.2420 C   0  0  0  0  0  3  0  0  0  0  0  0
  190.8080  176.6150  137.6170 C   0  0  1  0  0  3  0  0  0  0  0  0
  188.4540  177.3620  137.0880 C   0  0  0  0  0  0  0  0  0  0  0  0
  191.9670  175.6660  137.2430 C   0  0  1  0  0  3  0  0  0  0  0  0
  189.9630  172.8030  135.4360 S   0  0  0  0  0  0  0  0  0  0  0  0
  188.2680  177.6370  138.5270 C   0  0  0  0  0  0  0  0  0  0  0  0
  187.5960  177.7590  136.2550 O   0  0  0  0  0  0  0  0  0  0  0  0
  189.0120  177.4680  140.8430 C   0  0  0  0  0  0  0  0  0  0  0  0
  187.8910  178.2280  141.2090 C   0  0  0  0  0  3  0  0  0  0  0  0
  191.7380  174.7760  136.0100 C   0  0  0  0  0  2  0  0  0  0  0  0
  187.2020  178.3750  138.9350 N   0  0  0  0  0  0  0  0  0  0  0  0
  189.2800  175.2290  136.2660 N   0  0  0  0  0  2  0  0  0  0  0  0
  189.6490  176.6000  136.5980 C   0  0  2  0  0  3  0  0  0  0  0  0
  189.2050  177.1660  139.4720 C   0  0  0  0  0  0  0  0  0  0  0  0
  190.9120  175.7130  143.4790 C   0  0  0  0  0  3  0  0  0  0  0  0
  191.6880  176.9920  143.4210 C   0  0  1  0  0  3  0  0  0  0  0  0
  190.9560  177.7520  142.3670 C   0  0  0  0  0  3  0  0  0  0  0  0
  189.9160  175.7440  142.6080 C   0  0  0  0  0  3  0  0  0  0  0  0
  189.9410  177.0260  141.9180 C   0  0  0  0  0  0  0  0  0  0  0  0
  191.3140  179.5230  144.6010 Cl  0  0  0  0  0  0  0  0  0  0  0  0
  191.6750  177.7690  144.7430 C   0  0  1  0  0  3  0  0  0  0  0  0
  191.7710  176.9060  146.9580 O   0  0  0  0  0  1  0  0  0  0  0  0
  190.9070  177.0720  145.8730 C   0  0  1  0  0  3  0  0  0  0  0  0
  189.3310  177.6450  147.7700 C   0  0  0  0  0  1  0  0  0  0  0  0
  188.4390  177.3080  145.5100 C   0  0  0  0  0  1  0  0  0  0  0  0
  189.6330  177.8230  146.2910 C   0  0  0  0  0  3  0  0  0  0  0  0
  193.9630  176.3850  135.9210 O   0  0  0  0  0  0  0  0  0  0  0  0
  193.2430  176.4240  137.1090 C   0  0  0  0  0  0  0  0  0  0  0  0
  193.6690  177.1060  138.0770 O   0  0  0  0  0  1  0  0  0  0  0  0
  1 12  1  0  0  0  0
  1 14  1  0  0  0  0
  2 16  1  0  0  0  0
  3 11  1  0  0  0  0
  4  2  1  1  0  0  0
  5  8  1  0  0  0  0
  6 30  1  6  0  0  0
  6  4  1  0  0  0  0
  7  1  2  0  0  0  0
  8 13  1  0  0  0  0
  8 16  2  0  0  0  0
  9  5  2  0  0  0  0
 10 11  2  0  0  0  0
 10 21  1  0  0  0  0
 12  6  1  0  0  0  0
 13  3  2  0  0  0  0
 15 14  1  1  0  0  0
 15  5  1  0  0  0  0
 15  4  1  0  0  0  0
 16 10  1  0  0  0  0
 18 17  1  0  0  0  0
 18 23  1  1  0  0  0
 19 18  1  0  0  0  0
 20 17  2  0  0  0  0
 21 19  2  0  0  0  0
 21 20  1  0  0  0  0
 23 22  1  6  0  0  0
 23 25  1  0  0  0  0
 25 28  1  0  0  0  0
 25 24  1  1  0  0  0
 27 28  1  0  0  0  0
 28 26  1  0  0  0  0
 29 30  2  0  0  0  0
 30 31  1  0  0  0  0
M  END
>  <MODEL>
2

>  <REMARK>
 VINA RESULT:      -8.3      4.912      6.705
  Name = 
  5 active torsions:
  status: ('A' for Active; 'I' for Inactive)
    1  A    between atoms: C_8  and  C_31
    2  A    between atoms: C_9  and  C_19
    3  A    between atoms: C_17  and  C_30
    4  A    between atoms: C_24  and  C_25
    5  A    between atoms: C_25  and  C_31
                            x       y       z     vdW  Elec       q    Type
                         _______ _______ _______ _____ _____    ______ ____

>  <TORSDO>
F 5

$$$$
=
 OpenBabel11062414333D

 31 34  0  0  1  0  0  0  0  0999 V2000
  181.4230  177.2120  140.1560 C   0  0  0  0  0  0  0  0  0  0  0  0
  184.4490  177.9200  142.0230 C   0  0  0  0  0  2  0  0  0  0  0  0
  184.4640  178.8100  146.2150 C   0  0  0  0  0  3  0  0  0  0  0  0
  183.5360  178.8560  141.2340 C   0  0  1  0  0  3  0  0  0  0  0  0
  182.1430  179.0890  143.3280 C   0  0  0  0  0  0  0  0  0  0  0  0
  183.5580  178.4330  139.7490 C   0  0  1  0  0  3  0  0  0  0  0  0
  180.5150  175.9400  139.6920 S   0  0  0  0  0  0  0  0  0  0  0  0
  183.3590  178.7970  144.1130 C   0  0  0  0  0  0  0  0  0  0  0  0
  181.1050  179.5060  143.9070 O   0  0  0  0  0  0  0  0  0  0  0  0
  185.6760  178.0480  144.2560 C   0  0  0  0  0  0  0  0  0  0  0  0
  185.6270  178.3130  145.6330 C   0  0  0  0  0  3  0  0  0  0  0  0
  182.2110  177.9910  139.1540 C   0  0  0  0  0  2  0  0  0  0  0  0
  183.3670  179.0420  145.4500 N   0  0  0  0  0  0  0  0  0  0  0  0
  181.3940  177.6650  141.5070 N   0  0  0  0  0  2  0  0  0  0  0  0
  182.1180  178.8840  141.8430 C   0  0  2  0  0  3  0  0  0  0  0  0
  184.5170  178.2960  143.4790 C   0  0  0  0  0  0  0  0  0  0  0  0
  188.8790  176.3690  143.5120 C   0  0  0  0  0  3  0  0  0  0  0  0
  188.6710  177.0950  142.2180 C   0  0  1  0  0  3  0  0  0  0  0  0
  187.3810  177.8030  142.4640 C   0  0  0  0  0  3  0  0  0  0  0  0
  187.8820  176.6220  144.3430 C   0  0  0  0  0  3  0  0  0  0  0  0
  186.9470  177.5270  143.6870 C   0  0  0  0  0  0  0  0  0  0  0  0
  190.9340  178.4210  143.2440 Cl  0  0  0  0  0  0  0  0  0  0  0  0
  189.7810  178.1040  141.9040 C   0  0  1  0  0  3  0  0  0  0  0  0
  191.5570  177.0430  140.7290 O   0  0  0  0  0  1  0  0  0  0  0  0
  190.4590  177.8880  140.5460 C   0  0  1  0  0  3  0  0  0  0  0  0
  190.1860  176.2950  138.5960 C   0  0  0  0  0  1  0  0  0  0  0  0
  189.0150  178.4500  138.5770 C   0  0  0  0  0  1  0  0  0  0  0  0
  189.5060  177.3320  139.4760 C   0  0  0  0  0  3  0  0  0  0  0  0
  185.3180  179.2320  138.1640 O   0  0  0  0  0  0  0  0  0  0  0  0
  184.1750  179.4980  138.9100 C   0  0  0  0  0  0  0  0  0  0  0  0
  183.6550  180.6430  138.8720 O   0  0  0  0  0  1  0  0  0  0  0  0
  1 14  1  0  0  0  0
  2 16  1  0  0  0  0
  4 15  1  0  0  0  0
  4  2  1  1  0  0  0
  5  9  2  0  0  0  0
  5  8  1  0  0  0  0
  6 30  1  6  0  0  0
  6  4  1  0  0  0  0
  7  1  2  0  0  0  0
  8 13  1  0  0  0  0
 10 11  2  0  0  0  0
 11  3  1  0  0  0  0
 12  6  1  0  0  0  0
 12  1  1  0  0  0  0
 13  3  2  0  0  0  0
 15 14  1  1  0  0  0
 15  5  1  0  0  0  0
 16  8  2  0  0  0  0
 16 10  1  0  0  0  0
 17 20  2  0  0  0  0
 18 23  1  1  0  0  0
 18 19  1  0  0  0  0
 18 17  1  0  0  0  0
 19 21  2  0  0  0  0
 21 10  1  0  0  0  0
 21 20  1  0  0  0  0
 23 22  1  1  0  0  0
 25 24  1  1  0  0  0
 25 23  1  0  0  0  0
 26 28  1  0  0  0  0
 27 28  1  0  0  0  0
 28 25  1  0  0  0  0
 29 30  2  0  0  0  0
 31 30  1  0  0  0  0
M  END
>  <MODEL>
3

>  <REMARK>
 VINA RESULT:      -7.7      1.672      2.823
  Name = 
  5 active torsions:
  status: ('A' for Active; 'I' for Inactive)
    1  A    between atoms: C_8  and  C_31
    2  A    between atoms: C_9  and  C_19
    3  A    between atoms: C_17  and  C_30
    4  A    between atoms: C_24  and  C_25
    5  A    between atoms: C_25  and  C_31
                            x       y       z     vdW  Elec       q    Type
                         _______ _______ _______ _____ _____    ______ ____

>  <TORSDO>
F 5

$$$$
=
 OpenBabel11062414333D

 31 34  0  0  1  0  0  0  0  0999 V2000
  187.5440  177.0640  135.3980 C   0  0  0  0  0  0  0  0  0  0  0  0
  189.0370  176.4350  138.6420 C   0  0  0  0  0  2  0  0  0  0  0  0
  193.1820  177.1210  139.4880 C   0  0  0  0  0  3  0  0  0  0  0  0
  188.8340  175.5000  137.4520 C   0  0  1  0  0  3  0  0  0  0  0  0
  191.0420  176.3360  136.5540 C   0  0  0  0  0  0  0  0  0  0  0  0
  187.3200  175.3500  137.1930 C   0  0  1  0  0  3  0  0  0  0  0  0
  186.7670  178.2510  134.5940 S   0  0  0  0  0  0  0  0  0  0  0  0
  191.4460  176.6200  137.9460 C   0  0  0  0  0  0  0  0  0  0  0  0
  191.8940  176.3880  135.6280 O   0  0  0  0  0  0  0  0  0  0  0  0
  190.9170  176.8520  140.3150 C   0  0  0  0  0  0  0  0  0  0  0  0
  192.2750  177.1140  140.5450 C   0  0  0  0  0  3  0  0  0  0  0  0
  186.8180  175.8290  135.8210 C   0  0  0  0  0  2  0  0  0  0  0  0
  192.7530  176.8730  138.2240 N   0  0  0  0  0  0  0  0  0  0  0  0
  188.9510  177.1420  135.6150 N   0  0  0  0  0  2  0  0  0  0  0  0
  189.6200  175.9970  136.2200 C   0  0  2  0  0  3  0  0  0  0  0  0
  190.4930  176.6000  138.9860 C   0  0  0  0  0  0  0  0  0  0  0  0
  188.1840  177.2840  142.7600 C   0  0  0  0  0  3  0  0  0  0  0  0
  189.0750  176.3690  143.5410 C   0  0  1  0  0  3  0  0  0  0  0  0
  190.2110  176.1610  142.5970 C   0  0  0  0  0  3  0  0  0  0  0  0
  188.7210  177.5480  141.5800 C   0  0  0  0  0  3  0  0  0  0  0  0
  189.9950  176.8490  141.4830 C   0  0  0  0  0  0  0  0  0  0  0  0
  190.1940  178.6670  144.7230 Cl  0  0  0  0  0  0  0  0  0  0  0  0
  189.5780  176.9850  144.8520 C   0  0  1  0  0  3  0  0  0  0  0  0
  189.4250  176.4040  147.1540 O   0  0  0  0  0  1  0  0  0  0  0  0
  188.6470  176.7600  146.0490 C   0  0  1  0  0  3  0  0  0  0  0  0
  187.7330  178.2830  147.8540 C   0  0  0  0  0  1  0  0  0  0  0  0
  186.3370  177.7210  145.9170 C   0  0  0  0  0  1  0  0  0  0  0  0
  187.7630  177.9770  146.3650 C   0  0  0  0  0  3  0  0  0  0  0  0
  185.5510  173.6710  137.7430 O   0  0  0  0  0  1  0  0  0  0  0  0
  186.8810  173.9490  137.4480 C   0  0  0  0  0  0  0  0  0  0  0  0
  187.7190  173.0110  137.3920 O   0  0  0  0  0  0  0  0  0  0  0  0
  1 14  1  0  0  0  0
  1 12  1  0  0  0  0
  2 16  1  0  0  0  0
  3 11  1  0  0  0  0
  4  2  1  1  0  0  0
  5  8  1  0  0  0  0
  6 30  1  6  0  0  0
  6  4  1  0  0  0  0
  7  1  2  0  0  0  0
  8 13  1  0  0  0  0
  8 16  2  0  0  0  0
  9  5  2  0  0  0  0
 10 11  2  0  0  0  0
 10 21  1  0  0  0  0
 12  6  1  0  0  0  0
 13  3  2  0  0  0  0
 15 14  1  1  0  0  0
 15  5  1  0  0  0  0
 15  4  1  0  0  0  0
 16 10  1  0  0  0  0
 17 18  1  0  0  0  0
 18 23  1  1  0  0  0
 19 18  1  0  0  0  0
 20 17  2  0  0  0  0
 21 20  1  0  0  0  0
 21 19  2  0  0  0  0
 23 22  1  6  0  0  0
 23 25  1  0  0  0  0
 25 28  1  0  0  0  0
 25 24  1  1  0  0  0
 27 28  1  0  0  0  0
 28 26  1  0  0  0  0
 30 29  1  0  0  0  0
 31 30  2  0  0  0  0
M  END
>  <MODEL>
4

>  <REMARK>
 VINA RESULT:      -6.5      5.026      6.962
  Name = 
  5 active torsions:
  status: ('A' for Active; 'I' for Inactive)
    1  A    between atoms: C_8  and  C_31
    2  A    between atoms: C_9  and  C_19
    3  A    between atoms: C_17  and  C_30
    4  A    between atoms: C_24  and  C_25
    5  A    between atoms: C_25  and  C_31
                            x       y       z     vdW  Elec       q    Type
                         _______ _______ _______ _____ _____    ______ ____

>  <TORSDO>
F 5

$$$$
=
 OpenBabel11062414333D

 31 34  0  0  1  0  0  0  0  0999 V2000
  183.7860  176.0480  137.7340 C   0  0  0  0  0  0  0  0  0  0  0  0
  184.4270  177.7830  140.8520 C   0  0  0  0  0  2  0  0  0  0  0  0
  181.3320  179.5570  143.2270 C   0  0  0  0  0  3  0  0  0  0  0  0
  184.4280  178.3030  139.4170 C   0  0  1  0  0  3  0  0  0  0  0  0
  181.9440  178.6890  139.6680 C   0  0  0  0  0  0  0  0  0  0  0  0
  185.5390  177.5780  138.6290 C   0  0  1  0  0  3  0  0  0  0  0  0
  183.4980  174.5410  137.1840 S   0  0  0  0  0  0  0  0  0  0  0  0
  182.1630  178.8440  141.1190 C   0  0  0  0  0  0  0  0  0  0  0  0
  180.8300  178.9910  139.1620 O   0  0  0  0  0  0  0  0  0  0  0  0
  183.5820  178.6610  143.0940 C   0  0  0  0  0  0  0  0  0  0  0  0
  182.5300  179.2050  143.8440 C   0  0  0  0  0  3  0  0  0  0  0  0
  185.0760  176.7370  137.4270 C   0  0  0  0  0  2  0  0  0  0  0  0
  181.1770  179.3750  141.8910 N   0  0  0  0  0  0  0  0  0  0  0  0
  182.7700  176.7710  138.4240 N   0  0  0  0  0  2  0  0  0  0  0  0
  183.0300  178.1610  138.7780 C   0  0  2  0  0  3  0  0  0  0  0  0
  183.3950  178.4760  141.7010 C   0  0  0  0  0  0  0  0  0  0  0  0
  186.4790  178.3320  145.3610 C   0  0  0  0  0  3  0  0  0  0  0  0
  186.8120  177.2580  144.3730 C   0  0  1  0  0  3  0  0  0  0  0  0
  185.6680  177.3470  143.4200 C   0  0  0  0  0  3  0  0  0  0  0  0
  185.3450  178.9260  145.0250 C   0  0  0  0  0  3  0  0  0  0  0  0
  184.8420  178.3110  143.8040 C   0  0  0  0  0  0  0  0  0  0  0  0
  188.0230  178.5080  142.1590 Cl  0  0  0  0  0  0  0  0  0  0  0  0
  188.1360  177.4980  143.6390 C   0  0  1  0  0  3  0  0  0  0  0  0
  189.3690  176.9510  145.5990 O   0  0  0  0  0  1  0  0  0  0  0  0
  189.3020  177.8810  144.5590 C   0  0  1  0  0  3  0  0  0  0  0  0
  191.6670  176.9950  144.3660 C   0  0  0  0  0  1  0  0  0  0  0  0
  191.2260  179.3750  143.9700 C   0  0  0  0  0  1  0  0  0  0  0  0
  190.6470  177.9810  143.8200 C   0  0  0  0  0  3  0  0  0  0  0  0
  187.7870  178.6290  138.9330 O   0  0  0  0  0  1  0  0  0  0  0  0
  186.6010  178.5380  138.2140 C   0  0  0  0  0  0  0  0  0  0  0  0
  186.4230  179.2680  137.2050 O   0  0  0  0  0  0  0  0  0  0  0  0
  1 14  1  0  0  0  0
  2 16  1  0  0  0  0
  3 11  1  0  0  0  0
  4  2  1  1  0  0  0
  5  8  1  0  0  0  0
  6 30  1  6  0  0  0
  6  4  1  0  0  0  0
  7  1  2  0  0  0  0
  8 16  2  0  0  0  0
  8 13  1  0  0  0  0
  9  5  2  0  0  0  0
 10 21  1  0  0  0  0
 10 11  2  0  0  0  0
 12  1  1  0  0  0  0
 12  6  1  0  0  0  0
 13  3  2  0  0  0  0
 15 14  1  1  0  0  0
 15  4  1  0  0  0  0
 15  5  1  0  0  0  0
 16 10  1  0  0  0  0
 18 23  1  6  0  0  0
 18 17  1  0  0  0  0
 19 21  2  0  0  0  0
 19 18  1  0  0  0  0
 20 17  2  0  0  0  0
 21 20  1  0  0  0  0
 23 22  1  6  0  0  0
 23 25  1  0  0  0  0
 25 24  1  1  0  0  0
 28 27  1  0  0  0  0
 28 26  1  0  0  0  0
 28 25  1  0  0  0  0
 30 29  1  0  0  0  0
 31 30  2  0  0  0  0
M  END
>  <MODEL>
5

>  <REMARK>
 VINA RESULT:      -6.4      2.101      3.255
  Name = 
  5 active torsions:
  status: ('A' for Active; 'I' for Inactive)
    1  A    between atoms: C_8  and  C_31
    2  A    between atoms: C_9  and  C_19
    3  A    between atoms: C_17  and  C_30
    4  A    between atoms: C_24  and  C_25
    5  A    between atoms: C_25  and  C_31
                            x       y       z     vdW  Elec       q    Type
                         _______ _______ _______ _____ _____    ______ ____

>  <TORSDO>
F 5

$$$$
