=
 OpenBabel11062415013D

 31 38  0  0  1  0  0  0  0  0999 V2000
  188.7080  176.8270  139.3760 C   0  0  1  0  0  3  0  0  0  0  0  0
  190.9230  176.8160  138.6260 C   0  0  2  0  0  3  0  0  0  0  0  0
  189.1010  176.3820  143.9910 C   0  0  2  0  0  3  0  0  0  0  0  0
  189.4620  177.2680  140.5470 C   0  0  1  0  0  0  0  0  0  0  0  0
  190.2950  178.4770  144.5060 N   0  0  2  0  0  0  0  0  0  0  0  0
  189.7010  178.6440  143.1640 C   0  0  2  0  0  3  0  0  0  0  0  0
  191.1400  176.2560  147.0860 C   0  0  0  0  0  1  0  0  0  0  0  0
  191.6600  178.4360  144.4280 O   0  0  0  0  0  0  0  0  0  0  0  0
  188.7310  177.4930  143.0260 C   0  0  1  0  0  0  0  0  0  0  0  0
  188.8720  177.7800  138.2150 C   0  0  1  0  0  3  0  0  0  0  0  0
  189.8900  177.1880  145.0640 C   0  0  2  0  0  0  0  0  0  0  0  0
  191.2190  176.6560  145.6170 C   0  0  0  0  0  0  0  0  0  0  0  0
  190.0360  176.2390  139.6430 N   0  0  1  0  0  0  0  0  0  0  0  0
  190.1380  177.4650  137.5810 N   0  0  0  0  0  2  0  0  0  0  0  0
  191.8440  175.4820  144.8760 C   0  0  0  0  0  1  0  0  0  0  0  0
  190.5720  177.9920  142.0610 C   0  0  2  0  0  3  0  0  0  0  0  0
  190.3030  178.4530  140.6790 N   0  0  0  0  0  2  0  0  0  0  0  0
  189.5560  176.8520  141.9700 C   0  0  2  0  0  0  0  0  0  0  0  0
  187.2670  177.7530  142.7120 C   0  0  0  0  0  1  0  0  0  0  0  0
  192.0710  177.7630  145.5030 O   0  0  0  0  0  0  0  0  0  0  0  0
  189.9020  175.6800  142.8450 C   0  0  0  0  0  2  0  0  0  0  0  0
  188.9930  177.4480  146.1090 O   0  0  0  0  0  1  0  0  0  0  0  0
  191.8030  175.7530  138.0490 C   0  0  0  0  0  0  0  0  0  0  0  0
  194.0060  174.8850  137.5070 C   0  0  0  0  0  3  0  0  0  0  0  0
  193.2010  175.8730  138.0850 C   0  0  0  0  0  3  0  0  0  0  0  0
  193.4180  173.7780  136.8890 C   0  0  0  0  0  3  0  0  0  0  0  0
  192.0250  173.6600  136.8460 C   0  0  0  0  0  3  0  0  0  0  0  0
  191.2190  174.6470  137.4220 C   0  0  0  0  0  3  0  0  0  0  0  0
  187.6600  176.6160  136.5050 O   0  0  0  0  0  0  0  0  0  0  0  0
  186.7310  178.6330  137.1970 N   0  0  0  0  0  1  0  0  0  0  0  0
  187.7450  177.6330  137.2470 C   0  0  0  0  0  0  0  0  0  0  0  0
  1 13  1  0  0  0  0
  1  4  1  0  0  0  0
  2 13  1  0  0  0  0
  3 11  1  0  0  0  0
  4 17  1  0  0  0  0
  4 18  1  0  0  0  0
  5 11  1  0  0  0  0
  6  5  1  0  0  0  0
  8  5  1  0  0  0  0
  8 20  1  0  0  0  0
  9  6  1  0  0  0  0
  9  3  1  0  0  0  0
 10  1  1  0  0  0  0
 11 12  1  0  0  0  0
 11 22  1  0  0  0  0
 12  7  1  0  0  0  0
 13  4  1  0  0  0  0
 14 10  1  0  0  0  0
 14  2  1  0  0  0  0
 15 12  1  0  0  0  0
 16  6  1  0  0  0  0
 17 16  1  0  0  0  0
 18 16  1  0  0  0  0
 18 21  1  0  0  0  0
 18  9  1  0  0  0  0
 19  9  1  0  0  0  0
 20 12  1  0  0  0  0
 21  3  1  0  0  0  0
 23 25  1  0  0  0  0
 23  2  1  0  0  0  0
 24 25  2  0  0  0  0
 26 24  1  0  0  0  0
 27 26  2  0  0  0  0
 27 28  1  0  0  0  0
 28 23  2  0  0  0  0
 29 31  2  0  0  0  0
 30 31  1  0  0  0  0
 31 10  1  0  0  0  0
M  END
>  <MODEL>
1

>  <REMARK>
 VINA RESULT:      -8.1      0.000      0.000
  Name = 
  2 active torsions:
  status: ('A' for Active; 'I' for Inactive)
    1  A    between atoms: C_1  and  C_3
    2  A    between atoms: C_15  and  C_29
                            x       y       z     vdW  Elec       q    Type
                         _______ _______ _______ _____ _____    ______ ____

>  <TORSDO>
F 2

$$$$
=
 OpenBabel11062415013D

 31 38  0  0  1  0  0  0  0  0999 V2000
  189.8360  176.3850  142.1690 C   0  0  1  0  0  3  0  0  0  0  0  0
  188.5270  178.0690  143.1290 C   0  0  2  0  0  3  0  0  0  0  0  0
  188.5480  176.3970  137.6980 C   0  0  2  0  0  3  0  0  0  0  0  0
  189.5090  177.2460  141.0340 C   0  0  1  0  0  0  0  0  0  0  0  0
  189.2870  178.6620  137.0620 N   0  0  2  0  0  0  0  0  0  0  0  0
  189.9970  178.3160  138.3110 C   0  0  2  0  0  3  0  0  0  0  0  0
  186.6800  177.8700  134.8530 C   0  0  0  0  0  1  0  0  0  0  0  0
  188.3960  179.6760  137.2770 O   0  0  0  0  0  0  0  0  0  0  0  0
  189.7690  176.8320  138.4870 C   0  0  1  0  0  0  0  0  0  0  0  0
  190.6270  177.1260  143.2220 C   0  0  1  0  0  3  0  0  0  0  0  0
  188.4890  177.5190  136.6210 C   0  0  2  0  0  0  0  0  0  0  0  0
  187.1550  178.1890  136.2660 C   0  0  0  0  0  0  0  0  0  0  0  0
  188.5040  177.0190  142.1040 N   0  0  1  0  0  0  0  0  0  0  0  0
  189.6760  177.8890  144.0090 N   0  0  0  0  0  2  0  0  0  0  0  0
  185.9820  177.9080  137.1960 C   0  0  0  0  0  1  0  0  0  0  0  0
  189.1170  178.5600  139.5630 C   0  0  2  0  0  3  0  0  0  0  0  0
  189.8450  178.6530  140.8490 N   0  0  0  0  0  2  0  0  0  0  0  0
  188.9190  177.0480  139.6850 C   0  0  2  0  0  0  0  0  0  0  0  0
  190.9480  175.8830  138.6230 C   0  0  0  0  0  1  0  0  0  0  0  0
  187.4620  179.5550  136.3340 O   0  0  0  0  0  0  0  0  0  0  0  0
  187.6810  176.5540  138.9910 C   0  0  0  0  0  2  0  0  0  0  0  0
  189.0990  177.0030  135.4700 O   0  0  0  0  0  1  0  0  0  0  0  0
  187.2510  178.0540  143.9080 C   0  0  0  0  0  0  0  0  0  0  0  0
  184.8380  178.3060  144.0350 C   0  0  0  0  0  3  0  0  0  0  0  0
  186.0170  178.2870  143.2810 C   0  0  0  0  0  3  0  0  0  0  0  0
  184.8890  178.0950  145.4160 C   0  0  0  0  0  3  0  0  0  0  0  0
  186.1170  177.8690  146.0440 C   0  0  0  0  0  3  0  0  0  0  0  0
  187.2970  177.8520  145.2920 C   0  0  0  0  0  3  0  0  0  0  0  0
  191.8000  175.0750  143.6220 O   0  0  0  0  0  0  0  0  0  0  0  0
  191.6740  176.5280  145.4340 N   0  0  0  0  0  1  0  0  0  0  0  0
  191.3830  176.1720  144.0850 C   0  0  0  0  0  0  0  0  0  0  0  0
  1 10  1  0  0  0  0
  2 23  1  0  0  0  0
  2 14  1  0  0  0  0
  3  9  1  0  0  0  0
  3 21  1  0  0  0  0
  4 13  1  0  0  0  0
  4  1  1  0  0  0  0
  5  8  1  0  0  0  0
  5  6  1  0  0  0  0
  6  9  1  0  0  0  0
  6 16  1  0  0  0  0
  7 12  1  0  0  0  0
  9 19  1  0  0  0  0
  9 18  1  0  0  0  0
 10 14  1  0  0  0  0
 10 31  1  0  0  0  0
 11  5  1  0  0  0  0
 11  3  1  0  0  0  0
 12 20  1  0  0  0  0
 12 11  1  0  0  0  0
 12 15  1  0  0  0  0
 13  1  1  0  0  0  0
 13  2  1  0  0  0  0
 16 18  1  0  0  0  0
 16 17  1  0  0  0  0
 17  4  1  0  0  0  0
 18  4  1  0  0  0  0
 20  8  1  0  0  0  0
 21 18  1  0  0  0  0
 22 11  1  0  0  0  0
 23 28  1  0  0  0  0
 24 26  2  0  0  0  0
 25 23  2  0  0  0  0
 25 24  1  0  0  0  0
 26 27  1  0  0  0  0
 28 27  2  0  0  0  0
 29 31  2  0  0  0  0
 31 30  1  0  0  0  0
M  END
>  <MODEL>
2

>  <REMARK>
 VINA RESULT:      -7.5      2.114      7.962
  Name = 
  2 active torsions:
  status: ('A' for Active; 'I' for Inactive)
    1  A    between atoms: C_1  and  C_3
    2  A    between atoms: C_15  and  C_29
                            x       y       z     vdW  Elec       q    Type
                         _______ _______ _______ _____ _____    ______ ____

>  <TORSDO>
F 2

$$$$
=
 OpenBabel11062415013D

 31 38  0  0  1  0  0  0  0  0999 V2000
  189.8610  177.6380  137.7570 C   0  0  1  0  0  3  0  0  0  0  0  0
  189.7010  176.7140  139.8990 C   0  0  2  0  0  3  0  0  0  0  0  0
  193.7960  175.8240  136.0600 C   0  0  2  0  0  3  0  0  0  0  0  0
  190.6510  176.4140  137.6550 C   0  0  1  0  0  0  0  0  0  0  0  0
  193.1690  173.4400  136.0280 N   0  0  2  0  0  0  0  0  0  0  0  0
  191.9110  174.2100  136.1210 C   0  0  2  0  0  3  0  0  0  0  0  0
  196.6670  173.4880  136.2910 C   0  0  0  0  0  1  0  0  0  0  0  0
  193.3900  172.7360  137.1790 O   0  0  0  0  0  0  0  0  0  0  0  0
  192.3100  175.6360  135.8180 C   0  0  1  0  0  0  0  0  0  0  0  0
  188.4170  177.3450  138.0940 C   0  0  1  0  0  3  0  0  0  0  0  0
  194.2980  174.3600  135.9010 C   0  0  2  0  0  0  0  0  0  0  0  0
  195.2970  173.7660  136.9030 C   0  0  0  0  0  0  0  0  0  0  0  0
  190.6710  177.2040  138.9130 N   0  0  1  0  0  0  0  0  0  0  0  0
  188.3510  177.1230  139.5260 N   0  0  0  0  0  2  0  0  0  0  0  0
  195.5410  174.5630  138.1770 C   0  0  0  0  0  1  0  0  0  0  0  0
  191.6060  174.6450  137.5770 C   0  0  2  0  0  3  0  0  0  0  0  0
  190.2040  175.0390  137.8450 N   0  0  0  0  0  2  0  0  0  0  0  0
  192.0260  176.0700  137.2100 C   0  0  2  0  0  0  0  0  0  0  0  0
  191.6330  176.4020  134.6930 C   0  0  0  0  0  1  0  0  0  0  0  0
  194.7080  172.5410  137.2460 O   0  0  0  0  0  0  0  0  0  0  0  0
  193.4740  176.3530  137.4970 C   0  0  0  0  0  2  0  0  0  0  0  0
  194.7870  174.2440  134.5940 O   0  0  0  0  0  1  0  0  0  0  0  0
  190.0540  177.2200  141.2620 C   0  0  0  0  0  0  0  0  0  0  0  0
  191.7020  177.8860  142.9170 C   0  0  0  0  0  3  0  0  0  0  0  0
  191.3900  177.4470  141.6250 C   0  0  0  0  0  3  0  0  0  0  0  0
  190.6810  178.0950  143.8490 C   0  0  0  0  0  3  0  0  0  0  0  0
  189.3490  177.8640  143.4910 C   0  0  0  0  0  3  0  0  0  0  0  0
  189.0360  177.4230  142.2000 C   0  0  0  0  0  3  0  0  0  0  0  0
  187.9340  179.3400  136.8560 O   0  0  0  0  0  0  0  0  0  0  0  0
  186.2220  178.5750  138.2330 N   0  0  0  0  0  1  0  0  0  0  0  0
  187.5390  178.4840  137.6940 C   0  0  0  0  0  0  0  0  0  0  0  0
  1 10  1  0  0  0  0
  1 13  1  0  0  0  0
  2 23  1  0  0  0  0
  3 21  1  0  0  0  0
  4  1  1  0  0  0  0
  4 17  1  0  0  0  0
  4 13  1  0  0  0  0
  5  6  1  0  0  0  0
  5  8  1  0  0  0  0
  6 16  1  0  0  0  0
  7 12  1  0  0  0  0
  8 20  1  0  0  0  0
  9  3  1  0  0  0  0
  9  6  1  0  0  0  0
  9 18  1  0  0  0  0
 10 14  1  0  0  0  0
 11  5  1  0  0  0  0
 11  3  1  0  0  0  0
 11 12  1  0  0  0  0
 12 20  1  0  0  0  0
 12 15  1  0  0  0  0
 13  2  1  0  0  0  0
 14  2  1  0  0  0  0
 16 17  1  0  0  0  0
 18 21  1  0  0  0  0
 18 16  1  0  0  0  0
 18  4  1  0  0  0  0
 19  9  1  0  0  0  0
 22 11  1  0  0  0  0
 23 25  2  0  0  0  0
 23 28  1  0  0  0  0
 24 26  2  0  0  0  0
 25 24  1  0  0  0  0
 27 26  1  0  0  0  0
 28 27  2  0  0  0  0
 29 31  2  0  0  0  0
 31 10  1  0  0  0  0
 31 30  1  0  0  0  0
M  END
>  <MODEL>
3

>  <REMARK>
 VINA RESULT:      -7.1      3.417      7.248
  Name = 
  2 active torsions:
  status: ('A' for Active; 'I' for Inactive)
    1  A    between atoms: C_1  and  C_3
    2  A    between atoms: C_15  and  C_29
                            x       y       z     vdW  Elec       q    Type
                         _______ _______ _______ _____ _____    ______ ____

>  <TORSDO>
F 2

$$$$
=
 OpenBabel11062415013D

 31 38  0  0  1  0  0  0  0  0999 V2000
  181.9580  179.3770  139.9030 C   0  0  1  0  0  3  0  0  0  0  0  0
  182.5900  178.1710  141.8050 C   0  0  2  0  0  3  0  0  0  0  0  0
  184.3700  177.3670  136.4680 C   0  0  2  0  0  3  0  0  0  0  0  0
  182.3950  178.0940  139.3580 C   0  0  1  0  0  0  0  0  0  0  0  0
  183.3830  175.1080  136.5400 N   0  0  2  0  0  0  0  0  0  0  0  0
  182.4500  176.0040  137.2540 C   0  0  2  0  0  3  0  0  0  0  0  0
  186.5930  174.6900  135.1870 C   0  0  0  0  0  1  0  0  0  0  0  0
  183.9580  174.2200  137.4060 O   0  0  0  0  0  0  0  0  0  0  0  0
  182.9200  177.4000  136.9140 C   0  0  1  0  0  0  0  0  0  0  0  0
  180.7800  179.2150  140.8350 C   0  0  1  0  0  3  0  0  0  0  0  0
  184.4860  175.8920  135.9860 C   0  0  2  0  0  0  0  0  0  0  0  0
  185.7010  175.0390  136.3740 C   0  0  0  0  0  0  0  0  0  0  0  0
  183.1010  178.6800  140.5270 N   0  0  1  0  0  0  0  0  0  0  0  0
  181.3070  178.7930  142.1190 N   0  0  0  0  0  2  0  0  0  0  0  0
  186.6130  175.6030  137.4560 C   0  0  0  0  0  1  0  0  0  0  0  0
  182.8930  176.2530  138.7180 C   0  0  2  0  0  3  0  0  0  0  0  0
  181.8420  176.7700  139.6240 N   0  0  0  0  0  2  0  0  0  0  0  0
  183.3540  177.6540  138.3120 C   0  0  2  0  0  0  0  0  0  0  0  0
  181.9660  178.4010  136.2820 C   0  0  0  0  0  1  0  0  0  0  0  0
  185.1150  173.8580  136.8520 O   0  0  0  0  0  0  0  0  0  0  0  0
  184.8060  177.7130  137.9310 C   0  0  0  0  0  2  0  0  0  0  0  0
  184.3260  175.9120  134.5940 O   0  0  0  0  0  1  0  0  0  0  0  0
  183.5850  178.4240  142.8930 C   0  0  0  0  0  0  0  0  0  0  0  0
  185.8710  178.4470  143.7140 C   0  0  0  0  0  3  0  0  0  0  0  0
  184.9590  178.2420  142.6720 C   0  0  0  0  0  3  0  0  0  0  0  0
  185.4130  178.8310  144.9770 C   0  0  0  0  0  3  0  0  0  0  0  0
  184.0440  179.0060  145.2020 C   0  0  0  0  0  3  0  0  0  0  0  0
  183.1310  178.7990  144.1620 C   0  0  0  0  0  3  0  0  0  0  0  0
  179.6750  180.9250  142.1010 O   0  0  0  0  0  0  0  0  0  0  0  0
  179.7540  181.2720  139.8020 N   0  0  0  0  0  1  0  0  0  0  0  0
  180.0300  180.4990  140.9680 C   0  0  0  0  0  0  0  0  0  0  0  0
  1 13  1  0  0  0  0
  1 10  1  0  0  0  0
  2 14  1  0  0  0  0
  2 23  1  0  0  0  0
  3  9  1  0  0  0  0
  3 21  1  0  0  0  0
  4 17  1  0  0  0  0
  4  1  1  0  0  0  0
  4 13  1  0  0  0  0
  5  6  1  0  0  0  0
  5  8  1  0  0  0  0
  6 16  1  0  0  0  0
  7 12  1  0  0  0  0
  9  6  1  0  0  0  0
  9 18  1  0  0  0  0
 10 31  1  0  0  0  0
 10 14  1  0  0  0  0
 11 12  1  0  0  0  0
 11  3  1  0  0  0  0
 11  5  1  0  0  0  0
 12 20  1  0  0  0  0
 12 15  1  0  0  0  0
 13  2  1  0  0  0  0
 16 17  1  0  0  0  0
 18 16  1  0  0  0  0
 18  4  1  0  0  0  0
 19  9  1  0  0  0  0
 20  8  1  0  0  0  0
 21 18  1  0  0  0  0
 22 11  1  0  0  0  0
 23 28  1  0  0  0  0
 24 26  2  0  0  0  0
 25 23  2  0  0  0  0
 25 24  1  0  0  0  0
 26 27  1  0  0  0  0
 28 27  2  0  0  0  0
 30 31  1  0  0  0  0
 31 29  2  0  0  0  0
M  END
>  <MODEL>
4

>  <REMARK>
 VINA RESULT:      -7.1      6.200      9.874
  Name = 
  2 active torsions:
  status: ('A' for Active; 'I' for Inactive)
    1  A    between atoms: C_1  and  C_3
    2  A    between atoms: C_15  and  C_29
                            x       y       z     vdW  Elec       q    Type
                         _______ _______ _______ _____ _____    ______ ____

>  <TORSDO>
F 2

$$$$
=
 OpenBabel11062415013D

 31 38  0  0  1  0  0  0  0  0999 V2000
  184.6460  179.6280  138.7270 C   0  0  1  0  0  3  0  0  0  0  0  0
  184.2710  178.2140  140.5520 C   0  0  2  0  0  3  0  0  0  0  0  0
  188.8130  178.3020  137.1380 C   0  0  2  0  0  3  0  0  0  0  0  0
  185.4860  178.4690  138.4330 C   0  0  1  0  0  0  0  0  0  0  0  0
  188.2800  175.9910  136.4640 N   0  0  2  0  0  0  0  0  0  0  0  0
  186.9930  176.7070  136.5840 C   0  0  2  0  0  3  0  0  0  0  0  0
  191.7200  175.9990  137.1530 C   0  0  0  0  0  1  0  0  0  0  0  0
  188.3910  175.0320  137.4320 O   0  0  0  0  0  0  0  0  0  0  0  0
  187.3730  178.1670  136.6800 C   0  0  1  0  0  0  0  0  0  0  0  0
  183.1840  179.2520  138.8060 C   0  0  1  0  0  3  0  0  0  0  0  0
  189.3820  176.9220  136.6970 C   0  0  2  0  0  0  0  0  0  0  0  0
  190.2790  176.1120  137.6430 C   0  0  0  0  0  0  0  0  0  0  0  0
  185.3310  178.9340  139.8360 N   0  0  1  0  0  0  0  0  0  0  0  0
  182.9600  178.6920  140.1250 N   0  0  0  0  0  2  0  0  0  0  0  0
  190.3450  176.5810  139.0900 C   0  0  0  0  0  1  0  0  0  0  0  0
  186.5060  176.7780  138.0530 C   0  0  2  0  0  3  0  0  0  0  0  0
  185.0690  177.0850  138.2350 N   0  0  0  0  0  2  0  0  0  0  0  0
  186.9140  178.2520  138.0900 C   0  0  2  0  0  0  0  0  0  0  0  0
  186.8050  179.1770  135.6950 C   0  0  0  0  0  1  0  0  0  0  0  0
  189.6980  174.8360  137.6110 O   0  0  0  0  0  0  0  0  0  0  0  0
  188.3080  178.4670  138.6100 C   0  0  0  0  0  2  0  0  0  0  0  0
  190.0250  177.1270  135.4690 O   0  0  0  0  0  1  0  0  0  0  0  0
  184.4440  178.3800  142.0280 C   0  0  0  0  0  0  0  0  0  0  0  0
  185.8130  178.2600  144.0310 C   0  0  0  0  0  3  0  0  0  0  0  0
  185.6810  178.1340  142.6430 C   0  0  0  0  0  3  0  0  0  0  0  0
  184.7110  178.6280  144.8070 C   0  0  0  0  0  3  0  0  0  0  0  0
  183.4750  178.8670  144.1970 C   0  0  0  0  0  3  0  0  0  0  0  0
  183.3420  178.7400  142.8100 C   0  0  0  0  0  3  0  0  0  0  0  0
  182.7810  181.6130  138.7180 O   0  0  0  0  0  0  0  0  0  0  0  0
  180.9650  180.2650  138.1740 N   0  0  0  0  0  1  0  0  0  0  0  0
  182.3180  180.4470  138.5850 C   0  0  0  0  0  0  0  0  0  0  0  0
  1 10  1  0  0  0  0
  1 13  1  0  0  0  0
  2 23  1  0  0  0  0
  3 21  1  0  0  0  0
  4  1  1  0  0  0  0
  4 13  1  0  0  0  0
  5  6  1  0  0  0  0
  5 11  1  0  0  0  0
  5  8  1  0  0  0  0
  6  9  1  0  0  0  0
  6 16  1  0  0  0  0
  7 12  1  0  0  0  0
  8 20  1  0  0  0  0
  9  3  1  0  0  0  0
  9 18  1  0  0  0  0
 10 14  1  0  0  0  0
 11  3  1  0  0  0  0
 11 12  1  0  0  0  0
 12 15  1  0  0  0  0
 13  2  1  0  0  0  0
 14  2  1  0  0  0  0
 16 18  1  0  0  0  0
 16 17  1  0  0  0  0
 17  4  1  0  0  0  0
 18  4  1  0  0  0  0
 18 21  1  0  0  0  0
 19  9  1  0  0  0  0
 20 12  1  0  0  0  0
 22 11  1  0  0  0  0
 23 25  2  0  0  0  0
 23 28  1  0  0  0  0
 24 26  2  0  0  0  0
 25 24  1  0  0  0  0
 27 26  1  0  0  0  0
 28 27  2  0  0  0  0
 30 31  1  0  0  0  0
 31 29  2  0  0  0  0
 31 10  1  0  0  0  0
M  END
>  <MODEL>
5

>  <REMARK>
 VINA RESULT:      -6.9      4.274      7.998
  Name = 
  2 active torsions:
  status: ('A' for Active; 'I' for Inactive)
    1  A    between atoms: C_1  and  C_3
    2  A    between atoms: C_15  and  C_29
                            x       y       z     vdW  Elec       q    Type
                         _______ _______ _______ _____ _____    ______ ____

>  <TORSDO>
F 2

$$$$
=
 OpenBabel11062415013D

 31 38  0  0  1  0  0  0  0  0999 V2000
  191.1410  174.7990  137.3920 C   0  0  1  0  0  3  0  0  0  0  0  0
  190.0490  176.6630  138.2880 C   0  0  2  0  0  3  0  0  0  0  0  0
  187.6700  171.8960  136.3090 C   0  0  2  0  0  3  0  0  0  0  0  0
  189.8050  174.7190  136.8070 C   0  0  1  0  0  0  0  0  0  0  0  0
  186.5230  173.2480  134.5950 N   0  0  2  0  0  0  0  0  0  0  0  0
  187.8820  173.8080  134.7400 C   0  0  2  0  0  3  0  0  0  0  0  0
  184.0590  171.1390  135.9320 C   0  0  0  0  0  1  0  0  0  0  0  0
  185.5840  174.1350  135.0460 O   0  0  0  0  0  0  0  0  0  0  0  0
  188.6400  172.7760  135.5440 C   0  0  1  0  0  0  0  0  0  0  0  0
  191.8540  176.0680  136.9870 C   0  0  1  0  0  3  0  0  0  0  0  0
  186.3880  172.0640  135.4410 C   0  0  2  0  0  0  0  0  0  0  0  0
  185.0250  172.3060  136.1030 C   0  0  0  0  0  0  0  0  0  0  0  0
  189.9740  175.1990  138.2030 N   0  0  1  0  0  0  0  0  0  0  0  0
  191.3600  177.1270  137.8460 N   0  0  0  0  0  2  0  0  0  0  0  0
  185.0390  172.6490  137.5870 C   0  0  0  0  0  1  0  0  0  0  0  0
  187.9850  174.7700  135.9510 C   0  0  2  0  0  3  0  0  0  0  0  0
  189.1460  175.6900  135.9400 N   0  0  0  0  0  2  0  0  0  0  0  0
  188.7450  173.6830  136.7150 C   0  0  2  0  0  0  0  0  0  0  0  0
  189.9280  172.1750  135.0040 C   0  0  0  0  0  1  0  0  0  0  0  0
  184.5230  173.4060  135.3940 O   0  0  0  0  0  0  0  0  0  0  0  0
  187.8520  172.8190  137.5600 C   0  0  0  0  0  2  0  0  0  0  0  0
  186.3300  170.9490  134.5940 O   0  0  0  0  0  1  0  0  0  0  0  0
  189.7690  177.1100  139.6880 C   0  0  0  0  0  0  0  0  0  0  0  0
  190.3210  177.1520  142.0530 C   0  0  0  0  0  3  0  0  0  0  0  0
  190.6210  176.7550  140.7440 C   0  0  0  0  0  3  0  0  0  0  0  0
  189.1700  177.9010  142.3080 C   0  0  0  0  0  3  0  0  0  0  0  0
  188.3150  178.2500  141.2580 C   0  0  0  0  0  3  0  0  0  0  0  0
  188.6130  177.8530  139.9500 C   0  0  0  0  0  3  0  0  0  0  0  0
  194.1160  176.8150  136.7250 O   0  0  0  0  0  0  0  0  0  0  0  0
  193.8550  174.7590  137.7810 N   0  0  0  0  0  1  0  0  0  0  0  0
  193.3310  175.9150  137.1320 C   0  0  0  0  0  0  0  0  0  0  0  0
  1 13  1  0  0  0  0
  2 23  1  0  0  0  0
  3 21  1  0  0  0  0
  4  1  1  0  0  0  0
  4 13  1  0  0  0  0
  5  6  1  0  0  0  0
  5  8  1  0  0  0  0
  5 11  1  0  0  0  0
  6  9  1  0  0  0  0
  6 16  1  0  0  0  0
  7 12  1  0  0  0  0
  8 20  1  0  0  0  0
  9  3  1  0  0  0  0
  9 18  1  0  0  0  0
 10 31  1  0  0  0  0
 10  1  1  0  0  0  0
 10 14  1  0  0  0  0
 11 12  1  0  0  0  0
 11  3  1  0  0  0  0
 12 15  1  0  0  0  0
 13  2  1  0  0  0  0
 14  2  1  0  0  0  0
 16 18  1  0  0  0  0
 17 16  1  0  0  0  0
 17  4  1  0  0  0  0
 18  4  1  0  0  0  0
 18 21  1  0  0  0  0
 19  9  1  0  0  0  0
 20 12  1  0  0  0  0
 22 11  1  0  0  0  0
 23 28  2  0  0  0  0
 23 25  1  0  0  0  0
 24 26  1  0  0  0  0
 25 24  2  0  0  0  0
 27 26  2  0  0  0  0
 28 27  1  0  0  0  0
 29 31  2  0  0  0  0
 31 30  1  0  0  0  0
M  END
>  <MODEL>
6

>  <REMARK>
 VINA RESULT:      -6.4      3.845      8.328
  Name = 
  2 active torsions:
  status: ('A' for Active; 'I' for Inactive)
    1  A    between atoms: C_1  and  C_3
    2  A    between atoms: C_15  and  C_29
                            x       y       z     vdW  Elec       q    Type
                         _______ _______ _______ _____ _____    ______ ____

>  <TORSDO>
F 2

$$$$
=
 OpenBabel11062415013D

 31 38  0  0  1  0  0  0  0  0999 V2000
  187.1730  177.4800  140.0240 C   0  0  1  0  0  3  0  0  0  0  0  0
  189.1050  177.6360  138.7140 C   0  0  2  0  0  3  0  0  0  0  0  0
  188.7970  176.5380  144.2810 C   0  0  2  0  0  3  0  0  0  0  0  0
  188.2120  177.8160  140.9950 C   0  0  1  0  0  0  0  0  0  0  0  0
  190.0740  178.6060  144.7020 N   0  0  2  0  0  0  0  0  0  0  0  0
  189.1390  178.8990  143.5960 C   0  0  2  0  0  3  0  0  0  0  0  0
  191.5950  176.1430  146.6830 C   0  0  0  0  0  1  0  0  0  0  0  0
  191.3670  178.6240  144.2590 O   0  0  0  0  0  0  0  0  0  0  0  0
  188.1750  177.7350  143.5870 C   0  0  1  0  0  0  0  0  0  0  0  0
  187.0120  178.5620  138.9820 C   0  0  1  0  0  3  0  0  0  0  0  0
  189.8410  177.2480  145.1920 C   0  0  2  0  0  0  0  0  0  0  0  0
  191.2730  176.7070  145.3040 C   0  0  0  0  0  0  0  0  0  0  0  0
  188.5280  176.9160  139.8550 N   0  0  1  0  0  0  0  0  0  0  0  0
  188.0630  178.3680  138.0000 N   0  0  0  0  0  2  0  0  0  0  0  0
  191.6830  175.6470  144.2900 C   0  0  0  0  0  1  0  0  0  0  0  0
  189.6840  178.4070  142.2320 C   0  0  2  0  0  3  0  0  0  0  0  0
  189.0510  179.0090  141.0360 N   0  0  0  0  0  2  0  0  0  0  0  0
  188.6880  177.2470  142.2820 C   0  0  2  0  0  0  0  0  0  0  0  0
  186.6780  177.9730  143.7080 C   0  0  0  0  0  1  0  0  0  0  0  0
  192.0570  177.8510  145.0980 O   0  0  0  0  0  0  0  0  0  0  0  0
  189.2640  175.9980  142.8880 C   0  0  0  0  0  2  0  0  0  0  0  0
  189.2580  177.3560  146.4610 O   0  0  0  0  0  1  0  0  0  0  0  0
  189.8030  176.6780  137.8030 C   0  0  0  0  0  0  0  0  0  0  0  0
  191.4250  176.2090  136.0560 C   0  0  0  0  0  3  0  0  0  0  0  0
  190.8100  177.1150  136.9280 C   0  0  0  0  0  3  0  0  0  0  0  0
  191.0350  174.8670  136.0540 C   0  0  0  0  0  3  0  0  0  0  0  0
  190.0270  174.4300  136.9200 C   0  0  0  0  0  3  0  0  0  0  0  0
  189.4100  175.3350  137.7910 C   0  0  0  0  0  3  0  0  0  0  0  0
  185.4210  177.6080  137.4650 O   0  0  0  0  0  0  0  0  0  0  0  0
  184.6390  179.3780  138.7550 N   0  0  0  0  0  1  0  0  0  0  0  0
  185.6680  178.4830  138.3390 C   0  0  0  0  0  0  0  0  0  0  0  0
  1  4  1  0  0  0  0
  2 13  1  0  0  0  0
  3 11  1  0  0  0  0
  4 17  1  0  0  0  0
  4 18  1  0  0  0  0
  5 11  1  0  0  0  0
  6  5  1  0  0  0  0
  8  5  1  0  0  0  0
  8 20  1  0  0  0  0
  9  6  1  0  0  0  0
  9 19  1  0  0  0  0
  9  3  1  0  0  0  0
 10  1  1  0  0  0  0
 11 12  1  0  0  0  0
 11 22  1  0  0  0  0
 12  7  1  0  0  0  0
 13  1  1  0  0  0  0
 13  4  1  0  0  0  0
 14  2  1  0  0  0  0
 14 10  1  0  0  0  0
 15 12  1  0  0  0  0
 16 18  1  0  0  0  0
 16  6  1  0  0  0  0
 17 16  1  0  0  0  0
 18 21  1  0  0  0  0
 18  9  1  0  0  0  0
 20 12  1  0  0  0  0
 21  3  1  0  0  0  0
 23  2  1  0  0  0  0
 24 25  1  0  0  0  0
 25 23  2  0  0  0  0
 26 24  2  0  0  0  0
 26 27  1  0  0  0  0
 27 28  2  0  0  0  0
 28 23  1  0  0  0  0
 29 31  2  0  0  0  0
 31 30  1  0  0  0  0
 31 10  1  0  0  0  0
M  END
>  <MODEL>
7

>  <REMARK>
 VINA RESULT:      -6.2      1.505      1.717
  Name = 
  2 active torsions:
  status: ('A' for Active; 'I' for Inactive)
    1  A    between atoms: C_1  and  C_3
    2  A    between atoms: C_15  and  C_29
                            x       y       z     vdW  Elec       q    Type
                         _______ _______ _______ _____ _____    ______ ____

>  <TORSDO>
F 2

$$$$
=
 OpenBabel11062415013D

 31 38  0  0  1  0  0  0  0  0999 V2000
  191.3620  177.6220  140.1710 C   0  0  1  0  0  3  0  0  0  0  0  0
  189.6830  176.6740  138.8480 C   0  0  2  0  0  3  0  0  0  0  0  0
  189.1470  178.8070  144.0880 C   0  0  2  0  0  3  0  0  0  0  0  0
  190.3720  177.1810  141.1500 C   0  0  1  0  0  0  0  0  0  0  0  0
  188.4650  176.5690  144.8670 N   0  0  2  0  0  0  0  0  0  0  0  0
  189.5440  176.3650  143.8790 C   0  0  2  0  0  3  0  0  0  0  0  0
  186.1370  178.7970  146.2550 C   0  0  0  0  0  1  0  0  0  0  0  0
  187.2750  176.0930  144.3890 O   0  0  0  0  0  0  0  0  0  0  0  0
  190.1410  177.7390  143.6730 C   0  0  1  0  0  0  0  0  0  0  0  0
  191.9160  176.4640  139.3740 C   0  0  1  0  0  3  0  0  0  0  0  0
  188.2620  178.0000  145.0830 C   0  0  2  0  0  0  0  0  0  0  0  0
  186.7320  178.1100  145.0300 C   0  0  0  0  0  0  0  0  0  0  0  0
  189.9270  177.7260  139.8420 N   0  0  1  0  0  0  0  0  0  0  0  0
  190.9500  176.1620  138.3350 N   0  0  0  0  0  2  0  0  0  0  0  0
  186.1400  178.8020  143.8090 C   0  0  0  0  0  1  0  0  0  0  0  0
  189.0140  176.4200  142.4240 C   0  0  2  0  0  3  0  0  0  0  0  0
  189.8990  175.8230  141.3990 N   0  0  0  0  0  2  0  0  0  0  0  0
  189.6370  177.8100  142.2770 C   0  0  2  0  0  0  0  0  0  0  0  0
  191.6270  177.9730  143.8950 C   0  0  0  0  0  1  0  0  0  0  0  0
  186.3210  176.7700  145.0290 O   0  0  0  0  0  0  0  0  0  0  0  0
  188.6820  178.9240  142.5990 C   0  0  0  0  0  2  0  0  0  0  0  0
  188.7300  178.3000  146.3690 O   0  0  0  0  0  1  0  0  0  0  0  0
  188.8340  177.2040  137.7370 C   0  0  0  0  0  0  0  0  0  0  0  0
  186.7450  178.1400  136.9230 C   0  0  0  0  0  3  0  0  0  0  0  0
  187.5380  177.6820  137.9820 C   0  0  0  0  0  3  0  0  0  0  0  0
  187.2440  178.1180  135.6180 C   0  0  0  0  0  3  0  0  0  0  0  0
  188.5330  177.6360  135.3690 C   0  0  0  0  0  3  0  0  0  0  0  0
  189.3260  177.1770  136.4270 C   0  0  0  0  0  3  0  0  0  0  0  0
  194.1310  177.3740  139.4760 O   0  0  0  0  0  0  0  0  0  0  0  0
  193.5110  176.4710  137.4240 N   0  0  0  0  0  1  0  0  0  0  0  0
  193.2390  176.8150  138.7810 C   0  0  0  0  0  0  0  0  0  0  0  0
  1  4  1  0  0  0  0
  2 13  1  0  0  0  0
  3 11  1  0  0  0  0
  4 17  1  0  0  0  0
  4 18  1  0  0  0  0
  5 11  1  0  0  0  0
  6  5  1  0  0  0  0
  8  5  1  0  0  0  0
  8 20  1  0  0  0  0
  9  6  1  0  0  0  0
  9 19  1  0  0  0  0
  9  3  1  0  0  0  0
 10  1  1  0  0  0  0
 11 22  1  0  0  0  0
 12 11  1  0  0  0  0
 12  7  1  0  0  0  0
 13  1  1  0  0  0  0
 13  4  1  0  0  0  0
 14  2  1  0  0  0  0
 14 10  1  0  0  0  0
 15 12  1  0  0  0  0
 16  6  1  0  0  0  0
 17 16  1  0  0  0  0
 18 16  1  0  0  0  0
 18 21  1  0  0  0  0
 18  9  1  0  0  0  0
 20 12  1  0  0  0  0
 21  3  1  0  0  0  0
 23 25  1  0  0  0  0
 23  2  1  0  0  0  0
 24 25  2  0  0  0  0
 26 24  1  0  0  0  0
 27 26  2  0  0  0  0
 27 28  1  0  0  0  0
 28 23  2  0  0  0  0
 30 31  1  0  0  0  0
 31 10  1  0  0  0  0
 31 29  2  0  0  0  0
M  END
>  <MODEL>
8

>  <REMARK>
 VINA RESULT:      -6.1      2.504      4.413
  Name = 
  2 active torsions:
  status: ('A' for Active; 'I' for Inactive)
    1  A    between atoms: C_1  and  C_3
    2  A    between atoms: C_15  and  C_29
                            x       y       z     vdW  Elec       q    Type
                         _______ _______ _______ _____ _____    ______ ____

>  <TORSDO>
F 2

$$$$
=
 OpenBabel11062415013D

 31 38  0  0  1  0  0  0  0  0999 V2000
  189.9410  176.3780  138.8850 C   0  0  1  0  0  3  0  0  0  0  0  0
  188.6970  175.6330  137.0500 C   0  0  2  0  0  3  0  0  0  0  0  0
  194.2180  174.7440  138.0590 C   0  0  2  0  0  3  0  0  0  0  0  0
  190.9530  176.1830  137.8500 C   0  0  1  0  0  0  0  0  0  0  0  0
  194.7370  175.9780  135.9880 N   0  0  2  0  0  0  0  0  0  0  0  0
  193.6110  176.6830  136.6340 C   0  0  2  0  0  3  0  0  0  0  0  0
  196.6940  173.0690  135.8650 C   0  0  0  0  0  1  0  0  0  0  0  0
  194.3350  175.3980  134.8160 O   0  0  0  0  0  0  0  0  0  0  0  0
  193.5390  176.1000  138.0270 C   0  0  1  0  0  0  0  0  0  0  0  0
  188.9250  177.4220  138.4830 C   0  0  1  0  0  3  0  0  0  0  0  0
  195.1810  174.8780  136.8430 C   0  0  2  0  0  0  0  0  0  0  0  0
  195.3220  173.7330  135.8320 C   0  0  0  0  0  0  0  0  0  0  0  0
  189.7990  175.2510  137.9410 N   0  0  1  0  0  0  0  0  0  0  0  0
  187.9720  176.7720  137.6030 N   0  0  0  0  0  2  0  0  0  0  0  0
  194.2920  172.6150  135.9190 C   0  0  0  0  0  1  0  0  0  0  0  0
  192.2510  176.0090  136.3230 C   0  0  2  0  0  3  0  0  0  0  0  0
  191.0540  176.8490  136.5560 N   0  0  0  0  0  2  0  0  0  0  0  0
  192.2370  175.4440  137.7450 C   0  0  2  0  0  0  0  0  0  0  0  0
  193.6200  177.0060  139.2450 C   0  0  0  0  0  1  0  0  0  0  0  0
  195.1730  174.3840  134.5990 O   0  0  0  0  0  0  0  0  0  0  0  0
  192.8260  174.0640  137.8390 C   0  0  0  0  0  2  0  0  0  0  0  0
  196.4340  175.2310  137.3620 O   0  0  0  0  0  1  0  0  0  0  0  0
  187.7810  174.4700  136.8390 C   0  0  0  0  0  0  0  0  0  0  0  0
  185.5470  173.5340  136.6470 C   0  0  0  0  0  3  0  0  0  0  0  0
  186.3880  174.6420  136.8080 C   0  0  0  0  0  3  0  0  0  0  0  0
  186.0940  172.2550  136.5200 C   0  0  0  0  0  3  0  0  0  0  0  0
  187.4810  172.0800  136.5570 C   0  0  0  0  0  3  0  0  0  0  0  0
  188.3230  173.1850  136.7190 C   0  0  0  0  0  3  0  0  0  0  0  0
  187.1600  178.6270  139.5680 O   0  0  0  0  0  0  0  0  0  0  0  0
  188.7890  177.7490  140.9780 N   0  0  0  0  0  1  0  0  0  0  0  0
  188.2390  177.9830  139.6830 C   0  0  0  0  0  0  0  0  0  0  0  0
  2 14  1  0  0  0  0
  2 13  1  0  0  0  0
  4 13  1  0  0  0  0
  4  1  1  0  0  0  0
  5  6  1  0  0  0  0
  5 11  1  0  0  0  0
  6  9  1  0  0  0  0
  8  5  1  0  0  0  0
  9  3  1  0  0  0  0
  9 19  1  0  0  0  0
 10  1  1  0  0  0  0
 10 31  1  0  0  0  0
 11 22  1  0  0  0  0
 11  3  1  0  0  0  0
 12  7  1  0  0  0  0
 12 15  1  0  0  0  0
 12 11  1  0  0  0  0
 13  1  1  0  0  0  0
 14 10  1  0  0  0  0
 16 17  1  0  0  0  0
 16  6  1  0  0  0  0
 16 18  1  0  0  0  0
 17  4  1  0  0  0  0
 18 21  1  0  0  0  0
 18  4  1  0  0  0  0
 18  9  1  0  0  0  0
 20  8  1  0  0  0  0
 20 12  1  0  0  0  0
 21  3  1  0  0  0  0
 23  2  1  0  0  0  0
 24 25  2  0  0  0  0
 25 23  1  0  0  0  0
 26 27  2  0  0  0  0
 26 24  1  0  0  0  0
 27 28  1  0  0  0  0
 28 23  2  0  0  0  0
 29 31  2  0  0  0  0
 31 30  1  0  0  0  0
M  END
>  <MODEL>
9

>  <REMARK>
 VINA RESULT:      -5.9      3.952      7.235
  Name = 
  2 active torsions:
  status: ('A' for Active; 'I' for Inactive)
    1  A    between atoms: C_1  and  C_3
    2  A    between atoms: C_15  and  C_29
                            x       y       z     vdW  Elec       q    Type
                         _______ _______ _______ _____ _____    ______ ____

>  <TORSDO>
F 2

$$$$
