=
 OpenBabel11062413413D

 42 48  0  0  1  0  0  0  0  0999 V2000
  186.8390  177.7220  139.0020 C   0  0  1  0  0  3  0  0  0  0  0  0
  186.6540  176.5150  136.8020 C   0  0  2  0  0  3  0  0  0  0  0  0
  186.5910  178.4410  141.1660 C   0  0  1  0  0  3  0  0  0  0  0  0
  189.0190  174.2110  135.8650 N   0  0  0  0  0  0  0  0  0  0  0  0
  186.0560  179.5200  142.0950 C   0  0  0  0  0  2  0  0  0  0  0  0
  184.5530  179.2590  142.3150 C   0  0  0  0  0  2  0  0  0  0  0  0
  187.7990  176.2540  135.8200 C   0  0  2  0  0  3  0  0  0  0  0  0
  189.7710  175.1780  136.5310 N   0  0  0  0  0  0  0  0  0  0  0  0
  189.0790  178.9780  138.8630 C   0  0  0  0  0  2  0  0  0  0  0  0
  182.4330  177.6920  138.9250 N   0  0  0  0  0  0  0  0  0  0  0  0
  189.0880  178.7090  137.3690 C   0  0  1  0  0  3  0  0  0  0  0  0
  185.4290  176.3710  136.1520 O   0  0  0  0  0  1  0  0  0  0  0  0
  183.8170  178.7310  141.0930 C   0  0  0  0  0  0  0  0  0  0  0  0
  187.8200  174.8150  135.4310 C   0  0  0  0  0  0  0  0  0  0  0  0
  186.6970  177.8830  137.4770 C   0  0  2  0  0  3  0  0  0  0  0  0
  188.2380  177.9450  139.6160 C   0  0  1  0  0  3  0  0  0  0  0  0
  185.9790  178.6480  139.8110 C   0  0  2  0  0  3  0  0  0  0  0  0
  183.7780  177.8620  138.8240 C   0  0  0  0  0  3  0  0  0  0  0  0
  188.0370  178.4370  140.9850 N   0  0  0  0  0  0  0  0  0  0  0  0
  189.2690  172.7840  135.9670 C   0  0  0  0  0  1  0  0  0  0  0  0
  181.7570  178.0050  140.0650 C   0  0  0  0  0  3  0  0  0  0  0  0
  184.5090  178.3540  139.9110 C   0  0  0  0  0  0  0  0  0  0  0  0
  189.1440  176.3140  136.5180 C   0  0  0  0  0  0  0  0  0  0  0  0
  182.4380  178.5290  141.1680 C   0  0  0  0  0  3  0  0  0  0  0  0
  189.7220  177.4530  137.0930 O   0  0  0  0  0  0  0  0  0  0  0  0
  187.6680  178.8740  136.8300 C   0  0  0  0  0  2  0  0  0  0  0  0
  186.9070  174.2030  134.8110 O   0  0  0  0  0  0  0  0  0  0  0  0
  188.5780  177.4200  141.8760 C   0  0  0  0  0  2  0  0  0  0  0  0
  190.0090  177.7650  142.2480 C   0  0  2  0  0  3  0  0  0  0  0  0
  190.9100  176.5630  142.0290 C   0  0  0  0  0  1  0  0  0  0  0  0
  190.5020  179.3910  143.8730 O   0  0  0  0  0  0  0  0  0  0  0  0
  190.0890  178.2610  143.6640 C   0  0  0  0  0  0  0  0  0  0  0  0
  190.2860  176.1260  146.8450 C   0  0  0  0  0  2  0  0  0  0  0  0
  189.6030  177.4140  144.8090 C   0  0  1  0  0  3  0  0  0  0  0  0
  189.1670  179.0460  147.6060 F   0  0  0  0  0  0  0  0  0  0  0  0
  188.5780  176.0840  148.4720 O   0  0  0  0  0  0  0  0  0  0  0  0
  190.7650  177.0560  145.7350 C   0  0  0  0  0  2  0  0  0  0  0  0
  189.0720  176.6850  147.5340 C   0  0  0  0  0  0  0  0  0  0  0  0
  188.4600  177.9810  147.0720 C   0  0  2  0  0  3  0  0  0  0  0  0
  188.4270  178.0940  145.5400 C   0  0  2  0  0  3  0  0  0  0  0  0
  187.1550  177.5700  145.0280 C   0  0  0  0  0  0  0  0  0  0  0  0
  186.1070  177.1390  144.6110 C   0  0  0  0  0  3  0  0  0  0  0  0
  1 16  1  0  0  0  0
  1 17  1  0  0  0  0
  2 15  1  0  0  0  0
  3  5  1  0  0  0  0
  4 20  1  0  0  0  0
  4  8  1  0  0  0  0
  5  6  1  0  0  0  0
  7 23  1  0  0  0  0
  7  2  1  0  0  0  0
  9 16  1  0  0  0  0
 10 21  1  0  0  0  0
 11  9  1  0  0  0  0
 12  2  1  0  0  0  0
 13 24  1  0  0  0  0
 13  6  1  0  0  0  0
 14  7  1  0  0  0  0
 14  4  1  0  0  0  0
 15  1  1  0  0  0  0
 16 19  1  0  0  0  0
 17 22  1  0  0  0  0
 17  3  1  0  0  0  0
 18 10  2  0  0  0  0
 18 22  1  0  0  0  0
 19  3  1  0  0  0  0
 19 28  1  0  0  0  0
 21 24  2  0  0  0  0
 22 13  2  0  0  0  0
 23  8  2  0  0  0  0
 23 25  1  0  0  0  0
 25 11  1  0  0  0  0
 26 11  1  0  0  0  0
 26 15  1  0  0  0  0
 27 14  2  0  0  0  0
 28 29  1  0  0  0  0
 29 32  1  0  0  0  0
 30 29  1  0  0  0  0
 32 31  2  0  0  0  0
 32 34  1  0  0  0  0
 33 38  1  0  0  0  0
 34 40  1  0  0  0  0
 34 37  1  0  0  0  0
 37 33  1  0  0  0  0
 38 36  2  0  0  0  0
 39 38  1  0  0  0  0
 39 35  1  0  0  0  0
 40 39  1  0  0  0  0
 41 40  1  0  0  0  0
 42 41  3  0  0  0  0
M  END
>  <MODEL>
1

>  <REMARK>
 VINA RESULT:      -8.2      0.000      0.000
  Name = 
  5 active torsions:
  status: ('A' for Active; 'I' for Inactive)
    1  A    between atoms: C_3  and  C_41
    2  A    between atoms: C_14  and  C_20
    3  A    between atoms: C_14  and  N_29
    4  A    between atoms: C_20  and  C_41
    5  A    between atoms: C_39  and  C_40
                            x       y       z     vdW  Elec       q    Type
                         _______ _______ _______ _____ _____    ______ ____

>  <TORSDO>
F 5

$$$$
=
 OpenBabel11062413413D

 42 48  0  0  1  0  0  0  0  0999 V2000
  185.9570  175.8520  137.3220 C   0  0  1  0  0  3  0  0  0  0  0  0
  188.4620  175.6560  137.4310 C   0  0  2  0  0  3  0  0  0  0  0  0
  183.6950  175.4790  137.4160 C   0  0  1  0  0  3  0  0  0  0  0  0
  190.2200  177.0940  140.0060 N   0  0  0  0  0  0  0  0  0  0  0  0
  182.4130  175.2260  136.6370 C   0  0  0  0  0  2  0  0  0  0  0  0
  182.3550  173.7260  136.2870 C   0  0  0  0  0  2  0  0  0  0  0  0
  189.4390  176.7830  137.7790 C   0  0  2  0  0  3  0  0  0  0  0  0
  189.1960  178.0110  139.7750 N   0  0  0  0  0  0  0  0  0  0  0  0
  185.5120  178.3820  137.1970 C   0  0  0  0  0  2  0  0  0  0  0  0
  186.1350  171.8780  135.4260 N   0  0  0  0  0  0  0  0  0  0  0  0
  186.9820  178.5820  136.8750 C   0  0  1  0  0  3  0  0  0  0  0  0
  189.1400  174.6230  136.7850 O   0  0  0  0  0  1  0  0  0  0  0  0
  183.7020  173.0990  135.9580 C   0  0  0  0  0  0  0  0  0  0  0  0
  190.3900  176.3270  138.8330 C   0  0  0  0  0  0  0  0  0  0  0  0
  187.2790  176.0850  136.5690 C   0  0  2  0  0  3  0  0  0  0  0  0
  185.2750  177.0800  137.9650 C   0  0  1  0  0  3  0  0  0  0  0  0
  184.8550  175.2710  136.4860 C   0  0  2  0  0  3  0  0  0  0  0  0
  186.1270  173.1780  135.8260 C   0  0  0  0  0  3  0  0  0  0  0  0
  183.8300  176.8180  137.9740 N   0  0  0  0  0  0  0  0  0  0  0  0
  190.7160  176.7530  141.3280 C   0  0  0  0  0  1  0  0  0  0  0  0
  184.9830  171.1640  135.2950 C   0  0  0  0  0  3  0  0  0  0  0  0
  184.9180  173.8120  136.1330 C   0  0  0  0  0  0  0  0  0  0  0  0
  188.7500  177.8830  138.5640 C   0  0  0  0  0  0  0  0  0  0  0  0
  183.7470  171.7630  135.5590 C   0  0  0  0  0  3  0  0  0  0  0  0
  187.7410  178.7270  138.0830 O   0  0  0  0  0  0  0  0  0  0  0  0
  187.4340  177.4690  135.9310 C   0  0  0  0  0  2  0  0  0  0  0  0
  191.2280  175.3910  138.7170 O   0  0  0  0  0  0  0  0  0  0  0  0
  183.4300  176.7420  139.3730 C   0  0  0  0  0  2  0  0  0  0  0  0
  182.8900  178.0840  139.8320 C   0  0  2  0  0  3  0  0  0  0  0  0
  182.4820  178.9210  138.6330 C   0  0  0  0  0  1  0  0  0  0  0  0
  184.5000  179.7530  140.2190 O   0  0  0  0  0  0  0  0  0  0  0  0
  183.8950  178.8010  140.6870 C   0  0  0  0  0  0  0  0  0  0  0  0
  185.8160  177.7790  143.8470 C   0  0  0  0  0  2  0  0  0  0  0  0
  184.1120  178.4060  142.1230 C   0  0  1  0  0  3  0  0  0  0  0  0
  184.9600  180.8730  144.0900 F   0  0  0  0  0  0  0  0  0  0  0  0
  185.1380  178.3990  146.0200 O   0  0  0  0  0  0  0  0  0  0  0  0
  185.6050  178.2650  142.4170 C   0  0  0  0  0  2  0  0  0  0  0  0
  185.0530  178.6280  144.8250 C   0  0  0  0  0  0  0  0  0  0  0  0
  184.1800  179.7560  144.3420 C   0  0  2  0  0  3  0  0  0  0  0  0
  183.3900  179.3780  143.0790 C   0  0  2  0  0  3  0  0  0  0  0  0
  182.0830  178.8260  143.4550 C   0  0  0  0  0  0  0  0  0  0  0  0
  181.0050  178.3760  143.7630 C   0  0  0  0  0  3  0  0  0  0  0  0
  1 16  1  0  0  0  0
  2  7  1  0  0  0  0
  3 19  1  0  0  0  0
  4 20  1  0  0  0  0
  5  3  1  0  0  0  0
  6  5  1  0  0  0  0
  7 23  1  0  0  0  0
  7 14  1  0  0  0  0
  8  4  1  0  0  0  0
  9 16  1  0  0  0  0
 10 18  1  0  0  0  0
 11  9  1  0  0  0  0
 11 25  1  0  0  0  0
 12  2  1  0  0  0  0
 13 22  1  0  0  0  0
 13  6  1  0  0  0  0
 14  4  1  0  0  0  0
 15  1  1  0  0  0  0
 15  2  1  0  0  0  0
 16 19  1  0  0  0  0
 17  1  1  0  0  0  0
 17  3  1  0  0  0  0
 18 22  2  0  0  0  0
 19 28  1  0  0  0  0
 21 10  2  0  0  0  0
 21 24  1  0  0  0  0
 22 17  1  0  0  0  0
 23  8  2  0  0  0  0
 24 13  2  0  0  0  0
 25 23  1  0  0  0  0
 26 15  1  0  0  0  0
 26 11  1  0  0  0  0
 27 14  2  0  0  0  0
 28 29  1  0  0  0  0
 29 32  1  0  0  0  0
 30 29  1  0  0  0  0
 31 32  2  0  0  0  0
 32 34  1  0  0  0  0
 33 38  1  0  0  0  0
 34 37  1  0  0  0  0
 34 40  1  0  0  0  0
 35 39  1  0  0  0  0
 37 33  1  0  0  0  0
 38 36  2  0  0  0  0
 39 38  1  0  0  0  0
 40 41  1  0  0  0  0
 40 39  1  0  0  0  0
 41 42  3  0  0  0  0
M  END
>  <MODEL>
2

>  <REMARK>
 VINA RESULT:      -7.9      2.841      5.755
  Name = 
  5 active torsions:
  status: ('A' for Active; 'I' for Inactive)
    1  A    between atoms: C_3  and  C_41
    2  A    between atoms: C_14  and  C_20
    3  A    between atoms: C_14  and  N_29
    4  A    between atoms: C_20  and  C_41
    5  A    between atoms: C_39  and  C_40
                            x       y       z     vdW  Elec       q    Type
                         _______ _______ _______ _____ _____    ______ ____

>  <TORSDO>
F 5

$$$$
=
 OpenBabel11062413413D

 42 48  0  0  1  0  0  0  0  0999 V2000
  187.5110  176.7860  137.8740 C   0  0  1  0  0  3  0  0  0  0  0  0
  186.3470  175.4160  136.1140 C   0  0  2  0  0  3  0  0  0  0  0  0
  188.1890  177.7700  139.8330 C   0  0  1  0  0  3  0  0  0  0  0  0
  187.8100  172.5790  134.8530 N   0  0  0  0  0  0  0  0  0  0  0  0
  188.2090  179.0310  140.6830 C   0  0  0  0  0  2  0  0  0  0  0  0
  186.8690  179.1170  141.4400 C   0  0  0  0  0  2  0  0  0  0  0  0
  186.9970  174.8160  134.8650 C   0  0  2  0  0  3  0  0  0  0  0  0
  188.8950  173.4320  135.0440 N   0  0  0  0  0  0  0  0  0  0  0  0
  189.7140  177.5210  136.7680 C   0  0  0  0  0  2  0  0  0  0  0  0
  183.4370  177.6760  139.2980 N   0  0  0  0  0  0  0  0  0  0  0  0
  189.1340  177.0970  135.4300 C   0  0  1  0  0  3  0  0  0  0  0  0
  184.9630  175.4650  135.9520 O   0  0  0  0  0  1  0  0  0  0  0  0
  185.6630  178.6280  140.6510 C   0  0  0  0  0  0  0  0  0  0  0  0
  186.6470  173.3710  134.7500 C   0  0  0  0  0  0  0  0  0  0  0  0
  186.8500  176.8090  136.4840 C   0  0  2  0  0  3  0  0  0  0  0  0
  189.0550  176.7750  137.9300 C   0  0  1  0  0  3  0  0  0  0  0  0
  187.1650  177.9540  138.7500 C   0  0  2  0  0  3  0  0  0  0  0  0
  184.6610  177.5480  138.7190 C   0  0  0  0  0  3  0  0  0  0  0  0
  189.4480  177.4420  139.1770 N   0  0  0  0  0  0  0  0  0  0  0  0
  187.8500  171.1500  135.1120 C   0  0  0  0  0  1  0  0  0  0  0  0
  183.2830  178.2450  140.5250 C   0  0  0  0  0  3  0  0  0  0  0  0
  185.8060  177.9890  139.3910 C   0  0  0  0  0  0  0  0  0  0  0  0
  188.4960  174.6660  135.0450 C   0  0  0  0  0  0  0  0  0  0  0  0
  184.3940  178.7300  141.2220 C   0  0  0  0  0  3  0  0  0  0  0  0
  189.4160  175.7130  135.1820 O   0  0  0  0  0  0  0  0  0  0  0  0
  187.6610  177.4980  135.3830 C   0  0  0  0  0  2  0  0  0  0  0  0
  185.4850  172.9030  134.5940 O   0  0  0  0  0  0  0  0  0  0  0  0
  190.1090  176.4360  139.9960 C   0  0  0  0  0  2  0  0  0  0  0  0
  190.7030  177.0830  141.2340 C   0  0  2  0  0  3  0  0  0  0  0  0
  192.2190  177.0180  141.1820 C   0  0  0  0  0  1  0  0  0  0  0  0
  190.4100  175.2630  142.6940 O   0  0  0  0  0  0  0  0  0  0  0  0
  190.1680  176.4410  142.4820 C   0  0  0  0  0  0  0  0  0  0  0  0
  187.3070  177.3710  144.8640 C   0  0  0  0  0  2  0  0  0  0  0  0
  189.4030  177.2450  143.4990 C   0  0  1  0  0  3  0  0  0  0  0  0
  189.7790  176.2340  146.5830 F   0  0  0  0  0  0  0  0  0  0  0  0
  187.6480  178.5220  146.8940 O   0  0  0  0  0  0  0  0  0  0  0  0
  188.1220  176.5140  143.9010 C   0  0  0  0  0  2  0  0  0  0  0  0
  188.1520  177.8510  146.0100 C   0  0  0  0  0  0  0  0  0  0  0  0
  189.6180  177.5120  146.0740 C   0  0  2  0  0  3  0  0  0  0  0  0
  190.2970  177.6140  144.6990 C   0  0  2  0  0  3  0  0  0  0  0  0
  190.8470  178.9630  144.5130 C   0  0  0  0  0  0  0  0  0  0  0  0
  191.3010  180.0710  144.3570 C   0  0  0  0  0  3  0  0  0  0  0  0
  1 16  1  0  0  0  0
  1 17  1  0  0  0  0
  2 15  1  0  0  0  0
  3  5  1  0  0  0  0
  4  8  1  0  0  0  0
  4 20  1  0  0  0  0
  5  6  1  0  0  0  0
  7 23  1  0  0  0  0
  7  2  1  0  0  0  0
  8 23  2  0  0  0  0
  9 16  1  0  0  0  0
 10 21  1  0  0  0  0
 11  9  1  0  0  0  0
 12  2  1  0  0  0  0
 13 24  1  0  0  0  0
 13  6  1  0  0  0  0
 14  4  1  0  0  0  0
 14  7  1  0  0  0  0
 15  1  1  0  0  0  0
 16 19  1  0  0  0  0
 17 22  1  0  0  0  0
 17  3  1  0  0  0  0
 18 10  2  0  0  0  0
 18 22  1  0  0  0  0
 19  3  1  0  0  0  0
 19 28  1  0  0  0  0
 21 24  2  0  0  0  0
 22 13  2  0  0  0  0
 23 25  1  0  0  0  0
 25 11  1  0  0  0  0
 26 11  1  0  0  0  0
 26 15  1  0  0  0  0
 27 14  2  0  0  0  0
 28 29  1  0  0  0  0
 29 32  1  0  0  0  0
 30 29  1  0  0  0  0
 32 31  2  0  0  0  0
 32 34  1  0  0  0  0
 33 38  1  0  0  0  0
 34 37  1  0  0  0  0
 34 40  1  0  0  0  0
 37 33  1  0  0  0  0
 38 39  1  0  0  0  0
 38 36  2  0  0  0  0
 39 35  1  0  0  0  0
 40 39  1  0  0  0  0
 41 40  1  0  0  0  0
 42 41  3  0  0  0  0
M  END
>  <MODEL>
3

>  <REMARK>
 VINA RESULT:      -7.8      1.658      2.459
  Name = 
  5 active torsions:
  status: ('A' for Active; 'I' for Inactive)
    1  A    between atoms: C_3  and  C_41
    2  A    between atoms: C_14  and  C_20
    3  A    between atoms: C_14  and  N_29
    4  A    between atoms: C_20  and  C_41
    5  A    between atoms: C_39  and  C_40
                            x       y       z     vdW  Elec       q    Type
                         _______ _______ _______ _____ _____    ______ ____

>  <TORSDO>
F 5

$$$$
=
 OpenBabel11062413413D

 42 48  0  0  1  0  0  0  0  0999 V2000
  186.8290  177.7380  138.9190 C   0  0  1  0  0  3  0  0  0  0  0  0
  186.5310  176.6190  136.6850 C   0  0  2  0  0  3  0  0  0  0  0  0
  186.6930  178.3700  141.1200 C   0  0  1  0  0  3  0  0  0  0  0  0
  188.8450  174.3580  135.5380 N   0  0  0  0  0  0  0  0  0  0  0  0
  186.2060  179.4100  142.1180 C   0  0  0  0  0  2  0  0  0  0  0  0
  184.7160  179.1380  142.4030 C   0  0  0  0  0  2  0  0  0  0  0  0
  187.6250  176.3990  135.6360 C   0  0  2  0  0  3  0  0  0  0  0  0
  189.6300  175.3000  136.2020 N   0  0  0  0  0  0  0  0  0  0  0  0
  189.0590  179.0020  138.7160 C   0  0  0  0  0  2  0  0  0  0  0  0
  182.4250  177.7030  139.0670 N   0  0  0  0  0  0  0  0  0  0  0  0
  188.9920  178.7930  137.2140 C   0  0  1  0  0  3  0  0  0  0  0  0
  185.2740  176.4990  136.0930 O   0  0  0  0  0  1  0  0  0  0  0  0
  183.9180  178.6580  141.2000 C   0  0  0  0  0  0  0  0  0  0  0  0
  187.6250  174.9770  135.1890 C   0  0  0  0  0  0  0  0  0  0  0  0
  186.6090  177.9590  137.4110 C   0  0  2  0  0  3  0  0  0  0  0  0
  188.2570  177.9390  139.4690 C   0  0  1  0  0  3  0  0  0  0  0  0
  186.0120  178.6290  139.8080 C   0  0  2  0  0  3  0  0  0  0  0  0
  183.7630  177.8800  138.9040 C   0  0  0  0  0  3  0  0  0  0  0  0
  188.1270  178.3760  140.8650 N   0  0  0  0  0  0  0  0  0  0  0  0
  189.1000  172.9280  135.5690 C   0  0  0  0  0  1  0  0  0  0  0  0
  181.8080  177.9690  140.2510 C   0  0  0  0  0  3  0  0  0  0  0  0
  184.5480  178.3290  139.9710 C   0  0  0  0  0  0  0  0  0  0  0  0
  189.0040  176.4340  136.2660 C   0  0  0  0  0  0  0  0  0  0  0  0
  182.5450  178.4500  141.3380 C   0  0  0  0  0  3  0  0  0  0  0  0
  189.6100  177.5500  136.8560 O   0  0  0  0  0  0  0  0  0  0  0  0
  187.5460  178.9770  136.7550 C   0  0  0  0  0  2  0  0  0  0  0  0
  186.6810  174.3890  134.5930 O   0  0  0  0  0  0  0  0  0  0  0  0
  188.7130  177.3250  141.6860 C   0  0  0  0  0  2  0  0  0  0  0  0
  189.1580  177.8960  143.0200 C   0  0  2  0  0  3  0  0  0  0  0  0
  190.6570  177.7310  143.1860 C   0  0  0  0  0  1  0  0  0  0  0  0
  187.7210  176.2710  143.9280 O   0  0  0  0  0  0  0  0  0  0  0  0
  188.4050  177.2570  144.1530 C   0  0  0  0  0  0  0  0  0  0  0  0
  187.3600  178.9070  147.4550 C   0  0  0  0  0  2  0  0  0  0  0  0
  188.5410  177.7730  145.5600 C   0  0  1  0  0  3  0  0  0  0  0  0
  187.4700  175.7160  147.8630 F   0  0  0  0  0  0  0  0  0  0  0  0
  188.2310  178.2560  149.5490 O   0  0  0  0  0  0  0  0  0  0  0  0
  187.1990  178.3050  146.0630 C   0  0  0  0  0  2  0  0  0  0  0  0
  188.0520  177.9480  148.3830 C   0  0  0  0  0  0  0  0  0  0  0  0
  188.5290  176.6100  147.8840 C   0  0  2  0  0  3  0  0  0  0  0  0
  189.1580  176.7040  146.4840 C   0  0  2  0  0  3  0  0  0  0  0  0
  190.6050  176.9240  146.6020 C   0  0  0  0  0  0  0  0  0  0  0  0
  191.7940  177.1080  146.6960 C   0  0  0  0  0  3  0  0  0  0  0  0
  1 16  1  0  0  0  0
  1 17  1  0  0  0  0
  2 15  1  0  0  0  0
  3  5  1  0  0  0  0
  4 20  1  0  0  0  0
  4  8  1  0  0  0  0
  5  6  1  0  0  0  0
  7 23  1  0  0  0  0
  7  2  1  0  0  0  0
  8 23  2  0  0  0  0
  9 16  1  0  0  0  0
 10 21  1  0  0  0  0
 11  9  1  0  0  0  0
 12  2  1  0  0  0  0
 13 24  1  0  0  0  0
 13  6  1  0  0  0  0
 14  4  1  0  0  0  0
 14  7  1  0  0  0  0
 15  1  1  0  0  0  0
 16 19  1  0  0  0  0
 17 22  1  0  0  0  0
 17  3  1  0  0  0  0
 18 10  2  0  0  0  0
 18 22  1  0  0  0  0
 19  3  1  0  0  0  0
 19 28  1  0  0  0  0
 21 24  2  0  0  0  0
 22 13  2  0  0  0  0
 23 25  1  0  0  0  0
 25 11  1  0  0  0  0
 26 11  1  0  0  0  0
 26 15  1  0  0  0  0
 27 14  2  0  0  0  0
 28 29  1  0  0  0  0
 29 30  1  0  0  0  0
 29 32  1  0  0  0  0
 31 32  2  0  0  0  0
 32 34  1  0  0  0  0
 33 38  1  0  0  0  0
 34 37  1  0  0  0  0
 34 40  1  0  0  0  0
 35 39  1  0  0  0  0
 37 33  1  0  0  0  0
 38 36  2  0  0  0  0
 39 38  1  0  0  0  0
 40 41  1  0  0  0  0
 40 39  1  0  0  0  0
 41 42  3  0  0  0  0
M  END
>  <MODEL>
4

>  <REMARK>
 VINA RESULT:      -7.7      1.156      1.832
  Name = 
  5 active torsions:
  status: ('A' for Active; 'I' for Inactive)
    1  A    between atoms: C_3  and  C_41
    2  A    between atoms: C_14  and  C_20
    3  A    between atoms: C_14  and  N_29
    4  A    between atoms: C_20  and  C_41
    5  A    between atoms: C_39  and  C_40
                            x       y       z     vdW  Elec       q    Type
                         _______ _______ _______ _____ _____    ______ ____

>  <TORSDO>
F 5

$$$$
=
 OpenBabel11062413413D

 42 48  0  0  1  0  0  0  0  0999 V2000
  186.4620  175.2940  136.9310 C   0  0  1  0  0  3  0  0  0  0  0  0
  188.7630  175.9180  137.7350 C   0  0  2  0  0  3  0  0  0  0  0  0
  184.4920  174.2170  136.4590 C   0  0  1  0  0  3  0  0  0  0  0  0
  189.1700  177.9300  140.4870 N   0  0  0  0  0  0  0  0  0  0  0  0
  183.6350  173.5390  135.4010 C   0  0  0  0  0  2  0  0  0  0  0  0
  184.1320  172.0900  135.2390 C   0  0  0  0  0  2  0  0  0  0  0  0
  189.2110  177.3100  138.1890 C   0  0  2  0  0  3  0  0  0  0  0  0
  188.0360  178.4610  139.8760 N   0  0  0  0  0  0  0  0  0  0  0  0
  185.3410  177.5410  136.3760 C   0  0  0  0  0  2  0  0  0  0  0  0
  188.3680  171.5280  135.6660 N   0  0  0  0  0  0  0  0  0  0  0  0
  186.7110  178.1920  136.4390 C   0  0  1  0  0  3  0  0  0  0  0  0
  189.8770  175.1370  137.4300 O   0  0  0  0  0  1  0  0  0  0  0  0
  185.6390  171.9190  135.3660 C   0  0  0  0  0  0  0  0  0  0  0  0
  189.8990  177.2200  139.5090 C   0  0  0  0  0  0  0  0  0  0  0  0
  187.8150  175.9150  136.5390 C   0  0  2  0  0  3  0  0  0  0  0  0
  185.2870  176.2580  137.2080 C   0  0  1  0  0  3  0  0  0  0  0  0
  185.8820  174.3620  135.9090 C   0  0  2  0  0  3  0  0  0  0  0  0
  187.8550  172.7690  135.8830 C   0  0  0  0  0  3  0  0  0  0  0  0
  184.0510  175.5460  136.8610 N   0  0  0  0  0  0  0  0  0  0  0  0
  189.3310  177.8110  141.9260 C   0  0  0  0  0  1  0  0  0  0  0  0
  187.5740  170.4770  135.3200 C   0  0  0  0  0  3  0  0  0  0  0  0
  186.4780  172.9900  135.7710 C   0  0  0  0  0  0  0  0  0  0  0  0
  188.0260  178.1560  138.6150 C   0  0  0  0  0  0  0  0  0  0  0  0
  186.1960  170.6550  135.1650 C   0  0  0  0  0  3  0  0  0  0  0  0
  187.0000  178.6140  137.7790 O   0  0  0  0  0  0  0  0  0  0  0  0
  187.7320  177.2530  135.7990 C   0  0  0  0  0  2  0  0  0  0  0  0
  190.9730  176.5990  139.7410 O   0  0  0  0  0  0  0  0  0  0  0  0
  183.2990  175.3920  138.0980 C   0  0  0  0  0  2  0  0  0  0  0  0
  181.8320  175.7010  137.8550 C   0  0  2  0  0  3  0  0  0  0  0  0
  181.6940  176.7900  136.8070 C   0  0  0  0  0  1  0  0  0  0  0  0
  180.8850  175.2090  139.9500 O   0  0  0  0  0  0  0  0  0  0  0  0
  181.1470  176.0810  139.1370 C   0  0  0  0  0  0  0  0  0  0  0  0
  179.0600  179.1500  140.1110 C   0  0  0  0  0  2  0  0  0  0  0  0
  180.8460  177.5200  139.4560 C   0  0  1  0  0  3  0  0  0  0  0  0
  180.8070  178.2180  142.6480 F   0  0  0  0  0  0  0  0  0  0  0  0
  179.9290  180.9480  141.3660 O   0  0  0  0  0  0  0  0  0  0  0  0
  179.3840  177.6780  139.8740 C   0  0  0  0  0  2  0  0  0  0  0  0
  180.0590  179.7810  141.0400 C   0  0  0  0  0  0  0  0  0  0  0  0
  181.2210  178.9830  141.5700 C   0  0  2  0  0  3  0  0  0  0  0  0
  181.8410  178.0760  140.4950 C   0  0  2  0  0  3  0  0  0  0  0  0
  182.9290  178.7850  139.8110 C   0  0  0  0  0  0  0  0  0  0  0  0
  183.8260  179.3650  139.2480 C   0  0  0  0  0  3  0  0  0  0  0  0
  1 16  1  0  0  0  0
  2  7  1  0  0  0  0
  3 19  1  0  0  0  0
  4 20  1  0  0  0  0
  5  3  1  0  0  0  0
  6 13  1  0  0  0  0
  6  5  1  0  0  0  0
  7 23  1  0  0  0  0
  7 14  1  0  0  0  0
  8  4  1  0  0  0  0
  9 11  1  0  0  0  0
  9 16  1  0  0  0  0
 10 18  1  0  0  0  0
 11 25  1  0  0  0  0
 12  2  1  0  0  0  0
 13 22  1  0  0  0  0
 14 27  2  0  0  0  0
 14  4  1  0  0  0  0
 15  1  1  0  0  0  0
 15  2  1  0  0  0  0
 17  3  1  0  0  0  0
 17  1  1  0  0  0  0
 19 16  1  0  0  0  0
 19 28  1  0  0  0  0
 21 10  2  0  0  0  0
 22 18  2  0  0  0  0
 22 17  1  0  0  0  0
 23  8  2  0  0  0  0
 24 21  1  0  0  0  0
 24 13  2  0  0  0  0
 25 23  1  0  0  0  0
 26 11  1  0  0  0  0
 26 15  1  0  0  0  0
 29 28  1  0  0  0  0
 29 32  1  0  0  0  0
 30 29  1  0  0  0  0
 32 34  1  0  0  0  0
 32 31  2  0  0  0  0
 33 38  1  0  0  0  0
 34 37  1  0  0  0  0
 34 40  1  0  0  0  0
 37 33  1  0  0  0  0
 38 36  2  0  0  0  0
 38 39  1  0  0  0  0
 39 35  1  0  0  0  0
 40 39  1  0  0  0  0
 41 40  1  0  0  0  0
 42 41  3  0  0  0  0
M  END
>  <MODEL>
5

>  <REMARK>
 VINA RESULT:      -7.6      3.461      7.960
  Name = 
  5 active torsions:
  status: ('A' for Active; 'I' for Inactive)
    1  A    between atoms: C_3  and  C_41
    2  A    between atoms: C_14  and  C_20
    3  A    between atoms: C_14  and  N_29
    4  A    between atoms: C_20  and  C_41
    5  A    between atoms: C_39  and  C_40
                            x       y       z     vdW  Elec       q    Type
                         _______ _______ _______ _____ _____    ______ ____

>  <TORSDO>
F 5

$$$$
=
 OpenBabel11062413413D

 42 48  0  0  1  0  0  0  0  0999 V2000
  186.6580  175.3240  136.9350 C   0  0  1  0  0  3  0  0  0  0  0  0
  188.8890  175.9900  137.8900 C   0  0  2  0  0  3  0  0  0  0  0  0
  184.7450  174.2100  136.3320 C   0  0  1  0  0  3  0  0  0  0  0  0
  189.0750  178.0020  140.6650 N   0  0  0  0  0  0  0  0  0  0  0  0
  183.9730  173.5200  135.2190 C   0  0  0  0  0  2  0  0  0  0  0  0
  184.5070  172.0800  135.0880 C   0  0  0  0  0  2  0  0  0  0  0  0
  189.2790  177.3890  138.3740 C   0  0  2  0  0  3  0  0  0  0  0  0
  187.9730  178.5130  139.9810 N   0  0  0  0  0  0  0  0  0  0  0  0
  185.5330  177.5510  136.3090 C   0  0  0  0  0  2  0  0  0  0  0  0
  188.7160  171.5990  135.7930 N   0  0  0  0  0  0  0  0  0  0  0  0
  186.8840  178.2280  136.4640 C   0  0  1  0  0  3  0  0  0  0  0  0
  190.0350  175.2310  137.6580 O   0  0  0  0  0  1  0  0  0  0  0  0
  186.0050  171.9380  135.3140 C   0  0  0  0  0  0  0  0  0  0  0  0
  189.8800  177.3090  139.7360 C   0  0  0  0  0  0  0  0  0  0  0  0
  188.0220  175.9720  136.6340 C   0  0  2  0  0  3  0  0  0  0  0  0
  185.4500  176.2650  137.1340 C   0  0  1  0  0  3  0  0  0  0  0  0
  186.1650  174.3840  135.8750 C   0  0  2  0  0  3  0  0  0  0  0  0
  188.1660  172.8290  135.9780 C   0  0  0  0  0  3  0  0  0  0  0  0
  184.2530  175.5300  136.7050 N   0  0  0  0  0  0  0  0  0  0  0  0
  189.1430  177.8820  142.1110 C   0  0  0  0  0  1  0  0  0  0  0  0
  187.9670  170.5340  135.3940 C   0  0  0  0  0  3  0  0  0  0  0  0
  186.7960  173.0240  135.7750 C   0  0  0  0  0  0  0  0  0  0  0  0
  188.0530  178.2110  138.7220 C   0  0  0  0  0  0  0  0  0  0  0  0
  186.5990  170.6860  135.1480 C   0  0  0  0  0  3  0  0  0  0  0  0
  187.0750  178.6510  137.8200 O   0  0  0  0  0  0  0  0  0  0  0  0
  187.9620  177.3100  135.8910 C   0  0  0  0  0  2  0  0  0  0  0  0
  190.9480  176.7080  140.0380 O   0  0  0  0  0  0  0  0  0  0  0  0
  183.4240  175.3590  137.8900 C   0  0  0  0  0  2  0  0  0  0  0  0
  182.1530  176.1790  137.7570 C   0  0  2  0  0  3  0  0  0  0  0  0
  181.7990  176.3600  136.2920 C   0  0  0  0  0  1  0  0  0  0  0  0
  182.4740  178.5080  137.7890 O   0  0  0  0  0  0  0  0  0  0  0  0
  182.2950  177.5010  138.4560 C   0  0  0  0  0  0  0  0  0  0  0  0
  183.1170  178.5790  142.0460 C   0  0  0  0  0  2  0  0  0  0  0  0
  182.1500  177.6050  139.9510 C   0  0  1  0  0  3  0  0  0  0  0  0
  180.6190  180.3040  140.9750 F   0  0  0  0  0  0  0  0  0  0  0  0
  181.4630  178.9550  143.6850 O   0  0  0  0  0  0  0  0  0  0  0  0
  183.2110  178.5450  140.5240 C   0  0  0  0  0  2  0  0  0  0  0  0
  181.7100  178.8590  142.4950 C   0  0  0  0  0  0  0  0  0  0  0  0
  180.6020  179.0170  141.4880 C   0  0  2  0  0  3  0  0  0  0  0  0
  180.7110  177.9990  140.3410 C   0  0  2  0  0  3  0  0  0  0  0  0
  179.9380  176.7950  140.6680 C   0  0  0  0  0  0  0  0  0  0  0  0
  179.3020  175.8060  140.9410 C   0  0  0  0  0  3  0  0  0  0  0  0
  1 16  1  0  0  0  0
  2  7  1  0  0  0  0
  3 19  1  0  0  0  0
  4 20  1  0  0  0  0
  5  3  1  0  0  0  0
  6  5  1  0  0  0  0
  6 13  1  0  0  0  0
  7 23  1  0  0  0  0
  7 14  1  0  0  0  0
  8  4  1  0  0  0  0
  9 11  1  0  0  0  0
  9 16  1  0  0  0  0
 10 18  1  0  0  0  0
 11 25  1  0  0  0  0
 12  2  1  0  0  0  0
 13 22  1  0  0  0  0
 14 27  2  0  0  0  0
 14  4  1  0  0  0  0
 15  1  1  0  0  0  0
 15  2  1  0  0  0  0
 17  3  1  0  0  0  0
 17  1  1  0  0  0  0
 19 16  1  0  0  0  0
 19 28  1  0  0  0  0
 21 10  2  0  0  0  0
 22 17  1  0  0  0  0
 22 18  2  0  0  0  0
 23  8  2  0  0  0  0
 24 13  2  0  0  0  0
 24 21  1  0  0  0  0
 25 23  1  0  0  0  0
 26 11  1  0  0  0  0
 26 15  1  0  0  0  0
 29 28  1  0  0  0  0
 29 32  1  0  0  0  0
 30 29  1  0  0  0  0
 31 32  2  0  0  0  0
 32 34  1  0  0  0  0
 33 38  1  0  0  0  0
 34 40  1  0  0  0  0
 34 37  1  0  0  0  0
 35 39  1  0  0  0  0
 37 33  1  0  0  0  0
 38 36  2  0  0  0  0
 39 38  1  0  0  0  0
 40 41  1  0  0  0  0
 40 39  1  0  0  0  0
 41 42  3  0  0  0  0
M  END
>  <MODEL>
6

>  <REMARK>
 VINA RESULT:      -7.4      3.433      7.604
  Name = 
  5 active torsions:
  status: ('A' for Active; 'I' for Inactive)
    1  A    between atoms: C_3  and  C_41
    2  A    between atoms: C_14  and  C_20
    3  A    between atoms: C_14  and  N_29
    4  A    between atoms: C_20  and  C_41
    5  A    between atoms: C_39  and  C_40
                            x       y       z     vdW  Elec       q    Type
                         _______ _______ _______ _____ _____    ______ ____

>  <TORSDO>
F 5

$$$$
=
 OpenBabel11062413413D

 42 48  0  0  1  0  0  0  0  0999 V2000
  188.7380  176.9000  137.9860 C   0  0  1  0  0  3  0  0  0  0  0  0
  186.2470  177.1550  137.7510 C   0  0  2  0  0  3  0  0  0  0  0  0
  190.8610  176.4110  138.7060 C   0  0  1  0  0  3  0  0  0  0  0  0
  184.4630  175.0860  135.6720 N   0  0  0  0  0  0  0  0  0  0  0  0
  192.1650  176.9440  139.2800 C   0  0  0  0  0  2  0  0  0  0  0  0
  191.9920  177.0890  140.8050 C   0  0  0  0  0  2  0  0  0  0  0  0
  185.4570  177.1080  136.4400 C   0  0  2  0  0  3  0  0  0  0  0  0
  185.6590  175.2710  134.9800 N   0  0  0  0  0  0  0  0  0  0  0  0
  189.6520  177.2730  135.6110 C   0  0  0  0  0  2  0  0  0  0  0  0
  188.0810  178.2830  142.1180 N   0  0  0  0  0  0  0  0  0  0  0  0
  188.2990  177.8410  135.2250 C   0  0  1  0  0  3  0  0  0  0  0  0
  185.4800  177.7630  138.7450 O   0  0  0  0  0  1  0  0  0  0  0  0
  190.6070  177.5400  141.2450 C   0  0  0  0  0  0  0  0  0  0  0  0
  184.3090  176.1650  136.5690 C   0  0  0  0  0  0  0  0  0  0  0  0
  187.5910  177.8720  137.6570 C   0  0  2  0  0  3  0  0  0  0  0  0
  189.5450  176.3200  136.8040 C   0  0  1  0  0  3  0  0  0  0  0  0
  189.8140  177.4750  138.8600 C   0  0  2  0  0  3  0  0  0  0  0  0
  188.2760  178.0540  140.7920 C   0  0  0  0  0  3  0  0  0  0  0  0
  190.9030  176.0540  137.2940 N   0  0  0  0  0  0  0  0  0  0  0  0
  183.7460  173.8240  135.7230 C   0  0  0  0  0  1  0  0  0  0  0  0
  189.0890  178.1430  143.0230 C   0  0  0  0  0  3  0  0  0  0  0  0
  189.5300  177.6470  140.3250 C   0  0  0  0  0  0  0  0  0  0  0  0
  186.2280  176.3720  135.3610 C   0  0  0  0  0  0  0  0  0  0  0  0
  190.3690  177.7690  142.6010 C   0  0  0  0  0  3  0  0  0  0  0  0
  187.4290  176.7940  134.7770 O   0  0  0  0  0  0  0  0  0  0  0  0
  187.7760  178.6960  136.3790 C   0  0  0  0  0  2  0  0  0  0  0  0
  183.3360  176.2890  137.3630 O   0  0  0  0  0  0  0  0  0  0  0  0
  191.0960  174.6120  137.2210 C   0  0  0  0  0  2  0  0  0  0  0  0
  192.0450  174.2730  136.0860 C   0  0  2  0  0  3  0  0  0  0  0  0
  191.3110  173.5030  135.0030 C   0  0  0  0  0  1  0  0  0  0  0  0
  193.2620  172.2950  136.4550 O   0  0  0  0  0  0  0  0  0  0  0  0
  193.2340  173.5080  136.5950 C   0  0  0  0  0  0  0  0  0  0  0  0
  196.1350  174.1600  139.0200 C   0  0  0  0  0  2  0  0  0  0  0  0
  194.4100  174.2210  137.2050 C   0  0  1  0  0  3  0  0  0  0  0  0
  197.3220  173.1190  136.2150 F   0  0  0  0  0  0  0  0  0  0  0  0
  198.1250  175.2520  138.3770 O   0  0  0  0  0  0  0  0  0  0  0  0
  195.0000  173.3940  138.3470 C   0  0  0  0  0  2  0  0  0  0  0  0
  197.1330  174.6490  138.0070 C   0  0  0  0  0  0  0  0  0  0  0  0
  196.9150  174.4030  136.5370 C   0  0  2  0  0  3  0  0  0  0  0  0
  195.4470  174.6010  136.1280 C   0  0  2  0  0  3  0  0  0  0  0  0
  195.2320  175.9880  135.6980 C   0  0  0  0  0  0  0  0  0  0  0  0
  195.0510  177.1280  135.3430 C   0  0  0  0  0  3  0  0  0  0  0  0
  1 17  1  0  0  0  0
  2 12  1  0  0  0  0
  3 17  1  0  0  0  0
  3  5  1  0  0  0  0
  4 20  1  0  0  0  0
  4 14  1  0  0  0  0
  5  6  1  0  0  0  0
  6 13  1  0  0  0  0
  7 14  1  0  0  0  0
  7  2  1  0  0  0  0
  8 23  2  0  0  0  0
  8  4  1  0  0  0  0
  9 16  1  0  0  0  0
 10 21  1  0  0  0  0
 11  9  1  0  0  0  0
 11 26  1  0  0  0  0
 13 24  1  0  0  0  0
 14 27  2  0  0  0  0
 15  2  1  0  0  0  0
 15  1  1  0  0  0  0
 16 19  1  0  0  0  0
 16  1  1  0  0  0  0
 17 22  1  0  0  0  0
 18 10  2  0  0  0  0
 19  3  1  0  0  0  0
 22 18  1  0  0  0  0
 22 13  2  0  0  0  0
 23  7  1  0  0  0  0
 24 21  2  0  0  0  0
 25 11  1  0  0  0  0
 25 23  1  0  0  0  0
 26 15  1  0  0  0  0
 28 19  1  0  0  0  0
 29 32  1  0  0  0  0
 29 28  1  0  0  0  0
 30 29  1  0  0  0  0
 31 32  2  0  0  0  0
 32 34  1  0  0  0  0
 34 37  1  0  0  0  0
 35 39  1  0  0  0  0
 37 33  1  0  0  0  0
 38 36  2  0  0  0  0
 38 33  1  0  0  0  0
 39 38  1  0  0  0  0
 40 39  1  0  0  0  0
 40 34  1  0  0  0  0
 41 40  1  0  0  0  0
 42 41  3  0  0  0  0
M  END
>  <MODEL>
7

>  <REMARK>
 VINA RESULT:      -7.2      4.525      7.738
  Name = 
  5 active torsions:
  status: ('A' for Active; 'I' for Inactive)
    1  A    between atoms: C_3  and  C_41
    2  A    between atoms: C_14  and  C_20
    3  A    between atoms: C_14  and  N_29
    4  A    between atoms: C_20  and  C_41
    5  A    between atoms: C_39  and  C_40
                            x       y       z     vdW  Elec       q    Type
                         _______ _______ _______ _____ _____    ______ ____

>  <TORSDO>
F 5

$$$$
=
 OpenBabel11062413413D

 42 48  0  0  1  0  0  0  0  0999 V2000
  189.2030  175.9210  137.9320 C   0  0  1  0  0  3  0  0  0  0  0  0
  190.1300  177.1100  139.9460 C   0  0  2  0  0  3  0  0  0  0  0  0
  188.6370  174.3770  136.3320 C   0  0  1  0  0  3  0  0  0  0  0  0
  188.1180  177.8300  142.6320 N   0  0  0  0  0  0  0  0  0  0  0  0
  188.8610  173.8730  134.9140 C   0  0  0  0  0  2  0  0  0  0  0  0
  190.1170  172.9800  134.9180 C   0  0  0  0  0  2  0  0  0  0  0  0
  189.4520  178.2530  140.7070 C   0  0  2  0  0  3  0  0  0  0  0  0
  187.2640  178.0070  141.5450 N   0  0  0  0  0  0  0  0  0  0  0  0
  187.3420  177.4700  137.0660 C   0  0  0  0  0  2  0  0  0  0  0  0
  193.2470  174.2020  137.5930 N   0  0  0  0  0  0  0  0  0  0  0  0
  187.9030  178.5680  137.9520 C   0  0  1  0  0  3  0  0  0  0  0  0
  191.4920  177.0830  140.2440 O   0  0  0  0  0  1  0  0  0  0  0  0
  191.2240  173.4480  135.8520 C   0  0  0  0  0  0  0  0  0  0  0  0
  189.4450  177.9600  142.1690 C   0  0  0  0  0  0  0  0  0  0  0  0
  189.9570  177.1670  138.4310 C   0  0  2  0  0  3  0  0  0  0  0  0
  187.7050  176.0800  137.5930 C   0  0  1  0  0  3  0  0  0  0  0  0
  189.7560  175.3170  136.6750 C   0  0  2  0  0  3  0  0  0  0  0  0
  192.0780  174.8970  137.6060 C   0  0  0  0  0  3  0  0  0  0  0  0
  187.3910  175.1030  136.5440 N   0  0  0  0  0  0  0  0  0  0  0  0
  187.7080  177.2370  143.8930 C   0  0  0  0  0  1  0  0  0  0  0  0
  193.4400  173.1420  136.7610 C   0  0  0  0  0  3  0  0  0  0  0  0
  191.0270  174.5210  136.7620 C   0  0  0  0  0  0  0  0  0  0  0  0
  187.9530  178.2530  140.4750 C   0  0  0  0  0  0  0  0  0  0  0  0
  192.4310  172.7470  135.8760 C   0  0  0  0  0  3  0  0  0  0  0  0
  187.3110  178.5070  139.2560 O   0  0  0  0  0  0  0  0  0  0  0  0
  189.4290  178.5050  137.9070 C   0  0  0  0  0  2  0  0  0  0  0  0
  190.4640  177.8330  142.9020 O   0  0  0  0  0  0  0  0  0  0  0  0
  186.4410  174.1620  137.1230 C   0  0  0  0  0  2  0  0  0  0  0  0
  185.2930  173.9250  136.1590 C   0  0  2  0  0  3  0  0  0  0  0  0
  185.1630  175.0970  135.2020 C   0  0  0  0  0  1  0  0  0  0  0  0
  183.9100  172.6770  137.5930 O   0  0  0  0  0  0  0  0  0  0  0  0
  184.0110  173.6790  136.9030 C   0  0  0  0  0  0  0  0  0  0  0  0
  180.4970  175.0610  136.2220 C   0  0  0  0  0  2  0  0  0  0  0  0
  182.8880  174.6800  136.8620 C   0  0  1  0  0  3  0  0  0  0  0  0
  180.8060  174.4770  139.3720 F   0  0  0  0  0  0  0  0  0  0  0  0
  179.4710  176.6900  137.5850 O   0  0  0  0  0  0  0  0  0  0  0  0
  181.6090  174.0230  136.3450 C   0  0  0  0  0  2  0  0  0  0  0  0
  180.3410  175.8400  137.4970 C   0  0  0  0  0  0  0  0  0  0  0  0
  181.2520  175.5830  138.6680 C   0  0  2  0  0  3  0  0  0  0  0  0
  182.7110  175.3680  138.2310 C   0  0  2  0  0  3  0  0  0  0  0  0
  183.4280  176.6480  138.2410 C   0  0  0  0  0  0  0  0  0  0  0  0
  184.0160  177.7040  138.2490 C   0  0  0  0  0  3  0  0  0  0  0  0
  1 15  1  0  0  0  0
  2 12  1  0  0  0  0
  2  7  1  0  0  0  0
  3 19  1  0  0  0  0
  3 17  1  0  0  0  0
  4 20  1  0  0  0  0
  5  6  1  0  0  0  0
  5  3  1  0  0  0  0
  6 13  1  0  0  0  0
  7 14  1  0  0  0  0
  8  4  1  0  0  0  0
  9 16  1  0  0  0  0
  9 11  1  0  0  0  0
 10 18  1  0  0  0  0
 11 25  1  0  0  0  0
 13 24  2  0  0  0  0
 13 22  1  0  0  0  0
 14  4  1  0  0  0  0
 14 27  2  0  0  0  0
 15  2  1  0  0  0  0
 16  1  1  0  0  0  0
 17 22  1  0  0  0  0
 17  1  1  0  0  0  0
 19 28  1  0  0  0  0
 19 16  1  0  0  0  0
 21 10  2  0  0  0  0
 22 18  2  0  0  0  0
 23  7  1  0  0  0  0
 23  8  2  0  0  0  0
 24 21  1  0  0  0  0
 25 23  1  0  0  0  0
 26 11  1  0  0  0  0
 26 15  1  0  0  0  0
 29 32  1  0  0  0  0
 29 28  1  0  0  0  0
 30 29  1  0  0  0  0
 32 31  2  0  0  0  0
 33 37  1  0  0  0  0
 33 38  1  0  0  0  0
 34 32  1  0  0  0  0
 34 40  1  0  0  0  0
 37 34  1  0  0  0  0
 38 36  2  0  0  0  0
 38 39  1  0  0  0  0
 39 35  1  0  0  0  0
 40 41  1  0  0  0  0
 40 39  1  0  0  0  0
 41 42  3  0  0  0  0
M  END
>  <MODEL>
8

>  <REMARK>
 VINA RESULT:      -7.2      3.364      8.947
  Name = 
  5 active torsions:
  status: ('A' for Active; 'I' for Inactive)
    1  A    between atoms: C_3  and  C_41
    2  A    between atoms: C_14  and  C_20
    3  A    between atoms: C_14  and  N_29
    4  A    between atoms: C_20  and  C_41
    5  A    between atoms: C_39  and  C_40
                            x       y       z     vdW  Elec       q    Type
                         _______ _______ _______ _____ _____    ______ ____

>  <TORSDO>
F 5

$$$$
=
 OpenBabel11062413413D

 42 48  0  0  1  0  0  0  0  0999 V2000
  189.0740  176.0200  137.8150 C   0  0  1  0  0  3  0  0  0  0  0  0
  189.8190  177.3470  139.8190 C   0  0  2  0  0  3  0  0  0  0  0  0
  188.6850  174.3790  136.2610 C   0  0  1  0  0  3  0  0  0  0  0  0
  187.6230  178.0640  142.3580 N   0  0  0  0  0  0  0  0  0  0  0  0
  189.0160  173.8280  134.8820 C   0  0  0  0  0  2  0  0  0  0  0  0
  190.3180  173.0110  134.9940 C   0  0  0  0  0  2  0  0  0  0  0  0
  189.0370  178.4800  140.4890 C   0  0  2  0  0  3  0  0  0  0  0  0
  186.8220  178.1440  141.2200 N   0  0  0  0  0  0  0  0  0  0  0  0
  187.1810  177.4200  136.7810 C   0  0  0  0  0  2  0  0  0  0  0  0
  193.2200  174.5270  137.7730 N   0  0  0  0  0  0  0  0  0  0  0  0
  187.6290  178.5860  137.6430 C   0  0  1  0  0  3  0  0  0  0  0  0
  191.1610  177.4130  140.1900 O   0  0  0  0  0  1  0  0  0  0  0  0
  191.3430  173.5820  135.9630 C   0  0  0  0  0  0  0  0  0  0  0  0
  188.9640  178.2510  141.9600 C   0  0  0  0  0  0  0  0  0  0  0  0
  189.7290  177.3290  138.2950 C   0  0  2  0  0  3  0  0  0  0  0  0
  187.5910  176.0780  137.3910 C   0  0  1  0  0  3  0  0  0  0  0  0
  189.7300  175.3960  136.6190 C   0  0  2  0  0  3  0  0  0  0  0  0
  192.0160  175.1520  137.6910 C   0  0  0  0  0  3  0  0  0  0  0  0
  187.3910  175.0390  136.3720 N   0  0  0  0  0  0  0  0  0  0  0  0
  187.1760  177.5030  143.6210 C   0  0  0  0  0  1  0  0  0  0  0  0
  193.5180  173.4450  137.0020 C   0  0  0  0  0  3  0  0  0  0  0  0
  191.0360  174.6800  136.8110 C   0  0  0  0  0  0  0  0  0  0  0  0
  187.5550  178.3840  140.1770 C   0  0  0  0  0  0  0  0  0  0  0  0
  192.5840  172.9540  136.0840 C   0  0  0  0  0  3  0  0  0  0  0  0
  186.9690  178.5470  138.9150 O   0  0  0  0  0  0  0  0  0  0  0  0
  189.1560  178.6100  137.6830 C   0  0  0  0  0  2  0  0  0  0  0  0
  189.9460  178.2150  142.7520 O   0  0  0  0  0  0  0  0  0  0  0  0
  186.4640  174.0710  136.9420 C   0  0  0  0  0  2  0  0  0  0  0  0
  185.2330  173.9510  136.0630 C   0  0  2  0  0  3  0  0  0  0  0  0
  185.6320  173.9700  134.5980 C   0  0  0  0  0  1  0  0  0  0  0  0
  184.1780  176.0100  135.6420 O   0  0  0  0  0  0  0  0  0  0  0  0
  184.2440  175.0380  136.3770 C   0  0  0  0  0  0  0  0  0  0  0  0
  182.4260  176.0040  139.6150 C   0  0  0  0  0  2  0  0  0  0  0  0
  183.2940  174.9080  137.5370 C   0  0  1  0  0  3  0  0  0  0  0  0
  180.4360  176.4360  137.1230 F   0  0  0  0  0  0  0  0  0  0  0  0
  180.1980  175.3810  140.0730 O   0  0  0  0  0  0  0  0  0  0  0  0
  183.3230  176.1740  138.3930 C   0  0  0  0  0  2  0  0  0  0  0  0
  181.0540  175.5350  139.2190 C   0  0  0  0  0  0  0  0  0  0  0  0
  180.7300  175.2500  137.7770 C   0  0  2  0  0  3  0  0  0  0  0  0
  181.8790  174.5290  137.0550 C   0  0  2  0  0  3  0  0  0  0  0  0
  181.6940  173.0760  137.1490 C   0  0  0  0  0  0  0  0  0  0  0  0
  181.5440  171.8800  137.2240 C   0  0  0  0  0  3  0  0  0  0  0  0
  1 15  1  0  0  0  0
  2 12  1  0  0  0  0
  2  7  1  0  0  0  0
  3 19  1  0  0  0  0
  3 17  1  0  0  0  0
  4 20  1  0  0  0  0
  5  6  1  0  0  0  0
  5  3  1  0  0  0  0
  6 13  1  0  0  0  0
  7 14  1  0  0  0  0
  8  4  1  0  0  0  0
  9 16  1  0  0  0  0
  9 11  1  0  0  0  0
 11 26  1  0  0  0  0
 11 25  1  0  0  0  0
 13 24  2  0  0  0  0
 13 22  1  0  0  0  0
 14  4  1  0  0  0  0
 14 27  2  0  0  0  0
 15  2  1  0  0  0  0
 16  1  1  0  0  0  0
 17 22  1  0  0  0  0
 17  1  1  0  0  0  0
 18 10  1  0  0  0  0
 19 28  1  0  0  0  0
 19 16  1  0  0  0  0
 21 10  2  0  0  0  0
 22 18  2  0  0  0  0
 23  7  1  0  0  0  0
 23  8  2  0  0  0  0
 24 21  1  0  0  0  0
 25 23  1  0  0  0  0
 26 15  1  0  0  0  0
 29 32  1  0  0  0  0
 29 28  1  0  0  0  0
 30 29  1  0  0  0  0
 31 32  2  0  0  0  0
 32 34  1  0  0  0  0
 34 37  1  0  0  0  0
 35 39  1  0  0  0  0
 37 33  1  0  0  0  0
 38 33  1  0  0  0  0
 38 36  2  0  0  0  0
 39 38  1  0  0  0  0
 40 41  1  0  0  0  0
 40 34  1  0  0  0  0
 40 39  1  0  0  0  0
 41 42  3  0  0  0  0
M  END
>  <MODEL>
9

>  <REMARK>
 VINA RESULT:      -7.2      3.522      8.801
  Name = 
  5 active torsions:
  status: ('A' for Active; 'I' for Inactive)
    1  A    between atoms: C_3  and  C_41
    2  A    between atoms: C_14  and  C_20
    3  A    between atoms: C_14  and  N_29
    4  A    between atoms: C_20  and  C_41
    5  A    between atoms: C_39  and  C_40
                            x       y       z     vdW  Elec       q    Type
                         _______ _______ _______ _____ _____    ______ ____

>  <TORSDO>
F 5

$$$$
