=
 OpenBabel11062414303D

 31 33  0  0  1  0  0  0  0  0999 V2000
  189.8640  176.7360  140.9090 C   0  0  1  0  0  3  0  0  0  0  0  0
  188.4100  178.6740  141.2020 C   0  0  0  0  0  2  0  0  0  0  0  0
  189.0440  177.5060  141.9410 C   0  0  2  0  0  3  0  0  0  0  0  0
  188.4710  178.3340  139.7220 C   0  0  0  0  0  2  0  0  0  0  0  0
  189.0490  176.9300  139.6330 C   0  0  1  0  0  3  0  0  0  0  0  0
  189.6290  175.8450  136.1070 N   0  0  0  0  0  2  0  0  0  0  0  0
  188.9640  176.7290  137.0510 C   0  0  2  0  0  3  0  0  0  0  0  0
  189.8050  176.6820  138.3150 C   0  0  2  0  0  3  0  0  0  0  0  0
  190.4470  175.3840  138.3040 N   0  0  0  0  0  2  0  0  0  0  0  0
  190.5890  175.0670  136.8880 C   0  0  0  0  0  2  0  0  0  0  0  0
  186.5250  177.2610  137.4450 N   0  0  0  0  0  2  0  0  0  0  0  0
  184.7110  175.7990  137.6940 O   0  0  0  0  0  0  0  0  0  0  0  0
  187.2680  175.0460  137.2710 O   0  0  0  0  0  0  0  0  0  0  0  0
  187.5440  176.2760  137.2460 C   0  0  0  0  0  0  0  0  0  0  0  0
  185.1400  176.9830  137.6860 C   0  0  0  0  0  0  0  0  0  0  0  0
  184.1800  178.1040  137.9260 C   0  0  0  0  0  3  0  0  0  0  0  0
  182.0150  178.5220  137.0020 O   0  0  0  0  0  1  0  0  0  0  0  0
  182.7390  177.6300  137.7930 C   0  0  0  0  0  2  0  0  0  0  0  0
  184.4390  178.7880  139.2670 C   0  0  0  0  0  2  0  0  0  0  0  0
  184.4830  180.1780  139.1240 O   0  0  0  0  0  1  0  0  0  0  0  0
  191.2340  177.2840  140.7840 C   0  0  0  0  0  0  0  0  0  0  0  0
  192.3040  177.7130  140.6860 N   0  0  0  0  0  0  0  0  0  0  0  0
  189.8110  177.9550  143.0240 O   0  0  0  0  0  0  0  0  0  0  0  0
  189.5940  177.0190  144.0390 C   0  0  1  0  0  3  0  0  0  0  0  0
  191.7830  176.4220  144.8160 O   0  0  0  0  0  1  0  0  0  0  0  0
  188.0740  178.1260  145.7340 C   0  0  0  0  0  2  0  0  0  0  0  0
  190.1330  176.7940  146.5040 C   0  0  0  0  0  2  0  0  0  0  0  0
  190.6630  177.1910  145.1290 C   0  0  2  0  0  3  0  0  0  0  0  0
  188.9510  177.6800  146.9140 C   0  0  2  0  0  3  0  0  0  0  0  0
  188.1560  177.1450  144.5650 C   0  0  0  0  0  2  0  0  0  0  0  0
  188.1060  176.9500  147.9390 C   0  0  0  0  0  1  0  0  0  0  0  0
  1 21  1  6  0  0  0
  1  3  1  0  0  0  0
  2  3  1  0  0  0  0
  3 23  1  1  0  0  0
  4  2  1  0  0  0  0
  5  4  1  6  0  0  0
  5  1  1  0  0  0  0
  6 10  1  0  0  0  0
  6  7  1  0  0  0  0
  7 14  1  1  0  0  0
  7  8  1  0  0  0  0
  8  9  1  1  0  0  0
  8  5  1  0  0  0  0
 10  9  1  0  0  0  0
 11 15  1  0  0  0  0
 14 13  2  0  0  0  0
 14 11  1  0  0  0  0
 15 12  2  0  0  0  0
 15 16  1  0  0  0  0
 16 19  1  0  0  0  0
 17 18  1  0  0  0  0
 18 16  1  0  0  0  0
 20 19  1  0  0  0  0
 22 21  3  0  0  0  0
 24 23  1  6  0  0  0
 24 30  1  0  0  0  0
 24 28  1  0  0  0  0
 26 29  1  0  0  0  0
 27 29  1  0  0  0  0
 28 25  1  6  0  0  0
 28 27  1  0  0  0  0
 29 31  1  1  0  0  0
 30 26  1  0  0  0  0
M  END
>  <MODEL>
1

>  <REMARK>
 VINA RESULT:      -7.4      0.000      0.000
  Name = 
  8 active torsions:
  status: ('A' for Active; 'I' for Inactive)
    1  A    between atoms: C_1  and  C_7
    2  A    between atoms: C_4  and  O_31
    3  A    between atoms: C_5  and  C_18
    4  A    between atoms: C_5  and  C_23
    5  A    between atoms: C_5  and  C_25
    6  A    between atoms: C_8  and  C_19
    7  A    between atoms: C_9  and  C_29
    8  A    between atoms: C_20  and  O_31
                            x       y       z     vdW  Elec       q    Type
                         _______ _______ _______ _____ _____    ______ ____

>  <TORSDO>
F 8

$$$$
=
 OpenBabel11062414303D

 31 33  0  0  1  0  0  0  0  0999 V2000
  189.5170  176.7420  141.3180 C   0  0  1  0  0  3  0  0  0  0  0  0
  188.1220  178.7390  141.4790 C   0  0  0  0  0  2  0  0  0  0  0  0
  188.5250  177.4740  142.2200 C   0  0  2  0  0  3  0  0  0  0  0  0
  188.4920  178.5220  140.0200 C   0  0  0  0  0  2  0  0  0  0  0  0
  189.0120  177.0960  139.9220 C   0  0  1  0  0  3  0  0  0  0  0  0
  190.3380  176.1170  136.5710 N   0  0  0  0  0  2  0  0  0  0  0  0
  189.4550  176.9480  137.3730 C   0  0  2  0  0  3  0  0  0  0  0  0
  190.0270  176.9120  138.7790 C   0  0  2  0  0  3  0  0  0  0  0  0
  190.7230  175.6470  138.8820 N   0  0  0  0  0  2  0  0  0  0  0  0
  191.1610  175.3670  137.5200 C   0  0  0  0  0  2  0  0  0  0  0  0
  186.9590  177.3170  137.5310 N   0  0  0  0  0  2  0  0  0  0  0  0
  185.2130  175.7870  137.2220 O   0  0  0  0  0  0  0  0  0  0  0  0
  187.8400  175.2110  137.0050 O   0  0  0  0  0  0  0  0  0  0  0  0
  188.0490  176.4260  137.2740 C   0  0  0  0  0  0  0  0  0  0  0  0
  185.5720  176.9570  137.5180 C   0  0  0  0  0  0  0  0  0  0  0  0
  184.5290  177.9740  137.8520 C   0  0  0  0  0  3  0  0  0  0  0  0
  182.8140  176.9510  139.1660 O   0  0  0  0  0  1  0  0  0  0  0  0
  183.1400  177.3500  137.8700 C   0  0  0  0  0  2  0  0  0  0  0  0
  184.8490  178.7010  139.1570 C   0  0  0  0  0  2  0  0  0  0  0  0
  184.5140  180.0550  139.0740 O   0  0  0  0  0  1  0  0  0  0  0  0
  190.9030  177.2100  141.5440 C   0  0  0  0  0  0  0  0  0  0  0  0
  191.9870  177.5760  141.7220 N   0  0  0  0  0  0  0  0  0  0  0  0
  189.0540  177.7790  143.4800 O   0  0  0  0  0  0  0  0  0  0  0  0
  188.2000  177.1590  144.3950 C   0  0  1  0  0  3  0  0  0  0  0  0
  189.5110  176.8810  146.3840 O   0  0  0  0  0  1  0  0  0  0  0  0
  186.1600  178.6430  144.6060 C   0  0  0  0  0  2  0  0  0  0  0  0
  187.2720  177.6530  146.7000 C   0  0  0  0  0  2  0  0  0  0  0  0
  188.5120  177.6670  145.8120 C   0  0  2  0  0  3  0  0  0  0  0  0
  186.1840  178.5770  146.1410 C   0  0  2  0  0  3  0  0  0  0  0  0
  186.7380  177.3770  143.9750 C   0  0  0  0  0  2  0  0  0  0  0  0
  184.8310  178.1350  146.6610 C   0  0  0  0  0  1  0  0  0  0  0  0
  1 21  1  6  0  0  0
  1  3  1  0  0  0  0
  2  3  1  0  0  0  0
  3 23  1  1  0  0  0
  4  2  1  0  0  0  0
  5  4  1  1  0  0  0
  5  1  1  0  0  0  0
  6  7  1  0  0  0  0
  6 10  1  0  0  0  0
  7 14  1  1  0  0  0
  7  8  1  0  0  0  0
  8  9  1  1  0  0  0
  8  5  1  0  0  0  0
 10  9  1  0  0  0  0
 12 15  2  0  0  0  0
 13 14  2  0  0  0  0
 14 11  1  0  0  0  0
 15 11  1  0  0  0  0
 15 16  1  0  0  0  0
 16 18  1  0  0  0  0
 16 19  1  0  0  0  0
 18 17  1  0  0  0  0
 20 19  1  0  0  0  0
 21 22  3  0  0  0  0
 24 23  1  6  0  0  0
 24 28  1  0  0  0  0
 26 29  1  0  0  0  0
 28 25  1  1  0  0  0
 28 27  1  0  0  0  0
 29 31  1  6  0  0  0
 29 27  1  0  0  0  0
 30 24  1  0  0  0  0
 30 26  1  0  0  0  0
M  END
>  <MODEL>
2

>  <REMARK>
 VINA RESULT:      -7.4      1.255      1.515
  Name = 
  8 active torsions:
  status: ('A' for Active; 'I' for Inactive)
    1  A    between atoms: C_1  and  C_7
    2  A    between atoms: C_4  and  O_31
    3  A    between atoms: C_5  and  C_18
    4  A    between atoms: C_5  and  C_23
    5  A    between atoms: C_5  and  C_25
    6  A    between atoms: C_8  and  C_19
    7  A    between atoms: C_9  and  C_29
    8  A    between atoms: C_20  and  O_31
                            x       y       z     vdW  Elec       q    Type
                         _______ _______ _______ _____ _____    ______ ____

>  <TORSDO>
F 8

$$$$
=
 OpenBabel11062414303D

 31 33  0  0  1  0  0  0  0  0999 V2000
  189.1900  176.4710  141.6220 C   0  0  1  0  0  3  0  0  0  0  0  0
  187.8910  178.2010  142.7510 C   0  0  0  0  0  2  0  0  0  0  0  0
  188.2720  176.7300  142.8140 C   0  0  2  0  0  3  0  0  0  0  0  0
  188.1850  178.6640  141.3330 C   0  0  0  0  0  2  0  0  0  0  0  0
  188.6380  177.4290  140.5690 C   0  0  1  0  0  3  0  0  0  0  0  0
  189.7890  177.9670  137.0580 N   0  0  0  0  0  2  0  0  0  0  0  0
  188.9430  178.3650  138.1720 C   0  0  2  0  0  3  0  0  0  0  0  0
  189.5910  177.7670  139.4090 C   0  0  2  0  0  3  0  0  0  0  0  0
  190.3030  176.5940  138.9440 N   0  0  0  0  0  2  0  0  0  0  0  0
  190.6690  176.9180  137.5710 C   0  0  0  0  0  2  0  0  0  0  0  0
  186.4490  178.6370  138.4750 N   0  0  0  0  0  2  0  0  0  0  0  0
  184.7060  177.2700  137.7120 O   0  0  0  0  0  0  0  0  0  0  0  0
  187.3330  176.8220  137.2860 O   0  0  0  0  0  0  0  0  0  0  0  0
  187.5390  177.8870  137.9290 C   0  0  0  0  0  0  0  0  0  0  0  0
  185.0640  178.2850  138.3650 C   0  0  0  0  0  0  0  0  0  0  0  0
  184.0200  179.1300  139.0230 C   0  0  0  0  0  3  0  0  0  0  0  0
  182.0700  180.2750  138.2470 O   0  0  0  0  0  1  0  0  0  0  0  0
  182.6890  179.0260  138.2920 C   0  0  0  0  0  2  0  0  0  0  0  0
  183.8870  178.8030  140.5090 C   0  0  0  0  0  2  0  0  0  0  0  0
  184.8240  179.5120  141.2670 O   0  0  0  0  0  1  0  0  0  0  0  0
  190.6040  176.7600  141.9510 C   0  0  0  0  0  0  0  0  0  0  0  0
  191.7100  176.9860  142.2080 N   0  0  0  0  0  0  0  0  0  0  0  0
  188.8710  176.4210  144.0420 O   0  0  0  0  0  0  0  0  0  0  0  0
  188.5150  177.4680  144.8960 C   0  0  1  0  0  3  0  0  0  0  0  0
  186.1440  177.2580  145.1870 O   0  0  0  0  0  1  0  0  0  0  0  0
  189.9200  177.2100  146.9860 C   0  0  0  0  0  2  0  0  0  0  0  0
  187.4080  177.7240  147.1610 C   0  0  0  0  0  2  0  0  0  0  0  0
  187.3670  177.0140  145.8100 C   0  0  2  0  0  3  0  0  0  0  0  0
  188.7080  177.4050  147.9090 C   0  0  2  0  0  3  0  0  0  0  0  0
  189.7530  177.9580  145.6640 C   0  0  0  0  0  2  0  0  0  0  0  0
  188.9930  178.5050  148.9120 C   0  0  0  0  0  1  0  0  0  0  0  0
  1 21  1  1  0  0  0
  1  3  1  0  0  0  0
  2  3  1  0  0  0  0
  3 23  1  1  0  0  0
  4  2  1  0  0  0  0
  5  4  1  1  0  0  0
  5  1  1  0  0  0  0
  6 10  1  0  0  0  0
  6  7  1  0  0  0  0
  7 14  1  6  0  0  0
  7  8  1  0  0  0  0
  8  9  1  6  0  0  0
  8  5  1  0  0  0  0
 10  9  1  0  0  0  0
 12 15  2  0  0  0  0
 13 14  2  0  0  0  0
 14 11  1  0  0  0  0
 15 11  1  0  0  0  0
 15 16  1  0  0  0  0
 16 19  1  0  0  0  0
 17 18  1  0  0  0  0
 18 16  1  0  0  0  0
 19 20  1  0  0  0  0
 21 22  3  0  0  0  0
 24 23  1  1  0  0  0
 24 30  1  0  0  0  0
 24 28  1  0  0  0  0
 26 29  1  0  0  0  0
 27 29  1  0  0  0  0
 28 25  1  6  0  0  0
 28 27  1  0  0  0  0
 29 31  1  1  0  0  0
 30 26  1  0  0  0  0
M  END
>  <MODEL>
3

>  <REMARK>
 VINA RESULT:      -7.4      1.647      2.102
  Name = 
  8 active torsions:
  status: ('A' for Active; 'I' for Inactive)
    1  A    between atoms: C_1  and  C_7
    2  A    between atoms: C_4  and  O_31
    3  A    between atoms: C_5  and  C_18
    4  A    between atoms: C_5  and  C_23
    5  A    between atoms: C_5  and  C_25
    6  A    between atoms: C_8  and  C_19
    7  A    between atoms: C_9  and  C_29
    8  A    between atoms: C_20  and  O_31
                            x       y       z     vdW  Elec       q    Type
                         _______ _______ _______ _____ _____    ______ ____

>  <TORSDO>
F 8

$$$$
=
 OpenBabel11062414303D

 31 33  0  0  1  0  0  0  0  0999 V2000
  189.7230  178.1430  143.6760 C   0  0  1  0  0  3  0  0  0  0  0  0
  188.2620  176.8750  142.1880 C   0  0  0  0  0  2  0  0  0  0  0  0
  189.2070  178.0660  142.2410 C   0  0  2  0  0  3  0  0  0  0  0  0
  187.8790  176.5630  143.6260 C   0  0  0  0  0  2  0  0  0  0  0  0
  188.5280  177.6390  144.4810 C   0  0  1  0  0  3  0  0  0  0  0  0
  188.1580  177.2190  148.1730 N   0  0  0  0  0  2  0  0  0  0  0  0
  187.6480  176.9920  146.8310 C   0  0  2  0  0  3  0  0  0  0  0  0
  188.8430  177.1530  145.9080 C   0  0  2  0  0  3  0  0  0  0  0  0
  189.7430  178.0570  146.5940 N   0  0  0  0  0  2  0  0  0  0  0  0
  189.4820  177.8170  148.0080 C   0  0  0  0  0  2  0  0  0  0  0  0
  185.7330  177.7710  145.3770 N   0  0  0  0  0  2  0  0  0  0  0  0
  184.3170  179.6170  145.6540 O   0  0  0  0  0  0  0  0  0  0  0  0
  186.3220  178.9310  147.3260 O   0  0  0  0  0  0  0  0  0  0  0  0
  186.5280  177.9560  146.5520 C   0  0  0  0  0  0  0  0  0  0  0  0
  184.6640  178.6280  144.9560 C   0  0  0  0  0  0  0  0  0  0  0  0
  183.9380  178.3510  143.6780 C   0  0  0  0  0  3  0  0  0  0  0  0
  181.5910  178.7150  143.9460 O   0  0  0  0  0  1  0  0  0  0  0  0
  182.7690  179.3090  143.4930 C   0  0  0  0  0  2  0  0  0  0  0  0
  184.8860  178.3630  142.4800 C   0  0  0  0  0  2  0  0  0  0  0  0
  185.3220  179.6610  142.1960 O   0  0  0  0  0  1  0  0  0  0  0  0
  190.9220  177.2960  143.8690 C   0  0  0  0  0  0  0  0  0  0  0  0
  191.8590  176.6340  144.0200 N   0  0  0  0  0  0  0  0  0  0  0  0
  190.2330  177.9320  141.2980 O   0  0  0  0  0  0  0  0  0  0  0  0
  189.6550  177.2500  140.2240 C   0  0  1  0  0  3  0  0  0  0  0  0
  188.0460  178.7740  139.3090 O   0  0  0  0  0  1  0  0  0  0  0  0
  191.5510  176.5780  138.6860 C   0  0  0  0  0  2  0  0  0  0  0  0
  189.3950  177.5960  137.7270 C   0  0  0  0  0  2  0  0  0  0  0  0
  189.3200  178.2480  139.1050 C   0  0  2  0  0  3  0  0  0  0  0  0
  190.8100  177.0820  137.4380 C   0  0  2  0  0  3  0  0  0  0  0  0
  190.5810  176.1110  139.7710 C   0  0  0  0  0  2  0  0  0  0  0  0
  190.7430  175.9830  136.3970 C   0  0  0  0  0  1  0  0  0  0  0  0
  1 21  1  6  0  0  0
  1  5  1  0  0  0  0
  2  3  1  0  0  0  0
  2  4  1  0  0  0  0
  3 23  1  6  0  0  0
  3  1  1  0  0  0  0
  5  4  1  6  0  0  0
  5  8  1  0  0  0  0
  7 14  1  6  0  0  0
  7  6  1  0  0  0  0
  8  9  1  1  0  0  0
  8  7  1  0  0  0  0
  9 10  1  0  0  0  0
 10  6  1  0  0  0  0
 11 14  1  0  0  0  0
 14 13  2  0  0  0  0
 15 11  1  0  0  0  0
 15 12  2  0  0  0  0
 16 15  1  0  0  0  0
 18 16  1  0  0  0  0
 18 17  1  0  0  0  0
 19 16  1  0  0  0  0
 20 19  1  0  0  0  0
 21 22  3  0  0  0  0
 24 23  1  1  0  0  0
 26 30  1  0  0  0  0
 27 28  1  0  0  0  0
 28 25  1  1  0  0  0
 28 24  1  0  0  0  0
 29 31  1  6  0  0  0
 29 27  1  0  0  0  0
 29 26  1  0  0  0  0
 30 24  1  0  0  0  0
M  END
>  <MODEL>
4

>  <REMARK>
 VINA RESULT:      -7.3      3.655      7.298
  Name = 
  8 active torsions:
  status: ('A' for Active; 'I' for Inactive)
    1  A    between atoms: C_1  and  C_7
    2  A    between atoms: C_4  and  O_31
    3  A    between atoms: C_5  and  C_18
    4  A    between atoms: C_5  and  C_23
    5  A    between atoms: C_5  and  C_25
    6  A    between atoms: C_8  and  C_19
    7  A    between atoms: C_9  and  C_29
    8  A    between atoms: C_20  and  O_31
                            x       y       z     vdW  Elec       q    Type
                         _______ _______ _______ _____ _____    ______ ____

>  <TORSDO>
F 8

$$$$
=
 OpenBabel11062414303D

 31 33  0  0  1  0  0  0  0  0999 V2000
  189.5240  176.7500  141.3130 C   0  0  1  0  0  3  0  0  0  0  0  0
  188.1270  178.7510  141.3680 C   0  0  0  0  0  2  0  0  0  0  0  0
  188.4960  177.5030  142.1550 C   0  0  2  0  0  3  0  0  0  0  0  0
  188.5570  178.5000  139.9320 C   0  0  0  0  0  2  0  0  0  0  0  0
  189.0790  177.0710  139.8890 C   0  0  1  0  0  3  0  0  0  0  0  0
  190.5110  176.1760  136.5590 N   0  0  0  0  0  2  0  0  0  0  0  0
  189.6630  177.0390  137.3640 C   0  0  2  0  0  3  0  0  0  0  0  0
  190.1410  176.8600  138.7940 C   0  0  2  0  0  3  0  0  0  0  0  0
  190.7070  175.5290  138.8500 N   0  0  0  0  0  2  0  0  0  0  0  0
  191.2000  175.2930  137.4990 C   0  0  0  0  0  2  0  0  0  0  0  0
  187.8620  175.2780  137.1520 N   0  0  0  0  0  2  0  0  0  0  0  0
  185.5700  175.5440  136.7420 O   0  0  0  0  0  0  0  0  0  0  0  0
  187.3580  177.5570  136.9420 O   0  0  0  0  0  0  0  0  0  0  0  0
  188.2230  176.6630  137.1520 C   0  0  0  0  0  0  0  0  0  0  0  0
  186.5430  174.7650  136.9220 C   0  0  0  0  0  0  0  0  0  0  0  0
  186.3050  173.2890  136.9010 C   0  0  0  0  0  3  0  0  0  0  0  0
  188.1510  172.1210  135.9300 O   0  0  0  0  0  1  0  0  0  0  0  0
  187.5970  172.5220  137.1460 C   0  0  0  0  0  2  0  0  0  0  0  0
  185.2020  172.8840  137.8770 C   0  0  0  0  0  2  0  0  0  0  0  0
  184.1380  172.2720  137.2080 O   0  0  0  0  0  1  0  0  0  0  0  0
  190.9010  177.2220  141.5870 C   0  0  0  0  0  0  0  0  0  0  0  0
  191.9760  177.5920  141.8010 N   0  0  0  0  0  0  0  0  0  0  0  0
  188.9730  177.8380  143.4290 O   0  0  0  0  0  0  0  0  0  0  0  0
  188.1050  177.2040  144.3220 C   0  0  1  0  0  3  0  0  0  0  0  0
  189.4010  176.8490  146.3080 O   0  0  0  0  0  1  0  0  0  0  0  0
  186.0850  178.7110  144.5650 C   0  0  0  0  0  2  0  0  0  0  0  0
  187.1720  177.6450  146.6350 C   0  0  0  0  0  2  0  0  0  0  0  0
  188.4170  177.6660  145.7530 C   0  0  2  0  0  3  0  0  0  0  0  0
  186.1000  178.6000  146.0970 C   0  0  2  0  0  3  0  0  0  0  0  0
  186.6490  177.4550  143.9000 C   0  0  0  0  0  2  0  0  0  0  0  0
  184.7390  178.1630  146.5980 C   0  0  0  0  0  1  0  0  0  0  0  0
  1 21  1  6  0  0  0
  1  3  1  0  0  0  0
  2  3  1  0  0  0  0
  3 23  1  1  0  0  0
  4  2  1  0  0  0  0
  5  4  1  1  0  0  0
  5  1  1  0  0  0  0
  6  7  1  0  0  0  0
  6 10  1  0  0  0  0
  7 14  1  1  0  0  0
  7  8  1  0  0  0  0
  8  9  1  6  0  0  0
  8  5  1  0  0  0  0
 10  9  1  0  0  0  0
 12 15  2  0  0  0  0
 13 14  2  0  0  0  0
 14 11  1  0  0  0  0
 15 11  1  0  0  0  0
 16 15  1  0  0  0  0
 16 18  1  0  0  0  0
 16 19  1  0  0  0  0
 17 18  1  0  0  0  0
 20 19  1  0  0  0  0
 21 22  3  0  0  0  0
 24 23  1  6  0  0  0
 24 28  1  0  0  0  0
 26 29  1  0  0  0  0
 28 25  1  1  0  0  0
 28 27  1  0  0  0  0
 29 31  1  6  0  0  0
 29 27  1  0  0  0  0
 30 24  1  0  0  0  0
 30 26  1  0  0  0  0
M  END
>  <MODEL>
5

>  <REMARK>
 VINA RESULT:      -7.2      2.212      3.360
  Name = 
  8 active torsions:
  status: ('A' for Active; 'I' for Inactive)
    1  A    between atoms: C_1  and  C_7
    2  A    between atoms: C_4  and  O_31
    3  A    between atoms: C_5  and  C_18
    4  A    between atoms: C_5  and  C_23
    5  A    between atoms: C_5  and  C_25
    6  A    between atoms: C_8  and  C_19
    7  A    between atoms: C_9  and  C_29
    8  A    between atoms: C_20  and  O_31
                            x       y       z     vdW  Elec       q    Type
                         _______ _______ _______ _____ _____    ______ ____

>  <TORSDO>
F 8

$$$$
=
 OpenBabel11062414303D

 31 33  0  0  1  0  0  0  0  0999 V2000
  190.0070  176.7440  140.8980 C   0  0  1  0  0  3  0  0  0  0  0  0
  188.5090  178.6670  141.0210 C   0  0  0  0  0  2  0  0  0  0  0  0
  189.1060  177.5350  141.8430 C   0  0  2  0  0  3  0  0  0  0  0  0
  188.6800  178.2790  139.5620 C   0  0  0  0  0  2  0  0  0  0  0  0
  189.2820  176.8820  139.5620 C   0  0  1  0  0  3  0  0  0  0  0  0
  190.1050  175.7620  136.0960 N   0  0  0  0  0  2  0  0  0  0  0  0
  189.3980  176.6730  136.9810 C   0  0  2  0  0  3  0  0  0  0  0  0
  190.1320  176.6020  138.3090 C   0  0  2  0  0  3  0  0  0  0  0  0
  190.7280  175.2830  138.3520 N   0  0  0  0  0  2  0  0  0  0  0  0
  190.9720  174.9550  136.9530 C   0  0  0  0  0  2  0  0  0  0  0  0
  187.6230  174.8780  137.1050 N   0  0  0  0  0  2  0  0  0  0  0  0
  185.2920  175.1030  137.1820 O   0  0  0  0  0  0  0  0  0  0  0  0
  187.0470  177.1490  137.0560 O   0  0  0  0  0  0  0  0  0  0  0  0
  187.9520  176.2700  137.0630 C   0  0  0  0  0  0  0  0  0  0  0  0
  186.2940  174.3420  137.1400 C   0  0  0  0  0  0  0  0  0  0  0  0
  186.0820  172.8620  137.1350 C   0  0  0  0  0  3  0  0  0  0  0  0
  183.9870  172.1050  136.2660 O   0  0  0  0  0  1  0  0  0  0  0  0
  184.6300  172.5150  137.4340 C   0  0  0  0  0  2  0  0  0  0  0  0
  186.5670  172.2290  135.8320 C   0  0  0  0  0  2  0  0  0  0  0  0
  187.5480  171.2640  136.0750 O   0  0  0  0  0  1  0  0  0  0  0  0
  191.3750  177.3100  140.8510 C   0  0  0  0  0  0  0  0  0  0  0  0
  192.4430  177.7540  140.8130 N   0  0  0  0  0  0  0  0  0  0  0  0
  189.7880  178.0330  142.9600 O   0  0  0  0  0  0  0  0  0  0  0  0
  189.6030  177.0730  143.9590 C   0  0  1  0  0  3  0  0  0  0  0  0
  191.8130  176.5150  144.7060 O   0  0  0  0  0  1  0  0  0  0  0  0
  188.0730  178.1100  145.6880 C   0  0  0  0  0  2  0  0  0  0  0  0
  190.1700  176.8140  146.4140 C   0  0  0  0  0  2  0  0  0  0  0  0
  190.6780  177.2500  145.0430 C   0  0  2  0  0  3  0  0  0  0  0  0
  188.9710  177.6630  146.8520 C   0  0  2  0  0  3  0  0  0  0  0  0
  188.1680  177.1540  144.5000 C   0  0  0  0  0  2  0  0  0  0  0  0
  188.1540  176.8930  147.8700 C   0  0  0  0  0  1  0  0  0  0  0  0
  1 21  1  6  0  0  0
  1  3  1  0  0  0  0
  2  3  1  0  0  0  0
  3 23  1  1  0  0  0
  4  2  1  0  0  0  0
  5  4  1  6  0  0  0
  5  1  1  0  0  0  0
  6 10  1  0  0  0  0
  6  7  1  0  0  0  0
  7 14  1  1  0  0  0
  7  8  1  0  0  0  0
  8  9  1  1  0  0  0
  8  5  1  0  0  0  0
 10  9  1  0  0  0  0
 11 15  1  0  0  0  0
 13 14  2  0  0  0  0
 14 11  1  0  0  0  0
 15 12  2  0  0  0  0
 16 15  1  0  0  0  0
 16 18  1  0  0  0  0
 17 18  1  0  0  0  0
 19 20  1  0  0  0  0
 19 16  1  0  0  0  0
 22 21  3  0  0  0  0
 24 23  1  6  0  0  0
 24 30  1  0  0  0  0
 24 28  1  0  0  0  0
 26 29  1  0  0  0  0
 27 29  1  0  0  0  0
 28 25  1  6  0  0  0
 28 27  1  0  0  0  0
 29 31  1  1  0  0  0
 30 26  1  0  0  0  0
M  END
>  <MODEL>
6

>  <REMARK>
 VINA RESULT:      -7.1      2.008      3.044
  Name = 
  8 active torsions:
  status: ('A' for Active; 'I' for Inactive)
    1  A    between atoms: C_1  and  C_7
    2  A    between atoms: C_4  and  O_31
    3  A    between atoms: C_5  and  C_18
    4  A    between atoms: C_5  and  C_23
    5  A    between atoms: C_5  and  C_25
    6  A    between atoms: C_8  and  C_19
    7  A    between atoms: C_9  and  C_29
    8  A    between atoms: C_20  and  O_31
                            x       y       z     vdW  Elec       q    Type
                         _______ _______ _______ _____ _____    ______ ____

>  <TORSDO>
F 8

$$$$
=
 OpenBabel11062414303D

 31 33  0  0  1  0  0  0  0  0999 V2000
  187.2000  179.0200  141.5970 C   0  0  1  0  0  3  0  0  0  0  0  0
  186.1040  177.7950  143.4010 C   0  0  0  0  0  2  0  0  0  0  0  0
  186.2400  179.1740  142.7750 C   0  0  2  0  0  3  0  0  0  0  0  0
  187.2880  176.9780  142.9100 C   0  0  0  0  0  2  0  0  0  0  0  0
  188.1460  177.9260  142.0860 C   0  0  1  0  0  3  0  0  0  0  0  0
  191.1140  176.5680  140.2730 N   0  0  0  0  0  2  0  0  0  0  0  0
  190.2480  176.5560  141.4410 C   0  0  2  0  0  3  0  0  0  0  0  0
  188.9490  177.2010  140.9910 C   0  0  2  0  0  3  0  0  0  0  0  0
  189.3140  178.0970  139.9140 N   0  0  0  0  0  2  0  0  0  0  0  0
  190.4870  177.4750  139.3130 C   0  0  0  0  0  2  0  0  0  0  0  0
  190.5830  176.9270  143.9180 N   0  0  0  0  0  2  0  0  0  0  0  0
  191.9790  178.4580  145.0120 O   0  0  0  0  0  0  0  0  0  0  0  0
  191.7530  178.1970  142.3350 O   0  0  0  0  0  0  0  0  0  0  0  0
  190.9250  177.2760  142.5730 C   0  0  0  0  0  0  0  0  0  0  0  0
  191.1100  177.5510  145.0960 C   0  0  0  0  0  0  0  0  0  0  0  0
  190.6340  177.1250  146.4480 C   0  0  0  0  0  3  0  0  0  0  0  0
  188.3950  177.9280  146.2040 O   0  0  0  0  0  1  0  0  0  0  0  0
  189.1520  176.7770  146.4230 C   0  0  0  0  0  2  0  0  0  0  0  0
  191.4820  175.9860  147.0090 C   0  0  0  0  0  2  0  0  0  0  0  0
  192.4360  176.4660  147.9120 O   0  0  0  0  0  1  0  0  0  0  0  0
  186.4850  178.6270  140.3620 C   0  0  0  0  0  0  0  0  0  0  0  0
  185.9260  178.3200  139.3960 N   0  0  0  0  0  0  0  0  0  0  0  0
  184.9890  179.6780  142.3990 O   0  0  0  0  0  0  0  0  0  0  0  0
  184.0600  178.7680  142.9110 C   0  0  1  0  0  3  0  0  0  0  0  0
  183.8010  179.3720  145.2180 O   0  0  0  0  0  1  0  0  0  0  0  0
  181.9860  178.9600  141.4720 C   0  0  0  0  0  2  0  0  0  0  0  0
  181.7900  178.8640  144.0320 C   0  0  0  0  0  2  0  0  0  0  0  0
  183.1910  179.4660  143.9680 C   0  0  2  0  0  3  0  0  0  0  0  0
  181.0590  179.0300  142.6950 C   0  0  2  0  0  3  0  0  0  0  0  0
  183.2490  178.1490  141.7620 C   0  0  0  0  0  2  0  0  0  0  0  0
  179.9730  177.9780  142.5810 C   0  0  0  0  0  1  0  0  0  0  0  0
  1 21  1  6  0  0  0
  1  5  1  0  0  0  0
  1  3  1  0  0  0  0
  3 23  1  6  0  0  0
  3  2  1  0  0  0  0
  4  2  1  0  0  0  0
  5  4  1  6  0  0  0
  6  7  1  0  0  0  0
  7 14  1  1  0  0  0
  8  9  1  6  0  0  0
  8  7  1  0  0  0  0
  8  5  1  0  0  0  0
 10  9  1  0  0  0  0
 10  6  1  0  0  0  0
 11 15  1  0  0  0  0
 12 15  2  0  0  0  0
 13 14  2  0  0  0  0
 14 11  1  0  0  0  0
 15 16  1  0  0  0  0
 16 19  1  0  0  0  0
 17 18  1  0  0  0  0
 18 16  1  0  0  0  0
 19 20  1  0  0  0  0
 22 21  3  0  0  0  0
 24 23  1  6  0  0  0
 24 28  1  0  0  0  0
 26 30  1  0  0  0  0
 26 29  1  0  0  0  0
 28 27  1  0  0  0  0
 28 25  1  1  0  0  0
 29 31  1  6  0  0  0
 29 27  1  0  0  0  0
 30 24  1  0  0  0  0
M  END
>  <MODEL>
7

>  <REMARK>
 VINA RESULT:      -6.7      3.054      7.464
  Name = 
  8 active torsions:
  status: ('A' for Active; 'I' for Inactive)
    1  A    between atoms: C_1  and  C_7
    2  A    between atoms: C_4  and  O_31
    3  A    between atoms: C_5  and  C_18
    4  A    between atoms: C_5  and  C_23
    5  A    between atoms: C_5  and  C_25
    6  A    between atoms: C_8  and  C_19
    7  A    between atoms: C_9  and  C_29
    8  A    between atoms: C_20  and  O_31
                            x       y       z     vdW  Elec       q    Type
                         _______ _______ _______ _____ _____    ______ ____

>  <TORSDO>
F 8

$$$$
=
 OpenBabel11062414303D

 31 33  0  0  1  0  0  0  0  0999 V2000
  189.1810  176.4370  141.6640 C   0  0  1  0  0  3  0  0  0  0  0  0
  187.8870  178.1930  142.7620 C   0  0  0  0  0  2  0  0  0  0  0  0
  188.2510  176.7180  142.8430 C   0  0  2  0  0  3  0  0  0  0  0  0
  188.2030  178.6390  141.3430 C   0  0  0  0  0  2  0  0  0  0  0  0
  188.6520  177.3920  140.5960 C   0  0  1  0  0  3  0  0  0  0  0  0
  189.8530  177.8770  137.0950 N   0  0  0  0  0  2  0  0  0  0  0  0
  188.9960  178.2950  138.1920 C   0  0  2  0  0  3  0  0  0  0  0  0
  189.6230  177.7080  139.4440 C   0  0  2  0  0  3  0  0  0  0  0  0
  190.3320  176.5240  139.0050 N   0  0  0  0  0  2  0  0  0  0  0  0
  190.7190  176.8280  137.6320 C   0  0  0  0  0  2  0  0  0  0  0  0
  187.3780  176.4660  137.5380 N   0  0  0  0  0  2  0  0  0  0  0  0
  185.0470  176.5590  137.3190 O   0  0  0  0  0  0  0  0  0  0  0  0
  186.6240  178.6280  138.0370 O   0  0  0  0  0  0  0  0  0  0  0  0
  187.5910  177.8240  137.9360 C   0  0  0  0  0  0  0  0  0  0  0  0
  186.1070  175.8860  137.2190 C   0  0  0  0  0  0  0  0  0  0  0  0
  186.0230  174.4630  136.7690 C   0  0  0  0  0  3  0  0  0  0  0  0
  184.9650  172.6860  137.9690 O   0  0  0  0  0  1  0  0  0  0  0  0
  184.7110  173.8260  137.2050 C   0  0  0  0  0  2  0  0  0  0  0  0
  186.2520  174.3350  135.2640 C   0  0  0  0  0  2  0  0  0  0  0  0
  186.0690  175.5630  134.6210 O   0  0  0  0  0  1  0  0  0  0  0  0
  190.5940  176.7140  142.0080 C   0  0  0  0  0  0  0  0  0  0  0  0
  191.6980  176.9290  142.2780 N   0  0  0  0  0  0  0  0  0  0  0  0
  188.8320  176.4140  144.0810 O   0  0  0  0  0  0  0  0  0  0  0  0
  188.5270  177.5010  144.9040 C   0  0  1  0  0  3  0  0  0  0  0  0
  186.1480  177.4140  145.1970 O   0  0  0  0  0  1  0  0  0  0  0  0
  189.9160  177.2340  147.0030 C   0  0  0  0  0  2  0  0  0  0  0  0
  187.4330  177.8730  147.1590 C   0  0  0  0  0  2  0  0  0  0  0  0
  187.3570  177.1290  145.8290 C   0  0  2  0  0  3  0  0  0  0  0  0
  188.7150  177.5140  147.9190 C   0  0  2  0  0  3  0  0  0  0  0  0
  189.7860  177.9510  145.6600 C   0  0  0  0  0  2  0  0  0  0  0  0
  189.0530  178.6270  148.8910 C   0  0  0  0  0  1  0  0  0  0  0  0
  1 21  1  1  0  0  0
  1  3  1  0  0  0  0
  2  3  1  0  0  0  0
  3 23  1  1  0  0  0
  4  2  1  0  0  0  0
  5  4  1  1  0  0  0
  5  1  1  0  0  0  0
  6 10  1  0  0  0  0
  6  7  1  0  0  0  0
  7 14  1  6  0  0  0
  7  8  1  0  0  0  0
  8  9  1  6  0  0  0
  8  5  1  0  0  0  0
 10  9  1  0  0  0  0
 11 14  1  0  0  0  0
 14 13  2  0  0  0  0
 15 12  2  0  0  0  0
 15 11  1  0  0  0  0
 16 18  1  0  0  0  0
 16 15  1  0  0  0  0
 18 17  1  0  0  0  0
 19 16  1  0  0  0  0
 20 19  1  0  0  0  0
 21 22  3  0  0  0  0
 24 23  1  1  0  0  0
 24 30  1  0  0  0  0
 24 28  1  0  0  0  0
 26 29  1  0  0  0  0
 27 29  1  0  0  0  0
 28 25  1  6  0  0  0
 28 27  1  0  0  0  0
 29 31  1  1  0  0  0
 30 26  1  0  0  0  0
M  END
>  <MODEL>
8

>  <REMARK>
 VINA RESULT:      -6.7      1.963      3.076
  Name = 
  8 active torsions:
  status: ('A' for Active; 'I' for Inactive)
    1  A    between atoms: C_1  and  C_7
    2  A    between atoms: C_4  and  O_31
    3  A    between atoms: C_5  and  C_18
    4  A    between atoms: C_5  and  C_23
    5  A    between atoms: C_5  and  C_25
    6  A    between atoms: C_8  and  C_19
    7  A    between atoms: C_9  and  C_29
    8  A    between atoms: C_20  and  O_31
                            x       y       z     vdW  Elec       q    Type
                         _______ _______ _______ _____ _____    ______ ____

>  <TORSDO>
F 8

$$$$
=
 OpenBabel11062414303D

 31 33  0  0  1  0  0  0  0  0999 V2000
  186.8840  177.2670  143.6390 C   0  0  1  0  0  3  0  0  0  0  0  0
  186.1610  179.0020  142.0810 C   0  0  0  0  0  2  0  0  0  0  0  0
  185.7260  177.7040  142.7440 C   0  0  2  0  0  3  0  0  0  0  0  0
  187.6730  179.0700  142.2140 C   0  0  0  0  0  2  0  0  0  0  0  0
  188.1020  177.7630  142.8630 C   0  0  1  0  0  3  0  0  0  0  0  0
  191.6880  177.3090  143.7980 N   0  0  0  0  0  2  0  0  0  0  0  0
  190.6920  177.8410  142.8830 C   0  0  2  0  0  3  0  0  0  0  0  0
  189.4000  177.9040  143.6790 C   0  0  2  0  0  3  0  0  0  0  0  0
  189.5140  176.8670  144.6840 N   0  0  0  0  0  2  0  0  0  0  0  0
  190.9460  176.7700  144.9370 C   0  0  0  0  0  2  0  0  0  0  0  0
  190.4710  177.5800  140.3790 N   0  0  0  0  0  2  0  0  0  0  0  0
  190.3920  175.6220  139.0950 O   0  0  0  0  0  0  0  0  0  0  0  0
  190.6380  175.7100  141.7810 O   0  0  0  0  0  0  0  0  0  0  0  0
  190.6140  176.9660  141.6640 C   0  0  0  0  0  0  0  0  0  0  0  0
  190.3410  176.8790  139.1350 C   0  0  0  0  0  0  0  0  0  0  0  0
  190.1500  177.6390  137.8620 C   0  0  0  0  0  3  0  0  0  0  0  0
  189.1700  176.9240  135.8020 O   0  0  0  0  0  1  0  0  0  0  0  0
  190.2560  176.7200  136.6530 C   0  0  0  0  0  2  0  0  0  0  0  0
  188.8420  178.4290  137.8700 C   0  0  0  0  0  2  0  0  0  0  0  0
  189.0550  179.7590  137.4950 O   0  0  0  0  0  1  0  0  0  0  0  0
  186.7920  177.8810  144.9840 C   0  0  0  0  0  0  0  0  0  0  0  0
  186.7210  178.3600  146.0340 N   0  0  0  0  0  0  0  0  0  0  0  0
  184.5280  177.8780  143.4470 O   0  0  0  0  0  0  0  0  0  0  0  0
  183.7730  178.7610  142.6700 C   0  0  1  0  0  3  0  0  0  0  0  0
  183.6530  177.7400  140.5030 O   0  0  0  0  0  1  0  0  0  0  0  0
  181.5690  179.0850  143.8710 C   0  0  0  0  0  2  0  0  0  0  0  0
  181.6230  178.6880  141.3330 C   0  0  0  0  0  2  0  0  0  0  0  0
  182.9230  177.9630  141.6690 C   0  0  2  0  0  3  0  0  0  0  0  0
  180.7570  178.8730  142.5850 C   0  0  2  0  0  3  0  0  0  0  0  0
  182.9460  179.6810  143.5810 C   0  0  0  0  0  2  0  0  0  0  0  0
  179.8080  180.0360  142.3730 C   0  0  0  0  0  1  0  0  0  0  0  0
  1 21  1  1  0  0  0
  2  4  1  0  0  0  0
  2  3  1  0  0  0  0
  3 23  1  1  0  0  0
  3  1  1  0  0  0  0
  5  4  1  1  0  0  0
  5  1  1  0  0  0  0
  5  8  1  0  0  0  0
  6 10  1  0  0  0  0
  7 14  1  6  0  0  0
  7  8  1  0  0  0  0
  7  6  1  0  0  0  0
  8  9  1  1  0  0  0
  9 10  1  0  0  0  0
 11 14  1  0  0  0  0
 12 15  2  0  0  0  0
 14 13  2  0  0  0  0
 15 11  1  0  0  0  0
 16 19  1  0  0  0  0
 16 15  1  0  0  0  0
 17 18  1  0  0  0  0
 18 16  1  0  0  0  0
 20 19  1  0  0  0  0
 21 22  3  0  0  0  0
 24 23  1  1  0  0  0
 24 30  1  0  0  0  0
 27 28  1  0  0  0  0
 27 29  1  0  0  0  0
 28 25  1  6  0  0  0
 28 24  1  0  0  0  0
 29 31  1  6  0  0  0
 29 26  1  0  0  0  0
 30 26  1  0  0  0  0
M  END
>  <MODEL>
9

>  <REMARK>
 VINA RESULT:      -6.1      3.422      6.594
  Name = 
  8 active torsions:
  status: ('A' for Active; 'I' for Inactive)
    1  A    between atoms: C_1  and  C_7
    2  A    between atoms: C_4  and  O_31
    3  A    between atoms: C_5  and  C_18
    4  A    between atoms: C_5  and  C_23
    5  A    between atoms: C_5  and  C_25
    6  A    between atoms: C_8  and  C_19
    7  A    between atoms: C_9  and  C_29
    8  A    between atoms: C_20  and  O_31
                            x       y       z     vdW  Elec       q    Type
                         _______ _______ _______ _____ _____    ______ ____

>  <TORSDO>
F 8

$$$$
