=
 OpenBabel11062412303D

 33 36  0  0  1  0  0  0  0  0999 V2000
  190.1390  178.4320  143.9190 C   0  0  0  0  0  2  0  0  0  0  0  0
  184.3390  178.6390  142.4270 C   0  0  0  0  0  0  0  0  0  0  0  0
  191.3330  178.4890  142.9590 C   0  0  0  0  0  2  0  0  0  0  0  0
  182.3180  178.6560  143.8170 O   0  0  0  0  0  1  0  0  0  0  0  0
  187.4420  176.4750  144.8230 C   0  0  0  0  0  1  0  0  0  0  0  0
  188.9220  177.7400  143.3150 C   0  0  1  0  0  3  0  0  0  0  0  0
  184.0700  179.1010  140.0710 N   0  0  0  0  0  0  0  0  0  0  0  0
  187.0860  178.3310  141.9610 C   0  0  0  0  0  0  0  0  0  0  0  0
  191.4440  177.2560  142.0640 C   0  0  0  0  0  2  0  0  0  0  0  0
  186.5880  178.1670  143.2350 C   0  0  0  0  0  0  0  0  0  0  0  0
  187.6790  177.8400  144.1990 C   0  0  1  0  0  3  0  0  0  0  0  0
  185.2150  178.3520  143.5120 C   0  0  0  0  0  0  0  0  0  0  0  0
  189.1600  177.3080  140.8790 C   0  0  1  0  0  3  0  0  0  0  0  0
  182.9410  178.7980  142.5820 C   0  0  0  0  0  0  0  0  0  0  0  0
  182.7290  179.2510  140.2210 C   0  0  0  0  0  3  0  0  0  0  0  0
  188.5730  178.2700  141.9230 C   0  0  2  0  0  3  0  0  0  0  0  0
  184.8810  178.8020  141.1200 C   0  0  0  0  0  0  0  0  0  0  0  0
  191.1740  176.5840  139.7970 O   0  0  0  0  0  1  0  0  0  0  0  0
  188.5830  177.5370  139.6270 O   0  0  0  0  0  1  0  0  0  0  0  0
  190.6850  177.4760  140.7520 C   0  0  2  0  0  3  0  0  0  0  0  0
  182.1460  179.1010  141.4770 C   0  0  0  0  0  3  0  0  0  0  0  0
  186.2530  178.6730  140.8990 C   0  0  0  0  0  3  0  0  0  0  0  0
  184.7070  178.2920  144.8550 N   0  0  0  0  0  2  0  0  0  0  0  0
  184.9810  179.2190  145.8030 O   0  0  0  0  0  0  0  0  0  0  0  0
  185.4170  178.4840  146.9080 C   0  0  0  0  0  2  0  0  0  0  0  0
  186.6970  179.0840  147.4600 C   0  0  0  0  0  2  0  0  0  0  0  0
  187.5310  178.0070  148.1330 C   0  0  0  0  0  2  0  0  0  0  0  0
  188.9810  178.1070  147.6930 C   0  0  0  0  0  2  0  0  0  0  0  0
  189.5640  176.7210  147.4780 C   0  0  0  0  0  2  0  0  0  0  0  0
  191.6940  177.3960  148.2940 O   0  0  0  0  0  0  0  0  0  0  0  0
  191.0510  176.8030  147.3900 C   0  0  0  0  0  0  0  0  0  0  0  0
  191.7720  176.2270  146.2530 C   0  0  0  0  0  3  0  0  0  0  0  0
  192.5030  175.2110  146.3960 O   0  0  0  0  0  0  0  0  0  0  0  0
  2 14  1  0  0  0  0
  2 12  1  0  0  0  0
  3  1  1  0  0  0  0
  6  1  1  1  0  0  0
  6 11  1  0  0  0  0
  7 15  2  0  0  0  0
  7 17  1  0  0  0  0
  8 10  1  0  0  0  0
  9  3  1  0  0  0  0
 10 12  2  0  0  0  0
 10 11  1  0  0  0  0
 11  5  1  6  0  0  0
 12 23  1  0  0  0  0
 13 19  1  6  0  0  0
 13 16  1  0  0  0  0
 14  4  1  0  0  0  0
 15 21  1  0  0  0  0
 16  8  1  1  0  0  0
 16  6  1  0  0  0  0
 17  2  2  0  0  0  0
 20 18  1  6  0  0  0
 20 13  1  0  0  0  0
 20  9  1  0  0  0  0
 21 14  2  0  0  0  0
 22 17  1  0  0  0  0
 22  8  2  0  0  0  0
 23 24  1  0  0  0  0
 24 25  1  0  0  0  0
 25 26  1  0  0  0  0
 26 27  1  0  0  0  0
 28 27  1  0  0  0  0
 29 28  1  0  0  0  0
 31 29  1  0  0  0  0
 31 30  2  0  0  0  0
 32 33  2  0  0  0  0
 32 31  1  0  0  0  0
M  END
>  <MODEL>
1

>  <REMARK>
 VINA RESULT:      -8.4      0.000      0.000
  Name = 
  9 active torsions:
  status: ('A' for Active; 'I' for Inactive)
    1  A    between atoms: N_6  and  C_17
    2  A    between atoms: N_6  and  O_21
    3  A    between atoms: C_9  and  O_21
    4  A    between atoms: C_9  and  C_33
    5  A    between atoms: C_14  and  C_18
    6  A    between atoms: C_14  and  C_28
    7  A    between atoms: C_16  and  C_18
    8  A    between atoms: C_24  and  C_28
    9  A    between atoms: C_24  and  C_33
                            x       y       z     vdW  Elec       q    Type
                         _______ _______ _______ _____ _____    ______ ____

>  <TORSDO>
F 9

$$$$
=
 OpenBabel11062412303D

 33 36  0  0  1  0  0  0  0  0999 V2000
  191.2730  176.3510  145.4130 C   0  0  0  0  0  2  0  0  0  0  0  0
  186.6970  178.2380  142.0350 C   0  0  0  0  0  0  0  0  0  0  0  0
  191.2300  176.0210  146.9090 C   0  0  0  0  0  2  0  0  0  0  0  0
  186.5590  178.7190  139.6330 O   0  0  0  0  0  1  0  0  0  0  0  0
  190.9670  178.9610  143.1740 C   0  0  0  0  0  1  0  0  0  0  0  0
  190.3140  177.4700  145.0230 C   0  0  1  0  0  3  0  0  0  0  0  0
  184.6250  178.1740  143.2750 N   0  0  0  0  0  0  0  0  0  0  0  0
  188.0430  177.6810  144.4300 C   0  0  0  0  0  0  0  0  0  0  0  0
  190.9900  177.2460  147.7890 C   0  0  0  0  0  2  0  0  0  0  0  0
  188.7620  177.8450  143.2660 C   0  0  0  0  0  0  0  0  0  0  0  0
  190.2240  177.6790  143.5110 C   0  0  1  0  0  3  0  0  0  0  0  0
  188.1130  178.0900  142.0350 C   0  0  0  0  0  0  0  0  0  0  0  0
  188.7470  178.0880  146.8500 C   0  0  1  0  0  3  0  0  0  0  0  0
  185.9490  178.5290  140.8690 C   0  0  0  0  0  0  0  0  0  0  0  0
  183.9100  178.4560  142.1570 C   0  0  0  0  0  3  0  0  0  0  0  0
  188.9020  177.2540  145.5690 C   0  0  2  0  0  3  0  0  0  0  0  0
  185.9800  178.0630  143.2530 C   0  0  0  0  0  0  0  0  0  0  0  0
  189.3260  178.2350  149.1730 O   0  0  0  0  0  1  0  0  0  0  0  0
  187.3970  178.2130  147.1900 O   0  0  0  0  0  1  0  0  0  0  0  0
  189.4920  177.4460  148.0340 C   0  0  2  0  0  3  0  0  0  0  0  0
  184.5600  178.6380  140.9380 C   0  0  0  0  0  3  0  0  0  0  0  0
  186.6530  177.7600  144.4370 C   0  0  0  0  0  3  0  0  0  0  0  0
  188.8460  178.1520  140.8010 N   0  0  0  0  0  2  0  0  0  0  0  0
  189.4230  177.0760  140.2150 O   0  0  0  0  0  0  0  0  0  0  0  0
  190.6490  177.5420  139.7340 C   0  0  0  0  0  2  0  0  0  0  0  0
  191.2660  176.5170  138.8020 C   0  0  0  0  0  2  0  0  0  0  0  0
  190.1860  175.6160  138.2280 C   0  0  0  0  0  2  0  0  0  0  0  0
  189.7160  176.1430  136.8830 C   0  0  0  0  0  2  0  0  0  0  0  0
  188.2380  176.4900  136.9400 C   0  0  0  0  0  2  0  0  0  0  0  0
  186.9600  178.2730  136.0220 O   0  0  0  0  0  0  0  0  0  0  0  0
  188.0360  177.9210  136.5710 C   0  0  0  0  0  0  0  0  0  0  0  0
  189.0810  178.9180  136.8120 C   0  0  0  0  0  3  0  0  0  0  0  0
  188.9380  179.8060  137.6930 O   0  0  0  0  0  0  0  0  0  0  0  0
  1  3  1  0  0  0  0
  2 12  2  0  0  0  0
  2 17  1  0  0  0  0
  3  9  1  0  0  0  0
  4 14  1  0  0  0  0
  6  1  1  6  0  0  0
  6 16  1  0  0  0  0
  8 22  1  0  0  0  0
  9 20  1  0  0  0  0
 10 11  1  0  0  0  0
 10  8  2  0  0  0  0
 11  5  1  1  0  0  0
 11  6  1  0  0  0  0
 12 10  1  0  0  0  0
 13 19  1  1  0  0  0
 13 20  1  0  0  0  0
 14 21  2  0  0  0  0
 14  2  1  0  0  0  0
 15  7  2  0  0  0  0
 16  8  1  6  0  0  0
 16 13  1  0  0  0  0
 17  7  1  0  0  0  0
 17 22  2  0  0  0  0
 20 18  1  1  0  0  0
 21 15  1  0  0  0  0
 23 12  1  0  0  0  0
 24 23  1  0  0  0  0
 25 24  1  0  0  0  0
 26 25  1  0  0  0  0
 27 26  1  0  0  0  0
 28 29  1  0  0  0  0
 28 27  1  0  0  0  0
 30 31  2  0  0  0  0
 31 32  1  0  0  0  0
 31 29  1  0  0  0  0
 32 33  2  0  0  0  0
M  END
>  <MODEL>
2

>  <REMARK>
 VINA RESULT:      -8.0      2.321      6.973
  Name = 
  9 active torsions:
  status: ('A' for Active; 'I' for Inactive)
    1  A    between atoms: N_6  and  C_17
    2  A    between atoms: N_6  and  O_21
    3  A    between atoms: C_9  and  O_21
    4  A    between atoms: C_9  and  C_33
    5  A    between atoms: C_14  and  C_18
    6  A    between atoms: C_14  and  C_28
    7  A    between atoms: C_16  and  C_18
    8  A    between atoms: C_24  and  C_28
    9  A    between atoms: C_24  and  C_33
                            x       y       z     vdW  Elec       q    Type
                         _______ _______ _______ _____ _____    ______ ____

>  <TORSDO>
F 9

$$$$
=
 OpenBabel11062412303D

 33 36  0  0  1  0  0  0  0  0999 V2000
  190.9560  176.4210  145.3430 C   0  0  0  0  0  2  0  0  0  0  0  0
  186.2550  178.3720  142.1800 C   0  0  0  0  0  0  0  0  0  0  0  0
  190.9690  176.0590  146.8330 C   0  0  0  0  0  2  0  0  0  0  0  0
  186.0270  178.9040  139.7960 O   0  0  0  0  0  1  0  0  0  0  0  0
  190.5650  179.0760  143.1730 C   0  0  0  0  0  1  0  0  0  0  0  0
  189.9830  177.5470  145.0130 C   0  0  1  0  0  3  0  0  0  0  0  0
  184.2310  178.2800  143.4960 N   0  0  0  0  0  0  0  0  0  0  0  0
  187.6910  177.7670  144.5110 C   0  0  0  0  0  0  0  0  0  0  0  0
  190.7620  177.2660  147.7460 C   0  0  0  0  0  2  0  0  0  0  0  0
  188.3660  177.9570  143.3240 C   0  0  0  0  0  0  0  0  0  0  0  0
  189.8360  177.7870  143.5100 C   0  0  1  0  0  3  0  0  0  0  0  0
  187.6700  178.2260  142.1230 C   0  0  0  0  0  0  0  0  0  0  0  0
  188.4850  178.1250  146.9110 C   0  0  1  0  0  3  0  0  0  0  0  0
  185.4640  178.6870  141.0490 C   0  0  0  0  0  0  0  0  0  0  0  0
  183.4750  178.5850  142.4110 C   0  0  0  0  0  3  0  0  0  0  0  0
  188.5920  177.3180  145.6070 C   0  0  2  0  0  3  0  0  0  0  0  0
  185.5840  178.1720  143.4200 C   0  0  0  0  0  0  0  0  0  0  0  0
  189.1510  178.2240  149.2120 O   0  0  0  0  0  1  0  0  0  0  0  0
  187.1490  178.2400  147.3040 O   0  0  0  0  0  1  0  0  0  0  0  0
  189.2740  177.4590  148.0520 C   0  0  2  0  0  3  0  0  0  0  0  0
  184.0790  178.7930  141.1730 C   0  0  0  0  0  3  0  0  0  0  0  0
  186.3020  177.8450  144.5710 C   0  0  0  0  0  3  0  0  0  0  0  0
  188.3560  178.3150  140.8640 N   0  0  0  0  0  2  0  0  0  0  0  0
  189.1640  177.3420  140.3790 O   0  0  0  0  0  0  0  0  0  0  0  0
  188.7750  177.1830  139.0470 C   0  0  0  0  0  2  0  0  0  0  0  0
  189.0130  178.4680  138.2780 C   0  0  0  0  0  2  0  0  0  0  0  0
  189.4640  178.1550  136.8620 C   0  0  0  0  0  2  0  0  0  0  0  0
  189.4950  176.6530  136.6360 C   0  0  0  0  0  2  0  0  0  0  0  0
  190.9040  176.1990  136.2960 C   0  0  0  0  0  2  0  0  0  0  0  0
  191.1960  174.5420  137.9760 O   0  0  0  0  0  0  0  0  0  0  0  0
  191.5700  175.6500  137.5120 C   0  0  0  0  0  0  0  0  0  0  0  0
  192.6340  176.3930  138.1900 C   0  0  0  0  0  3  0  0  0  0  0  0
  193.6750  176.7440  137.5740 O   0  0  0  0  0  0  0  0  0  0  0  0
  1  3  1  0  0  0  0
  2 17  1  0  0  0  0
  3  9  1  0  0  0  0
  4 14  1  0  0  0  0
  6  1  1  6  0  0  0
  6 16  1  0  0  0  0
  8 22  1  0  0  0  0
  9 20  1  0  0  0  0
 10 11  1  0  0  0  0
 10  8  2  0  0  0  0
 11  5  1  1  0  0  0
 11  6  1  0  0  0  0
 12  2  2  0  0  0  0
 12 10  1  0  0  0  0
 13 19  1  1  0  0  0
 13 20  1  0  0  0  0
 14 21  2  0  0  0  0
 14  2  1  0  0  0  0
 15  7  2  0  0  0  0
 16  8  1  6  0  0  0
 16 13  1  0  0  0  0
 17  7  1  0  0  0  0
 17 22  2  0  0  0  0
 20 18  1  1  0  0  0
 21 15  1  0  0  0  0
 23 12  1  0  0  0  0
 24 23  1  0  0  0  0
 25 24  1  0  0  0  0
 26 25  1  0  0  0  0
 27 26  1  0  0  0  0
 28 27  1  0  0  0  0
 29 28  1  0  0  0  0
 29 31  1  0  0  0  0
 31 30  2  0  0  0  0
 31 32  1  0  0  0  0
 33 32  2  0  0  0  0
M  END
>  <MODEL>
3

>  <REMARK>
 VINA RESULT:      -7.9      2.311      6.617
  Name = 
  9 active torsions:
  status: ('A' for Active; 'I' for Inactive)
    1  A    between atoms: N_6  and  C_17
    2  A    between atoms: N_6  and  O_21
    3  A    between atoms: C_9  and  O_21
    4  A    between atoms: C_9  and  C_33
    5  A    between atoms: C_14  and  C_18
    6  A    between atoms: C_14  and  C_28
    7  A    between atoms: C_16  and  C_18
    8  A    between atoms: C_24  and  C_28
    9  A    between atoms: C_24  and  C_33
                            x       y       z     vdW  Elec       q    Type
                         _______ _______ _______ _____ _____    ______ ____

>  <TORSDO>
F 9

$$$$
=
 OpenBabel11062412303D

 33 36  0  0  1  0  0  0  0  0999 V2000
  189.0350  178.1780  146.5580 C   0  0  0  0  0  2  0  0  0  0  0  0
  188.5120  177.9200  140.5940 C   0  0  0  0  0  0  0  0  0  0  0  0
  190.3000  177.8970  147.3780 C   0  0  0  0  0  2  0  0  0  0  0  0
  186.6170  178.4240  139.1200 O   0  0  0  0  0  1  0  0  0  0  0  0
  186.7130  176.6670  144.4980 C   0  0  0  0  0  1  0  0  0  0  0  0
  188.9470  177.3340  145.2910 C   0  0  1  0  0  3  0  0  0  0  0  0
  190.6630  177.5610  139.5530 N   0  0  0  0  0  0  0  0  0  0  0  0
  189.7330  177.4480  143.0730 C   0  0  0  0  0  0  0  0  0  0  0  0
  190.7340  176.4330  147.3300 C   0  0  0  0  0  2  0  0  0  0  0  0
  188.3850  177.7300  143.0190 C   0  0  0  0  0  0  0  0  0  0  0  0
  187.7850  177.7380  144.3840 C   0  0  1  0  0  3  0  0  0  0  0  0
  187.7460  178.0100  141.7900 C   0  0  0  0  0  0  0  0  0  0  0  0
  191.0480  176.1010  144.7980 C   0  0  1  0  0  3  0  0  0  0  0  0
  187.9650  178.1340  139.3060 C   0  0  0  0  0  0  0  0  0  0  0  0
  190.1350  177.7640  138.3190 C   0  0  0  0  0  3  0  0  0  0  0  0
  190.2380  177.3650  144.4710 C   0  0  2  0  0  3  0  0  0  0  0  0
  189.9030  177.6270  140.6790 C   0  0  0  0  0  0  0  0  0  0  0  0
  192.4400  175.0360  146.4350 O   0  0  0  0  0  1  0  0  0  0  0  0
  192.0430  175.8980  143.8370 O   0  0  0  0  0  1  0  0  0  0  0  0
  191.7180  176.2030  146.1800 C   0  0  2  0  0  3  0  0  0  0  0  0
  188.7800  178.0530  138.1770 C   0  0  0  0  0  3  0  0  0  0  0  0
  190.5110  177.4190  141.9180 C   0  0  0  0  0  3  0  0  0  0  0  0
  186.3680  178.4120  141.7370 N   0  0  0  0  0  2  0  0  0  0  0  0
  185.9180  179.6100  142.1800 O   0  0  0  0  0  0  0  0  0  0  0  0
  184.6180  179.3630  142.6290 C   0  0  0  0  0  2  0  0  0  0  0  0
  184.5490  179.5270  144.1350 C   0  0  0  0  0  2  0  0  0  0  0  0
  183.2460  178.9510  144.6630 C   0  0  0  0  0  2  0  0  0  0  0  0
  182.2310  178.8210  143.5410 C   0  0  0  0  0  2  0  0  0  0  0  0
  180.8260  178.7190  144.1100 C   0  0  0  0  0  2  0  0  0  0  0  0
  179.3380  177.9870  142.4060 O   0  0  0  0  0  0  0  0  0  0  0  0
  179.8220  178.9630  143.0340 C   0  0  0  0  0  0  0  0  0  0  0  0
  179.4100  180.3230  142.6800 C   0  0  0  0  0  3  0  0  0  0  0  0
  179.3870  180.7010  141.4790 O   0  0  0  0  0  0  0  0  0  0  0  0
  1  3  1  0  0  0  0
  2 17  2  0  0  0  0
  2 12  1  0  0  0  0
  4 14  1  0  0  0  0
  6  1  1  1  0  0  0
  7 17  1  0  0  0  0
  9  3  1  0  0  0  0
 10  8  1  0  0  0  0
 10 11  1  0  0  0  0
 11  5  1  6  0  0  0
 11  6  1  0  0  0  0
 12 10  2  0  0  0  0
 13 19  1  6  0  0  0
 13 20  1  0  0  0  0
 14  2  1  0  0  0  0
 15  7  2  0  0  0  0
 16  8  1  6  0  0  0
 16 13  1  0  0  0  0
 16  6  1  0  0  0  0
 17 22  1  0  0  0  0
 20 18  1  1  0  0  0
 20  9  1  0  0  0  0
 21 15  1  0  0  0  0
 21 14  2  0  0  0  0
 22  8  2  0  0  0  0
 23 12  1  0  0  0  0
 23 24  1  0  0  0  0
 24 25  1  0  0  0  0
 25 26  1  0  0  0  0
 26 27  1  0  0  0  0
 28 29  1  0  0  0  0
 28 27  1  0  0  0  0
 30 31  2  0  0  0  0
 31 29  1  0  0  0  0
 32 31  1  0  0  0  0
 33 32  2  0  0  0  0
M  END
>  <MODEL>
4

>  <REMARK>
 VINA RESULT:      -7.8      2.327      6.812
  Name = 
  9 active torsions:
  status: ('A' for Active; 'I' for Inactive)
    1  A    between atoms: N_6  and  C_17
    2  A    between atoms: N_6  and  O_21
    3  A    between atoms: C_9  and  O_21
    4  A    between atoms: C_9  and  C_33
    5  A    between atoms: C_14  and  C_18
    6  A    between atoms: C_14  and  C_28
    7  A    between atoms: C_16  and  C_18
    8  A    between atoms: C_24  and  C_28
    9  A    between atoms: C_24  and  C_33
                            x       y       z     vdW  Elec       q    Type
                         _______ _______ _______ _____ _____    ______ ____

>  <TORSDO>
F 9

$$$$
=
 OpenBabel11062412303D

 33 36  0  0  1  0  0  0  0  0999 V2000
  188.7730  178.3540  146.7130 C   0  0  0  0  0  2  0  0  0  0  0  0
  188.7310  177.8610  140.7420 C   0  0  0  0  0  0  0  0  0  0  0  0
  189.9670  178.1070  147.6430 C   0  0  0  0  0  2  0  0  0  0  0  0
  186.9610  178.3040  139.1010 O   0  0  0  0  0  1  0  0  0  0  0  0
  186.6210  176.7610  144.5350 C   0  0  0  0  0  1  0  0  0  0  0  0
  188.7860  177.4610  145.4780 C   0  0  1  0  0  3  0  0  0  0  0  0
  190.9580  177.4630  139.8930 N   0  0  0  0  0  0  0  0  0  0  0  0
  189.7480  177.4880  143.3270 C   0  0  0  0  0  0  0  0  0  0  0  0
  190.4010  176.6430  147.6880 C   0  0  0  0  0  2  0  0  0  0  0  0
  188.4090  177.7660  143.1540 C   0  0  0  0  0  0  0  0  0  0  0  0
  187.7010  177.8270  144.4660 C   0  0  1  0  0  3  0  0  0  0  0  0
  187.8710  177.9960  141.8680 C   0  0  0  0  0  0  0  0  0  0  0  0
  190.9170  176.2120  145.2040 C   0  0  1  0  0  3  0  0  0  0  0  0
  188.2890  178.0230  139.4070 C   0  0  0  0  0  0  0  0  0  0  0  0
  190.5310  177.6170  138.6130 C   0  0  0  0  0  3  0  0  0  0  0  0
  190.1380  177.4610  144.7640 C   0  0  2  0  0  3  0  0  0  0  0  0
  190.1100  177.5720  140.9500 C   0  0  0  0  0  0  0  0  0  0  0  0
  192.1700  175.2140  146.9880 O   0  0  0  0  0  1  0  0  0  0  0  0
  191.9850  175.9720  144.3350 O   0  0  0  0  0  1  0  0  0  0  0  0
  191.4730  176.3690  146.6310 C   0  0  2  0  0  3  0  0  0  0  0  0
  189.1930  177.8990  138.3510 C   0  0  0  0  0  3  0  0  0  0  0  0
  190.6150  177.4140  142.2410 C   0  0  0  0  0  3  0  0  0  0  0  0
  186.5020  178.3940  141.6890 N   0  0  0  0  0  2  0  0  0  0  0  0
  186.0310  179.6240  142.0050 O   0  0  0  0  0  0  0  0  0  0  0  0
  184.9240  179.3850  142.8230 C   0  0  0  0  0  2  0  0  0  0  0  0
  184.1310  178.2050  142.2950 C   0  0  0  0  0  2  0  0  0  0  0  0
  182.8480  178.6890  141.6410 C   0  0  0  0  0  2  0  0  0  0  0  0
  182.4910  177.8050  140.4590 C   0  0  0  0  0  2  0  0  0  0  0  0
  183.4020  178.1050  139.2810 C   0  0  0  0  0  2  0  0  0  0  0  0
  184.3450  180.2800  139.1000 O   0  0  0  0  0  0  0  0  0  0  0  0
  183.3300  179.5540  138.9380 C   0  0  0  0  0  0  0  0  0  0  0  0
  182.0900  180.1520  138.4400 C   0  0  0  0  0  3  0  0  0  0  0  0
  181.7970  181.3490  138.6990 O   0  0  0  0  0  0  0  0  0  0  0  0
  1  3  1  0  0  0  0
  2 17  2  0  0  0  0
  2 12  1  0  0  0  0
  3  9  1  0  0  0  0
  4 14  1  0  0  0  0
  6  1  1  1  0  0  0
  7 17  1  0  0  0  0
 10  8  1  0  0  0  0
 10 11  1  0  0  0  0
 11  5  1  6  0  0  0
 11  6  1  0  0  0  0
 12 10  2  0  0  0  0
 13 19  1  6  0  0  0
 13 20  1  0  0  0  0
 14  2  1  0  0  0  0
 15  7  2  0  0  0  0
 16  8  1  6  0  0  0
 16 13  1  0  0  0  0
 16  6  1  0  0  0  0
 17 22  1  0  0  0  0
 20 18  1  1  0  0  0
 20  9  1  0  0  0  0
 21 15  1  0  0  0  0
 21 14  2  0  0  0  0
 22  8  2  0  0  0  0
 23 12  1  0  0  0  0
 23 24  1  0  0  0  0
 24 25  1  0  0  0  0
 26 25  1  0  0  0  0
 27 26  1  0  0  0  0
 28 27  1  0  0  0  0
 29 28  1  0  0  0  0
 31 30  2  0  0  0  0
 31 29  1  0  0  0  0
 32 33  2  0  0  0  0
 32 31  1  0  0  0  0
M  END
>  <MODEL>
5

>  <REMARK>
 VINA RESULT:      -7.7      2.368      6.975
  Name = 
  9 active torsions:
  status: ('A' for Active; 'I' for Inactive)
    1  A    between atoms: N_6  and  C_17
    2  A    between atoms: N_6  and  O_21
    3  A    between atoms: C_9  and  O_21
    4  A    between atoms: C_9  and  C_33
    5  A    between atoms: C_14  and  C_18
    6  A    between atoms: C_14  and  C_28
    7  A    between atoms: C_16  and  C_18
    8  A    between atoms: C_24  and  C_28
    9  A    between atoms: C_24  and  C_33
                            x       y       z     vdW  Elec       q    Type
                         _______ _______ _______ _____ _____    ______ ____

>  <TORSDO>
F 9

$$$$
=
 OpenBabel11062412303D

 33 36  0  0  1  0  0  0  0  0999 V2000
  188.7290  176.6060  139.1430 C   0  0  0  0  0  2  0  0  0  0  0  0
  189.6920  177.2240  145.0250 C   0  0  0  0  0  0  0  0  0  0  0  0
  189.7350  176.1080  138.0990 C   0  0  0  0  0  2  0  0  0  0  0  0
  188.1890  177.9070  146.8400 O   0  0  0  0  0  1  0  0  0  0  0  0
  188.1100  179.2020  141.3320 C   0  0  0  0  0  1  0  0  0  0  0  0
  189.3860  177.3750  140.2830 C   0  0  1  0  0  3  0  0  0  0  0  0
  191.8460  176.3250  145.6460 N   0  0  0  0  0  0  0  0  0  0  0  0
  190.4220  176.8780  142.3400 C   0  0  0  0  0  0  0  0  0  0  0  0
  190.9010  177.0710  137.8810 C   0  0  0  0  0  2  0  0  0  0  0  0
  189.1880  177.4080  142.6490 C   0  0  0  0  0  0  0  0  0  0  0  0
  188.4130  177.7160  141.4120 C   0  0  1  0  0  3  0  0  0  0  0  0
  188.7730  177.5610  143.9910 C   0  0  0  0  0  0  0  0  0  0  0  0
  191.8660  177.2140  140.2620 C   0  0  1  0  0  3  0  0  0  0  0  0
  189.4000  177.3800  146.4010 C   0  0  0  0  0  0  0  0  0  0  0  0
  191.5650  176.4780  146.9650 C   0  0  0  0  0  3  0  0  0  0  0  0
  190.5840  176.6350  140.8810 C   0  0  2  0  0  3  0  0  0  0  0  0
  190.9610  176.6790  144.6770 C   0  0  0  0  0  0  0  0  0  0  0  0
  193.2350  177.2770  138.2950 O   0  0  0  0  0  1  0  0  0  0  0  0
  192.9820  176.8380  141.0140 O   0  0  0  0  0  1  0  0  0  0  0  0
  192.0630  176.7270  138.8160 C   0  0  2  0  0  3  0  0  0  0  0  0
  190.3400  177.0080  147.3620 C   0  0  0  0  0  3  0  0  0  0  0  0
  191.3080  176.4850  143.3400 C   0  0  0  0  0  3  0  0  0  0  0  0
  187.4480  178.0090  144.3190 N   0  0  0  0  0  2  0  0  0  0  0  0
  186.3340  177.2660  144.1190 O   0  0  0  0  0  0  0  0  0  0  0  0
  185.2710  178.1430  144.3520 C   0  0  0  0  0  2  0  0  0  0  0  0
  185.1450  179.1260  143.2040 C   0  0  0  0  0  2  0  0  0  0  0  0
  183.8460  178.8900  142.4530 C   0  0  0  0  0  2  0  0  0  0  0  0
  184.0470  177.8550  141.3590 C   0  0  0  0  0  2  0  0  0  0  0  0
  183.4170  178.3300  140.0610 C   0  0  0  0  0  2  0  0  0  0  0  0
  184.4170  180.2690  139.1150 O   0  0  0  0  0  0  0  0  0  0  0  0
  184.4390  179.0150  139.2190 C   0  0  0  0  0  0  0  0  0  0  0  0
  185.4520  178.2510  138.4890 C   0  0  0  0  0  3  0  0  0  0  0  0
  186.3860  178.8320  137.8750 O   0  0  0  0  0  0  0  0  0  0  0  0
  2 14  2  0  0  0  0
  3  1  1  0  0  0  0
  6  1  1  6  0  0  0
  6 16  1  0  0  0  0
  6 11  1  0  0  0  0
  7 15  1  0  0  0  0
  8 10  1  0  0  0  0
  8 22  2  0  0  0  0
  9  3  1  0  0  0  0
  9 20  1  0  0  0  0
 10 12  2  0  0  0  0
 11  5  1  1  0  0  0
 11 10  1  0  0  0  0
 12 23  1  0  0  0  0
 12  2  1  0  0  0  0
 13 16  1  0  0  0  0
 13 19  1  1  0  0  0
 14  4  1  0  0  0  0
 14 21  1  0  0  0  0
 15 21  2  0  0  0  0
 16  8  1  1  0  0  0
 17  2  1  0  0  0  0
 17  7  2  0  0  0  0
 20 18  1  6  0  0  0
 20 13  1  0  0  0  0
 22 17  1  0  0  0  0
 24 23  1  0  0  0  0
 24 25  1  0  0  0  0
 26 25  1  0  0  0  0
 27 26  1  0  0  0  0
 28 27  1  0  0  0  0
 29 28  1  0  0  0  0
 30 31  2  0  0  0  0
 31 29  1  0  0  0  0
 32 31  1  0  0  0  0
 33 32  2  0  0  0  0
M  END
>  <MODEL>
6

>  <REMARK>
 VINA RESULT:      -7.5      2.418      6.756
  Name = 
  9 active torsions:
  status: ('A' for Active; 'I' for Inactive)
    1  A    between atoms: N_6  and  C_17
    2  A    between atoms: N_6  and  O_21
    3  A    between atoms: C_9  and  O_21
    4  A    between atoms: C_9  and  C_33
    5  A    between atoms: C_14  and  C_18
    6  A    between atoms: C_14  and  C_28
    7  A    between atoms: C_16  and  C_18
    8  A    between atoms: C_24  and  C_28
    9  A    between atoms: C_24  and  C_33
                            x       y       z     vdW  Elec       q    Type
                         _______ _______ _______ _____ _____    ______ ____

>  <TORSDO>
F 9

$$$$
=
 OpenBabel11062412303D

 33 36  0  0  1  0  0  0  0  0999 V2000
  191.0260  177.7960  141.9250 C   0  0  0  0  0  2  0  0  0  0  0  0
  185.0890  178.4710  142.3790 C   0  0  0  0  0  0  0  0  0  0  0  0
  191.8600  177.8770  140.6410 C   0  0  0  0  0  2  0  0  0  0  0  0
  183.6120  178.4690  144.3380 O   0  0  0  0  0  1  0  0  0  0  0  0
  188.5930  175.9180  143.4970 C   0  0  0  0  0  1  0  0  0  0  0  0
  189.6270  177.2350  141.6920 C   0  0  1  0  0  3  0  0  0  0  0  0
  184.1360  179.1710  140.2720 N   0  0  0  0  0  0  0  0  0  0  0  0
  187.5160  178.0550  141.0400 C   0  0  0  0  0  0  0  0  0  0  0  0
  191.5810  176.7320  139.6700 C   0  0  0  0  0  2  0  0  0  0  0  0
  187.4300  177.7990  142.3920 C   0  0  0  0  0  0  0  0  0  0  0  0
  188.7360  177.3200  142.9310 C   0  0  1  0  0  3  0  0  0  0  0  0
  186.2320  178.0340  143.1040 C   0  0  0  0  0  0  0  0  0  0  0  0
  189.0540  177.0250  139.2820 C   0  0  1  0  0  3  0  0  0  0  0  0
  183.8280  178.6930  142.9830 C   0  0  0  0  0  0  0  0  0  0  0  0
  182.9270  179.3800  140.8520 C   0  0  0  0  0  3  0  0  0  0  0  0
  188.9060  177.9150  140.5260 C   0  0  2  0  0  3  0  0  0  0  0  0
  185.2060  178.7270  140.9830 C   0  0  0  0  0  0  0  0  0  0  0  0
  190.5610  176.2950  137.5650 O   0  0  0  0  0  1  0  0  0  0  0  0
  188.1360  177.4040  138.3000 O   0  0  0  0  0  1  0  0  0  0  0  0
  190.4720  177.1170  138.6890 C   0  0  2  0  0  3  0  0  0  0  0  0
  182.7550  179.1450  142.2140 C   0  0  0  0  0  3  0  0  0  0  0  0
  186.4240  178.5430  140.3270 C   0  0  0  0  0  3  0  0  0  0  0  0
  186.1670  177.8750  144.5310 N   0  0  0  0  0  2  0  0  0  0  0  0
  186.7670  178.7140  145.4080 O   0  0  0  0  0  0  0  0  0  0  0  0
  186.1950  178.4090  146.6460 C   0  0  0  0  0  2  0  0  0  0  0  0
  187.0960  177.4640  147.4170 C   0  0  0  0  0  2  0  0  0  0  0  0
  188.0440  178.2530  148.3040 C   0  0  0  0  0  2  0  0  0  0  0  0
  189.4790  177.8190  148.0630 C   0  0  0  0  0  2  0  0  0  0  0  0
  189.6520  177.3410  146.6310 C   0  0  0  0  0  2  0  0  0  0  0  0
  191.6810  177.2940  145.3920 O   0  0  0  0  0  0  0  0  0  0  0  0
  191.0580  176.8950  146.4090 C   0  0  0  0  0  0  0  0  0  0  0  0
  191.7160  175.9790  147.3430 C   0  0  0  0  0  3  0  0  0  0  0  0
  192.6470  176.3760  148.0930 O   0  0  0  0  0  0  0  0  0  0  0  0
  2 14  1  0  0  0  0
  2 12  1  0  0  0  0
  3  1  1  0  0  0  0
  6  1  1  1  0  0  0
  6 11  1  0  0  0  0
  7 15  2  0  0  0  0
  7 17  1  0  0  0  0
  8 10  1  0  0  0  0
  9  3  1  0  0  0  0
 10 11  1  0  0  0  0
 10 12  2  0  0  0  0
 11  5  1  6  0  0  0
 12 23  1  0  0  0  0
 13 19  1  6  0  0  0
 13 16  1  0  0  0  0
 14  4  1  0  0  0  0
 15 21  1  0  0  0  0
 16  8  1  1  0  0  0
 16  6  1  0  0  0  0
 17  2  2  0  0  0  0
 20 18  1  6  0  0  0
 20 13  1  0  0  0  0
 20  9  1  0  0  0  0
 21 14  2  0  0  0  0
 22 17  1  0  0  0  0
 22  8  2  0  0  0  0
 23 24  1  0  0  0  0
 24 25  1  0  0  0  0
 25 26  1  0  0  0  0
 26 27  1  0  0  0  0
 28 27  1  0  0  0  0
 29 28  1  0  0  0  0
 30 31  2  0  0  0  0
 31 29  1  0  0  0  0
 31 32  1  0  0  0  0
 32 33  2  0  0  0  0
M  END
>  <MODEL>
7

>  <REMARK>
 VINA RESULT:      -7.5      1.234      1.551
  Name = 
  9 active torsions:
  status: ('A' for Active; 'I' for Inactive)
    1  A    between atoms: N_6  and  C_17
    2  A    between atoms: N_6  and  O_21
    3  A    between atoms: C_9  and  O_21
    4  A    between atoms: C_9  and  C_33
    5  A    between atoms: C_14  and  C_18
    6  A    between atoms: C_14  and  C_28
    7  A    between atoms: C_16  and  C_18
    8  A    between atoms: C_24  and  C_28
    9  A    between atoms: C_24  and  C_33
                            x       y       z     vdW  Elec       q    Type
                         _______ _______ _______ _____ _____    ______ ____

>  <TORSDO>
F 9

$$$$
=
 OpenBabel11062412303D

 33 36  0  0  1  0  0  0  0  0999 V2000
  188.8900  176.4240  138.9730 C   0  0  0  0  0  2  0  0  0  0  0  0
  189.4670  177.2690  144.8770 C   0  0  0  0  0  0  0  0  0  0  0  0
  189.9820  175.9500  138.0060 C   0  0  0  0  0  2  0  0  0  0  0  0
  187.8250  177.9250  146.5780 O   0  0  0  0  0  1  0  0  0  0  0  0
  188.0090  179.0480  141.0340 C   0  0  0  0  0  1  0  0  0  0  0  0
  189.4370  177.2610  140.1230 C   0  0  1  0  0  3  0  0  0  0  0  0
  191.6240  176.5050  145.6520 N   0  0  0  0  0  0  0  0  0  0  0  0
  190.3730  176.8820  142.2520 C   0  0  0  0  0  0  0  0  0  0  0  0
  191.1070  176.9660  137.8250 C   0  0  0  0  0  2  0  0  0  0  0  0
  189.0970  177.3550  142.4710 C   0  0  0  0  0  0  0  0  0  0  0  0
  188.3820  177.5830  141.1810 C   0  0  1  0  0  3  0  0  0  0  0  0
  188.5950  177.5260  143.7810 C   0  0  0  0  0  0  0  0  0  0  0  0
  191.9190  177.2320  140.2520 C   0  0  1  0  0  3  0  0  0  0  0  0
  189.0850  177.4510  146.2280 C   0  0  0  0  0  0  0  0  0  0  0  0
  191.2560  176.6830  146.9470 C   0  0  0  0  0  3  0  0  0  0  0  0
  190.6340  176.6050  140.8130 C   0  0  2  0  0  3  0  0  0  0  0  0
  190.7800  176.7820  144.6220 C   0  0  0  0  0  0  0  0  0  0  0  0
  193.3990  177.3080  138.3660 O   0  0  0  0  0  1  0  0  0  0  0  0
  193.0070  176.9380  141.0790 O   0  0  0  0  0  1  0  0  0  0  0  0
  192.2280  176.7120  138.8360 C   0  0  2  0  0  3  0  0  0  0  0  0
  189.9840  177.1580  147.2540 C   0  0  0  0  0  3  0  0  0  0  0  0
  191.2170  176.5670  143.3140 C   0  0  0  0  0  3  0  0  0  0  0  0
  187.2320  177.9120  144.0160 N   0  0  0  0  0  2  0  0  0  0  0  0
  186.1660  177.2660  143.4860 O   0  0  0  0  0  0  0  0  0  0  0  0
  185.1740  178.2430  143.3710 C   0  0  0  0  0  2  0  0  0  0  0  0
  184.9440  178.9120  144.7130 C   0  0  0  0  0  2  0  0  0  0  0  0
  183.4560  178.9960  145.0060 C   0  0  0  0  0  2  0  0  0  0  0  0
  182.6600  179.0010  143.7130 C   0  0  0  0  0  2  0  0  0  0  0  0
  181.2090  178.6450  143.9840 C   0  0  0  0  0  2  0  0  0  0  0  0
  179.6740  177.6680  142.4530 O   0  0  0  0  0  0  0  0  0  0  0  0
  180.4400  178.6330  142.7070 C   0  0  0  0  0  0  0  0  0  0  0  0
  180.5820  179.7150  141.7300 C   0  0  0  0  0  3  0  0  0  0  0  0
  179.8060  180.7070  141.7420 O   0  0  0  0  0  0  0  0  0  0  0  0
  2 14  2  0  0  0  0
  3  1  1  0  0  0  0
  6  1  1  6  0  0  0
  6 16  1  0  0  0  0
  6 11  1  0  0  0  0
  7 15  1  0  0  0  0
  8 10  1  0  0  0  0
  8 22  2  0  0  0  0
  9  3  1  0  0  0  0
  9 20  1  0  0  0  0
 10 12  2  0  0  0  0
 11  5  1  1  0  0  0
 11 10  1  0  0  0  0
 12 23  1  0  0  0  0
 12  2  1  0  0  0  0
 13 16  1  0  0  0  0
 13 19  1  1  0  0  0
 14  4  1  0  0  0  0
 14 21  1  0  0  0  0
 15 21  2  0  0  0  0
 16  8  1  1  0  0  0
 17  2  1  0  0  0  0
 17  7  2  0  0  0  0
 20 18  1  6  0  0  0
 20 13  1  0  0  0  0
 22 17  1  0  0  0  0
 24 23  1  0  0  0  0
 25 24  1  0  0  0  0
 25 26  1  0  0  0  0
 26 27  1  0  0  0  0
 28 29  1  0  0  0  0
 28 27  1  0  0  0  0
 30 31  2  0  0  0  0
 31 29  1  0  0  0  0
 32 33  2  0  0  0  0
 32 31  1  0  0  0  0
M  END
>  <MODEL>
8

>  <REMARK>
 VINA RESULT:      -7.3      2.427      7.040
  Name = 
  9 active torsions:
  status: ('A' for Active; 'I' for Inactive)
    1  A    between atoms: N_6  and  C_17
    2  A    between atoms: N_6  and  O_21
    3  A    between atoms: C_9  and  O_21
    4  A    between atoms: C_9  and  C_33
    5  A    between atoms: C_14  and  C_18
    6  A    between atoms: C_14  and  C_28
    7  A    between atoms: C_16  and  C_18
    8  A    between atoms: C_24  and  C_28
    9  A    between atoms: C_24  and  C_33
                            x       y       z     vdW  Elec       q    Type
                         _______ _______ _______ _____ _____    ______ ____

>  <TORSDO>
F 9

$$$$
=
 OpenBabel11062412303D

 33 36  0  0  1  0  0  0  0  0999 V2000
  189.0610  178.9900  139.3190 C   0  0  0  0  0  2  0  0  0  0  0  0
  184.1900  178.6870  142.7950 C   0  0  0  0  0  0  0  0  0  0  0  0
  189.0910  179.0150  137.7870 C   0  0  0  0  0  2  0  0  0  0  0  0
  183.9470  178.7320  145.2360 O   0  0  0  0  0  1  0  0  0  0  0  0
  188.2560  176.9840  142.0110 C   0  0  0  0  0  1  0  0  0  0  0  0
  187.9070  178.1650  139.8790 C   0  0  1  0  0  3  0  0  0  0  0  0
  182.1750  178.8770  141.4760 N   0  0  0  0  0  0  0  0  0  0  0  0
  185.6330  178.4960  140.4000 C   0  0  0  0  0  0  0  0  0  0  0  0
  188.6320  177.7020  137.1550 C   0  0  0  0  0  2  0  0  0  0  0  0
  186.3000  178.4410  141.6040 C   0  0  0  0  0  0  0  0  0  0  0  0
  187.7690  178.2850  141.3960 C   0  0  1  0  0  3  0  0  0  0  0  0
  185.6080  178.5720  142.8290 C   0  0  0  0  0  0  0  0  0  0  0  0
  186.2640  177.4890  138.1400 C   0  0  1  0  0  3  0  0  0  0  0  0
  183.3920  178.7770  143.9610 C   0  0  0  0  0  0  0  0  0  0  0  0
  181.4120  178.9600  142.5950 C   0  0  0  0  0  3  0  0  0  0  0  0
  186.5640  178.5210  139.2380 C   0  0  2  0  0  3  0  0  0  0  0  0
  183.5260  178.7410  141.5360 C   0  0  0  0  0  0  0  0  0  0  0  0
  186.8210  176.7750  135.9200 O   0  0  0  0  0  1  0  0  0  0  0  0
  184.9180  177.5470  137.7720 O   0  0  0  0  0  1  0  0  0  0  0  0
  187.1250  177.7330  136.8870 C   0  0  2  0  0  3  0  0  0  0  0  0
  182.0080  178.9120  143.8530 C   0  0  0  0  0  3  0  0  0  0  0  0
  184.2530  178.6710  140.3470 C   0  0  0  0  0  3  0  0  0  0  0  0
  186.3080  178.6260  144.0830 N   0  0  0  0  0  2  0  0  0  0  0  0
  186.5970  177.5330  144.8290 O   0  0  0  0  0  0  0  0  0  0  0  0
  187.6670  177.9240  145.6390 C   0  0  0  0  0  2  0  0  0  0  0  0
  187.2290  177.9760  147.0900 C   0  0  0  0  0  2  0  0  0  0  0  0
  188.4190  177.7380  148.0040 C   0  0  0  0  0  2  0  0  0  0  0  0
  189.3280  176.6710  147.4220 C   0  0  0  0  0  2  0  0  0  0  0  0
  190.7810  177.1030  147.5240 C   0  0  0  0  0  2  0  0  0  0  0  0
  192.3200  175.4930  146.6910 O   0  0  0  0  0  0  0  0  0  0  0  0
  191.5770  176.4740  146.4310 C   0  0  0  0  0  0  0  0  0  0  0  0
  191.5290  176.9970  145.0640 C   0  0  0  0  0  3  0  0  0  0  0  0
  191.3630  176.2280  144.0810 O   0  0  0  0  0  0  0  0  0  0  0  0
  2 12  1  0  0  0  0
  2 14  2  0  0  0  0
  3  1  1  0  0  0  0
  6  1  1  6  0  0  0
  6 11  1  0  0  0  0
  7 17  2  0  0  0  0
  7 15  1  0  0  0  0
  8 10  1  0  0  0  0
  9  3  1  0  0  0  0
 10 12  2  0  0  0  0
 11 10  1  0  0  0  0
 11  5  1  1  0  0  0
 12 23  1  0  0  0  0
 13 19  1  6  0  0  0
 13 16  1  0  0  0  0
 14  4  1  0  0  0  0
 15 21  2  0  0  0  0
 16  6  1  0  0  0  0
 16  8  1  1  0  0  0
 17  2  1  0  0  0  0
 20 18  1  6  0  0  0
 20  9  1  0  0  0  0
 20 13  1  0  0  0  0
 21 14  1  0  0  0  0
 22  8  2  0  0  0  0
 22 17  1  0  0  0  0
 23 24  1  0  0  0  0
 24 25  1  0  0  0  0
 25 26  1  0  0  0  0
 26 27  1  0  0  0  0
 28 29  1  0  0  0  0
 28 27  1  0  0  0  0
 31 30  2  0  0  0  0
 31 29  1  0  0  0  0
 32 31  1  0  0  0  0
 33 32  2  0  0  0  0
M  END
>  <MODEL>
9

>  <REMARK>
 VINA RESULT:      -7.1      2.088      3.032
  Name = 
  9 active torsions:
  status: ('A' for Active; 'I' for Inactive)
    1  A    between atoms: N_6  and  C_17
    2  A    between atoms: N_6  and  O_21
    3  A    between atoms: C_9  and  O_21
    4  A    between atoms: C_9  and  C_33
    5  A    between atoms: C_14  and  C_18
    6  A    between atoms: C_14  and  C_28
    7  A    between atoms: C_16  and  C_18
    8  A    between atoms: C_24  and  C_28
    9  A    between atoms: C_24  and  C_33
                            x       y       z     vdW  Elec       q    Type
                         _______ _______ _______ _____ _____    ______ ____

>  <TORSDO>
F 9

$$$$
