=
 OpenBabel11062413313D

 28 32  0  0  1  0  0  0  0  0999 V2000
  189.1850  177.6550  143.2740 C   0  0  2  0  0  3  0  0  0  0  0  0
  188.9240  177.6970  146.5180 C   0  0  0  0  0  2  0  0  0  0  0  0
  186.9090  178.4140  145.1720 C   0  0  0  0  0  1  0  0  0  0  0  0
  191.7980  175.7050  144.5720 C   0  0  0  0  0  2  0  0  0  0  0  0
  191.2410  176.6910  145.5830 C   0  0  2  0  0  0  0  0  0  0  0  0
  191.7720  176.4270  143.2620 C   0  0  0  0  0  2  0  0  0  0  0  0
  188.8220  176.7780  144.4760 C   0  0  2  0  0  3  0  0  0  0  0  0
  191.7240  177.9130  143.6190 C   0  0  2  0  0  3  0  0  0  0  0  0
  187.7980  177.2580  145.5630 C   0  0  1  0  0  3  0  0  0  0  0  0
  189.8600  177.1680  145.4680 C   0  0  1  0  0  0  0  0  0  0  0  0
  190.9900  178.1140  144.9740 C   0  0  1  0  0  0  0  0  0  0  0  0
  190.3700  178.5540  143.6230 C   0  0  2  0  0  3  0  0  0  0  0  0
  192.4430  175.6340  147.0480 O   0  0  0  0  0  1  0  0  0  0  0  0
  191.8380  176.7850  146.8420 O   0  0  0  0  0  0  0  0  0  0  0  0
  188.1590  178.1270  142.2060 C   0  0  1  0  0  0  0  0  0  0  0  0
  188.3040  179.6340  142.0090 C   0  0  0  0  0  1  0  0  0  0  0  0
  188.4610  177.4190  140.8630 C   0  0  2  0  0  3  0  0  0  0  0  0
  189.5870  176.5950  140.9600 O   0  0  0  0  0  1  0  0  0  0  0  0
  188.6460  178.3810  139.6900 C   0  0  0  0  0  1  0  0  0  0  0  0
  186.7900  177.8400  142.5950 N   0  0  0  0  0  0  0  0  0  0  0  0
  185.7790  178.4890  142.1380 C   0  0  0  0  0  3  0  0  0  0  0  0
  184.3870  178.0520  142.4590 C   0  0  0  0  0  2  0  0  0  0  0  0
  184.2650  180.0210  143.7470 O   0  0  0  0  0  0  0  0  0  0  0  0
  183.7390  178.9500  143.4790 C   0  0  0  0  0  0  0  0  0  0  0  0
  182.4090  178.5930  144.0940 C   0  0  0  0  0  2  0  0  0  0  0  0
  181.1620  178.6500  142.0280 O   0  0  0  0  0  1  0  0  0  0  0  0
  181.1800  179.1510  143.3310 C   0  0  1  0  0  3  0  0  0  0  0  0
  179.8250  178.8700  143.9940 C   0  0  0  0  0  1  0  0  0  0  0  0
  1 15  1  1  0  0  0
  1 12  1  0  0  0  0
  1  7  1  0  0  0  0
  3  9  1  0  0  0  0
  4  5  1  0  0  0  0
  5 14  1  1  0  0  0
  6  8  1  0  0  0  0
  6  4  1  0  0  0  0
  7 10  1  0  0  0  0
  7  9  1  0  0  0  0
  8 12  1  0  0  0  0
  8 11  1  0  0  0  0
  9  2  1  0  0  0  0
 10  5  1  0  0  0  0
 10  2  1  0  0  0  0
 11 10  1  0  0  0  0
 11  5  1  0  0  0  0
 12 11  1  0  0  0  0
 14 13  1  0  0  0  0
 15 20  1  0  0  0  0
 16 15  1  0  0  0  0
 17 18  1  0  0  0  0
 17 15  1  0  0  0  0
 19 17  1  0  0  0  0
 21 22  1  0  0  0  0
 21 20  2  0  0  0  0
 22 24  1  0  0  0  0
 24 23  2  0  0  0  0
 24 25  1  0  0  0  0
 26 27  1  0  0  0  0
 27 28  1  0  0  0  0
 27 25  1  0  0  0  0
M  END
>  <MODEL>
1

>  <REMARK>
 VINA RESULT:      -7.4      0.000      0.000
  Name = 
  8 active torsions:
  status: ('A' for Active; 'I' for Inactive)
    1  A    between atoms: C_1  and  C_21
    2  A    between atoms: C_4  and  C_21
    3  A    between atoms: N_6  and  C_21
    4  A    between atoms: C_10  and  C_17
    5  A    between atoms: C_11  and  O_19
    6  A    between atoms: C_15  and  C_23
    7  A    between atoms: C_17  and  C_27
    8  A    between atoms: C_23  and  C_27
                            x       y       z     vdW  Elec       q    Type
                         _______ _______ _______ _____ _____    ______ ____

>  <TORSDO>
F 8

$$$$
=
 OpenBabel11062413313D

 28 32  0  0  1  0  0  0  0  0999 V2000
  189.1190  177.6200  143.3040 C   0  0  2  0  0  3  0  0  0  0  0  0
  188.9990  177.7310  146.5550 C   0  0  0  0  0  2  0  0  0  0  0  0
  186.9280  178.4250  145.2820 C   0  0  0  0  0  1  0  0  0  0  0  0
  191.7830  175.6910  144.5280 C   0  0  0  0  0  2  0  0  0  0  0  0
  191.2710  176.7000  145.5420 C   0  0  2  0  0  0  0  0  0  0  0  0
  191.7010  176.3850  143.2060 C   0  0  0  0  0  2  0  0  0  0  0  0
  188.8070  176.7690  144.5390 C   0  0  2  0  0  3  0  0  0  0  0  0
  191.6710  177.8790  143.5330 C   0  0  2  0  0  3  0  0  0  0  0  0
  187.8320  177.2750  145.6590 C   0  0  1  0  0  3  0  0  0  0  0  0
  189.8880  177.1780  145.4770 C   0  0  1  0  0  0  0  0  0  0  0  0
  190.9970  178.1100  144.9140 C   0  0  1  0  0  0  0  0  0  0  0  0
  190.3190  178.5240  143.5830 C   0  0  2  0  0  3  0  0  0  0  0  0
  192.4480  175.6380  147.0240 O   0  0  0  0  0  1  0  0  0  0  0  0
  191.9230  176.8190  146.7720 O   0  0  0  0  0  0  0  0  0  0  0  0
  188.0480  178.0720  142.2720 C   0  0  1  0  0  0  0  0  0  0  0  0
  188.1880  179.5740  142.0350 C   0  0  0  0  0  1  0  0  0  0  0  0
  188.2890  177.3340  140.9330 C   0  0  2  0  0  3  0  0  0  0  0  0
  189.5810  176.8020  140.8670 O   0  0  0  0  0  1  0  0  0  0  0  0
  188.0440  178.2030  139.7000 C   0  0  0  0  0  1  0  0  0  0  0  0
  186.6970  177.7990  142.7270 N   0  0  0  0  0  0  0  0  0  0  0  0
  185.6920  178.5450  142.4350 C   0  0  0  0  0  3  0  0  0  0  0  0
  184.3050  178.1320  142.8040 C   0  0  0  0  0  2  0  0  0  0  0  0
  182.2120  178.8040  141.9550 O   0  0  0  0  0  0  0  0  0  0  0  0
  183.3290  178.3850  141.6850 C   0  0  0  0  0  0  0  0  0  0  0  0
  183.7430  178.2260  140.2440 C   0  0  0  0  0  2  0  0  0  0  0  0
  184.4330  180.1970  139.0350 O   0  0  0  0  0  1  0  0  0  0  0  0
  183.3240  179.4000  139.3230 C   0  0  1  0  0  3  0  0  0  0  0  0
  182.6520  178.9830  138.0080 C   0  0  0  0  0  1  0  0  0  0  0  0
  1 15  1  1  0  0  0
  1 12  1  0  0  0  0
  1  7  1  0  0  0  0
  3  9  1  0  0  0  0
  4  5  1  0  0  0  0
  5 14  1  1  0  0  0
  6  8  1  0  0  0  0
  6  4  1  0  0  0  0
  7 10  1  0  0  0  0
  7  9  1  0  0  0  0
  8 12  1  0  0  0  0
  8 11  1  0  0  0  0
  9  2  1  0  0  0  0
 10  5  1  0  0  0  0
 10  2  1  0  0  0  0
 11 10  1  0  0  0  0
 11  5  1  0  0  0  0
 12 11  1  0  0  0  0
 14 13  1  0  0  0  0
 15 20  1  0  0  0  0
 16 15  1  0  0  0  0
 17 15  1  0  0  0  0
 18 17  1  0  0  0  0
 19 17  1  0  0  0  0
 21 20  2  0  0  0  0
 21 22  1  0  0  0  0
 24 23  2  0  0  0  0
 24 22  1  0  0  0  0
 25 24  1  0  0  0  0
 26 27  1  0  0  0  0
 27 25  1  0  0  0  0
 28 27  1  0  0  0  0
M  END
>  <MODEL>
2

>  <REMARK>
 VINA RESULT:      -7.2      1.555      2.043
  Name = 
  8 active torsions:
  status: ('A' for Active; 'I' for Inactive)
    1  A    between atoms: C_1  and  C_21
    2  A    between atoms: C_4  and  C_21
    3  A    between atoms: N_6  and  C_21
    4  A    between atoms: C_10  and  C_17
    5  A    between atoms: C_11  and  O_19
    6  A    between atoms: C_15  and  C_23
    7  A    between atoms: C_17  and  C_27
    8  A    between atoms: C_23  and  C_27
                            x       y       z     vdW  Elec       q    Type
                         _______ _______ _______ _____ _____    ______ ____

>  <TORSDO>
F 8

$$$$
=
 OpenBabel11062413313D

 28 32  0  0  1  0  0  0  0  0999 V2000
  189.1390  177.6480  144.5360 C   0  0  2  0  0  3  0  0  0  0  0  0
  187.7260  177.3320  147.4500 C   0  0  0  0  0  2  0  0  0  0  0  0
  190.2330  177.0430  147.3280 C   0  0  0  0  0  1  0  0  0  0  0  0
  185.9380  179.0720  144.3200 C   0  0  0  0  0  2  0  0  0  0  0  0
  186.0680  178.0820  145.4650 C   0  0  2  0  0  0  0  0  0  0  0  0
  186.7480  178.4910  143.2040 C   0  0  0  0  0  2  0  0  0  0  0  0
  188.6870  178.4480  145.7610 C   0  0  2  0  0  3  0  0  0  0  0  0
  186.8630  176.9990  143.5210 C   0  0  2  0  0  3  0  0  0  0  0  0
  189.0840  178.0170  147.2160 C   0  0  1  0  0  3  0  0  0  0  0  0
  187.3740  177.8200  146.0730 C   0  0  1  0  0  0  0  0  0  0  0  0
  186.8320  176.7750  145.0590 C   0  0  1  0  0  0  0  0  0  0  0  0
  188.1160  176.5600  144.2170 C   0  0  2  0  0  3  0  0  0  0  0  0
  184.1820  178.8580  146.2080 O   0  0  0  0  0  1  0  0  0  0  0  0
  184.9420  177.7820  146.2360 O   0  0  0  0  0  0  0  0  0  0  0  0
  190.6280  177.4330  144.1450 C   0  0  1  0  0  0  0  0  0  0  0  0
  191.4120  178.7070  144.4530 C   0  0  0  0  0  1  0  0  0  0  0  0
  191.2130  176.2740  144.9870 C   0  0  2  0  0  3  0  0  0  0  0  0
  192.2050  176.7270  145.8630 O   0  0  0  0  0  1  0  0  0  0  0  0
  191.7750  175.1270  144.1480 C   0  0  0  0  0  1  0  0  0  0  0  0
  190.7860  177.1210  142.7360 N   0  0  0  0  0  0  0  0  0  0  0  0
  191.4410  177.8680  141.9200 C   0  0  0  0  0  3  0  0  0  0  0  0
  191.6970  177.4190  140.5180 C   0  0  0  0  0  2  0  0  0  0  0  0
  190.4340  175.8970  139.2360 O   0  0  0  0  0  0  0  0  0  0  0  0
  190.4320  176.9620  139.8370 C   0  0  0  0  0  0  0  0  0  0  0  0
  189.1520  177.7460  139.9720 C   0  0  0  0  0  2  0  0  0  0  0  0
  187.1140  178.4830  138.9090 O   0  0  0  0  0  1  0  0  0  0  0  0
  188.3700  177.9300  138.6480 C   0  0  1  0  0  3  0  0  0  0  0  0
  189.0810  178.7830  137.5890 C   0  0  0  0  0  1  0  0  0  0  0  0
  1 15  1  1  0  0  0
  1  7  1  0  0  0  0
  4  5  1  0  0  0  0
  5 10  1  0  0  0  0
  5 14  1  1  0  0  0
  6  8  1  0  0  0  0
  6  4  1  0  0  0  0
  7 10  1  0  0  0  0
  7  9  1  0  0  0  0
  8 12  1  0  0  0  0
  8 11  1  0  0  0  0
  9  3  1  0  0  0  0
  9  2  1  0  0  0  0
 10  2  1  0  0  0  0
 11  5  1  0  0  0  0
 11 10  1  0  0  0  0
 12  1  1  0  0  0  0
 12 11  1  0  0  0  0
 13 14  1  0  0  0  0
 15 16  1  0  0  0  0
 15 17  1  0  0  0  0
 17 18  1  0  0  0  0
 19 17  1  0  0  0  0
 20 15  1  0  0  0  0
 21 20  2  0  0  0  0
 22 21  1  0  0  0  0
 23 24  2  0  0  0  0
 24 25  1  0  0  0  0
 24 22  1  0  0  0  0
 27 26  1  0  0  0  0
 27 25  1  0  0  0  0
 28 27  1  0  0  0  0
M  END
>  <MODEL>
3

>  <REMARK>
 VINA RESULT:      -7.2      2.465      5.980
  Name = 
  8 active torsions:
  status: ('A' for Active; 'I' for Inactive)
    1  A    between atoms: C_1  and  C_21
    2  A    between atoms: C_4  and  C_21
    3  A    between atoms: N_6  and  C_21
    4  A    between atoms: C_10  and  C_17
    5  A    between atoms: C_11  and  O_19
    6  A    between atoms: C_15  and  C_23
    7  A    between atoms: C_17  and  C_27
    8  A    between atoms: C_23  and  C_27
                            x       y       z     vdW  Elec       q    Type
                         _______ _______ _______ _____ _____    ______ ____

>  <TORSDO>
F 8

$$$$
=
 OpenBabel11062413313D

 28 32  0  0  1  0  0  0  0  0999 V2000
  188.6310  177.8180  144.1740 C   0  0  2  0  0  3  0  0  0  0  0  0
  187.8100  177.3480  147.2880 C   0  0  0  0  0  2  0  0  0  0  0  0
  190.2210  176.9540  146.6400 C   0  0  0  0  0  1  0  0  0  0  0  0
  185.5430  179.3990  144.7050 C   0  0  0  0  0  2  0  0  0  0  0  0
  185.8380  178.3210  145.7340 C   0  0  2  0  0  0  0  0  0  0  0  0
  186.0770  178.8670  143.4130 C   0  0  0  0  0  2  0  0  0  0  0  0
  188.4810  178.5430  145.5150 C   0  0  2  0  0  3  0  0  0  0  0  0
  186.1630  177.3530  143.6030 C   0  0  2  0  0  3  0  0  0  0  0  0
  189.1330  177.9850  146.8270 C   0  0  1  0  0  3  0  0  0  0  0  0
  187.2210  177.9540  146.0460 C   0  0  1  0  0  0  0  0  0  0  0  0
  186.4260  177.0150  145.0970 C   0  0  1  0  0  0  0  0  0  0  0  0
  187.5010  176.8050  144.0000 C   0  0  2  0  0  3  0  0  0  0  0  0
  183.8210  178.7550  146.4070 O   0  0  0  0  0  1  0  0  0  0  0  0
  184.8720  178.0160  146.6960 O   0  0  0  0  0  0  0  0  0  0  0  0
  189.9960  177.5650  143.4760 C   0  0  1  0  0  0  0  0  0  0  0  0
  190.9330  178.7320  143.7770 C   0  0  0  0  0  1  0  0  0  0  0  0
  190.6230  176.2670  144.0400 C   0  0  2  0  0  3  0  0  0  0  0  0
  191.9940  176.4170  144.2690 O   0  0  0  0  0  1  0  0  0  0  0  0
  190.3960  175.0410  143.1550 C   0  0  0  0  0  1  0  0  0  0  0  0
  189.8610  177.4390  142.0360 N   0  0  0  0  0  0  0  0  0  0  0  0
  189.1570  178.2440  141.3230 C   0  0  0  0  0  3  0  0  0  0  0  0
  189.1780  178.1550  139.8320 C   0  0  0  0  0  2  0  0  0  0  0  0
  186.8570  178.5660  139.8690 O   0  0  0  0  0  0  0  0  0  0  0  0
  187.7880  178.0600  139.2570 C   0  0  0  0  0  0  0  0  0  0  0  0
  187.5490  177.4430  137.9020 C   0  0  0  0  0  2  0  0  0  0  0  0
  187.6500  179.6220  136.8710 O   0  0  0  0  0  1  0  0  0  0  0  0
  186.9520  178.4130  136.8530 C   0  0  1  0  0  3  0  0  0  0  0  0
  186.9210  177.8740  135.4170 C   0  0  0  0  0  1  0  0  0  0  0  0
  1 15  1  1  0  0  0
  1  7  1  0  0  0  0
  3  9  1  0  0  0  0
  4  5  1  0  0  0  0
  5 10  1  0  0  0  0
  5 14  1  1  0  0  0
  6  8  1  0  0  0  0
  6  4  1  0  0  0  0
  7 10  1  0  0  0  0
  7  9  1  0  0  0  0
  8 12  1  0  0  0  0
  8 11  1  0  0  0  0
  9  2  1  0  0  0  0
 10  2  1  0  0  0  0
 11  5  1  0  0  0  0
 11 10  1  0  0  0  0
 12  1  1  0  0  0  0
 12 11  1  0  0  0  0
 13 14  1  0  0  0  0
 15 16  1  0  0  0  0
 15 17  1  0  0  0  0
 17 18  1  0  0  0  0
 19 17  1  0  0  0  0
 20 15  1  0  0  0  0
 21 20  2  0  0  0  0
 22 21  1  0  0  0  0
 24 22  1  0  0  0  0
 24 23  2  0  0  0  0
 25 24  1  0  0  0  0
 27 26  1  0  0  0  0
 27 25  1  0  0  0  0
 28 27  1  0  0  0  0
M  END
>  <MODEL>
4

>  <REMARK>
 VINA RESULT:      -7.1      2.475      5.604
  Name = 
  8 active torsions:
  status: ('A' for Active; 'I' for Inactive)
    1  A    between atoms: C_1  and  C_21
    2  A    between atoms: C_4  and  C_21
    3  A    between atoms: N_6  and  C_21
    4  A    between atoms: C_10  and  C_17
    5  A    between atoms: C_11  and  O_19
    6  A    between atoms: C_15  and  C_23
    7  A    between atoms: C_17  and  C_27
    8  A    between atoms: C_23  and  C_27
                            x       y       z     vdW  Elec       q    Type
                         _______ _______ _______ _____ _____    ______ ____

>  <TORSDO>
F 8

$$$$
=
 OpenBabel11062413313D

 28 32  0  0  1  0  0  0  0  0999 V2000
  188.6750  177.4030  145.4580 C   0  0  2  0  0  3  0  0  0  0  0  0
  191.7450  176.3220  145.5020 C   0  0  0  0  0  2  0  0  0  0  0  0
  190.4900  176.1930  143.3130 C   0  0  0  0  0  1  0  0  0  0  0  0
  190.2050  178.6790  148.3470 C   0  0  0  0  0  2  0  0  0  0  0  0
  190.9100  177.4480  147.8010 C   0  0  2  0  0  0  0  0  0  0  0  0
  188.7460  178.4250  148.1320 C   0  0  0  0  0  2  0  0  0  0  0  0
  190.1280  177.8600  145.2910 C   0  0  2  0  0  3  0  0  0  0  0  0
  188.6160  176.9080  147.9850 C   0  0  2  0  0  3  0  0  0  0  0  0
  191.1200  177.1080  144.3360 C   0  0  1  0  0  3  0  0  0  0  0  0
  190.8140  177.1110  146.3790 C   0  0  1  0  0  0  0  0  0  0  0  0
  189.9150  176.3180  147.3680 C   0  0  1  0  0  0  0  0  0  0  0  0
  188.5780  176.3750  146.5850 C   0  0  2  0  0  3  0  0  0  0  0  0
  192.4790  177.9040  149.2290 O   0  0  0  0  0  1  0  0  0  0  0  0
  191.9930  176.9170  148.5040 O   0  0  0  0  0  0  0  0  0  0  0  0
  187.6430  177.3610  144.2970 C   0  0  1  0  0  0  0  0  0  0  0  0
  187.6000  175.9480  143.7190 C   0  0  0  0  0  1  0  0  0  0  0  0
  186.2410  177.7130  144.8510 C   0  0  2  0  0  3  0  0  0  0  0  0
  185.3230  177.9360  143.8200 O   0  0  0  0  0  1  0  0  0  0  0  0
  186.2370  178.9180  145.7910 C   0  0  0  0  0  1  0  0  0  0  0  0
  187.9770  178.2870  143.2310 N   0  0  0  0  0  0  0  0  0  0  0  0
  188.0050  177.9510  141.9910 C   0  0  0  0  0  3  0  0  0  0  0  0
  188.2080  178.9820  140.9280 C   0  0  0  0  0  2  0  0  0  0  0  0
  187.2820  178.2020  138.9060 O   0  0  0  0  0  0  0  0  0  0  0  0
  188.3050  178.3620  139.5580 C   0  0  0  0  0  0  0  0  0  0  0  0
  189.6440  178.0330  138.9480 C   0  0  0  0  0  2  0  0  0  0  0  0
  190.5660  175.8030  138.9200 O   0  0  0  0  0  1  0  0  0  0  0  0
  190.4460  176.9480  139.7100 C   0  0  1  0  0  3  0  0  0  0  0  0
  191.8410  177.3830  140.1780 C   0  0  0  0  0  1  0  0  0  0  0  0
  1 15  1  6  0  0  0
  1 12  1  0  0  0  0
  2 10  1  0  0  0  0
  3  9  1  0  0  0  0
  5  4  1  0  0  0  0
  5 14  1  1  0  0  0
  6  4  1  0  0  0  0
  7  1  1  0  0  0  0
  7 10  1  0  0  0  0
  8  6  1  0  0  0  0
  9  7  1  0  0  0  0
  9  2  1  0  0  0  0
 10 11  1  0  0  0  0
 10  5  1  0  0  0  0
 11  5  1  0  0  0  0
 11  8  1  0  0  0  0
 12 11  1  0  0  0  0
 12  8  1  0  0  0  0
 14 13  1  0  0  0  0
 15 17  1  0  0  0  0
 16 15  1  0  0  0  0
 17 19  1  0  0  0  0
 18 17  1  0  0  0  0
 20 15  1  0  0  0  0
 21 20  2  0  0  0  0
 22 21  1  0  0  0  0
 23 24  2  0  0  0  0
 24 22  1  0  0  0  0
 25 24  1  0  0  0  0
 25 27  1  0  0  0  0
 26 27  1  0  0  0  0
 27 28  1  0  0  0  0
M  END
>  <MODEL>
5

>  <REMARK>
 VINA RESULT:      -6.9      2.502      5.525
  Name = 
  8 active torsions:
  status: ('A' for Active; 'I' for Inactive)
    1  A    between atoms: C_1  and  C_21
    2  A    between atoms: C_4  and  C_21
    3  A    between atoms: N_6  and  C_21
    4  A    between atoms: C_10  and  C_17
    5  A    between atoms: C_11  and  O_19
    6  A    between atoms: C_15  and  C_23
    7  A    between atoms: C_17  and  C_27
    8  A    between atoms: C_23  and  C_27
                            x       y       z     vdW  Elec       q    Type
                         _______ _______ _______ _____ _____    ______ ____

>  <TORSDO>
F 8

$$$$
=
 OpenBabel11062413313D

 28 32  0  0  1  0  0  0  0  0999 V2000
  188.6770  177.7300  144.0800 C   0  0  2  0  0  3  0  0  0  0  0  0
  188.0900  177.2610  147.2470 C   0  0  0  0  0  2  0  0  0  0  0  0
  190.4350  176.8210  146.4130 C   0  0  0  0  0  1  0  0  0  0  0  0
  185.6730  179.3710  144.8540 C   0  0  0  0  0  2  0  0  0  0  0  0
  186.0240  178.2810  145.8530 C   0  0  2  0  0  0  0  0  0  0  0  0
  186.0950  178.8350  143.5220 C   0  0  0  0  0  2  0  0  0  0  0  0
  188.6460  178.4510  145.4310 C   0  0  2  0  0  3  0  0  0  0  0  0
  186.1640  177.3170  143.7000 C   0  0  2  0  0  3  0  0  0  0  0  0
  189.3870  177.8740  146.6870 C   0  0  1  0  0  3  0  0  0  0  0  0
  187.4200  177.8850  146.0560 C   0  0  1  0  0  0  0  0  0  0  0  0
  186.5340  176.9670  145.1680 C   0  0  1  0  0  0  0  0  0  0  0  0
  187.5160  176.7410  143.9900 C   0  0  2  0  0  3  0  0  0  0  0  0
  184.0140  178.6280  146.5930 O   0  0  0  0  0  1  0  0  0  0  0  0
  185.1290  177.9920  146.8860 O   0  0  0  0  0  0  0  0  0  0  0  0
  189.9790  177.4520  143.2770 C   0  0  1  0  0  0  0  0  0  0  0  0
  190.9240  178.6410  143.4370 C   0  0  0  0  0  1  0  0  0  0  0  0
  190.6690  176.1900  143.8480 C   0  0  2  0  0  3  0  0  0  0  0  0
  192.0600  176.2640  143.7220 O   0  0  0  0  0  1  0  0  0  0  0  0
  190.1810  174.8860  143.2180 C   0  0  0  0  0  1  0  0  0  0  0  0
  189.7200  177.2530  141.8640 N   0  0  0  0  0  0  0  0  0  0  0  0
  190.5370  177.6180  140.9410 C   0  0  0  0  0  3  0  0  0  0  0  0
  190.2860  177.2510  139.5140 C   0  0  0  0  0  2  0  0  0  0  0  0
  188.6810  178.9760  139.5290 O   0  0  0  0  0  0  0  0  0  0  0  0
  189.3600  178.2300  138.8390 C   0  0  0  0  0  0  0  0  0  0  0  0
  189.3390  178.3670  137.3380 C   0  0  0  0  0  2  0  0  0  0  0  0
  188.1310  176.2930  137.0800 O   0  0  0  0  0  1  0  0  0  0  0  0
  188.1740  177.6180  136.6420 C   0  0  1  0  0  3  0  0  0  0  0  0
  186.7900  178.2530  136.8350 C   0  0  0  0  0  1  0  0  0  0  0  0
  1 15  1  1  0  0  0
  1  7  1  0  0  0  0
  3  9  1  0  0  0  0
  4  5  1  0  0  0  0
  5 10  1  0  0  0  0
  5 14  1  1  0  0  0
  6  8  1  0  0  0  0
  6  4  1  0  0  0  0
  7 10  1  0  0  0  0
  7  9  1  0  0  0  0
  8 12  1  0  0  0  0
  8 11  1  0  0  0  0
  9  2  1  0  0  0  0
 10  2  1  0  0  0  0
 11  5  1  0  0  0  0
 11 10  1  0  0  0  0
 12  1  1  0  0  0  0
 12 11  1  0  0  0  0
 13 14  1  0  0  0  0
 15 16  1  0  0  0  0
 15 17  1  0  0  0  0
 18 17  1  0  0  0  0
 19 17  1  0  0  0  0
 20 15  1  0  0  0  0
 21 20  2  0  0  0  0
 22 21  1  0  0  0  0
 24 22  1  0  0  0  0
 24 23  2  0  0  0  0
 25 24  1  0  0  0  0
 27 28  1  0  0  0  0
 27 26  1  0  0  0  0
 27 25  1  0  0  0  0
M  END
>  <MODEL>
6

>  <REMARK>
 VINA RESULT:      -6.7      2.623      5.834
  Name = 
  8 active torsions:
  status: ('A' for Active; 'I' for Inactive)
    1  A    between atoms: C_1  and  C_21
    2  A    between atoms: C_4  and  C_21
    3  A    between atoms: N_6  and  C_21
    4  A    between atoms: C_10  and  C_17
    5  A    between atoms: C_11  and  O_19
    6  A    between atoms: C_15  and  C_23
    7  A    between atoms: C_17  and  C_27
    8  A    between atoms: C_23  and  C_27
                            x       y       z     vdW  Elec       q    Type
                         _______ _______ _______ _____ _____    ______ ____

>  <TORSDO>
F 8

$$$$
=
 OpenBabel11062413313D

 28 32  0  0  1  0  0  0  0  0999 V2000
  187.8100  177.8910  145.9190 C   0  0  2  0  0  3  0  0  0  0  0  0
  190.6290  176.5130  145.0530 C   0  0  0  0  0  2  0  0  0  0  0  0
  188.8600  176.7840  143.2680 C   0  0  0  0  0  1  0  0  0  0  0  0
  190.1640  178.6380  148.4130 C   0  0  0  0  0  2  0  0  0  0  0  0
  190.5460  177.4220  147.5870 C   0  0  2  0  0  0  0  0  0  0  0  0
  188.6780  178.5590  148.5650 C   0  0  0  0  0  2  0  0  0  0  0  0
  189.2210  178.2180  145.4200 C   0  0  2  0  0  3  0  0  0  0  0  0
  188.3220  177.0940  148.3140 C   0  0  2  0  0  3  0  0  0  0  0  0
  189.8380  177.4970  144.1720 C   0  0  1  0  0  3  0  0  0  0  0  0
  190.0560  177.2750  146.2140 C   0  0  1  0  0  0  0  0  0  0  0  0
  189.3380  176.4580  147.3240 C   0  0  1  0  0  0  0  0  0  0  0  0
  187.8670  176.7460  146.9290 C   0  0  2  0  0  3  0  0  0  0  0  0
  192.3600  177.4550  148.7780 O   0  0  0  0  0  1  0  0  0  0  0  0
  191.6940  176.7020  147.9270 O   0  0  0  0  0  0  0  0  0  0  0  0
  186.5230  178.0970  145.0720 C   0  0  1  0  0  0  0  0  0  0  0  0
  185.7590  176.7770  144.9990 C   0  0  0  0  0  1  0  0  0  0  0  0
  185.6250  179.1530  145.7600 C   0  0  2  0  0  3  0  0  0  0  0  0
  185.8180  179.1650  147.1450 O   0  0  0  0  0  1  0  0  0  0  0  0
  184.1360  178.9780  145.4650 C   0  0  0  0  0  1  0  0  0  0  0  0
  186.8200  178.5360  143.7210 N   0  0  0  0  0  0  0  0  0  0  0  0
  185.9550  178.5190  142.7700 C   0  0  0  0  0  3  0  0  0  0  0  0
  186.2740  179.1230  141.4410 C   0  0  0  0  0  2  0  0  0  0  0  0
  185.4570  178.7960  139.2550 O   0  0  0  0  0  0  0  0  0  0  0  0
  185.1720  178.8880  140.4410 C   0  0  0  0  0  0  0  0  0  0  0  0
  183.7500  178.6650  140.8910 C   0  0  0  0  0  2  0  0  0  0  0  0
  181.9890  177.1870  140.1570 O   0  0  0  0  0  1  0  0  0  0  0  0
  182.7720  178.2710  139.7560 C   0  0  1  0  0  3  0  0  0  0  0  0
  181.8530  179.4000  139.2720 C   0  0  0  0  0  1  0  0  0  0  0  0
  1 15  1  6  0  0  0
  1 12  1  0  0  0  0
  2 10  1  0  0  0  0
  3  9  1  0  0  0  0
  4  6  1  0  0  0  0
  5 14  1  1  0  0  0
  5  4  1  0  0  0  0
  7  1  1  0  0  0  0
  7 10  1  0  0  0  0
  8  6  1  0  0  0  0
  9  2  1  0  0  0  0
  9  7  1  0  0  0  0
 10 11  1  0  0  0  0
 10  5  1  0  0  0  0
 11  5  1  0  0  0  0
 11  8  1  0  0  0  0
 12 11  1  0  0  0  0
 12  8  1  0  0  0  0
 14 13  1  0  0  0  0
 15 17  1  0  0  0  0
 16 15  1  0  0  0  0
 17 18  1  0  0  0  0
 19 17  1  0  0  0  0
 20 15  1  0  0  0  0
 21 20  2  0  0  0  0
 22 21  1  0  0  0  0
 23 24  2  0  0  0  0
 24 25  1  0  0  0  0
 24 22  1  0  0  0  0
 27 26  1  0  0  0  0
 27 25  1  0  0  0  0
 28 27  1  0  0  0  0
M  END
>  <MODEL>
7

>  <REMARK>
 VINA RESULT:      -6.3      2.249      4.089
  Name = 
  8 active torsions:
  status: ('A' for Active; 'I' for Inactive)
    1  A    between atoms: C_1  and  C_21
    2  A    between atoms: C_4  and  C_21
    3  A    between atoms: N_6  and  C_21
    4  A    between atoms: C_10  and  C_17
    5  A    between atoms: C_11  and  O_19
    6  A    between atoms: C_15  and  C_23
    7  A    between atoms: C_17  and  C_27
    8  A    between atoms: C_23  and  C_27
                            x       y       z     vdW  Elec       q    Type
                         _______ _______ _______ _____ _____    ______ ____

>  <TORSDO>
F 8

$$$$
=
 OpenBabel11062413313D

 28 32  0  0  1  0  0  0  0  0999 V2000
  189.4620  177.2520  144.3660 C   0  0  2  0  0  3  0  0  0  0  0  0
  186.4690  178.3410  145.0360 C   0  0  0  0  0  2  0  0  0  0  0  0
  187.1520  178.2120  142.6060 C   0  0  0  0  0  1  0  0  0  0  0  0
  188.7120  176.3230  147.6660 C   0  0  0  0  0  2  0  0  0  0  0  0
  187.8650  177.4840  147.1740 C   0  0  2  0  0  0  0  0  0  0  0  0
  190.0680  176.5460  147.0750 C   0  0  0  0  0  2  0  0  0  0  0  0
  188.0250  176.7840  144.6110 C   0  0  2  0  0  3  0  0  0  0  0  0
  190.1200  178.0350  146.7300 C   0  0  2  0  0  3  0  0  0  0  0  0
  186.8120  177.4230  143.8490 C   0  0  1  0  0  3  0  0  0  0  0  0
  187.6040  177.6550  145.7420 C   0  0  1  0  0  0  0  0  0  0  0  0
  188.6960  178.5540  146.3860 C   0  0  1  0  0  0  0  0  0  0  0  0
  189.8050  178.4030  145.3120 C   0  0  2  0  0  3  0  0  0  0  0  0
  187.4950  177.9660  149.2570 O   0  0  0  0  0  1  0  0  0  0  0  0
  186.9720  178.0960  148.0560 O   0  0  0  0  0  0  0  0  0  0  0  0
  190.1810  177.1560  142.9910 C   0  0  1  0  0  0  0  0  0  0  0  0
  191.1850  178.3020  142.8740 C   0  0  0  0  0  1  0  0  0  0  0  0
  190.9480  175.8150  142.9110 C   0  0  2  0  0  3  0  0  0  0  0  0
  190.0720  174.7270  142.8390 O   0  0  0  0  0  1  0  0  0  0  0  0
  191.9220  175.5940  144.0680 C   0  0  0  0  0  1  0  0  0  0  0  0
  189.2530  177.2380  141.8790 N   0  0  0  0  0  0  0  0  0  0  0  0
  189.6240  177.4570  140.6680 C   0  0  0  0  0  3  0  0  0  0  0  0
  188.6400  177.3800  139.5460 C   0  0  0  0  0  2  0  0  0  0  0  0
  188.9860  179.3300  138.2680 O   0  0  0  0  0  0  0  0  0  0  0  0
  189.1260  178.1160  138.3240 C   0  0  0  0  0  0  0  0  0  0  0  0
  189.8660  177.3940  137.2270 C   0  0  0  0  0  2  0  0  0  0  0  0
  188.7760  175.2830  136.8050 O   0  0  0  0  0  1  0  0  0  0  0  0
  188.9610  176.5640  136.2820 C   0  0  1  0  0  3  0  0  0  0  0  0
  187.5900  177.1870  135.9870 C   0  0  0  0  0  1  0  0  0  0  0  0
  1 15  1  6  0  0  0
  1  7  1  0  0  0  0
  1 12  1  0  0  0  0
  2 10  1  0  0  0  0
  3  9  1  0  0  0  0
  5  4  1  0  0  0  0
  5 14  1  1  0  0  0
  6  4  1  0  0  0  0
  7 10  1  0  0  0  0
  8  6  1  0  0  0  0
  9  7  1  0  0  0  0
  9  2  1  0  0  0  0
 10 11  1  0  0  0  0
 10  5  1  0  0  0  0
 11  8  1  0  0  0  0
 11  5  1  0  0  0  0
 12 11  1  0  0  0  0
 12  8  1  0  0  0  0
 14 13  1  0  0  0  0
 16 15  1  0  0  0  0
 17 15  1  0  0  0  0
 17 19  1  0  0  0  0
 18 17  1  0  0  0  0
 20 15  1  0  0  0  0
 21 20  2  0  0  0  0
 22 21  1  0  0  0  0
 23 24  2  0  0  0  0
 24 22  1  0  0  0  0
 25 24  1  0  0  0  0
 27 26  1  0  0  0  0
 27 25  1  0  0  0  0
 28 27  1  0  0  0  0
M  END
>  <MODEL>
8

>  <REMARK>
 VINA RESULT:      -6.3      3.258      5.488
  Name = 
  8 active torsions:
  status: ('A' for Active; 'I' for Inactive)
    1  A    between atoms: C_1  and  C_21
    2  A    between atoms: C_4  and  C_21
    3  A    between atoms: N_6  and  C_21
    4  A    between atoms: C_10  and  C_17
    5  A    between atoms: C_11  and  O_19
    6  A    between atoms: C_15  and  C_23
    7  A    between atoms: C_17  and  C_27
    8  A    between atoms: C_23  and  C_27
                            x       y       z     vdW  Elec       q    Type
                         _______ _______ _______ _____ _____    ______ ____

>  <TORSDO>
F 8

$$$$
=
 OpenBabel11062413313D

 28 32  0  0  1  0  0  0  0  0999 V2000
  189.3290  177.2600  144.3430 C   0  0  2  0  0  3  0  0  0  0  0  0
  186.3040  178.4560  144.4520 C   0  0  0  0  0  2  0  0  0  0  0  0
  187.4030  178.2540  142.1850 C   0  0  0  0  0  1  0  0  0  0  0  0
  187.9720  176.4250  147.4700 C   0  0  0  0  0  2  0  0  0  0  0  0
  187.2680  177.6010  146.8170 C   0  0  2  0  0  0  0  0  0  0  0  0
  189.4190  176.5920  147.1260 C   0  0  0  0  0  2  0  0  0  0  0  0
  187.8550  176.8420  144.3340 C   0  0  2  0  0  3  0  0  0  0  0  0
  189.5830  178.0710  146.7740 C   0  0  2  0  0  3  0  0  0  0  0  0
  186.8210  177.5030  143.3580 C   0  0  1  0  0  3  0  0  0  0  0  0
  187.2710  177.7500  145.3590 C   0  0  1  0  0  0  0  0  0  0  0  0
  188.2620  178.6280  146.1730 C   0  0  1  0  0  0  0  0  0  0  0  0
  189.5370  178.4190  145.3170 C   0  0  2  0  0  3  0  0  0  0  0  0
  185.1200  177.8710  146.9690 O   0  0  0  0  0  1  0  0  0  0  0  0
  186.2530  178.2600  147.5160 O   0  0  0  0  0  0  0  0  0  0  0  0
  190.2770  177.1130  143.1200 C   0  0  1  0  0  0  0  0  0  0  0  0
  191.2960  178.2500  143.1410 C   0  0  0  0  0  1  0  0  0  0  0  0
  191.0340  175.7660  143.2220 C   0  0  2  0  0  3  0  0  0  0  0  0
  190.1800  174.6800  143.0040 O   0  0  0  0  0  1  0  0  0  0  0  0
  191.7600  175.5700  144.5530 C   0  0  0  0  0  1  0  0  0  0  0  0
  189.5590  177.1570  141.8600 N   0  0  0  0  0  0  0  0  0  0  0  0
  190.1440  177.2690  140.7200 C   0  0  0  0  0  3  0  0  0  0  0  0
  189.3640  177.1580  139.4510 C   0  0  0  0  0  2  0  0  0  0  0  0
  190.0400  177.4930  137.2190 O   0  0  0  0  0  0  0  0  0  0  0  0
  190.2570  176.9000  138.2660 C   0  0  0  0  0  0  0  0  0  0  0  0
  191.4640  176.0030  138.3850 C   0  0  0  0  0  2  0  0  0  0  0  0
  193.5560  176.9690  139.1030 O   0  0  0  0  0  1  0  0  0  0  0  0
  192.8000  176.6680  137.9680 C   0  0  1  0  0  3  0  0  0  0  0  0
  193.6580  175.8440  136.9990 C   0  0  0  0  0  1  0  0  0  0  0  0
  1 15  1  6  0  0  0
  1 12  1  0  0  0  0
  2 10  1  0  0  0  0
  3  9  1  0  0  0  0
  5  4  1  0  0  0  0
  5 14  1  1  0  0  0
  6  4  1  0  0  0  0
  7  1  1  0  0  0  0
  7 10  1  0  0  0  0
  8  6  1  0  0  0  0
  9  7  1  0  0  0  0
  9  2  1  0  0  0  0
 10 11  1  0  0  0  0
 10  5  1  0  0  0  0
 11  8  1  0  0  0  0
 11  5  1  0  0  0  0
 12 11  1  0  0  0  0
 12  8  1  0  0  0  0
 13 14  1  0  0  0  0
 15 16  1  0  0  0  0
 15 17  1  0  0  0  0
 17 19  1  0  0  0  0
 18 17  1  0  0  0  0
 20 15  1  0  0  0  0
 21 20  2  0  0  0  0
 22 21  1  0  0  0  0
 23 24  2  0  0  0  0
 24 25  1  0  0  0  0
 24 22  1  0  0  0  0
 27 25  1  0  0  0  0
 27 26  1  0  0  0  0
 28 27  1  0  0  0  0
M  END
>  <MODEL>
9

>  <REMARK>
 VINA RESULT:      -6.2      2.939      6.624
  Name = 
  8 active torsions:
  status: ('A' for Active; 'I' for Inactive)
    1  A    between atoms: C_1  and  C_21
    2  A    between atoms: C_4  and  C_21
    3  A    between atoms: N_6  and  C_21
    4  A    between atoms: C_10  and  C_17
    5  A    between atoms: C_11  and  O_19
    6  A    between atoms: C_15  and  C_23
    7  A    between atoms: C_17  and  C_27
    8  A    between atoms: C_23  and  C_27
                            x       y       z     vdW  Elec       q    Type
                         _______ _______ _______ _____ _____    ______ ____

>  <TORSDO>
F 8

$$$$
