=
 OpenBabel11062412123D

 55 59  0  0  1  0  0  0  0  0999 V2000
  186.6770  178.6730  139.0270 N   0  0  0  0  0  0  0  0  0  0  0  0
  186.0490  178.0590  138.0000 C   0  0  0  0  0  3  0  0  0  0  0  0
  186.9200  177.1190  137.4820 C   0  0  0  0  0  0  0  0  0  0  0  0
  188.0660  177.2210  138.2360 C   0  0  0  0  0  0  0  0  0  0  0  0
  187.8970  178.1710  139.1700 N   0  0  0  0  0  2  0  0  0  0  0  0
  189.2390  175.2400  137.7100 O   0  0  0  0  0  0  0  0  0  0  0  0
  189.3030  176.4570  138.0430 C   0  0  0  0  0  0  0  0  0  0  0  0
  190.6170  177.1810  138.0800 C   0  0  0  0  0  2  0  0  0  0  0  0
  191.4250  176.9250  139.3530 C   0  0  1  0  0  3  0  0  0  0  0  0
  193.6460  177.6770  139.7980 O   0  0  0  0  0  0  0  0  0  0  0  0
  193.5040  176.1730  138.0390 N   0  0  0  0  0  2  0  0  0  0  0  0
  192.8960  176.9750  139.0620 C   0  0  0  0  0  0  0  0  0  0  0  0
  192.8770  175.3380  137.0550 C   0  0  0  0  0  0  0  0  0  0  0  0
  192.6990  175.8520  135.7650 C   0  0  0  0  0  3  0  0  0  0  0  0
  191.7890  173.2780  136.3620 C   0  0  0  0  0  3  0  0  0  0  0  0
  191.6230  173.7950  135.0730 C   0  0  0  0  0  3  0  0  0  0  0  0
  192.0780  175.0840  134.7760 C   0  0  0  0  0  3  0  0  0  0  0  0
  192.4120  174.0470  137.3480 C   0  0  0  0  0  3  0  0  0  0  0  0
  191.1210  177.9260  140.2850 O   0  0  0  0  0  0  0  0  0  0  0  0
  190.1510  175.7610  141.4390 O   0  0  0  0  0  0  0  0  0  0  0  0
  192.1030  176.9890  142.6770 O   0  0  0  0  0  1  0  0  0  0  0  0
  190.7100  177.1350  141.7290 P   0  0  1  0  0  0  0  0  0  0  0  0
  189.5150  178.0800  142.6030 N   0  0  0  0  0  2  0  0  0  0  0  0
  189.0610  177.2710  143.7190 C   0  0  2  0  0  3  0  0  0  0  0  0
  187.5990  176.9280  143.5260 C   0  0  0  0  0  1  0  0  0  0  0  0
  189.2360  178.0500  145.0140 C   0  0  0  0  0  2  0  0  0  0  0  0
  190.0270  177.2500  146.0030 C   0  0  0  0  0  0  0  0  0  0  0  0
  191.1960  176.9830  145.7730 O   0  0  0  0  0  0  0  0  0  0  0  0
  188.1340  177.6000  147.5600 C   0  0  0  0  0  1  0  0  0  0  0  0
  189.4070  176.8140  147.2920 C   0  0  0  0  0  2  0  0  0  0  0  0
  186.6830  176.1750  136.3430 C   0  0  0  0  0  2  0  0  0  0  0  0
  185.3870  176.4650  135.5830 C   0  0  0  0  0  2  0  0  0  0  0  0
  182.3580  173.3560  136.9670 C   0  0  0  0  0  2  0  0  0  0  0  0
  181.4450  174.4110  136.3310 C   0  0  0  0  0  2  0  0  0  0  0  0
  182.9080  176.4470  136.1060 C   0  0  0  0  0  0  0  0  0  0  0  0
  183.8030  173.4640  136.5080 C   0  0  2  0  0  3  0  0  0  0  0  0
  181.7170  175.8510  136.7970 C   0  0  2  0  0  3  0  0  0  0  0  0
  184.2190  175.8570  136.2150 N   0  0  0  0  0  0  0  0  0  0  0  0
  182.7400  177.4840  135.4060 O   0  0  0  0  0  0  0  0  0  0  0  0
  184.5690  172.2470  136.9860 C   0  0  0  0  0  1  0  0  0  0  0  0
  184.4650  174.7090  137.0790 C   0  0  0  0  0  2  0  0  0  0  0  0
  181.8330  175.9890  138.3130 C   0  0  0  0  0  2  0  0  0  0  0  0
  181.2010  177.2260  138.7640 N   0  0  0  0  0  2  0  0  0  0  0  0
  181.9710  178.7600  142.0320 C   0  0  0  0  0  2  0  0  0  0  0  0
  183.3250  178.2850  141.4910 C   0  0  0  0  0  2  0  0  0  0  0  0
  181.1740  179.4320  140.9520 C   0  0  0  0  0  0  0  0  0  0  0  0
  182.2860  178.1210  139.1370 C   0  0  1  0  0  3  0  0  0  0  0  0
  181.7470  179.5100  139.5540 C   0  0  1  0  0  3  0  0  0  0  0  0
  180.0700  179.8820  141.2130 O   0  0  0  0  0  0  0  0  0  0  0  0
  183.1540  177.4490  140.2170 C   0  0  0  0  0  2  0  0  0  0  0  0
  180.8000  180.0900  138.5900 N   0  0  2  0  0  0  0  0  0  0  0  0
  180.7640  180.8720  136.5410 C   0  0  0  0  0  2  0  0  0  0  0  0
  181.2400  179.8200  137.3250 O   0  0  0  0  0  0  0  0  0  0  0  0
  180.8510  181.4880  138.7650 N   0  0  0  0  0  2  0  0  0  0  0  0
  180.6930  182.0500  137.4460 C   0  0  0  0  0  2  0  0  0  0  0  0
  1  5  1  0  0  0  0
  2  1  2  0  0  0  0
  3  2  1  0  0  0  0
  3  4  2  0  0  0  0
  4  5  1  0  0  0  0
  6  7  2  0  0  0  0
  7  8  1  0  0  0  0
  7  4  1  0  0  0  0
  9  8  1  6  0  0  0
  9 19  1  0  0  0  0
 11 12  1  0  0  0  0
 12  9  1  0  0  0  0
 12 10  2  0  0  0  0
 13 18  1  0  0  0  0
 13 11  1  0  0  0  0
 14 13  2  0  0  0  0
 15 18  2  0  0  0  0
 16 15  1  0  0  0  0
 17 16  2  0  0  0  0
 17 14  1  0  0  0  0
 19 22  1  0  0  0  0
 22 20  2  6  0  0  0
 22 23  1  0  0  0  0
 22 21  1  0  0  0  0
 23 24  1  0  0  0  0
 24 25  1  6  0  0  0
 24 26  1  0  0  0  0
 26 27  1  0  0  0  0
 27 30  1  0  0  0  0
 28 27  2  0  0  0  0
 30 29  1  0  0  0  0
 31  3  1  0  0  0  0
 32 38  1  0  0  0  0
 32 31  1  0  0  0  0
 34 37  1  0  0  0  0
 34 33  1  0  0  0  0
 35 38  1  0  0  0  0
 35 37  1  0  0  0  0
 36 33  1  0  0  0  0
 36 40  1  1  0  0  0
 36 41  1  0  0  0  0
 37 42  1  1  0  0  0
 38 41  1  0  0  0  0
 39 35  2  0  0  0  0
 42 43  1  0  0  0  0
 45 44  1  0  0  0  0
 46 49  2  0  0  0  0
 46 44  1  0  0  0  0
 47 43  1  1  0  0  0
 47 48  1  0  0  0  0
 47 50  1  0  0  0  0
 48 46  1  1  0  0  0
 50 45  1  0  0  0  0
 51 53  1  6  0  0  0
 51 54  1  0  0  0  0
 51 48  1  0  0  0  0
 52 53  1  0  0  0  0
 52 55  1  0  0  0  0
 55 54  1  0  0  0  0
M  END
>  <MODEL>
1

>  <REMARK>
 VINA RESULT:      -7.1      0.000      0.000
  Name = 
  19 active torsions:
  status: ('A' for Active; 'I' for Inactive)
    1  A    between atoms: C_1  and  N_28
    2  A    between atoms: N_2  and  C_19
    3  A    between atoms: C_4  and  C_10
    4  A    between atoms: C_4  and  C_36
    5  A    between atoms: C_7  and  C_37
    6  A    between atoms: C_7  and  C_50
    7  A    between atoms: O_9  and  P_29
    8  A    between atoms: O_9  and  C_45
    9  A    between atoms: C_10  and  N_44
   10  A    between atoms: C_12  and  C_39
   11  A    between atoms: C_12  and  C_46
   12  A    between atoms: N_15  and  C_26
   13  A    between atoms: N_15  and  P_29
   14  A    between atoms: C_17  and  N_54
   15  A    between atoms: C_26  and  C_50
   16  A    between atoms: C_38  and  C_42
   17  A    between atoms: C_39  and  C_45
   18  A    between atoms: C_42  and  N_54
   19  A    between atoms: C_43  and  C_45
                            x       y       z     vdW  Elec       q    Type
                         _______ _______ _______ _____ _____    ______ ____

>  <TORSDO>
F 19

$$$$
=
 OpenBabel11062412123D

 55 59  0  0  1  0  0  0  0  0999 V2000
  186.6100  178.5890  138.9380 N   0  0  0  0  0  0  0  0  0  0  0  0
  186.2760  178.2730  137.6670 C   0  0  0  0  0  3  0  0  0  0  0  0
  187.2630  177.4400  137.1730 C   0  0  0  0  0  0  0  0  0  0  0  0
  188.1730  177.2980  138.1950 C   0  0  0  0  0  0  0  0  0  0  0  0
  187.7570  178.0020  139.2590 N   0  0  0  0  0  2  0  0  0  0  0  0
  189.3970  175.3020  137.8760 O   0  0  0  0  0  0  0  0  0  0  0  0
  189.4260  176.5380  138.1410 C   0  0  0  0  0  0  0  0  0  0  0  0
  190.7280  177.2770  138.2340 C   0  0  0  0  0  2  0  0  0  0  0  0
  191.5400  176.9390  139.4850 C   0  0  1  0  0  3  0  0  0  0  0  0
  193.7990  177.5610  139.9360 O   0  0  0  0  0  0  0  0  0  0  0  0
  193.5640  176.1560  138.1060 N   0  0  0  0  0  2  0  0  0  0  0  0
  193.0080  176.9340  139.1760 C   0  0  0  0  0  0  0  0  0  0  0  0
  192.8850  175.4030  137.0900 C   0  0  0  0  0  0  0  0  0  0  0  0
  192.4930  174.0930  137.3870 C   0  0  0  0  0  3  0  0  0  0  0  0
  191.9870  175.1430  134.8480 C   0  0  0  0  0  3  0  0  0  0  0  0
  191.5890  173.8380  135.1550 C   0  0  0  0  0  3  0  0  0  0  0  0
  191.8440  173.3130  136.4260 C   0  0  0  0  0  3  0  0  0  0  0  0
  192.6330  175.9210  135.8110 C   0  0  0  0  0  3  0  0  0  0  0  0
  191.2920  177.9200  140.4570 O   0  0  0  0  0  0  0  0  0  0  0  0
  190.0530  175.8140  141.4530 O   0  0  0  0  0  0  0  0  0  0  0  0
  192.0680  176.7620  142.8270 O   0  0  0  0  0  1  0  0  0  0  0  0
  190.7400  177.1050  141.8380 P   0  0  1  0  0  0  0  0  0  0  0  0
  189.6140  178.1250  142.7180 N   0  0  0  0  0  2  0  0  0  0  0  0
  189.1690  177.3740  143.8780 C   0  0  2  0  0  3  0  0  0  0  0  0
  187.7020  177.0350  143.7210 C   0  0  0  0  0  1  0  0  0  0  0  0
  189.3680  178.2130  145.1320 C   0  0  0  0  0  2  0  0  0  0  0  0
  189.1440  177.3820  146.3580 C   0  0  0  0  0  0  0  0  0  0  0  0
  188.0180  177.2630  146.8140 O   0  0  0  0  0  0  0  0  0  0  0  0
  191.5290  176.7540  146.1340 C   0  0  0  0  0  1  0  0  0  0  0  0
  190.2850  176.6610  147.0030 C   0  0  0  0  0  2  0  0  0  0  0  0
  187.3400  176.8110  135.8150 C   0  0  0  0  0  2  0  0  0  0  0  0
  185.9650  176.5460  135.1970 C   0  0  0  0  0  2  0  0  0  0  0  0
  184.5810  172.5850  136.9710 C   0  0  0  0  0  2  0  0  0  0  0  0
  183.2780  173.1210  136.3650 C   0  0  0  0  0  2  0  0  0  0  0  0
  183.7510  175.5540  135.9250 C   0  0  0  0  0  0  0  0  0  0  0  0
  185.8230  173.2400  136.3890 C   0  0  2  0  0  3  0  0  0  0  0  0
  182.9550  174.5770  136.7390 C   0  0  2  0  0  3  0  0  0  0  0  0
  185.1920  175.5630  135.9510 N   0  0  0  0  0  0  0  0  0  0  0  0
  183.1290  176.3740  135.1950 O   0  0  0  0  0  0  0  0  0  0  0  0
  187.0500  172.4850  136.8580 C   0  0  0  0  0  1  0  0  0  0  0  0
  185.9410  174.6870  136.8450 C   0  0  0  0  0  2  0  0  0  0  0  0
  183.0890  174.8650  138.2330 C   0  0  0  0  0  2  0  0  0  0  0  0
  182.5150  176.1700  138.5550 N   0  0  0  0  0  2  0  0  0  0  0  0
  178.9720  177.1380  138.9200 C   0  0  0  0  0  2  0  0  0  0  0  0
  179.0430  175.7010  139.4470 C   0  0  0  0  0  2  0  0  0  0  0  0
  180.1250  177.9510  139.4330 C   0  0  0  0  0  0  0  0  0  0  0  0
  181.6010  175.9460  139.6650 C   0  0  1  0  0  3  0  0  0  0  0  0
  181.1640  177.2830  140.3080 C   0  0  1  0  0  3  0  0  0  0  0  0
  180.2190  179.1250  139.1180 O   0  0  0  0  0  0  0  0  0  0  0  0
  180.4210  175.0790  139.1870 C   0  0  0  0  0  2  0  0  0  0  0  0
  182.2860  178.1780  140.6300 N   0  0  2  0  0  0  0  0  0  0  0  0
  184.2220  178.1330  141.6600 C   0  0  0  0  0  2  0  0  0  0  0  0
  183.4220  177.4300  140.7570 O   0  0  0  0  0  0  0  0  0  0  0  0
  182.0050  178.7380  141.8930 N   0  0  0  0  0  2  0  0  0  0  0  0
  183.2810  178.8520  142.5580 C   0  0  0  0  0  2  0  0  0  0  0  0
  1  5  1  0  0  0  0
  2  1  2  0  0  0  0
  3  2  1  0  0  0  0
  3  4  2  0  0  0  0
  4  5  1  0  0  0  0
  6  7  2  0  0  0  0
  7  4  1  0  0  0  0
  7  8  1  0  0  0  0
  9  8  1  6  0  0  0
  9 19  1  0  0  0  0
 11 12  1  0  0  0  0
 12  9  1  0  0  0  0
 12 10  2  0  0  0  0
 13 14  1  0  0  0  0
 13 11  1  0  0  0  0
 15 16  2  0  0  0  0
 15 18  1  0  0  0  0
 16 17  1  0  0  0  0
 17 14  2  0  0  0  0
 18 13  2  0  0  0  0
 19 22  1  0  0  0  0
 22 20  2  6  0  0  0
 22 23  1  0  0  0  0
 22 21  1  0  0  0  0
 23 24  1  0  0  0  0
 24 25  1  6  0  0  0
 24 26  1  0  0  0  0
 26 27  1  0  0  0  0
 27 28  2  0  0  0  0
 27 30  1  0  0  0  0
 29 30  1  0  0  0  0
 31  3  1  0  0  0  0
 32 31  1  0  0  0  0
 32 38  1  0  0  0  0
 34 37  1  0  0  0  0
 34 33  1  0  0  0  0
 35 38  1  0  0  0  0
 35 37  1  0  0  0  0
 36 41  1  0  0  0  0
 36 40  1  1  0  0  0
 36 33  1  0  0  0  0
 37 42  1  1  0  0  0
 38 41  1  0  0  0  0
 39 35  2  0  0  0  0
 42 43  1  0  0  0  0
 44 46  1  0  0  0  0
 44 45  1  0  0  0  0
 47 43  1  6  0  0  0
 47 48  1  0  0  0  0
 48 46  1  6  0  0  0
 48 51  1  0  0  0  0
 49 46  2  0  0  0  0
 50 45  1  0  0  0  0
 50 47  1  0  0  0  0
 51 53  1  1  0  0  0
 51 54  1  0  0  0  0
 52 55  1  0  0  0  0
 53 52  1  0  0  0  0
 54 55  1  0  0  0  0
M  END
>  <MODEL>
2

>  <REMARK>
 VINA RESULT:      -6.7      1.536      2.397
  Name = 
  19 active torsions:
  status: ('A' for Active; 'I' for Inactive)
    1  A    between atoms: C_1  and  N_28
    2  A    between atoms: N_2  and  C_19
    3  A    between atoms: C_4  and  C_10
    4  A    between atoms: C_4  and  C_36
    5  A    between atoms: C_7  and  C_37
    6  A    between atoms: C_7  and  C_50
    7  A    between atoms: O_9  and  P_29
    8  A    between atoms: O_9  and  C_45
    9  A    between atoms: C_10  and  N_44
   10  A    between atoms: C_12  and  C_39
   11  A    between atoms: C_12  and  C_46
   12  A    between atoms: N_15  and  C_26
   13  A    between atoms: N_15  and  P_29
   14  A    between atoms: C_17  and  N_54
   15  A    between atoms: C_26  and  C_50
   16  A    between atoms: C_38  and  C_42
   17  A    between atoms: C_39  and  C_45
   18  A    between atoms: C_42  and  N_54
   19  A    between atoms: C_43  and  C_45
                            x       y       z     vdW  Elec       q    Type
                         _______ _______ _______ _____ _____    ______ ____

>  <TORSDO>
F 19

$$$$
=
 OpenBabel11062412123D

 55 59  0  0  1  0  0  0  0  0999 V2000
  192.5440  176.6500  139.0420 N   0  0  0  0  0  0  0  0  0  0  0  0
  191.7670  175.8910  138.2380 C   0  0  0  0  0  3  0  0  0  0  0  0
  190.4610  176.3170  138.3990 C   0  0  0  0  0  0  0  0  0  0  0  0
  190.5150  177.3330  139.3250 C   0  0  0  0  0  0  0  0  0  0  0  0
  191.7900  177.5210  139.7020 N   0  0  0  0  0  2  0  0  0  0  0  0
  189.1220  179.2380  139.4240 O   0  0  0  0  0  0  0  0  0  0  0  0
  189.3720  178.0800  139.8620 C   0  0  0  0  0  0  0  0  0  0  0  0
  188.4270  177.3850  140.7970 C   0  0  0  0  0  2  0  0  0  0  0  0
  188.8550  177.4460  142.2630 C   0  0  1  0  0  3  0  0  0  0  0  0
  188.8630  175.2020  143.0760 O   0  0  0  0  0  0  0  0  0  0  0  0
  187.0620  176.4590  143.8200 N   0  0  0  0  0  2  0  0  0  0  0  0
  188.2540  176.3090  143.0360 C   0  0  0  0  0  0  0  0  0  0  0  0
  186.1740  177.5840  143.9070 C   0  0  0  0  0  0  0  0  0  0  0  0
  186.0090  178.2030  145.1510 C   0  0  0  0  0  3  0  0  0  0  0  0
  184.5810  179.1440  142.9410 C   0  0  0  0  0  3  0  0  0  0  0  0
  184.4290  179.7630  144.1860 C   0  0  0  0  0  3  0  0  0  0  0  0
  185.1430  179.2910  145.2910 C   0  0  0  0  0  3  0  0  0  0  0  0
  185.4490  178.0580  142.8030 C   0  0  0  0  0  3  0  0  0  0  0  0
  190.2520  177.3390  142.3260 O   0  0  0  0  0  0  0  0  0  0  0  0
  191.9020  178.7770  143.8000 O   0  0  0  0  0  0  0  0  0  0  0  0
  189.4040  178.6740  144.5760 O   0  0  0  0  0  1  0  0  0  0  0  0
  190.7080  177.8530  143.8770 P   0  0  1  0  0  0  0  0  0  0  0  0
  191.1100  176.4600  144.8690 N   0  0  0  0  0  2  0  0  0  0  0  0
  190.9660  176.8650  146.2550 C   0  0  2  0  0  3  0  0  0  0  0  0
  192.2860  176.6740  146.9710 C   0  0  0  0  0  1  0  0  0  0  0  0
  189.8960  176.0130  146.9230 C   0  0  0  0  0  2  0  0  0  0  0  0
  188.7740  176.8740  147.4150 C   0  0  0  0  0  0  0  0  0  0  0  0
  187.6170  176.5260  147.2400 O   0  0  0  0  0  0  0  0  0  0  0  0
  187.7750  178.9120  148.4070 C   0  0  0  0  0  1  0  0  0  0  0  0
  189.0610  178.1390  148.1600 C   0  0  0  0  0  2  0  0  0  0  0  0
  189.2330  175.7970  137.7160 C   0  0  0  0  0  2  0  0  0  0  0  0
  188.5380  176.8500  136.8480 C   0  0  0  0  0  2  0  0  0  0  0  0
  184.3670  175.6260  135.4850 C   0  0  0  0  0  2  0  0  0  0  0  0
  184.1700  177.1190  135.7730 C   0  0  0  0  0  2  0  0  0  0  0  0
  186.1920  177.7660  137.1240 C   0  0  0  0  0  0  0  0  0  0  0  0
  185.8250  175.2450  135.2880 C   0  0  2  0  0  3  0  0  0  0  0  0
  184.7040  177.5780  137.1400 C   0  0  2  0  0  3  0  0  0  0  0  0
  187.0880  176.6800  136.8150 N   0  0  0  0  0  0  0  0  0  0  0  0
  186.6560  178.9120  137.3770 O   0  0  0  0  0  0  0  0  0  0  0  0
  185.9020  173.8230  134.7690 C   0  0  0  0  0  1  0  0  0  0  0  0
  186.5930  175.3250  136.5990 C   0  0  0  0  0  2  0  0  0  0  0  0
  184.2730  176.6790  138.2960 C   0  0  0  0  0  2  0  0  0  0  0  0
  183.4710  177.4310  139.2580 N   0  0  0  0  0  2  0  0  0  0  0  0
  180.5870  176.3650  137.2150 C   0  0  0  0  0  2  0  0  0  0  0  0
  181.0390  175.0980  137.9500 C   0  0  0  0  0  2  0  0  0  0  0  0
  180.5710  177.5420  138.1470 C   0  0  0  0  0  0  0  0  0  0  0  0
  182.3510  176.5720  139.6100 C   0  0  1  0  0  3  0  0  0  0  0  0
  181.0160  177.3520  139.5810 C   0  0  1  0  0  3  0  0  0  0  0  0
  180.2250  178.6340  137.7280 O   0  0  0  0  0  0  0  0  0  0  0  0
  182.3560  175.3280  138.7000 C   0  0  0  0  0  2  0  0  0  0  0  0
  181.0550  178.6170  140.3300 N   0  0  2  0  0  0  0  0  0  0  0  0
  180.8910  179.3500  142.3900 C   0  0  0  0  0  2  0  0  0  0  0  0
  181.4840  178.3630  141.6010 O   0  0  0  0  0  0  0  0  0  0  0  0
  179.7250  179.0760  140.4160 N   0  0  0  0  0  2  0  0  0  0  0  0
  179.6110  179.6920  141.7150 C   0  0  0  0  0  2  0  0  0  0  0  0
  1  5  1  0  0  0  0
  2  3  1  0  0  0  0
  2  1  2  0  0  0  0
  3  4  2  0  0  0  0
  4  5  1  0  0  0  0
  4  7  1  0  0  0  0
  6  7  2  0  0  0  0
  7  8  1  0  0  0  0
  9  8  1  6  0  0  0
  9 19  1  0  0  0  0
  9 12  1  0  0  0  0
 11 13  1  0  0  0  0
 12 10  2  0  0  0  0
 12 11  1  0  0  0  0
 13 14  1  0  0  0  0
 14 17  2  0  0  0  0
 15 16  2  0  0  0  0
 16 17  1  0  0  0  0
 18 15  1  0  0  0  0
 18 13  2  0  0  0  0
 19 22  1  0  0  0  0
 22 20  2  6  0  0  0
 22 21  1  0  0  0  0
 22 23  1  0  0  0  0
 23 24  1  0  0  0  0
 24 26  1  0  0  0  0
 24 25  1  1  0  0  0
 26 27  1  0  0  0  0
 27 30  1  0  0  0  0
 28 27  2  0  0  0  0
 30 29  1  0  0  0  0
 31  3  1  0  0  0  0
 32 31  1  0  0  0  0
 33 34  1  0  0  0  0
 34 37  1  0  0  0  0
 35 37  1  0  0  0  0
 35 39  2  0  0  0  0
 36 40  1  1  0  0  0
 36 33  1  0  0  0  0
 36 41  1  0  0  0  0
 37 42  1  1  0  0  0
 38 32  1  0  0  0  0
 38 35  1  0  0  0  0
 41 38  1  0  0  0  0
 42 43  1  0  0  0  0
 44 45  1  0  0  0  0
 44 46  1  0  0  0  0
 45 50  1  0  0  0  0
 47 43  1  6  0  0  0
 48 46  1  6  0  0  0
 48 47  1  0  0  0  0
 48 51  1  0  0  0  0
 49 46  2  0  0  0  0
 50 47  1  0  0  0  0
 51 54  1  1  0  0  0
 51 53  1  0  0  0  0
 53 52  1  0  0  0  0
 54 55  1  0  0  0  0
 55 52  1  0  0  0  0
M  END
>  <MODEL>
3

>  <REMARK>
 VINA RESULT:      -6.5      2.338      5.372
  Name = 
  19 active torsions:
  status: ('A' for Active; 'I' for Inactive)
    1  A    between atoms: C_1  and  N_28
    2  A    between atoms: N_2  and  C_19
    3  A    between atoms: C_4  and  C_10
    4  A    between atoms: C_4  and  C_36
    5  A    between atoms: C_7  and  C_37
    6  A    between atoms: C_7  and  C_50
    7  A    between atoms: O_9  and  P_29
    8  A    between atoms: O_9  and  C_45
    9  A    between atoms: C_10  and  N_44
   10  A    between atoms: C_12  and  C_39
   11  A    between atoms: C_12  and  C_46
   12  A    between atoms: N_15  and  C_26
   13  A    between atoms: N_15  and  P_29
   14  A    between atoms: C_17  and  N_54
   15  A    between atoms: C_26  and  C_50
   16  A    between atoms: C_38  and  C_42
   17  A    between atoms: C_39  and  C_45
   18  A    between atoms: C_42  and  N_54
   19  A    between atoms: C_43  and  C_45
                            x       y       z     vdW  Elec       q    Type
                         _______ _______ _______ _____ _____    ______ ____

>  <TORSDO>
F 19

$$$$
=
 OpenBabel11062412123D

 55 59  0  0  1  0  0  0  0  0999 V2000
  180.9650  178.8530  142.6520 N   0  0  0  0  0  0  0  0  0  0  0  0
  182.2960  179.0810  142.5940 C   0  0  0  0  0  2  0  0  0  0  0  0
  182.7830  178.4170  141.4830 C   0  0  0  0  0  0  0  0  0  0  0  0
  181.6940  177.7970  140.9150 C   0  0  0  0  0  0  0  0  0  0  0  0
  180.5990  178.0760  141.6400 N   0  0  0  0  0  0  0  0  0  0  0  0
  182.6110  176.0540  139.6120 O   0  0  0  0  0  0  0  0  0  0  0  0
  181.7080  176.9300  139.7320 C   0  0  0  0  0  0  0  0  0  0  0  0
  180.5550  176.9890  138.7750 C   0  0  0  0  0  2  0  0  0  0  0  0
  180.7240  178.0320  137.6700 C   0  0  1  0  0  3  0  0  0  0  0  0
  179.2340  177.8030  135.8200 O   0  0  0  0  0  0  0  0  0  0  0  0
  181.2100  176.6120  135.5830 N   0  0  0  0  0  2  0  0  0  0  0  0
  180.3340  177.4590  136.3390 C   0  0  0  0  0  0  0  0  0  0  0  0
  182.4740  176.0490  135.9640 C   0  0  0  0  0  0  0  0  0  0  0  0
  182.4960  174.7410  136.4600 C   0  0  0  0  0  3  0  0  0  0  0  0
  184.8780  176.1900  136.2870 C   0  0  0  0  0  3  0  0  0  0  0  0
  184.8930  174.8780  136.7730 C   0  0  0  0  0  3  0  0  0  0  0  0
  183.6990  174.1550  136.8600 C   0  0  0  0  0  3  0  0  0  0  0  0
  183.6740  176.7730  135.8850 C   0  0  0  0  0  3  0  0  0  0  0  0
  179.8850  179.1200  137.9500 O   0  0  0  0  0  0  0  0  0  0  0  0
  180.1980  181.6460  138.6470 O   0  0  0  0  0  1  0  0  0  0  0  0
  182.3430  180.1470  138.6340 O   0  0  0  0  0  0  0  0  0  0  0  0
  180.8600  180.5080  137.9050 P   0  0  1  0  0  0  0  0  0  0  0  0
  181.1390  180.9820  136.2370 N   0  0  0  0  0  2  0  0  0  0  0  0
  180.0610  181.8760  135.8580 C   0  0  2  0  0  3  0  0  0  0  0  0
  178.9310  181.0690  135.2560 C   0  0  0  0  0  1  0  0  0  0  0  0
  180.5720  182.8810  134.8360 C   0  0  0  0  0  2  0  0  0  0  0  0
  180.7330  184.2310  135.4650 C   0  0  0  0  0  0  0  0  0  0  0  0
  180.9020  185.2140  134.7610 O   0  0  0  0  0  0  0  0  0  0  0  0
  182.0360  184.5170  137.5510 C   0  0  0  0  0  1  0  0  0  0  0  0
  180.6460  184.3900  136.9500 C   0  0  0  0  0  2  0  0  0  0  0  0
  184.1950  178.3730  140.9840 C   0  0  0  0  0  2  0  0  0  0  0  0
  185.1320  179.3100  141.7510 C   0  0  0  0  0  2  0  0  0  0  0  0
  188.8030  176.6440  142.1620 C   0  0  0  0  0  2  0  0  0  0  0  0
  187.9270  176.1400  143.3150 C   0  0  0  0  0  2  0  0  0  0  0  0
  186.1790  177.9280  143.5970 C   0  0  0  0  0  0  0  0  0  0  0  0
  188.0180  177.4060  141.1060 C   0  0  2  0  0  3  0  0  0  0  0  0
  187.3650  177.2500  144.2180 C   0  0  2  0  0  3  0  0  0  0  0  0
  186.2740  178.6080  142.3300 N   0  0  0  0  0  0  0  0  0  0  0  0
  185.0740  177.8830  144.2070 O   0  0  0  0  0  0  0  0  0  0  0  0
  188.9060  177.6450  139.9020 C   0  0  0  0  0  1  0  0  0  0  0  0
  187.5500  178.7520  141.6400 C   0  0  0  0  0  2  0  0  0  0  0  0
  188.4150  178.2670  144.6580 C   0  0  0  0  0  2  0  0  0  0  0  0
  189.2950  177.6880  145.6700 N   0  0  0  0  0  2  0  0  0  0  0  0
  191.6750  176.8090  142.9890 C   0  0  0  0  0  2  0  0  0  0  0  0
  191.7180  178.3390  143.0660 C   0  0  0  0  0  2  0  0  0  0  0  0
  191.6940  176.2060  144.3640 C   0  0  0  0  0  0  0  0  0  0  0  0
  190.6240  178.2150  145.3980 C   0  0  1  0  0  3  0  0  0  0  0  0
  191.7050  177.1220  145.5690 C   0  0  1  0  0  3  0  0  0  0  0  0
  191.6750  174.9930  144.4880 O   0  0  0  0  0  0  0  0  0  0  0  0
  190.6350  178.8800  144.0080 C   0  0  0  0  0  2  0  0  0  0  0  0
  191.6040  176.3840  146.8360 N   0  0  2  0  0  0  0  0  0  0  0  0
  192.3520  176.4810  148.8960 C   0  0  0  0  0  2  0  0  0  0  0  0
  191.8070  177.2550  147.8690 O   0  0  0  0  0  0  0  0  0  0  0  0
  192.6660  175.4570  146.8490 N   0  0  0  0  0  2  0  0  0  0  0  0
  193.1030  175.3880  148.2220 C   0  0  0  0  0  2  0  0  0  0  0  0
  2  1  1  0  0  0  0
  3  2  1  0  0  0  0
  4  3  2  0  0  0  0
  4  5  1  0  0  0  0
  5  1  2  0  0  0  0
  6  7  2  0  0  0  0
  7  4  1  0  0  0  0
  8  7  1  0  0  0  0
  9 19  1  0  0  0  0
  9  8  1  1  0  0  0
 10 12  2  0  0  0  0
 11 13  1  0  0  0  0
 11 12  1  0  0  0  0
 12  9  1  0  0  0  0
 13 14  1  0  0  0  0
 14 17  2  0  0  0  0
 15 16  2  0  0  0  0
 16 17  1  0  0  0  0
 18 13  2  0  0  0  0
 18 15  1  0  0  0  0
 22 19  1  0  0  0  0
 22 21  2  1  0  0  0
 22 20  1  0  0  0  0
 23 22  1  0  0  0  0
 24 25  1  6  0  0  0
 24 23  1  0  0  0  0
 26 27  1  0  0  0  0
 26 24  1  0  0  0  0
 27 30  1  0  0  0  0
 28 27  2  0  0  0  0
 30 29  1  0  0  0  0
 31  3  1  0  0  0  0
 31 32  1  0  0  0  0
 32 38  1  0  0  0  0
 33 34  1  0  0  0  0
 34 37  1  0  0  0  0
 35 39  2  0  0  0  0
 35 37  1  0  0  0  0
 36 40  1  6  0  0  0
 36 41  1  0  0  0  0
 36 33  1  0  0  0  0
 37 42  1  6  0  0  0
 38 35  1  0  0  0  0
 41 38  1  0  0  0  0
 42 43  1  0  0  0  0
 44 45  1  0  0  0  0
 44 46  1  0  0  0  0
 45 50  1  0  0  0  0
 46 49  2  0  0  0  0
 47 48  1  0  0  0  0
 47 43  1  6  0  0  0
 48 46  1  6  0  0  0
 48 51  1  0  0  0  0
 50 47  1  0  0  0  0
 51 54  1  6  0  0  0
 51 53  1  0  0  0  0
 53 52  1  0  0  0  0
 54 55  1  0  0  0  0
 55 52  1  0  0  0  0
M  END
>  <MODEL>
4

>  <REMARK>
 VINA RESULT:      -6.2      3.711     11.039
  Name = 
  19 active torsions:
  status: ('A' for Active; 'I' for Inactive)
    1  A    between atoms: C_1  and  N_28
    2  A    between atoms: N_2  and  C_19
    3  A    between atoms: C_4  and  C_10
    4  A    between atoms: C_4  and  C_36
    5  A    between atoms: C_7  and  C_37
    6  A    between atoms: C_7  and  C_50
    7  A    between atoms: O_9  and  P_29
    8  A    between atoms: O_9  and  C_45
    9  A    between atoms: C_10  and  N_44
   10  A    between atoms: C_12  and  C_39
   11  A    between atoms: C_12  and  C_46
   12  A    between atoms: N_15  and  C_26
   13  A    between atoms: N_15  and  P_29
   14  A    between atoms: C_17  and  N_54
   15  A    between atoms: C_26  and  C_50
   16  A    between atoms: C_38  and  C_42
   17  A    between atoms: C_39  and  C_45
   18  A    between atoms: C_42  and  N_54
   19  A    between atoms: C_43  and  C_45
                            x       y       z     vdW  Elec       q    Type
                         _______ _______ _______ _____ _____    ______ ____

>  <TORSDO>
F 19

$$$$
=
 OpenBabel11062412123D

 55 59  0  0  1  0  0  0  0  0999 V2000
  186.3920  178.6030  139.4270 N   0  0  0  0  0  0  0  0  0  0  0  0
  185.9550  178.4760  138.1550 C   0  0  0  0  0  3  0  0  0  0  0  0
  186.9000  177.7420  137.4620 C   0  0  0  0  0  0  0  0  0  0  0  0
  187.8930  177.4630  138.3730 C   0  0  0  0  0  0  0  0  0  0  0  0
  187.5650  177.9950  139.5610 N   0  0  0  0  0  2  0  0  0  0  0  0
  189.0940  175.5780  137.6110 O   0  0  0  0  0  0  0  0  0  0  0  0
  189.1400  176.7410  138.1020 C   0  0  0  0  0  0  0  0  0  0  0  0
  190.4460  177.4630  138.2580 C   0  0  0  0  0  2  0  0  0  0  0  0
  191.2710  176.9940  139.4570 C   0  0  1  0  0  3  0  0  0  0  0  0
  193.5280  177.6580  139.8540 O   0  0  0  0  0  0  0  0  0  0  0  0
  193.2830  176.1980  138.0690 N   0  0  0  0  0  2  0  0  0  0  0  0
  192.7340  176.9990  139.1250 C   0  0  0  0  0  0  0  0  0  0  0  0
  192.5990  175.4070  137.0850 C   0  0  0  0  0  0  0  0  0  0  0  0
  192.3290  175.9860  135.8400 C   0  0  0  0  0  3  0  0  0  0  0  0
  191.4880  173.3720  136.3590 C   0  0  0  0  0  3  0  0  0  0  0  0
  191.2300  173.9540  135.1130 C   0  0  0  0  0  3  0  0  0  0  0  0
  191.6510  175.2620  134.8560 C   0  0  0  0  0  3  0  0  0  0  0  0
  192.1690  174.0960  137.3400 C   0  0  0  0  0  3  0  0  0  0  0  0
  191.0530  177.8790  140.5230 O   0  0  0  0  0  0  0  0  0  0  0  0
  189.7830  175.6880  141.2660 O   0  0  0  0  0  0  0  0  0  0  0  0
  191.6740  176.5580  142.8530 O   0  0  0  0  0  1  0  0  0  0  0  0
  190.4150  176.9550  141.7950 P   0  0  1  0  0  0  0  0  0  0  0  0
  189.2090  177.8920  142.6610 N   0  0  0  0  0  2  0  0  0  0  0  0
  189.1030  177.3290  143.9950 C   0  0  2  0  0  3  0  0  0  0  0  0
  187.6420  177.2000  144.3690 C   0  0  0  0  0  1  0  0  0  0  0  0
  189.8050  178.2440  144.9880 C   0  0  0  0  0  2  0  0  0  0  0  0
  190.8530  177.4880  145.7450 C   0  0  0  0  0  0  0  0  0  0  0  0
  192.0330  177.7590  145.5870 O   0  0  0  0  0  0  0  0  0  0  0  0
  191.6840  175.9300  147.4820 C   0  0  0  0  0  1  0  0  0  0  0  0
  190.4620  176.4300  146.7280 C   0  0  0  0  0  2  0  0  0  0  0  0
  186.8660  177.3240  136.0240 C   0  0  0  0  0  2  0  0  0  0  0  0
  186.4470  175.8640  135.8320 C   0  0  0  0  0  2  0  0  0  0  0  0
  182.4070  173.8150  136.3170 C   0  0  0  0  0  2  0  0  0  0  0  0
  182.0780  174.9020  135.2860 C   0  0  0  0  0  2  0  0  0  0  0  0
  184.0290  176.4880  135.4080 C   0  0  0  0  0  0  0  0  0  0  0  0
  183.8950  173.5150  136.4120 C   0  0  2  0  0  3  0  0  0  0  0  0
  182.5620  176.3100  135.6710 C   0  0  2  0  0  3  0  0  0  0  0  0
  185.0180  175.6590  136.0500 N   0  0  0  0  0  0  0  0  0  0  0  0
  184.3890  177.3830  134.5940 O   0  0  0  0  0  0  0  0  0  0  0  0
  184.0990  172.2760  137.2590 C   0  0  0  0  0  1  0  0  0  0  0  0
  184.6440  174.6720  137.0570 C   0  0  0  0  0  2  0  0  0  0  0  0
  182.2050  176.7070  137.1010 C   0  0  0  0  0  2  0  0  0  0  0  0
  182.2400  178.1600  137.2520 N   0  0  0  0  0  2  0  0  0  0  0  0
  180.8100  181.4460  136.3720 C   0  0  0  0  0  2  0  0  0  0  0  0
  179.8760  180.4230  135.7160 C   0  0  0  0  0  2  0  0  0  0  0  0
  181.1600  181.0270  137.7700 C   0  0  0  0  0  0  0  0  0  0  0  0
  180.8530  178.5990  137.2560 C   0  0  1  0  0  3  0  0  0  0  0  0
  180.6230  179.7160  138.3020 C   0  0  1  0  0  3  0  0  0  0  0  0
  181.8900  181.7350  138.4440 O   0  0  0  0  0  0  0  0  0  0  0  0
  180.4420  179.0020  135.8270 C   0  0  0  0  0  2  0  0  0  0  0  0
  181.1500  179.3920  139.6360 N   0  0  2  0  0  0  0  0  0  0  0  0
  180.7380  178.0480  141.3190 C   0  0  0  0  0  2  0  0  0  0  0  0
  180.8410  178.0940  139.9270 O   0  0  0  0  0  0  0  0  0  0  0  0
  180.4550  180.2080  140.5520 N   0  0  0  0  0  2  0  0  0  0  0  0
  180.2810  179.4010  141.7350 C   0  0  0  0  0  2  0  0  0  0  0  0
  1  5  1  0  0  0  0
  2  1  2  0  0  0  0
  3  2  1  0  0  0  0
  3  4  2  0  0  0  0
  4  5  1  0  0  0  0
  6  7  2  0  0  0  0
  7  8  1  0  0  0  0
  7  4  1  0  0  0  0
  9  8  1  6  0  0  0
  9 19  1  0  0  0  0
 11 12  1  0  0  0  0
 12  9  1  0  0  0  0
 12 10  2  0  0  0  0
 13 18  1  0  0  0  0
 13 11  1  0  0  0  0
 14 13  2  0  0  0  0
 15 18  2  0  0  0  0
 16 15  1  0  0  0  0
 17 16  2  0  0  0  0
 17 14  1  0  0  0  0
 19 22  1  0  0  0  0
 22 20  2  6  0  0  0
 22 23  1  0  0  0  0
 22 21  1  0  0  0  0
 23 24  1  0  0  0  0
 24 25  1  1  0  0  0
 24 26  1  0  0  0  0
 26 27  1  0  0  0  0
 27 30  1  0  0  0  0
 28 27  2  0  0  0  0
 30 29  1  0  0  0  0
 31  3  1  0  0  0  0
 32 31  1  0  0  0  0
 32 38  1  0  0  0  0
 33 36  1  0  0  0  0
 34 37  1  0  0  0  0
 34 33  1  0  0  0  0
 35 37  1  0  0  0  0
 35 38  1  0  0  0  0
 36 41  1  0  0  0  0
 36 40  1  1  0  0  0
 37 42  1  1  0  0  0
 38 41  1  0  0  0  0
 39 35  2  0  0  0  0
 42 43  1  0  0  0  0
 44 46  1  0  0  0  0
 45 50  1  0  0  0  0
 45 44  1  0  0  0  0
 46 49  2  0  0  0  0
 47 43  1  6  0  0  0
 47 48  1  0  0  0  0
 48 46  1  6  0  0  0
 48 51  1  0  0  0  0
 50 47  1  0  0  0  0
 51 53  1  1  0  0  0
 51 54  1  0  0  0  0
 52 55  1  0  0  0  0
 53 52  1  0  0  0  0
 54 55  1  0  0  0  0
M  END
>  <MODEL>
5

>  <REMARK>
 VINA RESULT:      -6.0      1.191      2.225
  Name = 
  19 active torsions:
  status: ('A' for Active; 'I' for Inactive)
    1  A    between atoms: C_1  and  N_28
    2  A    between atoms: N_2  and  C_19
    3  A    between atoms: C_4  and  C_10
    4  A    between atoms: C_4  and  C_36
    5  A    between atoms: C_7  and  C_37
    6  A    between atoms: C_7  and  C_50
    7  A    between atoms: O_9  and  P_29
    8  A    between atoms: O_9  and  C_45
    9  A    between atoms: C_10  and  N_44
   10  A    between atoms: C_12  and  C_39
   11  A    between atoms: C_12  and  C_46
   12  A    between atoms: N_15  and  C_26
   13  A    between atoms: N_15  and  P_29
   14  A    between atoms: C_17  and  N_54
   15  A    between atoms: C_26  and  C_50
   16  A    between atoms: C_38  and  C_42
   17  A    between atoms: C_39  and  C_45
   18  A    between atoms: C_42  and  N_54
   19  A    between atoms: C_43  and  C_45
                            x       y       z     vdW  Elec       q    Type
                         _______ _______ _______ _____ _____    ______ ____

>  <TORSDO>
F 19

$$$$
=
 OpenBabel11062412123D

 55 59  0  0  1  0  0  0  0  0999 V2000
  180.8150  179.0870  142.8600 N   0  0  0  0  0  0  0  0  0  0  0  0
  182.1620  179.1940  142.8130 C   0  0  0  0  0  2  0  0  0  0  0  0
  182.5870  178.5830  141.6470 C   0  0  0  0  0  0  0  0  0  0  0  0
  181.4450  178.1170  141.0370 C   0  0  0  0  0  0  0  0  0  0  0  0
  180.3800  178.4350  141.7890 N   0  0  0  0  0  0  0  0  0  0  0  0
  181.2110  176.1030  139.8250 O   0  0  0  0  0  0  0  0  0  0  0  0
  181.3800  177.3540  139.7850 C   0  0  0  0  0  0  0  0  0  0  0  0
  181.3470  178.0980  138.4830 C   0  0  0  0  0  2  0  0  0  0  0  0
  181.5530  177.2050  137.2580 C   0  0  1  0  0  3  0  0  0  0  0  0
  179.7700  175.8810  136.3860 O   0  0  0  0  0  0  0  0  0  0  0  0
  179.5210  178.1540  136.0020 N   0  0  0  0  0  2  0  0  0  0  0  0
  180.2660  177.0370  136.5060 C   0  0  0  0  0  0  0  0  0  0  0  0
  179.8830  179.5430  135.9720 C   0  0  0  0  0  0  0  0  0  0  0  0
  180.4270  180.0610  134.7920 C   0  0  0  0  0  3  0  0  0  0  0  0
  180.1280  181.7220  137.0180 C   0  0  0  0  0  3  0  0  0  0  0  0
  180.6620  182.2360  135.8310 C   0  0  0  0  0  3  0  0  0  0  0  0
  180.8120  181.4030  134.7180 C   0  0  0  0  0  3  0  0  0  0  0  0
  179.7420  180.3820  137.0880 C   0  0  0  0  0  3  0  0  0  0  0  0
  182.4890  177.8170  136.4120 O   0  0  0  0  0  0  0  0  0  0  0  0
  184.1350  176.0800  137.5230 O   0  0  0  0  0  1  0  0  0  0  0  0
  183.2310  175.4960  135.1370 O   0  0  0  0  0  0  0  0  0  0  0  0
  183.7520  176.7050  136.2010 P   0  0  1  0  0  0  0  0  0  0  0  0
  185.1480  177.5160  135.5110 N   0  0  0  0  0  2  0  0  0  0  0  0
  186.2760  177.2470  136.3850 C   0  0  2  0  0  3  0  0  0  0  0  0
  187.0240  178.5370  136.6450 C   0  0  0  0  0  1  0  0  0  0  0  0
  187.2040  176.2430  135.7190 C   0  0  0  0  0  2  0  0  0  0  0  0
  187.9500  175.4550  136.7510 C   0  0  0  0  0  0  0  0  0  0  0  0
  187.3540  174.6530  137.4520 O   0  0  0  0  0  0  0  0  0  0  0  0
  189.9810  176.5090  135.8030 C   0  0  0  0  0  1  0  0  0  0  0  0
  189.4300  175.6120  136.9010 C   0  0  0  0  0  2  0  0  0  0  0  0
  183.9890  178.4500  141.1370 C   0  0  0  0  0  2  0  0  0  0  0  0
  184.9760  179.3820  141.8450 C   0  0  0  0  0  2  0  0  0  0  0  0
  188.6870  176.7510  142.0930 C   0  0  0  0  0  2  0  0  0  0  0  0
  187.8310  176.1820  143.2310 C   0  0  0  0  0  2  0  0  0  0  0  0
  186.0620  177.9310  143.6140 C   0  0  0  0  0  0  0  0  0  0  0  0
  187.8800  177.5490  141.0820 C   0  0  2  0  0  3  0  0  0  0  0  0
  187.2640  177.2420  144.1900 C   0  0  2  0  0  3  0  0  0  0  0  0
  186.1340  178.6700  142.3790 N   0  0  0  0  0  0  0  0  0  0  0  0
  184.9660  177.8430  144.2330 O   0  0  0  0  0  0  0  0  0  0  0  0
  188.7500  177.8560  139.8800 C   0  0  0  0  0  1  0  0  0  0  0  0
  187.4000  178.8630  141.6820 C   0  0  0  0  0  2  0  0  0  0  0  0
  188.3050  178.2530  144.6650 C   0  0  0  0  0  2  0  0  0  0  0  0
  189.2090  177.6390  145.6360 N   0  0  0  0  0  2  0  0  0  0  0  0
  191.6810  176.9400  142.9860 C   0  0  0  0  0  2  0  0  0  0  0  0
  191.6480  178.4680  143.1000 C   0  0  0  0  0  2  0  0  0  0  0  0
  191.7010  176.3050  144.3460 C   0  0  0  0  0  0  0  0  0  0  0  0
  190.5150  178.2350  145.4050 C   0  0  1  0  0  3  0  0  0  0  0  0
  191.6440  177.1910  145.5720 C   0  0  1  0  0  3  0  0  0  0  0  0
  191.7380  175.0900  144.4410 O   0  0  0  0  0  0  0  0  0  0  0  0
  190.5220  178.9330  144.0320 C   0  0  0  0  0  2  0  0  0  0  0  0
  191.5530  176.4180  146.8200 N   0  0  2  0  0  0  0  0  0  0  0  0
  192.4220  176.3780  148.8330 C   0  0  0  0  0  2  0  0  0  0  0  0
  191.8860  177.2300  147.8660 O   0  0  0  0  0  0  0  0  0  0  0  0
  192.5330  175.4070  146.7400 N   0  0  0  0  0  2  0  0  0  0  0  0
  193.0400  175.2530  148.0820 C   0  0  0  0  0  2  0  0  0  0  0  0
  2  1  1  0  0  0  0
  3  2  1  0  0  0  0
  4  3  2  0  0  0  0
  4  5  1  0  0  0  0
  5  1  2  0  0  0  0
  7  6  2  0  0  0  0
  7  4  1  0  0  0  0
  8  7  1  0  0  0  0
  9  8  1  1  0  0  0
 10 12  2  0  0  0  0
 11 12  1  0  0  0  0
 12  9  1  0  0  0  0
 13 11  1  0  0  0  0
 13 18  1  0  0  0  0
 14 13  2  0  0  0  0
 15 18  2  0  0  0  0
 16 15  1  0  0  0  0
 17 14  1  0  0  0  0
 17 16  2  0  0  0  0
 19  9  1  0  0  0  0
 22 21  2  6  0  0  0
 22 19  1  0  0  0  0
 22 20  1  0  0  0  0
 23 22  1  0  0  0  0
 23 24  1  0  0  0  0
 24 25  1  6  0  0  0
 26 24  1  0  0  0  0
 26 27  1  0  0  0  0
 27 30  1  0  0  0  0
 27 28  2  0  0  0  0
 29 30  1  0  0  0  0
 31  3  1  0  0  0  0
 31 32  1  0  0  0  0
 32 38  1  0  0  0  0
 33 34  1  0  0  0  0
 34 37  1  0  0  0  0
 35 37  1  0  0  0  0
 35 39  2  0  0  0  0
 36 40  1  6  0  0  0
 36 41  1  0  0  0  0
 36 33  1  0  0  0  0
 37 42  1  6  0  0  0
 38 35  1  0  0  0  0
 41 38  1  0  0  0  0
 42 43  1  0  0  0  0
 44 45  1  0  0  0  0
 44 46  1  0  0  0  0
 45 50  1  0  0  0  0
 46 49  2  0  0  0  0
 47 48  1  0  0  0  0
 47 43  1  6  0  0  0
 48 46  1  6  0  0  0
 48 51  1  0  0  0  0
 50 47  1  0  0  0  0
 51 54  1  6  0  0  0
 51 53  1  0  0  0  0
 53 52  1  0  0  0  0
 54 55  1  0  0  0  0
 55 52  1  0  0  0  0
M  END
>  <MODEL>
6

>  <REMARK>
 VINA RESULT:      -5.9      3.215     10.711
  Name = 
  19 active torsions:
  status: ('A' for Active; 'I' for Inactive)
    1  A    between atoms: C_1  and  N_28
    2  A    between atoms: N_2  and  C_19
    3  A    between atoms: C_4  and  C_10
    4  A    between atoms: C_4  and  C_36
    5  A    between atoms: C_7  and  C_37
    6  A    between atoms: C_7  and  C_50
    7  A    between atoms: O_9  and  P_29
    8  A    between atoms: O_9  and  C_45
    9  A    between atoms: C_10  and  N_44
   10  A    between atoms: C_12  and  C_39
   11  A    between atoms: C_12  and  C_46
   12  A    between atoms: N_15  and  C_26
   13  A    between atoms: N_15  and  P_29
   14  A    between atoms: C_17  and  N_54
   15  A    between atoms: C_26  and  C_50
   16  A    between atoms: C_38  and  C_42
   17  A    between atoms: C_39  and  C_45
   18  A    between atoms: C_42  and  N_54
   19  A    between atoms: C_43  and  C_45
                            x       y       z     vdW  Elec       q    Type
                         _______ _______ _______ _____ _____    ______ ____

>  <TORSDO>
F 19

$$$$
=
 OpenBabel11062412123D

 55 59  0  0  1  0  0  0  0  0999 V2000
  192.9540  176.9340  139.1860 N   0  0  0  0  0  0  0  0  0  0  0  0
  192.2030  176.2670  138.2820 C   0  0  0  0  0  3  0  0  0  0  0  0
  190.8820  176.3800  138.6750 C   0  0  0  0  0  0  0  0  0  0  0  0
  190.9030  177.1220  139.8330 C   0  0  0  0  0  0  0  0  0  0  0  0
  192.1720  177.4500  140.1260 N   0  0  0  0  0  2  0  0  0  0  0  0
  188.8680  178.2650  140.1990 O   0  0  0  0  0  0  0  0  0  0  0  0
  189.7430  177.4760  140.6580 C   0  0  0  0  0  0  0  0  0  0  0  0
  189.5340  176.7630  141.9610 C   0  0  0  0  0  2  0  0  0  0  0  0
  189.3550  177.7010  143.1550 C   0  0  1  0  0  3  0  0  0  0  0  0
  190.7180  179.6120  142.7270 O   0  0  0  0  0  0  0  0  0  0  0  0
  191.5830  178.1890  144.3410 N   0  0  0  0  0  2  0  0  0  0  0  0
  190.5890  178.5290  143.3650 C   0  0  0  0  0  0  0  0  0  0  0  0
  191.6880  177.0080  145.1500 C   0  0  0  0  0  0  0  0  0  0  0  0
  191.4470  177.1220  146.5240 C   0  0  0  0  0  3  0  0  0  0  0  0
  192.1600  174.6430  145.4500 C   0  0  0  0  0  3  0  0  0  0  0  0
  191.9090  174.7630  146.8200 C   0  0  0  0  0  3  0  0  0  0  0  0
  191.5530  176.0050  147.3570 C   0  0  0  0  0  3  0  0  0  0  0  0
  192.0510  175.7610  144.6190 C   0  0  0  0  0  3  0  0  0  0  0  0
  188.2800  178.5620  142.8890 O   0  0  0  0  0  0  0  0  0  0  0  0
  185.9040  177.5040  142.4420 O   0  0  0  0  0  0  0  0  0  0  0  0
  187.3630  176.3940  144.3100 O   0  0  0  0  0  1  0  0  0  0  0  0
  186.8970  177.8240  143.5370 P   0  0  1  0  0  0  0  0  0  0  0  0
  186.1470  178.8950  144.7100 N   0  0  0  0  0  2  0  0  0  0  0  0
  184.8280  178.3630  144.9960 C   0  0  2  0  0  3  0  0  0  0  0  0
  183.7860  179.2070  144.2930 C   0  0  0  0  0  1  0  0  0  0  0  0
  184.5830  178.3960  146.4970 C   0  0  0  0  0  2  0  0  0  0  0  0
  185.8530  178.7030  147.2280 C   0  0  0  0  0  0  0  0  0  0  0  0
  186.0470  179.8250  147.6680 O   0  0  0  0  0  0  0  0  0  0  0  0
  188.1870  178.2410  147.9170 C   0  0  0  0  0  1  0  0  0  0  0  0
  186.8710  177.6310  147.4620 C   0  0  0  0  0  2  0  0  0  0  0  0
  189.6690  175.8240  137.9930 C   0  0  0  0  0  2  0  0  0  0  0  0
  189.0260  176.8090  137.0140 C   0  0  0  0  0  2  0  0  0  0  0  0
  185.0190  174.8170  136.1570 C   0  0  0  0  0  2  0  0  0  0  0  0
  184.8920  176.1180  135.3560 C   0  0  0  0  0  2  0  0  0  0  0  0
  186.7390  177.5800  136.2440 C   0  0  0  0  0  0  0  0  0  0  0  0
  186.4590  174.4620  136.4930 C   0  0  2  0  0  3  0  0  0  0  0  0
  185.2540  177.3880  136.1450 C   0  0  2  0  0  3  0  0  0  0  0  0
  187.5870  176.5990  136.8730 N   0  0  0  0  0  0  0  0  0  0  0  0
  187.2430  178.6260  135.7510 O   0  0  0  0  0  0  0  0  0  0  0  0
  186.5060  173.0570  137.0580 C   0  0  0  0  0  1  0  0  0  0  0  0
  187.0300  175.4200  137.5270 C   0  0  0  0  0  2  0  0  0  0  0  0
  184.5940  177.4590  137.5200 C   0  0  0  0  0  2  0  0  0  0  0  0
  183.1390  177.4690  137.3890 N   0  0  0  0  0  2  0  0  0  0  0  0
  180.1170  175.8700  138.7790 C   0  0  0  0  0  2  0  0  0  0  0  0
  181.2070  175.6310  139.8300 C   0  0  0  0  0  2  0  0  0  0  0  0
  180.1670  177.2820  138.2740 C   0  0  0  0  0  0  0  0  0  0  0  0
  182.6120  177.5010  138.7450 C   0  0  1  0  0  3  0  0  0  0  0  0
  181.2400  178.2140  138.7950 C   0  0  1  0  0  3  0  0  0  0  0  0
  179.3590  177.6480  137.4360 O   0  0  0  0  0  0  0  0  0  0  0  0
  182.5830  176.0700  139.3150 C   0  0  0  0  0  2  0  0  0  0  0  0
  181.2280  179.5190  138.1190 N   0  0  2  0  0  0  0  0  0  0  0  0
  181.9370  181.5720  138.4260 C   0  0  0  0  0  2  0  0  0  0  0  0
  182.3210  180.2330  138.5200 O   0  0  0  0  0  0  0  0  0  0  0  0
  180.0840  180.2020  138.5810 N   0  0  0  0  0  2  0  0  0  0  0  0
  180.4700  181.5890  138.6690 C   0  0  0  0  0  2  0  0  0  0  0  0
  1  5  1  0  0  0  0
  2  3  1  0  0  0  0
  2  1  2  0  0  0  0
  3  4  2  0  0  0  0
  4  5  1  0  0  0  0
  4  7  1  0  0  0  0
  6  7  2  0  0  0  0
  7  8  1  0  0  0  0
  9  8  1  6  0  0  0
  9 12  1  0  0  0  0
 10 12  2  0  0  0  0
 11 13  1  0  0  0  0
 12 11  1  0  0  0  0
 13 14  1  0  0  0  0
 14 17  2  0  0  0  0
 15 16  2  0  0  0  0
 16 17  1  0  0  0  0
 18 13  2  0  0  0  0
 18 15  1  0  0  0  0
 19  9  1  0  0  0  0
 19 22  1  0  0  0  0
 22 20  2  6  0  0  0
 22 21  1  0  0  0  0
 22 23  1  0  0  0  0
 23 24  1  0  0  0  0
 24 25  1  6  0  0  0
 24 26  1  0  0  0  0
 26 27  1  0  0  0  0
 27 30  1  0  0  0  0
 27 28  2  0  0  0  0
 30 29  1  0  0  0  0
 31  3  1  0  0  0  0
 32 31  1  0  0  0  0
 33 36  1  0  0  0  0
 34 37  1  0  0  0  0
 34 33  1  0  0  0  0
 35 38  1  0  0  0  0
 36 40  1  1  0  0  0
 36 41  1  0  0  0  0
 37 35  1  0  0  0  0
 37 42  1  1  0  0  0
 38 32  1  0  0  0  0
 38 41  1  0  0  0  0
 39 35  2  0  0  0  0
 43 42  1  0  0  0  0
 44 45  1  0  0  0  0
 46 44  1  0  0  0  0
 47 43  1  6  0  0  0
 47 48  1  0  0  0  0
 47 50  1  0  0  0  0
 48 46  1  6  0  0  0
 49 46  2  0  0  0  0
 50 45  1  0  0  0  0
 51 53  1  1  0  0  0
 51 54  1  0  0  0  0
 51 48  1  0  0  0  0
 52 53  1  0  0  0  0
 52 55  1  0  0  0  0
 54 55  1  0  0  0  0
M  END
>  <MODEL>
7

>  <REMARK>
 VINA RESULT:      -5.8      2.482      5.018
  Name = 
  19 active torsions:
  status: ('A' for Active; 'I' for Inactive)
    1  A    between atoms: C_1  and  N_28
    2  A    between atoms: N_2  and  C_19
    3  A    between atoms: C_4  and  C_10
    4  A    between atoms: C_4  and  C_36
    5  A    between atoms: C_7  and  C_37
    6  A    between atoms: C_7  and  C_50
    7  A    between atoms: O_9  and  P_29
    8  A    between atoms: O_9  and  C_45
    9  A    between atoms: C_10  and  N_44
   10  A    between atoms: C_12  and  C_39
   11  A    between atoms: C_12  and  C_46
   12  A    between atoms: N_15  and  C_26
   13  A    between atoms: N_15  and  P_29
   14  A    between atoms: C_17  and  N_54
   15  A    between atoms: C_26  and  C_50
   16  A    between atoms: C_38  and  C_42
   17  A    between atoms: C_39  and  C_45
   18  A    between atoms: C_42  and  N_54
   19  A    between atoms: C_43  and  C_45
                            x       y       z     vdW  Elec       q    Type
                         _______ _______ _______ _____ _____    ______ ____

>  <TORSDO>
F 19

$$$$
=
 OpenBabel11062412123D

 55 59  0  0  1  0  0  0  0  0999 V2000
  182.4980  177.2790  136.4280 N   0  0  0  0  0  0  0  0  0  0  0  0
  182.8440  177.6030  137.6940 C   0  0  0  0  0  2  0  0  0  0  0  0
  184.2220  177.7100  137.7330 C   0  0  0  0  0  0  0  0  0  0  0  0
  184.6520  177.4290  136.4570 C   0  0  0  0  0  0  0  0  0  0  0  0
  183.5890  177.1700  135.6790 N   0  0  0  0  0  0  0  0  0  0  0  0
  186.8260  178.3310  136.2610 O   0  0  0  0  0  0  0  0  0  0  0  0
  186.0460  177.3710  136.0030 C   0  0  0  0  0  0  0  0  0  0  0  0
  186.5580  176.1010  135.3910 C   0  0  0  0  0  2  0  0  0  0  0  0
  187.8610  175.5990  136.0140 C   0  0  1  0  0  3  0  0  0  0  0  0
  189.4580  174.4360  134.6750 O   0  0  0  0  0  0  0  0  0  0  0  0
  187.6750  173.1200  135.3600 N   0  0  0  0  0  2  0  0  0  0  0  0
  188.3560  174.3810  135.2920 C   0  0  0  0  0  0  0  0  0  0  0  0
  186.4040  172.8100  135.9500 C   0  0  0  0  0  0  0  0  0  0  0  0
  186.1940  173.1540  137.2910 C   0  0  0  0  0  3  0  0  0  0  0  0
  184.1720  171.8540  135.8670 C   0  0  0  0  0  3  0  0  0  0  0  0
  183.9670  172.2090  137.2050 C   0  0  0  0  0  3  0  0  0  0  0  0
  184.9810  172.8580  137.9160 C   0  0  0  0  0  3  0  0  0  0  0  0
  185.3860  172.1530  135.2440 C   0  0  0  0  0  3  0  0  0  0  0  0
  188.8280  176.6080  135.9000 O   0  0  0  0  0  0  0  0  0  0  0  0
  189.1340  177.5940  138.3290 O   0  0  0  0  0  1  0  0  0  0  0  0
  189.6360  175.0440  138.0130 O   0  0  0  0  0  0  0  0  0  0  0  0
  189.7120  176.5980  137.3480 P   0  0  1  0  0  0  0  0  0  0  0  0
  191.3890  177.0040  137.0230 N   0  0  0  0  0  2  0  0  0  0  0  0
  192.2060  176.2060  137.9190 C   0  0  2  0  0  3  0  0  0  0  0  0
  192.1050  176.7680  139.3210 C   0  0  0  0  0  1  0  0  0  0  0  0
  193.6540  176.2460  137.4550 C   0  0  0  0  0  2  0  0  0  0  0  0
  194.4130  175.0770  138.0040 C   0  0  0  0  0  0  0  0  0  0  0  0
  195.2960  175.2580  138.8280 O   0  0  0  0  0  0  0  0  0  0  0  0
  195.0700  172.6950  138.1540 C   0  0  0  0  0  1  0  0  0  0  0  0
  194.0670  173.6840  137.5830 C   0  0  0  0  0  2  0  0  0  0  0  0
  185.0840  178.0630  138.9070 C   0  0  0  0  0  2  0  0  0  0  0  0
  184.3890  178.9950  139.9030 C   0  0  0  0  0  2  0  0  0  0  0  0
  184.3060  178.8430  144.4560 C   0  0  0  0  0  2  0  0  0  0  0  0
  185.7040  179.4180  144.1930 C   0  0  0  0  0  2  0  0  0  0  0  0
  186.1190  178.9580  141.7540 C   0  0  0  0  0  0  0  0  0  0  0  0
  183.3680  178.9930  143.2690 C   0  0  2  0  0  3  0  0  0  0  0  0
  186.5290  178.6340  143.1600 C   0  0  2  0  0  3  0  0  0  0  0  0
  184.7760  178.7250  141.2860 N   0  0  0  0  0  0  0  0  0  0  0  0
  186.9790  179.4580  140.9770 O   0  0  0  0  0  0  0  0  0  0  0  0
  181.9610  178.6310  143.6980 C   0  0  0  0  0  1  0  0  0  0  0  0
  183.7800  178.0740  142.1280 C   0  0  0  0  0  2  0  0  0  0  0  0
  186.5320  177.1260  143.4000 C   0  0  0  0  0  2  0  0  0  0  0  0
  187.8790  176.6620  143.7230 N   0  0  0  0  0  2  0  0  0  0  0  0
  191.5480  177.0680  143.6970 C   0  0  0  0  0  2  0  0  0  0  0  0
  191.0140  178.2620  142.8990 C   0  0  0  0  0  2  0  0  0  0  0  0
  190.7320  176.8510  144.9390 C   0  0  0  0  0  0  0  0  0  0  0  0
  188.6820  177.8590  143.9230 C   0  0  1  0  0  3  0  0  0  0  0  0
  189.5420  177.7480  145.2040 C   0  0  1  0  0  3  0  0  0  0  0  0
  191.0260  175.9440  145.6990 O   0  0  0  0  0  0  0  0  0  0  0  0
  189.5060  178.1380  142.6510 C   0  0  0  0  0  2  0  0  0  0  0  0
  188.7810  177.3350  146.3920 N   0  0  2  0  0  0  0  0  0  0  0  0
  187.1670  178.0660  147.6850 C   0  0  0  0  0  2  0  0  0  0  0  0
  187.5480  177.9210  146.3490 O   0  0  0  0  0  0  0  0  0  0  0  0
  189.4610  177.8620  147.5090 N   0  0  0  0  0  2  0  0  0  0  0  0
  188.4320  178.2340  148.4490 C   0  0  0  0  0  2  0  0  0  0  0  0
  1  2  1  0  0  0  0
  2  3  1  0  0  0  0
  3 31  1  0  0  0  0
  4  3  2  0  0  0  0
  5  1  2  0  0  0  0
  5  4  1  0  0  0  0
  7  6  2  0  0  0  0
  7  4  1  0  0  0  0
  8  7  1  0  0  0  0
  9  8  1  6  0  0  0
 10 12  2  0  0  0  0
 11 13  1  0  0  0  0
 12 11  1  0  0  0  0
 12  9  1  0  0  0  0
 13 14  1  0  0  0  0
 14 17  2  0  0  0  0
 15 16  2  0  0  0  0
 16 17  1  0  0  0  0
 18 15  1  0  0  0  0
 18 13  2  0  0  0  0
 19  9  1  0  0  0  0
 19 22  1  0  0  0  0
 22 21  2  1  0  0  0
 22 20  1  0  0  0  0
 23 22  1  0  0  0  0
 23 24  1  0  0  0  0
 24 25  1  1  0  0  0
 26 24  1  0  0  0  0
 26 27  1  0  0  0  0
 27 28  2  0  0  0  0
 30 27  1  0  0  0  0
 30 29  1  0  0  0  0
 31 32  1  0  0  0  0
 32 38  1  0  0  0  0
 34 33  1  0  0  0  0
 35 37  1  0  0  0  0
 36 40  1  1  0  0  0
 36 33  1  0  0  0  0
 37 42  1  1  0  0  0
 37 34  1  0  0  0  0
 38 35  1  0  0  0  0
 38 41  1  0  0  0  0
 39 35  2  0  0  0  0
 41 36  1  0  0  0  0
 42 43  1  0  0  0  0
 44 46  1  0  0  0  0
 45 44  1  0  0  0  0
 46 49  2  0  0  0  0
 47 43  1  6  0  0  0
 47 48  1  0  0  0  0
 48 46  1  6  0  0  0
 48 51  1  0  0  0  0
 50 45  1  0  0  0  0
 50 47  1  0  0  0  0
 51 53  1  6  0  0  0
 51 54  1  0  0  0  0
 52 55  1  0  0  0  0
 53 52  1  0  0  0  0
 54 55  1  0  0  0  0
M  END
>  <MODEL>
8

>  <REMARK>
 VINA RESULT:      -5.8      2.781      8.083
  Name = 
  19 active torsions:
  status: ('A' for Active; 'I' for Inactive)
    1  A    between atoms: C_1  and  N_28
    2  A    between atoms: N_2  and  C_19
    3  A    between atoms: C_4  and  C_10
    4  A    between atoms: C_4  and  C_36
    5  A    between atoms: C_7  and  C_37
    6  A    between atoms: C_7  and  C_50
    7  A    between atoms: O_9  and  P_29
    8  A    between atoms: O_9  and  C_45
    9  A    between atoms: C_10  and  N_44
   10  A    between atoms: C_12  and  C_39
   11  A    between atoms: C_12  and  C_46
   12  A    between atoms: N_15  and  C_26
   13  A    between atoms: N_15  and  P_29
   14  A    between atoms: C_17  and  N_54
   15  A    between atoms: C_26  and  C_50
   16  A    between atoms: C_38  and  C_42
   17  A    between atoms: C_39  and  C_45
   18  A    between atoms: C_42  and  N_54
   19  A    between atoms: C_43  and  C_45
                            x       y       z     vdW  Elec       q    Type
                         _______ _______ _______ _____ _____    ______ ____

>  <TORSDO>
F 19

$$$$
=
 OpenBabel11062412123D

 55 59  0  0  1  0  0  0  0  0999 V2000
  185.7640  176.0030  136.5850 N   0  0  0  0  0  0  0  0  0  0  0  0
  186.8040  176.6960  137.0980 C   0  0  0  0  0  2  0  0  0  0  0  0
  186.2870  177.6380  137.9690 C   0  0  0  0  0  0  0  0  0  0  0  0
  184.9230  177.4680  137.9300 C   0  0  0  0  0  0  0  0  0  0  0  0
  184.6250  176.4690  137.0840 N   0  0  0  0  0  0  0  0  0  0  0  0
  183.7580  179.4800  138.3480 O   0  0  0  0  0  0  0  0  0  0  0  0
  183.9280  178.2660  138.6550 C   0  0  0  0  0  0  0  0  0  0  0  0
  183.0160  177.5790  139.6290 C   0  0  0  0  0  2  0  0  0  0  0  0
  181.5650  177.4890  139.1550 C   0  0  1  0  0  3  0  0  0  0  0  0
  180.6640  179.3780  138.0090 O   0  0  0  0  0  0  0  0  0  0  0  0
  180.5320  179.5360  140.3190 N   0  0  0  0  0  2  0  0  0  0  0  0
  180.9350  178.8510  139.1250 C   0  0  0  0  0  0  0  0  0  0  0  0
  180.7620  179.1750  141.6880 C   0  0  0  0  0  0  0  0  0  0  0  0
  182.0410  179.3710  142.2210 C   0  0  0  0  0  3  0  0  0  0  0  0
  180.0400  178.2530  143.8180 C   0  0  0  0  0  3  0  0  0  0  0  0
  181.3180  178.4610  144.3450 C   0  0  0  0  0  3  0  0  0  0  0  0
  182.3190  179.0200  143.5440 C   0  0  0  0  0  3  0  0  0  0  0  0
  179.7630  178.6080  142.4950 C   0  0  0  0  0  3  0  0  0  0  0  0
  181.5510  176.9620  137.8560 O   0  0  0  0  0  0  0  0  0  0  0  0
  181.0820  174.5680  138.8620 O   0  0  0  0  0  1  0  0  0  0  0  0
  179.0010  176.0860  138.3990 O   0  0  0  0  0  0  0  0  0  0  0  0
  180.5420  175.5990  137.8970 P   0  0  1  0  0  0  0  0  0  0  0  0
  180.4290  174.8950  136.2920 N   0  0  0  0  0  2  0  0  0  0  0  0
  181.7820  174.7780  135.7790 C   0  0  2  0  0  3  0  0  0  0  0  0
  182.0040  175.8310  134.7140 C   0  0  0  0  0  1  0  0  0  0  0  0
  181.9780  173.3940  135.1780 C   0  0  0  0  0  2  0  0  0  0  0  0
  182.4400  172.4300  136.2260 C   0  0  0  0  0  0  0  0  0  0  0  0
  181.6260  171.8860  136.9550 O   0  0  0  0  0  0  0  0  0  0  0  0
  184.5090  172.8600  137.5180 C   0  0  0  0  0  1  0  0  0  0  0  0
  183.8920  172.0940  136.3590 C   0  0  0  0  0  2  0  0  0  0  0  0
  187.0380  178.6370  138.7940 C   0  0  0  0  0  2  0  0  0  0  0  0
  186.6630  178.5950  140.2780 C   0  0  0  0  0  2  0  0  0  0  0  0
  190.4120  176.3930  141.6380 C   0  0  0  0  0  2  0  0  0  0  0  0
  189.4170  176.0150  142.7420 C   0  0  0  0  0  2  0  0  0  0  0  0
  187.5280  177.6550  142.4650 C   0  0  0  0  0  0  0  0  0  0  0  0
  189.7360  176.8850  140.3690 C   0  0  2  0  0  3  0  0  0  0  0  0
  188.6570  177.2070  143.3460 C   0  0  2  0  0  3  0  0  0  0  0  0
  187.7560  178.1130  141.1180 N   0  0  0  0  0  0  0  0  0  0  0  0
  186.3530  177.6120  142.9260 O   0  0  0  0  0  0  0  0  0  0  0  0
  190.7680  176.9950  139.2650 C   0  0  0  0  0  1  0  0  0  0  0  0
  189.1050  178.2530  140.5820 C   0  0  0  0  0  2  0  0  0  0  0  0
  189.5600  178.3780  143.7240 C   0  0  0  0  0  2  0  0  0  0  0  0
  189.4270  178.6910  145.1450 N   0  0  0  0  0  2  0  0  0  0  0  0
  187.7690  178.3920  148.4290 C   0  0  0  0  0  2  0  0  0  0  0  0
  186.8300  177.6800  147.4480 C   0  0  0  0  0  2  0  0  0  0  0  0
  189.1970  178.0120  148.1680 C   0  0  0  0  0  0  0  0  0  0  0  0
  188.7660  177.5440  145.7500 C   0  0  1  0  0  3  0  0  0  0  0  0
  189.5130  177.0750  147.0210 C   0  0  1  0  0  3  0  0  0  0  0  0
  190.0800  178.4810  148.8660 O   0  0  0  0  0  0  0  0  0  0  0  0
  187.2830  177.8820  145.9970 C   0  0  0  0  0  2  0  0  0  0  0  0
  190.9590  176.8950  146.8240 N   0  0  2  0  0  0  0  0  0  0  0  0
  192.3710  175.4040  146.0560 C   0  0  0  0  0  2  0  0  0  0  0  0
  191.1560  176.0340  145.7830 O   0  0  0  0  0  0  0  0  0  0  0  0
  191.4490  176.2700  147.9890 N   0  0  0  0  0  2  0  0  0  0  0  0
  192.4840  175.3710  147.5390 C   0  0  0  0  0  2  0  0  0  0  0  0
  1  5  2  0  0  0  0
  1  2  1  0  0  0  0
  2  3  1  0  0  0  0
  3 31  1  0  0  0  0
  4  3  2  0  0  0  0
  4  7  1  0  0  0  0
  5  4  1  0  0  0  0
  6  7  2  0  0  0  0
  7  8  1  0  0  0  0
  9  8  1  6  0  0  0
 10 12  2  0  0  0  0
 11 13  1  0  0  0  0
 12  9  1  0  0  0  0
 12 11  1  0  0  0  0
 13 14  2  0  0  0  0
 13 18  1  0  0  0  0
 14 17  1  0  0  0  0
 15 16  1  0  0  0  0
 17 16  2  0  0  0  0
 18 15  2  0  0  0  0
 19 22  1  0  0  0  0
 19  9  1  0  0  0  0
 22 21  2  1  0  0  0
 22 20  1  0  0  0  0
 23 22  1  0  0  0  0
 24 25  1  6  0  0  0
 24 23  1  0  0  0  0
 26 24  1  0  0  0  0
 26 27  1  0  0  0  0
 27 30  1  0  0  0  0
 27 28  2  0  0  0  0
 30 29  1  0  0  0  0
 31 32  1  0  0  0  0
 32 38  1  0  0  0  0
 33 34  1  0  0  0  0
 34 37  1  0  0  0  0
 35 39  2  0  0  0  0
 35 37  1  0  0  0  0
 36 40  1  6  0  0  0
 36 41  1  0  0  0  0
 36 33  1  0  0  0  0
 37 42  1  6  0  0  0
 38 35  1  0  0  0  0
 41 38  1  0  0  0  0
 42 43  1  0  0  0  0
 45 44  1  0  0  0  0
 46 44  1  0  0  0  0
 46 49  2  0  0  0  0
 47 43  1  1  0  0  0
 47 50  1  0  0  0  0
 47 48  1  0  0  0  0
 48 46  1  1  0  0  0
 50 45  1  0  0  0  0
 51 53  1  6  0  0  0
 51 48  1  0  0  0  0
 51 54  1  0  0  0  0
 52 55  1  0  0  0  0
 53 52  1  0  0  0  0
 55 54  1  0  0  0  0
M  END
>  <MODEL>
9

>  <REMARK>
 VINA RESULT:      -5.8      3.198     10.759
  Name = 
  19 active torsions:
  status: ('A' for Active; 'I' for Inactive)
    1  A    between atoms: C_1  and  N_28
    2  A    between atoms: N_2  and  C_19
    3  A    between atoms: C_4  and  C_10
    4  A    between atoms: C_4  and  C_36
    5  A    between atoms: C_7  and  C_37
    6  A    between atoms: C_7  and  C_50
    7  A    between atoms: O_9  and  P_29
    8  A    between atoms: O_9  and  C_45
    9  A    between atoms: C_10  and  N_44
   10  A    between atoms: C_12  and  C_39
   11  A    between atoms: C_12  and  C_46
   12  A    between atoms: N_15  and  C_26
   13  A    between atoms: N_15  and  P_29
   14  A    between atoms: C_17  and  N_54
   15  A    between atoms: C_26  and  C_50
   16  A    between atoms: C_38  and  C_42
   17  A    between atoms: C_39  and  C_45
   18  A    between atoms: C_42  and  N_54
   19  A    between atoms: C_43  and  C_45
                            x       y       z     vdW  Elec       q    Type
                         _______ _______ _______ _____ _____    ______ ____

>  <TORSDO>
F 19

$$$$
