=
 OpenBabel11062413513D

 25 26  0  0  1  0  0  0  0  0999 V2000
  192.0870  175.2410  144.0180 N   0  0  0  0  0  1  0  0  0  0  0  0
  191.6970  175.9610  145.1830 C   0  0  0  0  0  0  0  0  0  0  0  0
  191.8520  175.4670  146.4910 N   0  0  0  0  0  0  0  0  0  0  0  0
  191.1460  177.1530  145.1920 C   0  0  0  0  0  0  0  0  0  0  0  0
  190.8920  177.5290  146.6170 C   0  0  2  0  0  3  0  0  0  0  0  0
  191.3700  176.3950  147.4300 N   0  0  0  0  0  0  0  0  0  0  0  0
  189.4330  177.7760  146.8640 C   0  0  0  0  0  0  0  0  0  0  0  0
  186.6910  178.1710  147.2900 C   0  0  0  0  0  0  0  0  0  0  0  0
  186.2200  177.6850  144.8700 C   0  0  0  0  0  1  0  0  0  0  0  0
  188.5300  177.6390  145.8040 C   0  0  0  0  0  3  0  0  0  0  0  0
  187.5900  178.3030  148.3520 C   0  0  0  0  0  3  0  0  0  0  0  0
  187.1620  177.8370  146.0120 C   0  0  0  0  0  0  0  0  0  0  0  0
  188.9570  178.1050  148.1420 C   0  0  0  0  0  3  0  0  0  0  0  0
  185.3660  178.3640  147.5100 F   0  0  0  0  0  0  0  0  0  0  0  0
  191.6940  179.2530  143.9670 C   0  0  0  0  0  1  0  0  0  0  0  0
  190.8180  178.0130  144.0070 C   0  0  1  0  0  3  0  0  0  0  0  0
  190.9380  177.2190  142.7160 C   0  0  0  0  0  2  0  0  0  0  0  0
  189.6520  176.8770  142.2350 O   0  0  0  0  0  0  0  0  0  0  0  0
  189.6100  176.9990  140.8650 N   0  0  0  0  0  0  0  0  0  0  0  0
  190.9090  177.3900  140.3230 C   0  0  0  0  0  1  0  0  0  0  0  0
  188.5800  177.9440  140.4260 C   0  0  0  0  0  2  0  0  0  0  0  0
  187.6450  178.2850  141.5760 C   0  0  0  0  0  2  0  0  0  0  0  0
  185.6760  179.6010  141.8390 O   0  0  0  0  0  1  0  0  0  0  0  0
  186.0000  178.7100  139.7520 O   0  0  0  0  0  0  0  0  0  0  0  0
  186.3930  178.9120  141.0680 C   0  0  0  0  0  0  0  0  0  0  0  0
  1  2  1  0  0  0  0
  2  4  2  0  0  0  0
  2  3  1  0  0  0  0
  3  6  2  0  0  0  0
  4  5  1  0  0  0  0
  5  7  1  6  0  0  0
  5  6  1  0  0  0  0
  7 13  1  0  0  0  0
  8 14  1  0  0  0  0
  8 11  1  0  0  0  0
  9 12  1  0  0  0  0
 10 12  1  0  0  0  0
 10  7  2  0  0  0  0
 12  8  2  0  0  0  0
 13 11  2  0  0  0  0
 16 15  1  6  0  0  0
 16  4  1  0  0  0  0
 17 16  1  0  0  0  0
 18 17  1  0  0  0  0
 19 18  1  0  0  0  0
 20 19  1  0  0  0  0
 21 19  1  0  0  0  0
 21 22  1  0  0  0  0
 24 25  2  0  0  0  0
 25 22  1  0  0  0  0
 25 23  1  0  0  0  0
M  END
>  <MODEL>
1

>  <REMARK>
 VINA RESULT:      -8.0      0.000      0.000
  Name = 
  8 active torsions:
  status: ('A' for Active; 'I' for Inactive)
    1  A    between atoms: C_1  and  C_6
    2  A    between atoms: C_1  and  N_14
    3  A    between atoms: C_2  and  C_13
    4  A    between atoms: C_6  and  C_25
    5  A    between atoms: C_12  and  C_21
    6  A    between atoms: N_14  and  O_20
    7  A    between atoms: O_20  and  C_22
    8  A    between atoms: C_21  and  C_22
                            x       y       z     vdW  Elec       q    Type
                         _______ _______ _______ _____ _____    ______ ____

>  <TORSDO>
F 8

$$$$
=
 OpenBabel11062413513D

 25 26  0  0  1  0  0  0  0  0999 V2000
  184.5690  180.0830  144.1750 N   0  0  0  0  0  1  0  0  0  0  0  0
  185.4240  179.0090  144.5550 C   0  0  0  0  0  0  0  0  0  0  0  0
  185.9030  178.8230  145.8650 N   0  0  0  0  0  0  0  0  0  0  0  0
  185.8750  178.0750  143.7510 C   0  0  0  0  0  0  0  0  0  0  0  0
  186.7410  177.1580  144.5550 C   0  0  2  0  0  3  0  0  0  0  0  0
  186.7290  177.6870  145.9320 N   0  0  0  0  0  0  0  0  0  0  0  0
  188.1400  177.1180  144.0180 C   0  0  0  0  0  0  0  0  0  0  0  0
  190.7830  177.0590  143.0860 C   0  0  0  0  0  0  0  0  0  0  0  0
  191.2440  179.2740  144.1780 C   0  0  0  0  0  1  0  0  0  0  0  0
  189.0140  178.1690  144.3140 C   0  0  0  0  0  3  0  0  0  0  0  0
  189.9140  176.0030  142.7920 C   0  0  0  0  0  3  0  0  0  0  0  0
  190.3320  178.1440  143.8500 C   0  0  0  0  0  0  0  0  0  0  0  0
  188.5970  176.0300  143.2580 C   0  0  0  0  0  3  0  0  0  0  0  0
  192.0600  177.0170  142.6280 F   0  0  0  0  0  0  0  0  0  0  0  0
  184.1260  178.1650  141.9780 C   0  0  0  0  0  1  0  0  0  0  0  0
  185.5930  177.9210  142.2860 C   0  0  1  0  0  3  0  0  0  0  0  0
  186.4820  178.8430  141.4660 C   0  0  0  0  0  2  0  0  0  0  0  0
  186.0350  178.8800  140.1240 O   0  0  0  0  0  0  0  0  0  0  0  0
  187.0760  178.5980  139.2700 N   0  0  0  0  0  0  0  0  0  0  0  0
  186.6230  177.8400  138.1060 C   0  0  0  0  0  1  0  0  0  0  0  0
  188.1630  177.8810  139.9410 C   0  0  0  0  0  2  0  0  0  0  0  0
  189.5090  178.3010  139.3730 C   0  0  0  0  0  2  0  0  0  0  0  0
  190.4180  177.2270  137.4490 O   0  0  0  0  0  0  0  0  0  0  0  0
  190.4780  176.0040  139.3860 O   0  0  0  0  0  1  0  0  0  0  0  0
  190.1680  177.1580  138.6810 C   0  0  0  0  0  0  0  0  0  0  0  0
  1  2  1  0  0  0  0
  2  3  1  0  0  0  0
  3  6  2  0  0  0  0
  4  5  1  0  0  0  0
  4  2  2  0  0  0  0
  5  7  1  6  0  0  0
  5  6  1  0  0  0  0
  7 10  1  0  0  0  0
  8 12  1  0  0  0  0
 11  8  2  0  0  0  0
 11 13  1  0  0  0  0
 12  9  1  0  0  0  0
 12 10  2  0  0  0  0
 13  7  2  0  0  0  0
 14  8  1  0  0  0  0
 16 15  1  1  0  0  0
 16  4  1  0  0  0  0
 17 16  1  0  0  0  0
 18 17  1  0  0  0  0
 19 21  1  0  0  0  0
 19 18  1  0  0  0  0
 20 19  1  0  0  0  0
 22 21  1  0  0  0  0
 23 25  2  0  0  0  0
 25 22  1  0  0  0  0
 25 24  1  0  0  0  0
M  END
>  <MODEL>
2

>  <REMARK>
 VINA RESULT:      -8.0      3.293      5.535
  Name = 
  8 active torsions:
  status: ('A' for Active; 'I' for Inactive)
    1  A    between atoms: C_1  and  C_6
    2  A    between atoms: C_1  and  N_14
    3  A    between atoms: C_2  and  C_13
    4  A    between atoms: C_6  and  C_25
    5  A    between atoms: C_12  and  C_21
    6  A    between atoms: N_14  and  O_20
    7  A    between atoms: O_20  and  C_22
    8  A    between atoms: C_21  and  C_22
                            x       y       z     vdW  Elec       q    Type
                         _______ _______ _______ _____ _____    ______ ____

>  <TORSDO>
F 8

$$$$
=
 OpenBabel11062413513D

 25 26  0  0  1  0  0  0  0  0999 V2000
  192.2100  174.9110  144.3110 N   0  0  0  0  0  1  0  0  0  0  0  0
  191.8120  175.7730  145.3720 C   0  0  0  0  0  0  0  0  0  0  0  0
  191.9890  175.4640  146.7330 N   0  0  0  0  0  0  0  0  0  0  0  0
  191.2320  176.9420  145.2260 C   0  0  0  0  0  0  0  0  0  0  0  0
  190.9800  177.5020  146.5890 C   0  0  2  0  0  3  0  0  0  0  0  0
  191.4910  176.5000  147.5430 N   0  0  0  0  0  0  0  0  0  0  0  0
  189.5180  177.7470  146.8170 C   0  0  0  0  0  0  0  0  0  0  0  0
  186.7700  178.1370  147.2070 C   0  0  0  0  0  0  0  0  0  0  0  0
  186.3270  177.6150  144.7890 C   0  0  0  0  0  1  0  0  0  0  0  0
  188.6270  177.5920  145.7490 C   0  0  0  0  0  3  0  0  0  0  0  0
  187.6570  178.2880  148.2770 C   0  0  0  0  0  3  0  0  0  0  0  0
  187.2560  177.7870  145.9390 C   0  0  0  0  0  0  0  0  0  0  0  0
  189.0270  178.0920  148.0850 C   0  0  0  0  0  3  0  0  0  0  0  0
  185.4420  178.3300  147.4100 F   0  0  0  0  0  0  0  0  0  0  0  0
  191.3900  179.0550  143.9130 C   0  0  0  0  0  1  0  0  0  0  0  0
  190.8740  177.6260  143.9390 C   0  0  1  0  0  3  0  0  0  0  0  0
  191.3930  176.8380  142.7480 C   0  0  0  0  0  2  0  0  0  0  0  0
  190.3090  176.3280  141.9940 O   0  0  0  0  0  0  0  0  0  0  0  0
  190.5340  176.5220  140.6500 N   0  0  0  0  0  0  0  0  0  0  0  0
  191.7070  177.3610  140.4190 C   0  0  0  0  0  1  0  0  0  0  0  0
  189.3690  177.0940  139.9720 C   0  0  0  0  0  2  0  0  0  0  0  0
  189.7900  177.7970  138.6910 C   0  0  0  0  0  2  0  0  0  0  0  0
  188.9690  179.6130  137.3840 O   0  0  0  0  0  0  0  0  0  0  0  0
  187.4080  178.5380  138.6740 O   0  0  0  0  0  1  0  0  0  0  0  0
  188.7050  178.6940  138.2030 C   0  0  0  0  0  0  0  0  0  0  0  0
  1  2  1  0  0  0  0
  2  3  1  0  0  0  0
  3  6  2  0  0  0  0
  4  2  2  0  0  0  0
  4  5  1  0  0  0  0
  5  7  1  1  0  0  0
  5  6  1  0  0  0  0
  7 13  1  0  0  0  0
  8 14  1  0  0  0  0
  8 11  1  0  0  0  0
  9 12  1  0  0  0  0
 10 12  1  0  0  0  0
 10  7  2  0  0  0  0
 12  8  2  0  0  0  0
 13 11  2  0  0  0  0
 16 15  1  1  0  0  0
 16  4  1  0  0  0  0
 17 16  1  0  0  0  0
 18 17  1  0  0  0  0
 19 18  1  0  0  0  0
 20 19  1  0  0  0  0
 21 19  1  0  0  0  0
 22 21  1  0  0  0  0
 23 25  2  0  0  0  0
 25 24  1  0  0  0  0
 25 22  1  0  0  0  0
M  END
>  <MODEL>
3

>  <REMARK>
 VINA RESULT:      -7.9      1.311      1.625
  Name = 
  8 active torsions:
  status: ('A' for Active; 'I' for Inactive)
    1  A    between atoms: C_1  and  C_6
    2  A    between atoms: C_1  and  N_14
    3  A    between atoms: C_2  and  C_13
    4  A    between atoms: C_6  and  C_25
    5  A    between atoms: C_12  and  C_21
    6  A    between atoms: N_14  and  O_20
    7  A    between atoms: O_20  and  C_22
    8  A    between atoms: C_21  and  C_22
                            x       y       z     vdW  Elec       q    Type
                         _______ _______ _______ _____ _____    ______ ____

>  <TORSDO>
F 8

$$$$
=
 OpenBabel11062413513D

 25 26  0  0  1  0  0  0  0  0999 V2000
  191.8390  176.0650  145.5230 N   0  0  0  0  0  1  0  0  0  0  0  0
  190.6580  176.7500  145.9240 C   0  0  0  0  0  0  0  0  0  0  0  0
  189.9090  176.4090  147.0660 N   0  0  0  0  0  0  0  0  0  0  0  0
  190.1150  177.7660  145.2930 C   0  0  0  0  0  0  0  0  0  0  0  0
  188.8890  178.1720  146.0460 C   0  0  2  0  0  3  0  0  0  0  0  0
  188.7950  177.2560  147.1980 N   0  0  0  0  0  0  0  0  0  0  0  0
  187.6630  178.0690  145.1890 C   0  0  0  0  0  0  0  0  0  0  0  0
  185.3550  177.9520  143.6030 C   0  0  0  0  0  0  0  0  0  0  0  0
  183.9860  178.9070  145.4820 C   0  0  0  0  0  1  0  0  0  0  0  0
  186.4350  178.5010  145.7020 C   0  0  0  0  0  3  0  0  0  0  0  0
  186.5810  177.5250  143.0860 C   0  0  0  0  0  3  0  0  0  0  0  0
  185.2810  178.4420  144.9150 C   0  0  0  0  0  0  0  0  0  0  0  0
  187.7330  177.5850  143.8740 C   0  0  0  0  0  3  0  0  0  0  0  0
  184.2450  177.8890  142.8250 F   0  0  0  0  0  0  0  0  0  0  0  0
  191.7120  179.4290  144.3440 C   0  0  0  0  0  1  0  0  0  0  0  0
  190.6100  178.4280  144.0400 C   0  0  1  0  0  3  0  0  0  0  0  0
  191.0790  177.3910  143.0320 C   0  0  0  0  0  2  0  0  0  0  0  0
  190.2660  177.4360  141.8750 O   0  0  0  0  0  0  0  0  0  0  0  0
  190.9350  176.8910  140.8040 N   0  0  0  0  0  0  0  0  0  0  0  0
  192.2120  177.5630  140.5730 C   0  0  0  0  0  1  0  0  0  0  0  0
  190.1300  176.9140  139.5800 C   0  0  0  0  0  2  0  0  0  0  0  0
  188.7290  177.4270  139.8740 C   0  0  0  0  0  2  0  0  0  0  0  0
  187.1240  177.9890  138.2050 O   0  0  0  0  0  0  0  0  0  0  0  0
  188.9890  179.3190  138.2720 O   0  0  0  0  0  1  0  0  0  0  0  0
  188.2260  178.2610  138.7470 C   0  0  0  0  0  0  0  0  0  0  0  0
  1  2  1  0  0  0  0
  2  3  1  0  0  0  0
  3  6  2  0  0  0  0
  4  2  2  0  0  0  0
  4  5  1  0  0  0  0
  5  7  1  6  0  0  0
  5  6  1  0  0  0  0
  7 10  1  0  0  0  0
  8 12  1  0  0  0  0
 11  8  2  0  0  0  0
 11 13  1  0  0  0  0
 12  9  1  0  0  0  0
 12 10  2  0  0  0  0
 13  7  2  0  0  0  0
 14  8  1  0  0  0  0
 16 15  1  1  0  0  0
 16  4  1  0  0  0  0
 17 16  1  0  0  0  0
 18 17  1  0  0  0  0
 19 18  1  0  0  0  0
 20 19  1  0  0  0  0
 21 22  1  0  0  0  0
 21 19  1  0  0  0  0
 23 25  2  0  0  0  0
 24 25  1  0  0  0  0
 25 22  1  0  0  0  0
M  END
>  <MODEL>
4

>  <REMARK>
 VINA RESULT:      -7.7      1.894      2.740
  Name = 
  8 active torsions:
  status: ('A' for Active; 'I' for Inactive)
    1  A    between atoms: C_1  and  C_6
    2  A    between atoms: C_1  and  N_14
    3  A    between atoms: C_2  and  C_13
    4  A    between atoms: C_6  and  C_25
    5  A    between atoms: C_12  and  C_21
    6  A    between atoms: N_14  and  O_20
    7  A    between atoms: O_20  and  C_22
    8  A    between atoms: C_21  and  C_22
                            x       y       z     vdW  Elec       q    Type
                         _______ _______ _______ _____ _____    ______ ____

>  <TORSDO>
F 8

$$$$
=
 OpenBabel11062413513D

 25 26  0  0  1  0  0  0  0  0999 V2000
  189.8950  176.2960  139.9330 N   0  0  0  0  0  1  0  0  0  0  0  0
  190.3790  177.0790  141.0210 C   0  0  0  0  0  0  0  0  0  0  0  0
  191.6910  177.5820  141.0930 N   0  0  0  0  0  0  0  0  0  0  0  0
  189.6850  177.4200  142.0810 C   0  0  1  0  0  3  0  0  0  0  0  0
  190.5750  178.2270  142.9710 C   0  0  2  0  0  3  0  0  0  0  0  0
  191.8780  178.3060  142.2840 N   0  0  0  0  0  2  0  0  0  0  0  0
  190.7280  177.5840  144.3180 C   0  0  0  0  0  0  0  0  0  0  0  0
  190.9360  176.3720  146.8360 C   0  0  0  0  0  0  0  0  0  0  0  0
  189.1400  177.8800  147.7380 C   0  0  0  0  0  1  0  0  0  0  0  0
  189.9140  178.0110  145.3720 C   0  0  0  0  0  3  0  0  0  0  0  0
  191.7470  175.9390  145.7820 C   0  0  0  0  0  3  0  0  0  0  0  0
  190.0170  177.4100  146.6300 C   0  0  0  0  0  0  0  0  0  0  0  0
  191.6440  176.5420  144.5260 C   0  0  0  0  0  3  0  0  0  0  0  0
  191.0480  175.7760  148.0500 F   0  0  0  0  0  0  0  0  0  0  0  0
  188.1520  175.9650  143.4020 C   0  0  0  0  0  1  0  0  0  0  0  0
  188.2530  177.0830  142.3790 C   0  0  1  0  0  3  0  0  0  0  0  0
  187.4950  178.3160  142.8430 C   0  0  0  0  0  2  0  0  0  0  0  0
  186.3800  178.5450  142.0030 O   0  0  0  0  0  0  0  0  0  0  0  0
  185.2120  178.3070  142.6900 N   0  0  0  0  0  0  0  0  0  0  0  0
  184.0850  178.1160  141.7800 C   0  0  0  0  0  1  0  0  0  0  0  0
  184.9060  179.3740  143.6460 C   0  0  0  0  0  2  0  0  0  0  0  0
  184.3010  178.7950  144.9150 C   0  0  0  0  0  2  0  0  0  0  0  0
  185.5400  179.4990  146.8260 O   0  0  0  0  0  1  0  0  0  0  0  0
  186.1320  177.4620  145.9580 O   0  0  0  0  0  0  0  0  0  0  0  0
  185.3470  178.6070  145.9590 C   0  0  0  0  0  0  0  0  0  0  0  0
  1  2  1  0  0  0  0
  2  3  2  0  0  0  0
  2  4  1  0  0  0  0
  3  6  1  0  0  0  0
  4 16  1  6  0  0  0
  4  5  1  0  0  0  0
  5  7  1  1  0  0  0
  6  5  1  0  0  0  0
  7 13  2  0  0  0  0
  7 10  1  0  0  0  0
  8 14  1  0  0  0  0
 10 12  2  0  0  0  0
 11  8  2  0  0  0  0
 12  8  1  0  0  0  0
 12  9  1  0  0  0  0
 13 11  1  0  0  0  0
 16 17  1  0  0  0  0
 16 15  1  1  0  0  0
 18 19  1  0  0  0  0
 18 17  1  0  0  0  0
 19 21  1  0  0  0  0
 20 19  1  0  0  0  0
 21 22  1  0  0  0  0
 22 25  1  0  0  0  0
 24 25  2  0  0  0  0
 25 23  1  0  0  0  0
M  END
>  <MODEL>
5

>  <REMARK>
 VINA RESULT:      -7.7      2.607      4.708
  Name = 
  8 active torsions:
  status: ('A' for Active; 'I' for Inactive)
    1  A    between atoms: C_1  and  C_6
    2  A    between atoms: C_1  and  N_14
    3  A    between atoms: C_2  and  C_13
    4  A    between atoms: C_6  and  C_25
    5  A    between atoms: C_12  and  C_21
    6  A    between atoms: N_14  and  O_20
    7  A    between atoms: O_20  and  C_22
    8  A    between atoms: C_21  and  C_22
                            x       y       z     vdW  Elec       q    Type
                         _______ _______ _______ _____ _____    ______ ____

>  <TORSDO>
F 8

$$$$
=
 OpenBabel11062413513D

 25 26  0  0  1  0  0  0  0  0999 V2000
  185.6260  179.6900  147.3650 N   0  0  0  0  0  1  0  0  0  0  0  0
  186.5140  178.6320  147.0180 C   0  0  0  0  0  0  0  0  0  0  0  0
  187.6060  178.2400  147.8140 N   0  0  0  0  0  0  0  0  0  0  0  0
  186.4400  177.9020  145.9290 C   0  0  0  0  0  0  0  0  0  0  0  0
  187.5660  176.9200  145.9580 C   0  0  2  0  0  3  0  0  0  0  0  0
  188.3030  177.1790  147.2090 N   0  0  0  0  0  0  0  0  0  0  0  0
  188.4680  177.0880  144.7710 C   0  0  0  0  0  0  0  0  0  0  0  0
  190.2160  177.4020  142.6030 C   0  0  0  0  0  0  0  0  0  0  0  0
  191.3800  179.2920  143.7820 C   0  0  0  0  0  1  0  0  0  0  0  0
  189.4590  178.0750  144.8050 C   0  0  0  0  0  3  0  0  0  0  0  0
  189.2300  176.4120  142.5690 C   0  0  0  0  0  3  0  0  0  0  0  0
  190.3320  178.2360  143.7240 C   0  0  0  0  0  0  0  0  0  0  0  0
  188.3590  176.2530  143.6500 C   0  0  0  0  0  3  0  0  0  0  0  0
  191.0550  177.5430  141.5450 F   0  0  0  0  0  0  0  0  0  0  0  0
  184.1010  178.5460  145.3550 C   0  0  0  0  0  1  0  0  0  0  0  0
  185.4200  178.0050  144.8320 C   0  0  1  0  0  3  0  0  0  0  0  0
  185.9440  178.8580  143.6880 C   0  0  0  0  0  2  0  0  0  0  0  0
  185.0740  178.7650  142.5760 O   0  0  0  0  0  0  0  0  0  0  0  0
  185.6680  179.3120  141.4620 N   0  0  0  0  0  0  0  0  0  0  0  0
  184.7750  179.2760  140.3070 C   0  0  0  0  0  1  0  0  0  0  0  0
  186.9350  178.6540  141.1340 C   0  0  0  0  0  2  0  0  0  0  0  0
  186.9960  178.3230  139.6510 C   0  0  0  0  0  2  0  0  0  0  0  0
  189.0450  179.1790  138.7870 O   0  0  0  0  0  0  0  0  0  0  0  0
  189.0130  176.9260  139.2090 O   0  0  0  0  0  1  0  0  0  0  0  0
  188.4080  178.1760  139.2010 C   0  0  0  0  0  0  0  0  0  0  0  0
  2  1  1  0  0  0  0
  2  3  1  0  0  0  0
  4  5  1  0  0  0  0
  4  2  2  0  0  0  0
  5  7  1  6  0  0  0
  5  6  1  0  0  0  0
  6  3  2  0  0  0  0
  7 10  1  0  0  0  0
  8 12  1  0  0  0  0
 11  8  2  0  0  0  0
 11 13  1  0  0  0  0
 12  9  1  0  0  0  0
 12 10  2  0  0  0  0
 13  7  2  0  0  0  0
 14  8  1  0  0  0  0
 16 15  1  1  0  0  0
 16  4  1  0  0  0  0
 17 16  1  0  0  0  0
 18 17  1  0  0  0  0
 19 18  1  0  0  0  0
 20 19  1  0  0  0  0
 21 19  1  0  0  0  0
 22 21  1  0  0  0  0
 23 25  2  0  0  0  0
 25 24  1  0  0  0  0
 25 22  1  0  0  0  0
M  END
>  <MODEL>
6

>  <REMARK>
 VINA RESULT:      -7.5      2.944      5.133
  Name = 
  8 active torsions:
  status: ('A' for Active; 'I' for Inactive)
    1  A    between atoms: C_1  and  C_6
    2  A    between atoms: C_1  and  N_14
    3  A    between atoms: C_2  and  C_13
    4  A    between atoms: C_6  and  C_25
    5  A    between atoms: C_12  and  C_21
    6  A    between atoms: N_14  and  O_20
    7  A    between atoms: O_20  and  C_22
    8  A    between atoms: C_21  and  C_22
                            x       y       z     vdW  Elec       q    Type
                         _______ _______ _______ _____ _____    ______ ____

>  <TORSDO>
F 8

$$$$
=
 OpenBabel11062413513D

 25 26  0  0  1  0  0  0  0  0999 V2000
  184.6230  180.0400  144.5160 N   0  0  0  0  0  1  0  0  0  0  0  0
  185.4830  178.9330  144.7670 C   0  0  0  0  0  0  0  0  0  0  0  0
  185.9970  178.6190  146.0380 N   0  0  0  0  0  0  0  0  0  0  0  0
  185.9080  178.0800  143.8630 C   0  0  0  0  0  0  0  0  0  0  0  0
  186.7910  177.0870  144.5500 C   0  0  2  0  0  3  0  0  0  0  0  0
  186.8200  177.4810  145.9710 N   0  0  0  0  0  0  0  0  0  0  0  0
  188.1750  177.0980  143.9730 C   0  0  0  0  0  0  0  0  0  0  0  0
  190.7900  177.1350  142.9650 C   0  0  0  0  0  0  0  0  0  0  0  0
  191.1840  179.3900  144.0020 C   0  0  0  0  0  1  0  0  0  0  0  0
  189.0100  178.1920  144.2240 C   0  0  0  0  0  3  0  0  0  0  0  0
  189.9610  176.0370  142.7170 C   0  0  0  0  0  3  0  0  0  0  0  0
  190.3140  178.2150  143.7210 C   0  0  0  0  0  0  0  0  0  0  0  0
  188.6570  176.0160  143.2210 C   0  0  0  0  0  3  0  0  0  0  0  0
  192.0540  177.1400  142.4710 F   0  0  0  0  0  0  0  0  0  0  0  0
  184.0860  178.1530  142.1630 C   0  0  0  0  0  1  0  0  0  0  0  0
  185.5850  178.0700  142.3980 C   0  0  1  0  0  3  0  0  0  0  0  0
  186.3120  179.1940  141.6790 C   0  0  0  0  0  2  0  0  0  0  0  0
  186.2350  179.0040  140.2790 O   0  0  0  0  0  0  0  0  0  0  0  0
  187.2440  178.1690  139.8570 N   0  0  0  0  0  0  0  0  0  0  0  0
  188.5470  178.6180  140.3400 C   0  0  0  0  0  1  0  0  0  0  0  0
  187.2730  178.0300  138.3990 C   0  0  0  0  0  2  0  0  0  0  0  0
  185.8630  178.0890  137.8300 C   0  0  0  0  0  2  0  0  0  0  0  0
  184.6090  176.9670  136.1430 O   0  0  0  0  0  0  0  0  0  0  0  0
  186.5370  175.9180  136.8050 O   0  0  0  0  0  1  0  0  0  0  0  0
  185.6350  176.9710  136.8720 C   0  0  0  0  0  0  0  0  0  0  0  0
  1  2  1  0  0  0  0
  2  3  1  0  0  0  0
  4  5  1  0  0  0  0
  4  2  2  0  0  0  0
  5  7  1  6  0  0  0
  5  6  1  0  0  0  0
  6  3  2  0  0  0  0
  7 10  1  0  0  0  0
  8 12  1  0  0  0  0
 11  8  2  0  0  0  0
 11 13  1  0  0  0  0
 12  9  1  0  0  0  0
 12 10  2  0  0  0  0
 13  7  2  0  0  0  0
 14  8  1  0  0  0  0
 16 15  1  1  0  0  0
 16  4  1  0  0  0  0
 17 16  1  0  0  0  0
 18 17  1  0  0  0  0
 19 18  1  0  0  0  0
 19 20  1  0  0  0  0
 21 19  1  0  0  0  0
 22 21  1  0  0  0  0
 23 25  2  0  0  0  0
 24 25  1  0  0  0  0
 25 22  1  0  0  0  0
M  END
>  <MODEL>
7

>  <REMARK>
 VINA RESULT:      -7.4      3.425      5.437
  Name = 
  8 active torsions:
  status: ('A' for Active; 'I' for Inactive)
    1  A    between atoms: C_1  and  C_6
    2  A    between atoms: C_1  and  N_14
    3  A    between atoms: C_2  and  C_13
    4  A    between atoms: C_6  and  C_25
    5  A    between atoms: C_12  and  C_21
    6  A    between atoms: N_14  and  O_20
    7  A    between atoms: O_20  and  C_22
    8  A    between atoms: C_21  and  C_22
                            x       y       z     vdW  Elec       q    Type
                         _______ _______ _______ _____ _____    ______ ____

>  <TORSDO>
F 8

$$$$
=
 OpenBabel11062413513D

 25 26  0  0  1  0  0  0  0  0999 V2000
  184.0840  180.2160  144.2320 N   0  0  0  0  0  1  0  0  0  0  0  0
  184.8170  179.1560  144.8380 C   0  0  0  0  0  0  0  0  0  0  0  0
  184.9370  178.9890  146.2300 N   0  0  0  0  0  0  0  0  0  0  0  0
  185.4720  178.2170  144.1940 C   0  0  0  0  0  0  0  0  0  0  0  0
  186.1030  177.3190  145.2090 C   0  0  2  0  0  3  0  0  0  0  0  0
  185.7260  177.8640  146.5270 N   0  0  0  0  0  0  0  0  0  0  0  0
  187.5950  177.2890  145.0590 C   0  0  0  0  0  0  0  0  0  0  0  0
  190.3750  177.2600  144.7050 C   0  0  0  0  0  0  0  0  0  0  0  0
  190.1120  175.9990  142.5470 C   0  0  0  0  0  1  0  0  0  0  0  0
  188.1540  176.6750  143.9330 C   0  0  0  0  0  3  0  0  0  0  0  0
  189.8190  177.8780  145.8290 C   0  0  0  0  0  3  0  0  0  0  0  0
  189.5400  176.6570  143.7540 C   0  0  0  0  0  0  0  0  0  0  0  0
  188.4330  177.8960  146.0060 C   0  0  0  0  0  3  0  0  0  0  0  0
  191.7230  177.2530  144.5460 F   0  0  0  0  0  0  0  0  0  0  0  0
  184.2170  178.0010  142.0510 C   0  0  0  0  0  1  0  0  0  0  0  0
  185.5860  178.0440  142.7080 C   0  0  1  0  0  3  0  0  0  0  0  0
  186.4470  179.1410  142.1020 C   0  0  0  0  0  2  0  0  0  0  0  0
  186.4500  179.0320  140.6910 O   0  0  0  0  0  0  0  0  0  0  0  0
  187.4150  178.1390  140.2860 N   0  0  0  0  0  0  0  0  0  0  0  0
  188.7560  178.6150  140.6180 C   0  0  0  0  0  1  0  0  0  0  0  0
  187.3300  177.8450  138.8540 C   0  0  0  0  0  2  0  0  0  0  0  0
  188.7160  177.6120  138.2740 C   0  0  0  0  0  2  0  0  0  0  0  0
  188.6810  179.7460  137.2140 O   0  0  0  0  0  1  0  0  0  0  0  0
  189.4760  178.0190  135.9340 O   0  0  0  0  0  0  0  0  0  0  0  0
  188.9640  178.5230  137.1220 C   0  0  0  0  0  0  0  0  0  0  0  0
  1  2  1  0  0  0  0
  2  3  1  0  0  0  0
  3  6  2  0  0  0  0
  4  2  2  0  0  0  0
  4  5  1  0  0  0  0
  5  7  1  6  0  0  0
  5  6  1  0  0  0  0
  7 13  1  0  0  0  0
  8 11  1  0  0  0  0
  9 12  1  0  0  0  0
 10  7  2  0  0  0  0
 11 13  2  0  0  0  0
 12 10  1  0  0  0  0
 12  8  2  0  0  0  0
 14  8  1  0  0  0  0
 16 15  1  6  0  0  0
 16  4  1  0  0  0  0
 17 16  1  0  0  0  0
 18 17  1  0  0  0  0
 19 20  1  0  0  0  0
 19 18  1  0  0  0  0
 21 19  1  0  0  0  0
 22 21  1  0  0  0  0
 24 25  2  0  0  0  0
 25 23  1  0  0  0  0
 25 22  1  0  0  0  0
M  END
>  <MODEL>
8

>  <REMARK>
 VINA RESULT:      -7.4      3.396      5.202
  Name = 
  8 active torsions:
  status: ('A' for Active; 'I' for Inactive)
    1  A    between atoms: C_1  and  C_6
    2  A    between atoms: C_1  and  N_14
    3  A    between atoms: C_2  and  C_13
    4  A    between atoms: C_6  and  C_25
    5  A    between atoms: C_12  and  C_21
    6  A    between atoms: N_14  and  O_20
    7  A    between atoms: O_20  and  C_22
    8  A    between atoms: C_21  and  C_22
                            x       y       z     vdW  Elec       q    Type
                         _______ _______ _______ _____ _____    ______ ____

>  <TORSDO>
F 8

$$$$
=
 OpenBabel11062413513D

 25 26  0  0  1  0  0  0  0  0999 V2000
  185.6770  179.7570  147.5050 N   0  0  0  0  0  1  0  0  0  0  0  0
  186.4570  178.6440  147.0810 C   0  0  0  0  0  0  0  0  0  0  0  0
  187.4900  178.0790  147.8510 N   0  0  0  0  0  0  0  0  0  0  0  0
  186.3260  178.0150  145.9350 C   0  0  0  0  0  0  0  0  0  0  0  0
  187.3450  176.9220  145.8940 C   0  0  2  0  0  3  0  0  0  0  0  0
  188.0830  177.0020  147.1680 N   0  0  0  0  0  0  0  0  0  0  0  0
  188.2790  177.0900  144.7320 C   0  0  0  0  0  0  0  0  0  0  0  0
  190.0850  177.3910  142.6100 C   0  0  0  0  0  0  0  0  0  0  0  0
  191.4370  179.0240  143.9600 C   0  0  0  0  0  1  0  0  0  0  0  0
  189.3750  177.9500  144.8590 C   0  0  0  0  0  3  0  0  0  0  0  0
  188.9930  176.5270  142.4830 C   0  0  0  0  0  3  0  0  0  0  0  0
  190.2770  178.1040  143.8020 C   0  0  0  0  0  0  0  0  0  0  0  0
  188.0930  176.3740  143.5400 C   0  0  0  0  0  3  0  0  0  0  0  0
  190.9520  177.5280  141.5750 F   0  0  0  0  0  0  0  0  0  0  0  0
  183.9620  178.6050  145.4080 C   0  0  0  0  0  1  0  0  0  0  0  0
  185.3410  178.3110  144.8430 C   0  0  1  0  0  3  0  0  0  0  0  0
  185.8290  179.4580  143.9730 C   0  0  0  0  0  2  0  0  0  0  0  0
  184.9130  179.6920  142.9200 O   0  0  0  0  0  0  0  0  0  0  0  0
  185.1370  178.8050  141.8920 N   0  0  0  0  0  0  0  0  0  0  0  0
  186.4880  178.9400  141.3530 C   0  0  0  0  0  1  0  0  0  0  0  0
  184.1540  178.9490  140.8160 C   0  0  0  0  0  2  0  0  0  0  0  0
  183.0400  177.9250  140.9720 C   0  0  0  0  0  2  0  0  0  0  0  0
  180.8940  178.8080  140.4260 O   0  0  0  0  0  0  0  0  0  0  0  0
  181.5190  179.0120  142.6220 O   0  0  0  0  0  1  0  0  0  0  0  0
  181.7550  178.5950  141.3190 C   0  0  0  0  0  0  0  0  0  0  0  0
  2  1  1  0  0  0  0
  2  3  1  0  0  0  0
  4  2  2  0  0  0  0
  5  7  1  6  0  0  0
  5  4  1  0  0  0  0
  5  6  1  0  0  0  0
  6  3  2  0  0  0  0
  7 10  1  0  0  0  0
  8 12  1  0  0  0  0
 11  8  2  0  0  0  0
 11 13  1  0  0  0  0
 12  9  1  0  0  0  0
 12 10  2  0  0  0  0
 13  7  2  0  0  0  0
 14  8  1  0  0  0  0
 16 15  1  1  0  0  0
 16  4  1  0  0  0  0
 17 16  1  0  0  0  0
 18 17  1  0  0  0  0
 19 18  1  0  0  0  0
 20 19  1  0  0  0  0
 21 22  1  0  0  0  0
 21 19  1  0  0  0  0
 22 25  1  0  0  0  0
 23 25  2  0  0  0  0
 25 24  1  0  0  0  0
M  END
>  <MODEL>
9

>  <REMARK>
 VINA RESULT:      -7.3      3.336      5.400
  Name = 
  8 active torsions:
  status: ('A' for Active; 'I' for Inactive)
    1  A    between atoms: C_1  and  C_6
    2  A    between atoms: C_1  and  N_14
    3  A    between atoms: C_2  and  C_13
    4  A    between atoms: C_6  and  C_25
    5  A    between atoms: C_12  and  C_21
    6  A    between atoms: N_14  and  O_20
    7  A    between atoms: O_20  and  C_22
    8  A    between atoms: C_21  and  C_22
                            x       y       z     vdW  Elec       q    Type
                         _______ _______ _______ _____ _____    ______ ____

>  <TORSDO>
F 8

$$$$
