=
 OpenBabel11062416093D

 43 49  0  0  1  0  0  0  0  0999 V2000
  188.8410  179.6800  137.5930 O   0  0  0  0  0  1  0  0  0  0  0  0
  183.4230  176.7050  137.0200 C   0  0  0  0  0  0  0  0  0  0  0  0
  189.7040  176.3560  136.0450 C   0  0  2  0  0  3  0  0  0  0  0  0
  187.3480  177.7150  137.1200 C   0  0  2  0  0  3  0  0  0  0  0  0
  179.8600  177.1730  136.5990 O   0  0  0  0  0  0  0  0  0  0  0  0
  185.0870  175.3790  134.9420 C   0  0  0  0  0  2  0  0  0  0  0  0
  189.7640  177.7710  136.5840 C   0  0  0  0  0  3  0  0  0  0  0  0
  185.8330  174.0530  137.2180 O   0  0  0  0  0  0  0  0  0  0  0  0
  184.0100  178.4200  138.3440 N   0  0  0  0  0  0  0  0  0  0  0  0
  180.5480  176.3440  135.7080 C   0  0  0  0  0  0  0  0  0  0  0  0
  180.4630  177.9260  137.6580 C   0  0  2  0  0  3  0  0  0  0  0  0
  188.7030  178.3800  137.1240 C   0  0  0  0  0  0  0  0  0  0  0  0
  181.8170  176.7250  135.1840 N   0  0  0  0  0  2  0  0  0  0  0  0
  183.0120  177.9080  137.5880 C   0  0  0  0  0  0  0  0  0  0  0  0
  183.0440  176.1270  135.6790 C   0  0  1  0  0  3  0  0  0  0  0  0
  186.4680  178.0070  138.3180 C   0  0  0  0  0  0  0  0  0  0  0  0
  186.9000  178.6230  139.3290 O   0  0  0  0  0  0  0  0  0  0  0  0
  187.4630  176.2100  136.8490 C   0  0  1  0  0  3  0  0  0  0  0  0
  185.8260  175.4410  136.6210 P   0  0  1  0  0  0  0  0  0  0  0  0
  188.3260  175.9730  135.6960 N   0  0  0  0  0  2  0  0  0  0  0  0
  181.7510  178.6650  137.2610 C   0  0  0  0  0  2  0  0  0  0  0  0
  179.9990  175.2890  135.2960 O   0  0  0  0  0  0  0  0  0  0  0  0
  185.0590  177.5750  138.2470 C   0  0  0  0  0  0  0  0  0  0  0  0
  184.0960  176.3770  134.7670 O   0  0  0  0  0  0  0  0  0  0  0  0
  184.6850  176.4750  137.5060 C   0  0  0  0  0  0  0  0  0  0  0  0
  191.8270  174.6350  136.3880 S   0  0  0  0  0  0  0  0  0  0  0  0
  191.7990  173.1370  136.4980 O   0  0  0  0  0  0  0  0  0  0  0  0
  190.3280  175.3480  137.0270 C   0  0  1  0  0  3  0  0  0  0  0  0
  192.2140  176.4460  138.2270 C   0  0  0  0  0  2  0  0  0  0  0  0
  192.9800  175.3320  137.5370 C   0  0  2  0  0  3  0  0  0  0  0  0
  190.7490  176.0270  138.3290 C   0  0  0  0  0  2  0  0  0  0  0  0
  192.1250  175.0560  134.9760 O   0  0  0  0  0  0  0  0  0  0  0  0
  194.1310  175.8850  136.8420 N   0  0  0  0  0  2  0  0  0  0  0  0
  195.1790  174.8790  136.8800 C   0  0  0  0  0  2  0  0  0  0  0  0
  196.0150  172.9010  138.0920 C   0  0  0  0  0  2  0  0  0  0  0  0
  196.3870  174.1280  138.8960 C   0  0  0  0  0  2  0  0  0  0  0  0
  195.0650  174.0780  138.1600 C   0  0  0  0  0  3  0  0  0  0  0  0
  184.1260  179.6500  140.3190 O   0  0  0  0  0  1  0  0  0  0  0  0
  184.0320  179.7530  138.9320 C   0  0  0  0  0  2  0  0  0  0  0  0
  180.5840  177.1010  138.9390 C   0  0  0  0  0  2  0  0  0  0  0  0
  181.4180  177.9800  141.1170 O   0  0  0  0  0  1  0  0  0  0  0  0
  179.3960  178.6680  140.2850 O   0  0  0  0  0  0  0  0  0  0  0  0
  180.4330  177.9690  140.1400 C   0  0  0  0  0  0  0  0  0  0  0  0
  2 25  1  0  0  0  0
  2 14  2  0  0  0  0
  3  7  1  1  0  0  0
  3 28  1  0  0  0  0
  4 12  1  1  0  0  0
  4 16  1  0  0  0  0
  5 11  1  0  0  0  0
  6 19  1  0  0  0  0
  7 12  2  0  0  0  0
  9 39  1  0  0  0  0
 10  5  1  0  0  0  0
 11 40  1  1  0  0  0
 12  1  1  0  0  0  0
 13 15  1  0  0  0  0
 13 10  1  0  0  0  0
 14  9  1  0  0  0  0
 15 24  1  6  0  0  0
 15  2  1  0  0  0  0
 16 17  2  0  0  0  0
 18 20  1  6  0  0  0
 18  4  1  0  0  0  0
 19 18  1  0  0  0  0
 19  8  2  1  0  0  0
 19 25  1  0  0  0  0
 20  3  1  0  0  0  0
 21 14  1  0  0  0  0
 21 11  1  0  0  0  0
 22 10  2  0  0  0  0
 23 16  1  0  0  0  0
 23  9  1  0  0  0  0
 24  6  1  0  0  0  0
 25 23  2  0  0  0  0
 26 27  2  0  0  0  0
 26 28  1  0  0  0  0
 26 30  1  0  0  0  0
 28 31  1  1  0  0  0
 29 31  1  0  0  0  0
 30 33  1  6  0  0  0
 30 29  1  0  0  0  0
 32 26  2  0  0  0  0
 33 34  1  0  0  0  0
 34 37  1  0  0  0  0
 35 37  1  0  0  0  0
 35 36  1  0  0  0  0
 37 36  1  0  0  0  0
 39 38  1  0  0  0  0
 40 43  1  0  0  0  0
 43 42  2  0  0  0  0
 43 41  1  0  0  0  0
M  END
>  <MODEL>
1

>  <REMARK>
 VINA RESULT:      -6.5      0.000      0.000
  Name = 
  7 active torsions:
  status: ('A' for Active; 'I' for Inactive)
    1  A    between atoms: C_4  and  C_19
    2  A    between atoms: C_12  and  C_17
    3  A    between atoms: C_12  and  C_42
    4  A    between atoms: N_15  and  C_24
    5  A    between atoms: C_33  and  N_43
    6  A    between atoms: C_34  and  C_40
    7  A    between atoms: C_34  and  N_43
                            x       y       z     vdW  Elec       q    Type
                         _______ _______ _______ _____ _____    ______ ____

>  <TORSDO>
F 7

$$$$
=
 OpenBabel11062416093D

 43 49  0  0  1  0  0  0  0  0999 V2000
  184.0590  174.4850  135.7510 O   0  0  0  0  0  1  0  0  0  0  0  0
  190.1930  175.2000  136.3860 C   0  0  0  0  0  0  0  0  0  0  0  0
  184.4820  177.7160  137.6420 C   0  0  2  0  0  3  0  0  0  0  0  0
  186.1610  175.5450  136.6310 C   0  0  2  0  0  3  0  0  0  0  0  0
  193.3970  174.4200  134.8980 O   0  0  0  0  0  0  0  0  0  0  0  0
  189.2110  177.9970  136.6180 C   0  0  0  0  0  2  0  0  0  0  0  0
  183.9080  176.5420  136.8730 C   0  0  0  0  0  3  0  0  0  0  0  0
  188.8320  177.0360  139.1530 O   0  0  0  0  0  0  0  0  0  0  0  0
  188.9760  173.3590  135.9710 N   0  0  0  0  0  0  0  0  0  0  0  0
  193.0890  175.7510  135.1940 C   0  0  0  0  0  0  0  0  0  0  0  0
  192.5120  173.3090  135.0790 C   0  0  2  0  0  3  0  0  0  0  0  0
  184.6620  175.5210  136.4520 C   0  0  0  0  0  0  0  0  0  0  0  0
  191.8000  176.2860  134.9070 N   0  0  0  0  0  2  0  0  0  0  0  0
  190.1320  174.0000  135.6820 C   0  0  0  0  0  0  0  0  0  0  0  0
  190.8260  176.5020  135.9610 C   0  0  1  0  0  3  0  0  0  0  0  0
  186.8150  174.2020  136.8840 C   0  0  0  0  0  0  0  0  0  0  0  0
  186.1390  173.1600  137.1000 O   0  0  0  0  0  0  0  0  0  0  0  0
  186.5860  176.5910  137.6690 C   0  0  1  0  0  3  0  0  0  0  0  0
  188.3970  176.7820  137.7280 P   0  0  1  0  0  0  0  0  0  0  0  0
  185.9250  177.8640  137.3960 N   0  0  0  0  0  2  0  0  0  0  0  0
  191.0740  173.5550  134.5940 C   0  0  0  0  0  2  0  0  0  0  0  0
  193.9900  176.5100  135.6350 O   0  0  0  0  0  0  0  0  0  0  0  0
  188.2880  174.1430  136.8290 C   0  0  0  0  0  0  0  0  0  0  0  0
  189.8070  177.3670  135.4980 O   0  0  0  0  0  0  0  0  0  0  0  0
  189.0600  175.2370  137.1590 C   0  0  0  0  0  0  0  0  0  0  0  0
  183.8990  179.1970  139.8890 S   0  0  0  0  0  0  0  0  0  0  0  0
  184.7310  179.3700  141.1290 O   0  0  0  0  0  0  0  0  0  0  0  0
  184.1850  177.6060  139.1480 C   0  0  1  0  0  3  0  0  0  0  0  0
  181.7270  177.8020  139.5070 C   0  0  0  0  0  2  0  0  0  0  0  0
  182.1860  179.0120  140.2990 C   0  0  2  0  0  3  0  0  0  0  0  0
  182.8970  176.8240  139.4070 C   0  0  0  0  0  2  0  0  0  0  0  0
  184.1250  180.3400  138.9390 O   0  0  0  0  0  0  0  0  0  0  0  0
  181.4280  180.1830  139.8880 N   0  0  0  0  0  2  0  0  0  0  0  0
  180.7550  179.8420  138.6460 C   0  0  0  0  0  2  0  0  0  0  0  0
  181.1310  182.1580  137.8870 C   0  0  0  0  0  2  0  0  0  0  0  0
  180.6520  181.3540  136.6980 C   0  0  0  0  0  2  0  0  0  0  0  0
  180.0890  181.0770  138.0760 C   0  0  0  0  0  3  0  0  0  0  0  0
  188.3360  171.1300  136.1920 O   0  0  0  0  0  1  0  0  0  0  0  0
  188.4630  172.1810  135.2850 C   0  0  0  0  0  2  0  0  0  0  0  0
  192.6060  172.7360  136.4930 C   0  0  0  0  0  2  0  0  0  0  0  0
  194.5060  173.5370  137.8920 O   0  0  0  0  0  1  0  0  0  0  0  0
  194.7980  171.8070  136.4170 O   0  0  0  0  0  0  0  0  0  0  0  0
  194.0250  172.6550  136.9350 C   0  0  0  0  0  0  0  0  0  0  0  0
  1 12  1  0  0  0  0
  2 25  1  0  0  0  0
  3  7  1  6  0  0  0
  3 28  1  0  0  0  0
  4 12  1  1  0  0  0
  4 16  1  0  0  0  0
  4 18  1  0  0  0  0
  5 11  1  0  0  0  0
  5 10  1  0  0  0  0
  6 19  1  0  0  0  0
  9 23  1  0  0  0  0
 10 22  2  0  0  0  0
 11 40  1  1  0  0  0
 12  7  2  0  0  0  0
 13 10  1  0  0  0  0
 14  9  1  0  0  0  0
 14  2  2  0  0  0  0
 15 13  1  6  0  0  0
 15  2  1  0  0  0  0
 16 17  2  0  0  0  0
 18 20  1  6  0  0  0
 18 19  1  0  0  0  0
 19  8  2  1  0  0  0
 20  3  1  0  0  0  0
 21 11  1  0  0  0  0
 21 14  1  0  0  0  0
 23 16  1  0  0  0  0
 23 25  2  0  0  0  0
 24 15  1  0  0  0  0
 24  6  1  0  0  0  0
 25 19  1  0  0  0  0
 26 30  1  0  0  0  0
 26 27  2  0  0  0  0
 28 31  1  6  0  0  0
 28 26  1  0  0  0  0
 29 30  1  0  0  0  0
 30 33  1  6  0  0  0
 31 29  1  0  0  0  0
 32 26  2  0  0  0  0
 34 33  1  0  0  0  0
 35 37  1  0  0  0  0
 36 35  1  0  0  0  0
 36 37  1  0  0  0  0
 37 34  1  0  0  0  0
 39  9  1  0  0  0  0
 39 38  1  0  0  0  0
 40 43  1  0  0  0  0
 42 43  2  0  0  0  0
 43 41  1  0  0  0  0
M  END
>  <MODEL>
2

>  <REMARK>
 VINA RESULT:      -5.8      2.885     10.353
  Name = 
  7 active torsions:
  status: ('A' for Active; 'I' for Inactive)
    1  A    between atoms: C_4  and  C_19
    2  A    between atoms: C_12  and  C_17
    3  A    between atoms: C_12  and  C_42
    4  A    between atoms: N_15  and  C_24
    5  A    between atoms: C_33  and  N_43
    6  A    between atoms: C_34  and  C_40
    7  A    between atoms: C_34  and  N_43
                            x       y       z     vdW  Elec       q    Type
                         _______ _______ _______ _____ _____    ______ ____

>  <TORSDO>
F 7

$$$$
=
 OpenBabel11062416093D

 43 49  0  0  1  0  0  0  0  0999 V2000
  189.0550  172.2860  137.1120 O   0  0  0  0  0  1  0  0  0  0  0  0
  185.6360  177.4610  137.3640 C   0  0  0  0  0  0  0  0  0  0  0  0
  191.5320  175.1140  136.8620 C   0  0  2  0  0  3  0  0  0  0  0  0
  188.6310  174.7580  136.9610 C   0  0  2  0  0  3  0  0  0  0  0  0
  182.5500  178.8690  138.6220 O   0  0  0  0  0  0  0  0  0  0  0  0
  188.2920  178.4220  138.2940 C   0  0  0  0  0  2  0  0  0  0  0  0
  190.8900  173.7470  136.9910 C   0  0  0  0  0  3  0  0  0  0  0  0
  188.5780  178.4720  135.5720 O   0  0  0  0  0  0  0  0  0  0  0  0
  185.0580  175.3580  136.8320 N   0  0  0  0  0  0  0  0  0  0  0  0
  183.7590  179.5090  138.9130 C   0  0  0  0  0  0  0  0  0  0  0  0
  182.4210  177.6380  137.9020 C   0  0  2  0  0  3  0  0  0  0  0  0
  189.5640  173.5720  136.9860 C   0  0  0  0  0  0  0  0  0  0  0  0
  184.9100  178.7610  139.2950 N   0  0  0  0  0  2  0  0  0  0  0  0
  184.6520  176.4820  137.4660 C   0  0  0  0  0  0  0  0  0  0  0  0
  185.9990  178.5310  138.3640 C   0  0  1  0  0  3  0  0  0  0  0  0
  187.3340  174.5600  136.2020 C   0  0  0  0  0  0  0  0  0  0  0  0
  187.1230  173.5360  135.4980 O   0  0  0  0  0  0  0  0  0  0  0  0
  189.3580  176.0360  136.5210 C   0  0  1  0  0  3  0  0  0  0  0  0
  188.2990  177.5080  136.7020 P   0  0  1  0  0  0  0  0  0  0  0  0
  190.6040  176.1820  137.2670 N   0  0  0  0  0  2  0  0  0  0  0  0
  183.4160  176.5450  138.3250 C   0  0  0  0  0  2  0  0  0  0  0  0
  183.8060  180.7660  138.9220 O   0  0  0  0  0  0  0  0  0  0  0  0
  186.2960  175.5980  136.3480 C   0  0  0  0  0  0  0  0  0  0  0  0
  187.1500  178.1120  139.0730 O   0  0  0  0  0  0  0  0  0  0  0  0
  186.6300  176.9130  136.5930 C   0  0  0  0  0  0  0  0  0  0  0  0
  193.7620  175.9010  135.4500 S   0  0  0  0  0  0  0  0  0  0  0  0
  193.9360  177.1260  134.5980 O   0  0  0  0  0  0  0  0  0  0  0  0
  192.0690  175.3550  135.4400 C   0  0  1  0  0  3  0  0  0  0  0  0
  193.4580  173.4040  134.7550 C   0  0  0  0  0  2  0  0  0  0  0  0
  194.5150  174.4910  134.6890 C   0  0  2  0  0  3  0  0  0  0  0  0
  192.0860  174.0630  134.6240 C   0  0  0  0  0  2  0  0  0  0  0  0
  194.2960  176.1400  136.8340 O   0  0  0  0  0  0  0  0  0  0  0  0
  195.6940  174.0730  135.4310 N   0  0  0  0  0  2  0  0  0  0  0  0
  195.5470  172.6530  135.7040 C   0  0  0  0  0  2  0  0  0  0  0  0
  195.4770  172.9700  138.1480 C   0  0  0  0  0  2  0  0  0  0  0  0
  195.2910  171.4940  137.8680 C   0  0  0  0  0  2  0  0  0  0  0  0
  196.2320  172.3150  137.0110 C   0  0  0  0  0  3  0  0  0  0  0  0
  184.8670  173.3440  137.9870 O   0  0  0  0  0  1  0  0  0  0  0  0
  184.3950  174.0630  136.8900 C   0  0  0  0  0  2  0  0  0  0  0  0
  182.3510  177.8710  136.3930 C   0  0  0  0  0  2  0  0  0  0  0  0
  181.0490  179.6680  135.2600 O   0  0  0  0  0  0  0  0  0  0  0  0
  179.9720  178.0070  136.4160 O   0  0  0  0  0  1  0  0  0  0  0  0
  181.0570  178.5060  136.0180 C   0  0  0  0  0  0  0  0  0  0  0  0
  2 14  2  0  0  0  0
  3  7  1  6  0  0  0
  3 20  1  0  0  0  0
  4 16  1  6  0  0  0
  4 12  1  0  0  0  0
  5 10  1  0  0  0  0
  6 24  1  0  0  0  0
  9 39  1  0  0  0  0
  9 14  1  0  0  0  0
 10 22  2  0  0  0  0
 10 13  1  0  0  0  0
 11 40  1  6  0  0  0
 11 21  1  0  0  0  0
 11  5  1  0  0  0  0
 12  7  2  0  0  0  0
 12  1  1  0  0  0  0
 14 21  1  0  0  0  0
 15  2  1  6  0  0  0
 15 24  1  0  0  0  0
 15 13  1  0  0  0  0
 16 23  1  0  0  0  0
 17 16  2  0  0  0  0
 18 19  1  0  0  0  0
 18  4  1  0  0  0  0
 18 20  1  1  0  0  0
 19  8  2  6  0  0  0
 19  6  1  0  0  0  0
 23 25  2  0  0  0  0
 23  9  1  0  0  0  0
 25 19  1  0  0  0  0
 25  2  1  0  0  0  0
 26 32  2  0  0  0  0
 27 26  2  0  0  0  0
 28 31  1  6  0  0  0
 28 26  1  0  0  0  0
 28  3  1  0  0  0  0
 30 29  1  0  0  0  0
 30 33  1  1  0  0  0
 30 26  1  0  0  0  0
 31 29  1  0  0  0  0
 33 34  1  0  0  0  0
 34 37  1  0  0  0  0
 36 35  1  0  0  0  0
 37 36  1  0  0  0  0
 37 35  1  0  0  0  0
 39 38  1  0  0  0  0
 41 43  2  0  0  0  0
 43 40  1  0  0  0  0
 43 42  1  0  0  0  0
M  END
>  <MODEL>
3

>  <REMARK>
 VINA RESULT:      -5.8      2.101      4.256
  Name = 
  7 active torsions:
  status: ('A' for Active; 'I' for Inactive)
    1  A    between atoms: C_4  and  C_19
    2  A    between atoms: C_12  and  C_17
    3  A    between atoms: C_12  and  C_42
    4  A    between atoms: N_15  and  C_24
    5  A    between atoms: C_33  and  N_43
    6  A    between atoms: C_34  and  C_40
    7  A    between atoms: C_34  and  N_43
                            x       y       z     vdW  Elec       q    Type
                         _______ _______ _______ _____ _____    ______ ____

>  <TORSDO>
F 7

$$$$
=
 OpenBabel11062416093D

 43 49  0  0  1  0  0  0  0  0999 V2000
  186.4560  178.8120  137.9490 O   0  0  0  0  0  1  0  0  0  0  0  0
  191.8950  176.0490  139.0940 C   0  0  0  0  0  0  0  0  0  0  0  0
  186.8800  178.9890  141.6880 C   0  0  2  0  0  3  0  0  0  0  0  0
  188.2620  177.8230  139.3890 C   0  0  2  0  0  3  0  0  0  0  0  0
  195.1480  175.3020  137.6970 O   0  0  0  0  0  0  0  0  0  0  0  0
  191.5750  177.8070  141.4710 C   0  0  0  0  0  2  0  0  0  0  0  0
  186.3790  179.1680  140.2690 C   0  0  0  0  0  3  0  0  0  0  0  0
  190.0670  175.6280  142.1540 O   0  0  0  0  0  0  0  0  0  0  0  0
  190.5300  175.8970  137.3190 N   0  0  0  0  0  0  0  0  0  0  0  0
  195.0700  175.9360  138.9410 C   0  0  0  0  0  0  0  0  0  0  0  0
  194.0270  174.9660  136.8710 C   0  0  2  0  0  3  0  0  0  0  0  0
  186.9770  178.5960  139.2180 C   0  0  0  0  0  0  0  0  0  0  0  0
  194.1420  176.9940  139.1670 N   0  0  0  0  0  2  0  0  0  0  0  0
  191.8240  175.9420  137.7080 C   0  0  0  0  0  0  0  0  0  0  0  0
  192.9240  176.7740  139.9260 C   0  0  1  0  0  3  0  0  0  0  0  0
  188.4430  176.6350  138.4660 C   0  0  0  0  0  0  0  0  0  0  0  0
  187.5140  176.2190  137.7240 O   0  0  0  0  0  0  0  0  0  0  0  0
  188.4990  177.4460  140.8570 C   0  0  1  0  0  3  0  0  0  0  0  0
  190.1490  176.7120  141.1050 P   0  0  1  0  0  0  0  0  0  0  0  0
  188.3030  178.6130  141.7110 N   0  0  0  0  0  2  0  0  0  0  0  0
  192.9730  176.0780  136.7430 C   0  0  0  0  0  2  0  0  0  0  0  0
  195.8910  175.6280  139.8440 O   0  0  0  0  0  0  0  0  0  0  0  0
  189.7730  175.9980  138.4330 C   0  0  0  0  0  0  0  0  0  0  0  0
  192.3830  178.0180  140.3260 O   0  0  0  0  0  0  0  0  0  0  0  0
  190.5970  176.0060  139.5390 C   0  0  0  0  0  0  0  0  0  0  0  0
  186.7130  177.6080  144.0660 S   0  0  0  0  0  0  0  0  0  0  0  0
  186.8050  176.1250  144.2860 O   0  0  0  0  0  0  0  0  0  0  0  0
  186.0260  177.9720  142.4660 C   0  0  1  0  0  3  0  0  0  0  0  0
  184.6390  179.1900  144.1390 C   0  0  0  0  0  2  0  0  0  0  0  0
  185.4500  178.3200  145.0820 C   0  0  2  0  0  3  0  0  0  0  0  0
  184.6330  178.5260  142.7630 C   0  0  0  0  0  2  0  0  0  0  0  0
  188.0480  178.2610  144.2970 O   0  0  0  0  0  0  0  0  0  0  0  0
  186.0330  179.1450  146.1280 N   0  0  0  0  0  2  0  0  0  0  0  0
  186.4470  178.2500  147.1970 C   0  0  0  0  0  2  0  0  0  0  0  0
  188.2310  177.8780  148.8570 C   0  0  0  0  0  2  0  0  0  0  0  0
  188.6080  177.1280  147.5980 C   0  0  0  0  0  2  0  0  0  0  0  0
  187.9140  178.4700  147.5010 C   0  0  0  0  0  3  0  0  0  0  0  0
  189.9550  177.3260  135.5710 O   0  0  0  0  0  1  0  0  0  0  0  0
  190.0520  175.9870  135.9460 C   0  0  0  0  0  2  0  0  0  0  0  0
  193.4510  173.5970  137.2320 C   0  0  0  0  0  2  0  0  0  0  0  0
  195.0560  172.3030  138.6320 O   0  0  0  0  0  1  0  0  0  0  0  0
  195.0110  172.0220  136.3580 O   0  0  0  0  0  0  0  0  0  0  0  0
  194.5380  172.5900  137.3770 C   0  0  0  0  0  0  0  0  0  0  0  0
  1 12  1  0  0  0  0
  2 25  1  0  0  0  0
  3  7  1  6  0  0  0
  3 20  1  0  0  0  0
  3 28  1  0  0  0  0
  4 16  1  6  0  0  0
  4 18  1  0  0  0  0
  5 10  1  0  0  0  0
  9 14  1  0  0  0  0
  9 23  1  0  0  0  0
 10 13  1  0  0  0  0
 10 22  2  0  0  0  0
 11 40  1  1  0  0  0
 11  5  1  0  0  0  0
 12  4  1  0  0  0  0
 12  7  2  0  0  0  0
 13 15  1  0  0  0  0
 14  2  2  0  0  0  0
 15  2  1  6  0  0  0
 15 24  1  0  0  0  0
 17 16  2  0  0  0  0
 18 19  1  0  0  0  0
 18 20  1  1  0  0  0
 19  6  1  0  0  0  0
 19  8  2  1  0  0  0
 21 11  1  0  0  0  0
 21 14  1  0  0  0  0
 23 16  1  0  0  0  0
 23 25  2  0  0  0  0
 24  6  1  0  0  0  0
 25 19  1  0  0  0  0
 26 27  2  0  0  0  0
 26 32  2  0  0  0  0
 26 30  1  0  0  0  0
 28 31  1  1  0  0  0
 28 26  1  0  0  0  0
 29 30  1  0  0  0  0
 30 33  1  1  0  0  0
 31 29  1  0  0  0  0
 33 34  1  0  0  0  0
 34 37  1  0  0  0  0
 36 35  1  0  0  0  0
 37 36  1  0  0  0  0
 37 35  1  0  0  0  0
 38 39  1  0  0  0  0
 39  9  1  0  0  0  0
 40 43  1  0  0  0  0
 42 43  2  0  0  0  0
 43 41  1  0  0  0  0
M  END
>  <MODEL>
4

>  <REMARK>
 VINA RESULT:      -5.8      4.804     10.379
  Name = 
  7 active torsions:
  status: ('A' for Active; 'I' for Inactive)
    1  A    between atoms: C_4  and  C_19
    2  A    between atoms: C_12  and  C_17
    3  A    between atoms: C_12  and  C_42
    4  A    between atoms: N_15  and  C_24
    5  A    between atoms: C_33  and  N_43
    6  A    between atoms: C_34  and  C_40
    7  A    between atoms: C_34  and  N_43
                            x       y       z     vdW  Elec       q    Type
                         _______ _______ _______ _____ _____    ______ ____

>  <TORSDO>
F 7

$$$$
=
 OpenBabel11062416093D

 43 49  0  0  1  0  0  0  0  0999 V2000
  193.3730  177.5280  139.1290 O   0  0  0  0  0  1  0  0  0  0  0  0
  187.6530  176.3060  137.0500 C   0  0  0  0  0  0  0  0  0  0  0  0
  193.7890  174.6420  136.7420 C   0  0  2  0  0  3  0  0  0  0  0  0
  191.6140  176.2140  137.9060 C   0  0  2  0  0  3  0  0  0  0  0  0
  184.4080  177.7640  136.3880 O   0  0  0  0  0  0  0  0  0  0  0  0
  189.3550  175.2140  134.8710 C   0  0  0  0  0  2  0  0  0  0  0  0
  194.0440  175.7940  137.6940 C   0  0  0  0  0  3  0  0  0  0  0  0
  189.3720  173.1760  136.6980 O   0  0  0  0  0  0  0  0  0  0  0  0
  188.3320  177.3890  138.8960 N   0  0  0  0  0  0  0  0  0  0  0  0
  185.0590  177.0600  135.3700 C   0  0  0  0  0  0  0  0  0  0  0  0
  184.9490  178.0220  137.6890 C   0  0  2  0  0  3  0  0  0  0  0  0
  193.0540  176.4840  138.2690 C   0  0  0  0  0  0  0  0  0  0  0  0
  186.4550  177.2320  135.1380 N   0  0  0  0  0  2  0  0  0  0  0  0
  187.4060  177.3730  137.9100 C   0  0  0  0  0  0  0  0  0  0  0  0
  187.4150  176.2300  135.5620 C   0  0  1  0  0  3  0  0  0  0  0  0
  190.6090  176.3840  139.0270 C   0  0  0  0  0  0  0  0  0  0  0  0
  190.9660  176.5720  140.2200 O   0  0  0  0  0  0  0  0  0  0  0  0
  191.4580  174.8610  137.2000 C   0  0  1  0  0  3  0  0  0  0  0  0
  189.7670  174.6270  136.5610 P   0  0  1  0  0  0  0  0  0  0  0  0
  192.4510  174.7340  136.1380 N   0  0  0  0  0  2  0  0  0  0  0  0
  186.4150  178.4860  137.6890 C   0  0  0  0  0  2  0  0  0  0  0  0
  184.3870  176.3340  134.5940 O   0  0  0  0  0  0  0  0  0  0  0  0
  189.1790  176.3630  138.6650 C   0  0  0  0  0  0  0  0  0  0  0  0
  188.6470  176.4400  134.8990 O   0  0  0  0  0  0  0  0  0  0  0  0
  188.7260  175.6380  137.5830 C   0  0  0  0  0  0  0  0  0  0  0  0
  194.6230  172.0540  136.3090 S   0  0  0  0  0  0  0  0  0  0  0  0
  193.8100  170.7920  136.3830 O   0  0  0  0  0  0  0  0  0  0  0  0
  193.9950  173.2820  137.4310 C   0  0  1  0  0  3  0  0  0  0  0  0
  196.4130  172.9960  137.9570 C   0  0  0  0  0  2  0  0  0  0  0  0
  196.2260  171.8150  137.0220 C   0  0  2  0  0  3  0  0  0  0  0  0
  195.0490  173.3690  138.5350 C   0  0  0  0  0  2  0  0  0  0  0  0
  194.7110  172.5420  134.8900 O   0  0  0  0  0  0  0  0  0  0  0  0
  197.2550  171.8340  135.9960 N   0  0  0  0  0  2  0  0  0  0  0  0
  197.8980  173.1360  136.0590 C   0  0  0  0  0  2  0  0  0  0  0  0
  197.2740  175.0290  134.6080 C   0  0  0  0  0  2  0  0  0  0  0  0
  198.7820  175.0160  134.7270 C   0  0  0  0  0  2  0  0  0  0  0  0
  198.0160  173.7110  134.6640 C   0  0  0  0  0  3  0  0  0  0  0  0
  188.3410  177.9640  141.1540 O   0  0  0  0  0  1  0  0  0  0  0  0
  188.5240  178.4600  139.8640 C   0  0  0  0  0  2  0  0  0  0  0  0
  184.6550  176.8780  138.6590 C   0  0  0  0  0  2  0  0  0  0  0  0
  182.5210  177.9260  139.4080 O   0  0  0  0  0  1  0  0  0  0  0  0
  182.5850  175.7090  138.8290 O   0  0  0  0  0  0  0  0  0  0  0  0
  183.1980  176.8020  138.9570 C   0  0  0  0  0  0  0  0  0  0  0  0
  2 25  1  0  0  0  0
  2 14  2  0  0  0  0
  3 28  1  0  0  0  0
  3  7  1  1  0  0  0
  4 12  1  1  0  0  0
  4 16  1  0  0  0  0
  5 11  1  0  0  0  0
  6 24  1  0  0  0  0
  6 19  1  0  0  0  0
  7 12  2  0  0  0  0
  9 39  1  0  0  0  0
 10  5  1  0  0  0  0
 11 40  1  1  0  0  0
 12  1  1  0  0  0  0
 13 10  1  0  0  0  0
 13 15  1  0  0  0  0
 14  9  1  0  0  0  0
 15 24  1  6  0  0  0
 15  2  1  0  0  0  0
 16 17  2  0  0  0  0
 18 20  1  6  0  0  0
 18  4  1  0  0  0  0
 19  8  2  1  0  0  0
 19 18  1  0  0  0  0
 19 25  1  0  0  0  0
 20  3  1  0  0  0  0
 21 11  1  0  0  0  0
 21 14  1  0  0  0  0
 22 10  2  0  0  0  0
 23  9  1  0  0  0  0
 23 16  1  0  0  0  0
 25 23  2  0  0  0  0
 26 27  2  0  0  0  0
 26 30  1  0  0  0  0
 26 28  1  0  0  0  0
 28 31  1  1  0  0  0
 29 31  1  0  0  0  0
 30 33  1  6  0  0  0
 30 29  1  0  0  0  0
 32 26  2  0  0  0  0
 33 34  1  0  0  0  0
 35 37  1  0  0  0  0
 35 36  1  0  0  0  0
 37 36  1  0  0  0  0
 37 34  1  0  0  0  0
 39 38  1  0  0  0  0
 40 43  1  0  0  0  0
 42 43  2  0  0  0  0
 43 41  1  0  0  0  0
M  END
>  <MODEL>
5

>  <REMARK>
 VINA RESULT:      -5.8      2.595      4.402
  Name = 
  7 active torsions:
  status: ('A' for Active; 'I' for Inactive)
    1  A    between atoms: C_4  and  C_19
    2  A    between atoms: C_12  and  C_17
    3  A    between atoms: C_12  and  C_42
    4  A    between atoms: N_15  and  C_24
    5  A    between atoms: C_33  and  N_43
    6  A    between atoms: C_34  and  C_40
    7  A    between atoms: C_34  and  N_43
                            x       y       z     vdW  Elec       q    Type
                         _______ _______ _______ _____ _____    ______ ____

>  <TORSDO>
F 7

$$$$
=
 OpenBabel11062416093D

 43 49  0  0  1  0  0  0  0  0999 V2000
  188.1180  173.3450  135.8790 O   0  0  0  0  0  1  0  0  0  0  0  0
  186.3010  178.1290  139.3930 C   0  0  0  0  0  0  0  0  0  0  0  0
  191.2990  174.8050  137.2730 C   0  0  2  0  0  3  0  0  0  0  0  0
  188.4370  175.4060  137.2820 C   0  0  2  0  0  3  0  0  0  0  0  0
  183.5800  179.4160  141.4010 O   0  0  0  0  0  0  0  0  0  0  0  0
  188.9410  177.4490  140.5810 C   0  0  0  0  0  2  0  0  0  0  0  0
  190.2860  173.9180  136.5780 C   0  0  0  0  0  3  0  0  0  0  0  0
  189.6500  178.9990  138.4390 O   0  0  0  0  0  0  0  0  0  0  0  0
  185.2440  177.0640  137.7230 N   0  0  0  0  0  0  0  0  0  0  0  0
  184.8590  179.3350  141.9590 C   0  0  0  0  0  0  0  0  0  0  0  0
  183.2230  178.9660  140.0890 C   0  0  2  0  0  3  0  0  0  0  0  0
  188.9820  174.2130  136.5350 C   0  0  0  0  0  0  0  0  0  0  0  0
  185.6780  178.1880  141.7500 N   0  0  0  0  0  2  0  0  0  0  0  0
  185.0770  177.6540  138.9290 C   0  0  0  0  0  0  0  0  0  0  0  0
  186.7900  178.2180  140.8170 C   0  0  1  0  0  3  0  0  0  0  0  0
  187.2710  176.1180  136.6250 C   0  0  0  0  0  0  0  0  0  0  0  0
  186.8930  175.8390  135.4550 O   0  0  0  0  0  0  0  0  0  0  0  0
  189.5540  176.3820  137.6720 C   0  0  1  0  0  3  0  0  0  0  0  0
  188.9380  177.7060  138.7630 P   0  0  1  0  0  0  0  0  0  0  0  0
  190.6590  175.6550  138.2900 N   0  0  0  0  0  2  0  0  0  0  0  0
  183.7910  177.5880  139.7110 C   0  0  0  0  0  2  0  0  0  0  0  0
  185.2570  180.2480  142.7280 O   0  0  0  0  0  0  0  0  0  0  0  0
  186.5590  177.1330  137.4230 C   0  0  0  0  0  0  0  0  0  0  0  0
  187.6510  177.1240  141.0670 O   0  0  0  0  0  0  0  0  0  0  0  0
  187.2070  177.8590  138.3990 C   0  0  0  0  0  0  0  0  0  0  0  0
  193.8210  175.7480  136.6930 S   0  0  0  0  0  0  0  0  0  0  0  0
  194.2980  177.1730  136.6790 O   0  0  0  0  0  0  0  0  0  0  0  0
  192.0970  175.6510  136.2650 C   0  0  1  0  0  3  0  0  0  0  0  0
  193.3110  174.1290  134.7110 C   0  0  0  0  0  2  0  0  0  0  0  0
  194.4990  174.8410  135.3320 C   0  0  2  0  0  3  0  0  0  0  0  0
  192.0810  175.0210  134.8730 C   0  0  0  0  0  2  0  0  0  0  0  0
  194.1390  175.0980  138.0110 O   0  0  0  0  0  0  0  0  0  0  0  0
  195.4690  173.8630  135.7970 N   0  0  0  0  0  2  0  0  0  0  0  0
  194.8000  172.5720  135.8120 C   0  0  0  0  0  2  0  0  0  0  0  0
  195.5780  171.4740  137.8780 C   0  0  0  0  0  2  0  0  0  0  0  0
  194.9220  170.4190  137.0130 C   0  0  0  0  0  2  0  0  0  0  0  0
  195.7370  171.5230  136.3730 C   0  0  0  0  0  3  0  0  0  0  0  0
  183.6870  177.0420  135.9910 O   0  0  0  0  0  1  0  0  0  0  0  0
  184.2420  176.2780  137.0160 C   0  0  0  0  0  2  0  0  0  0  0  0
  183.4570  180.0500  139.0370 C   0  0  0  0  0  2  0  0  0  0  0  0
  181.4920  179.4980  137.6080 O   0  0  0  0  0  0  0  0  0  0  0  0
  181.7340  181.6010  138.4870 O   0  0  0  0  0  1  0  0  0  0  0  0
  182.1780  180.4280  138.3760 C   0  0  0  0  0  0  0  0  0  0  0  0
  1 12  1  0  0  0  0
  3  7  1  6  0  0  0
  3 20  1  0  0  0  0
  4 12  1  6  0  0  0
  4 18  1  0  0  0  0
  5 10  1  0  0  0  0
  6 24  1  0  0  0  0
  9 14  1  0  0  0  0
 10 22  2  0  0  0  0
 11 40  1  6  0  0  0
 11  5  1  0  0  0  0
 12  7  2  0  0  0  0
 13 10  1  0  0  0  0
 14  2  2  0  0  0  0
 14 21  1  0  0  0  0
 15  2  1  6  0  0  0
 15 24  1  0  0  0  0
 15 13  1  0  0  0  0
 16  4  1  0  0  0  0
 16 23  1  0  0  0  0
 17 16  2  0  0  0  0
 18 20  1  1  0  0  0
 18 19  1  0  0  0  0
 19  8  2  6  0  0  0
 19  6  1  0  0  0  0
 21 11  1  0  0  0  0
 23  9  1  0  0  0  0
 23 25  2  0  0  0  0
 25 19  1  0  0  0  0
 25  2  1  0  0  0  0
 26 32  2  0  0  0  0
 27 26  2  0  0  0  0
 28 31  1  6  0  0  0
 28 26  1  0  0  0  0
 28  3  1  0  0  0  0
 29 31  1  0  0  0  0
 29 30  1  0  0  0  0
 30 33  1  1  0  0  0
 30 26  1  0  0  0  0
 33 34  1  0  0  0  0
 34 37  1  0  0  0  0
 36 35  1  0  0  0  0
 37 36  1  0  0  0  0
 37 35  1  0  0  0  0
 38 39  1  0  0  0  0
 39  9  1  0  0  0  0
 41 43  2  0  0  0  0
 43 42  1  0  0  0  0
 43 40  1  0  0  0  0
M  END
>  <MODEL>
6

>  <REMARK>
 VINA RESULT:      -5.0      2.468      4.624
  Name = 
  7 active torsions:
  status: ('A' for Active; 'I' for Inactive)
    1  A    between atoms: C_4  and  C_19
    2  A    between atoms: C_12  and  C_17
    3  A    between atoms: C_12  and  C_42
    4  A    between atoms: N_15  and  C_24
    5  A    between atoms: C_33  and  N_43
    6  A    between atoms: C_34  and  C_40
    7  A    between atoms: C_34  and  N_43
                            x       y       z     vdW  Elec       q    Type
                         _______ _______ _______ _____ _____    ______ ____

>  <TORSDO>
F 7

$$$$
=
 OpenBabel11062416093D

 43 49  0  0  1  0  0  0  0  0999 V2000
  188.8140  176.1820  141.3280 O   0  0  0  0  0  1  0  0  0  0  0  0
  183.4920  179.3760  141.2060 C   0  0  0  0  0  0  0  0  0  0  0  0
  187.9600  176.8100  144.9430 C   0  0  2  0  0  3  0  0  0  0  0  0
  186.9330  177.5340  142.3030 C   0  0  2  0  0  3  0  0  0  0  0  0
  180.4790  179.9660  139.2920 O   0  0  0  0  0  0  0  0  0  0  0  0
  183.4160  178.1380  143.9090 C   0  0  0  0  0  2  0  0  0  0  0  0
  188.6030  176.3150  143.6630 C   0  0  0  0  0  3  0  0  0  0  0  0
  184.9900  180.3390  144.3210 O   0  0  0  0  0  0  0  0  0  0  0  0
  185.0560  179.0890  139.6200 N   0  0  0  0  0  0  0  0  0  0  0  0
  180.3710  179.6020  140.6370 C   0  0  0  0  0  0  0  0  0  0  0  0
  181.7060  180.0700  138.5620 C   0  0  2  0  0  3  0  0  0  0  0  0
  188.1710  176.6830  142.4530 C   0  0  0  0  0  0  0  0  0  0  0  0
  181.1890  178.5730  141.1860 N   0  0  0  0  0  2  0  0  0  0  0  0
  183.7260  179.1870  139.8460 C   0  0  0  0  0  0  0  0  0  0  0  0
  182.3270  178.8880  142.0310 C   0  0  1  0  0  3  0  0  0  0  0  0
  186.9410  178.5100  141.1440 C   0  0  0  0  0  0  0  0  0  0  0  0
  187.9760  178.7190  140.4550 O   0  0  0  0  0  0  0  0  0  0  0  0
  186.5600  178.2190  143.6230 C   0  0  1  0  0  3  0  0  0  0  0  0
  184.9490  179.0650  143.5100 P   0  0  1  0  0  0  0  0  0  0  0  0
  186.5750  177.2480  144.7120 N   0  0  0  0  0  2  0  0  0  0  0  0
  182.6850  178.9070  138.7920 C   0  0  0  0  0  2  0  0  0  0  0  0
  179.4780  180.1300  141.3500 O   0  0  0  0  0  0  0  0  0  0  0  0
  185.6730  179.1880  140.8180 C   0  0  0  0  0  0  0  0  0  0  0  0
  182.7290  177.7310  142.7380 O   0  0  0  0  0  0  0  0  0  0  0  0
  184.7310  179.4490  141.7900 C   0  0  0  0  0  0  0  0  0  0  0  0
  189.2410  177.5240  147.2740 S   0  0  0  0  0  0  0  0  0  0  0  0
  188.9110  178.6550  148.2060 O   0  0  0  0  0  0  0  0  0  0  0  0
  188.7920  177.9250  145.6010 C   0  0  1  0  0  3  0  0  0  0  0  0
  191.1960  177.2740  145.5640 C   0  0  0  0  0  2  0  0  0  0  0  0
  190.9930  177.3690  147.0650 C   0  0  2  0  0  3  0  0  0  0  0  0
  190.1260  178.1240  144.8820 C   0  0  0  0  0  2  0  0  0  0  0  0
  188.6220  176.2420  147.7600 O   0  0  0  0  0  0  0  0  0  0  0  0
  191.4830  176.1580  147.7030 N   0  0  0  0  0  2  0  0  0  0  0  0
  192.8460  176.4230  148.1330 C   0  0  0  0  0  2  0  0  0  0  0  0
  194.3070  176.8240  150.0780 C   0  0  0  0  0  2  0  0  0  0  0  0
  193.2380  177.8950  150.0750 C   0  0  0  0  0  2  0  0  0  0  0  0
  192.8970  176.4840  149.6450 C   0  0  0  0  0  3  0  0  0  0  0  0
  185.4170  177.3460  138.1180 O   0  0  0  0  0  1  0  0  0  0  0  0
  185.6770  178.6930  138.3640 C   0  0  0  0  0  2  0  0  0  0  0  0
  182.3350  181.4550  138.7080 C   0  0  0  0  0  2  0  0  0  0  0  0
  180.7860  181.9920  136.8310 O   0  0  0  0  0  0  0  0  0  0  0  0
  181.9160  183.6640  137.9170 O   0  0  0  0  0  1  0  0  0  0  0  0
  181.6630  182.4350  137.8100 C   0  0  0  0  0  0  0  0  0  0  0  0
  1 12  1  0  0  0  0
  2 25  1  0  0  0  0
  2 15  1  0  0  0  0
  3  7  1  6  0  0  0
  3 28  1  0  0  0  0
  4 16  1  6  0  0  0
  4 12  1  0  0  0  0
  4 18  1  0  0  0  0
  5 10  1  0  0  0  0
  9 14  1  0  0  0  0
  9 23  1  0  0  0  0
 10 13  1  0  0  0  0
 10 22  2  0  0  0  0
 11 40  1  1  0  0  0
 11 21  1  0  0  0  0
 11  5  1  0  0  0  0
 12  7  2  0  0  0  0
 14  2  2  0  0  0  0
 15 13  1  6  0  0  0
 15 24  1  0  0  0  0
 17 16  2  0  0  0  0
 18 20  1  1  0  0  0
 19 18  1  0  0  0  0
 19  6  1  0  0  0  0
 19  8  2  1  0  0  0
 20  3  1  0  0  0  0
 21 14  1  0  0  0  0
 23 16  1  0  0  0  0
 23 25  2  0  0  0  0
 24  6  1  0  0  0  0
 25 19  1  0  0  0  0
 26 32  2  0  0  0  0
 26 27  2  0  0  0  0
 28 31  1  6  0  0  0
 28 26  1  0  0  0  0
 29 30  1  0  0  0  0
 30 26  1  0  0  0  0
 30 33  1  1  0  0  0
 31 29  1  0  0  0  0
 33 34  1  0  0  0  0
 34 37  1  0  0  0  0
 36 35  1  0  0  0  0
 37 36  1  0  0  0  0
 37 35  1  0  0  0  0
 38 39  1  0  0  0  0
 39  9  1  0  0  0  0
 41 43  2  0  0  0  0
 43 42  1  0  0  0  0
 43 40  1  0  0  0  0
M  END
>  <MODEL>
7

>  <REMARK>
 VINA RESULT:      -4.8      6.172      7.747
  Name = 
  7 active torsions:
  status: ('A' for Active; 'I' for Inactive)
    1  A    between atoms: C_4  and  C_19
    2  A    between atoms: C_12  and  C_17
    3  A    between atoms: C_12  and  C_42
    4  A    between atoms: N_15  and  C_24
    5  A    between atoms: C_33  and  N_43
    6  A    between atoms: C_34  and  C_40
    7  A    between atoms: C_34  and  N_43
                            x       y       z     vdW  Elec       q    Type
                         _______ _______ _______ _____ _____    ______ ____

>  <TORSDO>
F 7

$$$$
=
 OpenBabel11062416093D

 43 49  0  0  1  0  0  0  0  0999 V2000
  185.9190  178.4430  141.2850 O   0  0  0  0  0  1  0  0  0  0  0  0
  189.1640  175.5640  136.8450 C   0  0  0  0  0  0  0  0  0  0  0  0
  183.4290  177.7390  138.5470 C   0  0  2  0  0  3  0  0  0  0  0  0
  186.3030  177.4560  139.0060 C   0  0  2  0  0  3  0  0  0  0  0  0
  192.0400  173.4590  136.2230 O   0  0  0  0  0  0  0  0  0  0  0  0
  186.3930  174.6370  136.2940 C   0  0  0  0  0  2  0  0  0  0  0  0
  184.0810  178.1390  139.8550 C   0  0  0  0  0  3  0  0  0  0  0  0
  186.4430  177.0800  135.0610 O   0  0  0  0  0  0  0  0  0  0  0  0
  189.8500  176.8810  138.5280 N   0  0  0  0  0  0  0  0  0  0  0  0
  190.7910  173.0670  135.7320 C   0  0  0  0  0  0  0  0  0  0  0  0
  192.2840  174.6200  137.0250 C   0  0  2  0  0  3  0  0  0  0  0  0
  185.4010  178.0600  140.0550 C   0  0  0  0  0  0  0  0  0  0  0  0
  189.6180  173.1880  136.5340 N   0  0  0  0  0  2  0  0  0  0  0  0
  190.1500  175.7790  137.8040 C   0  0  0  0  0  0  0  0  0  0  0  0
  188.6570  174.2510  136.3020 C   0  0  1  0  0  3  0  0  0  0  0  0
  187.6870  178.0630  138.9000 C   0  0  0  0  0  0  0  0  0  0  0  0
  188.0060  179.1100  139.5250 O   0  0  0  0  0  0  0  0  0  0  0  0
  185.6070  177.3820  137.6410 C   0  0  1  0  0  3  0  0  0  0  0  0
  186.6020  176.4550  136.4280 P   0  0  1  0  0  0  0  0  0  0  0  0
  184.2750  176.8030  137.7900 N   0  0  0  0  0  2  0  0  0  0  0  0
  191.2690  174.8350  138.1600 C   0  0  0  0  0  2  0  0  0  0  0  0
  190.7140  172.5190  134.6020 O   0  0  0  0  0  0  0  0  0  0  0  0
  188.6760  177.3590  138.0620 C   0  0  0  0  0  0  0  0  0  0  0  0
  187.4380  173.9380  136.9480 O   0  0  0  0  0  0  0  0  0  0  0  0
  188.2850  176.6100  136.9730 C   0  0  0  0  0  0  0  0  0  0  0  0
  181.4980  178.7760  136.8790 S   0  0  0  0  0  0  0  0  0  0  0  0
  181.6110  179.0990  135.4160 O   0  0  0  0  0  0  0  0  0  0  0  0
  183.0650  178.9690  137.6970 C   0  0  1  0  0  3  0  0  0  0  0  0
  181.4240  180.3650  138.9480 C   0  0  0  0  0  2  0  0  0  0  0  0
  180.5800  180.0260  137.7330 C   0  0  2  0  0  3  0  0  0  0  0  0
  182.8950  180.2160  138.5640 C   0  0  0  0  0  2  0  0  0  0  0  0
  180.8950  177.4120  137.0740 O   0  0  0  0  0  0  0  0  0  0  0  0
  179.2880  179.5160  138.1610 N   0  0  0  0  0  2  0  0  0  0  0  0
  179.3150  179.4450  139.6130 C   0  0  0  0  0  2  0  0  0  0  0  0
  180.3480  177.3930  140.5070 C   0  0  0  0  0  2  0  0  0  0  0  0
  179.3540  177.8950  141.5320 C   0  0  0  0  0  2  0  0  0  0  0  0
  179.0480  178.0210  140.0550 C   0  0  0  0  0  3  0  0  0  0  0  0
  190.2950  176.3900  140.7620 O   0  0  0  0  0  1  0  0  0  0  0  0
  190.5300  177.3110  139.7430 C   0  0  0  0  0  2  0  0  0  0  0  0
  192.5340  175.8580  136.1650 C   0  0  0  0  0  2  0  0  0  0  0  0
  194.4180  175.0350  134.7570 O   0  0  0  0  0  0  0  0  0  0  0  0
  194.7450  176.7410  136.2530 O   0  0  0  0  0  1  0  0  0  0  0  0
  193.9550  175.9150  135.7250 C   0  0  0  0  0  0  0  0  0  0  0  0
  2 25  1  0  0  0  0
  2 14  2  0  0  0  0
  3  7  1  1  0  0  0
  4 16  1  6  0  0  0
  4 12  1  0  0  0  0
  5 11  1  0  0  0  0
  6 19  1  0  0  0  0
  6 24  1  0  0  0  0
  7 12  2  0  0  0  0
  9 39  1  0  0  0  0
 10  5  1  0  0  0  0
 10 13  1  0  0  0  0
 11 40  1  6  0  0  0
 11 21  1  0  0  0  0
 12  1  1  0  0  0  0
 14 21  1  0  0  0  0
 14  9  1  0  0  0  0
 15 13  1  1  0  0  0
 15  2  1  0  0  0  0
 15 24  1  0  0  0  0
 16 17  2  0  0  0  0
 18 20  1  1  0  0  0
 18  4  1  0  0  0  0
 19  8  2  6  0  0  0
 19 25  1  0  0  0  0
 19 18  1  0  0  0  0
 20  3  1  0  0  0  0
 22 10  2  0  0  0  0
 23  9  1  0  0  0  0
 23 16  1  0  0  0  0
 25 23  2  0  0  0  0
 26 32  2  0  0  0  0
 26 28  1  0  0  0  0
 26 30  1  0  0  0  0
 27 26  2  0  0  0  0
 28  3  1  0  0  0  0
 28 31  1  1  0  0  0
 30 33  1  1  0  0  0
 30 29  1  0  0  0  0
 31 29  1  0  0  0  0
 33 34  1  0  0  0  0
 34 37  1  0  0  0  0
 35 36  1  0  0  0  0
 37 35  1  0  0  0  0
 37 36  1  0  0  0  0
 39 38  1  0  0  0  0
 41 43  2  0  0  0  0
 43 40  1  0  0  0  0
 43 42  1  0  0  0  0
M  END
>  <MODEL>
8

>  <REMARK>
 VINA RESULT:      -4.7      2.883      9.989
  Name = 
  7 active torsions:
  status: ('A' for Active; 'I' for Inactive)
    1  A    between atoms: C_4  and  C_19
    2  A    between atoms: C_12  and  C_17
    3  A    between atoms: C_12  and  C_42
    4  A    between atoms: N_15  and  C_24
    5  A    between atoms: C_33  and  N_43
    6  A    between atoms: C_34  and  C_40
    7  A    between atoms: C_34  and  N_43
                            x       y       z     vdW  Elec       q    Type
                         _______ _______ _______ _____ _____    ______ ____

>  <TORSDO>
F 7

$$$$
=
 OpenBabel11062416093D

 43 49  0  0  1  0  0  0  0  0999 V2000
  186.1550  179.2020  140.5390 O   0  0  0  0  0  1  0  0  0  0  0  0
  187.4030  174.7060  136.4440 C   0  0  0  0  0  0  0  0  0  0  0  0
  182.8020  178.1500  139.1800 C   0  0  2  0  0  3  0  0  0  0  0  0
  185.6280  177.5600  138.7110 C   0  0  2  0  0  3  0  0  0  0  0  0
  189.7520  172.0850  135.6030 O   0  0  0  0  0  0  0  0  0  0  0  0
  184.5870  174.1090  137.1880 C   0  0  0  0  0  2  0  0  0  0  0  0
  183.9080  178.7970  139.9900 C   0  0  0  0  0  3  0  0  0  0  0  0
  184.2850  176.0620  135.2940 O   0  0  0  0  0  0  0  0  0  0  0  0
  188.7190  176.3220  137.2790 N   0  0  0  0  0  0  0  0  0  0  0  0
  188.3940  171.7720  135.7160 C   0  0  0  0  0  0  0  0  0  0  0  0
  190.3250  173.3730  135.8570 C   0  0  2  0  0  3  0  0  0  0  0  0
  185.2030  178.5710  139.7480 C   0  0  0  0  0  0  0  0  0  0  0  0
  187.6060  172.2990  136.7810 N   0  0  0  0  0  2  0  0  0  0  0  0
  188.6820  175.0270  136.8920 C   0  0  0  0  0  0  0  0  0  0  0  0
  186.6750  173.3900  136.5570 C   0  0  1  0  0  3  0  0  0  0  0  0
  186.9000  177.8860  137.9550 C   0  0  0  0  0  0  0  0  0  0  0  0
  187.4730  179.0040  138.0640 O   0  0  0  0  0  0  0  0  0  0  0  0
  184.4740  177.2120  137.7610 C   0  0  1  0  0  3  0  0  0  0  0  0
  184.9100  175.8340  136.6510 P   0  0  1  0  0  0  0  0  0  0  0  0
  183.2680  176.9160  138.5270 N   0  0  0  0  0  2  0  0  0  0  0  0
  189.8110  174.0590  137.1340 C   0  0  0  0  0  2  0  0  0  0  0  0
  187.8820  170.9450  134.9170 O   0  0  0  0  0  0  0  0  0  0  0  0
  187.4780  176.8260  137.1080 C   0  0  0  0  0  0  0  0  0  0  0  0
  185.7680  173.4690  137.6400 O   0  0  0  0  0  0  0  0  0  0  0  0
  186.6800  175.8700  136.5160 C   0  0  0  0  0  0  0  0  0  0  0  0
  180.4350  178.9840  138.0460 S   0  0  0  0  0  0  0  0  0  0  0  0
  179.9940  178.8510  136.6160 O   0  0  0  0  0  0  0  0  0  0  0  0
  182.2040  179.1290  138.1550 C   0  0  1  0  0  3  0  0  0  0  0  0
  181.2470  181.0860  139.3620 C   0  0  0  0  0  2  0  0  0  0  0  0
  179.9830  180.5660  138.7010 C   0  0  2  0  0  3  0  0  0  0  0  0
  182.4470  180.5820  138.5630 C   0  0  0  0  0  2  0  0  0  0  0  0
  179.8830  177.8580  138.8760 O   0  0  0  0  0  0  0  0  0  0  0  0
  178.9310  180.4310  139.6950 N   0  0  0  0  0  2  0  0  0  0  0  0
  179.5370  180.6600  140.9950 C   0  0  0  0  0  2  0  0  0  0  0  0
  180.3880  178.7430  142.2910 C   0  0  0  0  0  2  0  0  0  0  0  0
  179.8370  179.7560  143.2710 C   0  0  0  0  0  2  0  0  0  0  0  0
  179.1510  179.5410  141.9390 C   0  0  0  0  0  3  0  0  0  0  0  0
  189.7930  176.5920  139.3290 O   0  0  0  0  0  1  0  0  0  0  0  0
  189.8170  176.9660  137.9860 C   0  0  0  0  0  2  0  0  0  0  0  0
  190.2940  174.2600  134.6130 C   0  0  0  0  0  2  0  0  0  0  0  0
  191.1880  176.5860  134.6280 O   0  0  0  0  0  1  0  0  0  0  0  0
  192.6160  174.7940  134.5930 O   0  0  0  0  0  0  0  0  0  0  0  0
  191.4320  175.2200  134.6230 C   0  0  0  0  0  0  0  0  0  0  0  0
  2 25  1  0  0  0  0
  2 14  2  0  0  0  0
  3  7  1  6  0  0  0
  4 16  1  6  0  0  0
  4 12  1  0  0  0  0
  5 10  1  0  0  0  0
  5 11  1  0  0  0  0
  6 24  1  0  0  0  0
  9 39  1  0  0  0  0
 10 13  1  0  0  0  0
 11 40  1  6  0  0  0
 11 21  1  0  0  0  0
 12  7  2  0  0  0  0
 12  1  1  0  0  0  0
 14 21  1  0  0  0  0
 14  9  1  0  0  0  0
 15  2  1  1  0  0  0
 15 13  1  0  0  0  0
 15 24  1  0  0  0  0
 16 17  2  0  0  0  0
 18 20  1  1  0  0  0
 18  4  1  0  0  0  0
 19  8  2  6  0  0  0
 19  6  1  0  0  0  0
 19 18  1  0  0  0  0
 20  3  1  0  0  0  0
 22 10  2  0  0  0  0
 23  9  1  0  0  0  0
 23 16  1  0  0  0  0
 25 19  1  0  0  0  0
 25 23  2  0  0  0  0
 26 28  1  0  0  0  0
 26 30  1  0  0  0  0
 26 32  2  0  0  0  0
 27 26  2  0  0  0  0
 28 31  1  1  0  0  0
 28  3  1  0  0  0  0
 30 29  1  0  0  0  0
 30 33  1  1  0  0  0
 31 29  1  0  0  0  0
 33 34  1  0  0  0  0
 34 37  1  0  0  0  0
 35 36  1  0  0  0  0
 37 35  1  0  0  0  0
 37 36  1  0  0  0  0
 39 38  1  0  0  0  0
 40 43  1  0  0  0  0
 42 43  2  0  0  0  0
 43 41  1  0  0  0  0
M  END
>  <MODEL>
9

>  <REMARK>
 VINA RESULT:      -4.4      3.269      9.784
  Name = 
  7 active torsions:
  status: ('A' for Active; 'I' for Inactive)
    1  A    between atoms: C_4  and  C_19
    2  A    between atoms: C_12  and  C_17
    3  A    between atoms: C_12  and  C_42
    4  A    between atoms: N_15  and  C_24
    5  A    between atoms: C_33  and  N_43
    6  A    between atoms: C_34  and  C_40
    7  A    between atoms: C_34  and  N_43
                            x       y       z     vdW  Elec       q    Type
                         _______ _______ _______ _____ _____    ______ ____

>  <TORSDO>
F 7

$$$$
