=
 OpenBabel11062417413D

 39 44  0  0  1  0  0  0  0  0999 V2000
  183.8150  178.8240  139.6980 O   0  0  0  0  0  0  0  0  0  0  0  0
  185.6820  179.7590  141.9060 C   0  0  0  0  0  1  0  0  0  0  0  0
  184.5610  178.6350  143.9440 C   0  0  1  0  0  0  0  0  0  0  0  0
  185.0080  177.4470  143.0850 C   0  0  1  0  0  3  0  0  0  0  0  0
  182.9110  178.8670  140.5740 C   0  0  0  0  0  0  0  0  0  0  0  0
  182.3010  178.9260  143.0510 C   0  0  0  0  0  3  0  0  0  0  0  0
  184.6370  178.7810  142.4390 C   0  0  2  0  0  0  0  0  0  0  0  0
  186.3950  177.2860  143.1210 O   0  0  0  0  0  1  0  0  0  0  0  0
  183.2690  178.9070  141.9680 N   0  0  0  0  0  0  0  0  0  0  0  0
  183.0890  178.7010  144.3340 C   0  0  0  0  0  3  0  0  0  0  0  0
  179.4550  176.4870  137.7550 C   0  0  1  0  0  3  0  0  0  0  0  0
  181.0490  176.3400  140.1300 C   0  0  0  0  0  2  0  0  0  0  0  0
  181.1620  177.5890  139.2660 C   0  0  2  0  0  3  0  0  0  0  0  0
  179.8990  179.0020  137.5410 C   0  0  0  0  0  2  0  0  0  0  0  0
  179.3870  175.3840  138.6430 O   0  0  0  0  0  0  0  0  0  0  0  0
  180.9600  180.0370  137.9340 C   0  0  0  0  0  2  0  0  0  0  0  0
  181.0800  180.1610  139.4520 C   0  0  0  0  0  2  0  0  0  0  0  0
  181.4810  178.8310  140.1130 C   0  0  2  0  0  3  0  0  0  0  0  0
  180.6520  175.1660  139.2360 C   0  0  0  0  0  2  0  0  0  0  0  0
  179.8620  177.7830  138.4790 C   0  0  1  0  0  3  0  0  0  0  0  0
  181.5340  176.6530  136.3730 O   0  0  0  0  0  1  0  0  0  0  0  0
  179.7200  175.5070  135.5710 O   0  0  0  0  0  0  0  0  0  0  0  0
  180.2380  176.1740  136.5060 C   0  0  0  0  0  0  0  0  0  0  0  0
  185.6040  179.3880  144.7800 C   0  0  0  0  0  2  0  0  0  0  0  0
  191.5130  176.7480  146.0000 C   0  0  0  0  0  3  0  0  0  0  0  0
  190.6020  177.4830  145.2210 C   0  0  0  0  0  0  0  0  0  0  0  0
  188.2680  178.2800  145.1840 N   0  0  0  0  0  0  0  0  0  0  0  0
  191.1010  176.2090  147.2400 C   0  0  0  0  0  3  0  0  0  0  0  0
  184.9410  178.3170  146.9420 C   0  0  0  0  0  1  0  0  0  0  0  0
  185.9700  178.6230  145.9640 N   0  0  0  0  0  0  0  0  0  0  0  0
  187.2960  178.1000  146.1200 C   0  0  0  0  0  0  0  0  0  0  0  0
  189.8230  176.3970  147.6910 N   0  0  0  0  0  0  0  0  0  0  0  0
  189.3140  177.6410  145.7300 C   0  0  0  0  0  0  0  0  0  0  0  0
  188.9600  177.1120  146.9270 C   0  0  0  0  0  0  0  0  0  0  0  0
  187.6790  177.3810  147.2110 N   0  0  0  0  0  2  0  0  0  0  0  0
  192.1150  177.2980  143.0320 O   0  0  0  0  0  0  0  0  0  0  0  0
  191.6540  179.5450  143.8880 O   0  0  0  0  0  0  0  0  0  0  0  0
  189.6950  178.2930  142.6480 N   0  0  0  0  0  1  0  0  0  0  0  0
  191.0770  178.1730  143.6770 S   0  0  0  0  0  0  0  0  0  0  0  0
  1  5  2  0  0  0  0
  3 10  1  0  0  0  0
  3 24  1  1  0  0  0
  4  8  1  1  0  0  0
  4  3  1  0  0  0  0
  5  9  1  0  0  0  0
  6 10  2  0  0  0  0
  7  2  1  6  0  0  0
  7  4  1  0  0  0  0
  7  3  1  0  0  0  0
  9  7  1  0  0  0  0
  9  6  1  0  0  0  0
 11 23  1  6  0  0  0
 11 20  1  0  0  0  0
 11 15  1  0  0  0  0
 13 18  1  0  0  0  0
 13 12  1  1  0  0  0
 14 16  1  0  0  0  0
 15 19  1  0  0  0  0
 16 17  1  0  0  0  0
 17 18  1  0  0  0  0
 18  5  1  6  0  0  0
 19 12  1  0  0  0  0
 20 14  1  6  0  0  0
 20 13  1  0  0  0  0
 21 23  1  0  0  0  0
 22 23  2  0  0  0  0
 24 30  1  0  0  0  0
 25 28  2  0  0  0  0
 26 33  2  0  0  0  0
 26 25  1  0  0  0  0
 27 33  1  0  0  0  0
 27 31  2  0  0  0  0
 28 32  1  0  0  0  0
 30 31  1  0  0  0  0
 30 29  1  0  0  0  0
 31 35  1  0  0  0  0
 33 34  1  0  0  0  0
 34 35  1  0  0  0  0
 34 32  2  0  0  0  0
 36 39  2  0  0  0  0
 38 39  1  0  0  0  0
 39 37  2  0  0  0  0
 39 26  1  0  0  0  0
M  END
>  <MODEL>
1

>  <REMARK>
 VINA RESULT:      -7.6      0.000      0.000
  Name = 
  5 active torsions:
  status: ('A' for Active; 'I' for Inactive)
    1  A    between atoms: C_4  and  C_18
    2  A    between atoms: C_7  and  S_34
    3  A    between atoms: C_12  and  C_27
    4  A    between atoms: N_13  and  C_18
    5  A    between atoms: C_15  and  C_31
                            x       y       z     vdW  Elec       q    Type
                         _______ _______ _______ _____ _____    ______ ____

>  <TORSDO>
F 5

$$$$
=
 OpenBabel11062417413D

 39 44  0  0  1  0  0  0  0  0999 V2000
  184.3290  176.6790  136.4810 O   0  0  0  0  0  0  0  0  0  0  0  0
  185.9900  178.4540  138.3050 C   0  0  0  0  0  1  0  0  0  0  0  0
  188.3640  177.7940  137.5290 C   0  0  1  0  0  0  0  0  0  0  0  0
  187.7470  178.4320  136.2790 C   0  0  1  0  0  3  0  0  0  0  0  0
  185.2870  175.8650  136.5590 C   0  0  0  0  0  0  0  0  0  0  0  0
  187.7430  175.4630  137.1160 C   0  0  0  0  0  3  0  0  0  0  0  0
  186.8700  177.7110  137.3010 C   0  0  2  0  0  0  0  0  0  0  0  0
  187.6290  179.8170  136.4190 O   0  0  0  0  0  1  0  0  0  0  0  0
  186.5720  176.3170  137.0220 N   0  0  0  0  0  0  0  0  0  0  0  0
  188.9250  176.3840  137.3890 C   0  0  0  0  0  3  0  0  0  0  0  0
  181.8650  172.2330  135.7500 C   0  0  1  0  0  3  0  0  0  0  0  0
  182.9000  174.7300  134.8070 C   0  0  0  0  0  2  0  0  0  0  0  0
  183.5500  174.1000  136.0320 C   0  0  2  0  0  3  0  0  0  0  0  0
  183.9320  171.8620  137.2200 C   0  0  0  0  0  2  0  0  0  0  0  0
  181.3540  172.8740  134.5940 O   0  0  0  0  0  0  0  0  0  0  0  0
  185.0100  172.6780  137.9430 C   0  0  0  0  0  2  0  0  0  0  0  0
  185.8730  173.4590  136.9530 C   0  0  0  0  0  2  0  0  0  0  0  0
  185.0450  174.4500  136.1160 C   0  0  2  0  0  3  0  0  0  0  0  0
  181.4430  174.2770  134.7440 C   0  0  0  0  0  2  0  0  0  0  0  0
  183.3440  172.5830  135.9950 C   0  0  1  0  0  3  0  0  0  0  0  0
  181.1790  173.4300  137.8370 O   0  0  0  0  0  1  0  0  0  0  0  0
  180.0260  171.5710  137.1580 O   0  0  0  0  0  0  0  0  0  0  0  0
  180.9600  172.3890  136.9450 C   0  0  0  0  0  0  0  0  0  0  0  0
  188.8560  178.7000  138.6650 C   0  0  0  0  0  2  0  0  0  0  0  0
  186.4910  177.4880  144.6910 C   0  0  0  0  0  3  0  0  0  0  0  0
  186.4210  178.0480  143.4020 C   0  0  0  0  0  0  0  0  0  0  0  0
  187.6820  178.2450  141.2920 N   0  0  0  0  0  0  0  0  0  0  0  0
  187.6250  176.7330  145.0670 C   0  0  0  0  0  3  0  0  0  0  0  0
  190.8610  177.4270  139.4520 C   0  0  0  0  0  1  0  0  0  0  0  0
  189.5180  177.9200  139.7010 N   0  0  0  0  0  0  0  0  0  0  0  0
  188.8980  177.7210  140.9790 C   0  0  0  0  0  0  0  0  0  0  0  0
  188.6550  176.5380  144.1880 N   0  0  0  0  0  0  0  0  0  0  0  0
  187.5000  177.8170  142.5510 C   0  0  0  0  0  0  0  0  0  0  0  0
  188.5670  177.0820  142.9480 C   0  0  0  0  0  0  0  0  0  0  0  0
  189.4830  176.9990  141.9750 N   0  0  0  0  0  2  0  0  0  0  0  0
  183.8890  178.0650  142.5630 O   0  0  0  0  0  0  0  0  0  0  0  0
  185.3750  179.7980  141.6770 O   0  0  0  0  0  0  0  0  0  0  0  0
  184.5570  180.0560  144.1680 N   0  0  0  0  0  1  0  0  0  0  0  0
  185.0270  178.9890  142.8950 S   0  0  0  0  0  0  0  0  0  0  0  0
  1  5  2  0  0  0  0
  3 24  1  1  0  0  0
  4  8  1  1  0  0  0
  4  7  1  0  0  0  0
  4  3  1  0  0  0  0
  5  9  1  0  0  0  0
  6 10  2  0  0  0  0
  7  3  1  0  0  0  0
  7  2  1  1  0  0  0
  9  6  1  0  0  0  0
  9  7  1  0  0  0  0
 10  3  1  0  0  0  0
 11 20  1  0  0  0  0
 11 23  1  1  0  0  0
 13 12  1  6  0  0  0
 13 18  1  0  0  0  0
 14 16  1  0  0  0  0
 15 19  1  0  0  0  0
 15 11  1  0  0  0  0
 17 16  1  0  0  0  0
 18  5  1  1  0  0  0
 18 17  1  0  0  0  0
 19 12  1  0  0  0  0
 20 13  1  0  0  0  0
 20 14  1  1  0  0  0
 23 22  2  0  0  0  0
 23 21  1  0  0  0  0
 24 30  1  0  0  0  0
 25 28  2  0  0  0  0
 26 25  1  0  0  0  0
 27 33  1  0  0  0  0
 29 30  1  0  0  0  0
 30 31  1  0  0  0  0
 31 27  2  0  0  0  0
 31 35  1  0  0  0  0
 32 28  1  0  0  0  0
 33 34  1  0  0  0  0
 33 26  2  0  0  0  0
 34 32  2  0  0  0  0
 35 34  1  0  0  0  0
 36 39  2  0  0  0  0
 37 39  2  0  0  0  0
 39 26  1  0  0  0  0
 39 38  1  0  0  0  0
M  END
>  <MODEL>
2

>  <REMARK>
 VINA RESULT:      -7.3      4.279      6.229
  Name = 
  5 active torsions:
  status: ('A' for Active; 'I' for Inactive)
    1  A    between atoms: C_4  and  C_18
    2  A    between atoms: C_7  and  S_34
    3  A    between atoms: C_12  and  C_27
    4  A    between atoms: N_13  and  C_18
    5  A    between atoms: C_15  and  C_31
                            x       y       z     vdW  Elec       q    Type
                         _______ _______ _______ _____ _____    ______ ____

>  <TORSDO>
F 5

$$$$
=
 OpenBabel11062417413D

 39 44  0  0  1  0  0  0  0  0999 V2000
  185.0570  177.9600  143.7590 O   0  0  0  0  0  0  0  0  0  0  0  0
  187.5400  176.2250  143.5100 C   0  0  0  0  0  1  0  0  0  0  0  0
  189.0140  177.7620  142.0480 C   0  0  1  0  0  0  0  0  0  0  0  0
  188.8310  178.5690  143.3370 C   0  0  1  0  0  3  0  0  0  0  0  0
  185.3460  178.3730  142.6040 C   0  0  0  0  0  0  0  0  0  0  0  0
  187.1100  178.6300  140.7790 C   0  0  0  0  0  3  0  0  0  0  0  0
  187.7520  177.5950  142.8680 C   0  0  2  0  0  0  0  0  0  0  0  0
  189.5660  178.0200  144.3910 O   0  0  0  0  0  1  0  0  0  0  0  0
  186.6720  178.1630  142.0820 N   0  0  0  0  0  0  0  0  0  0  0  0
  188.6200  178.4370  140.7390 C   0  0  0  0  0  3  0  0  0  0  0  0
  180.4400  178.6890  141.4300 C   0  0  1  0  0  3  0  0  0  0  0  0
  182.3840  179.0650  143.4980 C   0  0  0  0  0  2  0  0  0  0  0  0
  182.8700  178.6000  142.1320 C   0  0  2  0  0  3  0  0  0  0  0  0
  182.2720  178.6020  139.6400 C   0  0  0  0  0  2  0  0  0  0  0  0
  180.0890  179.1590  142.7210 O   0  0  0  0  0  0  0  0  0  0  0  0
  183.7560  178.2390  139.5060 C   0  0  0  0  0  2  0  0  0  0  0  0
  184.6330  179.1730  140.3380 C   0  0  0  0  0  2  0  0  0  0  0  0
  184.2890  179.1130  141.8360 C   0  0  2  0  0  3  0  0  0  0  0  0
  180.9460  178.5880  143.6900 C   0  0  0  0  0  2  0  0  0  0  0  0
  181.8850  179.0640  141.0550 C   0  0  1  0  0  3  0  0  0  0  0  0
  180.5960  176.5540  140.1370 O   0  0  0  0  0  0  0  0  0  0  0  0
  179.2890  176.6550  142.0150 O   0  0  0  0  0  1  0  0  0  0  0  0
  180.0770  177.2400  141.2250 C   0  0  0  0  0  0  0  0  0  0  0  0
  190.0070  176.5930  142.0320 C   0  0  0  0  0  2  0  0  0  0  0  0
  192.2760  175.5830  135.9330 C   0  0  0  0  0  3  0  0  0  0  0  0
  191.3040  175.4840  136.9450 C   0  0  0  0  0  0  0  0  0  0  0  0
  190.8750  176.0750  139.3000 N   0  0  0  0  0  0  0  0  0  0  0  0
  193.5030  176.2340  136.1990 C   0  0  0  0  0  3  0  0  0  0  0  0
  192.2410  177.6430  142.4370 C   0  0  0  0  0  1  0  0  0  0  0  0
  191.3020  177.0190  141.5220 N   0  0  0  0  0  0  0  0  0  0  0  0
  191.6840  176.7430  140.1670 C   0  0  0  0  0  0  0  0  0  0  0  0
  193.7530  176.7710  137.4330 N   0  0  0  0  0  0  0  0  0  0  0  0
  191.6150  176.0470  138.1810 C   0  0  0  0  0  0  0  0  0  0  0  0
  192.8020  176.6670  138.3950 C   0  0  0  0  0  0  0  0  0  0  0  0
  192.8860  177.1240  139.6510 N   0  0  0  0  0  2  0  0  0  0  0  0
  188.6420  175.5880  137.0790 O   0  0  0  0  0  0  0  0  0  0  0  0
  189.6980  173.4080  137.4390 O   0  0  0  0  0  0  0  0  0  0  0  0
  189.6150  174.3250  134.9700 N   0  0  0  0  0  1  0  0  0  0  0  0
  189.7660  174.6870  136.6520 S   0  0  0  0  0  0  0  0  0  0  0  0
  3 24  1  6  0  0  0
  3  7  1  0  0  0  0
  3  4  1  0  0  0  0
  4  8  1  1  0  0  0
  5  1  2  0  0  0  0
  6  9  1  0  0  0  0
  7  4  1  0  0  0  0
  7  2  1  1  0  0  0
  9  5  1  0  0  0  0
  9  7  1  0  0  0  0
 10  6  2  0  0  0  0
 10  3  1  0  0  0  0
 11 23  1  1  0  0  0
 11 15  1  0  0  0  0
 12 19  1  0  0  0  0
 13 12  1  1  0  0  0
 15 19  1  0  0  0  0
 16 14  1  0  0  0  0
 16 17  1  0  0  0  0
 17 18  1  0  0  0  0
 18 13  1  0  0  0  0
 18  5  1  1  0  0  0
 20 14  1  6  0  0  0
 20 11  1  0  0  0  0
 20 13  1  0  0  0  0
 21 23  2  0  0  0  0
 23 22  1  0  0  0  0
 25 28  2  0  0  0  0
 25 26  1  0  0  0  0
 26 33  2  0  0  0  0
 27 31  2  0  0  0  0
 28 32  1  0  0  0  0
 30 24  1  0  0  0  0
 30 29  1  0  0  0  0
 31 30  1  0  0  0  0
 32 34  2  0  0  0  0
 33 34  1  0  0  0  0
 33 27  1  0  0  0  0
 34 35  1  0  0  0  0
 35 31  1  0  0  0  0
 38 39  1  0  0  0  0
 39 26  1  0  0  0  0
 39 36  2  0  0  0  0
 39 37  2  0  0  0  0
M  END
>  <MODEL>
3

>  <REMARK>
 VINA RESULT:      -7.3      4.699      6.502
  Name = 
  5 active torsions:
  status: ('A' for Active; 'I' for Inactive)
    1  A    between atoms: C_4  and  C_18
    2  A    between atoms: C_7  and  S_34
    3  A    between atoms: C_12  and  C_27
    4  A    between atoms: N_13  and  C_18
    5  A    between atoms: C_15  and  C_31
                            x       y       z     vdW  Elec       q    Type
                         _______ _______ _______ _____ _____    ______ ____

>  <TORSDO>
F 5

$$$$
=
 OpenBabel11062417413D

 39 44  0  0  1  0  0  0  0  0999 V2000
  194.3410  174.7140  138.0920 O   0  0  0  0  0  0  0  0  0  0  0  0
  192.8620  177.1590  139.1270 C   0  0  0  0  0  1  0  0  0  0  0  0
  190.6270  176.8990  137.8590 C   0  0  1  0  0  0  0  0  0  0  0  0
  190.6720  175.6570  138.7550 C   0  0  1  0  0  3  0  0  0  0  0  0
  193.6950  174.8930  137.0250 C   0  0  0  0  0  0  0  0  0  0  0  0
  191.6960  175.9690  135.8630 C   0  0  0  0  0  3  0  0  0  0  0  0
  191.9610  176.2970  138.2440 C   0  0  2  0  0  0  0  0  0  0  0  0
  190.4550  175.9880  140.0950 O   0  0  0  0  0  1  0  0  0  0  0  0
  192.5230  175.7290  137.0310 N   0  0  0  0  0  0  0  0  0  0  0  0
  190.4420  176.6740  136.3620 C   0  0  0  0  0  3  0  0  0  0  0  0
  195.8970  170.7540  135.1350 C   0  0  1  0  0  3  0  0  0  0  0  0
  193.5270  171.7990  136.3550 C   0  0  0  0  0  2  0  0  0  0  0  0
  194.6770  172.7590  136.0820 C   0  0  2  0  0  3  0  0  0  0  0  0
  196.7330  173.1150  134.5940 C   0  0  0  0  0  2  0  0  0  0  0  0
  194.7600  169.9470  135.3890 O   0  0  0  0  0  0  0  0  0  0  0  0
  196.5910  174.5510  135.1150 C   0  0  0  0  0  2  0  0  0  0  0  0
  195.1510  175.0470  134.9890 C   0  0  0  0  0  2  0  0  0  0  0  0
  194.1650  174.1790  135.7890 C   0  0  2  0  0  3  0  0  0  0  0  0
  194.1020  170.3980  136.5570 C   0  0  0  0  0  2  0  0  0  0  0  0
  195.5170  172.2290  134.9160 C   0  0  1  0  0  3  0  0  0  0  0  0
  196.9480  171.1120  137.3770 O   0  0  0  0  0  1  0  0  0  0  0  0
  198.0010  169.8020  135.8210 O   0  0  0  0  0  0  0  0  0  0  0  0
  197.0080  170.5150  136.1260 C   0  0  0  0  0  0  0  0  0  0  0  0
  190.2580  178.2540  138.4760 C   0  0  0  0  0  2  0  0  0  0  0  0
  186.0480  178.0540  143.5360 C   0  0  0  0  0  3  0  0  0  0  0  0
  187.3300  177.9610  142.9630 C   0  0  0  0  0  0  0  0  0  0  0  0
  188.5170  178.1340  140.8090 N   0  0  0  0  0  0  0  0  0  0  0  0
  184.9340  178.3550  142.7200 C   0  0  0  0  0  3  0  0  0  0  0  0
  188.2150  178.6890  137.0980 C   0  0  0  0  0  1  0  0  0  0  0  0
  188.8220  178.4850  138.4020 N   0  0  0  0  0  0  0  0  0  0  0  0
  188.0060  178.4180  139.5790 C   0  0  0  0  0  0  0  0  0  0  0  0
  185.0900  178.5590  141.3760 N   0  0  0  0  0  0  0  0  0  0  0  0
  187.4270  178.1770  141.5890 C   0  0  0  0  0  0  0  0  0  0  0  0
  186.3340  178.4680  140.8420 C   0  0  0  0  0  0  0  0  0  0  0  0
  186.6610  178.6270  139.5530 N   0  0  0  0  0  2  0  0  0  0  0  0
  189.8160  178.6080  143.6780 O   0  0  0  0  0  0  0  0  0  0  0  0
  189.2570  176.2260  143.5990 O   0  0  0  0  0  0  0  0  0  0  0  0
  188.3060  177.6310  145.6150 N   0  0  0  0  0  1  0  0  0  0  0  0
  188.7400  177.5940  143.9440 S   0  0  0  0  0  0  0  0  0  0  0  0
  3  7  1  0  0  0  0
  3 24  1  1  0  0  0
  3  4  1  0  0  0  0
  4  8  1  1  0  0  0
  5  9  1  0  0  0  0
  5  1  2  0  0  0  0
  6 10  2  0  0  0  0
  6  9  1  0  0  0  0
  7  4  1  0  0  0  0
  7  2  1  1  0  0  0
  9  7  1  0  0  0  0
 10  3  1  0  0  0  0
 11 15  1  0  0  0  0
 11 23  1  1  0  0  0
 12 19  1  0  0  0  0
 13 12  1  6  0  0  0
 14 16  1  0  0  0  0
 15 19  1  0  0  0  0
 17 16  1  0  0  0  0
 17 18  1  0  0  0  0
 18 13  1  0  0  0  0
 18  5  1  1  0  0  0
 20 14  1  1  0  0  0
 20 11  1  0  0  0  0
 20 13  1  0  0  0  0
 22 23  2  0  0  0  0
 23 21  1  0  0  0  0
 26 25  1  0  0  0  0
 26 39  1  0  0  0  0
 27 33  1  0  0  0  0
 28 25  2  0  0  0  0
 29 30  1  0  0  0  0
 30 24  1  0  0  0  0
 30 31  1  0  0  0  0
 31 27  2  0  0  0  0
 32 28  1  0  0  0  0
 33 26  2  0  0  0  0
 34 32  2  0  0  0  0
 34 33  1  0  0  0  0
 35 31  1  0  0  0  0
 35 34  1  0  0  0  0
 36 39  2  0  0  0  0
 37 39  2  0  0  0  0
 39 38  1  0  0  0  0
M  END
>  <MODEL>
4

>  <REMARK>
 VINA RESULT:      -7.1      7.956     11.452
  Name = 
  5 active torsions:
  status: ('A' for Active; 'I' for Inactive)
    1  A    between atoms: C_4  and  C_18
    2  A    between atoms: C_7  and  S_34
    3  A    between atoms: C_12  and  C_27
    4  A    between atoms: N_13  and  C_18
    5  A    between atoms: C_15  and  C_31
                            x       y       z     vdW  Elec       q    Type
                         _______ _______ _______ _____ _____    ______ ____

>  <TORSDO>
F 5

$$$$
=
 OpenBabel11062417413D

 39 44  0  0  1  0  0  0  0  0999 V2000
  186.1610  177.9260  136.5600 O   0  0  0  0  0  0  0  0  0  0  0  0
  183.9690  177.1010  138.4980 C   0  0  0  0  0  1  0  0  0  0  0  0
  184.5400  178.6350  140.4970 C   0  0  1  0  0  0  0  0  0  0  0  0
  184.1770  179.6240  139.3840 C   0  0  1  0  0  3  0  0  0  0  0  0
  186.8650  178.1180  137.5870 C   0  0  0  0  0  0  0  0  0  0  0  0
  186.9530  178.4920  140.1100 C   0  0  0  0  0  3  0  0  0  0  0  0
  184.7900  178.2650  139.0500 C   0  0  2  0  0  0  0  0  0  0  0  0
  182.8030  179.6200  139.1280 O   0  0  0  0  0  1  0  0  0  0  0  0
  186.2320  178.2370  138.8750 N   0  0  0  0  0  0  0  0  0  0  0  0
  185.9000  178.8040  141.1640 C   0  0  0  0  0  3  0  0  0  0  0  0
  191.1780  175.8450  136.2540 C   0  0  1  0  0  3  0  0  0  0  0  0
  188.6950  176.9030  135.3010 C   0  0  0  0  0  2  0  0  0  0  0  0
  188.9950  177.0070  136.7900 C   0  0  2  0  0  3  0  0  0  0  0  0
  190.9120  177.0700  138.4900 C   0  0  0  0  0  2  0  0  0  0  0  0
  190.8300  175.8320  134.8800 O   0  0  0  0  0  0  0  0  0  0  0  0
  189.8010  177.6150  139.3960 C   0  0  0  0  0  2  0  0  0  0  0  0
  189.0220  178.7350  138.7060 C   0  0  0  0  0  2  0  0  0  0  0  0
  188.3500  178.2590  137.4070 C   0  0  2  0  0  3  0  0  0  0  0  0
  189.4290  175.6870  134.7420 C   0  0  0  0  0  2  0  0  0  0  0  0
  190.5110  177.0110  137.0060 C   0  0  1  0  0  3  0  0  0  0  0  0
  189.8360  174.1660  137.5360 O   0  0  0  0  0  1  0  0  0  0  0  0
  191.9780  173.6650  136.8960 O   0  0  0  0  0  0  0  0  0  0  0  0
  191.0270  174.4920  136.9010 C   0  0  0  0  0  0  0  0  0  0  0  0
  183.4180  177.8910  141.2320 C   0  0  0  0  0  2  0  0  0  0  0  0
  187.4340  178.2340  146.4400 C   0  0  0  0  0  3  0  0  0  0  0  0
  187.1110  177.8530  145.1250 C   0  0  0  0  0  0  0  0  0  0  0  0
  185.3020  177.9650  143.4530 N   0  0  0  0  0  0  0  0  0  0  0  0
  186.4940  178.9510  147.2150 C   0  0  0  0  0  3  0  0  0  0  0  0
  181.7850  179.0800  142.7100 C   0  0  0  0  0  1  0  0  0  0  0  0
  183.1150  178.5340  142.5030 N   0  0  0  0  0  0  0  0  0  0  0  0
  184.0770  178.5480  143.5670 C   0  0  0  0  0  0  0  0  0  0  0  0
  185.2710  179.2800  146.6960 N   0  0  0  0  0  0  0  0  0  0  0  0
  185.8510  178.2150  144.6510 C   0  0  0  0  0  0  0  0  0  0  0  0
  184.9800  178.9080  145.4250 C   0  0  0  0  0  0  0  0  0  0  0  0
  183.8340  179.1380  144.7700 N   0  0  0  0  0  2  0  0  0  0  0  0
  187.5600  175.8030  143.4790 O   0  0  0  0  0  0  0  0  0  0  0  0
  189.3800  176.4520  144.9830 O   0  0  0  0  0  0  0  0  0  0  0  0
  188.8970  178.0130  142.9160 N   0  0  0  0  0  1  0  0  0  0  0  0
  188.2550  176.9660  144.1290 S   0  0  0  0  0  0  0  0  0  0  0  0
  1  5  2  0  0  0  0
  3 10  1  0  0  0  0
  3 24  1  1  0  0  0
  4  8  1  6  0  0  0
  4  3  1  0  0  0  0
  5  9  1  0  0  0  0
  6 10  2  0  0  0  0
  7  2  1  6  0  0  0
  7  4  1  0  0  0  0
  7  3  1  0  0  0  0
  9  7  1  0  0  0  0
  9  6  1  0  0  0  0
 11 23  1  1  0  0  0
 11 20  1  0  0  0  0
 13 12  1  6  0  0  0
 13 20  1  0  0  0  0
 13 18  1  0  0  0  0
 14 16  1  0  0  0  0
 15 11  1  0  0  0  0
 17 16  1  0  0  0  0
 18  5  1  1  0  0  0
 18 17  1  0  0  0  0
 19 15  1  0  0  0  0
 19 12  1  0  0  0  0
 20 14  1  1  0  0  0
 22 23  2  0  0  0  0
 23 21  1  0  0  0  0
 24 30  1  0  0  0  0
 25 28  2  0  0  0  0
 26 25  1  0  0  0  0
 27 31  2  0  0  0  0
 27 33  1  0  0  0  0
 30 29  1  0  0  0  0
 30 31  1  0  0  0  0
 31 35  1  0  0  0  0
 32 28  1  0  0  0  0
 33 26  2  0  0  0  0
 33 34  1  0  0  0  0
 34 32  2  0  0  0  0
 35 34  1  0  0  0  0
 36 39  2  0  0  0  0
 38 39  1  0  0  0  0
 39 37  2  0  0  0  0
 39 26  1  0  0  0  0
M  END
>  <MODEL>
5

>  <REMARK>
 VINA RESULT:      -7.0      4.610      6.860
  Name = 
  5 active torsions:
  status: ('A' for Active; 'I' for Inactive)
    1  A    between atoms: C_4  and  C_18
    2  A    between atoms: C_7  and  S_34
    3  A    between atoms: C_12  and  C_27
    4  A    between atoms: N_13  and  C_18
    5  A    between atoms: C_15  and  C_31
                            x       y       z     vdW  Elec       q    Type
                         _______ _______ _______ _____ _____    ______ ____

>  <TORSDO>
F 5

$$$$
=
 OpenBabel11062417413D

 39 44  0  0  1  0  0  0  0  0999 V2000
  190.2280  176.2640  140.7000 O   0  0  0  0  0  0  0  0  0  0  0  0
  189.2330  175.2410  138.0170 C   0  0  0  0  0  1  0  0  0  0  0  0
  188.2610  177.4250  137.0390 C   0  0  1  0  0  0  0  0  0  0  0  0
  189.7560  177.7330  137.1770 C   0  0  1  0  0  3  0  0  0  0  0  0
  189.2590  177.0680  140.6460 C   0  0  0  0  0  0  0  0  0  0  0  0
  187.4990  178.2380  139.2180 C   0  0  0  0  0  3  0  0  0  0  0  0
  189.0700  176.7550  138.1290 C   0  0  2  0  0  0  0  0  0  0  0  0
  190.5080  177.0450  136.2220 O   0  0  0  0  0  1  0  0  0  0  0  0
  188.6010  177.3070  139.3880 N   0  0  0  0  0  0  0  0  0  0  0  0
  187.2850  178.3800  137.7170 C   0  0  0  0  0  3  0  0  0  0  0  0
  190.4810  178.1490  145.4300 C   0  0  1  0  0  3  0  0  0  0  0  0
  191.1080  178.6470  142.6810 C   0  0  0  0  0  2  0  0  0  0  0  0
  189.9480  177.7110  142.9940 C   0  0  2  0  0  3  0  0  0  0  0  0
  188.2150  177.1350  144.7930 C   0  0  0  0  0  2  0  0  0  0  0  0
  191.5150  179.0370  145.0400 O   0  0  0  0  0  0  0  0  0  0  0  0
  187.5490  176.4180  143.6120 C   0  0  0  0  0  2  0  0  0  0  0  0
  187.4710  177.3250  142.3840 C   0  0  0  0  0  2  0  0  0  0  0  0
  188.8620  177.7780  141.9080 C   0  0  2  0  0  3  0  0  0  0  0  0
  192.1050  178.5870  143.8360 C   0  0  0  0  0  2  0  0  0  0  0  0
  189.3690  178.0600  144.3690 C   0  0  1  0  0  3  0  0  0  0  0  0
  191.8030  176.0540  145.0820 O   0  0  0  0  0  0  0  0  0  0  0  0
  190.7210  176.4020  147.0710 O   0  0  0  0  0  1  0  0  0  0  0  0
  191.0110  176.8260  145.9200 C   0  0  0  0  0  0  0  0  0  0  0  0
  187.7830  176.5480  135.8740 C   0  0  0  0  0  2  0  0  0  0  0  0
  181.9290  173.5450  135.5760 C   0  0  0  0  0  3  0  0  0  0  0  0
  183.2870  173.6200  135.9380 C   0  0  0  0  0  0  0  0  0  0  0  0
  185.2570  175.0980  135.8190 N   0  0  0  0  0  0  0  0  0  0  0  0
  181.3230  174.6280  134.8990 C   0  0  0  0  0  3  0  0  0  0  0  0
  186.6480  178.3740  134.5940 C   0  0  0  0  0  1  0  0  0  0  0  0
  186.5730  177.0940  135.2760 N   0  0  0  0  0  0  0  0  0  0  0  0
  185.3510  176.3430  135.2760 C   0  0  0  0  0  0  0  0  0  0  0  0
  182.0430  175.7500  134.5950 N   0  0  0  0  0  0  0  0  0  0  0  0
  183.9700  174.7870  135.6000 C   0  0  0  0  0  0  0  0  0  0  0  0
  183.3500  175.8050  134.9560 C   0  0  0  0  0  0  0  0  0  0  0  0
  184.1970  176.8170  134.7280 N   0  0  0  0  0  2  0  0  0  0  0  0
  183.0400  171.3290  137.2830 O   0  0  0  0  0  0  0  0  0  0  0  0
  184.8520  172.8340  137.9540 O   0  0  0  0  0  0  0  0  0  0  0  0
  185.1580  171.4890  135.7090 N   0  0  0  0  0  1  0  0  0  0  0  0
  184.0750  172.2980  136.7840 S   0  0  0  0  0  0  0  0  0  0  0  0
  3 24  1  6  0  0  0
  3  4  1  0  0  0  0
  3 10  1  0  0  0  0
  3  7  1  0  0  0  0
  4  8  1  6  0  0  0
  4  7  1  0  0  0  0
  5  1  2  0  0  0  0
  6  9  1  0  0  0  0
  7  2  1  6  0  0  0
  7  9  1  0  0  0  0
  9  5  1  0  0  0  0
 10  6  2  0  0  0  0
 11 23  1  6  0  0  0
 12 19  1  0  0  0  0
 13 12  1  6  0  0  0
 13 20  1  0  0  0  0
 15 11  1  0  0  0  0
 16 14  1  0  0  0  0
 17 16  1  0  0  0  0
 18  5  1  6  0  0  0
 18 17  1  0  0  0  0
 18 13  1  0  0  0  0
 19 15  1  0  0  0  0
 20 14  1  1  0  0  0
 20 11  1  0  0  0  0
 21 23  2  0  0  0  0
 23 22  1  0  0  0  0
 25 26  1  0  0  0  0
 26 39  1  0  0  0  0
 28 25  2  0  0  0  0
 29 30  1  0  0  0  0
 30 31  1  0  0  0  0
 30 24  1  0  0  0  0
 31 27  2  0  0  0  0
 32 28  1  0  0  0  0
 32 34  2  0  0  0  0
 33 27  1  0  0  0  0
 33 26  2  0  0  0  0
 34 33  1  0  0  0  0
 35 34  1  0  0  0  0
 35 31  1  0  0  0  0
 38 39  1  0  0  0  0
 39 36  2  0  0  0  0
 39 37  2  0  0  0  0
M  END
>  <MODEL>
6

>  <REMARK>
 VINA RESULT:      -6.9      5.270     11.105
  Name = 
  5 active torsions:
  status: ('A' for Active; 'I' for Inactive)
    1  A    between atoms: C_4  and  C_18
    2  A    between atoms: C_7  and  S_34
    3  A    between atoms: C_12  and  C_27
    4  A    between atoms: N_13  and  C_18
    5  A    between atoms: C_15  and  C_31
                            x       y       z     vdW  Elec       q    Type
                         _______ _______ _______ _____ _____    ______ ____

>  <TORSDO>
F 5

$$$$
=
 OpenBabel11062417413D

 39 44  0  0  1  0  0  0  0  0999 V2000
  189.7440  177.1070  140.4430 O   0  0  0  0  0  0  0  0  0  0  0  0
  188.2450  176.2380  137.9460 C   0  0  0  0  0  1  0  0  0  0  0  0
  186.6470  178.2470  137.6620 C   0  0  1  0  0  0  0  0  0  0  0  0
  188.0360  178.8710  137.4820 C   0  0  1  0  0  3  0  0  0  0  0  0
  188.6660  177.6670  140.7800 C   0  0  0  0  0  0  0  0  0  0  0  0
  186.3900  178.5750  140.0730 C   0  0  0  0  0  3  0  0  0  0  0  0
  187.8400  177.6470  138.3750 C   0  0  2  0  0  0  0  0  0  0  0  0
  188.6050  178.5020  136.2600 O   0  0  0  0  0  1  0  0  0  0  0  0
  187.6490  177.9090  139.7910 N   0  0  0  0  0  0  0  0  0  0  0  0
  185.7410  178.8570  138.7250 C   0  0  0  0  0  3  0  0  0  0  0  0
  190.7700  177.8320  145.3730 C   0  0  1  0  0  3  0  0  0  0  0  0
  190.8640  178.8870  142.7120 C   0  0  0  0  0  2  0  0  0  0  0  0
  189.7860  177.8610  143.0410 C   0  0  2  0  0  3  0  0  0  0  0  0
  188.4270  176.8740  144.9750 C   0  0  0  0  0  2  0  0  0  0  0  0
  191.7090  178.8210  144.9850 O   0  0  0  0  0  0  0  0  0  0  0  0
  187.5500  176.3780  143.8190 C   0  0  0  0  0  2  0  0  0  0  0  0
  187.2400  177.5050  142.8340 C   0  0  0  0  0  2  0  0  0  0  0  0
  188.5140  178.0980  142.2100 C   0  0  2  0  0  3  0  0  0  0  0  0
  192.0620  178.6410  143.6270 C   0  0  0  0  0  2  0  0  0  0  0  0
  189.4780  177.9090  144.5400 C   0  0  1  0  0  3  0  0  0  0  0  0
  191.5730  175.7030  144.3320 O   0  0  0  0  0  0  0  0  0  0  0  0
  191.7080  175.9850  146.6020 O   0  0  0  0  0  1  0  0  0  0  0  0
  191.3860  176.4610  145.4800 C   0  0  0  0  0  0  0  0  0  0  0  0
  186.0340  177.4420  136.5090 C   0  0  0  0  0  2  0  0  0  0  0  0
  184.1730  171.1250  136.4580 C   0  0  0  0  0  3  0  0  0  0  0  0
  185.1070  172.1620  136.2770 C   0  0  0  0  0  0  0  0  0  0  0  0
  185.3560  174.6100  136.4400 N   0  0  0  0  0  0  0  0  0  0  0  0
  182.8630  171.4280  136.8950 C   0  0  0  0  0  3  0  0  0  0  0  0
  183.6680  177.8900  137.1890 C   0  0  0  0  0  1  0  0  0  0  0  0
  184.7170  176.9370  136.8710 N   0  0  0  0  0  0  0  0  0  0  0  0
  184.4310  175.5330  136.8250 C   0  0  0  0  0  0  0  0  0  0  0  0
  182.4940  172.7220  137.1450 N   0  0  0  0  0  0  0  0  0  0  0  0
  184.6730  173.4600  136.5450 C   0  0  0  0  0  0  0  0  0  0  0  0
  183.4090  173.7080  136.9680 C   0  0  0  0  0  0  0  0  0  0  0  0
  183.2140  175.0190  137.1550 N   0  0  0  0  0  2  0  0  0  0  0  0
  187.0950  172.7320  134.5940 O   0  0  0  0  0  0  0  0  0  0  0  0
  186.8480  170.3970  135.2870 O   0  0  0  0  0  0  0  0  0  0  0  0
  187.8450  172.0870  137.0450 N   0  0  0  0  0  1  0  0  0  0  0  0
  186.7450  171.8260  135.7400 S   0  0  0  0  0  0  0  0  0  0  0  0
  1  5  2  0  0  0  0
  3 24  1  6  0  0  0
  3  7  1  0  0  0  0
  3 10  1  0  0  0  0
  4  8  1  6  0  0  0
  4  3  1  0  0  0  0
  4  7  1  0  0  0  0
  7  2  1  6  0  0  0
  7  9  1  0  0  0  0
  9  6  1  0  0  0  0
  9  5  1  0  0  0  0
 10  6  2  0  0  0  0
 11 23  1  6  0  0  0
 12 19  1  0  0  0  0
 13 12  1  1  0  0  0
 13 20  1  0  0  0  0
 15 11  1  0  0  0  0
 16 14  1  0  0  0  0
 17 16  1  0  0  0  0
 18  5  1  6  0  0  0
 18 17  1  0  0  0  0
 18 13  1  0  0  0  0
 19 15  1  0  0  0  0
 20 14  1  1  0  0  0
 20 11  1  0  0  0  0
 21 23  2  0  0  0  0
 23 22  1  0  0  0  0
 24 30  1  0  0  0  0
 25 28  2  0  0  0  0
 26 25  1  0  0  0  0
 26 33  2  0  0  0  0
 27 33  1  0  0  0  0
 27 31  2  0  0  0  0
 28 32  1  0  0  0  0
 30 29  1  0  0  0  0
 31 30  1  0  0  0  0
 31 35  1  0  0  0  0
 33 34  1  0  0  0  0
 34 32  2  0  0  0  0
 34 35  1  0  0  0  0
 36 39  2  0  0  0  0
 37 39  2  0  0  0  0
 39 26  1  0  0  0  0
 39 38  1  0  0  0  0
M  END
>  <MODEL>
7

>  <REMARK>
 VINA RESULT:      -6.6      4.958     10.437
  Name = 
  5 active torsions:
  status: ('A' for Active; 'I' for Inactive)
    1  A    between atoms: C_4  and  C_18
    2  A    between atoms: C_7  and  S_34
    3  A    between atoms: C_12  and  C_27
    4  A    between atoms: N_13  and  C_18
    5  A    between atoms: C_15  and  C_31
                            x       y       z     vdW  Elec       q    Type
                         _______ _______ _______ _____ _____    ______ ____

>  <TORSDO>
F 5

$$$$
=
 OpenBabel11062417413D

 39 44  0  0  1  0  0  0  0  0999 V2000
  185.1070  177.5780  134.5940 O   0  0  0  0  0  0  0  0  0  0  0  0
  187.2850  178.9620  136.1980 C   0  0  0  0  0  1  0  0  0  0  0  0
  188.6230  176.9040  137.0020 C   0  0  1  0  0  0  0  0  0  0  0  0
  188.7790  176.8540  135.4790 C   0  0  1  0  0  3  0  0  0  0  0  0
  185.2190  176.6410  135.4280 C   0  0  0  0  0  0  0  0  0  0  0  0
  186.6260  175.5070  137.2290 C   0  0  0  0  0  3  0  0  0  0  0  0
  187.5270  177.4560  136.1160 C   0  0  2  0  0  0  0  0  0  0  0  0
  189.6320  177.8620  135.0210 O   0  0  0  0  0  1  0  0  0  0  0  0
  186.3900  176.5650  136.2620 N   0  0  0  0  0  0  0  0  0  0  0  0
  188.0700  175.6600  137.6880 C   0  0  0  0  0  3  0  0  0  0  0  0
  181.0040  175.0880  137.7460 C   0  0  1  0  0  3  0  0  0  0  0  0
  182.1330  177.0690  136.0140 C   0  0  0  0  0  2  0  0  0  0  0  0
  183.0390  175.9500  136.5110 C   0  0  2  0  0  3  0  0  0  0  0  0
  183.0190  173.5440  137.3920 C   0  0  0  0  0  2  0  0  0  0  0  0
  180.2300  176.1420  137.1990 O   0  0  0  0  0  0  0  0  0  0  0  0
  184.5080  173.6320  137.0370 C   0  0  0  0  0  2  0  0  0  0  0  0
  184.7110  174.1940  135.6300 C   0  0  0  0  0  2  0  0  0  0  0  0
  184.1280  175.6100  135.4810 C   0  0  2  0  0  3  0  0  0  0  0  0
  181.0320  177.2980  137.0480 C   0  0  0  0  0  2  0  0  0  0  0  0
  182.1920  174.7170  136.8390 C   0  0  1  0  0  3  0  0  0  0  0  0
  182.5520  175.9170  139.5270 O   0  0  0  0  0  0  0  0  0  0  0  0
  180.5650  174.9390  140.1100 O   0  0  0  0  0  1  0  0  0  0  0  0
  181.3470  175.3150  139.1960 C   0  0  0  0  0  0  0  0  0  0  0  0
  189.4550  177.9100  137.8070 C   0  0  0  0  0  2  0  0  0  0  0  0
  187.0600  177.5120  143.9290 C   0  0  0  0  0  3  0  0  0  0  0  0
  187.0000  177.9020  142.5780 C   0  0  0  0  0  0  0  0  0  0  0  0
  188.2690  177.8110  140.4660 N   0  0  0  0  0  0  0  0  0  0  0  0
  188.1830  176.7960  144.4030 C   0  0  0  0  0  3  0  0  0  0  0  0
  191.4420  176.7230  138.7590 C   0  0  0  0  0  1  0  0  0  0  0  0
  190.1050  177.2610  138.9370 N   0  0  0  0  0  0  0  0  0  0  0  0
  189.4790  177.2360  140.2280 C   0  0  0  0  0  0  0  0  0  0  0  0
  189.2130  176.4770  143.5600 N   0  0  0  0  0  0  0  0  0  0  0  0
  188.0790  177.5510  141.7680 C   0  0  0  0  0  0  0  0  0  0  0  0
  189.1350  176.8590  142.2610 C   0  0  0  0  0  0  0  0  0  0  0  0
  190.0520  176.6400  141.3100 N   0  0  0  0  0  2  0  0  0  0  0  0
  185.3970  180.0240  142.7750 O   0  0  0  0  0  0  0  0  0  0  0  0
  184.3910  177.9260  142.0130 O   0  0  0  0  0  0  0  0  0  0  0  0
  185.9180  179.2300  140.3070 N   0  0  0  0  0  1  0  0  0  0  0  0
  185.6200  178.7880  141.9490 S   0  0  0  0  0  0  0  0  0  0  0  0
  1  5  2  0  0  0  0
  3 10  1  0  0  0  0
  3 24  1  1  0  0  0
  4  8  1  1  0  0  0
  4  7  1  0  0  0  0
  4  3  1  0  0  0  0
  5  9  1  0  0  0  0
  6 10  2  0  0  0  0
  7  2  1  6  0  0  0
  7  9  1  0  0  0  0
  7  3  1  0  0  0  0
  9  6  1  0  0  0  0
 11 23  1  1  0  0  0
 12 19  1  0  0  0  0
 13 12  1  6  0  0  0
 13 20  1  0  0  0  0
 15 11  1  0  0  0  0
 16 14  1  0  0  0  0
 17 16  1  0  0  0  0
 18  5  1  1  0  0  0
 18 17  1  0  0  0  0
 18 13  1  0  0  0  0
 19 15  1  0  0  0  0
 20 14  1  1  0  0  0
 20 11  1  0  0  0  0
 23 21  2  0  0  0  0
 23 22  1  0  0  0  0
 24 30  1  0  0  0  0
 25 28  2  0  0  0  0
 26 25  1  0  0  0  0
 27 33  1  0  0  0  0
 29 30  1  0  0  0  0
 30 31  1  0  0  0  0
 31 27  2  0  0  0  0
 31 35  1  0  0  0  0
 32 28  1  0  0  0  0
 33 34  1  0  0  0  0
 33 26  2  0  0  0  0
 34 32  2  0  0  0  0
 35 34  1  0  0  0  0
 38 39  1  0  0  0  0
 39 37  2  0  0  0  0
 39 26  1  0  0  0  0
 39 36  2  0  0  0  0
M  END
>  <MODEL>
8

>  <REMARK>
 VINA RESULT:      -6.6      4.361      6.196
  Name = 
  5 active torsions:
  status: ('A' for Active; 'I' for Inactive)
    1  A    between atoms: C_4  and  C_18
    2  A    between atoms: C_7  and  S_34
    3  A    between atoms: C_12  and  C_27
    4  A    between atoms: N_13  and  C_18
    5  A    between atoms: C_15  and  C_31
                            x       y       z     vdW  Elec       q    Type
                         _______ _______ _______ _____ _____    ______ ____

>  <TORSDO>
F 5

$$$$
=
 OpenBabel11062417413D

 39 44  0  0  1  0  0  0  0  0999 V2000
  192.5720  176.0640  135.7680 O   0  0  0  0  0  0  0  0  0  0  0  0
  189.8740  176.9420  134.6790 C   0  0  0  0  0  1  0  0  0  0  0  0
  188.3070  175.6930  136.3080 C   0  0  1  0  0  0  0  0  0  0  0  0
  189.0620  176.6670  137.2200 C   0  0  1  0  0  3  0  0  0  0  0  0
  191.9920  174.9880  136.0730 C   0  0  0  0  0  0  0  0  0  0  0  0
  189.7960  173.7600  136.4960 C   0  0  0  0  0  3  0  0  0  0  0  0
  189.7170  176.1160  135.9540 C   0  0  2  0  0  0  0  0  0  0  0  0
  188.6370  177.9830  137.0220 O   0  0  0  0  0  1  0  0  0  0  0  0
  190.5540  174.9410  136.1240 N   0  0  0  0  0  0  0  0  0  0  0  0
  188.3540  174.2140  136.6760 C   0  0  0  0  0  3  0  0  0  0  0  0
  196.4370  173.3740  137.8600 C   0  0  1  0  0  3  0  0  0  0  0  0
  193.9480  174.6150  138.5400 C   0  0  0  0  0  2  0  0  0  0  0  0
  194.1680  174.1950  137.0930 C   0  0  2  0  0  3  0  0  0  0  0  0
  195.4940  172.5750  135.6140 C   0  0  0  0  0  2  0  0  0  0  0  0
  196.1240  173.7600  139.1870 O   0  0  0  0  0  0  0  0  0  0  0  0
  194.4180  172.9690  134.5950 C   0  0  0  0  0  2  0  0  0  0  0  0
  193.0180  172.8730  135.2000 C   0  0  0  0  0  2  0  0  0  0  0  0
  192.8460  173.8000  136.4160 C   0  0  2  0  0  3  0  0  0  0  0  0
  195.3070  174.9140  139.1710 C   0  0  0  0  0  2  0  0  0  0  0  0
  195.1740  173.0400  137.0450 C   0  0  1  0  0  3  0  0  0  0  0  0
  198.7530  174.0140  137.1650 O   0  0  0  0  0  1  0  0  0  0  0  0
  196.9950  175.4020  136.6870 O   0  0  0  0  0  0  0  0  0  0  0  0
  197.4010  174.3220  137.1940 C   0  0  0  0  0  0  0  0  0  0  0  0
  187.1680  176.2230  135.4290 C   0  0  0  0  0  2  0  0  0  0  0  0
  182.6060  177.4030  140.0290 C   0  0  0  0  0  3  0  0  0  0  0  0
  183.8090  177.6750  139.3530 C   0  0  0  0  0  0  0  0  0  0  0  0
  185.2350  176.8680  137.5100 N   0  0  0  0  0  0  0  0  0  0  0  0
  181.8040  176.3120  139.6230 C   0  0  0  0  0  3  0  0  0  0  0  0
  185.7310  174.2600  134.8420 C   0  0  0  0  0  1  0  0  0  0  0  0
  185.9490  175.4550  135.6390 N   0  0  0  0  0  0  0  0  0  0  0  0
  185.0250  175.8130  136.6760 C   0  0  0  0  0  0  0  0  0  0  0  0
  182.1870  175.5180  138.5760 N   0  0  0  0  0  0  0  0  0  0  0  0
  184.1480  176.8310  138.2970 C   0  0  0  0  0  0  0  0  0  0  0  0
  183.3490  175.7980  137.9350 C   0  0  0  0  0  0  0  0  0  0  0  0
  183.8740  175.1220  136.9060 N   0  0  0  0  0  2  0  0  0  0  0  0
  184.5810  179.3650  141.2670 O   0  0  0  0  0  0  0  0  0  0  0  0
  184.5140  180.2230  138.9750 O   0  0  0  0  0  0  0  0  0  0  0  0
  186.4890  178.5980  139.6060 N   0  0  0  0  0  1  0  0  0  0  0  0
  184.8300  179.0240  139.8250 S   0  0  0  0  0  0  0  0  0  0  0  0
  1  5  2  0  0  0  0
  3 24  1  6  0  0  0
  3 10  1  0  0  0  0
  3  4  1  0  0  0  0
  4  8  1  6  0  0  0
  5  9  1  0  0  0  0
  6 10  2  0  0  0  0
  7  2  1  6  0  0  0
  7  9  1  0  0  0  0
  7  3  1  0  0  0  0
  7  4  1  0  0  0  0
  9  6  1  0  0  0  0
 11 23  1  6  0  0  0
 11 15  1  0  0  0  0
 12 19  1  0  0  0  0
 13 12  1  1  0  0  0
 16 17  1  0  0  0  0
 16 14  1  0  0  0  0
 17 18  1  0  0  0  0
 18  5  1  6  0  0  0
 18 13  1  0  0  0  0
 19 15  1  0  0  0  0
 20 14  1  6  0  0  0
 20 13  1  0  0  0  0
 20 11  1  0  0  0  0
 21 23  1  0  0  0  0
 22 23  2  0  0  0  0
 24 30  1  0  0  0  0
 26 39  1  0  0  0  0
 26 25  1  0  0  0  0
 27 33  1  0  0  0  0
 28 25  2  0  0  0  0
 29 30  1  0  0  0  0
 30 31  1  0  0  0  0
 31 35  1  0  0  0  0
 31 27  2  0  0  0  0
 32 28  1  0  0  0  0
 33 26  2  0  0  0  0
 34 33  1  0  0  0  0
 34 32  2  0  0  0  0
 35 34  1  0  0  0  0
 37 39  2  0  0  0  0
 38 39  1  0  0  0  0
 39 36  2  0  0  0  0
M  END
>  <MODEL>
9

>  <REMARK>
 VINA RESULT:      -6.5      7.573     12.064
  Name = 
  5 active torsions:
  status: ('A' for Active; 'I' for Inactive)
    1  A    between atoms: C_4  and  C_18
    2  A    between atoms: C_7  and  S_34
    3  A    between atoms: C_12  and  C_27
    4  A    between atoms: N_13  and  C_18
    5  A    between atoms: C_15  and  C_31
                            x       y       z     vdW  Elec       q    Type
                         _______ _______ _______ _____ _____    ______ ____

>  <TORSDO>
F 5

$$$$
