=
 OpenBabel11062415453D

 27 29  0  0  1  0  0  0  0  0999 V2000
  188.0620  177.6340  142.4550 C   0  0  0  0  0  3  0  0  0  0  0  0
  185.5250  178.7100  143.0440 C   0  0  0  0  0  0  0  0  0  0  0  0
  187.5220  177.4770  143.7320 C   0  0  0  0  0  0  0  0  0  0  0  0
  185.7190  177.7980  145.3000 O   0  0  0  0  0  1  0  0  0  0  0  0
  185.4220  179.5390  140.7450 O   0  0  0  0  0  1  0  0  0  0  0  0
  187.3460  178.3120  141.4710 C   0  0  0  0  0  3  0  0  0  0  0  0
  186.2530  178.0010  144.0300 C   0  0  0  0  0  0  0  0  0  0  0  0
  186.0900  178.8510  141.7530 C   0  0  0  0  0  0  0  0  0  0  0  0
  184.2030  179.3140  143.3600 C   0  0  0  0  0  0  0  0  0  0  0  0
  183.0090  178.7820  142.7820 N   0  0  0  0  0  2  0  0  0  0  0  0
  184.1230  180.2940  144.1500 O   0  0  0  0  0  0  0  0  0  0  0  0
  181.7390  179.2920  143.0940 N   0  0  0  0  0  0  0  0  0  0  0  0
  180.0250  179.9930  141.1670 O   0  0  0  0  0  1  0  0  0  0  0  0
  179.7450  178.2370  144.0090 C   0  0  0  0  0  2  0  0  0  0  0  0
  180.6560  178.7910  141.8310 P   0  0  2  0  0  0  0  0  0  0  0  0
  181.2340  178.5310  144.2280 C   0  0  0  0  0  2  0  0  0  0  0  0
  179.4930  177.9030  142.6660 O   0  0  0  0  0  0  0  0  0  0  0  0
  181.4310  177.8180  140.6830 O   0  0  0  0  0  0  0  0  0  0  0  0
  188.3290  176.7790  144.7800 C   0  0  0  0  0  2  0  0  0  0  0  0
  190.9580  176.9520  146.8740 C   0  0  0  0  0  3  0  0  0  0  0  0
  189.7790  177.5860  146.5290 O   0  0  0  0  0  0  0  0  0  0  0  0
  189.5740  177.5840  145.1260 C   0  0  1  0  0  3  0  0  0  0  0  0
  190.8120  176.8780  144.5740 C   0  0  2  0  0  3  0  0  0  0  0  0
  191.5910  176.5250  145.7980 C   0  0  0  0  0  3  0  0  0  0  0  0
  191.8770  178.9610  144.1250 O   0  0  0  0  0  1  0  0  0  0  0  0
  192.0090  177.4170  142.4360 O   0  0  0  0  0  0  0  0  0  0  0  0
  191.6060  177.8050  143.7100 C   0  0  0  0  0  0  0  0  0  0  0  0
  1  3  1  0  0  0  0
  2  9  1  0  0  0  0
  2  7  1  0  0  0  0
  3  7  2  0  0  0  0
  3 19  1  0  0  0  0
  5  8  1  0  0  0  0
  6  8  1  0  0  0  0
  6  1  2  0  0  0  0
  7  4  1  0  0  0  0
  8  2  2  0  0  0  0
  9 11  2  0  0  0  0
 10 12  1  0  0  0  0
 10  9  1  0  0  0  0
 12 16  1  0  0  0  0
 13 15  1  0  0  0  0
 14 16  1  0  0  0  0
 15 18  2  6  0  0  0
 15 17  1  0  0  0  0
 15 12  1  0  0  0  0
 17 14  1  0  0  0  0
 21 20  1  0  0  0  0
 22 19  1  1  0  0  0
 22 21  1  0  0  0  0
 23 27  1  6  0  0  0
 23 22  1  0  0  0  0
 23 24  1  0  0  0  0
 24 20  2  0  0  0  0
 26 27  2  0  0  0  0
 27 25  1  0  0  0  0
M  END
>  <MODEL>
1

>  <REMARK>
 VINA RESULT:      -8.3      0.000      0.000
  Name = 
  5 active torsions:
  status: ('A' for Active; 'I' for Inactive)
    1  A    between atoms: C_1  and  C_8
    2  A    between atoms: N_2  and  N_6
    3  A    between atoms: C_4  and  C_11
    4  A    between atoms: C_4  and  C_22
    5  A    between atoms: C_23  and  C_25
                            x       y       z     vdW  Elec       q    Type
                         _______ _______ _______ _____ _____    ______ ____

>  <TORSDO>
F 5

$$$$
=
 OpenBabel11062415453D

 27 29  0  0  1  0  0  0  0  0999 V2000
  186.6490  177.6110  146.3350 C   0  0  0  0  0  3  0  0  0  0  0  0
  185.1060  178.4670  144.1380 C   0  0  0  0  0  0  0  0  0  0  0  0
  187.1220  177.4130  145.0380 C   0  0  0  0  0  0  0  0  0  0  0  0
  186.8740  177.6720  142.6540 O   0  0  0  0  0  1  0  0  0  0  0  0
  183.4230  179.2660  145.7230 O   0  0  0  0  0  1  0  0  0  0  0  0
  185.4230  178.2390  146.5460 C   0  0  0  0  0  3  0  0  0  0  0  0
  186.3630  177.8470  143.9380 C   0  0  0  0  0  0  0  0  0  0  0  0
  184.6500  178.6640  145.4640 C   0  0  0  0  0  0  0  0  0  0  0  0
  184.2690  178.8850  142.9810 C   0  0  0  0  0  0  0  0  0  0  0  0
  184.2170  178.0820  141.8000 N   0  0  0  0  0  2  0  0  0  0  0  0
  183.5900  179.9460  143.0370 O   0  0  0  0  0  0  0  0  0  0  0  0
  183.4020  178.4160  140.7080 N   0  0  0  0  0  0  0  0  0  0  0  0
  184.1030  180.3540  139.0070 O   0  0  0  0  0  0  0  0  0  0  0  0
  182.9090  177.2450  138.6310 C   0  0  0  0  0  2  0  0  0  0  0  0
  184.4480  178.9430  139.4230 P   0  0  2  0  0  0  0  0  0  0  0  0
  182.8780  177.1720  140.1630 C   0  0  0  0  0  2  0  0  0  0  0  0
  184.0910  177.8610  138.1830 O   0  0  0  0  0  0  0  0  0  0  0  0
  186.0810  178.8330  139.8540 O   0  0  0  0  0  1  0  0  0  0  0  0
  188.4220  176.7020  144.8410 C   0  0  0  0  0  2  0  0  0  0  0  0
  191.0830  177.0300  146.8740 C   0  0  0  0  0  3  0  0  0  0  0  0
  189.8380  177.5600  146.5940 O   0  0  0  0  0  0  0  0  0  0  0  0
  189.5920  177.6080  145.1980 C   0  0  1  0  0  3  0  0  0  0  0  0
  190.8760  177.0600  144.5780 C   0  0  2  0  0  3  0  0  0  0  0  0
  191.7230  176.7240  145.7610 C   0  0  0  0  0  3  0  0  0  0  0  0
  191.9870  179.1470  144.2930 O   0  0  0  0  0  1  0  0  0  0  0  0
  191.6520  177.9530  142.3650 O   0  0  0  0  0  0  0  0  0  0  0  0
  191.5470  178.1040  143.7450 C   0  0  0  0  0  0  0  0  0  0  0  0
  1  6  1  0  0  0  0
  2  8  1  0  0  0  0
  3  1  2  0  0  0  0
  4  7  1  0  0  0  0
  7  2  2  0  0  0  0
  7  3  1  0  0  0  0
  8  5  1  0  0  0  0
  8  6  2  0  0  0  0
  9 11  2  0  0  0  0
  9  2  1  0  0  0  0
 10  9  1  0  0  0  0
 12 10  1  0  0  0  0
 14 16  1  0  0  0  0
 15 13  2  6  0  0  0
 15 18  1  0  0  0  0
 15 12  1  0  0  0  0
 16 12  1  0  0  0  0
 17 14  1  0  0  0  0
 17 15  1  0  0  0  0
 19  3  1  0  0  0  0
 21 20  1  0  0  0  0
 22 19  1  1  0  0  0
 22 21  1  0  0  0  0
 23 27  1  6  0  0  0
 23 22  1  0  0  0  0
 23 24  1  0  0  0  0
 24 20  2  0  0  0  0
 26 27  2  0  0  0  0
 27 25  1  0  0  0  0
M  END
>  <MODEL>
2

>  <REMARK>
 VINA RESULT:      -8.3      2.342      3.249
  Name = 
  5 active torsions:
  status: ('A' for Active; 'I' for Inactive)
    1  A    between atoms: C_1  and  C_8
    2  A    between atoms: N_2  and  N_6
    3  A    between atoms: C_4  and  C_11
    4  A    between atoms: C_4  and  C_22
    5  A    between atoms: C_23  and  C_25
                            x       y       z     vdW  Elec       q    Type
                         _______ _______ _______ _____ _____    ______ ____

>  <TORSDO>
F 5

$$$$
=
 OpenBabel11062415453D

 27 29  0  0  1  0  0  0  0  0999 V2000
  185.5180  178.2640  143.2910 C   0  0  0  0  0  3  0  0  0  0  0  0
  187.0240  178.3360  140.9100 C   0  0  0  0  0  0  0  0  0  0  0  0
  186.7680  177.6460  143.2430 C   0  0  0  0  0  0  0  0  0  0  0  0
  188.7900  177.0960  142.0520 O   0  0  0  0  0  1  0  0  0  0  0  0
  185.2070  179.6120  139.8850 O   0  0  0  0  0  1  0  0  0  0  0  0
  185.0190  178.9220  142.1700 C   0  0  0  0  0  3  0  0  0  0  0  0
  187.5290  177.6870  142.0630 C   0  0  0  0  0  0  0  0  0  0  0  0
  185.7560  178.9610  140.9850 C   0  0  0  0  0  0  0  0  0  0  0  0
  187.7970  178.3430  139.6390 C   0  0  0  0  0  0  0  0  0  0  0  0
  187.3570  177.5670  138.5230 N   0  0  0  0  0  2  0  0  0  0  0  0
  188.8400  179.0420  139.5320 O   0  0  0  0  0  0  0  0  0  0  0  0
  188.0300  177.5860  137.2910 N   0  0  0  0  0  0  0  0  0  0  0  0
  189.0460  175.3470  136.2420 O   0  0  0  0  0  0  0  0  0  0  0  0
  187.2350  177.8850  135.0090 C   0  0  0  0  0  2  0  0  0  0  0  0
  187.7400  176.0560  136.5190 P   0  0  2  0  0  0  0  0  0  0  0  0
  187.3040  178.4950  136.4160 C   0  0  0  0  0  2  0  0  0  0  0  0
  186.9950  176.5010  135.0760 O   0  0  0  0  0  0  0  0  0  0  0  0
  186.7130  175.0710  137.4360 O   0  0  0  0  0  1  0  0  0  0  0  0
  187.2610  176.9130  144.4490 C   0  0  0  0  0  2  0  0  0  0  0  0
  188.3340  177.5430  147.5760 C   0  0  0  0  0  3  0  0  0  0  0  0
  187.5910  178.0720  146.5380 O   0  0  0  0  0  0  0  0  0  0  0  0
  188.1820  177.7970  145.2790 C   0  0  1  0  0  3  0  0  0  0  0  0
  189.4550  177.0280  145.6280 C   0  0  2  0  0  3  0  0  0  0  0  0
  189.4110  176.9330  147.1180 C   0  0  0  0  0  3  0  0  0  0  0  0
  191.7990  177.4540  145.6320 O   0  0  0  0  0  1  0  0  0  0  0  0
  190.5510  178.8950  144.3600 O   0  0  0  0  0  0  0  0  0  0  0  0
  190.6670  177.7900  145.1990 C   0  0  0  0  0  0  0  0  0  0  0  0
  2  8  2  0  0  0  0
  2  7  1  0  0  0  0
  3  1  1  0  0  0  0
  3 19  1  0  0  0  0
  4  7  1  0  0  0  0
  5  8  1  0  0  0  0
  6  1  2  0  0  0  0
  7  3  2  0  0  0  0
  8  6  1  0  0  0  0
  9  2  1  0  0  0  0
 10  9  1  0  0  0  0
 11  9  2  0  0  0  0
 12 10  1  0  0  0  0
 14 17  1  0  0  0  0
 14 16  1  0  0  0  0
 15 13  2  6  0  0  0
 15 12  1  0  0  0  0
 15 18  1  0  0  0  0
 16 12  1  0  0  0  0
 17 15  1  0  0  0  0
 21 20  1  0  0  0  0
 22 19  1  6  0  0  0
 22 23  1  0  0  0  0
 22 21  1  0  0  0  0
 23 27  1  1  0  0  0
 23 24  1  0  0  0  0
 24 20  2  0  0  0  0
 26 27  2  0  0  0  0
 27 25  1  0  0  0  0
M  END
>  <MODEL>
3

>  <REMARK>
 VINA RESULT:      -8.2      4.007      5.735
  Name = 
  5 active torsions:
  status: ('A' for Active; 'I' for Inactive)
    1  A    between atoms: C_1  and  C_8
    2  A    between atoms: N_2  and  N_6
    3  A    between atoms: C_4  and  C_11
    4  A    between atoms: C_4  and  C_22
    5  A    between atoms: C_23  and  C_25
                            x       y       z     vdW  Elec       q    Type
                         _______ _______ _______ _____ _____    ______ ____

>  <TORSDO>
F 5

$$$$
=
 OpenBabel11062415453D

 27 29  0  0  1  0  0  0  0  0999 V2000
  186.4020  177.8960  143.3230 C   0  0  0  0  0  3  0  0  0  0  0  0
  187.6780  178.1200  140.8200 C   0  0  0  0  0  0  0  0  0  0  0  0
  187.6630  177.3290  143.1360 C   0  0  0  0  0  0  0  0  0  0  0  0
  189.5850  176.9060  141.7430 O   0  0  0  0  0  1  0  0  0  0  0  0
  185.7300  179.3630  140.0190 O   0  0  0  0  0  1  0  0  0  0  0  0
  185.7790  178.5770  142.2810 C   0  0  0  0  0  3  0  0  0  0  0  0
  188.3100  177.4470  141.8930 C   0  0  0  0  0  0  0  0  0  0  0  0
  186.4010  178.6920  141.0360 C   0  0  0  0  0  0  0  0  0  0  0  0
  188.3290  178.2070  139.4860 C   0  0  0  0  0  0  0  0  0  0  0  0
  188.2500  177.1120  138.5710 N   0  0  0  0  0  2  0  0  0  0  0  0
  188.9470  179.2520  139.1460 O   0  0  0  0  0  0  0  0  0  0  0  0
  188.8070  177.1740  137.2840 N   0  0  0  0  0  0  0  0  0  0  0  0
  191.4280  176.8160  136.9010 O   0  0  0  0  0  0  0  0  0  0  0  0
  188.6720  175.6630  135.3800 C   0  0  0  0  0  2  0  0  0  0  0  0
  190.1560  176.0780  137.2520 P   0  0  2  0  0  0  0  0  0  0  0  0
  187.8780  176.5170  136.3770 C   0  0  0  0  0  2  0  0  0  0  0  0
  189.7390  175.0080  136.0200 O   0  0  0  0  0  0  0  0  0  0  0  0
  190.3340  175.2530  138.7180 O   0  0  0  0  0  1  0  0  0  0  0  0
  188.2920  176.5700  144.2590 C   0  0  0  0  0  2  0  0  0  0  0  0
  188.1600  177.9170  147.3400 C   0  0  0  0  0  3  0  0  0  0  0  0
  188.0500  178.2240  145.9970 O   0  0  0  0  0  0  0  0  0  0  0  0
  189.0010  177.5150  145.2190 C   0  0  1  0  0  3  0  0  0  0  0  0
  189.7900  176.7060  146.2480 C   0  0  2  0  0  3  0  0  0  0  0  0
  189.1360  177.0540  147.5450 C   0  0  0  0  0  3  0  0  0  0  0  0
  191.6910  177.7770  145.2930 O   0  0  0  0  0  0  0  0  0  0  0  0
  192.0550  176.7810  147.3250 O   0  0  0  0  0  1  0  0  0  0  0  0
  191.2230  177.1310  146.2650 C   0  0  0  0  0  0  0  0  0  0  0  0
  2  8  2  0  0  0  0
  2  7  1  0  0  0  0
  3  1  1  0  0  0  0
  3 19  1  0  0  0  0
  4  7  1  0  0  0  0
  5  8  1  0  0  0  0
  6  1  2  0  0  0  0
  7  3  2  0  0  0  0
  8  6  1  0  0  0  0
  9  2  1  0  0  0  0
 10  9  1  0  0  0  0
 11  9  2  0  0  0  0
 12 10  1  0  0  0  0
 14 17  1  0  0  0  0
 14 16  1  0  0  0  0
 15 13  2  6  0  0  0
 15 12  1  0  0  0  0
 15 18  1  0  0  0  0
 16 12  1  0  0  0  0
 17 15  1  0  0  0  0
 20 24  2  0  0  0  0
 21 20  1  0  0  0  0
 22 19  1  6  0  0  0
 22 21  1  0  0  0  0
 22 23  1  0  0  0  0
 23 27  1  1  0  0  0
 23 24  1  0  0  0  0
 25 27  2  0  0  0  0
 27 26  1  0  0  0  0
M  END
>  <MODEL>
4

>  <REMARK>
 VINA RESULT:      -8.0      4.172      6.470
  Name = 
  5 active torsions:
  status: ('A' for Active; 'I' for Inactive)
    1  A    between atoms: C_1  and  C_8
    2  A    between atoms: N_2  and  N_6
    3  A    between atoms: C_4  and  C_11
    4  A    between atoms: C_4  and  C_22
    5  A    between atoms: C_23  and  C_25
                            x       y       z     vdW  Elec       q    Type
                         _______ _______ _______ _____ _____    ______ ____

>  <TORSDO>
F 5

$$$$
=
 OpenBabel11062415453D

 27 29  0  0  1  0  0  0  0  0999 V2000
  185.9030  177.9540  145.5570 C   0  0  0  0  0  3  0  0  0  0  0  0
  185.2270  178.5940  142.8970 C   0  0  0  0  0  0  0  0  0  0  0  0
  186.7460  177.5660  144.5160 C   0  0  0  0  0  0  0  0  0  0  0  0
  187.2990  177.5270  142.1690 O   0  0  0  0  0  1  0  0  0  0  0  0
  183.2030  179.6730  143.7460 O   0  0  0  0  0  1  0  0  0  0  0  0
  184.7350  178.6630  145.2850 C   0  0  0  0  0  3  0  0  0  0  0  0
  186.4220  177.8910  143.1870 C   0  0  0  0  0  0  0  0  0  0  0  0
  184.3900  178.9830  143.9700 C   0  0  0  0  0  0  0  0  0  0  0  0
  184.8460  178.9000  141.4920 C   0  0  0  0  0  0  0  0  0  0  0  0
  183.7330  178.2390  140.8860 N   0  0  0  0  0  2  0  0  0  0  0  0
  185.4940  179.7530  140.8270 O   0  0  0  0  0  0  0  0  0  0  0  0
  183.3110  178.5360  139.5800 N   0  0  0  0  0  0  0  0  0  0  0  0
  183.3950  176.6870  137.6520 O   0  0  0  0  0  0  0  0  0  0  0  0
  181.1010  178.9260  138.6360 C   0  0  0  0  0  2  0  0  0  0  0  0
  182.6480  177.0770  138.9060 P   0  0  2  0  0  0  0  0  0  0  0  0
  182.1240  179.3710  139.6890 C   0  0  0  0  0  2  0  0  0  0  0  0
  181.0670  177.5230  138.5350 O   0  0  0  0  0  0  0  0  0  0  0  0
  182.6570  175.8050  140.0230 O   0  0  0  0  0  1  0  0  0  0  0  0
  187.9730  176.7720  144.8330 C   0  0  0  0  0  2  0  0  0  0  0  0
  190.7000  177.0940  146.7780 C   0  0  0  0  0  3  0  0  0  0  0  0
  189.4350  177.6050  146.5600 O   0  0  0  0  0  0  0  0  0  0  0  0
  189.1360  177.6920  145.1770 C   0  0  1  0  0  3  0  0  0  0  0  0
  190.4070  177.1900  144.4930 C   0  0  2  0  0  3  0  0  0  0  0  0
  191.3040  176.8360  145.6340 C   0  0  0  0  0  3  0  0  0  0  0  0
  190.9550  179.4670  144.0600 O   0  0  0  0  0  1  0  0  0  0  0  0
  191.6430  177.9800  142.4580 O   0  0  0  0  0  0  0  0  0  0  0  0
  191.0270  178.2730  143.6700 C   0  0  0  0  0  0  0  0  0  0  0  0
  2  7  2  0  0  0  0
  2  8  1  0  0  0  0
  3 19  1  0  0  0  0
  3  1  2  0  0  0  0
  4  7  1  0  0  0  0
  5  8  1  0  0  0  0
  6  1  1  0  0  0  0
  7  3  1  0  0  0  0
  8  6  2  0  0  0  0
  9  2  1  0  0  0  0
 10  9  1  0  0  0  0
 11  9  2  0  0  0  0
 12 16  1  0  0  0  0
 12 10  1  0  0  0  0
 14 16  1  0  0  0  0
 15 13  2  6  0  0  0
 15 12  1  0  0  0  0
 15 18  1  0  0  0  0
 17 14  1  0  0  0  0
 17 15  1  0  0  0  0
 21 20  1  0  0  0  0
 22 19  1  1  0  0  0
 22 21  1  0  0  0  0
 23 27  1  6  0  0  0
 23 22  1  0  0  0  0
 23 24  1  0  0  0  0
 24 20  2  0  0  0  0
 26 27  2  0  0  0  0
 27 25  1  0  0  0  0
M  END
>  <MODEL>
5

>  <REMARK>
 VINA RESULT:      -7.9      2.186      2.990
  Name = 
  5 active torsions:
  status: ('A' for Active; 'I' for Inactive)
    1  A    between atoms: C_1  and  C_8
    2  A    between atoms: N_2  and  N_6
    3  A    between atoms: C_4  and  C_11
    4  A    between atoms: C_4  and  C_22
    5  A    between atoms: C_23  and  C_25
                            x       y       z     vdW  Elec       q    Type
                         _______ _______ _______ _____ _____    ______ ____

>  <TORSDO>
F 5

$$$$
=
 OpenBabel11062415453D

 27 29  0  0  1  0  0  0  0  0999 V2000
  187.6160  177.1460  145.3120 C   0  0  0  0  0  3  0  0  0  0  0  0
  185.3770  178.5540  144.3380 C   0  0  0  0  0  0  0  0  0  0  0  0
  187.4220  177.2720  143.9360 C   0  0  0  0  0  0  0  0  0  0  0  0
  186.1630  178.1280  142.0660 O   0  0  0  0  0  1  0  0  0  0  0  0
  184.7120  178.9560  146.6570 O   0  0  0  0  0  1  0  0  0  0  0  0
  186.7120  177.7210  146.2020 C   0  0  0  0  0  3  0  0  0  0  0  0
  186.3140  177.9820  143.4430 C   0  0  0  0  0  0  0  0  0  0  0  0
  185.5990  178.4180  145.7300 C   0  0  0  0  0  0  0  0  0  0  0  0
  184.1730  179.2640  143.8300 C   0  0  0  0  0  0  0  0  0  0  0  0
  183.1110  178.5330  143.2130 N   0  0  0  0  0  2  0  0  0  0  0  0
  184.0740  180.5150  143.9500 O   0  0  0  0  0  0  0  0  0  0  0  0
  181.9370  179.1600  142.7660 N   0  0  0  0  0  0  0  0  0  0  0  0
  181.6050  179.7850  140.1900 O   0  0  0  0  0  0  0  0  0  0  0  0
  179.6580  178.3450  142.5080 C   0  0  0  0  0  2  0  0  0  0  0  0
  181.6440  178.6130  141.1430 P   0  0  2  0  0  0  0  0  0  0  0  0
  180.8240  178.5540  143.4820 C   0  0  0  0  0  2  0  0  0  0  0  0
  180.1240  177.8980  141.2580 O   0  0  0  0  0  0  0  0  0  0  0  0
  182.7960  177.4790  140.6420 O   0  0  0  0  0  1  0  0  0  0  0  0
  188.3860  176.6110  143.0040 C   0  0  0  0  0  2  0  0  0  0  0  0
  191.2630  178.2730  143.5360 C   0  0  0  0  0  3  0  0  0  0  0  0
  189.8960  178.4420  143.4320 O   0  0  0  0  0  0  0  0  0  0  0  0
  189.3450  177.6330  142.4070 C   0  0  1  0  0  3  0  0  0  0  0  0
  190.5560  176.9140  141.8130 C   0  0  2  0  0  3  0  0  0  0  0  0
  191.6980  177.4110  142.6370 C   0  0  0  0  0  3  0  0  0  0  0  0
  189.7770  177.7540  139.7240 O   0  0  0  0  0  0  0  0  0  0  0  0
  191.9810  177.1260  139.7590 O   0  0  0  0  0  1  0  0  0  0  0  0
  190.7490  177.3010  140.3820 C   0  0  0  0  0  0  0  0  0  0  0  0
  1  6  1  0  0  0  0
  2  8  1  0  0  0  0
  3  1  2  0  0  0  0
  4  7  1  0  0  0  0
  7  3  1  0  0  0  0
  7  2  2  0  0  0  0
  8  6  2  0  0  0  0
  8  5  1  0  0  0  0
  9 11  2  0  0  0  0
  9  2  1  0  0  0  0
 10  9  1  0  0  0  0
 12 10  1  0  0  0  0
 12 16  1  0  0  0  0
 14 16  1  0  0  0  0
 15 13  2  6  0  0  0
 15 17  1  0  0  0  0
 15 12  1  0  0  0  0
 17 14  1  0  0  0  0
 18 15  1  0  0  0  0
 19  3  1  0  0  0  0
 21 20  1  0  0  0  0
 22 19  1  1  0  0  0
 22 21  1  0  0  0  0
 23 27  1  6  0  0  0
 23 22  1  0  0  0  0
 23 24  1  0  0  0  0
 24 20  2  0  0  0  0
 25 27  2  0  0  0  0
 26 27  1  0  0  0  0
M  END
>  <MODEL>
6

>  <REMARK>
 VINA RESULT:      -7.8      1.765      2.767
  Name = 
  5 active torsions:
  status: ('A' for Active; 'I' for Inactive)
    1  A    between atoms: C_1  and  C_8
    2  A    between atoms: N_2  and  N_6
    3  A    between atoms: C_4  and  C_11
    4  A    between atoms: C_4  and  C_22
    5  A    between atoms: C_23  and  C_25
                            x       y       z     vdW  Elec       q    Type
                         _______ _______ _______ _____ _____    ______ ____

>  <TORSDO>
F 5

$$$$
=
 OpenBabel11062415453D

 27 29  0  0  1  0  0  0  0  0999 V2000
  183.4810  178.6250  144.1400 C   0  0  0  0  0  3  0  0  0  0  0  0
  184.4260  179.0710  141.5220 C   0  0  0  0  0  0  0  0  0  0  0  0
  184.7970  179.0440  143.9400 C   0  0  0  0  0  0  0  0  0  0  0  0
  186.5770  179.7330  142.4680 O   0  0  0  0  0  1  0  0  0  0  0  0
  182.2160  178.4300  140.6930 O   0  0  0  0  0  1  0  0  0  0  0  0
  182.6330  178.4370  143.0510 C   0  0  0  0  0  3  0  0  0  0  0  0
  185.2710  179.2790  142.6380 C   0  0  0  0  0  0  0  0  0  0  0  0
  183.0920  178.6530  141.7500 C   0  0  0  0  0  0  0  0  0  0  0  0
  184.9300  179.2670  140.1370 C   0  0  0  0  0  0  0  0  0  0  0  0
  186.0100  178.4710  139.6430 N   0  0  0  0  0  2  0  0  0  0  0  0
  184.4020  180.1280  139.3820 O   0  0  0  0  0  0  0  0  0  0  0  0
  186.4820  178.5900  138.3260 N   0  0  0  0  0  0  0  0  0  0  0  0
  188.9860  179.3780  137.8270 O   0  0  0  0  0  0  0  0  0  0  0  0
  187.0350  176.9230  136.6410 C   0  0  0  0  0  2  0  0  0  0  0  0
  188.1780  178.2120  138.3480 P   0  0  2  0  0  0  0  0  0  0  0  0
  185.9440  177.4680  137.5710 C   0  0  0  0  0  2  0  0  0  0  0  0
  188.2820  176.9050  137.2910 O   0  0  0  0  0  0  0  0  0  0  0  0
  188.7060  177.7680  139.8930 O   0  0  0  0  0  1  0  0  0  0  0  0
  185.6960  179.2000  145.1250 C   0  0  0  0  0  2  0  0  0  0  0  0
  187.7400  176.7870  143.9750 C   0  0  0  0  0  3  0  0  0  0  0  0
  186.4300  177.0440  144.3340 O   0  0  0  0  0  0  0  0  0  0  0  0
  186.3550  177.8750  145.4800 C   0  0  1  0  0  3  0  0  0  0  0  0
  187.8160  178.1130  145.8600 C   0  0  2  0  0  3  0  0  0  0  0  0
  188.5770  177.3720  144.8100 C   0  0  0  0  0  3  0  0  0  0  0  0
  188.8360  176.5170  147.3030 O   0  0  0  0  0  0  0  0  0  0  0  0
  187.5550  178.0990  148.3550 O   0  0  0  0  0  1  0  0  0  0  0  0
  188.1110  177.5390  147.2080 C   0  0  0  0  0  0  0  0  0  0  0  0
  2  8  2  0  0  0  0
  2  7  1  0  0  0  0
  3  1  1  0  0  0  0
  3 19  1  0  0  0  0
  4  7  1  0  0  0  0
  5  8  1  0  0  0  0
  6  1  2  0  0  0  0
  7  3  2  0  0  0  0
  8  6  1  0  0  0  0
  9  2  1  0  0  0  0
 10  9  1  0  0  0  0
 11  9  2  0  0  0  0
 12 15  1  0  0  0  0
 12 10  1  0  0  0  0
 14 17  1  0  0  0  0
 14 16  1  0  0  0  0
 15 13  2  6  0  0  0
 15 18  1  0  0  0  0
 16 12  1  0  0  0  0
 17 15  1  0  0  0  0
 20 21  1  0  0  0  0
 20 24  2  0  0  0  0
 21 22  1  0  0  0  0
 22 19  1  6  0  0  0
 22 23  1  0  0  0  0
 23 27  1  1  0  0  0
 24 23  1  0  0  0  0
 27 25  2  0  0  0  0
 27 26  1  0  0  0  0
M  END
>  <MODEL>
7

>  <REMARK>
 VINA RESULT:      -7.7      3.227      5.723
  Name = 
  5 active torsions:
  status: ('A' for Active; 'I' for Inactive)
    1  A    between atoms: C_1  and  C_8
    2  A    between atoms: N_2  and  N_6
    3  A    between atoms: C_4  and  C_11
    4  A    between atoms: C_4  and  C_22
    5  A    between atoms: C_23  and  C_25
                            x       y       z     vdW  Elec       q    Type
                         _______ _______ _______ _____ _____    ______ ____

>  <TORSDO>
F 5

$$$$
=
 OpenBabel11062415453D

 27 29  0  0  1  0  0  0  0  0999 V2000
  189.4230  176.4010  143.5330 C   0  0  0  0  0  3  0  0  0  0  0  0
  188.9430  177.5140  140.9890 C   0  0  0  0  0  0  0  0  0  0  0  0
  188.1840  176.9780  143.2520 C   0  0  0  0  0  0  0  0  0  0  0  0
  186.6770  178.0610  141.7140 O   0  0  0  0  0  1  0  0  0  0  0  0
  191.2190  176.8760  140.3600 O   0  0  0  0  0  1  0  0  0  0  0  0
  190.4160  176.3650  142.5570 C   0  0  0  0  0  3  0  0  0  0  0  0
  187.9340  177.5250  141.9820 C   0  0  0  0  0  0  0  0  0  0  0  0
  190.1890  176.9160  141.2950 C   0  0  0  0  0  0  0  0  0  0  0  0
  188.7080  178.1340  139.6580 C   0  0  0  0  0  0  0  0  0  0  0  0
  188.0770  177.3890  138.6150 N   0  0  0  0  0  2  0  0  0  0  0  0
  189.0550  179.3270  139.4410 O   0  0  0  0  0  0  0  0  0  0  0  0
  187.7930  177.9550  137.3620 N   0  0  0  0  0  0  0  0  0  0  0  0
  189.3830  177.5130  135.2600 O   0  0  0  0  0  0  0  0  0  0  0  0
  186.0620  177.4770  135.7180 C   0  0  0  0  0  2  0  0  0  0  0  0
  188.3630  176.8440  136.1520 P   0  0  2  0  0  0  0  0  0  0  0  0
  186.3520  177.8790  137.1690 C   0  0  0  0  0  2  0  0  0  0  0  0
  186.9640  176.4890  135.2830 O   0  0  0  0  0  0  0  0  0  0  0  0
  189.0060  175.4380  136.8390 O   0  0  0  0  0  1  0  0  0  0  0  0
  187.1500  177.0370  144.3310 C   0  0  0  0  0  2  0  0  0  0  0  0
  185.8790  178.9700  146.7750 C   0  0  0  0  0  3  0  0  0  0  0  0
  186.4010  179.0110  145.4960 O   0  0  0  0  0  0  0  0  0  0  0  0
  187.4920  178.1180  145.3470 C   0  0  1  0  0  3  0  0  0  0  0  0
  187.6470  177.4910  146.7320 C   0  0  2  0  0  3  0  0  0  0  0  0
  186.5490  178.1180  147.5270 C   0  0  0  0  0  3  0  0  0  0  0  0
  190.0250  177.3850  146.8060 O   0  0  0  0  0  0  0  0  0  0  0  0
  189.0550  178.6290  148.4690 O   0  0  0  0  0  1  0  0  0  0  0  0
  188.9740  177.8400  147.3240 C   0  0  0  0  0  0  0  0  0  0  0  0
  2  8  2  0  0  0  0
  2  7  1  0  0  0  0
  3  1  1  0  0  0  0
  3 19  1  0  0  0  0
  4  7  1  0  0  0  0
  5  8  1  0  0  0  0
  6  1  2  0  0  0  0
  7  3  2  0  0  0  0
  8  6  1  0  0  0  0
  9  2  1  0  0  0  0
 10  9  1  0  0  0  0
 11  9  2  0  0  0  0
 12 10  1  0  0  0  0
 14 16  1  0  0  0  0
 15 13  2  6  0  0  0
 15 18  1  0  0  0  0
 15 12  1  0  0  0  0
 16 12  1  0  0  0  0
 17 14  1  0  0  0  0
 17 15  1  0  0  0  0
 20 24  2  0  0  0  0
 21 20  1  0  0  0  0
 22 19  1  6  0  0  0
 22 21  1  0  0  0  0
 22 23  1  0  0  0  0
 23 27  1  1  0  0  0
 23 24  1  0  0  0  0
 25 27  2  0  0  0  0
 27 26  1  0  0  0  0
M  END
>  <MODEL>
8

>  <REMARK>
 VINA RESULT:      -7.6      4.307      6.369
  Name = 
  5 active torsions:
  status: ('A' for Active; 'I' for Inactive)
    1  A    between atoms: C_1  and  C_8
    2  A    between atoms: N_2  and  N_6
    3  A    between atoms: C_4  and  C_11
    4  A    between atoms: C_4  and  C_22
    5  A    between atoms: C_23  and  C_25
                            x       y       z     vdW  Elec       q    Type
                         _______ _______ _______ _____ _____    ______ ____

>  <TORSDO>
F 5

$$$$
=
 OpenBabel11062415453D

 27 29  0  0  1  0  0  0  0  0999 V2000
  186.4350  178.0880  143.6260 C   0  0  0  0  0  3  0  0  0  0  0  0
  185.1970  178.6880  141.1660 C   0  0  0  0  0  0  0  0  0  0  0  0
  187.2120  178.2310  142.4760 C   0  0  0  0  0  0  0  0  0  0  0  0
  187.4040  178.7160  140.1230 O   0  0  0  0  0  1  0  0  0  0  0  0
  183.0450  178.6760  142.3280 O   0  0  0  0  0  1  0  0  0  0  0  0
  185.0530  178.2500  143.5610 C   0  0  0  0  0  3  0  0  0  0  0  0
  186.6030  178.5410  141.2480 C   0  0  0  0  0  0  0  0  0  0  0  0
  184.4300  178.5450  142.3470 C   0  0  0  0  0  0  0  0  0  0  0  0
  184.5350  178.9650  139.8630 C   0  0  0  0  0  0  0  0  0  0  0  0
  183.8650  177.9180  139.1570 N   0  0  0  0  0  2  0  0  0  0  0  0
  184.5480  180.1280  139.3770 O   0  0  0  0  0  0  0  0  0  0  0  0
  183.1860  178.1500  137.9500 N   0  0  0  0  0  0  0  0  0  0  0  0
  183.8040  176.7840  135.7380 O   0  0  0  0  0  0  0  0  0  0  0  0
  180.9220  177.6170  137.2330 C   0  0  0  0  0  2  0  0  0  0  0  0
  183.1370  176.6430  137.0870 P   0  0  2  0  0  0  0  0  0  0  0  0
  181.7810  178.3440  138.2760 C   0  0  0  0  0  2  0  0  0  0  0  0
  181.4850  176.3730  136.9000 O   0  0  0  0  0  0  0  0  0  0  0  0
  183.8460  175.3860  137.9700 O   0  0  0  0  0  1  0  0  0  0  0  0
  188.6880  178.0130  142.5670 C   0  0  0  0  0  2  0  0  0  0  0  0
  191.0350  175.8300  143.5930 C   0  0  0  0  0  3  0  0  0  0  0  0
  189.7710  175.9110  143.0410 O   0  0  0  0  0  0  0  0  0  0  0  0
  189.0140  176.9620  143.6200 C   0  0  1  0  0  3  0  0  0  0  0  0
  189.9520  177.5580  144.6690 C   0  0  2  0  0  3  0  0  0  0  0  0
  191.1980  176.7470  144.5270 C   0  0  0  0  0  3  0  0  0  0  0  0
  188.2520  177.8710  146.3070 O   0  0  0  0  0  0  0  0  0  0  0  0
  190.1110  176.7480  147.0370 O   0  0  0  0  0  1  0  0  0  0  0  0
  189.3830  177.3910  146.0400 C   0  0  0  0  0  0  0  0  0  0  0  0
  2  7  2  0  0  0  0
  2  8  1  0  0  0  0
  3 19  1  0  0  0  0
  3  1  2  0  0  0  0
  4  7  1  0  0  0  0
  5  8  1  0  0  0  0
  6  1  1  0  0  0  0
  7  3  1  0  0  0  0
  8  6  2  0  0  0  0
  9  2  1  0  0  0  0
 10  9  1  0  0  0  0
 11  9  2  0  0  0  0
 12 16  1  0  0  0  0
 12 10  1  0  0  0  0
 14 16  1  0  0  0  0
 15 13  2  6  0  0  0
 15 12  1  0  0  0  0
 15 18  1  0  0  0  0
 17 15  1  0  0  0  0
 17 14  1  0  0  0  0
 20 24  2  0  0  0  0
 21 20  1  0  0  0  0
 21 22  1  0  0  0  0
 22 19  1  6  0  0  0
 22 23  1  0  0  0  0
 23 27  1  1  0  0  0
 24 23  1  0  0  0  0
 27 25  2  0  0  0  0
 27 26  1  0  0  0  0
M  END
>  <MODEL>
9

>  <REMARK>
 VINA RESULT:      -7.5      3.100      4.191
  Name = 
  5 active torsions:
  status: ('A' for Active; 'I' for Inactive)
    1  A    between atoms: C_1  and  C_8
    2  A    between atoms: N_2  and  N_6
    3  A    between atoms: C_4  and  C_11
    4  A    between atoms: C_4  and  C_22
    5  A    between atoms: C_23  and  C_25
                            x       y       z     vdW  Elec       q    Type
                         _______ _______ _______ _____ _____    ______ ____

>  <TORSDO>
F 5

$$$$
