=
 OpenBabel11062416353D

 61 67  0  0  1  0  0  0  0  0999 V2000
  188.0610  177.6210  138.4820 N   0  0  0  0  0  0  0  0  0  0  0  0
  186.4620  176.0730  136.2950 C   0  0  0  0  0  3  0  0  0  0  0  0
  183.8010  176.2220  137.2320 C   0  0  0  0  0  3  0  0  0  0  0  0
  185.9810  178.7900  138.7570 O   0  0  0  0  0  0  0  0  0  0  0  0
  186.0560  177.0540  137.2010 C   0  0  0  0  0  0  0  0  0  0  0  0
  186.8420  178.1350  137.8310 C   0  0  2  0  0  3  0  0  0  0  0  0
  184.1770  175.2120  136.3320 C   0  0  0  0  0  3  0  0  0  0  0  0
  184.7830  177.1250  137.6510 C   0  0  0  0  0  0  0  0  0  0  0  0
  185.5030  175.1370  135.8640 C   0  0  0  0  0  3  0  0  0  0  0  0
  184.6640  178.3070  138.5300 C   0  0  1  0  0  3  0  0  0  0  0  0
  182.9050  178.5500  140.3020 C   0  0  0  0  0  0  0  0  0  0  0  0
  184.0160  177.9670  139.8360 C   0  0  0  0  0  3  0  0  0  0  0  0
  180.9340  179.7330  139.5780 O   0  0  0  0  0  0  0  0  0  0  0  0
  182.1900  179.6490  139.6140 C   0  0  0  0  0  3  0  0  0  0  0  0
  182.4210  178.1310  141.6500 C   0  0  0  0  0  2  0  0  0  0  0  0
  183.0330  178.9940  142.7520 C   0  0  1  0  0  3  0  0  0  0  0  0
  182.2670  178.8020  144.0460 C   0  0  0  0  0  1  0  0  0  0  0  0
  184.5210  178.6920  142.9620 C   0  0  1  0  0  3  0  0  0  0  0  0
  185.3330  179.7410  142.5130 O   0  0  0  0  0  1  0  0  0  0  0  0
  184.8370  178.3490  144.3900 C   0  0  0  0  0  3  0  0  0  0  0  0
  185.9280  178.8110  145.0090 C   0  0  0  0  0  3  0  0  0  0  0  0
  186.2170  178.4580  146.4310 C   0  0  0  0  0  2  0  0  0  0  0  0
  188.0830  177.3350  145.5450 O   0  0  0  0  0  0  0  0  0  0  0  0
  187.5410  177.7640  146.5520 C   0  0  0  0  0  0  0  0  0  0  0  0
  188.1950  177.5600  147.8900 C   0  0  0  0  0  0  0  0  0  0  0  0
  189.2300  178.4650  148.0380 F   0  0  0  0  0  0  0  0  0  0  0  0
  188.7030  176.2750  147.9620 F   0  0  0  0  0  0  0  0  0  0  0  0
  187.2850  177.7440  148.9190 F   0  0  0  0  0  0  0  0  0  0  0  0
  189.1550  177.5670  137.5110 C   0  0  2  0  0  3  0  0  0  0  0  0
  189.7510  176.1680  137.4150 C   0  0  2  0  0  3  0  0  0  0  0  0
  190.4490  177.2320  138.2340 C   0  0  0  0  0  2  0  0  0  0  0  0
  190.4500  176.0380  136.0720 C   0  0  0  0  0  2  0  0  0  0  0  0
  193.5140  173.7230  136.1110 C   0  0  1  0  0  3  0  0  0  0  0  0
  198.1840  172.9530  137.7250 C   0  0  0  0  0  3  0  0  0  0  0  0
  197.2100  172.1750  137.0930 C   0  0  0  0  0  0  0  0  0  0  0  0
  192.8800  176.3640  136.7340 N   0  0  0  0  0  2  0  0  0  0  0  0
  194.8520  171.9010  136.1710 C   0  0  0  0  0  2  0  0  0  0  0  0
  192.1120  174.2240  135.9620 C   0  0  0  0  0  3  0  0  0  0  0  0
  196.6140  174.7420  137.9400 N   0  0  0  0  0  0  0  0  0  0  0  0
  197.8620  174.2410  138.1600 C   0  0  0  0  0  0  0  0  0  0  0  0
  194.2520  174.5430  137.1750 C   0  0  2  0  0  3  0  0  0  0  0  0
  194.2310  175.9500  136.7800 N   0  0  0  0  0  2  0  0  0  0  0  0
  193.5480  172.3630  136.4670 O   0  0  0  0  0  0  0  0  0  0  0  0
  197.5320  170.8980  136.6500 O   0  0  0  0  0  1  0  0  0  0  0  0
  191.8390  175.5070  136.2290 C   0  0  0  0  0  0  0  0  0  0  0  0
  195.6490  174.0110  137.3150 C   0  0  0  0  0  0  0  0  0  0  0  0
  195.9210  172.6900  136.9080 C   0  0  0  0  0  0  0  0  0  0  0  0
  198.9190  175.0760  138.8050 C   0  0  0  0  0  2  0  0  0  0  0  0
  198.9910  174.8060  140.2350 N   0  0  0  0  0  2  0  0  0  0  0  0
  198.1830  175.1050  142.5140 O   0  0  0  0  0  1  0  0  0  0  0  0
  197.3140  176.3360  140.7880 O   0  0  0  0  0  0  0  0  0  0  0  0
  198.1310  175.4560  141.1700 C   0  0  0  0  0  0  0  0  0  0  0  0
  188.4870  178.5350  139.5450 C   0  0  0  0  0  2  0  0  0  0  0  0
  187.9260  178.0850  140.8840 C   0  0  0  0  0  2  0  0  0  0  0  0
  188.2110  176.4440  142.5900 O   0  0  0  0  0  1  0  0  0  0  0  0
  188.8850  177.1230  141.5700 C   0  0  2  0  0  3  0  0  0  0  0  0
  189.6660  178.7460  143.2330 N   0  0  0  0  0  2  0  0  0  0  0  0
  191.6240  177.7550  144.2010 C   0  0  0  0  0  2  0  0  0  0  0  0
  190.0800  177.8870  142.1310 C   0  0  1  0  0  3  0  0  0  0  0  0
  190.8750  179.0490  143.9750 C   0  0  0  0  0  2  0  0  0  0  0  0
  191.3350  176.7170  142.7450 S   0  0  0  0  0  0  0  0  0  0  0  0
  1 53  1  0  0  0  0
  2  5  1  0  0  0  0
  3  8  1  0  0  0  0
  5  8  2  0  0  0  0
  5  6  1  0  0  0  0
  6  1  1  1  0  0  0
  6  4  1  0  0  0  0
  7  3  2  0  0  0  0
  8 10  1  0  0  0  0
  9  2  2  0  0  0  0
  9  7  1  0  0  0  0
 10  4  1  0  0  0  0
 10 12  1  1  0  0  0
 11 15  1  0  0  0  0
 12 11  2  0  0  0  0
 13 14  2  0  0  0  0
 14 11  1  0  0  0  0
 15 16  1  0  0  0  0
 16 18  1  0  0  0  0
 16 17  1  1  0  0  0
 18 19  1  1  0  0  0
 18 20  1  0  0  0  0
 20 21  2  0  0  0  0
 21 22  1  0  0  0  0
 22 24  1  0  0  0  0
 23 24  2  0  0  0  0
 24 25  1  0  0  0  0
 25 27  1  0  0  0  0
 25 26  1  0  0  0  0
 25 28  1  0  0  0  0
 29 31  1  0  0  0  0
 29  1  1  1  0  0  0
 30 32  1  6  0  0  0
 30 29  1  0  0  0  0
 30 31  1  0  0  0  0
 32 45  1  0  0  0  0
 33 38  1  1  0  0  0
 33 43  1  0  0  0  0
 33 41  1  0  0  0  0
 34 40  1  0  0  0  0
 35 34  2  0  0  0  0
 36 42  1  0  0  0  0
 37 43  1  0  0  0  0
 37 47  1  0  0  0  0
 38 45  2  0  0  0  0
 39 40  2  0  0  0  0
 40 48  1  0  0  0  0
 41 42  1  6  0  0  0
 41 46  1  0  0  0  0
 44 35  1  0  0  0  0
 45 36  1  0  0  0  0
 46 39  1  0  0  0  0
 47 35  1  0  0  0  0
 47 46  2  0  0  0  0
 48 49  1  0  0  0  0
 49 52  1  0  0  0  0
 51 52  2  0  0  0  0
 52 50  1  0  0  0  0
 53 54  1  0  0  0  0
 54 56  1  0  0  0  0
 56 55  1  1  0  0  0
 57 60  1  0  0  0  0
 59 56  1  1  0  0  0
 59 61  1  0  0  0  0
 59 57  1  0  0  0  0
 60 58  1  0  0  0  0
 61 58  1  0  0  0  0
M  END
>  <MODEL>
1

>  <REMARK>
 VINA RESULT:      -8.6      0.000      0.000
  Name = 
  19 active torsions:
  status: ('A' for Active; 'I' for Inactive)
    1  A    between atoms: C_1  and  C_14
    2  A    between atoms: C_12  and  N_37
    3  A    between atoms: C_13  and  C_39
    4  A    between atoms: C_13  and  C_42
    5  A    between atoms: C_14  and  C_19
    6  A    between atoms: N_15  and  C_18
    7  A    between atoms: C_16  and  C_33
    8  A    between atoms: C_16  and  C_54
    9  A    between atoms: C_18  and  C_32
   10  A    between atoms: C_19  and  C_42
   11  A    between atoms: C_20  and  C_53
   12  A    between atoms: C_27  and  C_54
   13  A    between atoms: C_29  and  C_59
   14  A    between atoms: C_31  and  N_37
   15  A    between atoms: C_33  and  N_37
   16  A    between atoms: C_44  and  C_51
   17  A    between atoms: C_50  and  C_53
   18  A    between atoms: C_50  and  C_58
   19  A    between atoms: C_51  and  C_52
                            x       y       z     vdW  Elec       q    Type
                         _______ _______ _______ _____ _____    ______ ____

>  <TORSDO>
F 19

$$$$
=
 OpenBabel11062416353D

 61 67  0  0  1  0  0  0  0  0999 V2000
  182.8570  176.5540  137.2150 N   0  0  0  0  0  0  0  0  0  0  0  0
  181.3410  179.2760  137.0600 C   0  0  0  0  0  3  0  0  0  0  0  0
  181.9760  180.4960  139.5280 C   0  0  0  0  0  3  0  0  0  0  0  0
  184.3410  177.7960  138.6370 O   0  0  0  0  0  0  0  0  0  0  0  0
  182.4610  178.8950  137.8020 C   0  0  0  0  0  0  0  0  0  0  0  0
  183.4740  177.8610  137.5090 C   0  0  2  0  0  3  0  0  0  0  0  0
  180.8330  180.8960  138.8170 C   0  0  0  0  0  3  0  0  0  0  0  0
  182.7640  179.4770  138.9840 C   0  0  0  0  0  0  0  0  0  0  0  0
  180.5170  180.2890  137.5860 C   0  0  0  0  0  3  0  0  0  0  0  0
  184.0360  178.9040  139.4730 C   0  0  1  0  0  3  0  0  0  0  0  0
  184.8990  178.6080  141.8100 C   0  0  0  0  0  0  0  0  0  0  0  0
  183.9330  178.4530  140.8960 C   0  0  0  0  0  3  0  0  0  0  0  0
  187.2210  178.5190  141.1760 O   0  0  0  0  0  0  0  0  0  0  0  0
  186.2240  179.2030  141.5270 C   0  0  0  0  0  3  0  0  0  0  0  0
  184.6530  178.0500  143.1730 C   0  0  0  0  0  2  0  0  0  0  0  0
  184.3570  179.1580  144.1800 C   0  0  1  0  0  3  0  0  0  0  0  0
  182.8970  179.1150  144.5840 C   0  0  0  0  0  1  0  0  0  0  0  0
  185.2570  179.0680  145.4190 C   0  0  1  0  0  3  0  0  0  0  0  0
  184.5310  178.7210  146.5650 O   0  0  0  0  0  1  0  0  0  0  0  0
  186.4130  178.1290  145.2170 C   0  0  0  0  0  3  0  0  0  0  0  0
  187.3890  177.9980  146.1190 C   0  0  0  0  0  3  0  0  0  0  0  0
  188.5250  177.0550  145.8960 C   0  0  0  0  0  2  0  0  0  0  0  0
  188.3040  176.3470  143.6650 O   0  0  0  0  0  0  0  0  0  0  0  0
  188.9320  177.0370  144.4530 C   0  0  0  0  0  0  0  0  0  0  0  0
  190.1150  177.8270  143.9670 C   0  0  0  0  0  0  0  0  0  0  0  0
  190.0020  178.0300  142.6030 F   0  0  0  0  0  0  0  0  0  0  0  0
  191.2770  177.1210  144.2250 F   0  0  0  0  0  0  0  0  0  0  0  0
  190.1840  179.0570  144.6010 F   0  0  0  0  0  0  0  0  0  0  0  0
  183.5220  175.9410  136.0640 C   0  0  2  0  0  3  0  0  0  0  0  0
  184.4840  176.9110  135.3900 C   0  0  2  0  0  3  0  0  0  0  0  0
  183.1110  176.6750  134.7990 C   0  0  0  0  0  2  0  0  0  0  0  0
  185.5070  176.1040  134.6070 C   0  0  0  0  0  2  0  0  0  0  0  0
  188.3100  176.5950  137.1860 C   0  0  1  0  0  3  0  0  0  0  0  0
  193.1790  176.1630  138.2390 C   0  0  0  0  0  3  0  0  0  0  0  0
  192.0830  176.7830  138.8450 C   0  0  0  0  0  0  0  0  0  0  0  0
  187.8920  175.2480  134.7820 N   0  0  0  0  0  2  0  0  0  0  0  0
  189.6200  177.4290  138.8300 C   0  0  0  0  0  2  0  0  0  0  0  0
  187.0020  176.7080  136.4670 C   0  0  0  0  0  3  0  0  0  0  0  0
  191.8190  175.5980  136.3570 N   0  0  0  0  0  0  0  0  0  0  0  0
  193.0330  175.5840  136.9760 C   0  0  0  0  0  0  0  0  0  0  0  0
  189.4290  176.2760  136.1870 C   0  0  2  0  0  3  0  0  0  0  0  0
  189.0950  175.0350  135.4920 N   0  0  0  0  0  2  0  0  0  0  0  0
  188.6290  177.7750  137.8800 O   0  0  0  0  0  0  0  0  0  0  0  0
  192.2240  177.3490  140.1060 O   0  0  0  0  0  1  0  0  0  0  0  0
  186.8100  176.0210  135.3360 C   0  0  0  0  0  0  0  0  0  0  0  0
  190.7300  176.1820  136.9310 C   0  0  0  0  0  0  0  0  0  0  0  0
  190.8510  176.8210  138.1800 C   0  0  0  0  0  0  0  0  0  0  0  0
  194.2020  174.8980  136.3520 C   0  0  0  0  0  2  0  0  0  0  0  0
  195.4430  175.5920  136.6730 N   0  0  0  0  0  2  0  0  0  0  0  0
  197.8730  175.7650  136.6310 O   0  0  0  0  0  1  0  0  0  0  0  0
  196.8160  173.8760  135.8820 O   0  0  0  0  0  0  0  0  0  0  0  0
  196.7210  175.0290  136.3790 C   0  0  0  0  0  0  0  0  0  0  0  0
  183.0480  175.6430  138.3460 C   0  0  0  0  0  2  0  0  0  0  0  0
  181.8270  174.7520  138.5180 C   0  0  0  0  0  2  0  0  0  0  0  0
  180.1210  175.3980  140.0510 O   0  0  0  0  0  1  0  0  0  0  0  0
  180.5790  175.5920  138.7450 C   0  0  2  0  0  3  0  0  0  0  0  0
  179.6630  175.9680  136.5010 N   0  0  0  0  0  2  0  0  0  0  0  0
  179.3200  173.7750  135.5930 C   0  0  0  0  0  2  0  0  0  0  0  0
  179.5010  175.2100  137.7360 C   0  0  1  0  0  3  0  0  0  0  0  0
  178.9330  175.2320  135.4860 C   0  0  0  0  0  2  0  0  0  0  0  0
  179.6130  173.4330  137.3470 S   0  0  0  0  0  0  0  0  0  0  0  0
  1 53  1  0  0  0  0
  2  9  2  0  0  0  0
  2  5  1  0  0  0  0
  4 10  1  0  0  0  0
  5  8  2  0  0  0  0
  6  1  1  1  0  0  0
  6  5  1  0  0  0  0
  6  4  1  0  0  0  0
  7  3  2  0  0  0  0
  8 10  1  0  0  0  0
  8  3  1  0  0  0  0
  9  7  1  0  0  0  0
 10 12  1  1  0  0  0
 11 15  1  0  0  0  0
 12 11  2  0  0  0  0
 13 14  2  0  0  0  0
 14 11  1  0  0  0  0
 15 16  1  0  0  0  0
 16 17  1  1  0  0  0
 16 18  1  0  0  0  0
 18 19  1  1  0  0  0
 20 18  1  0  0  0  0
 20 21  2  0  0  0  0
 22 21  1  0  0  0  0
 23 24  2  0  0  0  0
 24 22  1  0  0  0  0
 25 27  1  0  0  0  0
 25 24  1  0  0  0  0
 25 28  1  0  0  0  0
 26 25  1  0  0  0  0
 29  1  1  1  0  0  0
 30 32  1  6  0  0  0
 30 29  1  0  0  0  0
 31 30  1  0  0  0  0
 31 29  1  0  0  0  0
 32 45  1  0  0  0  0
 33 38  1  6  0  0  0
 33 43  1  0  0  0  0
 34 35  1  0  0  0  0
 35 44  1  0  0  0  0
 36 45  1  0  0  0  0
 36 42  1  0  0  0  0
 39 46  2  0  0  0  0
 39 40  1  0  0  0  0
 40 34  2  0  0  0  0
 41 42  1  1  0  0  0
 41 46  1  0  0  0  0
 41 33  1  0  0  0  0
 43 37  1  0  0  0  0
 45 38  2  0  0  0  0
 46 47  1  0  0  0  0
 47 37  1  0  0  0  0
 47 35  2  0  0  0  0
 48 49  1  0  0  0  0
 48 40  1  0  0  0  0
 51 52  2  0  0  0  0
 52 50  1  0  0  0  0
 52 49  1  0  0  0  0
 53 54  1  0  0  0  0
 54 56  1  0  0  0  0
 56 55  1  1  0  0  0
 57 59  1  0  0  0  0
 58 61  1  0  0  0  0
 59 56  1  1  0  0  0
 60 58  1  0  0  0  0
 60 57  1  0  0  0  0
 61 59  1  0  0  0  0
M  END
>  <MODEL>
2

>  <REMARK>
 VINA RESULT:      -8.2      3.326      6.483
  Name = 
  19 active torsions:
  status: ('A' for Active; 'I' for Inactive)
    1  A    between atoms: C_1  and  C_14
    2  A    between atoms: C_12  and  N_37
    3  A    between atoms: C_13  and  C_39
    4  A    between atoms: C_13  and  C_42
    5  A    between atoms: C_14  and  C_19
    6  A    between atoms: N_15  and  C_18
    7  A    between atoms: C_16  and  C_33
    8  A    between atoms: C_16  and  C_54
    9  A    between atoms: C_18  and  C_32
   10  A    between atoms: C_19  and  C_42
   11  A    between atoms: C_20  and  C_53
   12  A    between atoms: C_27  and  C_54
   13  A    between atoms: C_29  and  C_59
   14  A    between atoms: C_31  and  N_37
   15  A    between atoms: C_33  and  N_37
   16  A    between atoms: C_44  and  C_51
   17  A    between atoms: C_50  and  C_53
   18  A    between atoms: C_50  and  C_58
   19  A    between atoms: C_51  and  C_52
                            x       y       z     vdW  Elec       q    Type
                         _______ _______ _______ _____ _____    ______ ____

>  <TORSDO>
F 19

$$$$
=
 OpenBabel11062416353D

 61 67  0  0  1  0  0  0  0  0999 V2000
  189.8680  174.2820  136.2500 N   0  0  0  0  0  0  0  0  0  0  0  0
  188.2530  176.8520  135.5290 C   0  0  0  0  0  3  0  0  0  0  0  0
  188.7110  178.5330  137.7520 C   0  0  0  0  0  3  0  0  0  0  0  0
  191.2260  175.8360  137.4800 O   0  0  0  0  0  0  0  0  0  0  0  0
  189.3470  176.6680  136.3750 C   0  0  0  0  0  0  0  0  0  0  0  0
  190.4150  175.6490  136.3230 C   0  0  2  0  0  3  0  0  0  0  0  0
  187.5900  178.7390  136.9310 C   0  0  0  0  0  3  0  0  0  0  0  0
  189.5660  177.4710  137.4410 C   0  0  0  0  0  0  0  0  0  0  0  0
  187.3620  177.9010  135.8220 C   0  0  0  0  0  3  0  0  0  0  0  0
  190.8330  177.0620  138.0820 C   0  0  1  0  0  3  0  0  0  0  0  0
  191.6400  177.1090  140.4570 C   0  0  0  0  0  0  0  0  0  0  0  0
  190.6760  176.8750  139.5580 C   0  0  0  0  0  3  0  0  0  0  0  0
  193.8840  176.7490  139.6540 O   0  0  0  0  0  0  0  0  0  0  0  0
  193.0140  177.5380  140.1090 C   0  0  0  0  0  3  0  0  0  0  0  0
  191.3340  176.8180  141.8880 C   0  0  0  0  0  2  0  0  0  0  0  0
  190.4240  177.8880  142.4880 C   0  0  1  0  0  3  0  0  0  0  0  0
  188.9870  177.4070  142.4860 C   0  0  0  0  0  1  0  0  0  0  0  0
  190.8540  178.2810  143.9060 C   0  0  1  0  0  3  0  0  0  0  0  0
  190.6290  179.6400  144.1600 O   0  0  0  0  0  1  0  0  0  0  0  0
  190.2010  177.4290  144.9570 C   0  0  0  0  0  3  0  0  0  0  0  0
  189.6780  177.9490  146.0720 C   0  0  0  0  0  3  0  0  0  0  0  0
  189.0300  177.0800  147.1000 C   0  0  0  0  0  2  0  0  0  0  0  0
  187.6690  177.9820  148.7910 O   0  0  0  0  0  0  0  0  0  0  0  0
  187.7630  177.7020  147.6060 C   0  0  0  0  0  0  0  0  0  0  0  0
  186.6000  177.9570  146.6890 C   0  0  0  0  0  0  0  0  0  0  0  0
  186.3710  176.8340  145.9140 F   0  0  0  0  0  0  0  0  0  0  0  0
  186.8930  179.0270  145.8620 F   0  0  0  0  0  0  0  0  0  0  0  0
  185.4530  178.2470  147.4120 F   0  0  0  0  0  0  0  0  0  0  0  0
  188.9120  174.1900  135.1450 C   0  0  2  0  0  3  0  0  0  0  0  0
  187.7500  173.2660  135.4860 C   0  0  2  0  0  3  0  0  0  0  0  0
  188.8870  172.7630  134.6240 C   0  0  0  0  0  2  0  0  0  0  0  0
  186.5740  173.6290  134.5940 C   0  0  0  0  0  2  0  0  0  0  0  0
  183.7520  176.1040  135.4040 C   0  0  1  0  0  3  0  0  0  0  0  0
  181.4760  178.9000  138.8700 C   0  0  0  0  0  3  0  0  0  0  0  0
  181.4170  178.8010  137.4780 C   0  0  0  0  0  0  0  0  0  0  0  0
  185.5350  174.4470  136.7620 N   0  0  0  0  0  2  0  0  0  0  0  0
  182.2550  177.7960  135.2930 C   0  0  0  0  0  2  0  0  0  0  0  0
  184.7550  175.2870  134.6520 C   0  0  0  0  0  3  0  0  0  0  0  0
  183.2960  177.3510  138.9020 N   0  0  0  0  0  0  0  0  0  0  0  0
  182.4410  178.1740  139.5730 C   0  0  0  0  0  0  0  0  0  0  0  0
  184.2690  176.3930  136.8190 C   0  0  2  0  0  3  0  0  0  0  0  0
  184.5280  175.1210  137.4910 N   0  0  0  0  0  2  0  0  0  0  0  0
  183.4750  177.3200  134.7550 O   0  0  0  0  0  0  0  0  0  0  0  0
  180.4510  179.5150  136.7790 O   0  0  0  0  0  1  0  0  0  0  0  0
  185.5740  174.4680  135.3220 C   0  0  0  0  0  0  0  0  0  0  0  0
  183.2510  177.2240  137.5460 C   0  0  0  0  0  0  0  0  0  0  0  0
  182.3270  177.9800  136.7990 C   0  0  0  0  0  0  0  0  0  0  0  0
  182.4760  178.2620  141.0620 C   0  0  0  0  0  2  0  0  0  0  0  0
  183.8170  177.9980  141.5660 N   0  0  0  0  0  2  0  0  0  0  0  0
  185.5520  178.2250  143.2620 O   0  0  0  0  0  0  0  0  0  0  0  0
  183.5810  179.3800  143.4340 O   0  0  0  0  0  1  0  0  0  0  0  0
  184.2940  178.5710  142.7830 C   0  0  0  0  0  0  0  0  0  0  0  0
  190.9400  173.3270  135.9600 C   0  0  0  0  0  2  0  0  0  0  0  0
  192.2100  174.0620  135.5640 C   0  0  0  0  0  2  0  0  0  0  0  0
  192.8940  171.7790  135.5500 O   0  0  0  0  0  1  0  0  0  0  0  0
  193.3230  173.0750  135.2470 C   0  0  2  0  0  3  0  0  0  0  0  0
  194.2180  173.9560  137.3530 N   0  0  0  0  0  2  0  0  0  0  0  0
  195.9390  172.4140  137.9930 C   0  0  0  0  0  2  0  0  0  0  0  0
  194.5760  173.4250  136.0430 C   0  0  1  0  0  3  0  0  0  0  0  0
  195.4050  173.8160  138.1750 C   0  0  0  0  0  2  0  0  0  0  0  0
  195.6020  171.9380  136.2790 S   0  0  0  0  0  0  0  0  0  0  0  0
  2  9  2  0  0  0  0
  2  5  1  0  0  0  0
  4 10  1  0  0  0  0
  5  8  2  0  0  0  0
  6  1  1  1  0  0  0
  6  5  1  0  0  0  0
  6  4  1  0  0  0  0
  7  3  2  0  0  0  0
  8  3  1  0  0  0  0
  8 10  1  0  0  0  0
  9  7  1  0  0  0  0
 10 12  1  1  0  0  0
 11 15  1  0  0  0  0
 12 11  2  0  0  0  0
 13 14  2  0  0  0  0
 14 11  1  0  0  0  0
 15 16  1  0  0  0  0
 16 17  1  1  0  0  0
 16 18  1  0  0  0  0
 18 19  1  1  0  0  0
 18 20  1  0  0  0  0
 20 21  2  0  0  0  0
 21 22  1  0  0  0  0
 22 24  1  0  0  0  0
 24 23  2  0  0  0  0
 25 28  1  0  0  0  0
 25 24  1  0  0  0  0
 26 25  1  0  0  0  0
 27 25  1  0  0  0  0
 29 30  1  0  0  0  0
 29  1  1  1  0  0  0
 30 32  1  6  0  0  0
 31 29  1  0  0  0  0
 31 30  1  0  0  0  0
 32 45  1  0  0  0  0
 33 38  1  6  0  0  0
 33 41  1  0  0  0  0
 34 40  1  0  0  0  0
 35 34  2  0  0  0  0
 36 42  1  0  0  0  0
 37 47  1  0  0  0  0
 38 45  2  0  0  0  0
 39 40  2  0  0  0  0
 40 48  1  0  0  0  0
 41 42  1  1  0  0  0
 41 46  1  0  0  0  0
 43 37  1  0  0  0  0
 43 33  1  0  0  0  0
 44 35  1  0  0  0  0
 45 36  1  0  0  0  0
 46 39  1  0  0  0  0
 47 35  1  0  0  0  0
 47 46  2  0  0  0  0
 48 49  1  0  0  0  0
 49 52  1  0  0  0  0
 52 50  2  0  0  0  0
 52 51  1  0  0  0  0
 53  1  1  0  0  0  0
 54 53  1  0  0  0  0
 56 55  1  1  0  0  0
 56 54  1  0  0  0  0
 57 60  1  0  0  0  0
 58 60  1  0  0  0  0
 59 56  1  1  0  0  0
 59 61  1  0  0  0  0
 59 57  1  0  0  0  0
 61 58  1  0  0  0  0
M  END
>  <MODEL>
3

>  <REMARK>
 VINA RESULT:      -7.3      2.712      9.466
  Name = 
  19 active torsions:
  status: ('A' for Active; 'I' for Inactive)
    1  A    between atoms: C_1  and  C_14
    2  A    between atoms: C_12  and  N_37
    3  A    between atoms: C_13  and  C_39
    4  A    between atoms: C_13  and  C_42
    5  A    between atoms: C_14  and  C_19
    6  A    between atoms: N_15  and  C_18
    7  A    between atoms: C_16  and  C_33
    8  A    between atoms: C_16  and  C_54
    9  A    between atoms: C_18  and  C_32
   10  A    between atoms: C_19  and  C_42
   11  A    between atoms: C_20  and  C_53
   12  A    between atoms: C_27  and  C_54
   13  A    between atoms: C_29  and  C_59
   14  A    between atoms: C_31  and  N_37
   15  A    between atoms: C_33  and  N_37
   16  A    between atoms: C_44  and  C_51
   17  A    between atoms: C_50  and  C_53
   18  A    between atoms: C_50  and  C_58
   19  A    between atoms: C_51  and  C_52
                            x       y       z     vdW  Elec       q    Type
                         _______ _______ _______ _____ _____    ______ ____

>  <TORSDO>
F 19

$$$$
=
 OpenBabel11062416353D

 61 67  0  0  1  0  0  0  0  0999 V2000
  189.0310  176.2360  135.6110 N   0  0  0  0  0  0  0  0  0  0  0  0
  189.4540  173.3170  134.5950 C   0  0  0  0  0  3  0  0  0  0  0  0
  186.9360  172.1170  135.0480 C   0  0  0  0  0  3  0  0  0  0  0  0
  186.7510  175.8100  134.9870 O   0  0  0  0  0  0  0  0  0  0  0  0
  188.2920  174.0780  134.7310 C   0  0  0  0  0  0  0  0  0  0  0  0
  188.1170  175.5440  134.6840 C   0  0  2  0  0  3  0  0  0  0  0  0
  188.0870  171.3210  134.9310 C   0  0  0  0  0  3  0  0  0  0  0  0
  187.0870  173.5040  134.9490 C   0  0  0  0  0  0  0  0  0  0  0  0
  189.3420  171.9180  134.7040 C   0  0  0  0  0  3  0  0  0  0  0  0
  186.0610  174.5680  134.9710 C   0  0  1  0  0  3  0  0  0  0  0  0
  183.8930  174.0850  136.1380 C   0  0  0  0  0  0  0  0  0  0  0  0
  185.1770  174.4640  136.1740 C   0  0  0  0  0  3  0  0  0  0  0  0
  182.0310  173.1970  134.8920 O   0  0  0  0  0  0  0  0  0  0  0  0
  183.1550  173.7660  134.8950 C   0  0  0  0  0  3  0  0  0  0  0  0
  183.1370  174.0880  137.4250 C   0  0  0  0  0  2  0  0  0  0  0  0
  182.5680  175.4710  137.7310 C   0  0  1  0  0  3  0  0  0  0  0  0
  181.1660  175.3420  138.2930 C   0  0  0  0  0  1  0  0  0  0  0  0
  183.4590  176.2630  138.6940 C   0  0  1  0  0  3  0  0  0  0  0  0
  184.3800  177.0660  138.0090 O   0  0  0  0  0  1  0  0  0  0  0  0
  182.6600  177.0830  139.6680 C   0  0  0  0  0  3  0  0  0  0  0  0
  183.2360  177.9200  140.5350 C   0  0  0  0  0  3  0  0  0  0  0  0
  182.4190  178.7260  141.4900 C   0  0  0  0  0  2  0  0  0  0  0  0
  182.3940  178.5930  143.8370 O   0  0  0  0  0  0  0  0  0  0  0  0
  183.0720  178.7830  142.8390 C   0  0  0  0  0  0  0  0  0  0  0  0
  184.5340  179.0980  142.9840 C   0  0  0  0  0  0  0  0  0  0  0  0
  185.0170  179.6000  141.7890 F   0  0  0  0  0  0  0  0  0  0  0  0
  185.2240  177.9420  143.3030 F   0  0  0  0  0  0  0  0  0  0  0  0
  184.7410  180.0370  143.9830 F   0  0  0  0  0  0  0  0  0  0  0  0
  188.2740  176.7790  136.7400 C   0  0  2  0  0  3  0  0  0  0  0  0
  189.1940  177.2360  137.8650 C   0  0  2  0  0  3  0  0  0  0  0  0
  188.4920  175.8990  137.9590 C   0  0  0  0  0  2  0  0  0  0  0  0
  188.4450  178.2510  138.7130 C   0  0  0  0  0  2  0  0  0  0  0  0
  190.2730  177.3790  141.9750 C   0  0  1  0  0  3  0  0  0  0  0  0
  190.0460  177.0190  146.9580 C   0  0  0  0  0  3  0  0  0  0  0  0
  190.9500  176.6120  145.9730 C   0  0  0  0  0  0  0  0  0  0  0  0
  187.9560  178.6980  141.1650 N   0  0  0  0  0  2  0  0  0  0  0  0
  191.5970  176.3900  143.5200 C   0  0  0  0  0  2  0  0  0  0  0  0
  189.9140  177.4630  140.5250 C   0  0  0  0  0  3  0  0  0  0  0  0
  188.5250  177.7450  145.2620 N   0  0  0  0  0  0  0  0  0  0  0  0
  188.8200  177.5740  146.5820 C   0  0  0  0  0  0  0  0  0  0  0  0
  189.0070  177.4720  142.8340 C   0  0  2  0  0  3  0  0  0  0  0  0
  188.3260  178.7300  142.5290 N   0  0  0  0  0  2  0  0  0  0  0  0
  190.9510  176.1850  142.2770 O   0  0  0  0  0  0  0  0  0  0  0  0
  192.1740  176.0710  146.3450 O   0  0  0  0  0  1  0  0  0  0  0  0
  188.8180  178.1370  140.1560 C   0  0  0  0  0  0  0  0  0  0  0  0
  189.3940  177.3710  144.2810 C   0  0  0  0  0  0  0  0  0  0  0  0
  190.6170  176.7600  144.6200 C   0  0  0  0  0  0  0  0  0  0  0  0
  187.8750  178.0340  147.6420 C   0  0  0  0  0  2  0  0  0  0  0  0
  186.4990  177.7170  147.2820 N   0  0  0  0  0  2  0  0  0  0  0  0
  184.2710  178.3760  146.5480 O   0  0  0  0  0  0  0  0  0  0  0  0
  185.8590  179.9510  147.0430 O   0  0  0  0  0  1  0  0  0  0  0  0
  185.5480  178.7330  146.9630 C   0  0  0  0  0  0  0  0  0  0  0  0
  189.9940  175.2840  136.1710 C   0  0  0  0  0  2  0  0  0  0  0  0
  191.4160  175.7530  135.9070 C   0  0  0  0  0  2  0  0  0  0  0  0
  192.5740  175.9850  137.9770 O   0  0  0  0  0  1  0  0  0  0  0  0
  192.3820  175.1190  136.8960 C   0  0  2  0  0  3  0  0  0  0  0  0
  194.7890  175.5820  136.8190 N   0  0  0  0  0  2  0  0  0  0  0  0
  195.8340  173.4270  136.6990 C   0  0  0  0  0  2  0  0  0  0  0  0
  193.7090  174.8160  136.2090 C   0  0  1  0  0  3  0  0  0  0  0  0
  196.0160  174.9060  136.4430 C   0  0  0  0  0  2  0  0  0  0  0  0
  194.0970  173.0410  136.3590 S   0  0  0  0  0  0  0  0  0  0  0  0
  1 53  1  0  0  0  0
  2  9  2  0  0  0  0
  2  5  1  0  0  0  0
  5  8  2  0  0  0  0
  6  5  1  0  0  0  0
  6  4  1  0  0  0  0
  6  1  1  1  0  0  0
  7  3  2  0  0  0  0
  8 10  1  0  0  0  0
  8  3  1  0  0  0  0
  9  7  1  0  0  0  0
 10  4  1  0  0  0  0
 10 12  1  1  0  0  0
 11 12  2  0  0  0  0
 11 15  1  0  0  0  0
 13 14  2  0  0  0  0
 14 11  1  0  0  0  0
 15 16  1  0  0  0  0
 16 17  1  1  0  0  0
 16 18  1  0  0  0  0
 18 19  1  6  0  0  0
 18 20  1  0  0  0  0
 20 21  2  0  0  0  0
 21 22  1  0  0  0  0
 22 24  1  0  0  0  0
 24 25  1  0  0  0  0
 24 23  2  0  0  0  0
 25 27  1  0  0  0  0
 25 28  1  0  0  0  0
 26 25  1  0  0  0  0
 29  1  1  6  0  0  0
 29 30  1  0  0  0  0
 29 31  1  0  0  0  0
 30 31  1  0  0  0  0
 30 32  1  1  0  0  0
 32 45  1  0  0  0  0
 33 38  1  6  0  0  0
 33 43  1  0  0  0  0
 33 41  1  0  0  0  0
 35 44  1  0  0  0  0
 35 34  2  0  0  0  0
 36 42  1  0  0  0  0
 37 47  1  0  0  0  0
 39 40  2  0  0  0  0
 40 34  1  0  0  0  0
 40 48  1  0  0  0  0
 41 42  1  1  0  0  0
 41 46  1  0  0  0  0
 43 37  1  0  0  0  0
 45 38  2  0  0  0  0
 45 36  1  0  0  0  0
 46 47  2  0  0  0  0
 46 39  1  0  0  0  0
 47 35  1  0  0  0  0
 49 48  1  0  0  0  0
 50 52  2  0  0  0  0
 52 51  1  0  0  0  0
 52 49  1  0  0  0  0
 54 53  1  0  0  0  0
 54 56  1  0  0  0  0
 56 55  1  1  0  0  0
 59 61  1  0  0  0  0
 59 57  1  0  0  0  0
 59 56  1  1  0  0  0
 60 58  1  0  0  0  0
 60 57  1  0  0  0  0
 61 58  1  0  0  0  0
M  END
>  <MODEL>
4

>  <REMARK>
 VINA RESULT:      -7.3      3.058      8.032
  Name = 
  19 active torsions:
  status: ('A' for Active; 'I' for Inactive)
    1  A    between atoms: C_1  and  C_14
    2  A    between atoms: C_12  and  N_37
    3  A    between atoms: C_13  and  C_39
    4  A    between atoms: C_13  and  C_42
    5  A    between atoms: C_14  and  C_19
    6  A    between atoms: N_15  and  C_18
    7  A    between atoms: C_16  and  C_33
    8  A    between atoms: C_16  and  C_54
    9  A    between atoms: C_18  and  C_32
   10  A    between atoms: C_19  and  C_42
   11  A    between atoms: C_20  and  C_53
   12  A    between atoms: C_27  and  C_54
   13  A    between atoms: C_29  and  C_59
   14  A    between atoms: C_31  and  N_37
   15  A    between atoms: C_33  and  N_37
   16  A    between atoms: C_44  and  C_51
   17  A    between atoms: C_50  and  C_53
   18  A    between atoms: C_50  and  C_58
   19  A    between atoms: C_51  and  C_52
                            x       y       z     vdW  Elec       q    Type
                         _______ _______ _______ _____ _____    ______ ____

>  <TORSDO>
F 19

$$$$
=
 OpenBabel11062416353D

 61 67  0  0  1  0  0  0  0  0999 V2000
  188.3600  176.1150  136.2920 N   0  0  0  0  0  0  0  0  0  0  0  0
  186.9040  173.4090  136.8300 C   0  0  0  0  0  3  0  0  0  0  0  0
  184.1850  174.1650  136.9460 C   0  0  0  0  0  3  0  0  0  0  0  0
  186.2790  176.6870  135.2370 O   0  0  0  0  0  0  0  0  0  0  0  0
  186.4460  174.5940  136.2520 C   0  0  0  0  0  0  0  0  0  0  0  0
  187.1970  175.6360  135.5230 C   0  0  2  0  0  3  0  0  0  0  0  0
  184.6120  172.9720  137.5520 C   0  0  0  0  0  3  0  0  0  0  0  0
  185.1440  174.9570  136.3090 C   0  0  0  0  0  0  0  0  0  0  0  0
  185.9680  172.5940  137.4940 C   0  0  0  0  0  3  0  0  0  0  0  0
  184.9760  176.2120  135.5460 C   0  0  1  0  0  3  0  0  0  0  0  0
  182.9070  177.4290  136.2770 C   0  0  0  0  0  0  0  0  0  0  0  0
  184.2330  177.2460  136.3330 C   0  0  0  0  0  3  0  0  0  0  0  0
  180.8070  176.4010  135.6950 O   0  0  0  0  0  0  0  0  0  0  0  0
  181.9990  176.6660  135.3900 C   0  0  0  0  0  3  0  0  0  0  0  0
  182.3310  178.5420  137.0860 C   0  0  0  0  0  2  0  0  0  0  0  0
  182.5120  178.2920  138.5810 C   0  0  1  0  0  3  0  0  0  0  0  0
  183.3570  179.3920  139.1920 C   0  0  0  0  0  1  0  0  0  0  0  0
  181.1700  178.1790  139.3140 C   0  0  1  0  0  3  0  0  0  0  0  0
  180.7720  176.8450  139.4670 O   0  0  0  0  0  1  0  0  0  0  0  0
  181.1840  178.8850  140.6400 C   0  0  0  0  0  3  0  0  0  0  0  0
  181.9100  178.4470  141.6730 C   0  0  0  0  0  3  0  0  0  0  0  0
  181.9090  179.1700  142.9800 C   0  0  0  0  0  2  0  0  0  0  0  0
  183.1060  178.8940  144.9850 O   0  0  0  0  0  0  0  0  0  0  0  0
  183.1490  178.8600  143.7650 C   0  0  0  0  0  0  0  0  0  0  0  0
  184.4470  178.5390  143.0770 C   0  0  0  0  0  0  0  0  0  0  0  0
  185.0030  179.7040  142.5810 F   0  0  0  0  0  0  0  0  0  0  0  0
  184.2080  177.6680  142.0290 F   0  0  0  0  0  0  0  0  0  0  0  0
  185.3410  177.9520  143.9580 F   0  0  0  0  0  0  0  0  0  0  0  0
  187.9060  176.7660  137.5220 C   0  0  2  0  0  3  0  0  0  0  0  0
  189.0550  177.4510  138.2500 C   0  0  2  0  0  3  0  0  0  0  0  0
  188.5660  176.0960  138.7150 C   0  0  0  0  0  2  0  0  0  0  0  0
  188.4750  178.5260  139.1550 C   0  0  0  0  0  2  0  0  0  0  0  0
  190.4200  177.5900  142.3310 C   0  0  1  0  0  3  0  0  0  0  0  0
  190.2490  176.5970  147.2290 C   0  0  0  0  0  3  0  0  0  0  0  0
  191.2120  176.4720  146.2240 C   0  0  0  0  0  0  0  0  0  0  0  0
  187.9120  178.5840  141.6310 N   0  0  0  0  0  2  0  0  0  0  0  0
  191.8910  176.6610  143.7760 C   0  0  0  0  0  2  0  0  0  0  0  0
  190.0540  177.7860  140.8940 C   0  0  0  0  0  3  0  0  0  0  0  0
  188.6290  177.2530  145.5990 N   0  0  0  0  0  0  0  0  0  0  0  0
  188.9470  176.9770  146.8950 C   0  0  0  0  0  0  0  0  0  0  0  0
  189.1550  177.3620  143.1660 C   0  0  2  0  0  3  0  0  0  0  0  0
  188.2690  178.5130  142.9970 N   0  0  0  0  0  2  0  0  0  0  0  0
  191.2920  176.5010  142.5040 O   0  0  0  0  0  0  0  0  0  0  0  0
  192.5090  176.1060  146.5560 O   0  0  0  0  0  1  0  0  0  0  0  0
  188.8590  178.3030  140.5830 C   0  0  0  0  0  0  0  0  0  0  0  0
  189.5510  177.1540  144.6000 C   0  0  0  0  0  0  0  0  0  0  0  0
  190.8610  176.7240  144.8910 C   0  0  0  0  0  0  0  0  0  0  0  0
  187.9350  177.1380  147.9810 C   0  0  0  0  0  2  0  0  0  0  0  0
  187.5210  178.5290  148.1000 N   0  0  0  0  0  2  0  0  0  0  0  0
  185.8890  180.3120  147.7930 O   0  0  0  0  0  1  0  0  0  0  0  0
  185.5150  178.2170  146.9460 O   0  0  0  0  0  0  0  0  0  0  0  0
  186.2750  178.9940  147.5820 C   0  0  0  0  0  0  0  0  0  0  0  0
  189.1930  174.9820  136.7000 C   0  0  0  0  0  2  0  0  0  0  0  0
  190.2040  174.6510  135.6130 C   0  0  0  0  0  2  0  0  0  0  0  0
  191.3840  174.0370  137.5910 O   0  0  0  0  0  1  0  0  0  0  0  0
  191.3970  173.9100  136.1990 C   0  0  2  0  0  3  0  0  0  0  0  0
  192.7460  175.9140  135.7820 N   0  0  0  0  0  2  0  0  0  0  0  0
  194.9560  175.3410  136.5150 C   0  0  0  0  0  2  0  0  0  0  0  0
  192.6940  174.4660  135.6210 C   0  0  1  0  0  3  0  0  0  0  0  0
  194.1440  176.2770  135.6490 C   0  0  0  0  0  2  0  0  0  0  0  0
  194.1240  173.7330  136.4800 S   0  0  0  0  0  0  0  0  0  0  0  0
  1 53  1  0  0  0  0
  2  9  1  0  0  0  0
  3  7  1  0  0  0  0
  4  6  1  0  0  0  0
  4 10  1  0  0  0  0
  5  8  1  0  0  0  0
  5  2  2  0  0  0  0
  6  5  1  0  0  0  0
  6  1  1  1  0  0  0
  8  3  2  0  0  0  0
  9  7  2  0  0  0  0
 10  8  1  0  0  0  0
 10 12  1  1  0  0  0
 11 12  2  0  0  0  0
 11 15  1  0  0  0  0
 14 13  2  0  0  0  0
 14 11  1  0  0  0  0
 15 16  1  0  0  0  0
 16 17  1  1  0  0  0
 16 18  1  0  0  0  0
 18 19  1  1  0  0  0
 18 20  1  0  0  0  0
 20 21  2  0  0  0  0
 21 22  1  0  0  0  0
 22 24  1  0  0  0  0
 24 23  2  0  0  0  0
 25 24  1  0  0  0  0
 25 28  1  0  0  0  0
 26 25  1  0  0  0  0
 27 25  1  0  0  0  0
 29  1  1  6  0  0  0
 29 30  1  0  0  0  0
 29 31  1  0  0  0  0
 30 31  1  0  0  0  0
 30 32  1  1  0  0  0
 32 45  1  0  0  0  0
 33 38  1  6  0  0  0
 33 43  1  0  0  0  0
 33 41  1  0  0  0  0
 35 44  1  0  0  0  0
 35 34  2  0  0  0  0
 36 42  1  0  0  0  0
 37 47  1  0  0  0  0
 39 40  2  0  0  0  0
 40 34  1  0  0  0  0
 40 48  1  0  0  0  0
 41 42  1  1  0  0  0
 41 46  1  0  0  0  0
 43 37  1  0  0  0  0
 45 38  2  0  0  0  0
 45 36  1  0  0  0  0
 46 47  2  0  0  0  0
 46 39  1  0  0  0  0
 47 35  1  0  0  0  0
 48 49  1  0  0  0  0
 51 52  2  0  0  0  0
 52 50  1  0  0  0  0
 52 49  1  0  0  0  0
 54 56  1  0  0  0  0
 54 53  1  0  0  0  0
 56 55  1  1  0  0  0
 59 57  1  0  0  0  0
 59 56  1  1  0  0  0
 59 61  1  0  0  0  0
 60 57  1  0  0  0  0
 60 58  1  0  0  0  0
 61 58  1  0  0  0  0
M  END
>  <MODEL>
5

>  <REMARK>
 VINA RESULT:      -7.3      3.200      7.676
  Name = 
  19 active torsions:
  status: ('A' for Active; 'I' for Inactive)
    1  A    between atoms: C_1  and  C_14
    2  A    between atoms: C_12  and  N_37
    3  A    between atoms: C_13  and  C_39
    4  A    between atoms: C_13  and  C_42
    5  A    between atoms: C_14  and  C_19
    6  A    between atoms: N_15  and  C_18
    7  A    between atoms: C_16  and  C_33
    8  A    between atoms: C_16  and  C_54
    9  A    between atoms: C_18  and  C_32
   10  A    between atoms: C_19  and  C_42
   11  A    between atoms: C_20  and  C_53
   12  A    between atoms: C_27  and  C_54
   13  A    between atoms: C_29  and  C_59
   14  A    between atoms: C_31  and  N_37
   15  A    between atoms: C_33  and  N_37
   16  A    between atoms: C_44  and  C_51
   17  A    between atoms: C_50  and  C_53
   18  A    between atoms: C_50  and  C_58
   19  A    between atoms: C_51  and  C_52
                            x       y       z     vdW  Elec       q    Type
                         _______ _______ _______ _____ _____    ______ ____

>  <TORSDO>
F 19

$$$$
=
 OpenBabel11062416353D

 61 67  0  0  1  0  0  0  0  0999 V2000
  191.0250  174.8970  137.4900 N   0  0  0  0  0  0  0  0  0  0  0  0
  189.6660  176.8420  135.4650 C   0  0  0  0  0  3  0  0  0  0  0  0
  188.0950  178.4970  137.1320 C   0  0  0  0  0  3  0  0  0  0  0  0
  190.7760  176.7560  138.9920 O   0  0  0  0  0  0  0  0  0  0  0  0
  189.9400  176.9860  136.8260 C   0  0  0  0  0  0  0  0  0  0  0  0
  191.0040  176.3640  137.6410 C   0  0  2  0  0  3  0  0  0  0  0  0
  187.7800  178.3650  135.7700 C   0  0  0  0  0  3  0  0  0  0  0  0
  189.1880  177.7760  137.6250 C   0  0  0  0  0  0  0  0  0  0  0  0
  188.5630  177.5410  134.9380 C   0  0  0  0  0  3  0  0  0  0  0  0
  189.7800  177.7690  138.9790 C   0  0  1  0  0  3  0  0  0  0  0  0
  189.0440  177.1310  141.2910 C   0  0  0  0  0  0  0  0  0  0  0  0
  188.7550  177.4850  140.0330 C   0  0  0  0  0  3  0  0  0  0  0  0
  190.7700  175.8750  142.4080 O   0  0  0  0  0  0  0  0  0  0  0  0
  190.4170  176.9200  141.8020 C   0  0  0  0  0  3  0  0  0  0  0  0
  187.9000  176.8310  142.2020 C   0  0  0  0  0  2  0  0  0  0  0  0
  187.4200  178.0890  142.9210 C   0  0  1  0  0  3  0  0  0  0  0  0
  185.9090  178.1870  142.8410 C   0  0  0  0  0  1  0  0  0  0  0  0
  187.8810  178.1300  144.3830 C   0  0  1  0  0  3  0  0  0  0  0  0
  186.9740  177.4830  145.2330 O   0  0  0  0  0  1  0  0  0  0  0  0
  189.2650  177.5720  144.5600 C   0  0  0  0  0  3  0  0  0  0  0  0
  190.0020  177.8260  145.6450 C   0  0  0  0  0  3  0  0  0  0  0  0
  191.3740  177.2570  145.7980 C   0  0  0  0  0  2  0  0  0  0  0  0
  191.4100  177.5150  148.1350 O   0  0  0  0  0  0  0  0  0  0  0  0
  191.5940  176.7570  147.1950 C   0  0  0  0  0  0  0  0  0  0  0  0
  192.0630  175.3530  147.4560 C   0  0  0  0  0  0  0  0  0  0  0  0
  191.0270  174.6160  148.0010 F   0  0  0  0  0  0  0  0  0  0  0  0
  193.1190  175.3800  148.3500 F   0  0  0  0  0  0  0  0  0  0  0  0
  192.4810  174.7440  146.2830 F   0  0  0  0  0  0  0  0  0  0  0  0
  190.2100  174.5060  136.3390 C   0  0  2  0  0  3  0  0  0  0  0  0
  189.0890  173.5570  136.7430 C   0  0  2  0  0  3  0  0  0  0  0  0
  190.3510  173.0100  136.1120 C   0  0  0  0  0  2  0  0  0  0  0  0
  187.9980  173.6300  135.6870 C   0  0  0  0  0  2  0  0  0  0  0  0
  184.3730  173.5560  136.9500 C   0  0  1  0  0  3  0  0  0  0  0  0
  180.3700  176.1790  138.4030 C   0  0  0  0  0  3  0  0  0  0  0  0
  180.6190  174.8410  138.0850 C   0  0  0  0  0  0  0  0  0  0  0  0
  186.4840  175.3650  136.7570 N   0  0  0  0  0  2  0  0  0  0  0  0
  182.1980  173.0190  137.2670 C   0  0  0  0  0  2  0  0  0  0  0  0
  185.6710  173.1470  136.3310 C   0  0  0  0  0  3  0  0  0  0  0  0
  182.5900  176.7520  137.7290 N   0  0  0  0  0  0  0  0  0  0  0  0
  181.3700  177.1330  138.2020 C   0  0  0  0  0  0  0  0  0  0  0  0
  184.1800  175.0710  136.8090 C   0  0  2  0  0  3  0  0  0  0  0  0
  185.3090  175.7470  137.4460 N   0  0  0  0  0  2  0  0  0  0  0  0
  183.2810  172.8940  136.3630 O   0  0  0  0  0  0  0  0  0  0  0  0
  179.6290  173.8890  138.2950 O   0  0  0  0  0  1  0  0  0  0  0  0
  186.6840  174.0200  136.2850 C   0  0  0  0  0  0  0  0  0  0  0  0
  182.8660  175.4530  137.4250 C   0  0  0  0  0  0  0  0  0  0  0  0
  181.8660  174.4700  137.5650 C   0  0  0  0  0  0  0  0  0  0  0  0
  181.1040  178.5550  138.5730 C   0  0  0  0  0  2  0  0  0  0  0  0
  182.2950  179.3710  138.3840 N   0  0  0  0  0  2  0  0  0  0  0  0
  184.5040  180.1320  139.0770 O   0  0  0  0  0  0  0  0  0  0  0  0
  183.2580  178.7580  140.4220 O   0  0  0  0  0  1  0  0  0  0  0  0
  183.3520  179.4000  139.3420 C   0  0  0  0  0  0  0  0  0  0  0  0
  192.3890  174.4410  137.2140 C   0  0  0  0  0  2  0  0  0  0  0  0
  193.3970  175.3080  137.9520 C   0  0  0  0  0  2  0  0  0  0  0  0
  195.4270  175.2430  139.1980 O   0  0  0  0  0  1  0  0  0  0  0  0
  194.6300  174.4990  138.3230 C   0  0  2  0  0  3  0  0  0  0  0  0
  196.2820  175.2300  136.6650 N   0  0  0  0  0  2  0  0  0  0  0  0
  197.8170  173.3970  136.4650 C   0  0  0  0  0  2  0  0  0  0  0  0
  195.4120  174.1310  137.0660 C   0  0  1  0  0  3  0  0  0  0  0  0
  197.2840  174.6430  135.7950 C   0  0  0  0  0  2  0  0  0  0  0  0
  196.4390  172.6590  137.3790 S   0  0  0  0  0  0  0  0  0  0  0  0
  2  5  1  0  0  0  0
  3  8  1  0  0  0  0
  5  8  2  0  0  0  0
  5  6  1  0  0  0  0
  6  1  1  1  0  0  0
  6  4  1  0  0  0  0
  7  3  2  0  0  0  0
  8 10  1  0  0  0  0
  9  2  2  0  0  0  0
  9  7  1  0  0  0  0
 10  4  1  0  0  0  0
 10 12  1  1  0  0  0
 11 14  1  0  0  0  0
 11 15  1  0  0  0  0
 12 11  2  0  0  0  0
 14 13  2  0  0  0  0
 15 16  1  0  0  0  0
 16 17  1  1  0  0  0
 16 18  1  0  0  0  0
 18 20  1  0  0  0  0
 18 19  1  1  0  0  0
 20 21  2  0  0  0  0
 21 22  1  0  0  0  0
 22 24  1  0  0  0  0
 24 25  1  0  0  0  0
 24 23  2  0  0  0  0
 25 26  1  0  0  0  0
 25 27  1  0  0  0  0
 28 25  1  0  0  0  0
 29 30  1  0  0  0  0
 29  1  1  1  0  0  0
 30 32  1  6  0  0  0
 31 29  1  0  0  0  0
 31 30  1  0  0  0  0
 32 45  1  0  0  0  0
 33 38  1  6  0  0  0
 35 44  1  0  0  0  0
 35 34  2  0  0  0  0
 36 42  1  0  0  0  0
 37 47  1  0  0  0  0
 39 40  2  0  0  0  0
 40 34  1  0  0  0  0
 40 48  1  0  0  0  0
 41 33  1  0  0  0  0
 41 46  1  1  0  0  0
 41 42  1  0  0  0  0
 43 33  1  0  0  0  0
 43 37  1  0  0  0  0
 45 38  2  0  0  0  0
 45 36  1  0  0  0  0
 46 47  2  0  0  0  0
 46 39  1  0  0  0  0
 47 35  1  0  0  0  0
 49 48  1  0  0  0  0
 49 52  1  0  0  0  0
 50 52  2  0  0  0  0
 52 51  1  0  0  0  0
 53  1  1  0  0  0  0
 53 54  1  0  0  0  0
 54 56  1  0  0  0  0
 56 55  1  1  0  0  0
 57 59  1  0  0  0  0
 58 61  1  0  0  0  0
 59 61  1  0  0  0  0
 59 56  1  1  0  0  0
 60 58  1  0  0  0  0
 60 57  1  0  0  0  0
M  END
>  <MODEL>
6

>  <REMARK>
 VINA RESULT:      -7.0      2.987      9.266
  Name = 
  19 active torsions:
  status: ('A' for Active; 'I' for Inactive)
    1  A    between atoms: C_1  and  C_14
    2  A    between atoms: C_12  and  N_37
    3  A    between atoms: C_13  and  C_39
    4  A    between atoms: C_13  and  C_42
    5  A    between atoms: C_14  and  C_19
    6  A    between atoms: N_15  and  C_18
    7  A    between atoms: C_16  and  C_33
    8  A    between atoms: C_16  and  C_54
    9  A    between atoms: C_18  and  C_32
   10  A    between atoms: C_19  and  C_42
   11  A    between atoms: C_20  and  C_53
   12  A    between atoms: C_27  and  C_54
   13  A    between atoms: C_29  and  C_59
   14  A    between atoms: C_31  and  N_37
   15  A    between atoms: C_33  and  N_37
   16  A    between atoms: C_44  and  C_51
   17  A    between atoms: C_50  and  C_53
   18  A    between atoms: C_50  and  C_58
   19  A    between atoms: C_51  and  C_52
                            x       y       z     vdW  Elec       q    Type
                         _______ _______ _______ _____ _____    ______ ____

>  <TORSDO>
F 19

$$$$
=
 OpenBabel11062416353D

 61 67  0  0  1  0  0  0  0  0999 V2000
  181.1580  179.0080  137.7440 N   0  0  0  0  0  0  0  0  0  0  0  0
  179.7480  176.2420  138.0450 C   0  0  0  0  0  3  0  0  0  0  0  0
  179.6610  175.8760  140.8450 C   0  0  0  0  0  3  0  0  0  0  0  0
  180.1750  179.4140  139.8980 O   0  0  0  0  0  0  0  0  0  0  0  0
  179.8490  177.3170  138.9300 C   0  0  0  0  0  0  0  0  0  0  0  0
  180.0170  178.7560  138.6440 C   0  0  2  0  0  3  0  0  0  0  0  0
  179.5720  174.7690  139.9850 C   0  0  0  0  0  3  0  0  0  0  0  0
  179.8100  177.1420  140.2700 C   0  0  0  0  0  0  0  0  0  0  0  0
  179.6140  174.9510  138.5890 C   0  0  0  0  0  3  0  0  0  0  0  0
  179.8670  178.4710  140.9150 C   0  0  1  0  0  3  0  0  0  0  0  0
  182.2120  178.2960  141.7880 C   0  0  0  0  0  0  0  0  0  0  0  0
  180.9080  178.5230  141.9890 C   0  0  0  0  0  3  0  0  0  0  0  0
  183.0920  176.7220  140.1890 O   0  0  0  0  0  0  0  0  0  0  0  0
  182.7980  177.9110  140.4840 C   0  0  0  0  0  3  0  0  0  0  0  0
  183.1100  178.3350  142.9800 C   0  0  0  0  0  2  0  0  0  0  0  0
  184.2790  179.2930  142.7620 C   0  0  1  0  0  3  0  0  0  0  0  0
  184.7240  179.8760  144.0880 C   0  0  0  0  0  1  0  0  0  0  0  0
  185.4570  178.6140  142.0540 C   0  0  1  0  0  3  0  0  0  0  0  0
  185.9250  179.3770  140.9770 O   0  0  0  0  0  1  0  0  0  0  0  0
  186.5780  178.2860  142.9990 C   0  0  0  0  0  3  0  0  0  0  0  0
  186.9830  177.0310  143.2140 C   0  0  0  0  0  3  0  0  0  0  0  0
  188.1030  176.7310  144.1560 C   0  0  0  0  0  2  0  0  0  0  0  0
  188.9690  178.6250  145.2470 O   0  0  0  0  0  0  0  0  0  0  0  0
  188.1420  177.7270  145.2770 C   0  0  0  0  0  0  0  0  0  0  0  0
  187.2030  177.6220  146.4460 C   0  0  0  0  0  0  0  0  0  0  0  0
  185.9890  177.1180  146.0160 F   0  0  0  0  0  0  0  0  0  0  0  0
  187.0050  178.8790  146.9910 F   0  0  0  0  0  0  0  0  0  0  0  0
  187.7200  176.7840  147.4220 F   0  0  0  0  0  0  0  0  0  0  0  0
  181.6740  177.7380  137.2310 C   0  0  2  0  0  3  0  0  0  0  0  0
  183.0600  177.9020  136.6210 C   0  0  2  0  0  3  0  0  0  0  0  0
  181.8430  177.8390  135.7250 C   0  0  0  0  0  2  0  0  0  0  0  0
  183.7470  176.5460  136.6230 C   0  0  0  0  0  2  0  0  0  0  0  0
  187.5690  176.2070  136.5010 C   0  0  1  0  0  3  0  0  0  0  0  0
  191.9160  176.7020  138.9250 C   0  0  0  0  0  3  0  0  0  0  0  0
  191.5100  176.1180  137.7220 C   0  0  0  0  0  0  0  0  0  0  0  0
  185.6260  177.4110  138.0950 N   0  0  0  0  0  2  0  0  0  0  0  0
  189.6680  175.4710  136.0870 C   0  0  0  0  0  2  0  0  0  0  0  0
  186.1170  176.0510  136.1780 C   0  0  0  0  0  3  0  0  0  0  0  0
  189.6340  177.1570  139.4730 N   0  0  0  0  0  0  0  0  0  0  0  0
  190.9550  177.2070  139.8050 C   0  0  0  0  0  0  0  0  0  0  0  0
  187.7460  176.4680  138.0010 C   0  0  2  0  0  3  0  0  0  0  0  0
  186.9910  177.6670  138.3600 N   0  0  0  0  0  2  0  0  0  0  0  0
  188.3110  175.0700  136.1370 O   0  0  0  0  0  0  0  0  0  0  0  0
  192.4650  175.6260  136.8410 O   0  0  0  0  0  1  0  0  0  0  0  0
  185.2030  176.6720  136.9340 C   0  0  0  0  0  0  0  0  0  0  0  0
  189.2110  176.6060  138.3010 C   0  0  0  0  0  0  0  0  0  0  0  0
  190.1460  176.0410  137.4120 C   0  0  0  0  0  0  0  0  0  0  0  0
  191.4010  177.8570  141.0730 C   0  0  0  0  0  2  0  0  0  0  0  0
  191.5110  176.8770  142.1460 N   0  0  0  0  0  2  0  0  0  0  0  0
  191.6950  176.2960  144.5050 O   0  0  0  0  0  1  0  0  0  0  0  0
  191.7940  178.4800  143.8210 O   0  0  0  0  0  0  0  0  0  0  0  0
  191.6760  177.2650  143.5090 C   0  0  0  0  0  0  0  0  0  0  0  0
  180.7180  179.7830  136.5810 C   0  0  0  0  0  2  0  0  0  0  0  0
  180.1050  181.1020  137.0260 C   0  0  0  0  0  2  0  0  0  0  0  0
  180.8100  181.9480  134.9120 O   0  0  0  0  0  1  0  0  0  0  0  0
  179.7480  181.9590  135.8210 C   0  0  2  0  0  3  0  0  0  0  0  0
  179.5220  183.4960  137.7180 N   0  0  0  0  0  2  0  0  0  0  0  0
  180.7550  185.4530  137.0850 C   0  0  0  0  0  2  0  0  0  0  0  0
  179.4380  183.3840  136.2670 C   0  0  1  0  0  3  0  0  0  0  0  0
  179.6790  184.9110  137.9980 C   0  0  0  0  0  2  0  0  0  0  0  0
  180.6310  184.5440  135.5240 S   0  0  0  0  0  0  0  0  0  0  0  0
  2  9  2  0  0  0  0
  2  5  1  0  0  0  0
  4 10  1  0  0  0  0
  5  8  2  0  0  0  0
  6  1  1  6  0  0  0
  6  5  1  0  0  0  0
  6  4  1  0  0  0  0
  7  3  2  0  0  0  0
  8  3  1  0  0  0  0
  8 10  1  0  0  0  0
  9  7  1  0  0  0  0
 10 12  1  1  0  0  0
 11 12  2  0  0  0  0
 11 15  1  0  0  0  0
 13 14  2  0  0  0  0
 14 11  1  0  0  0  0
 16 15  1  0  0  0  0
 16 17  1  1  0  0  0
 18 19  1  6  0  0  0
 18 16  1  0  0  0  0
 18 20  1  0  0  0  0
 20 21  2  0  0  0  0
 21 22  1  0  0  0  0
 22 24  1  0  0  0  0
 23 24  2  0  0  0  0
 24 25  1  0  0  0  0
 25 27  1  0  0  0  0
 25 28  1  0  0  0  0
 26 25  1  0  0  0  0
 29  1  1  1  0  0  0
 30 32  1  6  0  0  0
 30 29  1  0  0  0  0
 31 30  1  0  0  0  0
 31 29  1  0  0  0  0
 32 45  1  0  0  0  0
 33 38  1  1  0  0  0
 33 41  1  0  0  0  0
 34 40  1  0  0  0  0
 35 34  2  0  0  0  0
 36 42  1  0  0  0  0
 37 43  1  0  0  0  0
 37 47  1  0  0  0  0
 38 45  2  0  0  0  0
 39 40  2  0  0  0  0
 40 48  1  0  0  0  0
 41 46  1  6  0  0  0
 41 42  1  0  0  0  0
 43 33  1  0  0  0  0
 44 35  1  0  0  0  0
 45 36  1  0  0  0  0
 46 39  1  0  0  0  0
 47 35  1  0  0  0  0
 47 46  2  0  0  0  0
 48 49  1  0  0  0  0
 49 52  1  0  0  0  0
 52 51  2  0  0  0  0
 52 50  1  0  0  0  0
 53 54  1  0  0  0  0
 53  1  1  0  0  0  0
 56 55  1  6  0  0  0
 56 54  1  0  0  0  0
 57 60  1  0  0  0  0
 58 60  1  0  0  0  0
 59 56  1  1  0  0  0
 59 57  1  0  0  0  0
 61 59  1  0  0  0  0
 61 58  1  0  0  0  0
M  END
>  <MODEL>
7

>  <REMARK>
 VINA RESULT:      -7.0      4.058      7.195
  Name = 
  19 active torsions:
  status: ('A' for Active; 'I' for Inactive)
    1  A    between atoms: C_1  and  C_14
    2  A    between atoms: C_12  and  N_37
    3  A    between atoms: C_13  and  C_39
    4  A    between atoms: C_13  and  C_42
    5  A    between atoms: C_14  and  C_19
    6  A    between atoms: N_15  and  C_18
    7  A    between atoms: C_16  and  C_33
    8  A    between atoms: C_16  and  C_54
    9  A    between atoms: C_18  and  C_32
   10  A    between atoms: C_19  and  C_42
   11  A    between atoms: C_20  and  C_53
   12  A    between atoms: C_27  and  C_54
   13  A    between atoms: C_29  and  C_59
   14  A    between atoms: C_31  and  N_37
   15  A    between atoms: C_33  and  N_37
   16  A    between atoms: C_44  and  C_51
   17  A    between atoms: C_50  and  C_53
   18  A    between atoms: C_50  and  C_58
   19  A    between atoms: C_51  and  C_52
                            x       y       z     vdW  Elec       q    Type
                         _______ _______ _______ _____ _____    ______ ____

>  <TORSDO>
F 19

$$$$
=
 OpenBabel11062416353D

 61 67  0  0  1  0  0  0  0  0999 V2000
  183.7940  177.0450  136.8630 N   0  0  0  0  0  0  0  0  0  0  0  0
  180.6930  177.2190  136.5790 C   0  0  0  0  0  3  0  0  0  0  0  0
  179.8760  178.1550  139.1160 C   0  0  0  0  0  3  0  0  0  0  0  0
  183.4540  178.8120  138.4530 O   0  0  0  0  0  0  0  0  0  0  0  0
  181.5710  177.8880  137.4330 C   0  0  0  0  0  0  0  0  0  0  0  0
  182.9960  178.2260  137.2390 C   0  0  2  0  0  3  0  0  0  0  0  0
  178.9680  177.4720  138.2900 C   0  0  0  0  0  3  0  0  0  0  0  0
  181.1810  178.3350  138.6480 C   0  0  0  0  0  0  0  0  0  0  0  0
  179.3750  177.0060  137.0240 C   0  0  0  0  0  3  0  0  0  0  0  0
  182.3130  179.0570  139.2650 C   0  0  1  0  0  3  0  0  0  0  0  0
  183.7750  178.6210  141.2570 C   0  0  0  0  0  0  0  0  0  0  0  0
  182.5760  178.5910  140.6630 C   0  0  0  0  0  3  0  0  0  0  0  0
  186.1320  179.1210  141.1850 O   0  0  0  0  0  0  0  0  0  0  0  0
  185.0200  179.0740  140.5950 C   0  0  0  0  0  3  0  0  0  0  0  0
  183.8740  178.0660  142.6380 C   0  0  0  0  0  2  0  0  0  0  0  0
  183.6670  179.1540  143.6890 C   0  0  1  0  0  3  0  0  0  0  0  0
  182.3250  178.9690  144.3690 C   0  0  0  0  0  1  0  0  0  0  0  0
  184.7940  179.1760  144.7280 C   0  0  1  0  0  3  0  0  0  0  0  0
  184.3580  178.7180  145.9780 O   0  0  0  0  0  1  0  0  0  0  0  0
  186.0040  178.4100  144.2730 C   0  0  0  0  0  3  0  0  0  0  0  0
  186.6060  177.5040  145.0490 C   0  0  0  0  0  3  0  0  0  0  0  0
  187.8050  176.7520  144.5710 C   0  0  0  0  0  2  0  0  0  0  0  0
  188.9340  177.2550  146.5710 O   0  0  0  0  0  0  0  0  0  0  0  0
  189.0230  177.1310  145.3590 C   0  0  0  0  0  0  0  0  0  0  0  0
  190.3410  177.3890  144.6830 C   0  0  0  0  0  0  0  0  0  0  0  0
  190.4610  178.7410  144.4130 F   0  0  0  0  0  0  0  0  0  0  0  0
  190.3930  176.6830  143.4930 F   0  0  0  0  0  0  0  0  0  0  0  0
  191.3970  176.9950  145.4880 F   0  0  0  0  0  0  0  0  0  0  0  0
  185.1930  177.4330  136.6700 C   0  0  2  0  0  3  0  0  0  0  0  0
  185.8830  176.5490  135.6390 C   0  0  2  0  0  3  0  0  0  0  0  0
  186.0940  176.2940  137.1160 C   0  0  0  0  0  2  0  0  0  0  0  0
  187.0820  177.3030  135.0890 C   0  0  0  0  0  2  0  0  0  0  0  0
  189.4530  174.2880  134.9060 C   0  0  1  0  0  3  0  0  0  0  0  0
  194.0230  172.4690  135.8130 C   0  0  0  0  0  3  0  0  0  0  0  0
  192.7900  171.9210  135.4490 C   0  0  0  0  0  0  0  0  0  0  0  0
  189.6000  177.0440  135.2990 N   0  0  0  0  0  2  0  0  0  0  0  0
  190.3040  172.1930  134.9670 C   0  0  0  0  0  2  0  0  0  0  0  0
  188.2110  175.1210  134.9300 C   0  0  0  0  0  3  0  0  0  0  0  0
  192.9960  174.6130  136.0640 N   0  0  0  0  0  0  0  0  0  0  0  0
  194.1070  173.8260  136.1350 C   0  0  0  0  0  0  0  0  0  0  0  0
  190.5540  174.9700  135.7270 C   0  0  2  0  0  3  0  0  0  0  0  0
  190.7960  176.3010  135.1720 N   0  0  0  0  0  2  0  0  0  0  0  0
  189.2280  172.9970  135.4150 O   0  0  0  0  0  0  0  0  0  0  0  0
  192.7070  170.5750  135.1180 O   0  0  0  0  0  1  0  0  0  0  0  0
  188.3080  176.4470  135.0790 C   0  0  0  0  0  0  0  0  0  0  0  0
  191.7840  174.1090  135.6990 C   0  0  0  0  0  0  0  0  0  0  0  0
  191.6500  172.7350  135.4170 C   0  0  0  0  0  0  0  0  0  0  0  0
  195.4350  174.4080  136.4910 C   0  0  0  0  0  2  0  0  0  0  0  0
  195.3530  175.1640  137.7340 N   0  0  0  0  0  2  0  0  0  0  0  0
  195.5710  175.3360  140.1540 O   0  0  0  0  0  1  0  0  0  0  0  0
  195.8040  173.3190  139.0940 O   0  0  0  0  0  0  0  0  0  0  0  0
  195.5810  174.5560  139.0040 C   0  0  0  0  0  0  0  0  0  0  0  0
  183.7780  176.0610  137.9480 C   0  0  0  0  0  2  0  0  0  0  0  0
  183.6000  174.6590  137.3880 C   0  0  0  0  0  2  0  0  0  0  0  0
  181.4890  174.5370  138.4870 O   0  0  0  0  0  1  0  0  0  0  0  0
  182.1240  174.3160  137.2610 C   0  0  2  0  0  3  0  0  0  0  0  0
  181.4940  172.7900  135.4480 N   0  0  0  0  0  2  0  0  0  0  0  0
  183.2440  171.1520  135.3760 C   0  0  0  0  0  2  0  0  0  0  0  0
  181.9600  172.8630  136.8270 C   0  0  1  0  0  3  0  0  0  0  0  0
  181.8130  171.4500  134.9930 C   0  0  0  0  0  2  0  0  0  0  0  0
  183.5560  171.9920  136.9500 S   0  0  0  0  0  0  0  0  0  0  0  0
  1 53  1  0  0  0  0
  2  9  2  0  0  0  0
  2  5  1  0  0  0  0
  4 10  1  0  0  0  0
  5  8  2  0  0  0  0
  6  1  1  1  0  0  0
  6  5  1  0  0  0  0
  6  4  1  0  0  0  0
  7  3  2  0  0  0  0
  8  3  1  0  0  0  0
  8 10  1  0  0  0  0
  9  7  1  0  0  0  0
 10 12  1  1  0  0  0
 11 15  1  0  0  0  0
 12 11  2  0  0  0  0
 14 13  2  0  0  0  0
 14 11  1  0  0  0  0
 15 16  1  0  0  0  0
 16 17  1  1  0  0  0
 16 18  1  0  0  0  0
 18 19  1  1  0  0  0
 20 18  1  0  0  0  0
 20 21  2  0  0  0  0
 22 21  1  0  0  0  0
 22 24  1  0  0  0  0
 24 23  2  0  0  0  0
 25 24  1  0  0  0  0
 25 28  1  0  0  0  0
 26 25  1  0  0  0  0
 27 25  1  0  0  0  0
 29  1  1  1  0  0  0
 29 31  1  0  0  0  0
 30 32  1  6  0  0  0
 30 29  1  0  0  0  0
 30 31  1  0  0  0  0
 33 38  1  1  0  0  0
 33 43  1  0  0  0  0
 33 41  1  0  0  0  0
 34 40  1  0  0  0  0
 35 34  2  0  0  0  0
 37 43  1  0  0  0  0
 37 47  1  0  0  0  0
 38 45  2  0  0  0  0
 39 40  2  0  0  0  0
 40 48  1  0  0  0  0
 41 42  1  6  0  0  0
 42 36  1  0  0  0  0
 44 35  1  0  0  0  0
 45 32  1  0  0  0  0
 45 36  1  0  0  0  0
 46 41  1  0  0  0  0
 46 39  1  0  0  0  0
 47 35  1  0  0  0  0
 47 46  2  0  0  0  0
 48 49  1  0  0  0  0
 49 52  1  0  0  0  0
 52 51  2  0  0  0  0
 52 50  1  0  0  0  0
 54 53  1  0  0  0  0
 56 54  1  0  0  0  0
 56 55  1  1  0  0  0
 57 59  1  0  0  0  0
 58 61  1  0  0  0  0
 59 61  1  0  0  0  0
 59 56  1  6  0  0  0
 60 58  1  0  0  0  0
 60 57  1  0  0  0  0
M  END
>  <MODEL>
8

>  <REMARK>
 VINA RESULT:      -6.8      3.093      5.484
  Name = 
  19 active torsions:
  status: ('A' for Active; 'I' for Inactive)
    1  A    between atoms: C_1  and  C_14
    2  A    between atoms: C_12  and  N_37
    3  A    between atoms: C_13  and  C_39
    4  A    between atoms: C_13  and  C_42
    5  A    between atoms: C_14  and  C_19
    6  A    between atoms: N_15  and  C_18
    7  A    between atoms: C_16  and  C_33
    8  A    between atoms: C_16  and  C_54
    9  A    between atoms: C_18  and  C_32
   10  A    between atoms: C_19  and  C_42
   11  A    between atoms: C_20  and  C_53
   12  A    between atoms: C_27  and  C_54
   13  A    between atoms: C_29  and  C_59
   14  A    between atoms: C_31  and  N_37
   15  A    between atoms: C_33  and  N_37
   16  A    between atoms: C_44  and  C_51
   17  A    between atoms: C_50  and  C_53
   18  A    between atoms: C_50  and  C_58
   19  A    between atoms: C_51  and  C_52
                            x       y       z     vdW  Elec       q    Type
                         _______ _______ _______ _____ _____    ______ ____

>  <TORSDO>
F 19

$$$$
=
 OpenBabel11062416353D

 61 67  0  0  1  0  0  0  0  0999 V2000
  190.4000  174.5600  136.3610 N   0  0  0  0  0  0  0  0  0  0  0  0
  188.7590  177.0530  135.4530 C   0  0  0  0  0  3  0  0  0  0  0  0
  188.4760  178.5300  137.8450 C   0  0  0  0  0  3  0  0  0  0  0  0
  191.2440  176.0840  138.0150 O   0  0  0  0  0  0  0  0  0  0  0  0
  189.6220  176.8720  136.5350 C   0  0  0  0  0  0  0  0  0  0  0  0
  190.7690  175.9520  136.6790 C   0  0  2  0  0  3  0  0  0  0  0  0
  187.5790  178.7280  136.7830 C   0  0  0  0  0  3  0  0  0  0  0  0
  189.4860  177.5770  137.6810 C   0  0  0  0  0  0  0  0  0  0  0  0
  187.7200  177.9930  135.5890 C   0  0  0  0  0  3  0  0  0  0  0  0
  190.5900  177.2070  138.5910 C   0  0  1  0  0  3  0  0  0  0  0  0
  190.7870  177.0470  141.0870 C   0  0  0  0  0  0  0  0  0  0  0  0
  190.0920  176.8580  139.9580 C   0  0  0  0  0  3  0  0  0  0  0  0
  193.1030  177.1250  140.4260 O   0  0  0  0  0  0  0  0  0  0  0  0
  192.1660  177.5810  141.1340 C   0  0  0  0  0  3  0  0  0  0  0  0
  190.1630  176.5920  142.3640 C   0  0  0  0  0  2  0  0  0  0  0  0
  189.2790  177.6810  142.9680 C   0  0  1  0  0  3  0  0  0  0  0  0
  187.9490  177.7310  142.2420 C   0  0  0  0  0  1  0  0  0  0  0  0
  189.0600  177.4790  144.4710 C   0  0  1  0  0  3  0  0  0  0  0  0
  189.9990  178.1840  145.2340 O   0  0  0  0  0  1  0  0  0  0  0  0
  187.6610  177.8280  144.8960 C   0  0  0  0  0  3  0  0  0  0  0  0
  187.1360  177.3940  146.0450 C   0  0  0  0  0  3  0  0  0  0  0  0
  185.7450  177.7590  146.4460 C   0  0  0  0  0  2  0  0  0  0  0  0
  185.6320  180.0890  146.1570 O   0  0  0  0  0  0  0  0  0  0  0  0
  185.2890  178.9970  145.7320 C   0  0  0  0  0  0  0  0  0  0  0  0
  184.3950  178.9170  144.5260 C   0  0  0  0  0  0  0  0  0  0  0  0
  185.0440  178.2250  143.5190 F   0  0  0  0  0  0  0  0  0  0  0  0
  184.1050  180.1960  144.0840 F   0  0  0  0  0  0  0  0  0  0  0  0
  183.2110  178.2650  144.8300 F   0  0  0  0  0  0  0  0  0  0  0  0
  189.4260  174.5430  135.2680 C   0  0  2  0  0  3  0  0  0  0  0  0
  188.2640  173.6050  135.5680 C   0  0  2  0  0  3  0  0  0  0  0  0
  189.3840  173.1520  134.6570 C   0  0  0  0  0  2  0  0  0  0  0  0
  187.0760  174.0300  134.7200 C   0  0  0  0  0  2  0  0  0  0  0  0
  183.6570  172.7320  135.8920 C   0  0  1  0  0  3  0  0  0  0  0  0
  179.4750  173.6400  138.4790 C   0  0  0  0  0  3  0  0  0  0  0  0
  179.8910  172.6570  137.5770 C   0  0  0  0  0  0  0  0  0  0  0  0
  185.4350  174.7900  136.5030 N   0  0  0  0  0  2  0  0  0  0  0  0
  181.6360  171.7200  135.9760 C   0  0  0  0  0  2  0  0  0  0  0  0
  184.9310  172.8910  135.1240 C   0  0  0  0  0  3  0  0  0  0  0  0
  181.4990  174.8520  138.0930 N   0  0  0  0  0  0  0  0  0  0  0  0
  180.2910  174.7490  138.7160 C   0  0  0  0  0  0  0  0  0  0  0  0
  183.2220  174.0850  136.4670 C   0  0  2  0  0  3  0  0  0  0  0  0
  184.2950  174.5990  137.3170 N   0  0  0  0  0  2  0  0  0  0  0  0
  182.6240  172.2150  135.0910 O   0  0  0  0  0  0  0  0  0  0  0  0
  179.0860  171.5490  137.3490 O   0  0  0  0  0  1  0  0  0  0  0  0
  185.7880  173.8610  135.4610 C   0  0  0  0  0  0  0  0  0  0  0  0
  181.9360  173.9020  137.2200 C   0  0  0  0  0  0  0  0  0  0  0  0
  181.1190  172.7950  136.9160 C   0  0  0  0  0  0  0  0  0  0  0  0
  179.8510  175.7770  139.7060 C   0  0  0  0  0  2  0  0  0  0  0  0
  180.1290  177.1200  139.2150 N   0  0  0  0  0  2  0  0  0  0  0  0
  181.5100  179.1260  139.1300 O   0  0  0  0  0  0  0  0  0  0  0  0
  181.9870  177.4320  140.5970 O   0  0  0  0  0  1  0  0  0  0  0  0
  181.2400  177.8820  139.6870 C   0  0  0  0  0  0  0  0  0  0  0  0
  191.5760  173.8250  135.8870 C   0  0  0  0  0  2  0  0  0  0  0  0
  192.7720  174.7560  135.7760 C   0  0  0  0  0  2  0  0  0  0  0  0
  194.1000  174.4890  137.7370 O   0  0  0  0  0  1  0  0  0  0  0  0
  194.0070  174.1170  136.3920 C   0  0  2  0  0  3  0  0  0  0  0  0
  195.3900  176.0000  135.6470 N   0  0  0  0  0  2  0  0  0  0  0  0
  197.6410  175.3740  136.1890 C   0  0  0  0  0  2  0  0  0  0  0  0
  195.2550  174.5490  135.6290 C   0  0  1  0  0  3  0  0  0  0  0  0
  196.7800  176.2730  135.3320 C   0  0  0  0  0  2  0  0  0  0  0  0
  196.7390  173.8170  136.3950 S   0  0  0  0  0  0  0  0  0  0  0  0
  2  9  2  0  0  0  0
  2  5  1  0  0  0  0
  4 10  1  0  0  0  0
  5  6  1  0  0  0  0
  5  8  2  0  0  0  0
  6  1  1  1  0  0  0
  6  4  1  0  0  0  0
  7  3  2  0  0  0  0
  8  3  1  0  0  0  0
  8 10  1  0  0  0  0
  9  7  1  0  0  0  0
 10 12  1  1  0  0  0
 11 14  1  0  0  0  0
 11 15  1  0  0  0  0
 12 11  2  0  0  0  0
 13 14  2  0  0  0  0
 15 16  1  0  0  0  0
 16 17  1  6  0  0  0
 16 18  1  0  0  0  0
 18 20  1  0  0  0  0
 18 19  1  1  0  0  0
 20 21  2  0  0  0  0
 21 22  1  0  0  0  0
 24 23  2  0  0  0  0
 24 22  1  0  0  0  0
 25 28  1  0  0  0  0
 25 24  1  0  0  0  0
 26 25  1  0  0  0  0
 27 25  1  0  0  0  0
 29 30  1  0  0  0  0
 29  1  1  1  0  0  0
 30 32  1  6  0  0  0
 31 29  1  0  0  0  0
 31 30  1  0  0  0  0
 32 45  1  0  0  0  0
 33 38  1  6  0  0  0
 33 41  1  0  0  0  0
 34 40  1  0  0  0  0
 35 34  2  0  0  0  0
 36 42  1  0  0  0  0
 37 47  1  0  0  0  0
 38 45  2  0  0  0  0
 39 40  2  0  0  0  0
 40 48  1  0  0  0  0
 41 46  1  1  0  0  0
 41 42  1  0  0  0  0
 43 33  1  0  0  0  0
 43 37  1  0  0  0  0
 44 35  1  0  0  0  0
 45 36  1  0  0  0  0
 46 39  1  0  0  0  0
 47 46  2  0  0  0  0
 47 35  1  0  0  0  0
 49 52  1  0  0  0  0
 49 48  1  0  0  0  0
 50 52  2  0  0  0  0
 52 51  1  0  0  0  0
 53  1  1  0  0  0  0
 54 53  1  0  0  0  0
 54 56  1  0  0  0  0
 56 55  1  1  0  0  0
 58 61  1  0  0  0  0
 59 57  1  0  0  0  0
 59 56  1  1  0  0  0
 59 61  1  0  0  0  0
 60 57  1  0  0  0  0
 60 58  1  0  0  0  0
M  END
>  <MODEL>
9

>  <REMARK>
 VINA RESULT:      -6.7      3.649      9.934
  Name = 
  19 active torsions:
  status: ('A' for Active; 'I' for Inactive)
    1  A    between atoms: C_1  and  C_14
    2  A    between atoms: C_12  and  N_37
    3  A    between atoms: C_13  and  C_39
    4  A    between atoms: C_13  and  C_42
    5  A    between atoms: C_14  and  C_19
    6  A    between atoms: N_15  and  C_18
    7  A    between atoms: C_16  and  C_33
    8  A    between atoms: C_16  and  C_54
    9  A    between atoms: C_18  and  C_32
   10  A    between atoms: C_19  and  C_42
   11  A    between atoms: C_20  and  C_53
   12  A    between atoms: C_27  and  C_54
   13  A    between atoms: C_29  and  C_59
   14  A    between atoms: C_31  and  N_37
   15  A    between atoms: C_33  and  N_37
   16  A    between atoms: C_44  and  C_51
   17  A    between atoms: C_50  and  C_53
   18  A    between atoms: C_50  and  C_58
   19  A    between atoms: C_51  and  C_52
                            x       y       z     vdW  Elec       q    Type
                         _______ _______ _______ _____ _____    ______ ____

>  <TORSDO>
F 19

$$$$
