=
 OpenBabel11062416003D

 36 40  0  0  1  0  0  0  0  0999 V2000
  183.4400  177.9740  139.9690 C   0  0  1  0  0  3  0  0  0  0  0  0
  182.4120  173.7580  136.9800 C   0  0  2  0  0  3  0  0  0  0  0  0
  180.1630  176.7050  139.5650 S   0  0  0  0  0  0  0  0  0  0  0  0
  187.5780  178.8900  139.5550 O   0  0  0  0  0  1  0  0  0  0  0  0
  182.1970  178.3580  140.2730 C   0  0  2  0  0  3  0  0  0  0  0  0
  181.2570  175.3530  139.1630 C   0  0  0  0  0  2  0  0  0  0  0  0
  181.3330  179.4430  142.3440 N   0  0  0  0  0  0  0  0  0  0  0  0
  186.2350  178.5620  139.6800 C   0  0  0  0  0  0  0  0  0  0  0  0
  183.4720  178.4440  142.2570 N   0  0  0  0  0  2  0  0  0  0  0  0
  183.3730  177.8170  137.5060 C   0  0  0  0  0  3  0  0  0  0  0  0
  185.6030  178.5490  141.0180 C   0  0  0  0  0  0  0  0  0  0  0  0
  183.4920  173.0560  134.7800 C   0  0  0  0  0  2  0  0  0  0  0  0
  180.0740  180.3260  138.7110 O   0  0  0  0  0  0  0  0  0  0  0  0
  179.7440  173.7230  137.5760 O   0  0  0  0  0  1  0  0  0  0  0  0
  185.5300  178.2650  138.5810 C   0  0  0  0  0  3  0  0  0  0  0  0
  184.7520  176.6000  135.7860 C   0  0  0  0  0  2  0  0  0  0  0  0
  182.1850  173.1720  135.5720 C   0  0  0  0  0  2  0  0  0  0  0  0
  180.6120  175.9050  136.4100 O   0  0  0  0  0  0  0  0  0  0  0  0
  179.7510  176.5540  141.0020 O   0  0  0  0  0  0  0  0  0  0  0  0
  180.0800  180.0110  141.9300 C   0  0  0  0  0  0  0  0  0  0  0  0
  180.9290  174.6600  137.5120 P   0  0  2  0  0  0  0  0  0  0  0  0
  183.8100  175.4120  135.6990 C   0  0  1  0  0  3  0  0  0  0  0  0
  184.1820  174.4170  134.5940 C   0  0  0  0  0  2  0  0  0  0  0  0
  183.9720  177.8680  136.1290 C   0  0  0  0  0  2  0  0  0  0  0  0
  179.2840  179.5150  140.7700 C   0  0  0  0  0  2  0  0  0  0  0  0
  182.1940  178.7070  141.6990 C   0  0  0  0  0  0  0  0  0  0  0  0
  178.9310  176.6790  138.7020 O   0  0  0  0  0  0  0  0  0  0  0  0
  180.1080  179.4280  139.5360 C   0  0  0  0  0  0  0  0  0  0  0  0
  186.2180  179.0200  142.0120 O   0  0  0  0  0  0  0  0  0  0  0  0
  181.0240  178.2700  139.3440 C   0  0  2  0  0  3  0  0  0  0  0  0
  184.0800  177.9630  138.6310 C   0  0  0  0  0  0  0  0  0  0  0  0
  179.5800  180.9280  142.6300 O   0  0  0  0  0  0  0  0  0  0  0  0
  183.6000  174.7280  137.0540 C   0  0  2  0  0  3  0  0  0  0  0  0
  184.2840  177.8550  141.2030 C   0  0  2  0  0  3  0  0  0  0  0  0
  184.5450  172.6050  137.9620 C   0  0  0  0  0  1  0  0  0  0  0  0
  184.8600  174.0330  137.5610 C   0  0  0  0  0  2  0  0  0  0  0  0
  1 31  1  6  0  0  0
  1  5  1  0  0  0  0
  1 34  1  0  0  0  0
  2 17  1  6  0  0  0
  2 33  1  0  0  0  0
  2 21  1  0  0  0  0
  3 19  2  0  0  0  0
  4  8  1  0  0  0  0
  5 26  1  1  0  0  0
  6  3  1  0  0  0  0
  8 11  1  0  0  0  0
 10 31  2  0  0  0  0
 11 29  2  0  0  0  0
 12 17  1  0  0  0  0
 13 28  2  0  0  0  0
 15 31  1  0  0  0  0
 15  8  2  0  0  0  0
 16 24  1  0  0  0  0
 20  7  1  0  0  0  0
 20 32  2  0  0  0  0
 21 18  2  6  0  0  0
 21 14  1  0  0  0  0
 21  6  1  0  0  0  0
 22 23  1  6  0  0  0
 22 16  1  0  0  0  0
 22 33  1  0  0  0  0
 23 12  1  0  0  0  0
 24 10  1  0  0  0  0
 25 20  1  0  0  0  0
 26  9  1  0  0  0  0
 26  7  2  0  0  0  0
 27  3  2  0  0  0  0
 28 25  1  0  0  0  0
 30 28  1  1  0  0  0
 30  3  1  0  0  0  0
 30  5  1  0  0  0  0
 33 36  1  6  0  0  0
 34 11  1  6  0  0  0
 34  9  1  0  0  0  0
 36 35  1  0  0  0  0
M  END
>  <MODEL>
1

>  <REMARK>
 VINA RESULT:      -5.8      0.000      0.000
  Name = 
  1 active torsions:
  status: ('A' for Active; 'I' for Inactive)
    1  A    between atoms: C_26  and  C_35
                            x       y       z     vdW  Elec       q    Type
                         _______ _______ _______ _____ _____    ______ ____

>  <TORSDO>
F 1

$$$$
=
 OpenBabel11062416003D

 36 40  0  0  1  0  0  0  0  0999 V2000
  184.5590  177.5170  137.7840 C   0  0  1  0  0  3  0  0  0  0  0  0
  182.4230  172.7040  137.5920 C   0  0  2  0  0  3  0  0  0  0  0  0
  181.0970  176.9730  138.2620 S   0  0  0  0  0  0  0  0  0  0  0  0
  188.6810  177.1560  136.7750 O   0  0  0  0  0  1  0  0  0  0  0  0
  183.4560  178.2630  137.8820 C   0  0  2  0  0  3  0  0  0  0  0  0
  181.8840  175.4090  138.6110 C   0  0  0  0  0  2  0  0  0  0  0  0
  183.1020  180.4250  139.0700 N   0  0  0  0  0  0  0  0  0  0  0  0
  187.3370  177.2430  137.1110 C   0  0  0  0  0  0  0  0  0  0  0  0
  185.0120  179.0900  139.4510 N   0  0  0  0  0  2  0  0  0  0  0  0
  184.0970  176.1200  135.8020 C   0  0  0  0  0  3  0  0  0  0  0  0
  186.9200  178.0670  138.2680 C   0  0  0  0  0  0  0  0  0  0  0  0
  183.0300  170.7440  136.0810 C   0  0  0  0  0  2  0  0  0  0  0  0
  181.4690  179.5370  135.5900 O   0  0  0  0  0  0  0  0  0  0  0  0
  179.9050  173.5670  138.2190 O   0  0  0  0  0  1  0  0  0  0  0  0
  186.4350  176.5790  136.3770 C   0  0  0  0  0  3  0  0  0  0  0  0
  184.9860  173.9190  134.9590 C   0  0  0  0  0  2  0  0  0  0  0  0
  181.8940  171.5370  136.7360 C   0  0  0  0  0  2  0  0  0  0  0  0
  180.9290  174.5720  136.0250 O   0  0  0  0  0  0  0  0  0  0  0  0
  180.8880  177.6860  139.5680 O   0  0  0  0  0  0  0  0  0  0  0  0
  181.9090  180.9520  138.4650 C   0  0  0  0  0  0  0  0  0  0  0  0
  181.2030  174.0490  137.6110 P   0  0  2  0  0  0  0  0  0  0  0  0
  183.8610  173.0980  135.5660 C   0  0  1  0  0  3  0  0  0  0  0  0
  183.8960  171.6210  135.1600 C   0  0  0  0  0  2  0  0  0  0  0  0
  184.4820  175.3140  134.5940 C   0  0  0  0  0  2  0  0  0  0  0  0
  180.8770  180.1120  137.7910 C   0  0  0  0  0  2  0  0  0  0  0  0
  183.7240  179.2940  138.8920 C   0  0  0  0  0  0  0  0  0  0  0  0
  179.7620  176.7700  137.6000 O   0  0  0  0  0  0  0  0  0  0  0  0
  181.4810  179.2180  136.7680 C   0  0  0  0  0  0  0  0  0  0  0  0
  187.7470  178.8390  138.8240 O   0  0  0  0  0  0  0  0  0  0  0  0
  182.1570  177.9630  137.1960 C   0  0  2  0  0  3  0  0  0  0  0  0
  184.9800  176.6720  136.6400 C   0  0  0  0  0  0  0  0  0  0  0  0
  181.6760  182.1820  138.5770 O   0  0  0  0  0  0  0  0  0  0  0  0
  183.7500  173.2850  137.0830 C   0  0  2  0  0  3  0  0  0  0  0  0
  185.5490  177.8780  138.8520 C   0  0  2  0  0  3  0  0  0  0  0  0
  186.2020  173.4780  137.5000 C   0  0  0  0  0  1  0  0  0  0  0  0
  184.9420  172.7010  137.8340 C   0  0  0  0  0  2  0  0  0  0  0  0
  1 31  1  6  0  0  0
  1  5  1  0  0  0  0
  1 34  1  0  0  0  0
  2 17  1  6  0  0  0
  2 21  1  0  0  0  0
  3  6  1  0  0  0  0
  3 19  2  0  0  0  0
  4  8  1  0  0  0  0
  5 26  1  1  0  0  0
  8 11  1  0  0  0  0
 10 31  2  0  0  0  0
 11 29  2  0  0  0  0
 12 17  1  0  0  0  0
 13 28  2  0  0  0  0
 15 31  1  0  0  0  0
 15  8  2  0  0  0  0
 20 32  2  0  0  0  0
 20  7  1  0  0  0  0
 21 18  2  6  0  0  0
 21 14  1  0  0  0  0
 21  6  1  0  0  0  0
 22 16  1  1  0  0  0
 22 33  1  0  0  0  0
 23 22  1  0  0  0  0
 23 12  1  0  0  0  0
 24 16  1  0  0  0  0
 24 10  1  0  0  0  0
 25 20  1  0  0  0  0
 26  7  2  0  0  0  0
 26  9  1  0  0  0  0
 27  3  2  0  0  0  0
 28 25  1  0  0  0  0
 30 28  1  1  0  0  0
 30  5  1  0  0  0  0
 30  3  1  0  0  0  0
 33  2  1  0  0  0  0
 33 36  1  1  0  0  0
 34 11  1  6  0  0  0
 34  9  1  0  0  0  0
 35 36  1  0  0  0  0
M  END
>  <MODEL>
2

>  <REMARK>
 VINA RESULT:      -5.8      2.142      2.707
  Name = 
  1 active torsions:
  status: ('A' for Active; 'I' for Inactive)
    1  A    between atoms: C_26  and  C_35
                            x       y       z     vdW  Elec       q    Type
                         _______ _______ _______ _____ _____    ______ ____

>  <TORSDO>
F 1

$$$$
=
 OpenBabel11062416003D

 36 40  0  0  1  0  0  0  0  0999 V2000
  183.1870  177.6810  138.5660 C   0  0  1  0  0  3  0  0  0  0  0  0
  182.6520  172.7340  136.8330 C   0  0  2  0  0  3  0  0  0  0  0  0
  180.0180  176.1850  138.0900 S   0  0  0  0  0  0  0  0  0  0  0  0
  187.3340  178.6480  138.4960 O   0  0  0  0  0  1  0  0  0  0  0  0
  181.9100  178.0730  138.5640 C   0  0  2  0  0  3  0  0  0  0  0  0
  181.1690  174.8310  138.2640 C   0  0  0  0  0  2  0  0  0  0  0  0
  180.7360  179.6660  140.0790 N   0  0  0  0  0  0  0  0  0  0  0  0
  185.9900  178.3020  138.5190 C   0  0  0  0  0  0  0  0  0  0  0  0
  182.8700  178.7950  140.5950 N   0  0  0  0  0  2  0  0  0  0  0  0
  183.4950  176.8150  136.2750 C   0  0  0  0  0  3  0  0  0  0  0  0
  185.1620  178.6450  139.6970 C   0  0  0  0  0  0  0  0  0  0  0  0
  184.0560  171.4800  135.1150 C   0  0  0  0  0  2  0  0  0  0  0  0
  180.0340  179.3940  136.2060 O   0  0  0  0  0  0  0  0  0  0  0  0
  179.9240  172.7370  137.0270 O   0  0  0  0  0  1  0  0  0  0  0  0
  185.4610  177.6630  137.4670 C   0  0  0  0  0  3  0  0  0  0  0  0
  185.1260  175.2240  135.2040 C   0  0  0  0  0  2  0  0  0  0  0  0
  182.6440  171.7550  135.6430 C   0  0  0  0  0  2  0  0  0  0  0  0
  180.9430  174.5290  135.4070 O   0  0  0  0  0  0  0  0  0  0  0  0
  179.3940  176.4360  139.4340 O   0  0  0  0  0  0  0  0  0  0  0  0
  179.5550  180.0250  139.3420 C   0  0  0  0  0  0  0  0  0  0  0  0
  181.0990  173.6740  136.8600 P   0  0  2  0  0  0  0  0  0  0  0  0
  184.2160  174.0150  135.3370 C   0  0  1  0  0  3  0  0  0  0  0  0
  184.7580  172.7630  134.6370 C   0  0  0  0  0  2  0  0  0  0  0  0
  184.2940  176.4950  135.0440 C   0  0  0  0  0  2  0  0  0  0  0  0
  178.9470  179.1750  138.2780 C   0  0  0  0  0  2  0  0  0  0  0  0
  181.6890  178.8190  139.8090 C   0  0  0  0  0  0  0  0  0  0  0  0
  178.9310  175.8470  137.1060 O   0  0  0  0  0  0  0  0  0  0  0  0
  179.9490  178.7770  137.2550 C   0  0  0  0  0  0  0  0  0  0  0  0
  185.6180  179.4140  140.5860 O   0  0  0  0  0  0  0  0  0  0  0  0
  180.8910  177.6610  137.5440 C   0  0  2  0  0  3  0  0  0  0  0  0
  184.0220  177.3160  137.3960 C   0  0  0  0  0  0  0  0  0  0  0  0
  178.9490  181.0800  139.6620 O   0  0  0  0  0  0  0  0  0  0  0  0
  183.8080  173.7430  136.7880 C   0  0  2  0  0  3  0  0  0  0  0  0
  183.8350  177.9680  139.8880 C   0  0  2  0  0  3  0  0  0  0  0  0
  186.2110  174.1220  137.3410 C   0  0  0  0  0  1  0  0  0  0  0  0
  184.9820  173.2900  137.6510 C   0  0  0  0  0  2  0  0  0  0  0  0
  1 31  1  6  0  0  0
  1 34  1  0  0  0  0
  2 17  1  6  0  0  0
  2 21  1  0  0  0  0
  3  6  1  0  0  0  0
  3 19  2  0  0  0  0
  4  8  1  0  0  0  0
  5  1  1  0  0  0  0
  5 26  1  1  0  0  0
  8 11  1  0  0  0  0
 10 31  2  0  0  0  0
 11 29  2  0  0  0  0
 12 17  1  0  0  0  0
 13 28  2  0  0  0  0
 15  8  2  0  0  0  0
 16 22  1  0  0  0  0
 20 32  2  0  0  0  0
 20  7  1  0  0  0  0
 21 18  2  6  0  0  0
 21 14  1  0  0  0  0
 21  6  1  0  0  0  0
 22 23  1  1  0  0  0
 22 33  1  0  0  0  0
 23 12  1  0  0  0  0
 24 16  1  0  0  0  0
 24 10  1  0  0  0  0
 25 20  1  0  0  0  0
 26  7  2  0  0  0  0
 26  9  1  0  0  0  0
 27  3  2  0  0  0  0
 28 25  1  0  0  0  0
 30 28  1  1  0  0  0
 30  3  1  0  0  0  0
 30  5  1  0  0  0  0
 31 15  1  0  0  0  0
 33  2  1  0  0  0  0
 33 36  1  1  0  0  0
 34 11  1  6  0  0  0
 34  9  1  0  0  0  0
 35 36  1  0  0  0  0
M  END
>  <MODEL>
3

>  <REMARK>
 VINA RESULT:      -5.4      1.413      1.760
  Name = 
  1 active torsions:
  status: ('A' for Active; 'I' for Inactive)
    1  A    between atoms: C_26  and  C_35
                            x       y       z     vdW  Elec       q    Type
                         _______ _______ _______ _____ _____    ______ ____

>  <TORSDO>
F 1

$$$$
=
 OpenBabel11062416003D

 36 40  0  0  1  0  0  0  0  0999 V2000
  183.8150  177.4850  137.2970 C   0  0  1  0  0  3  0  0  0  0  0  0
  180.7480  173.3340  138.3550 C   0  0  2  0  0  3  0  0  0  0  0  0
  180.8520  177.7710  139.2070 S   0  0  0  0  0  0  0  0  0  0  0  0
  186.9250  176.1820  134.6960 O   0  0  0  0  0  1  0  0  0  0  0  0
  183.0600  178.4700  137.7910 C   0  0  2  0  0  3  0  0  0  0  0  0
  181.3280  176.0530  139.3090 C   0  0  0  0  0  2  0  0  0  0  0  0
  183.7480  180.6140  138.8610 N   0  0  0  0  0  0  0  0  0  0  0  0
  185.9070  176.5770  135.5520 C   0  0  0  0  0  0  0  0  0  0  0  0
  185.2770  178.8480  138.5080 N   0  0  0  0  0  2  0  0  0  0  0  0
  182.2540  176.3060  135.7910 C   0  0  0  0  0  3  0  0  0  0  0  0
  186.2170  177.4380  136.7160 C   0  0  0  0  0  0  0  0  0  0  0  0
  180.1930  171.3360  136.8720 C   0  0  0  0  0  2  0  0  0  0  0  0
  180.6470  180.2580  136.4470 O   0  0  0  0  0  0  0  0  0  0  0  0
  179.0010  174.7530  139.9080 O   0  0  0  0  0  1  0  0  0  0  0  0
  184.6530  176.1730  135.3090 C   0  0  0  0  0  3  0  0  0  0  0  0
  182.1710  173.9860  134.8160 C   0  0  0  0  0  2  0  0  0  0  0  0
  179.6550  172.3560  137.8810 C   0  0  0  0  0  2  0  0  0  0  0  0
  179.2100  175.5560  137.4210 O   0  0  0  0  0  0  0  0  0  0  0  0
  181.3820  178.4700  140.4270 O   0  0  0  0  0  0  0  0  0  0  0  0
  182.5690  181.4300  138.7700 C   0  0  0  0  0  0  0  0  0  0  0  0
  179.9960  174.9300  138.7830 P   0  0  2  0  0  0  0  0  0  0  0  0
  181.2500  173.4390  135.8920 C   0  0  1  0  0  3  0  0  0  0  0  0
  180.7680  172.0100  135.6150 C   0  0  0  0  0  2  0  0  0  0  0  0
  181.8980  175.4730  134.5940 C   0  0  0  0  0  2  0  0  0  0  0  0
  181.1860  180.8850  138.6470 C   0  0  0  0  0  2  0  0  0  0  0  0
  183.9580  179.3730  138.5210 C   0  0  0  0  0  0  0  0  0  0  0  0
  179.3550  177.9160  139.1760 O   0  0  0  0  0  0  0  0  0  0  0  0
  181.0790  179.9070  137.5330 C   0  0  0  0  0  0  0  0  0  0  0  0
  187.3540  177.9710  136.8210 O   0  0  0  0  0  0  0  0  0  0  0  0
  181.5630  178.5130  137.7300 C   0  0  2  0  0  3  0  0  0  0  0  0
  183.5080  176.6030  136.1450 C   0  0  0  0  0  0  0  0  0  0  0  0
  182.6960  182.6770  138.8810 O   0  0  0  0  0  0  0  0  0  0  0  0
  181.8320  173.5960  137.3000 C   0  0  2  0  0  3  0  0  0  0  0  0
  185.2160  177.5630  137.8280 C   0  0  2  0  0  3  0  0  0  0  0  0
  184.2690  173.5820  137.8360 C   0  0  0  0  0  1  0  0  0  0  0  0
  183.0600  172.7190  137.5280 C   0  0  0  0  0  2  0  0  0  0  0  0
  1 31  1  6  0  0  0
  1  5  1  0  0  0  0
  1 34  1  0  0  0  0
  2 17  1  6  0  0  0
  2 21  1  0  0  0  0
  3  6  1  0  0  0  0
  3 19  2  0  0  0  0
  4  8  1  0  0  0  0
  5 26  1  1  0  0  0
  8 11  1  0  0  0  0
  9 26  1  0  0  0  0
 10 31  2  0  0  0  0
 11 29  2  0  0  0  0
 12 17  1  0  0  0  0
 13 28  2  0  0  0  0
 15  8  2  0  0  0  0
 15 31  1  0  0  0  0
 20  7  1  0  0  0  0
 20 32  2  0  0  0  0
 21 18  2  6  0  0  0
 21  6  1  0  0  0  0
 21 14  1  0  0  0  0
 22 16  1  6  0  0  0
 22 33  1  0  0  0  0
 23 22  1  0  0  0  0
 23 12  1  0  0  0  0
 24 16  1  0  0  0  0
 24 10  1  0  0  0  0
 25 20  1  0  0  0  0
 26  7  2  0  0  0  0
 27  3  2  0  0  0  0
 28 25  1  0  0  0  0
 30 28  1  1  0  0  0
 30  5  1  0  0  0  0
 30  3  1  0  0  0  0
 33 36  1  1  0  0  0
 33  2  1  0  0  0  0
 34 11  1  6  0  0  0
 34  9  1  0  0  0  0
 36 35  1  0  0  0  0
M  END
>  <MODEL>
4

>  <REMARK>
 VINA RESULT:      -5.3      2.395      3.349
  Name = 
  1 active torsions:
  status: ('A' for Active; 'I' for Inactive)
    1  A    between atoms: C_26  and  C_35
                            x       y       z     vdW  Elec       q    Type
                         _______ _______ _______ _____ _____    ______ ____

>  <TORSDO>
F 1

$$$$
=
 OpenBabel11062416003D

 36 40  0  0  1  0  0  0  0  0999 V2000
  183.8320  176.4030  137.9780 C   0  0  1  0  0  3  0  0  0  0  0  0
  188.6010  174.5920  136.6600 C   0  0  2  0  0  3  0  0  0  0  0  0
  184.3190  173.1470  136.6840 S   0  0  0  0  0  0  0  0  0  0  0  0
  184.2540  180.4860  139.1140 O   0  0  0  0  0  1  0  0  0  0  0  0
  183.0670  175.4000  137.5380 C   0  0  2  0  0  3  0  0  0  0  0  0
  185.9020  173.6470  137.3410 C   0  0  0  0  0  2  0  0  0  0  0  0
  180.9160  174.5280  138.4460 N   0  0  0  0  0  0  0  0  0  0  0  0
  184.1470  179.1510  138.7490 C   0  0  0  0  0  0  0  0  0  0  0  0
  182.2910  175.9940  139.6870 N   0  0  0  0  0  2  0  0  0  0  0  0
  185.1920  176.9600  135.9950 C   0  0  0  0  0  3  0  0  0  0  0  0
  183.3320  178.2270  139.5700 C   0  0  0  0  0  0  0  0  0  0  0  0
  190.5510  175.8450  135.6000 C   0  0  0  0  0  2  0  0  0  0  0  0
  181.7250  174.8050  134.5940 O   0  0  0  0  0  0  0  0  0  0  0  0
  187.7020  172.0980  135.9900 O   0  0  0  0  0  1  0  0  0  0  0  0
  184.7840  178.7190  137.6520 C   0  0  0  0  0  3  0  0  0  0  0  0
  187.3970  178.1280  135.6500 C   0  0  0  0  0  2  0  0  0  0  0  0
  189.7460  174.5410  135.6300 C   0  0  0  0  0  2  0  0  0  0  0  0
  186.6850  174.0760  134.6020 O   0  0  0  0  0  0  0  0  0  0  0  0
  183.6200  172.3300  137.7350 O   0  0  0  0  0  0  0  0  0  0  0  0
  180.3590  173.7910  137.3450 C   0  0  0  0  0  0  0  0  0  0  0  0
  187.2350  173.5320  136.1070 P   0  0  2  0  0  0  0  0  0  0  0  0
  188.2050  176.8420  135.6090 C   0  0  1  0  0  3  0  0  0  0  0  0
  189.6770  177.0590  135.2410 C   0  0  0  0  0  2  0  0  0  0  0  0
  185.9870  177.8810  135.1140 C   0  0  0  0  0  2  0  0  0  0  0  0
  181.1700  173.2150  136.2330 C   0  0  0  0  0  2  0  0  0  0  0  0
  182.0550  175.1480  138.5720 C   0  0  0  0  0  0  0  0  0  0  0  0
  184.4870  172.3070  135.4490 O   0  0  0  0  0  0  0  0  0  0  0  0
  182.0600  174.2350  135.6190 C   0  0  0  0  0  0  0  0  0  0  0  0
  182.5830  178.6820  140.4760 O   0  0  0  0  0  0  0  0  0  0  0  0
  183.3340  174.6020  136.2970 C   0  0  2  0  0  3  0  0  0  0  0  0
  184.6680  177.3230  137.1700 C   0  0  0  0  0  0  0  0  0  0  0  0
  179.1260  173.5440  137.3550 O   0  0  0  0  0  0  0  0  0  0  0  0
  188.0380  176.0030  136.8800 C   0  0  2  0  0  3  0  0  0  0  0  0
  183.5040  176.7440  139.4020 C   0  0  2  0  0  3  0  0  0  0  0  0
  187.5630  177.1790  139.0280 C   0  0  0  0  0  1  0  0  0  0  0  0
  188.6540  176.6680  138.1070 C   0  0  0  0  0  2  0  0  0  0  0  0
  1 31  1  6  0  0  0
  1 34  1  0  0  0  0
  2 17  1  6  0  0  0
  2 33  1  0  0  0  0
  3  6  1  0  0  0  0
  3 19  2  0  0  0  0
  5  1  1  0  0  0  0
  5 26  1  1  0  0  0
  7 26  2  0  0  0  0
  8  4  1  0  0  0  0
  8 11  1  0  0  0  0
 10 31  2  0  0  0  0
 11 29  2  0  0  0  0
 12 17  1  0  0  0  0
 13 28  2  0  0  0  0
 14 21  1  0  0  0  0
 15  8  2  0  0  0  0
 20 32  2  0  0  0  0
 20  7  1  0  0  0  0
 21 18  2  6  0  0  0
 21  2  1  0  0  0  0
 21  6  1  0  0  0  0
 22 23  1  1  0  0  0
 22 16  1  0  0  0  0
 22 33  1  0  0  0  0
 23 12  1  0  0  0  0
 24 16  1  0  0  0  0
 24 10  1  0  0  0  0
 25 20  1  0  0  0  0
 26  9  1  0  0  0  0
 27  3  2  0  0  0  0
 28 25  1  0  0  0  0
 30 28  1  1  0  0  0
 30  3  1  0  0  0  0
 30  5  1  0  0  0  0
 31 15  1  0  0  0  0
 33 36  1  1  0  0  0
 34 11  1  6  0  0  0
 34  9  1  0  0  0  0
 36 35  1  0  0  0  0
M  END
>  <MODEL>
5

>  <REMARK>
 VINA RESULT:      -5.2      3.682      5.572
  Name = 
  1 active torsions:
  status: ('A' for Active; 'I' for Inactive)
    1  A    between atoms: C_26  and  C_35
                            x       y       z     vdW  Elec       q    Type
                         _______ _______ _______ _____ _____    ______ ____

>  <TORSDO>
F 1

$$$$
=
 OpenBabel11062416003D

 36 40  0  0  1  0  0  0  0  0999 V2000
  183.4910  178.3840  140.0830 C   0  0  1  0  0  3  0  0  0  0  0  0
  183.9180  175.0610  136.0160 C   0  0  2  0  0  3  0  0  0  0  0  0
  180.8940  177.9550  137.7200 S   0  0  0  0  0  0  0  0  0  0  0  0
  187.2220  178.4210  142.1360 O   0  0  0  0  0  1  0  0  0  0  0  0
  182.3310  178.9760  139.7850 C   0  0  2  0  0  3  0  0  0  0  0  0
  181.8950  176.4820  137.6080 C   0  0  0  0  0  2  0  0  0  0  0  0
  180.5650  179.8610  141.3040 N   0  0  0  0  0  0  0  0  0  0  0  0
  186.0130  178.3810  141.4540 C   0  0  0  0  0  0  0  0  0  0  0  0
  182.2860  178.4450  142.0840 N   0  0  0  0  0  2  0  0  0  0  0  0
  184.7920  178.6610  138.0040 C   0  0  0  0  0  3  0  0  0  0  0  0
  184.7450  178.2840  142.2110 C   0  0  0  0  0  0  0  0  0  0  0  0
  185.9690  174.5170  134.6040 C   0  0  0  0  0  2  0  0  0  0  0  0
  181.6300  181.5970  137.9250 O   0  0  0  0  0  0  0  0  0  0  0  0
  181.3800  175.5160  135.1050 O   0  0  0  0  0  0  0  0  0  0  0  0
  186.0160  178.4350  140.1150 C   0  0  0  0  0  3  0  0  0  0  0  0
  186.7760  177.4760  137.0030 C   0  0  0  0  0  2  0  0  0  0  0  0
  184.4600  174.7840  134.6000 C   0  0  0  0  0  2  0  0  0  0  0  0
  182.9470  177.6160  135.1770 O   0  0  0  0  0  1  0  0  0  0  0  0
  179.7390  177.6600  138.6360 O   0  0  0  0  0  0  0  0  0  0  0  0
  179.8130  180.7530  140.4640 C   0  0  0  0  0  0  0  0  0  0  0  0
  182.4800  176.1650  135.9130 P   0  0  2  0  0  0  0  0  0  0  0  0
  185.9370  176.5570  136.1320 C   0  0  1  0  0  3  0  0  0  0  0  0
  186.7680  175.7040  135.1670 C   0  0  0  0  0  2  0  0  0  0  0  0
  186.0580  178.8090  137.2080 C   0  0  0  0  0  2  0  0  0  0  0  0
  179.7560  180.6470  138.9780 C   0  0  0  0  0  2  0  0  0  0  0  0
  181.5660  179.0730  141.0340 C   0  0  0  0  0  0  0  0  0  0  0  0
  180.3550  178.3460  136.3710 O   0  0  0  0  0  0  0  0  0  0  0  0
  181.1150  180.5890  138.3790 C   0  0  0  0  0  0  0  0  0  0  0  0
  184.7430  178.4340  143.4620 O   0  0  0  0  0  0  0  0  0  0  0  0
  181.8710  179.3060  138.3960 C   0  0  2  0  0  3  0  0  0  0  0  0
  184.7630  178.4570  139.3240 C   0  0  0  0  0  0  0  0  0  0  0  0
  179.0950  181.6280  141.0140 O   0  0  0  0  0  0  0  0  0  0  0  0
  184.9470  175.7180  136.9460 C   0  0  2  0  0  3  0  0  0  0  0  0
  183.4890  177.8760  141.4940 C   0  0  2  0  0  3  0  0  0  0  0  0
  184.8740  173.3790  137.8100 C   0  0  0  0  0  1  0  0  0  0  0  0
  185.6400  174.6880  137.8330 C   0  0  0  0  0  2  0  0  0  0  0  0
  1 31  1  1  0  0  0
  1 34  1  0  0  0  0
  2 17  1  6  0  0  0
  2 33  1  0  0  0  0
  3 30  1  0  0  0  0
  3 19  2  0  0  0  0
  5  1  1  0  0  0  0
  5 26  1  6  0  0  0
  6  3  1  0  0  0  0
  8  4  1  0  0  0  0
  8 11  1  0  0  0  0
 10 31  2  0  0  0  0
 11 29  2  0  0  0  0
 12 23  1  0  0  0  0
 13 28  2  0  0  0  0
 15  8  2  0  0  0  0
 16 24  1  0  0  0  0
 17 12  1  0  0  0  0
 18 21  1  0  0  0  0
 20 32  2  0  0  0  0
 20  7  1  0  0  0  0
 21 14  2  6  0  0  0
 21  2  1  0  0  0  0
 21  6  1  0  0  0  0
 22 23  1  1  0  0  0
 22 33  1  0  0  0  0
 22 16  1  0  0  0  0
 24 10  1  0  0  0  0
 25 20  1  0  0  0  0
 26  7  2  0  0  0  0
 26  9  1  0  0  0  0
 27  3  2  0  0  0  0
 28 25  1  0  0  0  0
 30 28  1  1  0  0  0
 30  5  1  0  0  0  0
 31 15  1  0  0  0  0
 33 36  1  6  0  0  0
 34  9  1  1  0  0  0
 34 11  1  0  0  0  0
 35 36  1  0  0  0  0
M  END
>  <MODEL>
6

>  <REMARK>
 VINA RESULT:      -5.1      1.680      2.117
  Name = 
  1 active torsions:
  status: ('A' for Active; 'I' for Inactive)
    1  A    between atoms: C_26  and  C_35
                            x       y       z     vdW  Elec       q    Type
                         _______ _______ _______ _____ _____    ______ ____

>  <TORSDO>
F 1

$$$$
=
 OpenBabel11062416003D

 36 40  0  0  1  0  0  0  0  0999 V2000
  184.9360  176.3370  136.5300 C   0  0  1  0  0  3  0  0  0  0  0  0
  179.9940  177.7370  137.7020 C   0  0  2  0  0  3  0  0  0  0  0  0
  182.2610  174.0240  136.4750 S   0  0  0  0  0  0  0  0  0  0  0  0
  187.4420  179.7170  137.1920 O   0  0  0  0  0  1  0  0  0  0  0  0
  184.7880  175.0140  136.4160 C   0  0  2  0  0  3  0  0  0  0  0  0
  181.5090  175.6350  136.3120 C   0  0  0  0  0  2  0  0  0  0  0  0
  185.9790  173.4060  134.9300 N   0  0  0  0  0  0  0  0  0  0  0  0
  186.6000  178.6340  136.9740 C   0  0  0  0  0  0  0  0  0  0  0  0
  186.1010  175.7400  134.5940 N   0  0  0  0  0  2  0  0  0  0  0  0
  183.9580  176.8060  138.7470 C   0  0  0  0  0  3  0  0  0  0  0  0
  186.7460  177.8250  135.7430 C   0  0  0  0  0  0  0  0  0  0  0  0
  179.1740  179.4030  139.4480 C   0  0  0  0  0  2  0  0  0  0  0  0
  184.9250  172.6000  138.6470 O   0  0  0  0  0  0  0  0  0  0  0  0
  178.9460  175.2650  137.1820 O   0  0  0  0  0  0  0  0  0  0  0  0
  185.6680  178.3370  137.8880 C   0  0  0  0  0  3  0  0  0  0  0  0
  183.0100  178.8620  139.8490 C   0  0  0  0  0  2  0  0  0  0  0  0
  178.9380  178.0430  138.7820 C   0  0  0  0  0  2  0  0  0  0  0  0
  180.7550  175.3490  139.0780 O   0  0  0  0  0  1  0  0  0  0  0  0
  182.4260  173.4510  135.0950 O   0  0  0  0  0  0  0  0  0  0  0  0
  185.7390  172.1320  135.5510 C   0  0  0  0  0  0  0  0  0  0  0  0
  180.2390  175.9420  137.5790 P   0  0  2  0  0  0  0  0  0  0  0  0
  181.5700  178.5340  139.4920 C   0  0  1  0  0  3  0  0  0  0  0  0
  180.5510  179.4860  140.1280 C   0  0  0  0  0  2  0  0  0  0  0  0
  183.8150  177.5760  140.0290 C   0  0  0  0  0  2  0  0  0  0  0  0
  184.5810  171.8470  136.4470 C   0  0  0  0  0  2  0  0  0  0  0  0
  185.5490  174.5990  135.2310 C   0  0  0  0  0  0  0  0  0  0  0  0
  181.3910  173.1010  137.2830 O   0  0  0  0  0  0  0  0  0  0  0  0
  184.4740  172.8490  137.5410 C   0  0  0  0  0  0  0  0  0  0  0  0
  187.7460  177.9910  134.9940 O   0  0  0  0  0  0  0  0  0  0  0  0
  183.8720  174.1810  137.2610 C   0  0  2  0  0  3  0  0  0  0  0  0
  184.7740  177.1620  137.7510 C   0  0  0  0  0  0  0  0  0  0  0  0
  186.5010  171.1740  135.2630 O   0  0  0  0  0  0  0  0  0  0  0  0
  181.3600  178.3770  137.9830 C   0  0  2  0  0  3  0  0  0  0  0  0
  185.6330  176.9060  135.3290 C   0  0  2  0  0  3  0  0  0  0  0  0
  180.9630  179.5660  135.8260 C   0  0  0  0  0  1  0  0  0  0  0  0
  181.5300  179.6910  137.2280 C   0  0  0  0  0  2  0  0  0  0  0  0
  1 31  1  1  0  0  0
  2 33  1  0  0  0  0
  2 17  1  1  0  0  0
  3 30  1  0  0  0  0
  3 27  2  0  0  0  0
  5 26  1  6  0  0  0
  5  1  1  0  0  0  0
  5 30  1  0  0  0  0
  6  3  1  0  0  0  0
  6 21  1  0  0  0  0
  7 26  2  0  0  0  0
  7 20  1  0  0  0  0
  8  4  1  0  0  0  0
  8 15  2  0  0  0  0
  9 26  1  0  0  0  0
 10 24  1  0  0  0  0
 11  8  1  0  0  0  0
 12 23  1  0  0  0  0
 16 24  1  0  0  0  0
 17 12  1  0  0  0  0
 19  3  2  0  0  0  0
 20 25  1  0  0  0  0
 21 14  2  6  0  0  0
 21  2  1  0  0  0  0
 21 18  1  0  0  0  0
 22 16  1  6  0  0  0
 22 23  1  0  0  0  0
 25 28  1  0  0  0  0
 28 13  2  0  0  0  0
 29 11  2  0  0  0  0
 30 28  1  6  0  0  0
 31 15  1  0  0  0  0
 31 10  2  0  0  0  0
 32 20  2  0  0  0  0
 33 36  1  6  0  0  0
 33 22  1  0  0  0  0
 34  9  1  1  0  0  0
 34 11  1  0  0  0  0
 34  1  1  0  0  0  0
 35 36  1  0  0  0  0
M  END
>  <MODEL>
7

>  <REMARK>
 VINA RESULT:      -4.9      3.266      6.645
  Name = 
  1 active torsions:
  status: ('A' for Active; 'I' for Inactive)
    1  A    between atoms: C_26  and  C_35
                            x       y       z     vdW  Elec       q    Type
                         _______ _______ _______ _____ _____    ______ ____

>  <TORSDO>
F 1

$$$$
=
 OpenBabel11062416003D

 36 40  0  0  1  0  0  0  0  0999 V2000
  184.6500  177.5030  138.2380 C   0  0  1  0  0  3  0  0  0  0  0  0
  180.3550  180.4450  137.4300 C   0  0  2  0  0  3  0  0  0  0  0  0
  182.2230  176.6640  135.8060 S   0  0  0  0  0  0  0  0  0  0  0  0
  186.7570  179.1500  141.5520 O   0  0  0  0  0  1  0  0  0  0  0  0
  184.3790  176.4640  137.4430 C   0  0  2  0  0  3  0  0  0  0  0  0
  182.0170  178.4110  136.1100 C   0  0  0  0  0  2  0  0  0  0  0  0
  185.9340  175.0170  136.1370 N   0  0  0  0  0  0  0  0  0  0  0  0
  186.0560  178.6410  140.4680 C   0  0  0  0  0  0  0  0  0  0  0  0
  186.6320  177.0670  137.0800 N   0  0  0  0  0  2  0  0  0  0  0  0
  182.6180  177.6670  139.6290 C   0  0  0  0  0  3  0  0  0  0  0  0
  186.7840  178.2460  139.2410 C   0  0  0  0  0  0  0  0  0  0  0  0
  178.9380  181.7080  139.1320 C   0  0  0  0  0  2  0  0  0  0  0  0
  182.7090  173.6810  137.9770 O   0  0  0  0  0  0  0  0  0  0  0  0
  179.4410  178.9190  135.3530 O   0  0  0  0  0  0  0  0  0  0  0  0
  184.7250  178.5110  140.5530 C   0  0  0  0  0  3  0  0  0  0  0  0
  181.5620  179.5080  140.9860 C   0  0  0  0  0  2  0  0  0  0  0  0
  178.9310  180.8360  137.8720 C   0  0  0  0  0  2  0  0  0  0  0  0
  179.6940  177.6720  137.6460 O   0  0  0  0  0  1  0  0  0  0  0  0
  183.0970  176.5070  134.5940 O   0  0  0  0  0  0  0  0  0  0  0  0
  185.1510  173.8440  135.8620 C   0  0  0  0  0  0  0  0  0  0  0  0
  180.3130  178.8380  136.5870 P   0  0  2  0  0  0  0  0  0  0  0  0
  180.6130  179.9380  139.8810 C   0  0  1  0  0  3  0  0  0  0  0  0
  179.5990  180.9990  140.3260 C   0  0  0  0  0  2  0  0  0  0  0  0
  181.8540  178.0120  140.8760 C   0  0  0  0  0  2  0  0  0  0  0  0
  183.6600  173.8250  135.8320 C   0  0  0  0  0  2  0  0  0  0  0  0
  185.6210  176.1340  136.7320 C   0  0  0  0  0  0  0  0  0  0  0  0
  180.8990  176.0020  135.5390 O   0  0  0  0  0  0  0  0  0  0  0  0
  183.0800  174.4090  137.0700 C   0  0  0  0  0  0  0  0  0  0  0  0
  188.0420  178.1860  139.2460 O   0  0  0  0  0  0  0  0  0  0  0  0
  183.0130  175.8880  137.2250 C   0  0  2  0  0  3  0  0  0  0  0  0
  183.9190  177.9200  139.4590 C   0  0  0  0  0  0  0  0  0  0  0  0
  185.7530  172.7850  135.5480 O   0  0  0  0  0  0  0  0  0  0  0  0
  181.3470  180.3350  138.5960 C   0  0  2  0  0  3  0  0  0  0  0  0
  186.0200  178.0480  137.9630 C   0  0  2  0  0  3  0  0  0  0  0  0
  181.7840  182.6180  137.6890 C   0  0  0  0  0  1  0  0  0  0  0  0
  182.1650  181.6130  138.7590 C   0  0  0  0  0  2  0  0  0  0  0  0
  1 31  1  1  0  0  0
  2 17  1  1  0  0  0
  2 33  1  0  0  0  0
  3  6  1  0  0  0  0
  3 30  1  0  0  0  0
  5 26  1  6  0  0  0
  5  1  1  0  0  0  0
  6 21  1  0  0  0  0
  7 26  2  0  0  0  0
  8 15  2  0  0  0  0
  8  4  1  0  0  0  0
 10 24  1  0  0  0  0
 11 29  2  0  0  0  0
 11  8  1  0  0  0  0
 12 23  1  0  0  0  0
 17 12  1  0  0  0  0
 19  3  2  0  0  0  0
 20  7  1  0  0  0  0
 21 14  2  6  0  0  0
 21  2  1  0  0  0  0
 21 18  1  0  0  0  0
 22 23  1  1  0  0  0
 22 16  1  0  0  0  0
 24 16  1  0  0  0  0
 25 20  1  0  0  0  0
 25 28  1  0  0  0  0
 26  9  1  0  0  0  0
 27  3  2  0  0  0  0
 28 13  2  0  0  0  0
 30 28  1  6  0  0  0
 30  5  1  0  0  0  0
 31 10  2  0  0  0  0
 31 15  1  0  0  0  0
 32 20  2  0  0  0  0
 33 36  1  1  0  0  0
 33 22  1  0  0  0  0
 34  9  1  6  0  0  0
 34  1  1  0  0  0  0
 34 11  1  0  0  0  0
 35 36  1  0  0  0  0
M  END
>  <MODEL>
8

>  <REMARK>
 VINA RESULT:      -4.6      2.771      6.443
  Name = 
  1 active torsions:
  status: ('A' for Active; 'I' for Inactive)
    1  A    between atoms: C_26  and  C_35
                            x       y       z     vdW  Elec       q    Type
                         _______ _______ _______ _____ _____    ______ ____

>  <TORSDO>
F 1

$$$$
=
 OpenBabel11062416003D

 36 40  0  0  1  0  0  0  0  0999 V2000
  186.7740  174.6800  136.6350 C   0  0  1  0  0  3  0  0  0  0  0  0
  183.7070  178.0330  139.3020 C   0  0  2  0  0  3  0  0  0  0  0  0
  188.0980  177.4360  138.4140 S   0  0  0  0  0  0  0  0  0  0  0  0
  184.2390  171.9330  134.5940 O   0  0  0  0  0  1  0  0  0  0  0  0
  187.9540  175.2950  136.7510 C   0  0  2  0  0  3  0  0  0  0  0  0
  186.4960  177.1200  139.1370 C   0  0  0  0  0  2  0  0  0  0  0  0
  190.2430  174.3190  136.9060 N   0  0  0  0  0  0  0  0  0  0  0  0
  185.0420  172.8350  135.2790 C   0  0  0  0  0  0  0  0  0  0  0  0
  188.3030  173.0010  137.1840 N   0  0  0  0  0  2  0  0  0  0  0  0
  185.3170  176.4650  135.7490 C   0  0  0  0  0  3  0  0  0  0  0  0
  186.2290  172.3490  136.0190 C   0  0  0  0  0  0  0  0  0  0  0  0
  181.3840  178.8970  138.7050 C   0  0  0  0  0  2  0  0  0  0  0  0
  189.3920  177.6270  134.9310 O   0  0  0  0  0  0  0  0  0  0  0  0
  185.7980  179.5040  140.2750 O   0  0  0  0  0  1  0  0  0  0  0  0
  184.7290  174.1370  135.2560 C   0  0  0  0  0  3  0  0  0  0  0  0
  182.8280  176.8490  135.7240 C   0  0  0  0  0  2  0  0  0  0  0  0
  182.7620  179.2510  139.2760 C   0  0  0  0  0  2  0  0  0  0  0  0
  185.5920  179.4230  137.6620 O   0  0  0  0  0  0  0  0  0  0  0  0
  189.1300  176.7430  139.2590 O   0  0  0  0  0  0  0  0  0  0  0  0
  191.1020  175.4180  136.5620 C   0  0  0  0  0  0  0  0  0  0  0  0
  185.4260  178.5920  139.1270 P   0  0  2  0  0  0  0  0  0  0  0  0
  182.8320  177.7280  136.9640 C   0  0  1  0  0  3  0  0  0  0  0  0
  181.4710  178.3640  137.2650 C   0  0  0  0  0  2  0  0  0  0  0  0
  184.1480  176.9970  134.9690 C   0  0  0  0  0  2  0  0  0  0  0  0
  190.7200  176.8530  136.7090 C   0  0  0  0  0  2  0  0  0  0  0  0
  188.9490  174.2570  137.0510 C   0  0  0  0  0  0  0  0  0  0  0  0
  188.3990  178.9090  138.3910 O   0  0  0  0  0  0  0  0  0  0  0  0
  189.4190  177.1430  136.0510 C   0  0  0  0  0  0  0  0  0  0  0  0
  186.6220  171.1620  135.8700 O   0  0  0  0  0  0  0  0  0  0  0  0
  188.1500  176.7810  136.7390 C   0  0  2  0  0  3  0  0  0  0  0  0
  185.5720  175.1640  135.9140 C   0  0  0  0  0  0  0  0  0  0  0  0
  192.2770  175.1640  136.1890 O   0  0  0  0  0  0  0  0  0  0  0  0
  183.4290  177.0190  138.1840 C   0  0  2  0  0  3  0  0  0  0  0  0
  186.8750  173.2400  137.0420 C   0  0  2  0  0  3  0  0  0  0  0  0
  183.2350  174.5400  138.3860 C   0  0  0  0  0  1  0  0  0  0  0  0
  182.5590  175.8670  138.6760 C   0  0  0  0  0  2  0  0  0  0  0  0
  1 31  1  6  0  0  0
  1  5  1  0  0  0  0
  1 34  1  0  0  0  0
  2 17  1  6  0  0  0
  3  6  1  0  0  0  0
  3 19  2  0  0  0  0
  4  8  1  0  0  0  0
  5 26  1  1  0  0  0
  7 26  2  0  0  0  0
  8 11  1  0  0  0  0
 10 31  2  0  0  0  0
 12 17  1  0  0  0  0
 13 28  2  0  0  0  0
 15  8  2  0  0  0  0
 15 31  1  0  0  0  0
 20 25  1  0  0  0  0
 20  7  1  0  0  0  0
 21 18  2  6  0  0  0
 21  6  1  0  0  0  0
 21  2  1  0  0  0  0
 21 14  1  0  0  0  0
 22 16  1  6  0  0  0
 22 23  1  0  0  0  0
 22 33  1  0  0  0  0
 23 12  1  0  0  0  0
 24 16  1  0  0  0  0
 24 10  1  0  0  0  0
 26  9  1  0  0  0  0
 27  3  2  0  0  0  0
 28 25  1  0  0  0  0
 29 11  2  0  0  0  0
 30 28  1  1  0  0  0
 30  5  1  0  0  0  0
 30  3  1  0  0  0  0
 32 20  2  0  0  0  0
 33 36  1  1  0  0  0
 33  2  1  0  0  0  0
 34 11  1  6  0  0  0
 34  9  1  0  0  0  0
 35 36  1  0  0  0  0
M  END
>  <MODEL>
9

>  <REMARK>
 VINA RESULT:      -4.5      4.204      7.916
  Name = 
  1 active torsions:
  status: ('A' for Active; 'I' for Inactive)
    1  A    between atoms: C_26  and  C_35
                            x       y       z     vdW  Elec       q    Type
                         _______ _______ _______ _____ _____    ______ ____

>  <TORSDO>
F 1

$$$$
