=
 OpenBabel11062413233D

 46 50  0  0  1  0  0  0  0  0999 V2000
  187.4460  178.3350  142.0020 C   0  0  2  0  0  3  0  0  0  0  0  0
  189.7190  177.4350  139.2770 C   0  0  0  0  0  0  0  0  0  0  0  0
  190.5410  177.3290  140.3170 C   0  0  0  0  0  0  0  0  0  0  0  0
  186.2180  178.6760  141.1740 C   0  0  0  0  0  3  0  0  0  0  0  0
  189.0500  178.5970  137.1850 C   0  0  0  0  0  2  0  0  0  0  0  0
  186.2150  178.6310  139.8220 C   0  0  0  0  0  0  0  0  0  0  0  0
  187.5860  178.2730  137.5950 C   0  0  0  0  0  2  0  0  0  0  0  0
  192.0260  177.4070  140.2400 C   0  0  0  0  0  1  0  0  0  0  0  0
  188.4300  177.5900  141.2090 N   0  0  0  0  0  0  0  0  0  0  0  0
  190.0420  177.8190  137.9420 N   0  0  0  0  0  2  0  0  0  0  0  0
  188.4010  177.6280  139.7990 C   0  0  0  0  0  0  0  0  0  0  0  0
  189.7840  177.4090  141.5410 N   0  0  0  0  0  0  0  0  0  0  0  0
  187.4200  178.1710  139.0970 C   0  0  0  0  0  0  0  0  0  0  0  0
  187.0710  177.5850  143.2470 C   0  0  0  0  0  0  0  0  0  0  0  0
  187.4460  176.3180  143.4320 C   0  0  0  0  0  2  0  0  0  0  0  0
  186.1960  178.2420  144.2580 C   0  0  0  0  0  1  0  0  0  0  0  0
  185.0490  178.9970  139.0760 N   0  0  0  0  0  2  0  0  0  0  0  0
  183.9100  178.1100  138.8330 C   0  0  2  0  0  3  0  0  0  0  0  0
  183.9170  177.4280  137.4430 C   0  0  2  0  0  3  0  0  0  0  0  0
  182.8140  176.3930  137.2820 C   0  0  0  0  0  2  0  0  0  0  0  0
  184.2330  175.9410  137.5130 C   0  0  1  0  0  3  0  0  0  0  0  0
  184.8580  175.5130  136.2010 C   0  0  0  0  0  2  0  0  0  0  0  0
  185.8240  174.3640  136.4360 C   0  0  0  0  0  2  0  0  0  0  0  0
  185.2510  173.3770  137.4370 C   0  0  0  0  0  2  0  0  0  0  0  0
  184.7830  172.1280  136.7200 C   0  0  0  0  0  2  0  0  0  0  0  0
  182.4080  172.6960  136.7490 C   0  0  0  0  0  2  0  0  0  0  0  0
  183.3660  171.8380  137.0770 C   0  0  0  0  0  3  0  0  0  0  0  0
  182.5830  178.7550  139.2480 C   0  0  0  0  0  2  0  0  0  0  0  0
  181.3960  179.1810  141.3770 C   0  0  1  0  0  3  0  0  0  0  0  0
  181.9920  178.1050  140.4900 C   0  0  1  0  0  3  0  0  0  0  0  0
  180.4980  178.3310  140.5030 C   0  0  0  0  0  2  0  0  0  0  0  0
  181.3440  178.6600  142.7970 C   0  0  0  0  0  2  0  0  0  0  0  0
  182.5850  179.0950  143.5440 C   0  0  0  0  0  1  0  0  0  0  0  0
  190.3440  177.7200  142.8490 C   0  0  0  0  0  2  0  0  0  0  0  0
  190.5130  175.3310  142.8320 O   0  0  0  0  0  1  0  0  0  0  0  0
  191.0020  176.4830  143.4510 C   0  0  2  0  0  3  0  0  0  0  0  0
  190.8010  176.3870  144.9690 C   0  0  1  0  0  3  0  0  0  0  0  0
  191.7940  175.7810  147.0730 O   0  0  0  0  0  1  0  0  0  0  0  0
  192.5070  174.7050  145.2000 F   0  0  0  0  0  0  0  0  0  0  0  0
  192.0540  175.9110  145.7070 C   0  0  1  0  0  3  0  0  0  0  0  0
  190.2690  177.6860  145.5730 C   0  0  0  0  0  2  0  0  0  0  0  0
  189.7300  177.4610  146.9760 C   0  0  0  0  0  2  0  0  0  0  0  0
  188.2300  177.2260  146.9550 C   0  0  0  0  0  2  0  0  0  0  0  0
  188.0320  178.1850  149.1250 O   0  0  0  0  0  0  0  0  0  0  0  0
  186.4290  178.8710  147.5920 N   0  0  0  0  0  1  0  0  0  0  0  0
  187.5680  178.1030  147.9570 C   0  0  0  0  0  0  0  0  0  0  0  0
  1 14  1  1  0  0  0
  2 11  1  0  0  0  0
  2  3  2  0  0  0  0
  3 12  1  0  0  0  0
  4  1  1  0  0  0  0
  5  7  1  0  0  0  0
  5 10  1  0  0  0  0
  6  4  2  0  0  0  0
  7 13  1  0  0  0  0
  8  3  1  0  0  0  0
  9 12  1  0  0  0  0
  9  1  1  0  0  0  0
 10  2  1  0  0  0  0
 11  9  1  0  0  0  0
 12 34  1  0  0  0  0
 13 11  2  0  0  0  0
 13  6  1  0  0  0  0
 14 15  2  0  0  0  0
 14 16  1  0  0  0  0
 17  6  1  0  0  0  0
 18 17  1  0  0  0  0
 18 28  1  6  0  0  0
 19 21  1  0  0  0  0
 19 18  1  1  0  0  0
 20 19  1  0  0  0  0
 20 21  1  0  0  0  0
 21 22  1  6  0  0  0
 22 23  1  0  0  0  0
 23 24  1  0  0  0  0
 25 27  1  0  0  0  0
 25 24  1  0  0  0  0
 26 27  2  0  0  0  0
 29 32  1  1  0  0  0
 30 28  1  6  0  0  0
 30 31  1  0  0  0  0
 30 29  1  0  0  0  0
 31 29  1  0  0  0  0
 32 33  1  0  0  0  0
 34 36  1  0  0  0  0
 36 35  1  6  0  0  0
 36 37  1  0  0  0  0
 37 41  1  1  0  0  0
 37 40  1  0  0  0  0
 40 39  1  6  0  0  0
 40 38  1  0  0  0  0
 41 42  1  0  0  0  0
 43 42  1  0  0  0  0
 43 46  1  0  0  0  0
 45 46  1  0  0  0  0
 46 44  2  0  0  0  0
M  END
>  <MODEL>
1

>  <REMARK>
 VINA RESULT:      -7.3      0.000      0.000
  Name = 
  20 active torsions:
  status: ('A' for Active; 'I' for Inactive)
    1  A    between atoms: C_1  and  C_22
    2  A    between atoms: C_1  and  N_42
    3  A    between atoms: C_2  and  C_25
    4  A    between atoms: C_4  and  C_31
    5  A    between atoms: C_6  and  C_8
    6  A    between atoms: C_6  and  C_26
    7  A    between atoms: C_8  and  C_19
    8  A    between atoms: C_8  and  C_22
    9  A    between atoms: C_9  and  C_40
   10  A    between atoms: C_9  and  C_45
   11  A    between atoms: C_10  and  C_20
   12  A    between atoms: N_12  and  C_24
   13  A    between atoms: N_12  and  C_31
   14  A    between atoms: C_23  and  C_28
   15  A    between atoms: C_23  and  C_46
   16  A    between atoms: C_26  and  C_35
   17  A    between atoms: C_29  and  C_38
   18  A    between atoms: C_31  and  C_38
   19  A    between atoms: C_35  and  C_41
   20  A    between atoms: C_40  and  C_46
                            x       y       z     vdW  Elec       q    Type
                         _______ _______ _______ _____ _____    ______ ____

>  <TORSDO>
F 20

$$$$
=
 OpenBabel11062413233D

 46 50  0  0  1  0  0  0  0  0999 V2000
  189.8140  177.8020  139.4060 C   0  0  2  0  0  3  0  0  0  0  0  0
  187.7140  176.3370  136.7910 C   0  0  0  0  0  0  0  0  0  0  0  0
  188.9220  176.0380  136.3210 C   0  0  0  0  0  0  0  0  0  0  0  0
  188.7210  178.4330  140.2540 C   0  0  0  0  0  3  0  0  0  0  0  0
  185.5910  177.6120  136.5840 C   0  0  0  0  0  2  0  0  0  0  0  0
  187.4130  178.3780  139.9130 C   0  0  0  0  0  0  0  0  0  0  0  0
  185.5940  177.6680  138.1370 C   0  0  0  0  0  2  0  0  0  0  0  0
  189.2310  175.7410  134.8950 C   0  0  0  0  0  1  0  0  0  0  0  0
  189.2580  176.8280  138.4610 N   0  0  0  0  0  0  0  0  0  0  0  0
  186.5300  176.6160  136.0450 N   0  0  0  0  0  2  0  0  0  0  0  0
  187.8920  176.8590  138.1100 C   0  0  0  0  0  0  0  0  0  0  0  0
  189.9140  176.3160  137.3280 N   0  0  0  0  0  0  0  0  0  0  0  0
  186.9950  177.6240  138.7100 C   0  0  0  0  0  0  0  0  0  0  0  0
  190.8770  177.1810  140.2660 C   0  0  0  0  0  0  0  0  0  0  0  0
  192.1720  177.3220  139.9760 C   0  0  0  0  0  2  0  0  0  0  0  0
  190.4760  176.3250  141.4170 C   0  0  0  0  0  1  0  0  0  0  0  0
  186.4160  179.0180  140.7170 N   0  0  0  0  0  2  0  0  0  0  0  0
  186.1400  178.6810  142.1160 C   0  0  2  0  0  3  0  0  0  0  0  0
  187.2700  177.8880  142.8160 C   0  0  2  0  0  3  0  0  0  0  0  0
  186.7500  176.7460  143.6760 C   0  0  0  0  0  2  0  0  0  0  0  0
  187.2330  178.0150  144.3320 C   0  0  1  0  0  3  0  0  0  0  0  0
  188.6340  177.8150  144.8730 C   0  0  0  0  0  2  0  0  0  0  0  0
  188.6040  177.7800  146.3910 C   0  0  0  0  0  2  0  0  0  0  0  0
  189.7010  176.8790  146.9290 C   0  0  0  0  0  2  0  0  0  0  0  0
  190.8140  176.7560  145.9100 C   0  0  0  0  0  2  0  0  0  0  0  0
  191.9630  175.4710  147.6410 C   0  0  0  0  0  2  0  0  0  0  0  0
  192.0500  176.2480  146.5680 C   0  0  0  0  0  3  0  0  0  0  0  0
  184.7250  178.1230  142.3010 C   0  0  0  0  0  2  0  0  0  0  0  0
  182.6130  178.4540  143.5460 C   0  0  1  0  0  3  0  0  0  0  0  0
  183.7670  179.1620  142.8640 C   0  0  1  0  0  3  0  0  0  0  0  0
  183.7380  179.0430  144.3710 C   0  0  0  0  0  2  0  0  0  0  0  0
  181.4260  179.3930  143.5830 C   0  0  0  0  0  2  0  0  0  0  0  0
  180.2390  178.7400  142.9120 C   0  0  0  0  0  1  0  0  0  0  0  0
  191.3370  176.4890  137.0720 C   0  0  0  0  0  2  0  0  0  0  0  0
  191.6740  174.2620  137.8870 O   0  0  0  0  0  1  0  0  0  0  0  0
  192.0040  175.1350  136.8480 C   0  0  2  0  0  3  0  0  0  0  0  0
  193.5280  175.2420  136.7160 C   0  0  1  0  0  3  0  0  0  0  0  0
  195.3640  176.5740  135.9220 O   0  0  0  0  0  1  0  0  0  0  0  0
  193.5250  176.3830  134.5970 F   0  0  0  0  0  0  0  0  0  0  0  0
  193.9730  176.4600  135.9050 C   0  0  1  0  0  3  0  0  0  0  0  0
  194.2380  175.1940  138.0690 C   0  0  0  0  0  2  0  0  0  0  0  0
  195.0200  173.9010  138.2350 C   0  0  0  0  0  2  0  0  0  0  0  0
  196.2330  174.1060  139.1260 C   0  0  0  0  0  2  0  0  0  0  0  0
  197.5080  174.2760  137.1220 O   0  0  0  0  0  0  0  0  0  0  0  0
  198.2720  175.5710  138.8910 N   0  0  0  0  0  1  0  0  0  0  0  0
  197.3650  174.6370  138.3210 C   0  0  0  0  0  0  0  0  0  0  0  0
  1  4  1  0  0  0  0
  1 14  1  1  0  0  0
  2 11  1  0  0  0  0
  3  2  2  0  0  0  0
  3 12  1  0  0  0  0
  5  7  1  0  0  0  0
  6  4  2  0  0  0  0
  6 17  1  0  0  0  0
  7 13  1  0  0  0  0
  8  3  1  0  0  0  0
  9  1  1  0  0  0  0
 10  5  1  0  0  0  0
 10  2  1  0  0  0  0
 11  9  1  0  0  0  0
 11 13  2  0  0  0  0
 12  9  1  0  0  0  0
 13  6  1  0  0  0  0
 14 16  1  0  0  0  0
 15 14  2  0  0  0  0
 17 18  1  0  0  0  0
 18 28  1  6  0  0  0
 19 18  1  6  0  0  0
 19 20  1  0  0  0  0
 19 21  1  0  0  0  0
 20 21  1  0  0  0  0
 21 22  1  1  0  0  0
 22 23  1  0  0  0  0
 23 24  1  0  0  0  0
 25 27  1  0  0  0  0
 25 24  1  0  0  0  0
 27 26  2  0  0  0  0
 29 32  1  1  0  0  0
 29 31  1  0  0  0  0
 30 28  1  6  0  0  0
 30 29  1  0  0  0  0
 30 31  1  0  0  0  0
 33 32  1  0  0  0  0
 34 12  1  0  0  0  0
 36 34  1  0  0  0  0
 36 35  1  1  0  0  0
 37 36  1  0  0  0  0
 37 41  1  1  0  0  0
 40 39  1  6  0  0  0
 40 38  1  0  0  0  0
 40 37  1  0  0  0  0
 41 42  1  0  0  0  0
 42 43  1  0  0  0  0
 44 46  2  0  0  0  0
 46 45  1  0  0  0  0
 46 43  1  0  0  0  0
M  END
>  <MODEL>
2

>  <REMARK>
 VINA RESULT:      -7.0      3.809      7.964
  Name = 
  20 active torsions:
  status: ('A' for Active; 'I' for Inactive)
    1  A    between atoms: C_1  and  C_22
    2  A    between atoms: C_1  and  N_42
    3  A    between atoms: C_2  and  C_25
    4  A    between atoms: C_4  and  C_31
    5  A    between atoms: C_6  and  C_8
    6  A    between atoms: C_6  and  C_26
    7  A    between atoms: C_8  and  C_19
    8  A    between atoms: C_8  and  C_22
    9  A    between atoms: C_9  and  C_40
   10  A    between atoms: C_9  and  C_45
   11  A    between atoms: C_10  and  C_20
   12  A    between atoms: N_12  and  C_24
   13  A    between atoms: N_12  and  C_31
   14  A    between atoms: C_23  and  C_28
   15  A    between atoms: C_23  and  C_46
   16  A    between atoms: C_26  and  C_35
   17  A    between atoms: C_29  and  C_38
   18  A    between atoms: C_31  and  C_38
   19  A    between atoms: C_35  and  C_41
   20  A    between atoms: C_40  and  C_46
                            x       y       z     vdW  Elec       q    Type
                         _______ _______ _______ _____ _____    ______ ____

>  <TORSDO>
F 20

$$$$
=
 OpenBabel11062413233D

 46 50  0  0  1  0  0  0  0  0999 V2000
  188.2540  177.8790  141.9650 C   0  0  2  0  0  3  0  0  0  0  0  0
  189.0840  176.8750  138.5440 C   0  0  0  0  0  0  0  0  0  0  0  0
  190.1320  176.3820  139.1980 C   0  0  0  0  0  0  0  0  0  0  0  0
  186.9880  178.6680  141.6730 C   0  0  0  0  0  3  0  0  0  0  0  0
  188.1440  178.5050  136.9210 C   0  0  0  0  0  2  0  0  0  0  0  0
  186.5180  178.8510  140.4180 C   0  0  0  0  0  0  0  0  0  0  0  0
  186.8790  178.5180  137.8240 C   0  0  0  0  0  2  0  0  0  0  0  0
  191.4520  176.0740  138.5800 C   0  0  0  0  0  1  0  0  0  0  0  0
  188.6340  177.0430  140.8210 N   0  0  0  0  0  0  0  0  0  0  0  0
  189.0420  177.3760  137.2090 N   0  0  0  0  0  2  0  0  0  0  0  0
  188.1460  177.3220  139.5270 C   0  0  0  0  0  0  0  0  0  0  0  0
  189.8950  176.4560  140.6170 N   0  0  0  0  0  0  0  0  0  0  0  0
  187.2040  178.2150  139.2720 C   0  0  0  0  0  0  0  0  0  0  0  0
  188.1070  177.0600  143.2140 C   0  0  0  0  0  0  0  0  0  0  0  0
  188.0000  175.7310  143.1620 C   0  0  0  0  0  2  0  0  0  0  0  0
  187.9990  177.7490  144.5300 C   0  0  0  0  0  1  0  0  0  0  0  0
  185.3420  179.6340  140.1790 N   0  0  0  0  0  2  0  0  0  0  0  0
  183.9770  179.1830  140.4600 C   0  0  2  0  0  3  0  0  0  0  0  0
  183.8430  178.3130  141.7340 C   0  0  2  0  0  3  0  0  0  0  0  0
  182.5220  178.5210  142.4600 C   0  0  0  0  0  2  0  0  0  0  0  0
  183.7810  179.1370  143.0120 C   0  0  1  0  0  3  0  0  0  0  0  0
  184.3060  178.2980  144.1590 C   0  0  0  0  0  2  0  0  0  0  0  0
  184.6720  179.1930  145.3310 C   0  0  0  0  0  2  0  0  0  0  0  0
  185.0560  178.3620  146.5420 C   0  0  0  0  0  2  0  0  0  0  0  0
  186.2220  179.0060  147.2620 C   0  0  0  0  0  2  0  0  0  0  0  0
  188.2370  178.2970  148.4460 C   0  0  0  0  0  2  0  0  0  0  0  0
  187.1240  177.9550  147.8090 C   0  0  0  0  0  3  0  0  0  0  0  0
  183.2870  178.6350  139.2070 C   0  0  0  0  0  2  0  0  0  0  0  0
  182.2320  176.6600  138.1540 C   0  0  1  0  0  3  0  0  0  0  0  0
  183.2320  177.1150  139.2000 C   0  0  1  0  0  3  0  0  0  0  0  0
  183.7170  176.6090  137.8610 C   0  0  0  0  0  2  0  0  0  0  0  0
  181.7510  175.2720  138.5190 C   0  0  0  0  0  2  0  0  0  0  0  0
  182.0930  174.3060  137.4070 C   0  0  0  0  0  1  0  0  0  0  0  0
  190.9280  176.3840  141.6410 C   0  0  0  0  0  2  0  0  0  0  0  0
  192.5900  178.0260  141.1100 O   0  0  0  0  0  1  0  0  0  0  0  0
  191.4860  177.7750  141.9280 C   0  0  2  0  0  3  0  0  0  0  0  0
  191.8720  177.9640  143.4010 C   0  0  1  0  0  3  0  0  0  0  0  0
  192.2180  180.0530  144.5390 O   0  0  0  0  0  1  0  0  0  0  0  0
  190.4540  179.8870  143.1120 F   0  0  0  0  0  0  0  0  0  0  0  0
  191.2330  179.2030  144.0300 C   0  0  1  0  0  3  0  0  0  0  0  0
  191.5980  176.7180  144.2420 C   0  0  0  0  0  2  0  0  0  0  0  0
  191.2120  177.0880  145.6650 C   0  0  0  0  0  2  0  0  0  0  0  0
  191.2630  175.8770  146.5800 C   0  0  0  0  0  2  0  0  0  0  0  0
  193.2210  175.3120  147.8100 O   0  0  0  0  0  0  0  0  0  0  0  0
  192.1300  177.2350  148.5190 N   0  0  0  0  0  1  0  0  0  0  0  0
  192.2550  176.1060  147.6640 C   0  0  0  0  0  0  0  0  0  0  0  0
  1 14  1  1  0  0  0
  2  3  2  0  0  0  0
  2 11  1  0  0  0  0
  3 12  1  0  0  0  0
  4  1  1  0  0  0  0
  5 10  1  0  0  0  0
  5  7  1  0  0  0  0
  6  4  2  0  0  0  0
  7 13  1  0  0  0  0
  8  3  1  0  0  0  0
  9  1  1  0  0  0  0
 10  2  1  0  0  0  0
 11  9  1  0  0  0  0
 12  9  1  0  0  0  0
 12 34  1  0  0  0  0
 13 11  2  0  0  0  0
 13  6  1  0  0  0  0
 14 16  1  0  0  0  0
 15 14  2  0  0  0  0
 17  6  1  0  0  0  0
 17 18  1  0  0  0  0
 18 28  1  6  0  0  0
 19 18  1  6  0  0  0
 19 20  1  0  0  0  0
 19 21  1  0  0  0  0
 20 21  1  0  0  0  0
 21 22  1  1  0  0  0
 22 23  1  0  0  0  0
 23 24  1  0  0  0  0
 24 25  1  0  0  0  0
 25 27  1  0  0  0  0
 27 26  2  0  0  0  0
 29 32  1  1  0  0  0
 29 30  1  0  0  0  0
 30 28  1  6  0  0  0
 31 29  1  0  0  0  0
 31 30  1  0  0  0  0
 33 32  1  0  0  0  0
 34 36  1  0  0  0  0
 36 35  1  6  0  0  0
 36 37  1  0  0  0  0
 37 40  1  0  0  0  0
 37 41  1  1  0  0  0
 40 39  1  6  0  0  0
 40 38  1  0  0  0  0
 41 42  1  0  0  0  0
 42 43  1  0  0  0  0
 43 46  1  0  0  0  0
 46 44  2  0  0  0  0
 46 45  1  0  0  0  0
M  END
>  <MODEL>
3

>  <REMARK>
 VINA RESULT:      -7.0      2.254      5.288
  Name = 
  20 active torsions:
  status: ('A' for Active; 'I' for Inactive)
    1  A    between atoms: C_1  and  C_22
    2  A    between atoms: C_1  and  N_42
    3  A    between atoms: C_2  and  C_25
    4  A    between atoms: C_4  and  C_31
    5  A    between atoms: C_6  and  C_8
    6  A    between atoms: C_6  and  C_26
    7  A    between atoms: C_8  and  C_19
    8  A    between atoms: C_8  and  C_22
    9  A    between atoms: C_9  and  C_40
   10  A    between atoms: C_9  and  C_45
   11  A    between atoms: C_10  and  C_20
   12  A    between atoms: N_12  and  C_24
   13  A    between atoms: N_12  and  C_31
   14  A    between atoms: C_23  and  C_28
   15  A    between atoms: C_23  and  C_46
   16  A    between atoms: C_26  and  C_35
   17  A    between atoms: C_29  and  C_38
   18  A    between atoms: C_31  and  C_38
   19  A    between atoms: C_35  and  C_41
   20  A    between atoms: C_40  and  C_46
                            x       y       z     vdW  Elec       q    Type
                         _______ _______ _______ _____ _____    ______ ____

>  <TORSDO>
F 20

$$$$
=
 OpenBabel11062413233D

 46 50  0  0  1  0  0  0  0  0999 V2000
  187.3530  178.3600  141.9150 C   0  0  2  0  0  3  0  0  0  0  0  0
  189.6980  177.4130  139.2700 C   0  0  0  0  0  0  0  0  0  0  0  0
  190.4910  177.3250  140.3340 C   0  0  0  0  0  0  0  0  0  0  0  0
  186.1480  178.6890  141.0480 C   0  0  0  0  0  3  0  0  0  0  0  0
  189.0890  178.5420  137.1410 C   0  0  0  0  0  2  0  0  0  0  0  0
  186.1830  178.6210  139.6980 C   0  0  0  0  0  0  0  0  0  0  0  0
  187.6140  178.2250  137.5160 C   0  0  0  0  0  2  0  0  0  0  0  0
  191.9790  177.4000  140.2960 C   0  0  0  0  0  1  0  0  0  0  0  0
  188.3570  177.6020  141.1620 N   0  0  0  0  0  0  0  0  0  0  0  0
  190.0590  177.7750  137.9380 N   0  0  0  0  0  2  0  0  0  0  0  0
  188.3680  177.6170  139.7520 C   0  0  0  0  0  0  0  0  0  0  0  0
  189.7010  177.4260  141.5350 N   0  0  0  0  0  0  0  0  0  0  0  0
  187.4070  178.1480  139.0140 C   0  0  0  0  0  0  0  0  0  0  0  0
  186.9420  177.6320  143.1620 C   0  0  0  0  0  0  0  0  0  0  0  0
  187.2800  176.3560  143.3620 C   0  0  0  0  0  2  0  0  0  0  0  0
  186.0740  178.3210  144.1570 C   0  0  0  0  0  1  0  0  0  0  0  0
  185.0380  178.9760  138.9140 N   0  0  0  0  0  2  0  0  0  0  0  0
  183.9460  178.0580  138.5820 C   0  0  2  0  0  3  0  0  0  0  0  0
  184.1440  177.2860  137.2550 C   0  0  2  0  0  3  0  0  0  0  0  0
  182.9830  176.3570  136.9290 C   0  0  0  0  0  2  0  0  0  0  0  0
  184.2720  175.7830  137.4570 C   0  0  1  0  0  3  0  0  0  0  0  0
  185.0850  175.2040  136.3170 C   0  0  0  0  0  2  0  0  0  0  0  0
  186.1590  174.2780  136.8630 C   0  0  0  0  0  2  0  0  0  0  0  0
  187.5210  174.9460  136.8080 C   0  0  0  0  0  2  0  0  0  0  0  0
  188.5800  173.9290  136.4360 C   0  0  0  0  0  2  0  0  0  0  0  0
  190.9030  174.1290  137.1620 C   0  0  0  0  0  2  0  0  0  0  0  0
  189.9180  174.5810  136.3970 C   0  0  0  0  0  3  0  0  0  0  0  0
  182.5730  178.7120  138.7710 C   0  0  0  0  0  2  0  0  0  0  0  0
  181.3840  179.2640  140.8690 C   0  0  1  0  0  3  0  0  0  0  0  0
  181.8200  178.1320  139.9590 C   0  0  1  0  0  3  0  0  0  0  0  0
  180.3900  178.6210  139.9240 C   0  0  0  0  0  2  0  0  0  0  0  0
  181.1750  178.7080  142.2610 C   0  0  0  0  0  2  0  0  0  0  0  0
  182.3820  179.0170  143.1180 C   0  0  0  0  0  1  0  0  0  0  0  0
  190.2250  177.7580  142.8520 C   0  0  0  0  0  2  0  0  0  0  0  0
  190.4590  175.3740  142.8590 O   0  0  0  0  0  1  0  0  0  0  0  0
  190.9120  176.5450  143.4710 C   0  0  2  0  0  3  0  0  0  0  0  0
  190.7030  176.4570  144.9880 C   0  0  1  0  0  3  0  0  0  0  0  0
  191.8900  176.8730  147.0360 O   0  0  0  0  0  1  0  0  0  0  0  0
  192.3900  174.9840  145.8710 F   0  0  0  0  0  0  0  0  0  0  0  0
  192.0140  176.3130  145.7630 C   0  0  1  0  0  3  0  0  0  0  0  0
  189.8680  177.6160  145.5320 C   0  0  0  0  0  2  0  0  0  0  0  0
  188.7090  177.1110  146.3770 C   0  0  0  0  0  2  0  0  0  0  0  0
  188.0640  178.2440  147.1550 C   0  0  0  0  0  2  0  0  0  0  0  0
  189.6250  178.4940  148.9360 O   0  0  0  0  0  0  0  0  0  0  0  0
  187.5220  177.7370  149.5640 N   0  0  0  0  0  1  0  0  0  0  0  0
  188.4610  178.1630  148.5860 C   0  0  0  0  0  0  0  0  0  0  0  0
  1 14  1  1  0  0  0
  2 11  1  0  0  0  0
  2  3  2  0  0  0  0
  3 12  1  0  0  0  0
  4  1  1  0  0  0  0
  5  7  1  0  0  0  0
  5 10  1  0  0  0  0
  6  4  2  0  0  0  0
  7 13  1  0  0  0  0
  8  3  1  0  0  0  0
  9 12  1  0  0  0  0
  9  1  1  0  0  0  0
 10  2  1  0  0  0  0
 11  9  1  0  0  0  0
 12 34  1  0  0  0  0
 13  6  1  0  0  0  0
 13 11  2  0  0  0  0
 14 15  2  0  0  0  0
 14 16  1  0  0  0  0
 17  6  1  0  0  0  0
 18 28  1  6  0  0  0
 18 17  1  0  0  0  0
 19 21  1  0  0  0  0
 19 18  1  1  0  0  0
 20 19  1  0  0  0  0
 20 21  1  0  0  0  0
 21 22  1  6  0  0  0
 22 23  1  0  0  0  0
 24 23  1  0  0  0  0
 25 24  1  0  0  0  0
 27 25  1  0  0  0  0
 27 26  2  0  0  0  0
 29 32  1  1  0  0  0
 30 28  1  6  0  0  0
 30 29  1  0  0  0  0
 31 30  1  0  0  0  0
 31 29  1  0  0  0  0
 32 33  1  0  0  0  0
 34 36  1  0  0  0  0
 36 35  1  6  0  0  0
 36 37  1  0  0  0  0
 37 41  1  1  0  0  0
 37 40  1  0  0  0  0
 40 39  1  1  0  0  0
 40 38  1  0  0  0  0
 41 42  1  0  0  0  0
 42 43  1  0  0  0  0
 43 46  1  0  0  0  0
 46 44  2  0  0  0  0
 46 45  1  0  0  0  0
M  END
>  <MODEL>
4

>  <REMARK>
 VINA RESULT:      -7.0      1.153      1.916
  Name = 
  20 active torsions:
  status: ('A' for Active; 'I' for Inactive)
    1  A    between atoms: C_1  and  C_22
    2  A    between atoms: C_1  and  N_42
    3  A    between atoms: C_2  and  C_25
    4  A    between atoms: C_4  and  C_31
    5  A    between atoms: C_6  and  C_8
    6  A    between atoms: C_6  and  C_26
    7  A    between atoms: C_8  and  C_19
    8  A    between atoms: C_8  and  C_22
    9  A    between atoms: C_9  and  C_40
   10  A    between atoms: C_9  and  C_45
   11  A    between atoms: C_10  and  C_20
   12  A    between atoms: N_12  and  C_24
   13  A    between atoms: N_12  and  C_31
   14  A    between atoms: C_23  and  C_28
   15  A    between atoms: C_23  and  C_46
   16  A    between atoms: C_26  and  C_35
   17  A    between atoms: C_29  and  C_38
   18  A    between atoms: C_31  and  C_38
   19  A    between atoms: C_35  and  C_41
   20  A    between atoms: C_40  and  C_46
                            x       y       z     vdW  Elec       q    Type
                         _______ _______ _______ _____ _____    ______ ____

>  <TORSDO>
F 20

$$$$
=
 OpenBabel11062413233D

 46 50  0  0  1  0  0  0  0  0999 V2000
  187.1210  178.5350  141.7040 C   0  0  2  0  0  3  0  0  0  0  0  0
  189.3500  177.4480  139.0120 C   0  0  0  0  0  0  0  0  0  0  0  0
  190.1680  177.3430  140.0560 C   0  0  0  0  0  0  0  0  0  0  0  0
  185.9070  178.9000  140.8650 C   0  0  0  0  0  3  0  0  0  0  0  0
  188.7290  178.5670  136.8820 C   0  0  0  0  0  2  0  0  0  0  0  0
  185.9010  178.8090  139.5160 C   0  0  0  0  0  0  0  0  0  0  0  0
  187.2530  178.3180  137.3030 C   0  0  0  0  0  2  0  0  0  0  0  0
  191.6560  177.3550  139.9760 C   0  0  0  0  0  1  0  0  0  0  0  0
  188.0720  177.7240  140.9370 N   0  0  0  0  0  0  0  0  0  0  0  0
  189.6880  177.7730  137.6650 N   0  0  0  0  0  2  0  0  0  0  0  0
  188.0430  177.7150  139.5270 C   0  0  0  0  0  0  0  0  0  0  0  0
  189.4170  177.4970  141.2760 N   0  0  0  0  0  0  0  0  0  0  0  0
  187.0840  178.2740  138.8070 C   0  0  0  0  0  0  0  0  0  0  0  0
  186.7160  177.8440  142.9740 C   0  0  0  0  0  0  0  0  0  0  0  0
  187.1540  176.6180  143.2660 C   0  0  0  0  0  2  0  0  0  0  0  0
  185.7420  178.5080  143.8860 C   0  0  0  0  0  1  0  0  0  0  0  0
  184.7500  179.1990  138.7570 N   0  0  0  0  0  2  0  0  0  0  0  0
  183.7280  178.2710  138.2700 C   0  0  2  0  0  3  0  0  0  0  0  0
  182.2730  178.7410  138.5120 C   0  0  2  0  0  3  0  0  0  0  0  0
  182.1850  180.1890  138.9730 C   0  0  0  0  0  2  0  0  0  0  0  0
  181.9920  179.0760  139.9700 C   0  0  1  0  0  3  0  0  0  0  0  0
  180.5150  178.8760  140.2410 C   0  0  0  0  0  2  0  0  0  0  0  0
  180.3150  177.7130  141.1980 C   0  0  0  0  0  2  0  0  0  0  0  0
  179.5320  176.5960  140.5300 C   0  0  0  0  0  2  0  0  0  0  0  0
  180.4780  175.6720  139.7920 C   0  0  0  0  0  2  0  0  0  0  0  0
  180.2690  173.7560  138.2910 C   0  0  0  0  0  2  0  0  0  0  0  0
  179.7240  174.5150  139.2340 C   0  0  0  0  0  3  0  0  0  0  0  0
  184.0320  176.8230  138.6710 C   0  0  0  0  0  2  0  0  0  0  0  0
  183.7270  174.5990  137.6310 C   0  0  1  0  0  3  0  0  0  0  0  0
  184.3820  175.9570  137.4700 C   0  0  1  0  0  3  0  0  0  0  0  0
  183.1170  175.6340  136.7080 C   0  0  0  0  0  2  0  0  0  0  0  0
  184.4980  173.5910  136.8060 C   0  0  0  0  0  2  0  0  0  0  0  0
  184.1450  172.1910  137.2550 C   0  0  0  0  0  1  0  0  0  0  0  0
  189.9910  177.8280  142.5730 C   0  0  0  0  0  2  0  0  0  0  0  0
  190.1190  175.4380  142.6810 O   0  0  0  0  0  1  0  0  0  0  0  0
  190.6990  176.6130  143.1650 C   0  0  2  0  0  3  0  0  0  0  0  0
  190.6850  176.6110  144.6990 C   0  0  1  0  0  3  0  0  0  0  0  0
  192.0600  176.5240  146.6690 O   0  0  0  0  0  1  0  0  0  0  0  0
  192.2940  174.8720  145.1230 F   0  0  0  0  0  0  0  0  0  0  0  0
  192.0330  176.2190  145.3060 C   0  0  1  0  0  3  0  0  0  0  0  0
  190.1830  177.9320  145.2820 C   0  0  0  0  0  2  0  0  0  0  0  0
  188.8770  177.7400  146.0360 C   0  0  0  0  0  2  0  0  0  0  0  0
  189.0880  177.8630  147.5350 C   0  0  0  0  0  2  0  0  0  0  0  0
  187.6950  177.9490  149.4640 O   0  0  0  0  0  0  0  0  0  0  0  0
  186.6270  178.4100  147.4540 N   0  0  0  0  0  1  0  0  0  0  0  0
  187.7790  178.0630  148.2120 C   0  0  0  0  0  0  0  0  0  0  0  0
  1 14  1  1  0  0  0
  2 11  1  0  0  0  0
  2  3  2  0  0  0  0
  3 12  1  0  0  0  0
  4  1  1  0  0  0  0
  5  7  1  0  0  0  0
  5 10  1  0  0  0  0
  6  4  2  0  0  0  0
  7 13  1  0  0  0  0
  8  3  1  0  0  0  0
  9 12  1  0  0  0  0
  9  1  1  0  0  0  0
 10  2  1  0  0  0  0
 11  9  1  0  0  0  0
 12 34  1  0  0  0  0
 13  6  1  0  0  0  0
 13 11  2  0  0  0  0
 14 15  2  0  0  0  0
 14 16  1  0  0  0  0
 17  6  1  0  0  0  0
 18 28  1  1  0  0  0
 18 17  1  0  0  0  0
 19 18  1  1  0  0  0
 19 20  1  0  0  0  0
 19 21  1  0  0  0  0
 20 21  1  0  0  0  0
 21 22  1  6  0  0  0
 22 23  1  0  0  0  0
 24 23  1  0  0  0  0
 25 24  1  0  0  0  0
 26 27  2  0  0  0  0
 27 25  1  0  0  0  0
 29 32  1  6  0  0  0
 30 29  1  0  0  0  0
 30 28  1  1  0  0  0
 31 30  1  0  0  0  0
 31 29  1  0  0  0  0
 32 33  1  0  0  0  0
 34 36  1  0  0  0  0
 36 35  1  6  0  0  0
 36 37  1  0  0  0  0
 37 41  1  1  0  0  0
 37 40  1  0  0  0  0
 40 39  1  1  0  0  0
 40 38  1  0  0  0  0
 41 42  1  0  0  0  0
 42 43  1  0  0  0  0
 43 46  1  0  0  0  0
 45 46  1  0  0  0  0
 46 44  2  0  0  0  0
M  END
>  <MODEL>
5

>  <REMARK>
 VINA RESULT:      -6.7      1.116      3.448
  Name = 
  20 active torsions:
  status: ('A' for Active; 'I' for Inactive)
    1  A    between atoms: C_1  and  C_22
    2  A    between atoms: C_1  and  N_42
    3  A    between atoms: C_2  and  C_25
    4  A    between atoms: C_4  and  C_31
    5  A    between atoms: C_6  and  C_8
    6  A    between atoms: C_6  and  C_26
    7  A    between atoms: C_8  and  C_19
    8  A    between atoms: C_8  and  C_22
    9  A    between atoms: C_9  and  C_40
   10  A    between atoms: C_9  and  C_45
   11  A    between atoms: C_10  and  C_20
   12  A    between atoms: N_12  and  C_24
   13  A    between atoms: N_12  and  C_31
   14  A    between atoms: C_23  and  C_28
   15  A    between atoms: C_23  and  C_46
   16  A    between atoms: C_26  and  C_35
   17  A    between atoms: C_29  and  C_38
   18  A    between atoms: C_31  and  C_38
   19  A    between atoms: C_35  and  C_41
   20  A    between atoms: C_40  and  C_46
                            x       y       z     vdW  Elec       q    Type
                         _______ _______ _______ _____ _____    ______ ____

>  <TORSDO>
F 20

$$$$
=
 OpenBabel11062413233D

 46 50  0  0  1  0  0  0  0  0999 V2000
  184.5160  178.2860  138.8920 C   0  0  2  0  0  3  0  0  0  0  0  0
  182.7820  178.5350  142.1060 C   0  0  0  0  0  0  0  0  0  0  0  0
  181.7430  178.5230  141.2750 C   0  0  0  0  0  0  0  0  0  0  0  0
  185.9480  178.3670  139.3950 C   0  0  0  0  0  3  0  0  0  0  0  0
  184.1960  179.7500  143.7490 C   0  0  0  0  0  2  0  0  0  0  0  0
  186.2510  178.5300  140.7030 C   0  0  0  0  0  0  0  0  0  0  0  0
  185.3880  178.9430  143.1630 C   0  0  0  0  0  2  0  0  0  0  0  0
  180.3890  179.0520  141.5980 C   0  0  0  0  0  1  0  0  0  0  0  0
  183.5830  178.0010  139.9870 N   0  0  0  0  0  0  0  0  0  0  0  0
  182.8880  179.1980  143.3640 N   0  0  0  0  0  2  0  0  0  0  0  0
  183.9460  178.2440  141.3280 C   0  0  0  0  0  0  0  0  0  0  0  0
  182.1900  178.1850  139.9480 N   0  0  0  0  0  0  0  0  0  0  0  0
  185.1700  178.5680  141.7130 C   0  0  0  0  0  0  0  0  0  0  0  0
  184.3840  177.2780  137.7880 C   0  0  0  0  0  0  0  0  0  0  0  0
  183.8460  176.0770  138.0070 C   0  0  0  0  0  2  0  0  0  0  0  0
  184.9380  177.5940  136.4410 C   0  0  0  0  0  1  0  0  0  0  0  0
  187.6130  178.6400  141.1350 N   0  0  0  0  0  2  0  0  0  0  0  0
  188.4160  177.5210  141.6310 C   0  0  2  0  0  3  0  0  0  0  0  0
  189.3570  177.8830  142.8060 C   0  0  2  0  0  3  0  0  0  0  0  0
  190.1710  176.6980  143.3030 C   0  0  0  0  0  2  0  0  0  0  0  0
  188.9870  177.1780  144.1020 C   0  0  1  0  0  3  0  0  0  0  0  0
  189.4590  178.0210  145.2690 C   0  0  0  0  0  2  0  0  0  0  0  0
  189.4390  177.1990  146.5460 C   0  0  0  0  0  2  0  0  0  0  0  0
  188.9360  178.0300  147.7120 C   0  0  0  0  0  2  0  0  0  0  0  0
  187.4660  177.7510  147.9510 C   0  0  0  0  0  2  0  0  0  0  0  0
  185.3410  178.4280  146.9550 C   0  0  0  0  0  2  0  0  0  0  0  0
  186.6350  178.6700  147.1250 C   0  0  0  0  0  3  0  0  0  0  0  0
  189.0570  176.7260  140.4880 C   0  0  0  0  0  2  0  0  0  0  0  0
  190.9670  176.5010  138.9330 C   0  0  1  0  0  3  0  0  0  0  0  0
  190.2790  177.4280  139.9150 C   0  0  1  0  0  3  0  0  0  0  0  0
  190.0850  177.6240  138.4290 C   0  0  0  0  0  2  0  0  0  0  0  0
  192.4170  176.9180  138.8130 C   0  0  0  0  0  2  0  0  0  0  0  0
  193.0680  176.1690  137.6710 C   0  0  0  0  0  1  0  0  0  0  0  0
  181.4440  178.4450  138.7250 C   0  0  0  0  0  2  0  0  0  0  0  0
  181.8450  180.7770  139.1010 O   0  0  0  0  0  1  0  0  0  0  0  0
  181.8650  179.7820  138.1210 C   0  0  2  0  0  3  0  0  0  0  0  0
  180.9870  180.1970  136.9340 C   0  0  1  0  0  3  0  0  0  0  0  0
  179.8780  179.4730  134.9280 O   0  0  0  0  0  1  0  0  0  0  0  0
  181.8300  178.4550  135.5020 F   0  0  0  0  0  0  0  0  0  0  0  0
  180.6710  179.0350  135.9910 C   0  0  1  0  0  3  0  0  0  0  0  0
  179.7090  180.9110  137.3730 C   0  0  0  0  0  2  0  0  0  0  0  0
  179.6830  182.3480  136.8780 C   0  0  0  0  0  2  0  0  0  0  0  0
  180.9340  182.6750  136.0820 C   0  0  0  0  0  2  0  0  0  0  0  0
  181.7100  184.7690  136.9100 O   0  0  0  0  0  0  0  0  0  0  0  0
  180.6090  184.8610  134.8680 N   0  0  0  0  0  1  0  0  0  0  0  0
  181.1040  184.1500  135.9950 C   0  0  0  0  0  0  0  0  0  0  0  0
  1 14  1  6  0  0  0
  1  4  1  0  0  0  0
  1  9  1  0  0  0  0
  2 10  1  0  0  0  0
  3  8  1  0  0  0  0
  3  2  2  0  0  0  0
  4  6  2  0  0  0  0
  6 17  1  0  0  0  0
  6 13  1  0  0  0  0
  7  5  1  0  0  0  0
  9 11  1  0  0  0  0
 10  5  1  0  0  0  0
 11 13  2  0  0  0  0
 11  2  1  0  0  0  0
 12  9  1  0  0  0  0
 12  3  1  0  0  0  0
 13  7  1  0  0  0  0
 14 15  2  0  0  0  0
 16 14  1  0  0  0  0
 17 18  1  0  0  0  0
 18 28  1  6  0  0  0
 19 18  1  6  0  0  0
 19 20  1  0  0  0  0
 19 21  1  0  0  0  0
 20 21  1  0  0  0  0
 21 22  1  1  0  0  0
 22 23  1  0  0  0  0
 23 24  1  0  0  0  0
 24 25  1  0  0  0  0
 26 27  2  0  0  0  0
 27 25  1  0  0  0  0
 29 32  1  6  0  0  0
 29 30  1  0  0  0  0
 30 28  1  1  0  0  0
 31 29  1  0  0  0  0
 31 30  1  0  0  0  0
 33 32  1  0  0  0  0
 34 12  1  0  0  0  0
 36 34  1  0  0  0  0
 36 35  1  1  0  0  0
 37 41  1  1  0  0  0
 37 36  1  0  0  0  0
 39 40  1  0  0  0  0
 40 38  1  6  0  0  0
 40 37  1  0  0  0  0
 42 41  1  0  0  0  0
 43 42  1  0  0  0  0
 45 46  1  0  0  0  0
 46 43  1  0  0  0  0
 46 44  2  0  0  0  0
M  END
>  <MODEL>
6

>  <REMARK>
 VINA RESULT:      -6.7      4.756     10.464
  Name = 
  20 active torsions:
  status: ('A' for Active; 'I' for Inactive)
    1  A    between atoms: C_1  and  C_22
    2  A    between atoms: C_1  and  N_42
    3  A    between atoms: C_2  and  C_25
    4  A    between atoms: C_4  and  C_31
    5  A    between atoms: C_6  and  C_8
    6  A    between atoms: C_6  and  C_26
    7  A    between atoms: C_8  and  C_19
    8  A    between atoms: C_8  and  C_22
    9  A    between atoms: C_9  and  C_40
   10  A    between atoms: C_9  and  C_45
   11  A    between atoms: C_10  and  C_20
   12  A    between atoms: N_12  and  C_24
   13  A    between atoms: N_12  and  C_31
   14  A    between atoms: C_23  and  C_28
   15  A    between atoms: C_23  and  C_46
   16  A    between atoms: C_26  and  C_35
   17  A    between atoms: C_29  and  C_38
   18  A    between atoms: C_31  and  C_38
   19  A    between atoms: C_35  and  C_41
   20  A    between atoms: C_40  and  C_46
                            x       y       z     vdW  Elec       q    Type
                         _______ _______ _______ _____ _____    ______ ____

>  <TORSDO>
F 20

$$$$
=
 OpenBabel11062413233D

 46 50  0  0  1  0  0  0  0  0999 V2000
  184.3330  178.5200  139.4250 C   0  0  2  0  0  3  0  0  0  0  0  0
  187.8780  177.8820  138.7770 C   0  0  0  0  0  0  0  0  0  0  0  0
  187.3530  177.5070  137.6140 C   0  0  0  0  0  0  0  0  0  0  0  0
  184.4370  178.9430  140.8810 C   0  0  0  0  0  3  0  0  0  0  0  0
  189.0420  177.2890  140.8910 C   0  0  0  0  0  2  0  0  0  0  0  0
  185.6110  178.9580  141.5520 C   0  0  0  0  0  0  0  0  0  0  0  0
  188.1940  178.4130  141.5510 C   0  0  0  0  0  2  0  0  0  0  0  0
  188.0000  176.5780  136.6470 C   0  0  0  0  0  1  0  0  0  0  0  0
  185.6460  178.5380  138.7710 N   0  0  0  0  0  0  0  0  0  0  0  0
  189.0380  177.3580  139.4220 N   0  0  0  0  0  2  0  0  0  0  0  0
  186.8330  178.5000  139.5320 C   0  0  0  0  0  0  0  0  0  0  0  0
  185.9680  177.9030  137.5590 N   0  0  0  0  0  0  0  0  0  0  0  0
  186.8680  178.6180  140.8490 C   0  0  0  0  0  0  0  0  0  0  0  0
  183.3430  179.3690  138.6820 C   0  0  0  0  0  0  0  0  0  0  0  0
  183.4210  180.7020  138.7010 C   0  0  0  0  0  2  0  0  0  0  0  0
  182.2050  178.7150  137.9770 C   0  0  0  0  0  1  0  0  0  0  0  0
  185.6640  179.3260  142.9360 N   0  0  0  0  0  2  0  0  0  0  0  0
  184.7070  178.8750  143.9480 C   0  0  2  0  0  3  0  0  0  0  0  0
  185.3140  177.9520  145.0320 C   0  0  2  0  0  3  0  0  0  0  0  0
  184.7870  178.2490  146.4290 C   0  0  0  0  0  2  0  0  0  0  0  0
  186.1710  178.7040  146.0410 C   0  0  1  0  0  3  0  0  0  0  0  0
  187.2050  177.7530  146.6080 C   0  0  0  0  0  2  0  0  0  0  0  0
  187.6960  178.2610  147.9520 C   0  0  0  0  0  2  0  0  0  0  0  0
  189.1430  177.8640  148.1810 C   0  0  0  0  0  2  0  0  0  0  0  0
  189.5800  176.8730  147.1230 C   0  0  0  0  0  2  0  0  0  0  0  0
  191.6780  176.3350  145.9940 C   0  0  0  0  0  2  0  0  0  0  0  0
  190.9280  177.2410  146.6090 C   0  0  0  0  0  3  0  0  0  0  0  0
  183.3960  178.3890  143.3200 C   0  0  0  0  0  2  0  0  0  0  0  0
  181.0660  178.9860  142.7460 C   0  0  1  0  0  3  0  0  0  0  0  0
  182.2190  179.2810  143.6840 C   0  0  1  0  0  3  0  0  0  0  0  0
  181.0690  178.4170  144.1490 C   0  0  0  0  0  2  0  0  0  0  0  0
  180.1580  180.1970  142.7040 C   0  0  0  0  0  2  0  0  0  0  0  0
  179.4900  180.2850  141.3500 C   0  0  0  0  0  1  0  0  0  0  0  0
  184.9760  177.3470  136.6500 C   0  0  0  0  0  2  0  0  0  0  0  0
  185.1510  175.0240  136.0900 O   0  0  0  0  0  1  0  0  0  0  0  0
  184.6430  175.9110  137.0420 C   0  0  2  0  0  3  0  0  0  0  0  0
  183.1370  175.6820  137.2200 C   0  0  1  0  0  3  0  0  0  0  0  0
  182.1010  173.7510  136.2320 O   0  0  0  0  0  1  0  0  0  0  0  0
  181.3700  175.8080  135.5900 F   0  0  0  0  0  0  0  0  0  0  0  0
  182.4760  175.0730  135.9820 C   0  0  1  0  0  3  0  0  0  0  0  0
  182.8120  174.8670  138.4720 C   0  0  0  0  0  2  0  0  0  0  0  0
  182.0490  175.7010  139.4890 C   0  0  0  0  0  2  0  0  0  0  0  0
  180.6760  175.1120  139.7590 C   0  0  0  0  0  2  0  0  0  0  0  0
  179.2070  175.5330  137.9330 O   0  0  0  0  0  0  0  0  0  0  0  0
  179.1110  177.0870  139.6560 N   0  0  0  0  0  1  0  0  0  0  0  0
  179.6380  175.9110  139.0550 C   0  0  0  0  0  0  0  0  0  0  0  0
  1 14  1  6  0  0  0
  1  4  1  0  0  0  0
  2 10  1  0  0  0  0
  2 11  1  0  0  0  0
  3  2  2  0  0  0  0
  4  6  2  0  0  0  0
  5  7  1  0  0  0  0
  6 17  1  0  0  0  0
  8  3  1  0  0  0  0
  9  1  1  0  0  0  0
  9 11  1  0  0  0  0
 10  5  1  0  0  0  0
 11 13  2  0  0  0  0
 12  3  1  0  0  0  0
 12  9  1  0  0  0  0
 13  7  1  0  0  0  0
 13  6  1  0  0  0  0
 14 15  2  0  0  0  0
 16 14  1  0  0  0  0
 17 18  1  0  0  0  0
 18 28  1  6  0  0  0
 19 18  1  6  0  0  0
 19 21  1  0  0  0  0
 19 20  1  0  0  0  0
 21 20  1  0  0  0  0
 21 22  1  1  0  0  0
 22 23  1  0  0  0  0
 23 24  1  0  0  0  0
 25 24  1  0  0  0  0
 26 27  2  0  0  0  0
 27 25  1  0  0  0  0
 29 32  1  1  0  0  0
 29 30  1  0  0  0  0
 29 31  1  0  0  0  0
 30 28  1  6  0  0  0
 30 31  1  0  0  0  0
 33 32  1  0  0  0  0
 34 36  1  0  0  0  0
 34 12  1  0  0  0  0
 36 35  1  6  0  0  0
 36 37  1  0  0  0  0
 37 41  1  1  0  0  0
 40 39  1  1  0  0  0
 40 38  1  0  0  0  0
 40 37  1  0  0  0  0
 41 42  1  0  0  0  0
 42 43  1  0  0  0  0
 44 46  2  0  0  0  0
 46 45  1  0  0  0  0
 46 43  1  0  0  0  0
M  END
>  <MODEL>
7

>  <REMARK>
 VINA RESULT:      -6.4      4.172      8.567
  Name = 
  20 active torsions:
  status: ('A' for Active; 'I' for Inactive)
    1  A    between atoms: C_1  and  C_22
    2  A    between atoms: C_1  and  N_42
    3  A    between atoms: C_2  and  C_25
    4  A    between atoms: C_4  and  C_31
    5  A    between atoms: C_6  and  C_8
    6  A    between atoms: C_6  and  C_26
    7  A    between atoms: C_8  and  C_19
    8  A    between atoms: C_8  and  C_22
    9  A    between atoms: C_9  and  C_40
   10  A    between atoms: C_9  and  C_45
   11  A    between atoms: C_10  and  C_20
   12  A    between atoms: N_12  and  C_24
   13  A    between atoms: N_12  and  C_31
   14  A    between atoms: C_23  and  C_28
   15  A    between atoms: C_23  and  C_46
   16  A    between atoms: C_26  and  C_35
   17  A    between atoms: C_29  and  C_38
   18  A    between atoms: C_31  and  C_38
   19  A    between atoms: C_35  and  C_41
   20  A    between atoms: C_40  and  C_46
                            x       y       z     vdW  Elec       q    Type
                         _______ _______ _______ _____ _____    ______ ____

>  <TORSDO>
F 20

$$$$
=
 OpenBabel11062413233D

 46 50  0  0  1  0  0  0  0  0999 V2000
  184.0720  178.2880  138.3140 C   0  0  2  0  0  3  0  0  0  0  0  0
  182.1610  178.2140  141.4340 C   0  0  0  0  0  0  0  0  0  0  0  0
  181.1760  178.0890  140.5490 C   0  0  0  0  0  0  0  0  0  0  0  0
  185.4540  178.5420  138.8960 C   0  0  0  0  0  3  0  0  0  0  0  0
  183.3160  179.5560  143.1780 C   0  0  0  0  0  2  0  0  0  0  0  0
  185.6660  178.7060  140.2210 C   0  0  0  0  0  0  0  0  0  0  0  0
  184.6330  178.9300  142.6400 C   0  0  0  0  0  2  0  0  0  0  0  0
  179.7490  178.4260  140.8100 C   0  0  0  0  0  1  0  0  0  0  0  0
  183.1310  177.8510  139.3510 N   0  0  0  0  0  0  0  0  0  0  0  0
  182.1140  178.8480  142.7110 N   0  0  0  0  0  2  0  0  0  0  0  0
  183.3910  178.1010  140.7150 C   0  0  0  0  0  0  0  0  0  0  0  0
  181.7300  177.8510  139.2410 N   0  0  0  0  0  0  0  0  0  0  0  0
  184.5400  178.5720  141.1710 C   0  0  0  0  0  0  0  0  0  0  0  0
  184.1320  177.3040  137.1830 C   0  0  0  0  0  0  0  0  0  0  0  0
  184.6870  176.1000  137.3400 C   0  0  0  0  0  2  0  0  0  0  0  0
  183.6330  177.7060  135.8380 C   0  0  0  0  0  1  0  0  0  0  0  0
  186.9770  178.9810  140.7280 N   0  0  0  0  0  2  0  0  0  0  0  0
  188.0850  178.0240  140.7180 C   0  0  2  0  0  3  0  0  0  0  0  0
  188.7610  177.8180  142.0960 C   0  0  2  0  0  3  0  0  0  0  0  0
  189.5470  176.5180  142.1840 C   0  0  0  0  0  2  0  0  0  0  0  0
  188.2040  176.6250  142.8580 C   0  0  1  0  0  3  0  0  0  0  0  0
  188.3880  176.8640  144.3420 C   0  0  0  0  0  2  0  0  0  0  0  0
  187.1450  177.5170  144.9220 C   0  0  0  0  0  2  0  0  0  0  0  0
  187.1660  177.4610  146.4390 C   0  0  0  0  0  2  0  0  0  0  0  0
  188.5650  177.1430  146.9250 C   0  0  0  0  0  2  0  0  0  0  0  0
  188.2680  178.6280  148.8410 C   0  0  0  0  0  2  0  0  0  0  0  0
  188.6800  177.4550  148.3760 C   0  0  0  0  0  3  0  0  0  0  0  0
  189.0370  178.2630  139.5410 C   0  0  0  0  0  2  0  0  0  0  0  0
  189.6490  177.5640  137.2480 C   0  0  1  0  0  3  0  0  0  0  0  0
  189.0340  177.1040  138.5560 C   0  0  1  0  0  3  0  0  0  0  0  0
  190.4610  176.7350  138.2220 C   0  0  0  0  0  2  0  0  0  0  0  0
  189.1420  176.6690  136.1370 C   0  0  0  0  0  2  0  0  0  0  0  0
  188.1600  177.4330  135.2770 C   0  0  0  0  0  1  0  0  0  0  0  0
  181.0190  178.0470  137.9850 C   0  0  0  0  0  2  0  0  0  0  0  0
  178.9470  176.8440  137.9520 O   0  0  0  0  0  1  0  0  0  0  0  0
  180.2920  176.7670  137.5830 C   0  0  2  0  0  3  0  0  0  0  0  0
  180.9300  175.5100  138.1880 C   0  0  1  0  0  3  0  0  0  0  0  0
  179.5420  173.6720  138.8750 O   0  0  0  0  0  1  0  0  0  0  0  0
  180.8290  174.6910  140.4490 F   0  0  0  0  0  0  0  0  0  0  0  0
  180.0830  174.8870  139.2990 C   0  0  1  0  0  3  0  0  0  0  0  0
  181.2950  174.4710  137.1280 C   0  0  0  0  0  2  0  0  0  0  0  0
  182.4230  173.5700  137.6060 C   0  0  0  0  0  2  0  0  0  0  0  0
  183.0820  172.8530  136.4410 C   0  0  0  0  0  2  0  0  0  0  0  0
  184.8800  172.6500  137.9880 O   0  0  0  0  0  0  0  0  0  0  0  0
  185.2660  171.7160  135.8970 N   0  0  0  0  0  1  0  0  0  0  0  0
  184.4500  172.4180  136.8270 C   0  0  0  0  0  0  0  0  0  0  0  0
  1 14  1  6  0  0  0
  1  4  1  0  0  0  0
  1  9  1  0  0  0  0
  2 10  1  0  0  0  0
  3  8  1  0  0  0  0
  3  2  2  0  0  0  0
  4  6  2  0  0  0  0
  6 17  1  0  0  0  0
  6 13  1  0  0  0  0
  7  5  1  0  0  0  0
  9 11  1  0  0  0  0
 10  5  1  0  0  0  0
 11 13  2  0  0  0  0
 11  2  1  0  0  0  0
 12  9  1  0  0  0  0
 12  3  1  0  0  0  0
 13  7  1  0  0  0  0
 14 15  2  0  0  0  0
 16 14  1  0  0  0  0
 18 28  1  6  0  0  0
 18 17  1  0  0  0  0
 19 18  1  6  0  0  0
 19 20  1  0  0  0  0
 19 21  1  0  0  0  0
 20 21  1  0  0  0  0
 21 22  1  1  0  0  0
 22 23  1  0  0  0  0
 23 24  1  0  0  0  0
 24 25  1  0  0  0  0
 25 27  1  0  0  0  0
 27 26  2  0  0  0  0
 29 32  1  6  0  0  0
 29 31  1  0  0  0  0
 29 30  1  0  0  0  0
 30 28  1  1  0  0  0
 31 30  1  0  0  0  0
 33 32  1  0  0  0  0
 34 12  1  0  0  0  0
 36 35  1  1  0  0  0
 36 34  1  0  0  0  0
 36 37  1  0  0  0  0
 37 41  1  6  0  0  0
 37 40  1  0  0  0  0
 40 38  1  6  0  0  0
 40 39  1  0  0  0  0
 41 42  1  0  0  0  0
 43 46  1  0  0  0  0
 43 42  1  0  0  0  0
 45 46  1  0  0  0  0
 46 44  2  0  0  0  0
M  END
>  <MODEL>
8

>  <REMARK>
 VINA RESULT:      -6.2      3.937      9.847
  Name = 
  20 active torsions:
  status: ('A' for Active; 'I' for Inactive)
    1  A    between atoms: C_1  and  C_22
    2  A    between atoms: C_1  and  N_42
    3  A    between atoms: C_2  and  C_25
    4  A    between atoms: C_4  and  C_31
    5  A    between atoms: C_6  and  C_8
    6  A    between atoms: C_6  and  C_26
    7  A    between atoms: C_8  and  C_19
    8  A    between atoms: C_8  and  C_22
    9  A    between atoms: C_9  and  C_40
   10  A    between atoms: C_9  and  C_45
   11  A    between atoms: C_10  and  C_20
   12  A    between atoms: N_12  and  C_24
   13  A    between atoms: N_12  and  C_31
   14  A    between atoms: C_23  and  C_28
   15  A    between atoms: C_23  and  C_46
   16  A    between atoms: C_26  and  C_35
   17  A    between atoms: C_29  and  C_38
   18  A    between atoms: C_31  and  C_38
   19  A    between atoms: C_35  and  C_41
   20  A    between atoms: C_40  and  C_46
                            x       y       z     vdW  Elec       q    Type
                         _______ _______ _______ _____ _____    ______ ____

>  <TORSDO>
F 20

$$$$
=
 OpenBabel11062413233D

 46 50  0  0  1  0  0  0  0  0999 V2000
  185.1700  177.8930  139.4090 C   0  0  2  0  0  3  0  0  0  0  0  0
  185.7510  176.9290  135.9250 C   0  0  0  0  0  0  0  0  0  0  0  0
  184.4590  176.6390  136.0400 C   0  0  0  0  0  0  0  0  0  0  0  0
  186.5960  178.2640  139.7860 C   0  0  0  0  0  3  0  0  0  0  0  0
  188.0990  176.1690  135.6280 C   0  0  0  0  0  2  0  0  0  0  0  0
  187.6310  178.1460  138.9240 C   0  0  0  0  0  0  0  0  0  0  0  0
  188.4900  177.3510  136.5580 C   0  0  0  0  0  2  0  0  0  0  0  0
  183.7210  175.6780  135.1730 C   0  0  0  0  0  1  0  0  0  0  0  0
  185.0140  177.8000  137.9530 N   0  0  0  0  0  0  0  0  0  0  0  0
  186.7250  176.2770  135.1120 N   0  0  0  0  0  2  0  0  0  0  0  0
  186.1340  177.6260  137.1140 C   0  0  0  0  0  0  0  0  0  0  0  0
  183.9520  177.1700  137.2800 N   0  0  0  0  0  0  0  0  0  0  0  0
  187.3870  177.7040  137.5330 C   0  0  0  0  0  0  0  0  0  0  0  0
  184.1830  178.8550  140.0030 C   0  0  0  0  0  0  0  0  0  0  0  0
  183.6350  178.6340  141.2000 C   0  0  0  0  0  2  0  0  0  0  0  0
  183.7470  180.0360  139.2070 C   0  0  0  0  0  1  0  0  0  0  0  0
  188.9660  178.4690  139.3280 N   0  0  0  0  0  2  0  0  0  0  0  0
  189.8740  177.5400  140.0050 C   0  0  2  0  0  3  0  0  0  0  0  0
  189.9110  177.6920  141.5450 C   0  0  2  0  0  3  0  0  0  0  0  0
  190.6820  176.5760  142.2340 C   0  0  0  0  0  2  0  0  0  0  0  0
  189.1750  176.5750  142.2690 C   0  0  1  0  0  3  0  0  0  0  0  0
  188.6900  177.0960  143.6060 C   0  0  0  0  0  2  0  0  0  0  0  0
  187.2210  176.7560  143.7940 C   0  0  0  0  0  2  0  0  0  0  0  0
  186.4160  178.0060  144.1040 C   0  0  0  0  0  2  0  0  0  0  0  0
  186.1320  178.0820  145.5900 C   0  0  0  0  0  2  0  0  0  0  0  0
  183.9020  178.9310  145.0720 C   0  0  0  0  0  2  0  0  0  0  0  0
  184.9820  178.9940  145.8400 C   0  0  0  0  0  3  0  0  0  0  0  0
  191.2390  177.4680  139.3120 C   0  0  0  0  0  2  0  0  0  0  0  0
  191.9920  176.3760  137.2240 C   0  0  1  0  0  3  0  0  0  0  0  0
  191.4640  176.1300  138.6240 C   0  0  1  0  0  3  0  0  0  0  0  0
  192.9380  175.9650  138.3330 C   0  0  0  0  0  2  0  0  0  0  0  0
  191.6740  175.1670  136.3700 C   0  0  0  0  0  2  0  0  0  0  0  0
  192.2660  175.3490  134.9900 C   0  0  0  0  0  1  0  0  0  0  0  0
  182.7250  176.7390  137.9330 C   0  0  0  0  0  2  0  0  0  0  0  0
  181.7940  178.6780  136.8790 O   0  0  0  0  0  1  0  0  0  0  0  0
  181.5120  177.3600  137.2470 C   0  0  2  0  0  3  0  0  0  0  0  0
  180.2520  177.3180  138.1200 C   0  0  1  0  0  3  0  0  0  0  0  0
  179.6990  175.4230  136.7490 O   0  0  0  0  0  1  0  0  0  0  0  0
  179.8770  175.1070  138.9940 F   0  0  0  0  0  0  0  0  0  0  0  0
  179.4910  175.9960  138.0050 C   0  0  1  0  0  3  0  0  0  0  0  0
  180.5410  177.6590  139.5820 C   0  0  0  0  0  2  0  0  0  0  0  0
  179.5550  178.6870  140.1120 C   0  0  0  0  0  2  0  0  0  0  0  0
  179.1830  178.3950  141.5560 C   0  0  0  0  0  2  0  0  0  0  0  0
  180.0650  180.4990  142.2360 O   0  0  0  0  0  0  0  0  0  0  0  0
  180.6110  178.7080  143.6100 N   0  0  0  0  0  1  0  0  0  0  0  0
  179.9760  179.2640  142.4660 C   0  0  0  0  0  0  0  0  0  0  0  0
  1  4  1  0  0  0  0
  1 14  1  6  0  0  0
  2  3  2  0  0  0  0
  2 11  1  0  0  0  0
  3 12  1  0  0  0  0
  5  7  1  0  0  0  0
  6 17  1  0  0  0  0
  6  4  2  0  0  0  0
  7 13  1  0  0  0  0
  8  3  1  0  0  0  0
  9  1  1  0  0  0  0
 10  5  1  0  0  0  0
 10  2  1  0  0  0  0
 11 13  2  0  0  0  0
 11  9  1  0  0  0  0
 12 34  1  0  0  0  0
 12  9  1  0  0  0  0
 13  6  1  0  0  0  0
 14 15  2  0  0  0  0
 16 14  1  0  0  0  0
 17 18  1  0  0  0  0
 18 28  1  6  0  0  0
 19 18  1  6  0  0  0
 19 20  1  0  0  0  0
 19 21  1  0  0  0  0
 20 21  1  0  0  0  0
 21 22  1  1  0  0  0
 22 23  1  0  0  0  0
 23 24  1  0  0  0  0
 24 25  1  0  0  0  0
 25 27  1  0  0  0  0
 26 27  2  0  0  0  0
 29 32  1  6  0  0  0
 29 31  1  0  0  0  0
 29 30  1  0  0  0  0
 30 28  1  1  0  0  0
 31 30  1  0  0  0  0
 33 32  1  0  0  0  0
 36 35  1  1  0  0  0
 36 34  1  0  0  0  0
 36 37  1  0  0  0  0
 37 41  1  1  0  0  0
 40 38  1  6  0  0  0
 40 37  1  0  0  0  0
 40 39  1  0  0  0  0
 41 42  1  0  0  0  0
 42 43  1  0  0  0  0
 43 46  1  0  0  0  0
 44 46  2  0  0  0  0
 46 45  1  0  0  0  0
M  END
>  <MODEL>
9

>  <REMARK>
 VINA RESULT:      -6.2      4.313      9.123
  Name = 
  20 active torsions:
  status: ('A' for Active; 'I' for Inactive)
    1  A    between atoms: C_1  and  C_22
    2  A    between atoms: C_1  and  N_42
    3  A    between atoms: C_2  and  C_25
    4  A    between atoms: C_4  and  C_31
    5  A    between atoms: C_6  and  C_8
    6  A    between atoms: C_6  and  C_26
    7  A    between atoms: C_8  and  C_19
    8  A    between atoms: C_8  and  C_22
    9  A    between atoms: C_9  and  C_40
   10  A    between atoms: C_9  and  C_45
   11  A    between atoms: C_10  and  C_20
   12  A    between atoms: N_12  and  C_24
   13  A    between atoms: N_12  and  C_31
   14  A    between atoms: C_23  and  C_28
   15  A    between atoms: C_23  and  C_46
   16  A    between atoms: C_26  and  C_35
   17  A    between atoms: C_29  and  C_38
   18  A    between atoms: C_31  and  C_38
   19  A    between atoms: C_35  and  C_41
   20  A    between atoms: C_40  and  C_46
                            x       y       z     vdW  Elec       q    Type
                         _______ _______ _______ _____ _____    ______ ____

>  <TORSDO>
F 20

$$$$
