=
 OpenBabel11062417293D

 47 52  0  0  1  0  0  0  0  0999 V2000
  187.4850  175.5360  137.1400 C   0  0  0  0  0  2  0  0  0  0  0  0
  187.4640  176.7860  136.2650 C   0  0  2  0  0  0  0  0  0  0  0  0
  180.9760  174.5620  137.9640 C   0  0  0  0  0  1  0  0  0  0  0  0
  188.5560  177.7770  136.5930 C   0  0  0  0  0  2  0  0  0  0  0  0
  182.9900  176.1140  139.5780 C   0  0  0  0  0  1  0  0  0  0  0  0
  186.2450  174.6790  136.9260 C   0  0  0  0  0  2  0  0  0  0  0  0
  184.0270  174.6880  135.1050 C   0  0  0  0  0  2  0  0  0  0  0  0
  181.1880  174.6010  134.8510 C   0  0  0  0  0  1  0  0  0  0  0  0
  184.6640  178.3790  139.5590 C   0  0  0  0  0  2  0  0  0  0  0  0
  187.0890  178.1600  136.8170 C   0  0  2  0  0  3  0  0  0  0  0  0
  186.6500  178.1030  138.3040 C   0  0  2  0  0  3  0  0  0  0  0  0
  185.0450  173.5500  135.3250 C   0  0  1  0  0  3  0  0  0  0  0  0
  185.4980  178.9820  138.5340 N   0  0  1  0  0  0  0  0  0  0  0  0
  183.0210  176.9070  138.3390 N   0  0  0  0  0  0  0  0  0  0  0  0
  183.1980  174.8250  136.2280 O   0  0  0  0  0  0  0  0  0  0  0  0
  181.1530  175.7760  137.0490 C   0  0  1  0  0  3  0  0  0  0  0  0
  186.3270  174.0210  135.6850 O   0  0  0  0  0  0  0  0  0  0  0  0
  187.2940  176.6310  134.8890 O   0  0  0  0  0  1  0  0  0  0  0  0
  183.4580  178.2760  138.6380 C   0  0  2  0  0  3  0  0  0  0  0  0
  181.6510  177.0240  137.7870 C   0  0  1  0  0  3  0  0  0  0  0  0
  184.4180  178.7690  137.5790 C   0  0  0  0  0  2  0  0  0  0  0  0
  182.0120  175.4570  135.8180 C   0  0  2  0  0  3  0  0  0  0  0  0
  180.6140  177.5440  138.7850 C   0  0  0  0  0  1  0  0  0  0  0  0
  184.6080  172.3430  136.1820 C   0  0  0  0  0  2  0  0  0  0  0  0
  183.8000  171.2980  135.4280 C   0  0  2  0  0  3  0  0  0  0  0  0
  182.4240  171.3160  135.8630 N   0  0  0  0  0  0  0  0  0  0  0  0
  183.3260  170.3470  136.2760 O   0  0  0  0  0  0  0  0  0  0  0  0
  181.7060  170.7770  134.8450 O   0  0  0  0  0  0  0  0  0  0  0  0
  180.8070  169.9100  135.4690 C   0  0  0  0  0  2  0  0  0  0  0  0
  179.2470  171.6350  134.9130 O   0  0  0  0  0  1  0  0  0  0  0  0
  179.6540  171.2070  137.1170 O   0  0  0  0  0  1  0  0  0  0  0  0
  179.5270  170.6400  135.8510 C   0  0  0  0  0  3  0  0  0  0  0  0
  187.7290  178.5710  139.1650 N   0  0  0  0  0  2  0  0  0  0  0  0
  188.0850  177.5170  140.1060 C   0  0  0  0  0  2  0  0  0  0  0  0
  188.6160  178.2940  141.7270 P   0  0  1  0  0  0  0  0  0  0  0  0
  187.5360  177.3470  142.7120 O   0  0  0  0  0  0  0  0  0  0  0  0
  188.2300  177.0650  143.8970 C   0  0  2  0  0  3  0  0  0  0  0  0
  185.9550  178.5790  147.2140 C   0  0  0  0  0  3  0  0  0  0  0  0
  187.2650  178.1370  147.4150 C   0  0  0  0  0  3  0  0  0  0  0  0
  186.0950  177.9580  144.8760 C   0  0  0  0  0  3  0  0  0  0  0  0
  185.3630  178.4770  145.9520 C   0  0  0  0  0  0  0  0  0  0  0  0
  187.9890  177.6110  146.3440 C   0  0  0  0  0  3  0  0  0  0  0  0
  187.4090  177.5180  145.0710 C   0  0  0  0  0  0  0  0  0  0  0  0
  184.0390  178.9520  145.7490 N   0  0  0  0  0  1  0  0  0  0  0  0
  189.8720  177.9790  143.8970 P   0  0  1  0  0  0  0  0  0  0  0  0
  190.9230  176.4810  144.2680 C   0  0  0  0  0  2  0  0  0  0  0  0
  191.5480  176.6050  145.6450 C   0  0  0  0  0  1  0  0  0  0  0  0
  2 18  1  6  0  0  0
  2  4  1  0  0  0  0
  2 10  1  0  0  0  0
  2  1  1  0  0  0  0
  6  1  1  0  0  0  0
  7 12  1  0  0  0  0
  7 15  1  0  0  0  0
 10  4  1  1  0  0  0
 10 11  1  0  0  0  0
 11 13  1  0  0  0  0
 11 33  1  1  0  0  0
 12 17  1  0  0  0  0
 12 24  1  1  0  0  0
 13 21  1  6  0  0  0
 13  9  1  0  0  0  0
 14 19  1  0  0  0  0
 14  5  1  0  0  0  0
 16 20  1  0  0  0  0
 16  3  1  1  0  0  0
 17  6  1  0  0  0  0
 19 21  1  6  0  0  0
 19  9  1  0  0  0  0
 20 14  1  0  0  0  0
 20 23  1  1  0  0  0
 22  8  1  6  0  0  0
 22 15  1  0  0  0  0
 22 16  1  0  0  0  0
 25 26  1  0  0  0  0
 25 24  1  1  0  0  0
 25 27  1  0  0  0  0
 26 27  1  0  0  0  0
 28 29  1  0  0  0  0
 28 26  1  0  0  0  0
 29 32  1  0  0  0  0
 30 32  1  0  0  0  0
 32 31  1  0  0  0  0
 33 34  1  0  0  0  0
 35 34  1  6  0  0  0
 35 36  1  0  0  0  0
 35 45  1  0  0  0  0
 36 37  1  0  0  0  0
 37 45  1  0  0  0  0
 37 43  1  1  0  0  0
 38 39  1  0  0  0  0
 40 43  2  0  0  0  0
 40 41  1  0  0  0  0
 41 38  2  0  0  0  0
 42 39  2  0  0  0  0
 43 42  1  0  0  0  0
 44 41  1  0  0  0  0
 45 46  1  6  0  0  0
 46 47  1  0  0  0  0
M  END
>  <MODEL>
1

>  <REMARK>
 VINA RESULT:      -7.0      0.000      0.000
  Name = 
  13 active torsions:
  status: ('A' for Active; 'I' for Inactive)
    1  A    between atoms: C_2  and  C_5
    2  A    between atoms: C_2  and  C_28
    3  A    between atoms: C_12  and  O_36
    4  A    between atoms: C_12  and  C_37
    5  A    between atoms: C_14  and  P_26
    6  A    between atoms: N_15  and  O_36
    7  A    between atoms: C_16  and  N_20
    8  A    between atoms: C_16  and  P_22
    9  A    between atoms: N_20  and  C_25
   10  A    between atoms: P_22  and  O_41
   11  A    between atoms: P_26  and  C_39
   12  A    between atoms: C_39  and  C_40
   13  A    between atoms: C_39  and  O_41
                            x       y       z     vdW  Elec       q    Type
                         _______ _______ _______ _____ _____    ______ ____

>  <TORSDO>
F 13

$$$$
=
 OpenBabel11062417293D

 47 52  0  0  1  0  0  0  0  0999 V2000
  186.3610  175.6690  137.1420 C   0  0  0  0  0  2  0  0  0  0  0  0
  186.2940  176.9330  136.2890 C   0  0  2  0  0  0  0  0  0  0  0  0
  180.1980  175.5730  139.5920 C   0  0  0  0  0  1  0  0  0  0  0  0
  187.5600  177.7560  136.3210 C   0  0  0  0  0  2  0  0  0  0  0  0
  182.7470  176.7930  140.6300 C   0  0  0  0  0  1  0  0  0  0  0  0
  185.0000  174.9960  137.2560 C   0  0  0  0  0  2  0  0  0  0  0  0
  182.4200  175.3550  136.0540 C   0  0  0  0  0  2  0  0  0  0  0  0
  179.6240  175.6640  136.5250 C   0  0  0  0  0  1  0  0  0  0  0  0
  184.6610  178.8080  140.1670 C   0  0  0  0  0  2  0  0  0  0  0  0
  186.2650  178.3300  136.9050 C   0  0  2  0  0  3  0  0  0  0  0  0
  186.2100  178.2950  138.4540 C   0  0  2  0  0  3  0  0  0  0  0  0
  183.2920  174.0840  136.0210 C   0  0  1  0  0  3  0  0  0  0  0  0
  185.2860  179.3180  138.9590 N   0  0  1  0  0  0  0  0  0  0  0  0
  182.5760  177.6070  139.4150 N   0  0  0  0  0  0  0  0  0  0  0  0
  181.9270  175.5750  137.3490 O   0  0  0  0  0  0  0  0  0  0  0  0
  180.3050  176.7750  138.6500 C   0  0  1  0  0  3  0  0  0  0  0  0
  184.6760  174.3650  136.0410 O   0  0  0  0  0  0  0  0  0  0  0  0
  185.7650  176.8380  135.0020 O   0  0  0  0  0  1  0  0  0  0  0  0
  183.2600  178.8950  139.5810 C   0  0  2  0  0  3  0  0  0  0  0  0
  181.1410  177.9230  139.2260 C   0  0  1  0  0  3  0  0  0  0  0  0
  183.9810  179.2790  138.3100 C   0  0  0  0  0  2  0  0  0  0  0  0
  180.7750  176.3730  137.2450 C   0  0  2  0  0  3  0  0  0  0  0  0
  180.4700  178.5540  140.4480 C   0  0  0  0  0  1  0  0  0  0  0  0
  182.9210  172.9250  136.9720 C   0  0  0  0  0  2  0  0  0  0  0  0
  183.9250  171.7820  136.9890 C   0  0  2  0  0  3  0  0  0  0  0  0
  184.0180  171.1760  135.6820 N   0  0  0  0  0  0  0  0  0  0  0  0
  183.3130  170.5960  136.7270 O   0  0  0  0  0  0  0  0  0  0  0  0
  185.2310  170.5680  135.6420 O   0  0  0  0  0  0  0  0  0  0  0  0
  185.9050  171.1960  134.5940 C   0  0  0  0  0  2  0  0  0  0  0  0
  188.0580  170.3520  135.2040 O   0  0  0  0  0  1  0  0  0  0  0  0
  187.3490  172.3060  136.1470 O   0  0  0  0  0  1  0  0  0  0  0  0
  187.3370  171.5280  134.9900 C   0  0  0  0  0  3  0  0  0  0  0  0
  187.5240  178.5900  139.0110 N   0  0  0  0  0  2  0  0  0  0  0  0
  187.9170  177.5130  139.9120 C   0  0  0  0  0  2  0  0  0  0  0  0
  188.4520  178.2480  141.5510 P   0  0  1  0  0  0  0  0  0  0  0  0
  187.7220  177.0010  142.5240 O   0  0  0  0  0  0  0  0  0  0  0  0
  188.5110  176.8910  143.6780 C   0  0  2  0  0  3  0  0  0  0  0  0
  186.2770  178.3000  147.0680 C   0  0  0  0  0  3  0  0  0  0  0  0
  185.6810  178.2800  145.8050 C   0  0  0  0  0  3  0  0  0  0  0  0
  188.3490  177.4860  146.1140 C   0  0  0  0  0  3  0  0  0  0  0  0
  187.6120  177.9190  147.2240 C   0  0  0  0  0  0  0  0  0  0  0  0
  186.4210  177.8570  144.6990 C   0  0  0  0  0  3  0  0  0  0  0  0
  187.7570  177.4590  144.8470 C   0  0  0  0  0  0  0  0  0  0  0  0
  188.2030  177.9170  148.5160 N   0  0  0  0  0  1  0  0  0  0  0  0
  190.1080  177.8520  143.4430 P   0  0  1  0  0  0  0  0  0  0  0  0
  191.2430  176.4570  143.9420 C   0  0  0  0  0  2  0  0  0  0  0  0
  191.5800  176.5550  145.4180 C   0  0  0  0  0  1  0  0  0  0  0  0
  1  6  1  0  0  0  0
  2 18  1  6  0  0  0
  2  4  1  0  0  0  0
  2 10  1  0  0  0  0
  2  1  1  0  0  0  0
  7 15  1  0  0  0  0
 10  4  1  1  0  0  0
 10 11  1  0  0  0  0
 11 13  1  0  0  0  0
 11 33  1  1  0  0  0
 12 17  1  0  0  0  0
 12  7  1  0  0  0  0
 12 24  1  1  0  0  0
 13 21  1  6  0  0  0
 13  9  1  0  0  0  0
 14 19  1  0  0  0  0
 14  5  1  0  0  0  0
 16 20  1  0  0  0  0
 16  3  1  1  0  0  0
 17  6  1  0  0  0  0
 19 21  1  6  0  0  0
 19  9  1  0  0  0  0
 20 14  1  0  0  0  0
 20 23  1  1  0  0  0
 22  8  1  1  0  0  0
 22 15  1  0  0  0  0
 22 16  1  0  0  0  0
 25 24  1  6  0  0  0
 26 27  1  0  0  0  0
 26 25  1  0  0  0  0
 27 25  1  0  0  0  0
 28 26  1  0  0  0  0
 29 32  1  0  0  0  0
 29 28  1  0  0  0  0
 32 30  1  0  0  0  0
 32 31  1  0  0  0  0
 33 34  1  0  0  0  0
 35 34  1  6  0  0  0
 35 36  1  0  0  0  0
 35 45  1  0  0  0  0
 36 37  1  0  0  0  0
 37 43  1  1  0  0  0
 38 41  1  0  0  0  0
 39 38  2  0  0  0  0
 40 41  2  0  0  0  0
 41 44  1  0  0  0  0
 42 43  2  0  0  0  0
 42 39  1  0  0  0  0
 43 40  1  0  0  0  0
 45 37  1  0  0  0  0
 45 46  1  6  0  0  0
 46 47  1  0  0  0  0
M  END
>  <MODEL>
2

>  <REMARK>
 VINA RESULT:      -6.6      1.758      2.775
  Name = 
  13 active torsions:
  status: ('A' for Active; 'I' for Inactive)
    1  A    between atoms: C_2  and  C_5
    2  A    between atoms: C_2  and  C_28
    3  A    between atoms: C_12  and  O_36
    4  A    between atoms: C_12  and  C_37
    5  A    between atoms: C_14  and  P_26
    6  A    between atoms: N_15  and  O_36
    7  A    between atoms: C_16  and  N_20
    8  A    between atoms: C_16  and  P_22
    9  A    between atoms: N_20  and  C_25
   10  A    between atoms: P_22  and  O_41
   11  A    between atoms: P_26  and  C_39
   12  A    between atoms: C_39  and  C_40
   13  A    between atoms: C_39  and  O_41
                            x       y       z     vdW  Elec       q    Type
                         _______ _______ _______ _____ _____    ______ ____

>  <TORSDO>
F 13

$$$$
=
 OpenBabel11062417293D

 47 51  0  0  1  0  0  0  0  0999 V2000
  183.6900  177.4140  137.3230 C   0  0  0  0  0  2  0  0  0  0  0  0
  183.1950  177.5210  135.8830 C   0  0  2  0  0  0  0  0  0  0  0  0
  187.7290  172.1790  136.7950 C   0  0  0  0  0  1  0  0  0  0  0  0
  181.7360  177.8980  135.7680 C   0  0  0  0  0  2  0  0  0  0  0  0
  184.8050  172.3920  137.4790 C   0  0  0  0  0  1  0  0  0  0  0  0
  185.0900  176.8190  137.3930 C   0  0  0  0  0  2  0  0  0  0  0  0
  187.1200  176.1090  135.4940 C   0  0  0  0  0  2  0  0  0  0  0  0
  188.9060  174.0690  134.6080 C   0  0  0  0  0  1  0  0  0  0  0  0
  182.2660  173.0440  136.4470 C   0  0  0  0  0  2  0  0  0  0  0  0
  182.2060  176.5210  135.2860 C   0  0  2  0  0  3  0  0  0  0  0  0
  181.8640  175.3680  136.2650 C   0  0  2  0  0  3  0  0  0  0  0  0
  187.2480  177.1080  136.6610 C   0  0  1  0  0  3  0  0  0  0  0  0
  181.8030  174.0880  135.5500 N   0  0  1  0  0  0  0  0  0  0  0  0
  184.7560  172.8770  136.0900 N   0  0  0  0  0  0  0  0  0  0  0  0
  187.0180  174.7980  135.9840 O   0  0  0  0  0  0  0  0  0  0  0  0
  187.1640  172.4730  135.4030 C   0  0  1  0  0  3  0  0  0  0  0  0
  186.0340  177.7670  136.9570 O   0  0  0  0  0  0  0  0  0  0  0  0
  183.9860  178.2020  134.9580 O   0  0  0  0  0  1  0  0  0  0  0  0
  183.4170  172.6500  135.5340 C   0  0  2  0  0  3  0  0  0  0  0  0
  185.6880  172.0860  135.2540 C   0  0  1  0  0  3  0  0  0  0  0  0
  182.9740  173.8430  134.7170 C   0  0  0  0  0  2  0  0  0  0  0  0
  187.4230  173.9200  134.9640 C   0  0  2  0  0  3  0  0  0  0  0  0
  185.4890  170.5710  135.3500 C   0  0  0  0  0  1  0  0  0  0  0  0
  187.9810  176.6430  137.9380 C   0  0  0  0  0  2  0  0  0  0  0  0
  188.5360  177.7750  138.7900 C   0  0  2  0  0  3  0  0  0  0  0  0
  188.5430  177.3970  140.1830 N   0  0  0  0  0  0  0  0  0  0  0  0
  187.5890  178.2470  139.6440 O   0  0  0  0  0  0  0  0  0  0  0  0
  189.4800  178.1830  140.7740 O   0  0  0  0  0  0  0  0  0  0  0  0
  189.4750  177.7880  142.1140 C   0  0  0  0  0  2  0  0  0  0  0  0
  191.1300  176.5020  143.2650 O   0  0  0  0  0  1  0  0  0  0  0  0
  191.0710  178.7570  143.6100 O   0  0  0  0  0  1  0  0  0  0  0  0
  190.8900  177.7430  142.6720 C   0  0  0  0  0  3  0  0  0  0  0  0
  180.5540  175.5890  136.8640 N   0  0  0  0  0  2  0  0  0  0  0  0
  180.6700  175.5120  138.3150 C   0  0  0  0  0  2  0  0  0  0  0  0
  180.0050  177.0940  139.0700 P   0  0  0  0  0  2  0  0  0  0  0  0
  181.1600  177.1390  140.3720 O   0  0  0  0  0  0  0  0  0  0  0  0
  181.5860  178.4720  140.4730 C   0  0  2  0  0  3  0  0  0  0  0  0
  184.0200  178.6800  144.0090 C   0  0  0  0  0  3  0  0  0  0  0  0
  182.6600  178.9920  144.0830 C   0  0  0  0  0  3  0  0  0  0  0  0
  183.8150  178.3150  141.6230 C   0  0  0  0  0  3  0  0  0  0  0  0
  184.6030  178.3560  142.7810 C   0  0  0  0  0  0  0  0  0  0  0  0
  181.8800  178.9600  142.9260 C   0  0  0  0  0  3  0  0  0  0  0  0
  182.4520  178.6230  141.6920 C   0  0  0  0  0  0  0  0  0  0  0  0
  185.9800  178.0140  142.7170 N   0  0  0  0  0  1  0  0  0  0  0  0
  180.0920  179.6000  140.6290 P   0  0  0  0  0  2  0  0  0  0  0  0
  180.7160  180.9050  139.4490 C   0  0  0  0  0  2  0  0  0  0  0  0
  181.9500  180.4080  138.7200 C   0  0  0  0  0  1  0  0  0  0  0  0
  1  6  1  0  0  0  0
  2 18  1  6  0  0  0
  2  1  1  0  0  0  0
  4  2  1  0  0  0  0
  7 15  1  0  0  0  0
  7 12  1  0  0  0  0
 10  4  1  1  0  0  0
 10  2  1  0  0  0  0
 10 11  1  0  0  0  0
 11 33  1  6  0  0  0
 12 17  1  0  0  0  0
 12 24  1  1  0  0  0
 13 21  1  6  0  0  0
 13 11  1  0  0  0  0
 13  9  1  0  0  0  0
 14  5  1  0  0  0  0
 16  3  1  1  0  0  0
 17  6  1  0  0  0  0
 19 21  1  6  0  0  0
 19 14  1  0  0  0  0
 19  9  1  0  0  0  0
 20 23  1  1  0  0  0
 20 16  1  0  0  0  0
 20 14  1  0  0  0  0
 22  8  1  1  0  0  0
 22 16  1  0  0  0  0
 22 15  1  0  0  0  0
 25 24  1  6  0  0  0
 25 27  1  0  0  0  0
 25 26  1  0  0  0  0
 26 28  1  0  0  0  0
 27 26  1  0  0  0  0
 28 29  1  0  0  0  0
 29 32  1  0  0  0  0
 32 30  1  0  0  0  0
 32 31  1  0  0  0  0
 33 34  1  0  0  0  0
 34 35  1  0  0  0  0
 35 36  1  0  0  0  0
 37 36  1  1  0  0  0
 37 45  1  0  0  0  0
 37 43  1  0  0  0  0
 38 39  1  0  0  0  0
 40 43  2  0  0  0  0
 40 41  1  0  0  0  0
 41 38  2  0  0  0  0
 42 39  2  0  0  0  0
 43 42  1  0  0  0  0
 44 41  1  0  0  0  0
 46 45  1  0  0  0  0
 47 46  1  0  0  0  0
M  END
>  <MODEL>
3

>  <REMARK>
 VINA RESULT:      -6.4      3.677      7.966
  Name = 
  13 active torsions:
  status: ('A' for Active; 'I' for Inactive)
    1  A    between atoms: C_2  and  C_5
    2  A    between atoms: C_2  and  C_28
    3  A    between atoms: C_12  and  O_36
    4  A    between atoms: C_12  and  C_37
    5  A    between atoms: C_14  and  P_26
    6  A    between atoms: N_15  and  O_36
    7  A    between atoms: C_16  and  N_20
    8  A    between atoms: C_16  and  P_22
    9  A    between atoms: N_20  and  C_25
   10  A    between atoms: P_22  and  O_41
   11  A    between atoms: P_26  and  C_39
   12  A    between atoms: C_39  and  C_40
   13  A    between atoms: C_39  and  O_41
                            x       y       z     vdW  Elec       q    Type
                         _______ _______ _______ _____ _____    ______ ____

>  <TORSDO>
F 13

$$$$
=
 OpenBabel11062417293D

 47 51  0  0  1  0  0  0  0  0999 V2000
  183.3020  177.5910  137.8610 C   0  0  0  0  0  2  0  0  0  0  0  0
  182.6570  177.6360  136.4780 C   0  0  2  0  0  0  0  0  0  0  0  0
  187.9320  172.9500  136.8540 C   0  0  0  0  0  1  0  0  0  0  0  0
  181.1570  177.8140  136.5120 C   0  0  0  0  0  2  0  0  0  0  0  0
  185.0870  172.7640  137.8230 C   0  0  0  0  0  1  0  0  0  0  0  0
  184.7680  177.1900  137.7840 C   0  0  0  0  0  2  0  0  0  0  0  0
  186.6780  176.7660  135.6850 C   0  0  0  0  0  2  0  0  0  0  0  0
  188.6230  174.9890  134.5940 C   0  0  0  0  0  1  0  0  0  0  0  0
  182.3940  173.0720  137.0540 C   0  0  0  0  0  2  0  0  0  0  0  0
  181.7570  176.5140  135.9640 C   0  0  2  0  0  3  0  0  0  0  0  0
  181.6700  175.3220  136.9510 C   0  0  2  0  0  3  0  0  0  0  0  0
  186.7850  177.7700  136.8510 C   0  0  1  0  0  3  0  0  0  0  0  0
  181.7100  174.0480  136.2240 N   0  0  1  0  0  0  0  0  0  0  0  0
  184.8370  173.2430  136.4540 N   0  0  0  0  0  0  0  0  0  0  0  0
  186.8000  175.4520  136.1600 O   0  0  0  0  0  0  0  0  0  0  0  0
  187.1970  173.1700  135.5290 C   0  0  1  0  0  3  0  0  0  0  0  0
  185.5300  178.2580  137.2740 O   0  0  0  0  0  0  0  0  0  0  0  0
  183.2540  178.4200  135.4920 O   0  0  0  0  0  1  0  0  0  0  0  0
  183.4920  172.8410  136.0270 C   0  0  2  0  0  3  0  0  0  0  0  0
  185.7800  172.5880  135.5180 C   0  0  1  0  0  3  0  0  0  0  0  0
  182.8150  173.9660  135.2770 C   0  0  0  0  0  2  0  0  0  0  0  0
  187.2170  174.6410  135.0910 C   0  0  2  0  0  3  0  0  0  0  0  0
  185.7940  171.0600  135.6070 C   0  0  0  0  0  1  0  0  0  0  0  0
  187.6970  177.4030  138.0420 C   0  0  0  0  0  2  0  0  0  0  0  0
  189.1780  177.6500  137.7970 C   0  0  2  0  0  3  0  0  0  0  0  0
  189.9410  176.4610  138.0920 N   0  0  0  0  0  0  0  0  0  0  0  0
  189.8840  177.5460  138.9540 O   0  0  0  0  0  0  0  0  0  0  0  0
  191.0960  176.5780  137.3890 O   0  0  0  0  0  0  0  0  0  0  0  0
  191.9270  175.5830  137.9080 C   0  0  0  0  0  2  0  0  0  0  0  0
  193.3380  176.9820  139.2390 O   0  0  0  0  0  1  0  0  0  0  0  0
  193.7890  176.7880  137.0100 O   0  0  0  0  0  1  0  0  0  0  0  0
  193.3320  176.1170  138.1430 C   0  0  0  0  0  3  0  0  0  0  0  0
  180.4080  175.3620  137.6790 N   0  0  0  0  0  2  0  0  0  0  0  0
  180.6750  175.6040  139.0920 C   0  0  0  0  0  2  0  0  0  0  0  0
  179.5530  176.9750  139.7030 P   0  0  0  0  0  2  0  0  0  0  0  0
  180.4480  177.2630  141.1690 O   0  0  0  0  0  0  0  0  0  0  0  0
  181.0100  178.5420  141.0410 C   0  0  2  0  0  3  0  0  0  0  0  0
  184.2540  178.7070  143.8550 C   0  0  0  0  0  3  0  0  0  0  0  0
  182.9440  178.9160  144.2930 C   0  0  0  0  0  3  0  0  0  0  0  0
  183.4650  178.4750  141.5770 C   0  0  0  0  0  3  0  0  0  0  0  0
  184.5190  178.5020  142.4990 C   0  0  0  0  0  0  0  0  0  0  0  0
  181.8960  178.8990  143.3710 C   0  0  0  0  0  3  0  0  0  0  0  0
  182.1500  178.6800  142.0100 C   0  0  0  0  0  0  0  0  0  0  0  0
  185.8510  178.2640  142.0640 N   0  0  0  0  0  1  0  0  0  0  0  0
  179.7090  179.8420  141.4230 P   0  0  0  0  0  2  0  0  0  0  0  0
  180.0340  180.8850  139.9090 C   0  0  0  0  0  2  0  0  0  0  0  0
  181.2560  180.3730  139.1690 C   0  0  0  0  0  1  0  0  0  0  0  0
  2 18  1  6  0  0  0
  2  4  1  0  0  0  0
  2  1  1  0  0  0  0
  6  1  1  0  0  0  0
  7 15  1  0  0  0  0
  7 12  1  0  0  0  0
 10  2  1  0  0  0  0
 10  4  1  1  0  0  0
 10 11  1  0  0  0  0
 11 33  1  6  0  0  0
 12 17  1  0  0  0  0
 12 24  1  1  0  0  0
 13 21  1  6  0  0  0
 13 11  1  0  0  0  0
 13  9  1  0  0  0  0
 14  5  1  0  0  0  0
 16  3  1  1  0  0  0
 17  6  1  0  0  0  0
 19 21  1  6  0  0  0
 19 14  1  0  0  0  0
 19  9  1  0  0  0  0
 20 16  1  0  0  0  0
 20 23  1  1  0  0  0
 20 14  1  0  0  0  0
 22  8  1  1  0  0  0
 22 16  1  0  0  0  0
 22 15  1  0  0  0  0
 25 24  1  1  0  0  0
 25 26  1  0  0  0  0
 25 27  1  0  0  0  0
 26 27  1  0  0  0  0
 28 29  1  0  0  0  0
 28 26  1  0  0  0  0
 29 32  1  0  0  0  0
 31 32  1  0  0  0  0
 32 30  1  0  0  0  0
 33 34  1  0  0  0  0
 34 35  1  0  0  0  0
 35 36  1  0  0  0  0
 37 36  1  1  0  0  0
 37 45  1  0  0  0  0
 37 43  1  0  0  0  0
 38 39  1  0  0  0  0
 40 43  2  0  0  0  0
 40 41  1  0  0  0  0
 41 38  2  0  0  0  0
 42 39  2  0  0  0  0
 43 42  1  0  0  0  0
 44 41  1  0  0  0  0
 46 45  1  0  0  0  0
 47 46  1  0  0  0  0
M  END
>  <MODEL>
4

>  <REMARK>
 VINA RESULT:      -6.2      4.074      7.979
  Name = 
  13 active torsions:
  status: ('A' for Active; 'I' for Inactive)
    1  A    between atoms: C_2  and  C_5
    2  A    between atoms: C_2  and  C_28
    3  A    between atoms: C_12  and  O_36
    4  A    between atoms: C_12  and  C_37
    5  A    between atoms: C_14  and  P_26
    6  A    between atoms: N_15  and  O_36
    7  A    between atoms: C_16  and  N_20
    8  A    between atoms: C_16  and  P_22
    9  A    between atoms: N_20  and  C_25
   10  A    between atoms: P_22  and  O_41
   11  A    between atoms: P_26  and  C_39
   12  A    between atoms: C_39  and  C_40
   13  A    between atoms: C_39  and  O_41
                            x       y       z     vdW  Elec       q    Type
                         _______ _______ _______ _____ _____    ______ ____

>  <TORSDO>
F 13

$$$$
=
 OpenBabel11062417293D

 47 51  0  0  1  0  0  0  0  0999 V2000
  185.5420  179.5640  141.2960 C   0  0  0  0  0  2  0  0  0  0  0  0
  185.8460  178.2170  141.9460 C   0  0  2  0  0  0  0  0  0  0  0  0
  185.6030  177.8260  134.8950 C   0  0  0  0  0  1  0  0  0  0  0  0
  186.7560  178.3130  143.1470 C   0  0  0  0  0  2  0  0  0  0  0  0
  187.7770  178.8350  136.7170 C   0  0  0  0  0  1  0  0  0  0  0  0
  184.8120  179.3960  139.9700 C   0  0  0  0  0  2  0  0  0  0  0  0
  183.6320  177.2110  138.5340 C   0  0  0  0  0  2  0  0  0  0  0  0
  183.4810  175.8430  136.0360 C   0  0  0  0  0  1  0  0  0  0  0  0
  189.3540  178.1840  138.9590 C   0  0  0  0  0  2  0  0  0  0  0  0
  187.2330  177.5800  141.8890 C   0  0  2  0  0  3  0  0  0  0  0  0
  188.2290  178.4010  141.0290 C   0  0  2  0  0  3  0  0  0  0  0  0
  182.9280  178.4980  139.0110 C   0  0  1  0  0  3  0  0  0  0  0  0
  189.0590  177.5100  140.2110 N   0  0  1  0  0  0  0  0  0  0  0  0
  187.4970  177.5490  137.3770 N   0  0  0  0  0  0  0  0  0  0  0  0
  184.5300  177.5020  137.4960 O   0  0  0  0  0  0  0  0  0  0  0  0
  185.8470  176.5620  135.7230 C   0  0  1  0  0  3  0  0  0  0  0  0
  183.4780  179.0150  140.2050 O   0  0  0  0  0  0  0  0  0  0  0  0
  184.7920  177.3300  142.1580 O   0  0  0  0  0  1  0  0  0  0  0  0
  188.6820  177.1060  138.1220 C   0  0  2  0  0  3  0  0  0  0  0  0
  187.2430  176.5100  136.3520 C   0  0  1  0  0  3  0  0  0  0  0  0
  188.2800  176.5320  139.4610 C   0  0  0  0  0  2  0  0  0  0  0  0
  184.7410  176.3240  136.7610 C   0  0  2  0  0  3  0  0  0  0  0  0
  188.3390  176.3930  135.2900 C   0  0  0  0  0  1  0  0  0  0  0  0
  182.6570  179.6050  137.9700 C   0  0  0  0  0  2  0  0  0  0  0  0
  181.2700  180.2220  138.0580 C   0  0  2  0  0  3  0  0  0  0  0  0
  181.3570  181.6620  138.0180 N   0  0  0  0  0  0  0  0  0  0  0  0
  181.1390  180.9590  139.1940 O   0  0  0  0  0  0  0  0  0  0  0  0
  180.1440  182.0950  137.5880 O   0  0  0  0  0  0  0  0  0  0  0  0
  180.2210  183.4870  137.6640 C   0  0  0  0  0  2  0  0  0  0  0  0
  182.2760  184.7070  137.5920 O   0  0  0  0  0  1  0  0  0  0  0  0
  180.8580  184.8610  135.8110 O   0  0  0  0  0  1  0  0  0  0  0  0
  181.3570  184.0160  136.8010 C   0  0  0  0  0  3  0  0  0  0  0  0
  189.1290  179.1610  141.8880 N   0  0  0  0  0  2  0  0  0  0  0  0
  190.3030  178.3510  142.1890 C   0  0  0  0  0  2  0  0  0  0  0  0
  190.5920  178.3530  144.0410 P   0  0  0  0  0  2  0  0  0  0  0  0
  189.5090  177.0280  144.3660 O   0  0  0  0  0  0  0  0  0  0  0  0
  189.8410  176.5540  145.6440 C   0  0  2  0  0  3  0  0  0  0  0  0
  187.3360  178.6060  148.4700 C   0  0  0  0  0  3  0  0  0  0  0  0
  188.6390  178.2510  148.8280 C   0  0  0  0  0  3  0  0  0  0  0  0
  187.6330  177.5540  146.3080 C   0  0  0  0  0  3  0  0  0  0  0  0
  186.8260  178.2470  147.2200 C   0  0  0  0  0  0  0  0  0  0  0  0
  189.4380  177.5510  147.9220 C   0  0  0  0  0  3  0  0  0  0  0  0
  188.9400  177.1990  146.6590 C   0  0  0  0  0  0  0  0  0  0  0  0
  185.5090  178.6350  146.8530 N   0  0  0  0  0  1  0  0  0  0  0  0
  191.6270  176.9900  146.0320 P   0  0  0  0  0  2  0  0  0  0  0  0
  192.0380  175.3740  146.8720 C   0  0  0  0  0  2  0  0  0  0  0  0
  192.8050  175.6280  148.1550 C   0  0  0  0  0  1  0  0  0  0  0  0
  1  2  1  0  0  0  0
  2 18  1  1  0  0  0
  2  4  1  0  0  0  0
  5 14  1  0  0  0  0
  6 17  1  0  0  0  0
  6  1  1  0  0  0  0
  7 12  1  0  0  0  0
 10  2  1  0  0  0  0
 10  4  1  1  0  0  0
 11 33  1  1  0  0  0
 11 10  1  0  0  0  0
 12 24  1  6  0  0  0
 12 17  1  0  0  0  0
 13  9  1  6  0  0  0
 13 11  1  0  0  0  0
 14 19  1  0  0  0  0
 15  7  1  0  0  0  0
 16  3  1  1  0  0  0
 16 20  1  0  0  0  0
 16 22  1  0  0  0  0
 19  9  1  1  0  0  0
 19 21  1  0  0  0  0
 20 23  1  6  0  0  0
 20 14  1  0  0  0  0
 21 13  1  0  0  0  0
 22  8  1  6  0  0  0
 22 15  1  0  0  0  0
 25 24  1  1  0  0  0
 25 27  1  0  0  0  0
 26 25  1  0  0  0  0
 26 27  1  0  0  0  0
 28 29  1  0  0  0  0
 28 26  1  0  0  0  0
 31 32  1  0  0  0  0
 32 30  1  0  0  0  0
 32 29  1  0  0  0  0
 33 34  1  0  0  0  0
 34 35  1  0  0  0  0
 35 36  1  0  0  0  0
 37 36  1  6  0  0  0
 37 45  1  0  0  0  0
 37 43  1  0  0  0  0
 38 39  1  0  0  0  0
 40 43  2  0  0  0  0
 40 41  1  0  0  0  0
 41 38  2  0  0  0  0
 42 39  2  0  0  0  0
 43 42  1  0  0  0  0
 44 41  1  0  0  0  0
 45 46  1  0  0  0  0
 46 47  1  0  0  0  0
M  END
>  <MODEL>
5

>  <REMARK>
 VINA RESULT:      -6.1      3.647      6.673
  Name = 
  13 active torsions:
  status: ('A' for Active; 'I' for Inactive)
    1  A    between atoms: C_2  and  C_5
    2  A    between atoms: C_2  and  C_28
    3  A    between atoms: C_12  and  O_36
    4  A    between atoms: C_12  and  C_37
    5  A    between atoms: C_14  and  P_26
    6  A    between atoms: N_15  and  O_36
    7  A    between atoms: C_16  and  N_20
    8  A    between atoms: C_16  and  P_22
    9  A    between atoms: N_20  and  C_25
   10  A    between atoms: P_22  and  O_41
   11  A    between atoms: P_26  and  C_39
   12  A    between atoms: C_39  and  C_40
   13  A    between atoms: C_39  and  O_41
                            x       y       z     vdW  Elec       q    Type
                         _______ _______ _______ _____ _____    ______ ____

>  <TORSDO>
F 13

$$$$
=
 OpenBabel11062417293D

 47 51  0  0  1  0  0  0  0  0999 V2000
  186.1870  177.2460  138.0320 C   0  0  0  0  0  2  0  0  0  0  0  0
  185.7950  177.6220  136.6060 C   0  0  2  0  0  0  0  0  0  0  0  0
  191.2770  173.1700  136.8200 C   0  0  0  0  0  1  0  0  0  0  0  0
  184.3040  177.7360  136.3950 C   0  0  0  0  0  2  0  0  0  0  0  0
  188.3300  172.6500  137.1530 C   0  0  0  0  0  1  0  0  0  0  0  0
  187.6720  176.9250  138.1400 C   0  0  0  0  0  2  0  0  0  0  0  0
  189.9500  177.1150  136.4060 C   0  0  0  0  0  2  0  0  0  0  0  0
  192.1920  175.7400  135.3050 C   0  0  0  0  0  1  0  0  0  0  0  0
  185.8000  173.0570  135.9830 C   0  0  0  0  0  2  0  0  0  0  0  0
  185.0920  176.6410  135.6690 C   0  0  2  0  0  3  0  0  0  0  0  0
  184.9280  175.2330  136.2990 C   0  0  2  0  0  3  0  0  0  0  0  0
  189.7690  177.7900  137.7810 C   0  0  1  0  0  3  0  0  0  0  0  0
  185.1970  174.1900  135.3030 N   0  0  1  0  0  0  0  0  0  0  0  0
  188.2880  173.4550  135.9210 N   0  0  0  0  0  0  0  0  0  0  0  0
  190.0910  175.7270  136.5580 O   0  0  0  0  0  0  0  0  0  0  0  0
  190.7730  173.6970  135.4740 C   0  0  1  0  0  3  0  0  0  0  0  0
  188.4240  178.1120  138.0630 O   0  0  0  0  0  0  0  0  0  0  0  0
  186.4930  178.6510  135.9750 O   0  0  0  0  0  1  0  0  0  0  0  0
  187.0760  173.1320  135.1590 C   0  0  2  0  0  3  0  0  0  0  0  0
  189.4310  173.0920  135.0500 C   0  0  1  0  0  3  0  0  0  0  0  0
  186.4550  174.3890  134.5940 C   0  0  0  0  0  2  0  0  0  0  0  0
  190.7520  175.2310  135.4220 C   0  0  2  0  0  3  0  0  0  0  0  0
  189.5510  171.5940  134.7630 C   0  0  0  0  0  1  0  0  0  0  0  0
  190.4830  177.1600  138.9960 C   0  0  0  0  0  2  0  0  0  0  0  0
  190.0570  177.7330  140.3400 C   0  0  2  0  0  3  0  0  0  0  0  0
  190.5670  176.9200  141.4170 N   0  0  0  0  0  0  0  0  0  0  0  0
  189.2450  176.8660  141.0010 O   0  0  0  0  0  0  0  0  0  0  0  0
  190.6020  177.7300  142.5070 O   0  0  0  0  0  0  0  0  0  0  0  0
  190.2050  176.9110  143.5660 C   0  0  0  0  0  2  0  0  0  0  0  0
  190.3640  178.9960  144.7260 O   0  0  0  0  0  1  0  0  0  0  0  0
  191.6380  177.2480  145.4520 O   0  0  0  0  0  1  0  0  0  0  0  0
  190.4110  177.6120  144.9010 C   0  0  0  0  0  3  0  0  0  0  0  0
  183.5580  175.0450  136.7600 N   0  0  0  0  0  2  0  0  0  0  0  0
  183.5280  175.1050  138.2160 C   0  0  0  0  0  2  0  0  0  0  0  0
  182.0120  176.0640  138.7600 P   0  0  0  0  0  2  0  0  0  0  0  0
  182.6360  176.4520  140.3400 O   0  0  0  0  0  0  0  0  0  0  0  0
  182.9940  177.8070  140.2990 C   0  0  2  0  0  3  0  0  0  0  0  0
  184.3790  178.7920  144.2460 C   0  0  0  0  0  3  0  0  0  0  0  0
  183.0490  179.0370  143.8960 C   0  0  0  0  0  3  0  0  0  0  0  0
  184.8300  177.9860  142.0060 C   0  0  0  0  0  3  0  0  0  0  0  0
  185.2740  178.2820  143.3010 C   0  0  0  0  0  0  0  0  0  0  0  0
  182.6110  178.7510  142.6020 C   0  0  0  0  0  3  0  0  0  0  0  0
  183.4970  178.2260  141.6510 C   0  0  0  0  0  0  0  0  0  0  0  0
  186.6190  178.0100  143.6720 N   0  0  0  0  0  1  0  0  0  0  0  0
  181.4920  178.8420  139.8470 P   0  0  0  0  0  2  0  0  0  0  0  0
  182.4390  180.1500  138.9100 C   0  0  0  0  0  2  0  0  0  0  0  0
  181.5340  180.8340  137.9020 C   0  0  0  0  0  1  0  0  0  0  0  0
  1  6  1  0  0  0  0
  2 18  1  6  0  0  0
  2  1  1  0  0  0  0
  4  2  1  0  0  0  0
  7 15  1  0  0  0  0
  7 12  1  0  0  0  0
 10 11  1  0  0  0  0
 10  4  1  1  0  0  0
 10  2  1  0  0  0  0
 11 33  1  6  0  0  0
 12 17  1  0  0  0  0
 12 24  1  1  0  0  0
 13 21  1  6  0  0  0
 13  9  1  0  0  0  0
 13 11  1  0  0  0  0
 14  5  1  0  0  0  0
 16  3  1  1  0  0  0
 17  6  1  0  0  0  0
 19 21  1  6  0  0  0
 19 14  1  0  0  0  0
 19  9  1  0  0  0  0
 20 23  1  1  0  0  0
 20 16  1  0  0  0  0
 20 14  1  0  0  0  0
 22  8  1  1  0  0  0
 22 16  1  0  0  0  0
 22 15  1  0  0  0  0
 25 24  1  6  0  0  0
 25 27  1  0  0  0  0
 25 26  1  0  0  0  0
 26 28  1  0  0  0  0
 27 26  1  0  0  0  0
 28 29  1  0  0  0  0
 29 32  1  0  0  0  0
 30 32  1  0  0  0  0
 32 31  1  0  0  0  0
 33 34  1  0  0  0  0
 34 35  1  0  0  0  0
 35 36  1  0  0  0  0
 37 45  1  1  0  0  0
 37 36  1  0  0  0  0
 37 43  1  0  0  0  0
 39 38  1  0  0  0  0
 40 41  1  0  0  0  0
 41 44  1  0  0  0  0
 41 38  2  0  0  0  0
 42 39  2  0  0  0  0
 43 40  2  0  0  0  0
 43 42  1  0  0  0  0
 46 45  1  0  0  0  0
 47 46  1  0  0  0  0
M  END
>  <MODEL>
6

>  <REMARK>
 VINA RESULT:      -5.8      3.933      8.481
  Name = 
  13 active torsions:
  status: ('A' for Active; 'I' for Inactive)
    1  A    between atoms: C_2  and  C_5
    2  A    between atoms: C_2  and  C_28
    3  A    between atoms: C_12  and  O_36
    4  A    between atoms: C_12  and  C_37
    5  A    between atoms: C_14  and  P_26
    6  A    between atoms: N_15  and  O_36
    7  A    between atoms: C_16  and  N_20
    8  A    between atoms: C_16  and  P_22
    9  A    between atoms: N_20  and  C_25
   10  A    between atoms: P_22  and  O_41
   11  A    between atoms: P_26  and  C_39
   12  A    between atoms: C_39  and  C_40
   13  A    between atoms: C_39  and  O_41
                            x       y       z     vdW  Elec       q    Type
                         _______ _______ _______ _____ _____    ______ ____

>  <TORSDO>
F 13

$$$$
=
 OpenBabel11062417293D

 47 51  0  0  1  0  0  0  0  0999 V2000
  186.3750  175.7460  137.2470 C   0  0  0  0  0  2  0  0  0  0  0  0
  186.9490  177.1320  136.9670 C   0  0  2  0  0  0  0  0  0  0  0  0
  179.9800  177.2700  138.1260 C   0  0  0  0  0  1  0  0  0  0  0  0
  188.3080  177.3630  137.5830 C   0  0  0  0  0  2  0  0  0  0  0  0
  182.2740  177.0620  140.0650 C   0  0  0  0  0  1  0  0  0  0  0  0
  184.9230  175.6380  136.8020 C   0  0  0  0  0  2  0  0  0  0  0  0
  183.0940  177.2900  135.3320 C   0  0  0  0  0  2  0  0  0  0  0  0
  180.5020  178.4800  135.2970 C   0  0  0  0  0  1  0  0  0  0  0  0
  184.7130  178.2390  140.8410 C   0  0  0  0  0  2  0  0  0  0  0  0
  187.1060  178.1840  138.0640 C   0  0  2  0  0  3  0  0  0  0  0  0
  186.5340  177.7120  139.4260 C   0  0  2  0  0  3  0  0  0  0  0  0
  183.5380  175.8550  134.9820 C   0  0  1  0  0  3  0  0  0  0  0  0
  185.8180  178.8080  140.0900 N   0  0  1  0  0  0  0  0  0  0  0  0
  182.7480  178.2010  139.2620 N   0  0  0  0  0  0  0  0  0  0  0  0
  182.2820  177.2840  136.4760 O   0  0  0  0  0  0  0  0  0  0  0  0
  180.7230  178.5620  137.7790 C   0  0  1  0  0  3  0  0  0  0  0  0
  184.8580  175.5710  135.3980 O   0  0  0  0  0  0  0  0  0  0  0  0
  186.8710  177.6330  135.6680 O   0  0  0  0  0  1  0  0  0  0  0  0
  183.6680  179.0210  140.0610 C   0  0  2  0  0  3  0  0  0  0  0  0
  181.6050  179.0790  138.9210 C   0  0  1  0  0  3  0  0  0  0  0  0
  184.8460  179.4630  139.2230 C   0  0  0  0  0  2  0  0  0  0  0  0
  181.4990  178.4510  136.4600 C   0  0  2  0  0  3  0  0  0  0  0  0
  180.7710  179.5220  140.1240 C   0  0  0  0  0  1  0  0  0  0  0  0
  182.5670  174.6980  135.3000 C   0  0  0  0  0  2  0  0  0  0  0  0
  183.0050  173.3450  134.7580 C   0  0  2  0  0  3  0  0  0  0  0  0
  182.3060  172.2820  135.4380 N   0  0  0  0  0  0  0  0  0  0  0  0
  183.6220  172.6130  135.7230 O   0  0  0  0  0  0  0  0  0  0  0  0
  182.3430  171.2170  134.5960 O   0  0  0  0  0  0  0  0  0  0  0  0
  181.5190  170.2640  135.1970 C   0  0  0  0  0  2  0  0  0  0  0  0
  180.4480  171.7250  136.7590 O   0  0  0  0  0  1  0  0  0  0  0  0
  179.2990  169.9000  136.0140 O   0  0  0  0  0  1  0  0  0  0  0  0
  180.2130  170.8920  135.6640 C   0  0  0  0  0  3  0  0  0  0  0  0
  187.6170  177.3060  140.3130 N   0  0  0  0  0  2  0  0  0  0  0  0
  188.3890  178.4800  140.6990 C   0  0  0  0  0  2  0  0  0  0  0  0
  189.7880  177.9510  141.8290 P   0  0  0  0  0  2  0  0  0  0  0  0
  188.9910  178.4380  143.2990 O   0  0  0  0  0  0  0  0  0  0  0  0
  189.3810  177.5170  144.2810 C   0  0  2  0  0  3  0  0  0  0  0  0
  186.9510  178.2550  147.7470 C   0  0  0  0  0  3  0  0  0  0  0  0
  188.3120  177.9800  147.9010 C   0  0  0  0  0  3  0  0  0  0  0  0
  187.1520  177.9670  145.3510 C   0  0  0  0  0  3  0  0  0  0  0  0
  186.3660  178.2350  146.4780 C   0  0  0  0  0  0  0  0  0  0  0  0
  189.0910  177.7030  146.7760 C   0  0  0  0  0  3  0  0  0  0  0  0
  188.5170  177.6950  145.4970 C   0  0  0  0  0  0  0  0  0  0  0  0
  184.9870  178.5420  146.3280 N   0  0  0  0  0  1  0  0  0  0  0  0
  191.1770  177.8160  144.7460 P   0  0  0  0  0  2  0  0  0  0  0  0
  191.6100  176.0170  144.9970 C   0  0  0  0  0  2  0  0  0  0  0  0
  192.0680  175.7810  146.4240 C   0  0  0  0  0  1  0  0  0  0  0  0
  2 18  1  6  0  0  0
  2  1  1  0  0  0  0
  2  4  1  0  0  0  0
  2 10  1  0  0  0  0
  6  1  1  0  0  0  0
  7 15  1  0  0  0  0
 10  4  1  1  0  0  0
 10 11  1  0  0  0  0
 11 13  1  0  0  0  0
 11 33  1  1  0  0  0
 12 24  1  1  0  0  0
 12  7  1  0  0  0  0
 12 17  1  0  0  0  0
 13 21  1  6  0  0  0
 13  9  1  0  0  0  0
 14 19  1  0  0  0  0
 14  5  1  0  0  0  0
 16  3  1  1  0  0  0
 16 20  1  0  0  0  0
 17  6  1  0  0  0  0
 19 21  1  6  0  0  0
 19  9  1  0  0  0  0
 20 14  1  0  0  0  0
 20 23  1  1  0  0  0
 22  8  1  6  0  0  0
 22 15  1  0  0  0  0
 22 16  1  0  0  0  0
 25 24  1  1  0  0  0
 25 26  1  0  0  0  0
 25 27  1  0  0  0  0
 26 27  1  0  0  0  0
 28 29  1  0  0  0  0
 28 26  1  0  0  0  0
 29 32  1  0  0  0  0
 32 31  1  0  0  0  0
 32 30  1  0  0  0  0
 33 34  1  0  0  0  0
 34 35  1  0  0  0  0
 35 36  1  0  0  0  0
 37 36  1  6  0  0  0
 37 45  1  0  0  0  0
 37 43  1  0  0  0  0
 38 39  1  0  0  0  0
 40 43  2  0  0  0  0
 40 41  1  0  0  0  0
 41 38  2  0  0  0  0
 42 39  2  0  0  0  0
 43 42  1  0  0  0  0
 44 41  1  0  0  0  0
 45 46  1  0  0  0  0
 46 47  1  0  0  0  0
M  END
>  <MODEL>
7

>  <REMARK>
 VINA RESULT:      -5.2      1.480      1.868
  Name = 
  13 active torsions:
  status: ('A' for Active; 'I' for Inactive)
    1  A    between atoms: C_2  and  C_5
    2  A    between atoms: C_2  and  C_28
    3  A    between atoms: C_12  and  O_36
    4  A    between atoms: C_12  and  C_37
    5  A    between atoms: C_14  and  P_26
    6  A    between atoms: N_15  and  O_36
    7  A    between atoms: C_16  and  N_20
    8  A    between atoms: C_16  and  P_22
    9  A    between atoms: N_20  and  C_25
   10  A    between atoms: P_22  and  O_41
   11  A    between atoms: P_26  and  C_39
   12  A    between atoms: C_39  and  C_40
   13  A    between atoms: C_39  and  O_41
                            x       y       z     vdW  Elec       q    Type
                         _______ _______ _______ _____ _____    ______ ____

>  <TORSDO>
F 13

$$$$
=
 OpenBabel11062417293D

 47 51  0  0  1  0  0  0  0  0999 V2000
  187.6890  174.7960  137.5710 C   0  0  0  0  0  2  0  0  0  0  0  0
  188.1540  176.0150  136.7780 C   0  0  2  0  0  0  0  0  0  0  0  0
  181.1460  175.8810  137.6700 C   0  0  0  0  0  1  0  0  0  0  0  0
  189.4520  176.6050  137.2770 C   0  0  0  0  0  2  0  0  0  0  0  0
  183.3380  176.6800  139.5730 C   0  0  0  0  0  1  0  0  0  0  0  0
  186.2790  174.3760  137.1790 C   0  0  0  0  0  2  0  0  0  0  0  0
  184.3980  175.1280  135.1470 C   0  0  0  0  0  2  0  0  0  0  0  0
  181.7180  175.9400  134.6030 C   0  0  0  0  0  1  0  0  0  0  0  0
  185.6190  178.3090  139.8660 C   0  0  0  0  0  2  0  0  0  0  0  0
  188.1590  177.4200  137.3750 C   0  0  2  0  0  3  0  0  0  0  0  0
  187.5550  177.4610  138.8030 C   0  0  2  0  0  3  0  0  0  0  0  0
  184.9840  173.7240  135.3970 C   0  0  1  0  0  3  0  0  0  0  0  0
  186.7100  178.6500  138.9700 N   0  0  1  0  0  0  0  0  0  0  0  0
  183.7550  177.4590  138.3960 N   0  0  0  0  0  0  0  0  0  0  0  0
  183.5270  175.4860  136.1880 O   0  0  0  0  0  0  0  0  0  0  0  0
  181.7920  177.0040  136.8550 C   0  0  1  0  0  3  0  0  0  0  0  0
  186.2980  173.7600  135.9140 O   0  0  0  0  0  0  0  0  0  0  0  0
  188.1060  175.9590  135.3860 O   0  0  0  0  0  1  0  0  0  0  0  0
  184.5540  178.6140  138.8230 C   0  0  2  0  0  3  0  0  0  0  0  0
  182.5610  178.0120  137.7170 C   0  0  1  0  0  3  0  0  0  0  0  0
  185.7340  178.8120  137.8990 C   0  0  0  0  0  2  0  0  0  0  0  0
  182.6480  176.4670  135.7000 C   0  0  2  0  0  3  0  0  0  0  0  0
  181.6250  178.8020  138.6350 C   0  0  0  0  0  1  0  0  0  0  0  0
  184.1020  172.6900  136.1280 C   0  0  0  0  0  2  0  0  0  0  0  0
  182.8300  172.3120  135.3830 C   0  0  2  0  0  3  0  0  0  0  0  0
  182.2350  171.1360  135.9700 N   0  0  0  0  0  0  0  0  0  0  0  0
  182.9600  171.0960  134.7880 O   0  0  0  0  0  0  0  0  0  0  0  0
  180.9220  171.1740  135.6230 O   0  0  0  0  0  0  0  0  0  0  0  0
  180.2430  171.3270  136.8340 C   0  0  0  0  0  2  0  0  0  0  0  0
  179.2840  173.1250  135.5830 O   0  0  0  0  0  1  0  0  0  0  0  0
  178.9330  173.0600  137.8370 O   0  0  0  0  0  1  0  0  0  0  0  0
  179.0760  172.2920  136.6830 C   0  0  0  0  0  3  0  0  0  0  0  0
  188.6170  177.5450  139.7970 N   0  0  0  0  0  2  0  0  0  0  0  0
  188.0890  178.1430  141.0170 C   0  0  0  0  0  2  0  0  0  0  0  0
  188.7050  177.1700  142.4950 P   0  0  0  0  0  2  0  0  0  0  0  0
  187.1470  177.0560  143.2640 O   0  0  0  0  0  0  0  0  0  0  0  0
  187.0840  178.1130  144.1830 C   0  0  2  0  0  3  0  0  0  0  0  0
  189.7740  177.0980  147.3770 C   0  0  0  0  0  3  0  0  0  0  0  0
  188.3980  177.1380  147.6150 C   0  0  0  0  0  3  0  0  0  0  0  0
  189.4080  177.8000  145.0870 C   0  0  0  0  0  3  0  0  0  0  0  0
  190.2820  177.4420  146.1210 C   0  0  0  0  0  0  0  0  0  0  0  0
  187.5290  177.5050  146.5860 C   0  0  0  0  0  3  0  0  0  0  0  0
  188.0280  177.8370  145.3190 C   0  0  0  0  0  0  0  0  0  0  0  0
  191.6810  177.3730  145.8790 N   0  0  0  0  0  1  0  0  0  0  0  0
  185.3340  178.2630  144.8510 P   0  0  0  0  0  2  0  0  0  0  0  0
  184.7240  179.4290  143.5270 C   0  0  0  0  0  2  0  0  0  0  0  0
  183.6000  178.7860  142.7370 C   0  0  0  0  0  1  0  0  0  0  0  0
  2 18  1  6  0  0  0
  2  4  1  0  0  0  0
  2 10  1  0  0  0  0
  2  1  1  0  0  0  0
  6  1  1  0  0  0  0
  7 12  1  0  0  0  0
  7 15  1  0  0  0  0
 10  4  1  1  0  0  0
 10 11  1  0  0  0  0
 11 13  1  0  0  0  0
 11 33  1  1  0  0  0
 12 17  1  0  0  0  0
 12 24  1  1  0  0  0
 13 21  1  6  0  0  0
 13  9  1  0  0  0  0
 14 19  1  0  0  0  0
 14  5  1  0  0  0  0
 16  3  1  1  0  0  0
 16 20  1  0  0  0  0
 17  6  1  0  0  0  0
 19 21  1  6  0  0  0
 19  9  1  0  0  0  0
 20 14  1  0  0  0  0
 20 23  1  1  0  0  0
 22  8  1  6  0  0  0
 22 15  1  0  0  0  0
 22 16  1  0  0  0  0
 25 26  1  0  0  0  0
 25 24  1  1  0  0  0
 27 25  1  0  0  0  0
 27 26  1  0  0  0  0
 28 26  1  0  0  0  0
 28 29  1  0  0  0  0
 30 32  1  0  0  0  0
 32 29  1  0  0  0  0
 32 31  1  0  0  0  0
 33 34  1  0  0  0  0
 34 35  1  0  0  0  0
 35 36  1  0  0  0  0
 37 36  1  6  0  0  0
 37 45  1  0  0  0  0
 37 43  1  0  0  0  0
 38 39  1  0  0  0  0
 40 43  2  0  0  0  0
 40 41  1  0  0  0  0
 41 38  2  0  0  0  0
 42 39  2  0  0  0  0
 43 42  1  0  0  0  0
 44 41  1  0  0  0  0
 46 45  1  0  0  0  0
 47 46  1  0  0  0  0
M  END
>  <MODEL>
8

>  <REMARK>
 VINA RESULT:      -5.2      1.849      2.620
  Name = 
  13 active torsions:
  status: ('A' for Active; 'I' for Inactive)
    1  A    between atoms: C_2  and  C_5
    2  A    between atoms: C_2  and  C_28
    3  A    between atoms: C_12  and  O_36
    4  A    between atoms: C_12  and  C_37
    5  A    between atoms: C_14  and  P_26
    6  A    between atoms: N_15  and  O_36
    7  A    between atoms: C_16  and  N_20
    8  A    between atoms: C_16  and  P_22
    9  A    between atoms: N_20  and  C_25
   10  A    between atoms: P_22  and  O_41
   11  A    between atoms: P_26  and  C_39
   12  A    between atoms: C_39  and  C_40
   13  A    between atoms: C_39  and  O_41
                            x       y       z     vdW  Elec       q    Type
                         _______ _______ _______ _____ _____    ______ ____

>  <TORSDO>
F 13

$$$$
=
 OpenBabel11062417293D

 47 51  0  0  1  0  0  0  0  0999 V2000
  184.3260  178.1430  139.8390 C   0  0  0  0  0  2  0  0  0  0  0  0
  184.0810  179.1060  138.6800 C   0  0  2  0  0  0  0  0  0  0  0  0
  189.0840  174.3340  137.2240 C   0  0  0  0  0  1  0  0  0  0  0  0
  182.6280  179.4700  138.4880 C   0  0  0  0  0  2  0  0  0  0  0  0
  186.0840  174.0750  137.2220 C   0  0  0  0  0  1  0  0  0  0  0  0
  185.7600  177.6330  139.8520 C   0  0  0  0  0  2  0  0  0  0  0  0
  188.1720  178.2370  138.4200 C   0  0  0  0  0  2  0  0  0  0  0  0
  190.3520  177.1690  136.9230 C   0  0  0  0  0  1  0  0  0  0  0  0
  183.7010  175.2140  136.2430 C   0  0  0  0  0  2  0  0  0  0  0  0
  183.3620  178.6760  137.4030 C   0  0  2  0  0  3  0  0  0  0  0  0
  183.0170  177.1640  137.3950 C   0  0  2  0  0  3  0  0  0  0  0  0
  187.9520  178.3160  139.9440 C   0  0  1  0  0  3  0  0  0  0  0  0
  183.2620  176.5870  136.0680 N   0  0  1  0  0  0  0  0  0  0  0  0
  186.2130  175.3070  136.4270 N   0  0  0  0  0  0  0  0  0  0  0  0
  188.1690  176.9000  137.9950 O   0  0  0  0  0  0  0  0  0  0  0  0
  188.7370  175.4150  136.1970 C   0  0  1  0  0  3  0  0  0  0  0  0
  186.6250  178.6530  140.2920 O   0  0  0  0  0  0  0  0  0  0  0  0
  184.9200  180.2120  138.5480 O   0  0  0  0  0  1  0  0  0  0  0  0
  185.0380  175.4640  135.5620 C   0  0  2  0  0  3  0  0  0  0  0  0
  187.3790  175.1940  135.5210 C   0  0  1  0  0  3  0  0  0  0  0  0
  184.5840  176.9060  135.5420 C   0  0  0  0  0  2  0  0  0  0  0  0
  188.8650  176.8300  136.7770 C   0  0  2  0  0  3  0  0  0  0  0  0
  187.3790  173.9370  134.6490 C   0  0  0  0  0  1  0  0  0  0  0  0
  188.5070  177.1700  140.8170 C   0  0  0  0  0  2  0  0  0  0  0  0
  189.5800  177.5990  141.8060 C   0  0  2  0  0  3  0  0  0  0  0  0
  189.4480  176.8640  143.0410 N   0  0  0  0  0  0  0  0  0  0  0  0
  189.0240  178.1780  142.9040 O   0  0  0  0  0  0  0  0  0  0  0  0
  190.6710  176.9050  143.6290 O   0  0  0  0  0  0  0  0  0  0  0  0
  190.4040  176.8830  144.9990 C   0  0  0  0  0  2  0  0  0  0  0  0
  192.0560  175.3530  145.8050 O   0  0  0  0  0  1  0  0  0  0  0  0
  191.5050  177.1430  147.1080 O   0  0  0  0  0  1  0  0  0  0  0  0
  191.6850  176.6990  145.8000 C   0  0  0  0  0  3  0  0  0  0  0  0
  181.6040  176.9690  137.6950 N   0  0  0  0  0  2  0  0  0  0  0  0
  181.4740  176.0260  138.8000 C   0  0  0  0  0  2  0  0  0  0  0  0
  179.6560  175.7780  139.1830 P   0  0  0  0  0  2  0  0  0  0  0  0
  179.7300  176.5100  140.7610 O   0  0  0  0  0  0  0  0  0  0  0  0
  180.2750  177.7890  140.5750 C   0  0  2  0  0  3  0  0  0  0  0  0
  181.9560  178.9710  144.3500 C   0  0  0  0  0  3  0  0  0  0  0  0
  180.6090  178.6100  144.2730 C   0  0  0  0  0  3  0  0  0  0  0  0
  182.1890  178.6450  141.9610 C   0  0  0  0  0  3  0  0  0  0  0  0
  182.7440  179.0030  143.1960 C   0  0  0  0  0  0  0  0  0  0  0  0
  180.0550  178.2630  143.0390 C   0  0  0  0  0  3  0  0  0  0  0  0
  180.8410  178.2790  141.8780 C   0  0  0  0  0  0  0  0  0  0  0  0
  184.1200  179.3450  143.2860 N   0  0  0  0  0  1  0  0  0  0  0  0
  178.9310  178.9680  139.9990 P   0  0  0  0  0  2  0  0  0  0  0  0
  179.8870  180.5330  140.3500 C   0  0  0  0  0  2  0  0  0  0  0  0
  178.9380  181.7040  140.5140 C   0  0  0  0  0  1  0  0  0  0  0  0
  1  6  1  0  0  0  0
  2 18  1  6  0  0  0
  2  1  1  0  0  0  0
  4  2  1  0  0  0  0
  6 17  1  0  0  0  0
  7 12  1  0  0  0  0
 10  4  1  1  0  0  0
 10  2  1  0  0  0  0
 11 10  1  0  0  0  0
 11 33  1  6  0  0  0
 12 17  1  0  0  0  0
 12 24  1  1  0  0  0
 13 21  1  1  0  0  0
 13  9  1  0  0  0  0
 13 11  1  0  0  0  0
 14  5  1  0  0  0  0
 15  7  1  0  0  0  0
 16 22  1  0  0  0  0
 16  3  1  1  0  0  0
 19 21  1  1  0  0  0
 19  9  1  0  0  0  0
 19 14  1  0  0  0  0
 20 23  1  1  0  0  0
 20 16  1  0  0  0  0
 20 14  1  0  0  0  0
 22  8  1  1  0  0  0
 22 15  1  0  0  0  0
 25 24  1  6  0  0  0
 25 27  1  0  0  0  0
 25 26  1  0  0  0  0
 26 28  1  0  0  0  0
 27 26  1  0  0  0  0
 28 29  1  0  0  0  0
 29 32  1  0  0  0  0
 32 30  1  0  0  0  0
 32 31  1  0  0  0  0
 33 34  1  0  0  0  0
 34 35  1  0  0  0  0
 35 36  1  0  0  0  0
 37 45  1  1  0  0  0
 37 36  1  0  0  0  0
 37 43  1  0  0  0  0
 39 38  1  0  0  0  0
 40 41  1  0  0  0  0
 41 44  1  0  0  0  0
 41 38  2  0  0  0  0
 42 39  2  0  0  0  0
 43 40  2  0  0  0  0
 43 42  1  0  0  0  0
 45 46  1  0  0  0  0
 46 47  1  0  0  0  0
M  END
>  <MODEL>
9

>  <REMARK>
 VINA RESULT:      -5.1      4.235      8.783
  Name = 
  13 active torsions:
  status: ('A' for Active; 'I' for Inactive)
    1  A    between atoms: C_2  and  C_5
    2  A    between atoms: C_2  and  C_28
    3  A    between atoms: C_12  and  O_36
    4  A    between atoms: C_12  and  C_37
    5  A    between atoms: C_14  and  P_26
    6  A    between atoms: N_15  and  O_36
    7  A    between atoms: C_16  and  N_20
    8  A    between atoms: C_16  and  P_22
    9  A    between atoms: N_20  and  C_25
   10  A    between atoms: P_22  and  O_41
   11  A    between atoms: P_26  and  C_39
   12  A    between atoms: C_39  and  C_40
   13  A    between atoms: C_39  and  O_41
                            x       y       z     vdW  Elec       q    Type
                         _______ _______ _______ _____ _____    ______ ____

>  <TORSDO>
F 13

$$$$
