=
 OpenBabel11062416443D

 57 62  0  0  1  0  0  0  0  0999 V2000
  187.4400  177.5230  143.6520 C   0  0  0  0  0  0  0  0  0  0  0  0
  186.4070  177.1630  143.0240 O   0  0  0  0  0  0  0  0  0  0  0  0
  188.7220  177.4500  143.0030 N   0  0  0  0  0  0  0  0  0  0  0  0
  186.1100  178.7200  147.0150 C   0  0  0  0  0  3  0  0  0  0  0  0
  187.3340  177.9080  145.0760 C   0  0  0  0  0  0  0  0  0  0  0  0
  187.1480  178.3070  147.8530 C   0  0  0  0  0  3  0  0  0  0  0  0
  186.1880  178.5400  145.6250 C   0  0  0  0  0  0  0  0  0  0  0  0
  188.3720  177.5120  145.9310 C   0  0  0  0  0  3  0  0  0  0  0  0
  188.2840  177.7140  147.3090 C   0  0  0  0  0  3  0  0  0  0  0  0
  185.0940  179.1060  144.8020 C   0  0  0  0  0  0  0  0  0  0  0  0
  185.3380  180.0480  144.0020 O   0  0  0  0  0  0  0  0  0  0  0  0
  183.7200  178.5250  144.8200 C   0  0  0  0  0  2  0  0  0  0  0  0
  182.8610  179.1950  143.7610 C   0  0  0  0  0  2  0  0  0  0  0  0
  181.4200  178.7470  143.8860 C   0  0  0  0  0  2  0  0  0  0  0  0
  180.8610  178.3650  142.5250 C   0  0  0  0  0  2  0  0  0  0  0  0
  182.4190  180.0930  138.4360 O   0  0  0  0  0  1  0  0  0  0  0  0
  182.2530  178.0750  140.4950 C   0  0  0  0  0  2  0  0  0  0  0  0
  179.7990  179.0020  137.6450 C   0  0  1  0  0  3  0  0  0  0  0  0
  181.2090  180.1080  139.1370 C   0  0  2  0  0  3  0  0  0  0  0  0
  181.0510  178.8810  140.0460 C   0  0  1  0  0  0  0  0  0  0  0  0
  180.0260  176.6580  138.3330 O   0  0  0  0  0  1  0  0  0  0  0  0
  179.8070  178.2230  140.0240 O   0  0  0  0  0  0  0  0  0  0  0  0
  179.4790  177.8940  138.6860 C   0  0  1  0  0  3  0  0  0  0  0  0
  180.1100  180.2450  138.2550 O   0  0  0  0  0  0  0  0  0  0  0  0
  181.6360  179.0950  141.4390 C   0  0  1  0  0  3  0  0  0  0  0  0
  180.8200  178.6120  136.7680 O   0  0  0  0  0  1  0  0  0  0  0  0
  188.9760  176.5000  142.0290 O   0  0  0  0  0  0  0  0  0  0  0  0
  191.5950  176.8320  139.4440 C   0  0  0  0  0  3  0  0  0  0  0  0
  190.8720  177.4070  138.3930 C   0  0  0  0  0  3  0  0  0  0  0  0
  188.8780  177.3680  139.7530 C   0  0  0  0  0  3  0  0  0  0  0  0
  189.5080  177.6720  138.5470 C   0  0  0  0  0  0  0  0  0  0  0  0
  190.9580  176.5280  140.6490 C   0  0  0  0  0  3  0  0  0  0  0  0
  189.5990  176.8070  140.8140 C   0  0  0  0  0  0  0  0  0  0  0  0
  188.3850  179.8370  137.4530 O   0  0  0  0  0  0  0  0  0  0  0  0
  189.3430  178.1850  135.9390 O   0  0  0  0  0  0  0  0  0  0  0  0
  188.5840  178.3640  137.2230 S   0  0  0  0  0  0  0  0  0  0  0  0
  186.0010  177.9550  138.0490 C   0  0  0  0  0  2  0  0  0  0  0  0
  185.5390  175.7410  136.0720 C   0  0  2  0  0  0  0  0  0  0  0  0
  183.5660  173.2080  136.7450 C   0  0  0  0  0  0  0  0  0  0  0  0
  182.9490  174.2250  137.3610 C   0  0  0  0  0  3  0  0  0  0  0  0
  186.8730  176.4510  136.2050 C   0  0  0  0  0  0  0  0  0  0  0  0
  186.4750  173.6440  137.2410 C   0  0  0  0  0  1  0  0  0  0  0  0
  185.7790  174.2140  136.0080 C   0  0  1  0  0  3  0  0  0  0  0  0
  184.9620  176.1590  134.8670 O   0  0  0  0  0  1  0  0  0  0  0  0
  184.5940  176.1000  137.2450 C   0  0  2  0  0  3  0  0  0  0  0  0
  187.8260  176.1070  135.4530 O   0  0  0  0  0  0  0  0  0  0  0  0
  183.1530  175.6620  136.9920 C   0  0  0  0  0  2  0  0  0  0  0  0
  184.6200  177.5900  137.5310 C   0  0  0  0  0  2  0  0  0  0  0  0
  187.0450  177.5660  137.1030 N   0  0  0  0  0  0  0  0  0  0  0  0
  183.2300  171.5710  137.2760 Cl  0  0  0  0  0  0  0  0  0  0  0  0
  184.5350  173.4100  135.6130 C   0  0  0  0  0  2  0  0  0  0  0  0
  189.6600  178.5570  143.1460 C   0  0  0  0  0  2  0  0  0  0  0  0
  191.0670  178.0440  143.4340 C   0  0  1  0  0  3  0  0  0  0  0  0
  191.8440  179.0780  143.9310 F   0  0  0  0  0  0  0  0  0  0  0  0
  191.6470  175.7740  143.8730 F   0  0  0  0  0  0  0  0  0  0  0  0
  191.0480  176.8910  144.4270 C   0  0  0  0  0  3  0  0  0  0  0  0
  191.7040  177.2410  145.5940 F   0  0  0  0  0  0  0  0  0  0  0  0
  1  5  1  0  0  0  0
  2  1  2  0  0  0  0
  3 52  1  0  0  0  0
  3  1  1  0  0  0  0
  4  6  1  0  0  0  0
  5  7  1  0  0  0  0
  5  8  2  0  0  0  0
  7  4  2  0  0  0  0
  8  9  1  0  0  0  0
  9  6  2  0  0  0  0
 10 12  1  0  0  0  0
 10  7  1  0  0  0  0
 11 10  2  0  0  0  0
 13 14  1  0  0  0  0
 13 12  1  0  0  0  0
 15 14  1  0  0  0  0
 17 25  1  0  0  0  0
 18 26  1  1  0  0  0
 18 24  1  0  0  0  0
 18 23  1  0  0  0  0
 19 16  1  6  0  0  0
 19 20  1  0  0  0  0
 20 17  1  6  0  0  0
 20 25  1  0  0  0  0
 22 20  1  0  0  0  0
 23 21  1  6  0  0  0
 23 22  1  0  0  0  0
 24 19  1  0  0  0  0
 25 15  1  1  0  0  0
 27  3  1  0  0  0  0
 28 32  1  0  0  0  0
 29 31  1  0  0  0  0
 29 28  2  0  0  0  0
 30 33  1  0  0  0  0
 31 30  2  0  0  0  0
 32 33  2  0  0  0  0
 33 27  1  0  0  0  0
 35 36  2  0  0  0  0
 36 34  2  0  0  0  0
 36 31  1  0  0  0  0
 38 44  1  6  0  0  0
 38 41  1  0  0  0  0
 38 45  1  0  0  0  0
 39 50  1  0  0  0  0
 39 40  2  0  0  0  0
 41 49  1  0  0  0  0
 43 38  1  0  0  0  0
 43 42  1  1  0  0  0
 45 47  1  6  0  0  0
 45 48  1  0  0  0  0
 46 41  2  0  0  0  0
 47 40  1  0  0  0  0
 48 37  1  0  0  0  0
 49 36  1  0  0  0  0
 49 37  1  0  0  0  0
 51 43  1  0  0  0  0
 51 39  1  0  0  0  0
 52 53  1  0  0  0  0
 53 54  1  1  0  0  0
 53 56  1  0  0  0  0
 55 56  1  0  0  0  0
 56 57  1  0  0  0  0
M  END
>  <MODEL>
1

>  <REMARK>
 VINA RESULT:      -9.1      0.000      0.000
  Name = 
  14 active torsions:
  status: ('A' for Active; 'I' for Inactive)
    1  A    between atoms: C_6  and  C_21
    2  A    between atoms: C_8  and  C_32
    3  A    between atoms: C_8  and  C_45
    4  A    between atoms: C_11  and  C_14
    5  A    between atoms: C_14  and  C_57
    6  A    between atoms: O_31  and  C_50
    7  A    between atoms: O_31  and  N_56
    8  A    between atoms: C_40  and  S_42
    9  A    between atoms: S_42  and  N_48
   10  A    between atoms: C_44  and  C_45
   11  A    between atoms: C_44  and  C_46
   12  A    between atoms: C_46  and  C_54
   13  A    between atoms: C_52  and  C_54
   14  A    between atoms: N_56  and  C_57
                            x       y       z     vdW  Elec       q    Type
                         _______ _______ _______ _____ _____    ______ ____

>  <TORSDO>
F 14

$$$$
=
 OpenBabel11062416443D

 57 62  0  0  1  0  0  0  0  0999 V2000
  189.2190  178.2310  142.8270 C   0  0  0  0  0  0  0  0  0  0  0  0
  188.7170  179.3740  142.6420 O   0  0  0  0  0  0  0  0  0  0  0  0
  189.1860  177.2650  141.7610 N   0  0  0  0  0  0  0  0  0  0  0  0
  189.4620  177.0040  146.4250 C   0  0  0  0  0  3  0  0  0  0  0  0
  189.7300  177.8630  144.1650 C   0  0  0  0  0  0  0  0  0  0  0  0
  190.8470  176.8950  146.5570 C   0  0  0  0  0  3  0  0  0  0  0  0
  188.8840  177.4950  145.2430 C   0  0  0  0  0  0  0  0  0  0  0  0
  191.1200  177.7590  144.3190 C   0  0  0  0  0  3  0  0  0  0  0  0
  191.6760  177.2840  145.5080 C   0  0  0  0  0  3  0  0  0  0  0  0
  187.4140  177.6800  145.2300 C   0  0  0  0  0  0  0  0  0  0  0  0
  186.8590  178.3310  146.1550 O   0  0  0  0  0  0  0  0  0  0  0  0
  186.5740  177.2000  144.0940 C   0  0  0  0  0  2  0  0  0  0  0  0
  185.3460  178.0820  143.9500 C   0  0  0  0  0  2  0  0  0  0  0  0
  185.2170  178.5840  142.5270 C   0  0  0  0  0  2  0  0  0  0  0  0
  183.7590  178.6110  142.1020 C   0  0  0  0  0  2  0  0  0  0  0  0
  182.2930  177.7910  137.7080 O   0  0  0  0  0  1  0  0  0  0  0  0
  182.5540  177.1430  140.5110 C   0  0  0  0  0  2  0  0  0  0  0  0
  180.2010  179.6210  138.6860 C   0  0  1  0  0  3  0  0  0  0  0  0
  182.4190  178.9140  138.5320 C   0  0  2  0  0  3  0  0  0  0  0  0
  182.3060  178.5550  140.0200 C   0  0  1  0  0  0  0  0  0  0  0  0
  179.3910  178.4150  140.6620 O   0  0  0  0  0  1  0  0  0  0  0  0
  181.4900  179.3790  140.8180 O   0  0  0  0  0  0  0  0  0  0  0  0
  180.2040  179.4660  140.2320 C   0  0  1  0  0  3  0  0  0  0  0  0
  181.4890  179.9190  138.1690 O   0  0  0  0  0  0  0  0  0  0  0  0
  183.6490  178.1900  140.6450 C   0  0  1  0  0  3  0  0  0  0  0  0
  179.6630  178.4940  138.0510 O   0  0  0  0  0  1  0  0  0  0  0  0
  188.1700  177.2730  140.8210 O   0  0  0  0  0  0  0  0  0  0  0  0
  189.1190  179.2560  137.8520 C   0  0  0  0  0  3  0  0  0  0  0  0
  188.8000  178.3700  136.8170 C   0  0  0  0  0  3  0  0  0  0  0  0
  188.0720  176.7430  138.4430 C   0  0  0  0  0  3  0  0  0  0  0  0
  188.2790  177.1080  137.1140 C   0  0  0  0  0  0  0  0  0  0  0  0
  188.9120  178.8830  139.1820 C   0  0  0  0  0  3  0  0  0  0  0  0
  188.3750  177.6300  139.4840 C   0  0  0  0  0  0  0  0  0  0  0  0
  187.4730  176.7260  134.5940 O   0  0  0  0  0  0  0  0  0  0  0  0
  189.1330  175.1820  135.4860 O   0  0  0  0  0  0  0  0  0  0  0  0
  187.9030  175.9760  135.8240 S   0  0  0  0  0  0  0  0  0  0  0  0
  186.9640  173.4780  136.4530 C   0  0  0  0  0  2  0  0  0  0  0  0
  184.1690  174.4650  136.9380 C   0  0  2  0  0  0  0  0  0  0  0  0
  181.5440  172.6090  136.2820 C   0  0  0  0  0  0  0  0  0  0  0  0
  182.4370  171.7060  136.7050 C   0  0  0  0  0  3  0  0  0  0  0  0
  185.2890  175.3800  136.4820 C   0  0  0  0  0  0  0  0  0  0  0  0
  183.1000  174.5140  134.5940 C   0  0  0  0  0  1  0  0  0  0  0  0
  182.9050  174.7460  136.0900 C   0  0  1  0  0  3  0  0  0  0  0  0
  183.8930  174.7750  138.2750 O   0  0  0  0  0  1  0  0  0  0  0  0
  184.5820  172.9760  136.8320 C   0  0  2  0  0  3  0  0  0  0  0  0
  185.0440  176.6050  136.3070 O   0  0  0  0  0  0  0  0  0  0  0  0
  183.6170  172.0450  137.5620 C   0  0  0  0  0  2  0  0  0  0  0  0
  185.9850  172.7600  137.3670 C   0  0  0  0  0  2  0  0  0  0  0  0
  186.6410  174.8990  136.3380 N   0  0  0  0  0  0  0  0  0  0  0  0
  180.2040  172.0710  135.2860 Cl  0  0  0  0  0  0  0  0  0  0  0  0
  181.6390  174.0700  136.6280 C   0  0  0  0  0  2  0  0  0  0  0  0
  190.3730  176.4650  141.4840 C   0  0  0  0  0  2  0  0  0  0  0  0
  191.5080  177.3380  140.9610 C   0  0  1  0  0  3  0  0  0  0  0  0
  192.5960  177.2430  141.8130 F   0  0  0  0  0  0  0  0  0  0  0  0
  193.2460  176.5380  139.5390 F   0  0  0  0  0  0  0  0  0  0  0  0
  191.9200  176.9330  139.5520 C   0  0  0  0  0  3  0  0  0  0  0  0
  191.1220  175.9020  139.0870 F   0  0  0  0  0  0  0  0  0  0  0  0
  1  5  1  0  0  0  0
  2  1  2  0  0  0  0
  3  1  1  0  0  0  0
  4  6  1  0  0  0  0
  5  8  2  0  0  0  0
  5  7  1  0  0  0  0
  7  4  2  0  0  0  0
  8  9  1  0  0  0  0
  9  6  2  0  0  0  0
 10  7  1  0  0  0  0
 10 11  2  0  0  0  0
 12 10  1  0  0  0  0
 13 12  1  0  0  0  0
 14 13  1  0  0  0  0
 15 14  1  0  0  0  0
 17 25  1  0  0  0  0
 18 26  1  6  0  0  0
 18 23  1  0  0  0  0
 19 16  1  6  0  0  0
 19 20  1  0  0  0  0
 20 17  1  6  0  0  0
 20 25  1  0  0  0  0
 20 22  1  0  0  0  0
 23 21  1  6  0  0  0
 23 22  1  0  0  0  0
 24 19  1  0  0  0  0
 24 18  1  0  0  0  0
 25 15  1  1  0  0  0
 27  3  1  0  0  0  0
 28 32  1  0  0  0  0
 29 31  1  0  0  0  0
 29 28  2  0  0  0  0
 30 33  1  0  0  0  0
 31 30  2  0  0  0  0
 32 33  2  0  0  0  0
 33 27  1  0  0  0  0
 34 36  2  0  0  0  0
 35 36  2  0  0  0  0
 36 49  1  0  0  0  0
 36 31  1  0  0  0  0
 37 48  1  0  0  0  0
 38 44  1  1  0  0  0
 39 51  1  0  0  0  0
 39 40  2  0  0  0  0
 40 47  1  0  0  0  0
 41 38  1  0  0  0  0
 43 42  1  6  0  0  0
 43 51  1  0  0  0  0
 43 38  1  0  0  0  0
 45 38  1  0  0  0  0
 45 48  1  1  0  0  0
 45 47  1  0  0  0  0
 46 41  2  0  0  0  0
 49 37  1  0  0  0  0
 49 41  1  0  0  0  0
 50 39  1  0  0  0  0
 52  3  1  0  0  0  0
 53 52  1  0  0  0  0
 53 54  1  1  0  0  0
 55 56  1  0  0  0  0
 56 53  1  0  0  0  0
 57 56  1  0  0  0  0
M  END
>  <MODEL>
2

>  <REMARK>
 VINA RESULT:      -8.8      1.937      3.144
  Name = 
  14 active torsions:
  status: ('A' for Active; 'I' for Inactive)
    1  A    between atoms: C_6  and  C_21
    2  A    between atoms: C_8  and  C_32
    3  A    between atoms: C_8  and  C_45
    4  A    between atoms: C_11  and  C_14
    5  A    between atoms: C_14  and  C_57
    6  A    between atoms: O_31  and  C_50
    7  A    between atoms: O_31  and  N_56
    8  A    between atoms: C_40  and  S_42
    9  A    between atoms: S_42  and  N_48
   10  A    between atoms: C_44  and  C_45
   11  A    between atoms: C_44  and  C_46
   12  A    between atoms: C_46  and  C_54
   13  A    between atoms: C_52  and  C_54
   14  A    between atoms: N_56  and  C_57
                            x       y       z     vdW  Elec       q    Type
                         _______ _______ _______ _____ _____    ______ ____

>  <TORSDO>
F 14

$$$$
=
 OpenBabel11062416443D

 57 62  0  0  1  0  0  0  0  0999 V2000
  188.3980  176.5630  142.8410 C   0  0  0  0  0  0  0  0  0  0  0  0
  188.4680  175.3240  142.6120 O   0  0  0  0  0  0  0  0  0  0  0  0
  188.4630  177.4890  141.7420 N   0  0  0  0  0  0  0  0  0  0  0  0
  189.3700  178.0660  146.2030 C   0  0  0  0  0  3  0  0  0  0  0  0
  188.3620  177.0480  144.2370 C   0  0  0  0  0  0  0  0  0  0  0  0
  188.1080  178.2310  146.7760 C   0  0  0  0  0  3  0  0  0  0  0  0
  189.5200  177.4680  144.9420 C   0  0  0  0  0  0  0  0  0  0  0  0
  187.1030  177.2100  144.8330 C   0  0  0  0  0  3  0  0  0  0  0  0
  186.9750  177.7930  146.0950 C   0  0  0  0  0  3  0  0  0  0  0  0
  190.9010  177.2320  144.4590 C   0  0  0  0  0  0  0  0  0  0  0  0
  191.5610  176.2570  144.9090 O   0  0  0  0  0  0  0  0  0  0  0  0
  191.5040  178.0610  143.3760 C   0  0  0  0  0  2  0  0  0  0  0  0
  192.1590  177.1620  142.3400 C   0  0  0  0  0  2  0  0  0  0  0  0
  191.9300  177.7060  140.9460 C   0  0  0  0  0  2  0  0  0  0  0  0
  192.8570  177.0280  139.9510 C   0  0  0  0  0  2  0  0  0  0  0  0
  191.4040  174.2610  136.4350 O   0  0  0  0  0  1  0  0  0  0  0  0
  192.0400  176.8160  137.6210 C   0  0  0  0  0  2  0  0  0  0  0  0
  194.3310  174.0520  136.1680 C   0  0  1  0  0  3  0  0  0  0  0  0
  192.3790  174.1860  137.4360 C   0  0  2  0  0  3  0  0  0  0  0  0
  192.8710  175.5740  137.8700 C   0  0  1  0  0  0  0  0  0  0  0  0
  194.9610  176.4080  135.9040 O   0  0  0  0  0  1  0  0  0  0  0  0
  194.2600  175.7460  138.0090 O   0  0  0  0  0  0  0  0  0  0  0  0
  194.9000  175.3470  136.8110 C   0  0  1  0  0  3  0  0  0  0  0  0
  193.4540  173.3540  137.0390 O   0  0  0  0  0  0  0  0  0  0  0  0
  192.0370  176.1720  138.9990 C   0  0  1  0  0  3  0  0  0  0  0  0
  193.7060  174.3110  134.9410 O   0  0  0  0  0  1  0  0  0  0  0  0
  189.1700  177.1830  140.5920 O   0  0  0  0  0  0  0  0  0  0  0  0
  188.5380  179.0600  137.4730 C   0  0  0  0  0  3  0  0  0  0  0  0
  187.7840  178.1350  136.7440 C   0  0  0  0  0  3  0  0  0  0  0  0
  187.9600  176.5640  138.5680 C   0  0  0  0  0  3  0  0  0  0  0  0
  187.4970  176.8810  137.2910 C   0  0  0  0  0  0  0  0  0  0  0  0
  189.0010  178.7360  138.7500 C   0  0  0  0  0  3  0  0  0  0  0  0
  188.7030  177.4910  139.3090 C   0  0  0  0  0  0  0  0  0  0  0  0
  187.0380  175.6940  134.9410 O   0  0  0  0  0  0  0  0  0  0  0  0
  186.8090  174.3320  136.9490 O   0  0  0  0  0  0  0  0  0  0  0  0
  186.5770  175.7000  136.3730 S   0  0  0  0  0  0  0  0  0  0  0  0
  184.4260  177.2880  135.7640 C   0  0  0  0  0  2  0  0  0  0  0  0
  182.5240  175.6280  137.3900 C   0  0  2  0  0  0  0  0  0  0  0  0
  179.9600  176.9610  138.9430 C   0  0  0  0  0  0  0  0  0  0  0  0
  180.0370  177.6990  137.8280 C   0  0  0  0  0  3  0  0  0  0  0  0
  184.0070  175.3220  137.3070 C   0  0  0  0  0  0  0  0  0  0  0  0
  182.7880  176.5300  139.7890 C   0  0  0  0  0  1  0  0  0  0  0  0
  182.0700  175.5480  138.8670 C   0  0  1  0  0  3  0  0  0  0  0  0
  181.8520  174.6420  136.6570 O   0  0  0  0  0  1  0  0  0  0  0  0
  182.2040  177.0190  136.7910 C   0  0  2  0  0  3  0  0  0  0  0  0
  184.4620  174.3280  137.9370 O   0  0  0  0  0  0  0  0  0  0  0  0
  180.7080  177.2340  136.5720 C   0  0  0  0  0  2  0  0  0  0  0  0
  182.9360  177.2300  135.4780 C   0  0  0  0  0  2  0  0  0  0  0  0
  184.8840  176.0830  136.4530 N   0  0  0  0  0  0  0  0  0  0  0  0
  179.1380  177.6280  140.3420 Cl  0  0  0  0  0  0  0  0  0  0  0  0
  180.5480  175.5810  139.0470 C   0  0  0  0  0  2  0  0  0  0  0  0
  187.5450  178.6210  141.7050 C   0  0  0  0  0  2  0  0  0  0  0  0
  186.1210  178.1580  141.4190 C   0  0  1  0  0  3  0  0  0  0  0  0
  185.3950  178.1340  142.5990 F   0  0  0  0  0  0  0  0  0  0  0  0
  185.4020  178.4560  139.1660 F   0  0  0  0  0  0  0  0  0  0  0  0
  185.4310  179.0630  140.4080 C   0  0  0  0  0  3  0  0  0  0  0  0
  184.1420  179.3560  140.8160 F   0  0  0  0  0  0  0  0  0  0  0  0
  1  5  1  0  0  0  0
  2  1  2  0  0  0  0
  3  1  1  0  0  0  0
  4  6  1  0  0  0  0
  5  8  2  0  0  0  0
  5  7  1  0  0  0  0
  7  4  2  0  0  0  0
  8  9  1  0  0  0  0
  9  6  2  0  0  0  0
 10 11  2  0  0  0  0
 10  7  1  0  0  0  0
 12 10  1  0  0  0  0
 13 12  1  0  0  0  0
 14 13  1  0  0  0  0
 15 14  1  0  0  0  0
 17 25  1  0  0  0  0
 18 26  1  6  0  0  0
 18 23  1  0  0  0  0
 18 24  1  0  0  0  0
 19 16  1  6  0  0  0
 19 20  1  0  0  0  0
 20 17  1  6  0  0  0
 20 22  1  0  0  0  0
 20 25  1  0  0  0  0
 23 21  1  6  0  0  0
 23 22  1  0  0  0  0
 24 19  1  0  0  0  0
 25 15  1  1  0  0  0
 27  3  1  0  0  0  0
 28 32  1  0  0  0  0
 29 31  1  0  0  0  0
 29 28  2  0  0  0  0
 30 33  1  0  0  0  0
 31 30  2  0  0  0  0
 32 33  2  0  0  0  0
 33 27  1  0  0  0  0
 34 36  2  0  0  0  0
 36 49  1  0  0  0  0
 36 35  2  0  0  0  0
 36 31  1  0  0  0  0
 37 49  1  0  0  0  0
 38 44  1  6  0  0  0
 38 43  1  0  0  0  0
 39 51  1  0  0  0  0
 39 50  1  0  0  0  0
 40 39  2  0  0  0  0
 41 38  1  0  0  0  0
 41 46  2  0  0  0  0
 43 51  1  0  0  0  0
 43 42  1  1  0  0  0
 45 48  1  6  0  0  0
 45 38  1  0  0  0  0
 47 45  1  0  0  0  0
 47 40  1  0  0  0  0
 48 37  1  0  0  0  0
 49 41  1  0  0  0  0
 52  3  1  0  0  0  0
 53 52  1  0  0  0  0
 53 54  1  1  0  0  0
 55 56  1  0  0  0  0
 56 57  1  0  0  0  0
 56 53  1  0  0  0  0
M  END
>  <MODEL>
3

>  <REMARK>
 VINA RESULT:      -8.7      3.316      7.584
  Name = 
  14 active torsions:
  status: ('A' for Active; 'I' for Inactive)
    1  A    between atoms: C_6  and  C_21
    2  A    between atoms: C_8  and  C_32
    3  A    between atoms: C_8  and  C_45
    4  A    between atoms: C_11  and  C_14
    5  A    between atoms: C_14  and  C_57
    6  A    between atoms: O_31  and  C_50
    7  A    between atoms: O_31  and  N_56
    8  A    between atoms: C_40  and  S_42
    9  A    between atoms: S_42  and  N_48
   10  A    between atoms: C_44  and  C_45
   11  A    between atoms: C_44  and  C_46
   12  A    between atoms: C_46  and  C_54
   13  A    between atoms: C_52  and  C_54
   14  A    between atoms: N_56  and  C_57
                            x       y       z     vdW  Elec       q    Type
                         _______ _______ _______ _____ _____    ______ ____

>  <TORSDO>
F 14

$$$$
=
 OpenBabel11062416443D

 57 62  0  0  1  0  0  0  0  0999 V2000
  188.0010  176.7730  143.6070 C   0  0  0  0  0  0  0  0  0  0  0  0
  187.9310  175.5570  143.2780 O   0  0  0  0  0  0  0  0  0  0  0  0
  186.7880  177.5180  143.8190 N   0  0  0  0  0  0  0  0  0  0  0  0
  191.2310  178.5470  142.6440 C   0  0  0  0  0  3  0  0  0  0  0  0
  189.3180  177.4420  143.6630 C   0  0  0  0  0  0  0  0  0  0  0  0
  191.6590  178.9820  143.8990 C   0  0  0  0  0  3  0  0  0  0  0  0
  190.0710  177.7680  142.5050 C   0  0  0  0  0  0  0  0  0  0  0  0
  189.7700  177.8770  144.9170 C   0  0  0  0  0  3  0  0  0  0  0  0
  190.9340  178.6370  145.0370 C   0  0  0  0  0  3  0  0  0  0  0  0
  189.7510  177.2580  141.1520 C   0  0  0  0  0  0  0  0  0  0  0  0
  190.0780  176.0820  140.8350 O   0  0  0  0  0  0  0  0  0  0  0  0
  188.9610  178.0640  140.1760 C   0  0  0  0  0  2  0  0  0  0  0  0
  188.5530  177.1970  138.9980 C   0  0  0  0  0  2  0  0  0  0  0  0
  188.2620  178.0550  137.7850 C   0  0  0  0  0  2  0  0  0  0  0  0
  189.4320  178.0220  136.8160 C   0  0  0  0  0  2  0  0  0  0  0  0
  191.0520  173.7580  135.6640 O   0  0  0  0  0  1  0  0  0  0  0  0
  190.7320  176.6000  135.2580 C   0  0  0  0  0  2  0  0  0  0  0  0
  193.0520  174.6230  137.6480 C   0  0  1  0  0  3  0  0  0  0  0  0
  190.8650  174.4750  136.8510 C   0  0  2  0  0  3  0  0  0  0  0  0
  190.9460  175.9920  136.6290 C   0  0  1  0  0  0  0  0  0  0  0  0
  193.8440  176.7200  136.6510 O   0  0  0  0  0  1  0  0  0  0  0  0
  191.7100  176.7350  137.5490 O   0  0  0  0  0  0  0  0  0  0  0  0
  193.0090  176.1760  137.6300 C   0  0  1  0  0  3  0  0  0  0  0  0
  191.7700  174.0480  137.8520 O   0  0  0  0  0  0  0  0  0  0  0  0
  189.5990  176.6120  136.2720 C   0  0  1  0  0  3  0  0  0  0  0  0
  193.6460  174.1060  136.4900 O   0  0  0  0  0  1  0  0  0  0  0  0
  185.6270  177.2010  143.1350 O   0  0  0  0  0  0  0  0  0  0  0  0
  185.6220  179.3680  140.1430 C   0  0  0  0  0  3  0  0  0  0  0  0
  184.2540  179.4430  139.8610 C   0  0  0  0  0  3  0  0  0  0  0  0
  183.7930  178.0130  141.7490 C   0  0  0  0  0  3  0  0  0  0  0  0
  183.3370  178.7600  140.6640 C   0  0  0  0  0  0  0  0  0  0  0  0
  186.0730  178.6170  141.2300 C   0  0  0  0  0  3  0  0  0  0  0  0
  185.1600  177.9460  142.0470 C   0  0  0  0  0  0  0  0  0  0  0  0
  180.8370  179.0610  141.5610 O   0  0  0  0  0  0  0  0  0  0  0  0
  181.3510  179.9580  139.3540 O   0  0  0  0  0  0  0  0  0  0  0  0
  181.6190  178.8210  140.3000 S   0  0  0  0  0  0  0  0  0  0  0  0
  180.3230  176.4060  140.3710 C   0  0  0  0  0  2  0  0  0  0  0  0
  181.2000  175.6600  137.5970 C   0  0  2  0  0  0  0  0  0  0  0  0
  181.7960  172.5460  136.7520 C   0  0  0  0  0  0  0  0  0  0  0  0
  180.7760  172.4220  137.6100 C   0  0  0  0  0  3  0  0  0  0  0  0
  181.6240  176.9530  138.2660 C   0  0  0  0  0  0  0  0  0  0  0  0
  183.5500  174.6540  137.9250 C   0  0  0  0  0  1  0  0  0  0  0  0
  182.4360  174.9980  136.9410 C   0  0  1  0  0  3  0  0  0  0  0  0
  180.2800  175.9900  136.5960 O   0  0  0  0  0  1  0  0  0  0  0  0
  180.5340  174.6970  138.6090 C   0  0  2  0  0  3  0  0  0  0  0  0
  182.3680  177.7530  137.6350 O   0  0  0  0  0  0  0  0  0  0  0  0
  179.8200  173.5310  137.9280 C   0  0  0  0  0  2  0  0  0  0  0  0
  179.5480  175.4350  139.4970 C   0  0  0  0  0  2  0  0  0  0  0  0
  181.1220  177.3270  139.5650 N   0  0  0  0  0  0  0  0  0  0  0  0
  182.8350  171.1620  136.4680 Cl  0  0  0  0  0  0  0  0  0  0  0  0
  182.0880  173.8250  136.0160 C   0  0  0  0  0  2  0  0  0  0  0  0
  186.6880  178.4120  144.9660 C   0  0  0  0  0  2  0  0  0  0  0  0
  186.2400  177.6530  146.2100 C   0  0  1  0  0  3  0  0  0  0  0  0
  187.3380  177.3870  147.0110 F   0  0  0  0  0  0  0  0  0  0  0  0
  185.7260  179.6610  147.3870 F   0  0  0  0  0  0  0  0  0  0  0  0
  185.2040  178.4400  147.0010 C   0  0  0  0  0  3  0  0  0  0  0  0
  184.0610  178.6380  146.2470 F   0  0  0  0  0  0  0  0  0  0  0  0
  1  5  1  0  0  0  0
  1  3  1  0  0  0  0
  2  1  2  0  0  0  0
  3 52  1  0  0  0  0
  4  6  1  0  0  0  0
  5  8  2  0  0  0  0
  6  9  2  0  0  0  0
  7  4  2  0  0  0  0
  7  5  1  0  0  0  0
  8  9  1  0  0  0  0
 10  7  1  0  0  0  0
 11 10  2  0  0  0  0
 12 10  1  0  0  0  0
 13 12  1  0  0  0  0
 14 13  1  0  0  0  0
 15 14  1  0  0  0  0
 17 25  1  0  0  0  0
 18 26  1  6  0  0  0
 18 24  1  0  0  0  0
 19 16  1  6  0  0  0
 19 24  1  0  0  0  0
 20 17  1  6  0  0  0
 20 19  1  0  0  0  0
 20 22  1  0  0  0  0
 22 23  1  0  0  0  0
 23 21  1  6  0  0  0
 23 18  1  0  0  0  0
 25 20  1  0  0  0  0
 25 15  1  1  0  0  0
 27  3  1  0  0  0  0
 28 32  1  0  0  0  0
 29 28  2  0  0  0  0
 29 31  1  0  0  0  0
 30 33  1  0  0  0  0
 31 30  2  0  0  0  0
 32 33  2  0  0  0  0
 33 27  1  0  0  0  0
 35 36  2  0  0  0  0
 36 31  1  0  0  0  0
 36 34  2  0  0  0  0
 38 44  1  6  0  0  0
 38 41  1  0  0  0  0
 38 45  1  0  0  0  0
 39 40  2  0  0  0  0
 40 47  1  0  0  0  0
 41 49  1  0  0  0  0
 43 38  1  0  0  0  0
 43 42  1  1  0  0  0
 45 47  1  6  0  0  0
 45 48  1  0  0  0  0
 46 41  2  0  0  0  0
 48 37  1  0  0  0  0
 49 36  1  0  0  0  0
 49 37  1  0  0  0  0
 50 39  1  0  0  0  0
 51 39  1  0  0  0  0
 51 43  1  0  0  0  0
 52 53  1  0  0  0  0
 53 56  1  0  0  0  0
 53 54  1  1  0  0  0
 56 55  1  0  0  0  0
 57 56  1  0  0  0  0
M  END
>  <MODEL>
4

>  <REMARK>
 VINA RESULT:      -8.6      3.034      7.461
  Name = 
  14 active torsions:
  status: ('A' for Active; 'I' for Inactive)
    1  A    between atoms: C_6  and  C_21
    2  A    between atoms: C_8  and  C_32
    3  A    between atoms: C_8  and  C_45
    4  A    between atoms: C_11  and  C_14
    5  A    between atoms: C_14  and  C_57
    6  A    between atoms: O_31  and  C_50
    7  A    between atoms: O_31  and  N_56
    8  A    between atoms: C_40  and  S_42
    9  A    between atoms: S_42  and  N_48
   10  A    between atoms: C_44  and  C_45
   11  A    between atoms: C_44  and  C_46
   12  A    between atoms: C_46  and  C_54
   13  A    between atoms: C_52  and  C_54
   14  A    between atoms: N_56  and  C_57
                            x       y       z     vdW  Elec       q    Type
                         _______ _______ _______ _____ _____    ______ ____

>  <TORSDO>
F 14

$$$$
=
 OpenBabel11062416443D

 57 62  0  0  1  0  0  0  0  0999 V2000
  188.0290  176.7680  143.6060 C   0  0  0  0  0  0  0  0  0  0  0  0
  187.9740  175.5530  143.2720 O   0  0  0  0  0  0  0  0  0  0  0  0
  186.8070  177.5030  143.7990 N   0  0  0  0  0  0  0  0  0  0  0  0
  191.2590  178.5760  142.7070 C   0  0  0  0  0  3  0  0  0  0  0  0
  189.3400  177.4470  143.6870 C   0  0  0  0  0  0  0  0  0  0  0  0
  191.6650  179.0030  143.9720 C   0  0  0  0  0  3  0  0  0  0  0  0
  190.1070  177.7890  142.5440 C   0  0  0  0  0  0  0  0  0  0  0  0
  189.7700  177.8740  144.9520 C   0  0  0  0  0  3  0  0  0  0  0  0
  190.9260  178.6420  145.0960 C   0  0  0  0  0  3  0  0  0  0  0  0
  189.8120  177.2880  141.1810 C   0  0  0  0  0  0  0  0  0  0  0  0
  190.1360  176.1120  140.8650 O   0  0  0  0  0  0  0  0  0  0  0  0
  189.0480  178.1060  140.1940 C   0  0  0  0  0  2  0  0  0  0  0  0
  188.7360  177.2730  138.9630 C   0  0  0  0  0  2  0  0  0  0  0  0
  188.7170  178.1440  137.7250 C   0  0  0  0  0  2  0  0  0  0  0  0
  188.9970  177.3120  136.4840 C   0  0  0  0  0  2  0  0  0  0  0  0
  185.7790  174.0330  135.4760 O   0  0  0  0  0  1  0  0  0  0  0  0
  188.0220  175.7370  134.8380 C   0  0  0  0  0  2  0  0  0  0  0  0
  187.8380  172.4260  136.8410 C   0  0  1  0  0  3  0  0  0  0  0  0
  186.5640  174.3630  136.5860 C   0  0  2  0  0  3  0  0  0  0  0  0
  187.8730  175.0550  136.1830 C   0  0  1  0  0  0  0  0  0  0  0  0
  189.8110  172.8990  135.4610 O   0  0  0  0  0  1  0  0  0  0  0  0
  189.0510  174.6160  136.8150 O   0  0  0  0  0  0  0  0  0  0  0  0
  189.1660  173.2130  136.6600 C   0  0  1  0  0  3  0  0  0  0  0  0
  186.8050  173.2260  137.3950 O   0  0  0  0  0  0  0  0  0  0  0  0
  187.7340  176.5710  136.0770 C   0  0  1  0  0  3  0  0  0  0  0  0
  187.4160  171.8360  135.6420 O   0  0  0  0  0  1  0  0  0  0  0  0
  185.6610  177.1800  143.0940 O   0  0  0  0  0  0  0  0  0  0  0  0
  185.6250  179.3780  140.1240 C   0  0  0  0  0  3  0  0  0  0  0  0
  184.2510  179.5010  139.8910 C   0  0  0  0  0  3  0  0  0  0  0  0
  183.8080  178.0670  141.7810 C   0  0  0  0  0  3  0  0  0  0  0  0
  183.3400  178.8400  140.7190 C   0  0  0  0  0  0  0  0  0  0  0  0
  186.0870  178.6000  141.1880 C   0  0  0  0  0  3  0  0  0  0  0  0
  185.1810  177.9510  142.0300 C   0  0  0  0  0  0  0  0  0  0  0  0
  180.8880  179.2540  141.7010 O   0  0  0  0  0  0  0  0  0  0  0  0
  181.3550  180.0930  139.4610 O   0  0  0  0  0  0  0  0  0  0  0  0
  181.6130  178.9620  140.4170 S   0  0  0  0  0  0  0  0  0  0  0  0
  180.2590  176.5840  140.5890 C   0  0  0  0  0  2  0  0  0  0  0  0
  180.9460  175.7930  137.7740 C   0  0  2  0  0  0  0  0  0  0  0  0
  181.4050  172.6580  136.9230 C   0  0  0  0  0  0  0  0  0  0  0  0
  180.4360  172.5680  137.8430 C   0  0  0  0  0  3  0  0  0  0  0  0
  181.4440  177.0790  138.4040 C   0  0  0  0  0  0  0  0  0  0  0  0
  183.2830  174.7270  137.9680 C   0  0  0  0  0  1  0  0  0  0  0  0
  182.1200  175.0920  137.0500 C   0  0  1  0  0  3  0  0  0  0  0  0
  179.9750  176.1410  136.8270 O   0  0  0  0  0  1  0  0  0  0  0  0
  180.3160  174.8560  138.8340 C   0  0  2  0  0  3  0  0  0  0  0  0
  182.1690  177.8540  137.7210 O   0  0  0  0  0  0  0  0  0  0  0  0
  179.5320  173.7050  138.2080 C   0  0  0  0  0  2  0  0  0  0  0  0
  179.4070  175.6280  139.7720 C   0  0  0  0  0  2  0  0  0  0  0  0
  181.0320  177.4770  139.7280 N   0  0  0  0  0  0  0  0  0  0  0  0
  182.3870  171.2440  136.5890 Cl  0  0  0  0  0  0  0  0  0  0  0  0
  181.6860  173.9230  136.1590 C   0  0  0  0  0  2  0  0  0  0  0  0
  186.6800  178.3920  144.9470 C   0  0  0  0  0  2  0  0  0  0  0  0
  186.2250  177.6240  146.1830 C   0  0  1  0  0  3  0  0  0  0  0  0
  187.3170  177.3610  146.9940 F   0  0  0  0  0  0  0  0  0  0  0  0
  185.6980  179.6060  147.3990 F   0  0  0  0  0  0  0  0  0  0  0  0
  185.1760  178.4000  146.9670 C   0  0  0  0  0  3  0  0  0  0  0  0
  184.0550  178.6280  146.1900 F   0  0  0  0  0  0  0  0  0  0  0  0
  1  5  1  0  0  0  0
  1  3  1  0  0  0  0
  2  1  2  0  0  0  0
  3 52  1  0  0  0  0
  4  6  1  0  0  0  0
  5  8  2  0  0  0  0
  6  9  2  0  0  0  0
  7  4  2  0  0  0  0
  7  5  1  0  0  0  0
  8  9  1  0  0  0  0
 10  7  1  0  0  0  0
 11 10  2  0  0  0  0
 12 10  1  0  0  0  0
 13 12  1  0  0  0  0
 14 13  1  0  0  0  0
 15 14  1  0  0  0  0
 17 25  1  0  0  0  0
 18 26  1  6  0  0  0
 18 24  1  0  0  0  0
 19 16  1  6  0  0  0
 19 24  1  0  0  0  0
 20 17  1  6  0  0  0
 20 19  1  0  0  0  0
 20 22  1  0  0  0  0
 23 21  1  6  0  0  0
 23 22  1  0  0  0  0
 23 18  1  0  0  0  0
 25 20  1  0  0  0  0
 25 15  1  1  0  0  0
 27  3  1  0  0  0  0
 28 32  1  0  0  0  0
 29 28  2  0  0  0  0
 29 31  1  0  0  0  0
 30 33  1  0  0  0  0
 31 30  2  0  0  0  0
 32 33  2  0  0  0  0
 33 27  1  0  0  0  0
 35 36  2  0  0  0  0
 36 31  1  0  0  0  0
 36 34  2  0  0  0  0
 38 44  1  6  0  0  0
 38 41  1  0  0  0  0
 38 45  1  0  0  0  0
 39 40  2  0  0  0  0
 40 47  1  0  0  0  0
 41 49  1  0  0  0  0
 43 38  1  0  0  0  0
 43 42  1  1  0  0  0
 45 47  1  6  0  0  0
 45 48  1  0  0  0  0
 46 41  2  0  0  0  0
 48 37  1  0  0  0  0
 49 36  1  0  0  0  0
 49 37  1  0  0  0  0
 50 39  1  0  0  0  0
 51 39  1  0  0  0  0
 51 43  1  0  0  0  0
 52 53  1  0  0  0  0
 53 56  1  0  0  0  0
 53 54  1  1  0  0  0
 56 55  1  0  0  0  0
 57 56  1  0  0  0  0
M  END
>  <MODEL>
5

>  <REMARK>
 VINA RESULT:      -8.4      2.822      6.681
  Name = 
  14 active torsions:
  status: ('A' for Active; 'I' for Inactive)
    1  A    between atoms: C_6  and  C_21
    2  A    between atoms: C_8  and  C_32
    3  A    between atoms: C_8  and  C_45
    4  A    between atoms: C_11  and  C_14
    5  A    between atoms: C_14  and  C_57
    6  A    between atoms: O_31  and  C_50
    7  A    between atoms: O_31  and  N_56
    8  A    between atoms: C_40  and  S_42
    9  A    between atoms: S_42  and  N_48
   10  A    between atoms: C_44  and  C_45
   11  A    between atoms: C_44  and  C_46
   12  A    between atoms: C_46  and  C_54
   13  A    between atoms: C_52  and  C_54
   14  A    between atoms: N_56  and  C_57
                            x       y       z     vdW  Elec       q    Type
                         _______ _______ _______ _____ _____    ______ ____

>  <TORSDO>
F 14

$$$$
=
 OpenBabel11062416443D

 57 62  0  0  1  0  0  0  0  0999 V2000
  184.5930  176.2220  136.3950 C   0  0  0  0  0  0  0  0  0  0  0  0
  184.6300  177.4830  136.3700 O   0  0  0  0  0  0  0  0  0  0  0  0
  185.8220  175.4830  136.5070 N   0  0  0  0  0  0  0  0  0  0  0  0
  180.9560  175.1290  136.6930 C   0  0  0  0  0  3  0  0  0  0  0  0
  183.3050  175.5240  136.1980 C   0  0  0  0  0  0  0  0  0  0  0  0
  180.8300  174.3670  135.5310 C   0  0  0  0  0  3  0  0  0  0  0  0
  182.1860  175.7070  137.0500 C   0  0  0  0  0  0  0  0  0  0  0  0
  183.1640  174.7440  135.0410 C   0  0  0  0  0  3  0  0  0  0  0  0
  181.9370  174.1650  134.7110 C   0  0  0  0  0  3  0  0  0  0  0  0
  182.2570  176.4060  138.3540 C   0  0  0  0  0  0  0  0  0  0  0  0
  182.9050  175.8910  139.3040 O   0  0  0  0  0  0  0  0  0  0  0  0
  181.6620  177.7600  138.5500 C   0  0  0  0  0  2  0  0  0  0  0  0
  180.8280  177.7810  139.8200 C   0  0  0  0  0  2  0  0  0  0  0  0
  180.6340  179.2030  140.3030 C   0  0  0  0  0  2  0  0  0  0  0  0
  179.8270  180.0020  139.2930 C   0  0  0  0  0  2  0  0  0  0  0  0
  181.3940  184.1180  137.6400 O   0  0  0  0  0  1  0  0  0  0  0  0
  181.6410  181.2970  138.2100 C   0  0  0  0  0  2  0  0  0  0  0  0
  179.7730  183.1600  135.3730 C   0  0  1  0  0  3  0  0  0  0  0  0
  180.1700  183.4410  137.6540 C   0  0  2  0  0  3  0  0  0  0  0  0
  180.3510  181.9180  137.7120 C   0  0  1  0  0  0  0  0  0  0  0  0
  180.8250  180.9930  134.9100 O   0  0  0  0  0  1  0  0  0  0  0  0
  179.5590  181.1450  136.8430 O   0  0  0  0  0  0  0  0  0  0  0  0
  179.7310  181.6140  135.5170 C   0  0  1  0  0  3  0  0  0  0  0  0
  179.3620  183.8270  136.5570 O   0  0  0  0  0  0  0  0  0  0  0  0
  180.4400  181.3850  139.1390 C   0  0  1  0  0  3  0  0  0  0  0  0
  181.0360  183.6100  134.9660 O   0  0  0  0  0  1  0  0  0  0  0  0
  187.0080  175.9860  136.0010 O   0  0  0  0  0  0  0  0  0  0  0  0
  188.6010  179.2230  136.8000 C   0  0  0  0  0  3  0  0  0  0  0  0
  189.2790  178.9090  137.9830 C   0  0  0  0  0  3  0  0  0  0  0  0
  188.4370  176.6510  137.8610 C   0  0  0  0  0  3  0  0  0  0  0  0
  189.1940  177.6210  138.5170 C   0  0  0  0  0  0  0  0  0  0  0  0
  187.8430  178.2470  136.1490 C   0  0  0  0  0  3  0  0  0  0  0  0
  187.7680  176.9530  136.6680 C   0  0  0  0  0  0  0  0  0  0  0  0
  190.5640  175.8260  139.9490 O   0  0  0  0  0  0  0  0  0  0  0  0
  191.1640  178.1730  140.2220 O   0  0  0  0  0  0  0  0  0  0  0  0
  190.0160  177.2250  140.0190 S   0  0  0  0  0  0  0  0  0  0  0  0
  187.8080  178.3200  141.2210 C   0  0  0  0  0  2  0  0  0  0  0  0
  188.2160  176.7760  143.7650 C   0  0  2  0  0  0  0  0  0  0  0  0
  187.3940  178.0160  146.6890 C   0  0  0  0  0  0  0  0  0  0  0  0
  186.4390  178.5080  145.8890 C   0  0  0  0  0  3  0  0  0  0  0  0
  189.1700  176.6800  142.5900 C   0  0  0  0  0  0  0  0  0  0  0  0
  189.9100  178.1880  145.0970 C   0  0  0  0  0  1  0  0  0  0  0  0
  189.0300  176.9420  145.0700 C   0  0  1  0  0  3  0  0  0  0  0  0
  187.5040  175.5720  143.8250 O   0  0  0  0  0  1  0  0  0  0  0  0
  187.2220  177.9500  143.5850 C   0  0  2  0  0  3  0  0  0  0  0  0
  190.1710  175.9160  142.6770 O   0  0  0  0  0  0  0  0  0  0  0  0
  186.0610  177.8940  144.5760 C   0  0  0  0  0  2  0  0  0  0  0  0
  186.6710  177.9870  142.1710 C   0  0  0  0  0  2  0  0  0  0  0  0
  188.9070  177.3660  141.3490 N   0  0  0  0  0  0  0  0  0  0  0  0
  187.7290  178.8330  148.2040 Cl  0  0  0  0  0  0  0  0  0  0  0  0
  188.1910  176.7890  146.3440 C   0  0  0  0  0  2  0  0  0  0  0  0
  185.8910  174.3420  137.4130 C   0  0  0  0  0  2  0  0  0  0  0  0
  186.0220  173.0370  136.6360 C   0  0  1  0  0  3  0  0  0  0  0  0
  187.2290  172.4320  136.9460 F   0  0  0  0  0  0  0  0  0  0  0  0
  183.8620  172.7570  137.6050 F   0  0  0  0  0  0  0  0  0  0  0  0
  184.8750  172.0850  136.9450 C   0  0  0  0  0  3  0  0  0  0  0  0
  184.3820  171.5210  135.7820 F   0  0  0  0  0  0  0  0  0  0  0  0
  1  3  1  0  0  0  0
  2  1  2  0  0  0  0
  3 52  1  0  0  0  0
  4  7  1  0  0  0  0
  5  1  1  0  0  0  0
  5  7  2  0  0  0  0
  6  4  2  0  0  0  0
  7 10  1  0  0  0  0
  8  5  1  0  0  0  0
  9  8  2  0  0  0  0
  9  6  1  0  0  0  0
 10 12  1  0  0  0  0
 10 11  2  0  0  0  0
 12 13  1  0  0  0  0
 13 14  1  0  0  0  0
 15 14  1  0  0  0  0
 17 25  1  0  0  0  0
 18 26  1  1  0  0  0
 18 23  1  0  0  0  0
 18 24  1  0  0  0  0
 19 16  1  6  0  0  0
 19 20  1  0  0  0  0
 20 17  1  6  0  0  0
 20 25  1  0  0  0  0
 22 20  1  0  0  0  0
 23 21  1  1  0  0  0
 23 22  1  0  0  0  0
 24 19  1  0  0  0  0
 25 15  1  6  0  0  0
 27  3  1  0  0  0  0
 27 33  1  0  0  0  0
 28 29  1  0  0  0  0
 29 31  2  0  0  0  0
 30 31  1  0  0  0  0
 31 36  1  0  0  0  0
 32 33  1  0  0  0  0
 32 28  2  0  0  0  0
 33 30  2  0  0  0  0
 34 36  2  0  0  0  0
 36 35  2  0  0  0  0
 36 49  1  0  0  0  0
 37 49  1  0  0  0  0
 37 48  1  0  0  0  0
 38 44  1  1  0  0  0
 38 43  1  0  0  0  0
 39 50  1  0  0  0  0
 40 39  2  0  0  0  0
 41 46  2  0  0  0  0
 41 38  1  0  0  0  0
 43 42  1  6  0  0  0
 43 51  1  0  0  0  0
 45 48  1  6  0  0  0
 45 38  1  0  0  0  0
 45 47  1  0  0  0  0
 47 40  1  0  0  0  0
 49 41  1  0  0  0  0
 51 39  1  0  0  0  0
 53 56  1  0  0  0  0
 53 54  1  1  0  0  0
 53 52  1  0  0  0  0
 56 55  1  0  0  0  0
 57 56  1  0  0  0  0
M  END
>  <MODEL>
6

>  <REMARK>
 VINA RESULT:      -8.3      3.707      7.914
  Name = 
  14 active torsions:
  status: ('A' for Active; 'I' for Inactive)
    1  A    between atoms: C_6  and  C_21
    2  A    between atoms: C_8  and  C_32
    3  A    between atoms: C_8  and  C_45
    4  A    between atoms: C_11  and  C_14
    5  A    between atoms: C_14  and  C_57
    6  A    between atoms: O_31  and  C_50
    7  A    between atoms: O_31  and  N_56
    8  A    between atoms: C_40  and  S_42
    9  A    between atoms: S_42  and  N_48
   10  A    between atoms: C_44  and  C_45
   11  A    between atoms: C_44  and  C_46
   12  A    between atoms: C_46  and  C_54
   13  A    between atoms: C_52  and  C_54
   14  A    between atoms: N_56  and  C_57
                            x       y       z     vdW  Elec       q    Type
                         _______ _______ _______ _____ _____    ______ ____

>  <TORSDO>
F 14

$$$$
=
 OpenBabel11062416443D

 57 62  0  0  1  0  0  0  0  0999 V2000
  187.3640  177.8330  142.8860 C   0  0  0  0  0  0  0  0  0  0  0  0
  186.3170  177.8840  142.1830 O   0  0  0  0  0  0  0  0  0  0  0  0
  188.6210  177.5270  142.2570 N   0  0  0  0  0  0  0  0  0  0  0  0
  186.0490  178.4230  146.4120 C   0  0  0  0  0  3  0  0  0  0  0  0
  187.2680  177.9780  144.3540 C   0  0  0  0  0  0  0  0  0  0  0  0
  187.1120  177.9140  147.1610 C   0  0  0  0  0  3  0  0  0  0  0  0
  186.1110  178.4730  145.0100 C   0  0  0  0  0  0  0  0  0  0  0  0
  188.3310  177.4830  145.1230 C   0  0  0  0  0  3  0  0  0  0  0  0
  188.2570  177.4550  146.5160 C   0  0  0  0  0  3  0  0  0  0  0  0
  184.9870  179.1280  144.3010 C   0  0  0  0  0  0  0  0  0  0  0  0
  185.1810  180.2140  143.6920 O   0  0  0  0  0  0  0  0  0  0  0  0
  183.6430  178.4880  144.2030 C   0  0  0  0  0  2  0  0  0  0  0  0
  182.5900  179.5390  143.8980 C   0  0  0  0  0  2  0  0  0  0  0  0
  181.5420  178.9810  142.9570 C   0  0  0  0  0  2  0  0  0  0  0  0
  182.2010  178.2670  141.7890 C   0  0  0  0  0  2  0  0  0  0  0  0
  180.5510  178.3280  137.3850 O   0  0  0  0  0  1  0  0  0  0  0  0
  182.0280  179.4310  139.6080 C   0  0  0  0  0  2  0  0  0  0  0  0
  182.9470  176.6400  137.0840 C   0  0  1  0  0  3  0  0  0  0  0  0
  181.0610  177.3570  138.2530 C   0  0  2  0  0  3  0  0  0  0  0  0
  182.0400  177.9530  139.2750 C   0  0  1  0  0  0  0  0  0  0  0  0
  184.6990  178.1360  137.9250 O   0  0  0  0  0  1  0  0  0  0  0  0
  183.2420  177.2540  139.4930 O   0  0  0  0  0  0  0  0  0  0  0  0
  183.8890  177.0450  138.2500 C   0  0  1  0  0  3  0  0  0  0  0  0
  181.6470  176.2880  137.5340 O   0  0  0  0  0  0  0  0  0  0  0  0
  181.3480  178.4430  140.5430 C   0  0  1  0  0  3  0  0  0  0  0  0
  182.8760  177.6360  136.1010 O   0  0  0  0  0  1  0  0  0  0  0  0
  188.6800  176.7290  141.1280 O   0  0  0  0  0  0  0  0  0  0  0  0
  188.9440  179.1700  138.3670 C   0  0  0  0  0  3  0  0  0  0  0  0
  188.9370  178.3250  137.2520 C   0  0  0  0  0  3  0  0  0  0  0  0
  188.7730  176.4110  138.7120 C   0  0  0  0  0  3  0  0  0  0  0  0
  188.8550  176.9410  137.4260 C   0  0  0  0  0  0  0  0  0  0  0  0
  188.8640  178.6330  139.6540 C   0  0  0  0  0  3  0  0  0  0  0  0
  188.7640  177.2510  139.8330 C   0  0  0  0  0  0  0  0  0  0  0  0
  187.6670  174.9760  136.0560 O   0  0  0  0  0  0  0  0  0  0  0  0
  188.8370  176.6880  134.7750 O   0  0  0  0  0  0  0  0  0  0  0  0
  188.8770  175.8690  136.0340 S   0  0  0  0  0  0  0  0  0  0  0  0
  190.1980  173.4910  136.3850 C   0  0  0  0  0  2  0  0  0  0  0  0
  192.8960  174.7250  135.9170 C   0  0  2  0  0  0  0  0  0  0  0  0
  195.5850  173.6320  137.4470 C   0  0  0  0  0  0  0  0  0  0  0  0
  194.8860  172.5060  137.2520 C   0  0  0  0  0  3  0  0  0  0  0  0
  191.6160  175.5380  135.9120 C   0  0  0  0  0  0  0  0  0  0  0  0
  193.5610  175.6840  138.2150 C   0  0  0  0  0  1  0  0  0  0  0  0
  193.9640  175.4640  136.7600 C   0  0  1  0  0  3  0  0  0  0  0  0
  193.3430  174.6420  134.5940 O   0  0  0  0  0  1  0  0  0  0  0  0
  192.6520  173.2990  136.4670 C   0  0  2  0  0  3  0  0  0  0  0  0
  191.6810  176.7790  135.6950 O   0  0  0  0  0  0  0  0  0  0  0  0
  193.8270  172.3590  136.2030 C   0  0  0  0  0  2  0  0  0  0  0  0
  191.3890  172.6960  135.8800 C   0  0  0  0  0  2  0  0  0  0  0  0
  190.3260  174.9090  136.0550 N   0  0  0  0  0  0  0  0  0  0  0  0
  196.8020  173.6630  138.7100 Cl  0  0  0  0  0  0  0  0  0  0  0  0
  195.3720  174.8730  136.6250 C   0  0  0  0  0  2  0  0  0  0  0  0
  189.8080  178.2930  142.6200 C   0  0  0  0  0  2  0  0  0  0  0  0
  191.0730  177.4670  142.4130 C   0  0  1  0  0  3  0  0  0  0  0  0
  192.0080  178.2180  141.7210 F   0  0  0  0  0  0  0  0  0  0  0  0
  191.6150  178.0330  144.6650 F   0  0  0  0  0  0  0  0  0  0  0  0
  191.6620  177.0060  143.7390 C   0  0  0  0  0  3  0  0  0  0  0  0
  190.9720  175.9080  144.2240 F   0  0  0  0  0  0  0  0  0  0  0  0
  1  5  1  0  0  0  0
  2  1  2  0  0  0  0
  3 52  1  0  0  0  0
  3  1  1  0  0  0  0
  4  6  1  0  0  0  0
  5  7  1  0  0  0  0
  5  8  2  0  0  0  0
  7  4  2  0  0  0  0
  8  9  1  0  0  0  0
  9  6  2  0  0  0  0
 10  7  1  0  0  0  0
 11 10  2  0  0  0  0
 12 10  1  0  0  0  0
 13 12  1  0  0  0  0
 14 13  1  0  0  0  0
 15 14  1  0  0  0  0
 17 25  1  0  0  0  0
 18 26  1  6  0  0  0
 18 24  1  0  0  0  0
 18 23  1  0  0  0  0
 19 16  1  6  0  0  0
 19 20  1  0  0  0  0
 20 22  1  0  0  0  0
 20 17  1  6  0  0  0
 20 25  1  0  0  0  0
 23 21  1  6  0  0  0
 23 22  1  0  0  0  0
 24 19  1  0  0  0  0
 25 15  1  1  0  0  0
 27  3  1  0  0  0  0
 28 32  1  0  0  0  0
 29 31  1  0  0  0  0
 29 28  2  0  0  0  0
 30 33  1  0  0  0  0
 31 30  2  0  0  0  0
 32 33  2  0  0  0  0
 33 27  1  0  0  0  0
 35 36  2  0  0  0  0
 36 49  1  0  0  0  0
 36 34  2  0  0  0  0
 36 31  1  0  0  0  0
 38 44  1  6  0  0  0
 38 45  1  0  0  0  0
 38 43  1  0  0  0  0
 39 50  1  0  0  0  0
 40 39  2  0  0  0  0
 41 38  1  0  0  0  0
 41 49  1  0  0  0  0
 43 42  1  1  0  0  0
 45 48  1  6  0  0  0
 46 41  2  0  0  0  0
 47 45  1  0  0  0  0
 47 40  1  0  0  0  0
 48 37  1  0  0  0  0
 49 37  1  0  0  0  0
 51 43  1  0  0  0  0
 51 39  1  0  0  0  0
 53 54  1  1  0  0  0
 53 52  1  0  0  0  0
 53 56  1  0  0  0  0
 56 57  1  0  0  0  0
 56 55  1  0  0  0  0
M  END
>  <MODEL>
7

>  <REMARK>
 VINA RESULT:      -8.1      3.151      5.036
  Name = 
  14 active torsions:
  status: ('A' for Active; 'I' for Inactive)
    1  A    between atoms: C_6  and  C_21
    2  A    between atoms: C_8  and  C_32
    3  A    between atoms: C_8  and  C_45
    4  A    between atoms: C_11  and  C_14
    5  A    between atoms: C_14  and  C_57
    6  A    between atoms: O_31  and  C_50
    7  A    between atoms: O_31  and  N_56
    8  A    between atoms: C_40  and  S_42
    9  A    between atoms: S_42  and  N_48
   10  A    between atoms: C_44  and  C_45
   11  A    between atoms: C_44  and  C_46
   12  A    between atoms: C_46  and  C_54
   13  A    between atoms: C_52  and  C_54
   14  A    between atoms: N_56  and  C_57
                            x       y       z     vdW  Elec       q    Type
                         _______ _______ _______ _____ _____    ______ ____

>  <TORSDO>
F 14

$$$$
=
 OpenBabel11062416443D

 57 62  0  0  1  0  0  0  0  0999 V2000
  187.0060  177.7440  142.9680 C   0  0  0  0  0  0  0  0  0  0  0  0
  185.9390  177.4940  142.3440 O   0  0  0  0  0  0  0  0  0  0  0  0
  188.2580  177.7310  142.2590 N   0  0  0  0  0  0  0  0  0  0  0  0
  185.8470  178.4980  146.5170 C   0  0  0  0  0  3  0  0  0  0  0  0
  186.9700  177.9370  144.4330 C   0  0  0  0  0  0  0  0  0  0  0  0
  186.9120  177.9630  147.2450 C   0  0  0  0  0  3  0  0  0  0  0  0
  185.8610  178.5050  145.1130 C   0  0  0  0  0  0  0  0  0  0  0  0
  188.0360  177.4160  145.1810 C   0  0  0  0  0  3  0  0  0  0  0  0
  188.0120  177.4330  146.5760 C   0  0  0  0  0  3  0  0  0  0  0  0
  184.7440  179.1900  144.4240 C   0  0  0  0  0  0  0  0  0  0  0  0
  184.9890  180.1170  143.6060 O   0  0  0  0  0  0  0  0  0  0  0  0
  183.3290  178.7480  144.5940 C   0  0  0  0  0  2  0  0  0  0  0  0
  182.5510  178.9970  143.3140 C   0  0  0  0  0  2  0  0  0  0  0  0
  181.0630  179.0260  143.5940 C   0  0  0  0  0  2  0  0  0  0  0  0
  180.2760  178.9820  142.2950 C   0  0  0  0  0  2  0  0  0  0  0  0
  182.6200  178.8810  138.2190 O   0  0  0  0  0  1  0  0  0  0  0  0
  180.3880  178.2380  139.9340 C   0  0  0  0  0  2  0  0  0  0  0  0
  181.2900  181.5050  138.0590 C   0  0  1  0  0  3  0  0  0  0  0  0
  182.4030  179.8230  139.2300 C   0  0  2  0  0  3  0  0  0  0  0  0
  181.0750  179.5880  139.9630 C   0  0  1  0  0  0  0  0  0  0  0  0
  178.9350  180.8680  138.3160 O   0  0  0  0  0  1  0  0  0  0  0  0
  180.2680  180.7160  140.2040 O   0  0  0  0  0  0  0  0  0  0  0  0
  180.0450  181.3960  138.9810 C   0  0  1  0  0  3  0  0  0  0  0  0
  182.4910  181.1430  138.7240 O   0  0  0  0  0  0  0  0  0  0  0  0
  181.2120  178.6370  141.1480 C   0  0  1  0  0  3  0  0  0  0  0  0
  181.1330  180.7610  136.8820 O   0  0  0  0  0  1  0  0  0  0  0  0
  188.4460  176.9150  141.1570 O   0  0  0  0  0  0  0  0  0  0  0  0
  189.0600  179.2380  138.3500 C   0  0  0  0  0  3  0  0  0  0  0  0
  188.7410  178.4320  137.2520 C   0  0  0  0  0  3  0  0  0  0  0  0
  188.2370  176.6060  138.7470 C   0  0  0  0  0  3  0  0  0  0  0  0
  188.3320  177.1100  137.4510 C   0  0  0  0  0  0  0  0  0  0  0  0
  188.9650  178.7260  139.6460 C   0  0  0  0  0  3  0  0  0  0  0  0
  188.5400  177.4110  139.8520 C   0  0  0  0  0  0  0  0  0  0  0  0
  188.6970  176.5620  134.8600 O   0  0  0  0  0  0  0  0  0  0  0  0
  188.4050  174.6750  136.3750 O   0  0  0  0  0  0  0  0  0  0  0  0
  187.9590  176.0790  136.0780 S   0  0  0  0  0  0  0  0  0  0  0  0
  185.6540  177.3290  135.2760 C   0  0  0  0  0  2  0  0  0  0  0  0
  183.9360  174.9530  135.9280 C   0  0  2  0  0  0  0  0  0  0  0  0
  180.8500  175.2920  136.9870 C   0  0  0  0  0  0  0  0  0  0  0  0
  180.9710  176.3070  136.1220 C   0  0  0  0  0  3  0  0  0  0  0  0
  185.4310  174.9730  136.1810 C   0  0  0  0  0  0  0  0  0  0  0  0
  183.4490  175.1960  138.4460 C   0  0  0  0  0  1  0  0  0  0  0  0
  183.2160  174.3860  137.1740 C   0  0  1  0  0  3  0  0  0  0  0  0
  183.7080  174.0960  134.8450 O   0  0  0  0  0  1  0  0  0  0  0  0
  183.4070  176.3670  135.5840 C   0  0  2  0  0  3  0  0  0  0  0  0
  185.9800  173.9510  136.6780 O   0  0  0  0  0  0  0  0  0  0  0  0
  181.9870  176.3420  135.0230 C   0  0  0  0  0  2  0  0  0  0  0  0
  184.3220  177.0660  134.5940 C   0  0  0  0  0  2  0  0  0  0  0  0
  186.2470  176.0930  135.7820 N   0  0  0  0  0  0  0  0  0  0  0  0
  179.6090  175.3780  138.2230 Cl  0  0  0  0  0  0  0  0  0  0  0  0
  181.7330  174.0750  136.9410 C   0  0  0  0  0  2  0  0  0  0  0  0
  189.2320  178.7870  142.5060 C   0  0  0  0  0  2  0  0  0  0  0  0
  190.5140  178.2170  143.1020 C   0  0  1  0  0  3  0  0  0  0  0  0
  191.4250  177.9670  142.0880 F   0  0  0  0  0  0  0  0  0  0  0  0
  190.4600  179.0650  145.3290 F   0  0  0  0  0  0  0  0  0  0  0  0
  191.1270  179.1670  144.1210 C   0  0  0  0  0  3  0  0  0  0  0  0
  192.4700  178.8870  144.3040 F   0  0  0  0  0  0  0  0  0  0  0  0
  1  5  1  0  0  0  0
  2  1  2  0  0  0  0
  3 52  1  0  0  0  0
  3  1  1  0  0  0  0
  4  6  1  0  0  0  0
  5  7  1  0  0  0  0
  5  8  2  0  0  0  0
  7  4  2  0  0  0  0
  8  9  1  0  0  0  0
  9  6  2  0  0  0  0
 10 12  1  0  0  0  0
 10  7  1  0  0  0  0
 11 10  2  0  0  0  0
 13 14  1  0  0  0  0
 13 12  1  0  0  0  0
 15 14  1  0  0  0  0
 17 25  1  0  0  0  0
 18 26  1  6  0  0  0
 18 24  1  0  0  0  0
 18 23  1  0  0  0  0
 19 16  1  6  0  0  0
 19 20  1  0  0  0  0
 20 17  1  6  0  0  0
 20 22  1  0  0  0  0
 20 25  1  0  0  0  0
 23 21  1  6  0  0  0
 23 22  1  0  0  0  0
 24 19  1  0  0  0  0
 25 15  1  1  0  0  0
 27  3  1  0  0  0  0
 28 32  1  0  0  0  0
 29 31  1  0  0  0  0
 29 28  2  0  0  0  0
 30 33  1  0  0  0  0
 31 30  2  0  0  0  0
 32 33  2  0  0  0  0
 33 27  1  0  0  0  0
 34 36  2  0  0  0  0
 36 35  2  0  0  0  0
 36 31  1  0  0  0  0
 37 49  1  0  0  0  0
 38 44  1  6  0  0  0
 38 41  1  0  0  0  0
 38 43  1  0  0  0  0
 39 50  1  0  0  0  0
 40 39  2  0  0  0  0
 41 46  2  0  0  0  0
 43 42  1  1  0  0  0
 45 48  1  6  0  0  0
 45 38  1  0  0  0  0
 47 45  1  0  0  0  0
 47 40  1  0  0  0  0
 48 37  1  0  0  0  0
 49 36  1  0  0  0  0
 49 41  1  0  0  0  0
 51 39  1  0  0  0  0
 51 43  1  0  0  0  0
 52 53  1  0  0  0  0
 53 54  1  6  0  0  0
 53 56  1  0  0  0  0
 56 57  1  0  0  0  0
 56 55  1  0  0  0  0
M  END
>  <MODEL>
8

>  <REMARK>
 VINA RESULT:      -8.0      1.845      2.356
  Name = 
  14 active torsions:
  status: ('A' for Active; 'I' for Inactive)
    1  A    between atoms: C_6  and  C_21
    2  A    between atoms: C_8  and  C_32
    3  A    between atoms: C_8  and  C_45
    4  A    between atoms: C_11  and  C_14
    5  A    between atoms: C_14  and  C_57
    6  A    between atoms: O_31  and  C_50
    7  A    between atoms: O_31  and  N_56
    8  A    between atoms: C_40  and  S_42
    9  A    between atoms: S_42  and  N_48
   10  A    between atoms: C_44  and  C_45
   11  A    between atoms: C_44  and  C_46
   12  A    between atoms: C_46  and  C_54
   13  A    between atoms: C_52  and  C_54
   14  A    between atoms: N_56  and  C_57
                            x       y       z     vdW  Elec       q    Type
                         _______ _______ _______ _____ _____    ______ ____

>  <TORSDO>
F 14

$$$$
=
 OpenBabel11062416443D

 57 62  0  0  1  0  0  0  0  0999 V2000
  190.5440  178.4520  143.9120 C   0  0  0  0  0  0  0  0  0  0  0  0
  190.4930  179.6960  143.7070 O   0  0  0  0  0  0  0  0  0  0  0  0
  190.8460  177.5690  142.8160 N   0  0  0  0  0  0  0  0  0  0  0  0
  188.6600  176.8370  146.8020 C   0  0  0  0  0  3  0  0  0  0  0  0
  190.1840  177.9130  145.2400 C   0  0  0  0  0  0  0  0  0  0  0  0
  189.7110  176.6290  147.6970 C   0  0  0  0  0  3  0  0  0  0  0  0
  188.8730  177.4850  145.5750 C   0  0  0  0  0  0  0  0  0  0  0  0
  191.2250  177.7080  146.1580 C   0  0  0  0  0  3  0  0  0  0  0  0
  190.9910  177.0750  147.3800 C   0  0  0  0  0  3  0  0  0  0  0  0
  187.6840  177.7620  144.7350 C   0  0  0  0  0  0  0  0  0  0  0  0
  186.7010  178.3770  145.2280 O   0  0  0  0  0  0  0  0  0  0  0  0
  187.6530  177.4180  143.2830 C   0  0  0  0  0  2  0  0  0  0  0  0
  187.2840  178.6460  142.4690 C   0  0  0  0  0  2  0  0  0  0  0  0
  186.3860  178.2650  141.3120 C   0  0  0  0  0  2  0  0  0  0  0  0
  185.3620  179.3570  141.0490 C   0  0  0  0  0  2  0  0  0  0  0  0
  181.0050  177.7500  140.3070 O   0  0  0  0  0  1  0  0  0  0  0  0
  183.7180  177.5170  141.2700 C   0  0  0  0  0  2  0  0  0  0  0  0
  180.6340  179.3140  142.7770 C   0  0  1  0  0  3  0  0  0  0  0  0
  181.5750  178.9740  140.6700 C   0  0  2  0  0  3  0  0  0  0  0  0
  182.9120  178.7940  141.4040 C   0  0  1  0  0  0  0  0  0  0  0  0
  182.2650  178.2510  144.2700 O   0  0  0  0  0  1  0  0  0  0  0  0
  183.1160  179.5650  142.5630 O   0  0  0  0  0  0  0  0  0  0  0  0
  182.0320  179.3600  143.4530 C   0  0  1  0  0  3  0  0  0  0  0  0
  180.6690  179.7540  141.4280 O   0  0  0  0  0  0  0  0  0  0  0  0
  184.1060  178.7410  140.4550 C   0  0  1  0  0  3  0  0  0  0  0  0
  180.0550  178.0410  142.8660 O   0  0  0  0  0  1  0  0  0  0  0  0
  190.4990  177.8980  141.5170 O   0  0  0  0  0  0  0  0  0  0  0  0
  193.1690  176.9420  139.1490 C   0  0  0  0  0  3  0  0  0  0  0  0
  192.4380  176.2540  138.1750 C   0  0  0  0  0  3  0  0  0  0  0  0
  190.4130  176.6440  139.4280 C   0  0  0  0  0  3  0  0  0  0  0  0
  191.0560  176.1010  138.3170 C   0  0  0  0  0  0  0  0  0  0  0  0
  192.5190  177.4820  140.2610 C   0  0  0  0  0  3  0  0  0  0  0  0
  191.1360  177.3470  140.4000 C   0  0  0  0  0  0  0  0  0  0  0  0
  190.7660  175.3730  135.7610 O   0  0  0  0  0  0  0  0  0  0  0  0
  190.1360  173.7510  137.4680 O   0  0  0  0  0  0  0  0  0  0  0  0
  190.1330  175.2120  137.1160 S   0  0  0  0  0  0  0  0  0  0  0  0
  188.1460  176.8870  137.9890 C   0  0  0  0  0  2  0  0  0  0  0  0
  186.0630  175.6030  136.2480 C   0  0  2  0  0  0  0  0  0  0  0  0
  182.9250  175.3870  137.1820 C   0  0  0  0  0  0  0  0  0  0  0  0
  183.2980  176.5670  137.6940 C   0  0  0  0  0  3  0  0  0  0  0  0
  187.4960  175.1110  136.3030 C   0  0  0  0  0  0  0  0  0  0  0  0
  185.2550  173.5760  137.6180 C   0  0  0  0  0  1  0  0  0  0  0  0
  185.1040  174.3910  136.3370 C   0  0  1  0  0  3  0  0  0  0  0  0
  185.8840  176.2310  135.0100 O   0  0  0  0  0  1  0  0  0  0  0  0
  185.7740  176.6160  137.3830 C   0  0  2  0  0  3  0  0  0  0  0  0
  187.8330  174.1290  135.5860 O   0  0  0  0  0  0  0  0  0  0  0  0
  184.4570  177.3640  137.1810 C   0  0  0  0  0  2  0  0  0  0  0  0
  186.9030  177.6220  137.5170 C   0  0  0  0  0  2  0  0  0  0  0  0
  188.4970  175.7960  137.0830 N   0  0  0  0  0  0  0  0  0  0  0  0
  181.5410  174.5630  137.8760 Cl  0  0  0  0  0  0  0  0  0  0  0  0
  183.6430  174.7380  136.0310 C   0  0  0  0  0  2  0  0  0  0  0  0
  191.7790  176.4680  143.0220 C   0  0  0  0  0  2  0  0  0  0  0  0
  191.1650  175.3920  143.9100 C   0  0  1  0  0  3  0  0  0  0  0  0
  190.2680  174.6380  143.1720 F   0  0  0  0  0  0  0  0  0  0  0  0
  192.4250  174.7880  145.8420 F   0  0  0  0  0  0  0  0  0  0  0  0
  192.2320  174.4840  144.5060 C   0  0  0  0  0  3  0  0  0  0  0  0
  191.8690  173.1550  144.3770 F   0  0  0  0  0  0  0  0  0  0  0  0
  1  5  1  0  0  0  0
  2  1  2  0  0  0  0
  3 52  1  0  0  0  0
  3  1  1  0  0  0  0
  4  6  1  0  0  0  0
  5  7  1  0  0  0  0
  5  8  2  0  0  0  0
  7  4  2  0  0  0  0
  8  9  1  0  0  0  0
  9  6  2  0  0  0  0
 10 11  2  0  0  0  0
 10  7  1  0  0  0  0
 12 10  1  0  0  0  0
 13 12  1  0  0  0  0
 14 13  1  0  0  0  0
 15 14  1  0  0  0  0
 18 26  1  6  0  0  0
 18 23  1  0  0  0  0
 19 16  1  1  0  0  0
 19 20  1  0  0  0  0
 19 24  1  0  0  0  0
 20 17  1  1  0  0  0
 20 22  1  0  0  0  0
 22 23  1  0  0  0  0
 23 21  1  6  0  0  0
 24 18  1  0  0  0  0
 25 15  1  1  0  0  0
 25 17  1  0  0  0  0
 25 20  1  0  0  0  0
 27  3  1  0  0  0  0
 28 32  1  0  0  0  0
 29 31  1  0  0  0  0
 29 28  2  0  0  0  0
 30 33  1  0  0  0  0
 31 30  2  0  0  0  0
 32 33  2  0  0  0  0
 33 27  1  0  0  0  0
 34 36  2  0  0  0  0
 36 35  2  0  0  0  0
 36 31  1  0  0  0  0
 38 44  1  6  0  0  0
 38 41  1  0  0  0  0
 38 43  1  0  0  0  0
 38 45  1  0  0  0  0
 39 40  2  0  0  0  0
 39 50  1  0  0  0  0
 41 49  1  0  0  0  0
 43 42  1  1  0  0  0
 45 47  1  6  0  0  0
 45 48  1  0  0  0  0
 46 41  2  0  0  0  0
 47 40  1  0  0  0  0
 48 37  1  0  0  0  0
 49 36  1  0  0  0  0
 49 37  1  0  0  0  0
 51 43  1  0  0  0  0
 51 39  1  0  0  0  0
 52 53  1  0  0  0  0
 53 54  1  6  0  0  0
 53 56  1  0  0  0  0
 56 55  1  0  0  0  0
 57 56  1  0  0  0  0
M  END
>  <MODEL>
9

>  <REMARK>
 VINA RESULT:      -7.9      2.139      3.290
  Name = 
  14 active torsions:
  status: ('A' for Active; 'I' for Inactive)
    1  A    between atoms: C_6  and  C_21
    2  A    between atoms: C_8  and  C_32
    3  A    between atoms: C_8  and  C_45
    4  A    between atoms: C_11  and  C_14
    5  A    between atoms: C_14  and  C_57
    6  A    between atoms: O_31  and  C_50
    7  A    between atoms: O_31  and  N_56
    8  A    between atoms: C_40  and  S_42
    9  A    between atoms: S_42  and  N_48
   10  A    between atoms: C_44  and  C_45
   11  A    between atoms: C_44  and  C_46
   12  A    between atoms: C_46  and  C_54
   13  A    between atoms: C_52  and  C_54
   14  A    between atoms: N_56  and  C_57
                            x       y       z     vdW  Elec       q    Type
                         _______ _______ _______ _____ _____    ______ ____

>  <TORSDO>
F 14

$$$$
