=
 OpenBabel11062416193D

 29 32  0  0  1  0  0  0  0  0999 V2000
  190.8050  176.1940  137.4380 C   0  0  0  0  0  0  0  0  0  0  0  0
  188.5270  177.1570  139.2040 N   0  0  0  0  0  0  0  0  0  0  0  0
  190.1800  176.9880  135.2080 N   0  0  0  0  0  1  0  0  0  0  0  0
  189.8750  177.0530  136.6290 C   0  0  1  0  0  3  0  0  0  0  0  0
  190.1880  177.4460  140.8600 N   0  0  0  0  0  2  0  0  0  0  0  0
  189.7700  176.9920  139.5690 C   0  0  0  0  0  0  0  0  0  0  0  0
  188.4950  176.6500  136.8450 N   0  0  0  0  0  0  0  0  0  0  0  0
  190.7570  176.2340  138.7720 C   0  0  0  0  0  3  0  0  0  0  0  0
  187.8870  176.7290  137.9890 C   0  0  0  0  0  3  0  0  0  0  0  0
  194.1080  174.4450  137.5660 C   0  0  0  0  0  2  0  0  0  0  0  0
  192.5440  173.0270  136.1120 C   0  0  0  0  0  2  0  0  0  0  0  0
  193.9990  173.3630  136.4840 C   0  0  0  0  0  0  0  0  0  0  0  0
  191.5070  173.8530  136.8730 C   0  0  0  0  0  2  0  0  0  0  0  0
  194.6680  172.1040  136.9980 C   0  0  0  0  0  1  0  0  0  0  0  0
  193.2610  175.6840  137.2460 C   0  0  0  0  0  2  0  0  0  0  0  0
  191.8420  175.3400  136.7600 C   0  0  0  0  0  3  0  0  0  0  0  0
  194.7330  173.8150  135.2340 C   0  0  0  0  0  1  0  0  0  0  0  0
  189.3000  178.1230  141.7950 C   0  0  1  0  0  3  0  0  0  0  0  0
  187.9290  178.2940  141.1820 C   0  0  0  0  0  2  0  0  0  0  0  0
  187.0190  178.1210  142.3480 C   0  0  0  0  0  2  0  0  0  0  0  0
  187.8210  177.2260  143.2610 C   0  0  1  0  0  3  0  0  0  0  0  0
  189.1950  177.3680  142.9800 O   0  0  0  0  0  0  0  0  0  0  0  0
  186.0180  178.2190  146.4590 C   0  0  0  0  0  0  0  0  0  0  0  0
  186.2650  177.9490  145.1100 C   0  0  0  0  0  3  0  0  0  0  0  0
  188.5580  177.3780  145.6440 C   0  0  0  0  0  3  0  0  0  0  0  0
  188.3100  177.6480  146.9930 C   0  0  0  0  0  3  0  0  0  0  0  0
  184.7260  178.6450  146.8750 N   0  0  0  0  0  1  0  0  0  0  0  0
  187.0400  178.0680  147.4020 C   0  0  0  0  0  3  0  0  0  0  0  0
  187.5380  177.5290  144.6970 C   0  0  0  0  0  0  0  0  0  0  0  0
  1  8  2  0  0  0  0
  2  6  2  0  0  0  0
  4  3  1  6  0  0  0
  4  7  1  0  0  0  0
  4  1  1  0  0  0  0
  6  5  1  0  0  0  0
  7  9  2  0  0  0  0
  8  6  1  0  0  0  0
  9  2  1  0  0  0  0
 11 12  1  0  0  0  0
 11 13  1  0  0  0  0
 12 14  1  0  0  0  0
 12 10  1  0  0  0  0
 15 10  1  0  0  0  0
 16 13  1  0  0  0  0
 16 15  1  0  0  0  0
 16  1  1  0  0  0  0
 17 12  1  0  0  0  0
 18  5  1  6  0  0  0
 18 22  1  0  0  0  0
 19 18  1  0  0  0  0
 19 20  1  0  0  0  0
 20 21  1  0  0  0  0
 21 29  1  1  0  0  0
 22 21  1  0  0  0  0
 23 27  1  0  0  0  0
 23 28  1  0  0  0  0
 24 23  2  0  0  0  0
 25 26  1  0  0  0  0
 26 28  2  0  0  0  0
 29 24  1  0  0  0  0
 29 25  2  0  0  0  0
M  END
>  <MODEL>
1

>  <REMARK>
 VINA RESULT:      -9.0      0.000      0.000
  Name = 
  3 active torsions:
  status: ('A' for Active; 'I' for Inactive)
    1  A    between atoms: C_3  and  C_24
    2  A    between atoms: C_5  and  N_15
    3  A    between atoms: C_16  and  C_28
                            x       y       z     vdW  Elec       q    Type
                         _______ _______ _______ _____ _____    ______ ____

>  <TORSDO>
F 3

$$$$
=
 OpenBabel11062416193D

 29 32  0  0  1  0  0  0  0  0999 V2000
  182.1880  178.0600  140.1760 C   0  0  0  0  0  0  0  0  0  0  0  0
  182.8510  178.9230  143.0140 N   0  0  0  0  0  0  0  0  0  0  0  0
  180.5760  179.7420  139.4240 N   0  0  0  0  0  1  0  0  0  0  0  0
  181.5230  179.3760  140.4660 C   0  0  1  0  0  3  0  0  0  0  0  0
  185.0230  178.1210  142.5460 N   0  0  0  0  0  2  0  0  0  0  0  0
  183.6480  178.2970  142.1920 C   0  0  0  0  0  0  0  0  0  0  0  0
  180.8370  179.3260  141.7460 N   0  0  0  0  0  0  0  0  0  0  0  0
  183.1830  177.6310  140.9570 C   0  0  0  0  0  3  0  0  0  0  0  0
  181.4370  179.1570  142.8850 C   0  0  0  0  0  3  0  0  0  0  0  0
  183.1070  175.5870  137.5260 C   0  0  0  0  0  2  0  0  0  0  0  0
  180.6430  175.2000  138.1160 C   0  0  0  0  0  2  0  0  0  0  0  0
  181.7610  175.0040  137.0770 C   0  0  0  0  0  0  0  0  0  0  0  0
  181.0910  175.9540  139.3690 C   0  0  0  0  0  2  0  0  0  0  0  0
  181.9400  173.5190  136.8360 C   0  0  0  0  0  1  0  0  0  0  0  0
  182.9850  177.0340  138.0220 C   0  0  0  0  0  2  0  0  0  0  0  0
  181.7930  177.2520  138.9700 C   0  0  0  0  0  3  0  0  0  0  0  0
  181.3350  175.6500  135.7710 C   0  0  0  0  0  1  0  0  0  0  0  0
  185.6030  178.6370  143.7780 C   0  0  1  0  0  3  0  0  0  0  0  0
  184.5250  178.8360  144.8190 C   0  0  0  0  0  2  0  0  0  0  0  0
  185.2180  178.4790  146.0890 C   0  0  0  0  0  2  0  0  0  0  0  0
  186.2720  177.5030  145.6240 C   0  0  1  0  0  3  0  0  0  0  0  0
  186.5660  177.7320  144.2650 O   0  0  0  0  0  0  0  0  0  0  0  0
  189.9020  177.3410  146.7470 C   0  0  0  0  0  0  0  0  0  0  0  0
  188.7580  177.2290  145.9520 C   0  0  0  0  0  3  0  0  0  0  0  0
  187.4110  178.1000  147.7670 C   0  0  0  0  0  3  0  0  0  0  0  0
  188.5560  178.2130  148.5610 C   0  0  0  0  0  3  0  0  0  0  0  0
  191.1700  176.9570  146.2290 N   0  0  0  0  0  1  0  0  0  0  0  0
  189.8020  177.8340  148.0520 C   0  0  0  0  0  3  0  0  0  0  0  0
  187.5070  177.6060  146.4610 C   0  0  0  0  0  0  0  0  0  0  0  0
  1  4  1  0  0  0  0
  1  8  2  0  0  0  0
  4  3  1  6  0  0  0
  4  7  1  0  0  0  0
  6  5  1  0  0  0  0
  6  2  2  0  0  0  0
  7  9  2  0  0  0  0
  8  6  1  0  0  0  0
  9  2  1  0  0  0  0
 10 15  1  0  0  0  0
 11 13  1  0  0  0  0
 12 10  1  0  0  0  0
 12 11  1  0  0  0  0
 14 12  1  0  0  0  0
 15 16  1  0  0  0  0
 16 13  1  0  0  0  0
 16  1  1  0  0  0  0
 17 12  1  0  0  0  0
 18  5  1  6  0  0  0
 18 22  1  0  0  0  0
 18 19  1  0  0  0  0
 19 20  1  0  0  0  0
 21 20  1  0  0  0  0
 21 29  1  1  0  0  0
 22 21  1  0  0  0  0
 23 28  1  0  0  0  0
 24 29  1  0  0  0  0
 24 23  2  0  0  0  0
 25 26  1  0  0  0  0
 27 23  1  0  0  0  0
 28 26  2  0  0  0  0
 29 25  2  0  0  0  0
M  END
>  <MODEL>
2

>  <REMARK>
 VINA RESULT:      -9.0      6.815      8.135
  Name = 
  3 active torsions:
  status: ('A' for Active; 'I' for Inactive)
    1  A    between atoms: C_3  and  C_24
    2  A    between atoms: C_5  and  N_15
    3  A    between atoms: C_16  and  C_28
                            x       y       z     vdW  Elec       q    Type
                         _______ _______ _______ _____ _____    ______ ____

>  <TORSDO>
F 3

$$$$
=
 OpenBabel11062416193D

 29 32  0  0  1  0  0  0  0  0999 V2000
  181.4540  180.2570  138.8940 C   0  0  0  0  0  0  0  0  0  0  0  0
  183.1740  177.8630  139.6340 N   0  0  0  0  0  0  0  0  0  0  0  0
  179.3570  179.8500  140.0890 N   0  0  0  0  0  1  0  0  0  0  0  0
  180.7370  179.4250  139.9190 C   0  0  1  0  0  3  0  0  0  0  0  0
  184.9830  179.3820  139.5600 N   0  0  0  0  0  2  0  0  0  0  0  0
  183.6030  179.0640  139.3540 C   0  0  0  0  0  0  0  0  0  0  0  0
  180.7680  178.0210  139.5450 N   0  0  0  0  0  0  0  0  0  0  0  0
  182.7660  180.0940  138.7050 C   0  0  0  0  0  3  0  0  0  0  0  0
  181.8560  177.3180  139.4510 C   0  0  0  0  0  3  0  0  0  0  0  0
  181.4440  183.6540  137.3330 C   0  0  0  0  0  2  0  0  0  0  0  0
  179.9700  182.1390  135.8830 C   0  0  0  0  0  2  0  0  0  0  0  0
  180.3230  183.5810  136.2870 C   0  0  0  0  0  0  0  0  0  0  0  0
  180.7850  181.0760  136.6190 C   0  0  0  0  0  2  0  0  0  0  0  0
  180.7730  184.3320  135.0500 C   0  0  0  0  0  1  0  0  0  0  0  0
  181.1890  182.7320  138.5320 C   0  0  0  0  0  2  0  0  0  0  0  0
  180.7220  181.3230  138.1270 C   0  0  0  0  0  3  0  0  0  0  0  0
  179.0760  184.2580  136.8270 C   0  0  0  0  0  1  0  0  0  0  0  0
  185.9480  178.4370  140.1010 C   0  0  1  0  0  3  0  0  0  0  0  0
  187.1200  178.2900  139.1580 C   0  0  0  0  0  2  0  0  0  0  0  0
  188.2740  178.1150  140.0840 C   0  0  0  0  0  2  0  0  0  0  0  0
  187.8140  178.8450  141.3220 C   0  0  1  0  0  3  0  0  0  0  0  0
  186.4060  178.8900  141.3530 O   0  0  0  0  0  0  0  0  0  0  0  0
  190.2130  177.6030  144.0010 C   0  0  0  0  0  0  0  0  0  0  0  0
  189.7290  178.2030  142.8350 C   0  0  0  0  0  3  0  0  0  0  0  0
  187.4690  177.5970  143.4590 C   0  0  0  0  0  3  0  0  0  0  0  0
  187.9520  176.9970  144.6260 C   0  0  0  0  0  3  0  0  0  0  0  0
  191.6080  177.6070  144.2780 N   0  0  0  0  0  1  0  0  0  0  0  0
  189.3250  177.0000  144.8970 C   0  0  0  0  0  3  0  0  0  0  0  0
  188.3540  178.2010  142.5590 C   0  0  0  0  0  0  0  0  0  0  0  0
  1  4  1  0  0  0  0
  4  3  1  6  0  0  0
  6  5  1  0  0  0  0
  6  2  2  0  0  0  0
  7  4  1  0  0  0  0
  8  1  2  0  0  0  0
  8  6  1  0  0  0  0
  9  7  2  0  0  0  0
  9  2  1  0  0  0  0
 10 15  1  0  0  0  0
 11 12  1  0  0  0  0
 11 13  1  0  0  0  0
 12 17  1  0  0  0  0
 12 10  1  0  0  0  0
 13 16  1  0  0  0  0
 14 12  1  0  0  0  0
 16 15  1  0  0  0  0
 16  1  1  0  0  0  0
 18  5  1  6  0  0  0
 18 22  1  0  0  0  0
 19 20  1  0  0  0  0
 19 18  1  0  0  0  0
 20 21  1  0  0  0  0
 21 22  1  0  0  0  0
 21 29  1  1  0  0  0
 23 27  1  0  0  0  0
 23 28  1  0  0  0  0
 24 23  2  0  0  0  0
 25 26  1  0  0  0  0
 26 28  2  0  0  0  0
 29 24  1  0  0  0  0
 29 25  2  0  0  0  0
M  END
>  <MODEL>
3

>  <REMARK>
 VINA RESULT:      -8.8      6.339      9.868
  Name = 
  3 active torsions:
  status: ('A' for Active; 'I' for Inactive)
    1  A    between atoms: C_3  and  C_24
    2  A    between atoms: C_5  and  N_15
    3  A    between atoms: C_16  and  C_28
                            x       y       z     vdW  Elec       q    Type
                         _______ _______ _______ _____ _____    ______ ____

>  <TORSDO>
F 3

$$$$
=
 OpenBabel11062416193D

 29 32  0  0  1  0  0  0  0  0999 V2000
  188.9200  177.7260  140.7420 C   0  0  0  0  0  0  0  0  0  0  0  0
  186.9340  177.6700  138.4430 N   0  0  0  0  0  0  0  0  0  0  0  0
  191.0970  177.6940  139.6230 N   0  0  0  0  0  1  0  0  0  0  0  0
  189.6610  177.8340  139.4400 C   0  0  1  0  0  3  0  0  0  0  0  0
  185.5950  179.0470  139.8190 N   0  0  0  0  0  2  0  0  0  0  0  0
  186.7500  178.2300  139.6080 C   0  0  0  0  0  0  0  0  0  0  0  0
  189.1930  176.8250  138.5040 N   0  0  0  0  0  0  0  0  0  0  0  0
  187.6070  177.9630  140.7820 C   0  0  0  0  0  3  0  0  0  0  0  0
  187.9830  176.7750  138.0360 C   0  0  0  0  0  3  0  0  0  0  0  0
  189.6480  178.5800  144.3090 C   0  0  0  0  0  2  0  0  0  0  0  0
  189.7540  176.0280  144.0930 C   0  0  0  0  0  2  0  0  0  0  0  0
  190.1660  177.2660  144.9090 C   0  0  0  0  0  0  0  0  0  0  0  0
  188.9380  176.3570  142.8440 C   0  0  0  0  0  2  0  0  0  0  0  0
  189.6080  177.1270  146.3110 C   0  0  0  0  0  1  0  0  0  0  0  0
  189.9610  178.7060  142.8120 C   0  0  0  0  0  2  0  0  0  0  0  0
  189.6570  177.4240  142.0180 C   0  0  0  0  0  3  0  0  0  0  0  0
  191.6810  177.3100  145.0020 C   0  0  0  0  0  1  0  0  0  0  0  0
  184.6090  179.3210  138.7830 C   0  0  1  0  0  3  0  0  0  0  0  0
  183.6350  178.1710  138.6720 C   0  0  0  0  0  2  0  0  0  0  0  0
  182.3480  178.8520  138.3560 C   0  0  0  0  0  2  0  0  0  0  0  0
  182.5340  180.2110  138.9870 C   0  0  1  0  0  3  0  0  0  0  0  0
  183.9090  180.5030  139.0930 O   0  0  0  0  0  0  0  0  0  0  0  0
  181.5590  183.5840  137.5230 C   0  0  0  0  0  0  0  0  0  0  0  0
  182.2290  182.6110  138.2700 C   0  0  0  0  0  3  0  0  0  0  0  0
  180.7520  180.9100  137.3810 C   0  0  0  0  0  3  0  0  0  0  0  0
  180.0820  181.8830  136.6330 C   0  0  0  0  0  3  0  0  0  0  0  0
  181.9700  184.9440  137.5940 N   0  0  0  0  0  1  0  0  0  0  0  0
  180.4850  183.2210  136.7040 C   0  0  0  0  0  3  0  0  0  0  0  0
  181.8250  181.2690  138.2030 C   0  0  0  0  0  0  0  0  0  0  0  0
  1  8  2  0  0  0  0
  1 16  1  0  0  0  0
  2  6  2  0  0  0  0
  4  3  1  1  0  0  0
  4  1  1  0  0  0  0
  6  5  1  0  0  0  0
  6  8  1  0  0  0  0
  7  4  1  0  0  0  0
  9  2  1  0  0  0  0
  9  7  2  0  0  0  0
 10 12  1  0  0  0  0
 11 12  1  0  0  0  0
 12 17  1  0  0  0  0
 12 14  1  0  0  0  0
 13 11  1  0  0  0  0
 15 10  1  0  0  0  0
 16 15  1  0  0  0  0
 16 13  1  0  0  0  0
 18 22  1  0  0  0  0
 18  5  1  1  0  0  0
 19 18  1  0  0  0  0
 20 19  1  0  0  0  0
 20 21  1  0  0  0  0
 21 29  1  6  0  0  0
 21 22  1  0  0  0  0
 23 27  1  0  0  0  0
 23 24  1  0  0  0  0
 25 29  1  0  0  0  0
 26 28  1  0  0  0  0
 26 25  2  0  0  0  0
 28 23  2  0  0  0  0
 29 24  2  0  0  0  0
M  END
>  <MODEL>
4

>  <REMARK>
 VINA RESULT:      -8.5      5.174      8.132
  Name = 
  3 active torsions:
  status: ('A' for Active; 'I' for Inactive)
    1  A    between atoms: C_3  and  C_24
    2  A    between atoms: C_5  and  N_15
    3  A    between atoms: C_16  and  C_28
                            x       y       z     vdW  Elec       q    Type
                         _______ _______ _______ _____ _____    ______ ____

>  <TORSDO>
F 3

$$$$
=
 OpenBabel11062416193D

 29 32  0  0  1  0  0  0  0  0999 V2000
  183.2180  177.3880  139.1180 C   0  0  0  0  0  0  0  0  0  0  0  0
  184.9370  179.2400  140.8080 N   0  0  0  0  0  0  0  0  0  0  0  0
  184.3840  177.3250  136.9660 N   0  0  0  0  0  1  0  0  0  0  0  0
  184.4610  177.7510  138.3550 C   0  0  1  0  0  3  0  0  0  0  0  0
  184.3340  177.8410  142.6120 N   0  0  0  0  0  2  0  0  0  0  0  0
  184.2140  178.2450  141.2460 C   0  0  0  0  0  0  0  0  0  0  0  0
  184.6880  179.1860  138.4080 N   0  0  0  0  0  0  0  0  0  0  0  0
  183.1680  177.5840  140.4380 C   0  0  0  0  0  3  0  0  0  0  0  0
  184.9330  179.8420  139.5010 C   0  0  0  0  0  3  0  0  0  0  0  0
  181.3410  174.2820  138.2200 C   0  0  0  0  0  2  0  0  0  0  0  0
  179.6220  176.1600  138.5150 C   0  0  0  0  0  2  0  0  0  0  0  0
  179.9240  174.7810  137.9050 C   0  0  0  0  0  0  0  0  0  0  0  0
  180.7950  176.7640  139.2870 C   0  0  0  0  0  2  0  0  0  0  0  0
  178.9310  173.7800  138.4590 C   0  0  0  0  0  1  0  0  0  0  0  0
  182.4160  175.3330  137.9110 C   0  0  0  0  0  2  0  0  0  0  0  0
  182.0550  176.7390  138.4210 C   0  0  0  0  0  3  0  0  0  0  0  0
  179.7320  174.8580  136.4010 C   0  0  0  0  0  1  0  0  0  0  0  0
  185.2520  178.4650  143.5540 C   0  0  1  0  0  3  0  0  0  0  0  0
  184.4820  179.2270  144.6070 C   0  0  0  0  0  2  0  0  0  0  0  0
  185.3030  179.0240  145.8330 C   0  0  0  0  0  2  0  0  0  0  0  0
  185.9760  177.7000  145.5620 C   0  0  1  0  0  3  0  0  0  0  0  0
  186.0430  177.4770  144.1720 O   0  0  0  0  0  0  0  0  0  0  0  0
  189.7410  177.3590  145.9840 C   0  0  0  0  0  0  0  0  0  0  0  0
  188.4740  177.3910  145.3940 C   0  0  0  0  0  3  0  0  0  0  0  0
  187.4820  177.8880  147.5470 C   0  0  0  0  0  3  0  0  0  0  0  0
  188.7490  177.8570  148.1370 C   0  0  0  0  0  3  0  0  0  0  0  0
  190.8900  177.0930  145.1900 N   0  0  0  0  0  1  0  0  0  0  0  0
  189.8790  177.5930  147.3560 C   0  0  0  0  0  3  0  0  0  0  0  0
  187.3390  177.6530  146.1750 C   0  0  0  0  0  0  0  0  0  0  0  0
  1  8  2  0  0  0  0
  2  6  2  0  0  0  0
  4  3  1  6  0  0  0
  4  7  1  0  0  0  0
  4  1  1  0  0  0  0
  6  5  1  0  0  0  0
  7  9  2  0  0  0  0
  8  6  1  0  0  0  0
  9  2  1  0  0  0  0
 11 13  1  0  0  0  0
 12 10  1  0  0  0  0
 12 14  1  0  0  0  0
 12 11  1  0  0  0  0
 15 10  1  0  0  0  0
 15 16  1  0  0  0  0
 16  1  1  0  0  0  0
 16 13  1  0  0  0  0
 17 12  1  0  0  0  0
 18  5  1  6  0  0  0
 18 22  1  0  0  0  0
 18 19  1  0  0  0  0
 19 20  1  0  0  0  0
 21 20  1  0  0  0  0
 21 29  1  6  0  0  0
 22 21  1  0  0  0  0
 23 28  1  0  0  0  0
 24 23  2  0  0  0  0
 24 29  1  0  0  0  0
 25 26  1  0  0  0  0
 27 23  1  0  0  0  0
 28 26  2  0  0  0  0
 29 25  2  0  0  0  0
M  END
>  <MODEL>
5

>  <REMARK>
 VINA RESULT:      -8.5      6.178      8.023
  Name = 
  3 active torsions:
  status: ('A' for Active; 'I' for Inactive)
    1  A    between atoms: C_3  and  C_24
    2  A    between atoms: C_5  and  N_15
    3  A    between atoms: C_16  and  C_28
                            x       y       z     vdW  Elec       q    Type
                         _______ _______ _______ _____ _____    ______ ____

>  <TORSDO>
F 3

$$$$
=
 OpenBabel11062416193D

 29 32  0  0  1  0  0  0  0  0999 V2000
  183.5060  177.3170  138.0600 C   0  0  0  0  0  0  0  0  0  0  0  0
  185.6330  178.6430  139.7810 N   0  0  0  0  0  0  0  0  0  0  0  0
  184.7950  175.8590  136.5750 N   0  0  0  0  0  1  0  0  0  0  0  0
  184.8470  176.7130  137.7510 C   0  0  1  0  0  3  0  0  0  0  0  0
  184.0230  178.5470  141.5070 N   0  0  0  0  0  2  0  0  0  0  0  0
  184.4060  178.3740  140.1400 C   0  0  0  0  0  0  0  0  0  0  0  0
  185.8380  177.7570  137.5460 N   0  0  0  0  0  0  0  0  0  0  0  0
  183.3380  178.0230  139.1820 C   0  0  0  0  0  3  0  0  0  0  0  0
  186.2100  178.5950  138.4640 C   0  0  0  0  0  3  0  0  0  0  0  0
  179.9820  178.1050  137.0930 C   0  0  0  0  0  2  0  0  0  0  0  0
  181.2630  177.5550  134.9430 C   0  0  0  0  0  2  0  0  0  0  0  0
  179.8890  177.6620  135.6270 C   0  0  0  0  0  0  0  0  0  0  0  0
  182.4380  177.8850  135.8640 C   0  0  0  0  0  2  0  0  0  0  0  0
  179.0530  178.6760  134.8730 C   0  0  0  0  0  1  0  0  0  0  0  0
  180.9970  177.2780  137.8940 C   0  0  0  0  0  2  0  0  0  0  0  0
  182.3310  177.0740  137.1550 C   0  0  0  0  0  3  0  0  0  0  0  0
  179.1940  176.3150  135.5430 C   0  0  0  0  0  1  0  0  0  0  0  0
  184.9440  178.9830  142.5470 C   0  0  1  0  0  3  0  0  0  0  0  0
  184.1820  179.6270  143.6820 C   0  0  0  0  0  2  0  0  0  0  0  0
  184.9570  179.2100  144.8830 C   0  0  0  0  0  2  0  0  0  0  0  0
  185.5730  177.9050  144.4390 C   0  0  1  0  0  3  0  0  0  0  0  0
  185.6680  177.8780  143.0330 O   0  0  0  0  0  0  0  0  0  0  0  0
  188.3550  177.6500  147.0200 C   0  0  0  0  0  0  0  0  0  0  0  0
  187.0950  177.8530  146.4510 C   0  0  0  0  0  3  0  0  0  0  0  0
  188.0010  177.3410  144.2630 C   0  0  0  0  0  3  0  0  0  0  0  0
  189.2610  177.1370  144.8330 C   0  0  0  0  0  3  0  0  0  0  0  0
  188.5360  177.8050  148.4230 N   0  0  0  0  0  1  0  0  0  0  0  0
  189.4390  177.2910  146.2120 C   0  0  0  0  0  3  0  0  0  0  0  0
  186.9140  177.7020  145.0680 C   0  0  0  0  0  0  0  0  0  0  0  0
  1  8  2  0  0  0  0
  2  6  2  0  0  0  0
  4  3  1  6  0  0  0
  4  1  1  0  0  0  0
  6  5  1  0  0  0  0
  7  4  1  0  0  0  0
  7  9  2  0  0  0  0
  8  6  1  0  0  0  0
  9  2  1  0  0  0  0
 10 15  1  0  0  0  0
 11 12  1  0  0  0  0
 11 13  1  0  0  0  0
 12 10  1  0  0  0  0
 13 16  1  0  0  0  0
 14 12  1  0  0  0  0
 16 15  1  0  0  0  0
 16  1  1  0  0  0  0
 17 12  1  0  0  0  0
 18  5  1  6  0  0  0
 18 22  1  0  0  0  0
 18 19  1  0  0  0  0
 19 20  1  0  0  0  0
 21 20  1  0  0  0  0
 21 29  1  1  0  0  0
 22 21  1  0  0  0  0
 23 27  1  0  0  0  0
 24 23  1  0  0  0  0
 25 26  2  0  0  0  0
 25 29  1  0  0  0  0
 26 28  1  0  0  0  0
 28 23  2  0  0  0  0
 29 24  2  0  0  0  0
M  END
>  <MODEL>
6

>  <REMARK>
 VINA RESULT:      -8.4      5.417      7.991
  Name = 
  3 active torsions:
  status: ('A' for Active; 'I' for Inactive)
    1  A    between atoms: C_3  and  C_24
    2  A    between atoms: C_5  and  N_15
    3  A    between atoms: C_16  and  C_28
                            x       y       z     vdW  Elec       q    Type
                         _______ _______ _______ _____ _____    ______ ____

>  <TORSDO>
F 3

$$$$
=
 OpenBabel11062416193D

 29 32  0  0  1  0  0  0  0  0999 V2000
  181.2990  180.6770  138.9630 C   0  0  0  0  0  0  0  0  0  0  0  0
  182.8200  178.0800  139.3870 N   0  0  0  0  0  0  0  0  0  0  0  0
  179.5370  180.5950  140.6600 N   0  0  0  0  0  1  0  0  0  0  0  0
  180.7620  179.9770  140.1790 C   0  0  1  0  0  3  0  0  0  0  0  0
  184.7340  179.3260  138.7840 N   0  0  0  0  0  2  0  0  0  0  0  0
  183.3180  179.2030  138.9440 C   0  0  0  0  0  0  0  0  0  0  0  0
  180.5120  178.5750  139.8870 N   0  0  0  0  0  0  0  0  0  0  0  0
  182.4880  180.3270  138.4650 C   0  0  0  0  0  3  0  0  0  0  0  0
  181.4380  177.7230  139.5660 C   0  0  0  0  0  3  0  0  0  0  0  0
  181.2940  183.7150  136.7830 C   0  0  0  0  0  2  0  0  0  0  0  0
  179.0230  182.5630  136.4990 C   0  0  0  0  0  2  0  0  0  0  0  0
  179.8280  183.8660  136.3570 C   0  0  0  0  0  0  0  0  0  0  0  0
  179.8340  181.3940  137.0570 C   0  0  0  0  0  2  0  0  0  0  0  0
  179.7940  184.2970  134.9050 C   0  0  0  0  0  1  0  0  0  0  0  0
  181.4410  183.0570  138.1620 C   0  0  0  0  0  2  0  0  0  0  0  0
  180.5440  181.8200  138.3430 C   0  0  0  0  0  3  0  0  0  0  0  0
  179.1620  184.9470  137.1900 C   0  0  0  0  0  1  0  0  0  0  0  0
  185.6730  178.2650  139.1220 C   0  0  1  0  0  3  0  0  0  0  0  0
  186.3830  177.7820  137.8790 C   0  0  0  0  0  2  0  0  0  0  0  0
  187.7530  177.4720  138.3760 C   0  0  0  0  0  2  0  0  0  0  0  0
  187.8940  178.4090  139.5510 C   0  0  1  0  0  3  0  0  0  0  0  0
  186.6190  178.7460  140.0470 O   0  0  0  0  0  0  0  0  0  0  0  0
  189.0270  176.9900  142.8930 C   0  0  0  0  0  0  0  0  0  0  0  0
  188.2230  177.5660  141.9060 C   0  0  0  0  0  3  0  0  0  0  0  0
  190.0650  177.4540  140.3380 C   0  0  0  0  0  3  0  0  0  0  0  0
  190.8690  176.8770  141.3250 C   0  0  0  0  0  3  0  0  0  0  0  0
  188.4990  176.7520  144.1930 N   0  0  0  0  0  1  0  0  0  0  0  0
  190.3510  176.6440  142.6030 C   0  0  0  0  0  3  0  0  0  0  0  0
  188.7400  177.8020  140.6240 C   0  0  0  0  0  0  0  0  0  0  0  0
  1  4  1  0  0  0  0
  2  9  1  0  0  0  0
  4  3  1  6  0  0  0
  5  6  1  0  0  0  0
  6  2  2  0  0  0  0
  7  4  1  0  0  0  0
  8  6  1  0  0  0  0
  8  1  2  0  0  0  0
  9  7  2  0  0  0  0
 10 15  1  0  0  0  0
 11 13  1  0  0  0  0
 12 11  1  0  0  0  0
 12 10  1  0  0  0  0
 12 17  1  0  0  0  0
 13 16  1  0  0  0  0
 14 12  1  0  0  0  0
 15 16  1  0  0  0  0
 16  1  1  0  0  0  0
 18  5  1  6  0  0  0
 18 22  1  0  0  0  0
 19 20  1  0  0  0  0
 19 18  1  0  0  0  0
 20 21  1  0  0  0  0
 21 22  1  0  0  0  0
 21 29  1  1  0  0  0
 23 27  1  0  0  0  0
 24 23  2  0  0  0  0
 25 29  2  0  0  0  0
 25 26  1  0  0  0  0
 26 28  2  0  0  0  0
 28 23  1  0  0  0  0
 29 24  1  0  0  0  0
M  END
>  <MODEL>
7

>  <REMARK>
 VINA RESULT:      -8.2      6.639     10.352
  Name = 
  3 active torsions:
  status: ('A' for Active; 'I' for Inactive)
    1  A    between atoms: C_3  and  C_24
    2  A    between atoms: C_5  and  N_15
    3  A    between atoms: C_16  and  C_28
                            x       y       z     vdW  Elec       q    Type
                         _______ _______ _______ _____ _____    ______ ____

>  <TORSDO>
F 3

$$$$
=
 OpenBabel11062416193D

 29 32  0  0  1  0  0  0  0  0999 V2000
  181.5950  178.4590  140.9130 C   0  0  0  0  0  0  0  0  0  0  0  0
  183.1980  178.8170  143.4700 N   0  0  0  0  0  0  0  0  0  0  0  0
  179.8490  180.1670  141.0850 N   0  0  0  0  0  1  0  0  0  0  0  0
  181.0880  179.6630  141.6560 C   0  0  1  0  0  3  0  0  0  0  0  0
  185.0680  178.2270  142.1530 N   0  0  0  0  0  2  0  0  0  0  0  0
  183.6580  178.3940  142.3230 C   0  0  0  0  0  0  0  0  0  0  0  0
  180.8800  179.3430  143.0580 N   0  0  0  0  0  0  0  0  0  0  0  0
  182.7890  177.9450  141.2150 C   0  0  0  0  0  3  0  0  0  0  0  0
  181.8290  178.9980  143.8730 C   0  0  0  0  0  3  0  0  0  0  0  0
  181.5240  176.6750  137.6280 C   0  0  0  0  0  2  0  0  0  0  0  0
  179.4690  175.9150  138.9580 C   0  0  0  0  0  2  0  0  0  0  0  0
  180.1230  176.0510  137.5720 C   0  0  0  0  0  0  0  0  0  0  0  0
  180.3320  176.4500  140.1020 C   0  0  0  0  0  2  0  0  0  0  0  0
  180.2380  174.6710  136.9570 C   0  0  0  0  0  1  0  0  0  0  0  0
  181.5560  177.9730  138.4450 C   0  0  0  0  0  2  0  0  0  0  0  0
  180.8000  177.8690  139.7810 C   0  0  0  0  0  3  0  0  0  0  0  0
  179.2230  176.8930  136.6860 C   0  0  0  0  0  1  0  0  0  0  0  0
  186.0410  178.5350  143.1910 C   0  0  1  0  0  3  0  0  0  0  0  0
  185.4590  178.2450  144.5550 C   0  0  0  0  0  2  0  0  0  0  0  0
  186.6330  177.7410  145.3200 C   0  0  0  0  0  2  0  0  0  0  0  0
  187.5010  177.1490  144.2350 C   0  0  1  0  0  3  0  0  0  0  0  0
  187.2010  177.7590  143.0000 O   0  0  0  0  0  0  0  0  0  0  0  0
  190.8000  177.1260  146.1280 C   0  0  0  0  0  0  0  0  0  0  0  0
  189.4390  176.9870  145.8420 C   0  0  0  0  0  3  0  0  0  0  0  0
  189.8360  177.7470  143.5770 C   0  0  0  0  0  3  0  0  0  0  0  0
  191.1980  177.8850  143.8620 C   0  0  0  0  0  3  0  0  0  0  0  0
  191.2920  176.8090  147.4250 N   0  0  0  0  0  1  0  0  0  0  0  0
  191.6800  177.5740  145.1380 C   0  0  0  0  0  3  0  0  0  0  0  0
  188.9510  177.2990  144.5640 C   0  0  0  0  0  0  0  0  0  0  0  0
  1  8  2  0  0  0  0
  1  4  1  0  0  0  0
  2  9  1  0  0  0  0
  4  3  1  6  0  0  0
  4  7  1  0  0  0  0
  5  6  1  0  0  0  0
  6  2  2  0  0  0  0
  7  9  2  0  0  0  0
  8  6  1  0  0  0  0
 10 15  1  0  0  0  0
 11 13  1  0  0  0  0
 12 10  1  0  0  0  0
 12 11  1  0  0  0  0
 14 12  1  0  0  0  0
 15 16  1  0  0  0  0
 16 13  1  0  0  0  0
 16  1  1  0  0  0  0
 17 12  1  0  0  0  0
 18  5  1  6  0  0  0
 18 19  1  0  0  0  0
 19 20  1  0  0  0  0
 21 29  1  1  0  0  0
 21 20  1  0  0  0  0
 22 18  1  0  0  0  0
 22 21  1  0  0  0  0
 23 27  1  0  0  0  0
 24 23  1  0  0  0  0
 25 26  2  0  0  0  0
 25 29  1  0  0  0  0
 26 28  1  0  0  0  0
 28 23  2  0  0  0  0
 29 24  2  0  0  0  0
M  END
>  <MODEL>
8

>  <REMARK>
 VINA RESULT:      -8.2      5.797      9.025
  Name = 
  3 active torsions:
  status: ('A' for Active; 'I' for Inactive)
    1  A    between atoms: C_3  and  C_24
    2  A    between atoms: C_5  and  N_15
    3  A    between atoms: C_16  and  C_28
                            x       y       z     vdW  Elec       q    Type
                         _______ _______ _______ _____ _____    ______ ____

>  <TORSDO>
F 3

$$$$
=
 OpenBabel11062416193D

 29 32  0  0  1  0  0  0  0  0999 V2000
  183.3770  177.8700  138.8700 C   0  0  0  0  0  0  0  0  0  0  0  0
  185.7360  178.7510  140.5730 N   0  0  0  0  0  0  0  0  0  0  0  0
  184.3560  176.2360  137.3320 N   0  0  0  0  0  1  0  0  0  0  0  0
  184.5810  177.0410  138.5220 C   0  0  1  0  0  3  0  0  0  0  0  0
  184.1630  178.9100  142.3280 N   0  0  0  0  0  2  0  0  0  0  0  0
  184.4870  178.7010  140.9510 C   0  0  0  0  0  0  0  0  0  0  0  0
  185.7410  177.8920  138.3180 N   0  0  0  0  0  0  0  0  0  0  0  0
  183.3580  178.5700  140.0070 C   0  0  0  0  0  3  0  0  0  0  0  0
  186.2740  178.6280  139.2440 C   0  0  0  0  0  3  0  0  0  0  0  0
  179.8870  179.0300  138.1970 C   0  0  0  0  0  2  0  0  0  0  0  0
  181.0670  178.7960  135.9350 C   0  0  0  0  0  2  0  0  0  0  0  0
  179.7230  178.8630  136.6810 C   0  0  0  0  0  0  0  0  0  0  0  0
  182.2870  178.8850  136.8510 C   0  0  0  0  0  2  0  0  0  0  0  0
  178.9360  180.0430  136.1510 C   0  0  0  0  0  1  0  0  0  0  0  0
  180.8670  178.0150  138.7990 C   0  0  0  0  0  2  0  0  0  0  0  0
  182.1630  177.8640  137.9830 C   0  0  0  0  0  3  0  0  0  0  0  0
  178.9370  177.5970  136.3890 C   0  0  0  0  0  1  0  0  0  0  0  0
  185.1640  179.1490  143.3580 C   0  0  1  0  0  3  0  0  0  0  0  0
  184.4940  179.4270  144.6830 C   0  0  0  0  0  2  0  0  0  0  0  0
  185.4160  178.7900  145.6640 C   0  0  0  0  0  2  0  0  0  0  0  0
  186.0530  177.6910  144.8490 C   0  0  1  0  0  3  0  0  0  0  0  0
  185.9990  178.0210  143.4790 O   0  0  0  0  0  0  0  0  0  0  0  0
  189.8050  177.0690  144.7650 C   0  0  0  0  0  0  0  0  0  0  0  0
  188.4910  177.2860  144.3400 C   0  0  0  0  0  3  0  0  0  0  0  0
  187.7630  177.3970  146.6470 C   0  0  0  0  0  3  0  0  0  0  0  0
  189.0770  177.1810  147.0720 C   0  0  0  0  0  3  0  0  0  0  0  0
  190.8450  176.9040  143.8070 N   0  0  0  0  0  1  0  0  0  0  0  0
  190.0990  177.0170  146.1310 C   0  0  0  0  0  3  0  0  0  0  0  0
  187.4640  177.4490  145.2810 C   0  0  0  0  0  0  0  0  0  0  0  0
  1  8  2  0  0  0  0
  2  6  2  0  0  0  0
  4  3  1  6  0  0  0
  4  1  1  0  0  0  0
  6  5  1  0  0  0  0
  7  4  1  0  0  0  0
  7  9  2  0  0  0  0
  8  6  1  0  0  0  0
  9  2  1  0  0  0  0
 10 15  1  0  0  0  0
 11 12  1  0  0  0  0
 11 13  1  0  0  0  0
 12 10  1  0  0  0  0
 13 16  1  0  0  0  0
 14 12  1  0  0  0  0
 16 15  1  0  0  0  0
 16  1  1  0  0  0  0
 17 12  1  0  0  0  0
 18  5  1  6  0  0  0
 18 22  1  0  0  0  0
 18 19  1  0  0  0  0
 19 20  1  0  0  0  0
 21 29  1  1  0  0  0
 21 20  1  0  0  0  0
 22 21  1  0  0  0  0
 23 28  1  0  0  0  0
 24 23  2  0  0  0  0
 24 29  1  0  0  0  0
 25 26  1  0  0  0  0
 27 23  1  0  0  0  0
 28 26  2  0  0  0  0
 29 25  2  0  0  0  0
M  END
>  <MODEL>
9

>  <REMARK>
 VINA RESULT:      -8.1      5.436      8.378
  Name = 
  3 active torsions:
  status: ('A' for Active; 'I' for Inactive)
    1  A    between atoms: C_3  and  C_24
    2  A    between atoms: C_5  and  N_15
    3  A    between atoms: C_16  and  C_28
                            x       y       z     vdW  Elec       q    Type
                         _______ _______ _______ _____ _____    ______ ____

>  <TORSDO>
F 3

$$$$
