=
 OpenBabel11062417033D

 47 51  0  0  1  0  0  0  0  0999 V2000
  188.4180  177.8120  139.5790 C   0  0  0  0  0  0  0  0  0  0  0  0
  188.8360  178.9060  139.1150 O   0  0  0  0  0  0  0  0  0  0  0  0
  187.6910  176.9190  138.7350 N   0  0  0  0  0  2  0  0  0  0  0  0
  188.5980  177.4770  141.0090 C   0  0  0  0  0  0  0  0  0  0  0  0
  187.9550  177.5080  143.4060 C   0  0  0  0  0  2  0  0  0  0  0  0
  190.2230  176.9000  143.7160 C   0  0  0  0  0  2  0  0  0  0  0  0
  190.7030  176.9650  142.2670 C   0  0  0  0  0  2  0  0  0  0  0  0
  189.6300  176.4290  141.3250 C   0  0  0  0  0  2  0  0  0  0  0  0
  187.8460  178.0190  141.9960 C   0  0  0  0  0  0  0  0  0  0  0  0
  189.2240  177.9260  143.9860 N   0  0  0  0  0  2  0  0  0  0  0  0
  186.8110  179.4680  141.7400 S   0  0  0  0  0  0  0  0  0  0  0  0
  184.6800  178.3110  140.3980 C   0  0  0  0  0  2  0  0  0  0  0  0
  184.3450  178.8940  142.8850 C   0  0  0  0  0  0  0  0  0  0  0  0
  182.4700  178.6520  141.3760 N   0  0  2  0  0  0  0  0  0  0  0  0
  184.6130  178.6140  144.1280 C   0  0  0  0  0  0  0  0  0  0  0  0
  182.9770  179.3930  142.5320 C   0  0  0  0  0  2  0  0  0  0  0  0
  183.3360  179.0250  140.2600 C   0  0  0  0  0  2  0  0  0  0  0  0
  184.8650  178.3460  145.3080 O   0  0  0  0  0  0  0  0  0  0  0  0
  185.3000  178.4550  141.8000 C   0  0  2  0  0  3  0  0  0  0  0  0
  179.6140  178.5980  142.9420 C   0  0  1  0  0  3  0  0  0  0  0  0
  180.4680  179.6930  142.3290 C   0  0  1  0  0  3  0  0  0  0  0  0
  180.2180  177.8730  140.8310 C   0  0  0  0  0  2  0  0  0  0  0  0
  179.7560  177.4000  142.1250 N   0  0  0  0  0  2  0  0  0  0  0  0
  181.0970  179.0850  141.0900 C   0  0  2  0  0  3  0  0  0  0  0  0
  180.0880  178.3110  144.3480 C   0  0  0  0  0  1  0  0  0  0  0  0
  179.6520  180.7660  141.9670 O   0  0  0  0  0  1  0  0  0  0  0  0
  187.2130  177.3180  137.4210 C   0  0  0  0  0  2  0  0  0  0  0  0
  187.9020  176.5160  136.3170 C   0  0  1  0  0  3  0  0  0  0  0  0
  187.8710  173.6580  135.5850 C   0  0  0  0  0  2  0  0  0  0  0  0
  186.9080  176.0140  135.2540 C   0  0  2  0  0  3  0  0  0  0  0  0
  186.7820  172.9920  136.4160 C   0  0  0  0  0  2  0  0  0  0  0  0
  185.4550  175.9990  135.7550 C   0  0  0  0  0  2  0  0  0  0  0  0
  187.3250  174.6880  134.5940 C   0  0  0  0  0  2  0  0  0  0  0  0
  186.0570  173.9880  137.3050 C   0  0  0  0  0  2  0  0  0  0  0  0
  184.9950  174.7180  136.4770 C   0  0  1  0  0  3  0  0  0  0  0  0
  183.7730  174.8840  137.1600 O   0  0  0  0  0  0  0  0  0  0  0  0
  183.7320  176.1840  137.6920 C   0  0  0  0  0  1  0  0  0  0  0  0
  189.2570  177.4860  135.5600 S   0  0  0  0  0  0  0  0  0  0  0  0
  190.4610  176.1780  135.7840 C   0  0  0  0  0  0  0  0  0  0  0  0
  190.9900  175.4970  134.6360 S   0  0  0  0  0  0  0  0  0  0  0  0
  190.7410  175.6680  137.1600 C   0  0  0  0  0  2  0  0  0  0  0  0
  191.5690  176.6820  137.9480 C   0  0  0  0  0  2  0  0  0  0  0  0
  193.8870  176.2900  136.8470 C   0  0  0  0  0  2  0  0  0  0  0  0
  193.7190  176.8110  139.2120 O   0  0  0  0  0  1  0  0  0  0  0  0
  194.7520  174.4470  138.2720 C   0  0  0  0  0  1  0  0  0  0  0  0
  193.5320  174.9700  137.5340 C   0  0  1  0  0  3  0  0  0  0  0  0
  193.0440  176.2980  138.1000 C   0  0  1  0  0  0  0  0  0  0  0  0
  1  4  1  0  0  0  0
  2  1  2  0  0  0  0
  3  1  1  0  0  0  0
  4  8  1  0  0  0  0
  4  9  2  0  0  0  0
  5 10  1  0  0  0  0
  6 10  1  0  0  0  0
  7  6  1  0  0  0  0
  8  7  1  0  0  0  0
  9  5  1  0  0  0  0
 11  9  1  0  0  0  0
 12 19  1  0  0  0  0
 13 15  2  0  0  0  0
 14 17  1  6  0  0  0
 14 16  1  0  0  0  0
 15 18  2  0  0  0  0
 16 13  1  0  0  0  0
 17 12  1  0  0  0  0
 19 11  1  6  0  0  0
 19 13  1  0  0  0  0
 20 25  1  1  0  0  0
 21 26  1  6  0  0  0
 21 20  1  0  0  0  0
 22 23  1  0  0  0  0
 23 20  1  0  0  0  0
 24 22  1  1  0  0  0
 24 14  1  0  0  0  0
 24 21  1  0  0  0  0
 27  3  1  0  0  0  0
 28 27  1  1  0  0  0
 29 31  1  0  0  0  0
 30 32  1  0  0  0  0
 30 28  1  1  0  0  0
 31 34  1  0  0  0  0
 32 35  1  0  0  0  0
 33 30  1  0  0  0  0
 33 29  1  0  0  0  0
 35 36  1  1  0  0  0
 35 34  1  0  0  0  0
 36 37  1  0  0  0  0
 38 39  1  0  0  0  0
 38 28  1  0  0  0  0
 39 41  1  0  0  0  0
 40 39  2  0  0  0  0
 41 42  1  0  0  0  0
 42 47  1  0  0  0  0
 43 46  1  0  0  0  0
 43 47  1  0  0  0  0
 46 47  1  0  0  0  0
 46 45  1  1  0  0  0
 47 44  1  1  0  0  0
M  END
>  <MODEL>
1

>  <REMARK>
 VINA RESULT:      -6.5      0.000      0.000
  Name = 
  13 active torsions:
  status: ('A' for Active; 'I' for Inactive)
    1  A    between atoms: C_2  and  C_7
    2  A    between atoms: C_2  and  S_10
    3  A    between atoms: C_3  and  C_9
    4  A    between atoms: C_7  and  C_14
    5  A    between atoms: S_10  and  C_34
    6  A    between atoms: C_14  and  C_40
    7  A    between atoms: C_15  and  C_34
    8  A    between atoms: O_16  and  C_45
    9  A    between atoms: S_18  and  C_38
   10  A    between atoms: S_18  and  C_47
   11  A    between atoms: N_19  and  C_31
   12  A    between atoms: N_21  and  C_32
   13  A    between atoms: C_32  and  C_34
                            x       y       z     vdW  Elec       q    Type
                         _______ _______ _______ _____ _____    ______ ____

>  <TORSDO>
F 13

$$$$
=
 OpenBabel11062417033D

 47 51  0  0  1  0  0  0  0  0999 V2000
  185.0600  177.8980  138.0270 C   0  0  0  0  0  0  0  0  0  0  0  0
  185.4140  179.0880  138.2410 O   0  0  0  0  0  0  0  0  0  0  0  0
  183.8550  177.4040  138.6130 N   0  0  0  0  0  2  0  0  0  0  0  0
  185.9170  176.9810  137.2450 C   0  0  0  0  0  0  0  0  0  0  0  0
  188.0840  175.9480  136.6110 C   0  0  0  0  0  2  0  0  0  0  0  0
  186.8830  175.3330  134.6660 C   0  0  0  0  0  2  0  0  0  0  0  0
  185.5570  176.0360  134.9540 C   0  0  0  0  0  2  0  0  0  0  0  0
  185.2080  175.9310  136.4350 C   0  0  0  0  0  2  0  0  0  0  0  0
  187.2710  177.0170  137.2870 C   0  0  0  0  0  0  0  0  0  0  0  0
  188.0090  176.1100  135.1660 N   0  0  0  0  0  2  0  0  0  0  0  0
  188.1800  178.4030  137.9870 S   0  0  0  0  0  0  0  0  0  0  0  0
  187.5280  178.1720  140.6710 C   0  0  0  0  0  2  0  0  0  0  0  0
  189.8370  177.3030  139.9290 C   0  0  0  0  0  0  0  0  0  0  0  0
  189.3960  177.9290  142.2240 N   0  0  2  0  0  0  0  0  0  0  0  0
  190.5210  176.3880  139.3030 C   0  0  0  0  0  0  0  0  0  0  0  0
  190.4110  177.9170  141.1690 C   0  0  0  0  0  2  0  0  0  0  0  0
  188.3590  178.8490  141.7600 C   0  0  0  0  0  2  0  0  0  0  0  0
  191.1690  175.5190  138.7110 O   0  0  0  0  0  0  0  0  0  0  0  0
  188.3870  177.5260  139.5690 C   0  0  2  0  0  3  0  0  0  0  0  0
  191.2900  176.7560  144.6000 C   0  0  1  0  0  3  0  0  0  0  0  0
  191.4000  177.9190  143.6320 C   0  0  1  0  0  3  0  0  0  0  0  0
  189.2670  177.8740  144.6640 C   0  0  0  0  0  2  0  0  0  0  0  0
  189.8860  176.5930  144.9560 N   0  0  0  0  0  2  0  0  0  0  0  0
  189.9910  178.4530  143.4600 C   0  0  2  0  0  3  0  0  0  0  0  0
  191.7940  175.4950  143.9390 C   0  0  0  0  0  1  0  0  0  0  0  0
  192.2150  178.9070  144.1880 O   0  0  0  0  0  1  0  0  0  0  0  0
  183.1340  178.1480  139.6350 C   0  0  0  0  0  2  0  0  0  0  0  0
  181.6350  178.1730  139.3410 C   0  0  1  0  0  3  0  0  0  0  0  0
  179.1620  177.3230  137.9730 C   0  0  0  0  0  2  0  0  0  0  0  0
  180.9330  176.8740  139.7760 C   0  0  2  0  0  3  0  0  0  0  0  0
  179.5650  176.3310  136.8900 C   0  0  0  0  0  2  0  0  0  0  0  0
  181.7070  175.6110  139.3660 C   0  0  0  0  0  2  0  0  0  0  0  0
  179.4440  176.8130  139.3880 C   0  0  0  0  0  2  0  0  0  0  0  0
  181.0630  176.0780  136.8820 C   0  0  0  0  0  2  0  0  0  0  0  0
  181.4040  175.0500  137.9640 C   0  0  1  0  0  3  0  0  0  0  0  0
  182.3450  174.0880  137.5440 O   0  0  0  0  0  0  0  0  0  0  0  0
  181.7180  173.2160  136.6380 C   0  0  0  0  0  1  0  0  0  0  0  0
  180.8490  179.6430  140.0990 S   0  0  0  0  0  0  0  0  0  0  0  0
  181.0530  179.0240  141.7680 C   0  0  0  0  0  0  0  0  0  0  0  0
  179.8970  178.8170  142.5940 S   0  0  0  0  0  0  0  0  0  0  0  0
  182.4250  178.9330  142.3520 C   0  0  0  0  0  2  0  0  0  0  0  0
  182.3540  178.8520  143.8750 C   0  0  0  0  0  2  0  0  0  0  0  0
  184.7700  179.8030  143.9100 C   0  0  0  0  0  2  0  0  0  0  0  0
  183.7110  179.0560  145.9630 O   0  0  0  0  0  1  0  0  0  0  0  0
  185.9830  177.8980  144.9470 C   0  0  0  0  0  1  0  0  0  0  0  0
  184.9290  178.2810  143.9240 C   0  0  1  0  0  3  0  0  0  0  0  0
  183.7170  178.9430  144.5690 C   0  0  1  0  0  0  0  0  0  0  0  0
  1  2  2  0  0  0  0
  1  3  1  0  0  0  0
  3 27  1  0  0  0  0
  4  9  2  0  0  0  0
  4  1  1  0  0  0  0
  5  9  1  0  0  0  0
  6  7  1  0  0  0  0
  6 10  1  0  0  0  0
  7  8  1  0  0  0  0
  8  4  1  0  0  0  0
  9 11  1  0  0  0  0
 10  5  1  0  0  0  0
 12 17  1  0  0  0  0
 13 16  1  0  0  0  0
 14 16  1  6  0  0  0
 14 24  1  0  0  0  0
 15 13  2  0  0  0  0
 17 14  1  0  0  0  0
 18 15  2  0  0  0  0
 19 11  1  6  0  0  0
 19 13  1  0  0  0  0
 19 12  1  0  0  0  0
 20 25  1  6  0  0  0
 20 23  1  0  0  0  0
 21 26  1  1  0  0  0
 21 20  1  0  0  0  0
 22 23  1  0  0  0  0
 24 21  1  0  0  0  0
 24 22  1  1  0  0  0
 28 27  1  1  0  0  0
 28 38  1  0  0  0  0
 29 33  1  0  0  0  0
 30 28  1  6  0  0  0
 31 29  1  0  0  0  0
 32 30  1  0  0  0  0
 33 30  1  0  0  0  0
 34 31  1  0  0  0  0
 34 35  1  0  0  0  0
 35 36  1  6  0  0  0
 35 32  1  0  0  0  0
 37 36  1  0  0  0  0
 38 39  1  0  0  0  0
 39 41  1  0  0  0  0
 39 40  2  0  0  0  0
 41 42  1  0  0  0  0
 42 47  1  0  0  0  0
 43 46  1  0  0  0  0
 43 47  1  0  0  0  0
 46 47  1  0  0  0  0
 46 45  1  1  0  0  0
 47 44  1  1  0  0  0
M  END
>  <MODEL>
2

>  <REMARK>
 VINA RESULT:      -6.4      2.576      8.625
  Name = 
  13 active torsions:
  status: ('A' for Active; 'I' for Inactive)
    1  A    between atoms: C_2  and  C_7
    2  A    between atoms: C_2  and  S_10
    3  A    between atoms: C_3  and  C_9
    4  A    between atoms: C_7  and  C_14
    5  A    between atoms: S_10  and  C_34
    6  A    between atoms: C_14  and  C_40
    7  A    between atoms: C_15  and  C_34
    8  A    between atoms: O_16  and  C_45
    9  A    between atoms: S_18  and  C_38
   10  A    between atoms: S_18  and  C_47
   11  A    between atoms: N_19  and  C_31
   12  A    between atoms: N_21  and  C_32
   13  A    between atoms: C_32  and  C_34
                            x       y       z     vdW  Elec       q    Type
                         _______ _______ _______ _____ _____    ______ ____

>  <TORSDO>
F 13

$$$$
=
 OpenBabel11062417033D

 47 51  0  0  1  0  0  0  0  0999 V2000
  184.9670  178.5480  138.2940 C   0  0  0  0  0  0  0  0  0  0  0  0
  185.5360  179.0890  139.2790 O   0  0  0  0  0  0  0  0  0  0  0  0
  183.7030  179.0400  137.8490 N   0  0  0  0  0  2  0  0  0  0  0  0
  185.5520  177.3540  137.6440 C   0  0  0  0  0  0  0  0  0  0  0  0
  187.3900  175.7640  137.1390 C   0  0  0  0  0  2  0  0  0  0  0  0
  185.9850  175.1790  135.3240 C   0  0  0  0  0  2  0  0  0  0  0  0
  184.8730  176.2060  135.5240 C   0  0  0  0  0  2  0  0  0  0  0  0
  184.5820  176.3960  137.0090 C   0  0  0  0  0  2  0  0  0  0  0  0
  186.8780  177.0780  137.6600 C   0  0  0  0  0  0  0  0  0  0  0  0
  187.2840  175.7330  135.6870 N   0  0  0  0  0  2  0  0  0  0  0  0
  188.1150  178.2960  138.1330 S   0  0  0  0  0  0  0  0  0  0  0  0
  187.5700  178.0630  140.8410 C   0  0  0  0  0  2  0  0  0  0  0  0
  189.8860  177.2860  140.0220 C   0  0  0  0  0  0  0  0  0  0  0  0
  189.5010  177.9150  142.3260 N   0  0  2  0  0  0  0  0  0  0  0  0
  190.5860  176.3960  139.3790 C   0  0  0  0  0  0  0  0  0  0  0  0
  190.4770  177.9360  141.2350 C   0  0  0  0  0  2  0  0  0  0  0  0
  188.4100  178.7850  141.8930 C   0  0  0  0  0  2  0  0  0  0  0  0
  191.2500  175.5500  138.7700 O   0  0  0  0  0  0  0  0  0  0  0  0
  188.4160  177.4440  139.7130 C   0  0  2  0  0  3  0  0  0  0  0  0
  191.3880  176.7970  144.7350 C   0  0  1  0  0  3  0  0  0  0  0  0
  191.5160  177.9180  143.7190 C   0  0  1  0  0  3  0  0  0  0  0  0
  189.3910  177.9610  144.7670 C   0  0  0  0  0  2  0  0  0  0  0  0
  189.9840  176.6790  145.1070 N   0  0  0  0  0  2  0  0  0  0  0  0
  190.1170  178.4740  143.5350 C   0  0  2  0  0  3  0  0  0  0  0  0
  191.8610  175.5000  144.1210 C   0  0  0  0  0  1  0  0  0  0  0  0
  192.3560  178.9090  144.2290 O   0  0  0  0  0  1  0  0  0  0  0  0
  182.9320  179.9980  138.6260 C   0  0  0  0  0  2  0  0  0  0  0  0
  181.5690  179.4260  139.0100 C   0  0  1  0  0  3  0  0  0  0  0  0
  178.9310  180.6090  139.6030 C   0  0  0  0  0  2  0  0  0  0  0  0
  180.5330  179.5820  137.8810 C   0  0  2  0  0  3  0  0  0  0  0  0
  179.0130  182.0900  139.2570 C   0  0  0  0  0  2  0  0  0  0  0  0
  180.9060  180.6820  136.8750 C   0  0  0  0  0  2  0  0  0  0  0  0
  179.0820  179.6990  138.3820 C   0  0  0  0  0  2  0  0  0  0  0  0
  180.3760  182.4680  138.7020 C   0  0  0  0  0  2  0  0  0  0  0  0
  180.4290  182.1070  137.2140 C   0  0  1  0  0  3  0  0  0  0  0  0
  181.0480  183.0950  136.4220 O   0  0  0  0  0  0  0  0  0  0  0  0
  181.5390  184.1030  137.2700 C   0  0  0  0  0  1  0  0  0  0  0  0
  181.7210  177.6810  139.5410 S   0  0  0  0  0  0  0  0  0  0  0  0
  181.0780  178.0130  141.1800 C   0  0  0  0  0  0  0  0  0  0  0  0
  179.7610  177.5630  141.5300 S   0  0  0  0  0  0  0  0  0  0  0  0
  181.8280  178.9320  142.0880 C   0  0  0  0  0  2  0  0  0  0  0  0
  183.2840  178.4880  142.2150 C   0  0  0  0  0  2  0  0  0  0  0  0
  185.0330  179.7790  143.6360 C   0  0  0  0  0  2  0  0  0  0  0  0
  183.0280  178.8800  144.6690 O   0  0  0  0  0  1  0  0  0  0  0  0
  185.5580  178.0670  145.3590 C   0  0  0  0  0  1  0  0  0  0  0  0
  185.3240  178.2960  143.8770 C   0  0  1  0  0  3  0  0  0  0  0  0
  183.9060  178.7730  143.5860 C   0  0  1  0  0  0  0  0  0  0  0  0
  1  2  2  0  0  0  0
  3  1  1  0  0  0  0
  3 27  1  0  0  0  0
  4  9  2  0  0  0  0
  4  1  1  0  0  0  0
  5  9  1  0  0  0  0
  6  7  1  0  0  0  0
  6 10  1  0  0  0  0
  7  8  1  0  0  0  0
  8  4  1  0  0  0  0
  9 11  1  0  0  0  0
 10  5  1  0  0  0  0
 12 17  1  0  0  0  0
 13 16  1  0  0  0  0
 14 16  1  6  0  0  0
 14 24  1  0  0  0  0
 15 13  2  0  0  0  0
 17 14  1  0  0  0  0
 18 15  2  0  0  0  0
 19 11  1  6  0  0  0
 19 13  1  0  0  0  0
 19 12  1  0  0  0  0
 20 25  1  6  0  0  0
 20 23  1  0  0  0  0
 21 26  1  1  0  0  0
 21 20  1  0  0  0  0
 22 23  1  0  0  0  0
 24 21  1  0  0  0  0
 24 22  1  1  0  0  0
 28 27  1  6  0  0  0
 28 38  1  0  0  0  0
 30 33  1  0  0  0  0
 30 28  1  1  0  0  0
 31 29  1  0  0  0  0
 32 35  1  0  0  0  0
 32 30  1  0  0  0  0
 33 29  1  0  0  0  0
 34 31  1  0  0  0  0
 35 36  1  6  0  0  0
 35 34  1  0  0  0  0
 36 37  1  0  0  0  0
 38 39  1  0  0  0  0
 39 40  2  0  0  0  0
 39 41  1  0  0  0  0
 41 42  1  0  0  0  0
 42 47  1  0  0  0  0
 43 46  1  0  0  0  0
 46 45  1  1  0  0  0
 47 43  1  0  0  0  0
 47 46  1  0  0  0  0
 47 44  1  1  0  0  0
M  END
>  <MODEL>
3

>  <REMARK>
 VINA RESULT:      -6.4      2.998      9.051
  Name = 
  13 active torsions:
  status: ('A' for Active; 'I' for Inactive)
    1  A    between atoms: C_2  and  C_7
    2  A    between atoms: C_2  and  S_10
    3  A    between atoms: C_3  and  C_9
    4  A    between atoms: C_7  and  C_14
    5  A    between atoms: S_10  and  C_34
    6  A    between atoms: C_14  and  C_40
    7  A    between atoms: C_15  and  C_34
    8  A    between atoms: O_16  and  C_45
    9  A    between atoms: S_18  and  C_38
   10  A    between atoms: S_18  and  C_47
   11  A    between atoms: N_19  and  C_31
   12  A    between atoms: N_21  and  C_32
   13  A    between atoms: C_32  and  C_34
                            x       y       z     vdW  Elec       q    Type
                         _______ _______ _______ _____ _____    ______ ____

>  <TORSDO>
F 13

$$$$
=
 OpenBabel11062417033D

 47 51  0  0  1  0  0  0  0  0999 V2000
  188.7420  178.5200  139.0320 C   0  0  0  0  0  0  0  0  0  0  0  0
  189.0830  179.7320  139.0780 O   0  0  0  0  0  0  0  0  0  0  0  0
  187.9330  177.9740  140.0740 N   0  0  0  0  0  2  0  0  0  0  0  0
  189.2400  177.6330  137.9570 C   0  0  0  0  0  0  0  0  0  0  0  0
  189.4710  176.9000  135.5970 C   0  0  0  0  0  2  0  0  0  0  0  0
  190.1480  174.8670  136.6060 C   0  0  0  0  0  2  0  0  0  0  0  0
  189.9260  175.2270  138.0740 C   0  0  0  0  0  2  0  0  0  0  0  0
  190.3340  176.6730  138.3370 C   0  0  0  0  0  2  0  0  0  0  0  0
  188.8020  177.7030  136.6780 C   0  0  0  0  0  0  0  0  0  0  0  0
  189.1420  175.4900  135.7550 N   0  0  0  0  0  2  0  0  0  0  0  0
  187.3160  178.6040  136.2120 S   0  0  0  0  0  0  0  0  0  0  0  0
  186.1280  176.1000  136.1830 C   0  0  0  0  0  2  0  0  0  0  0  0
  184.9520  177.9590  137.5240 C   0  0  0  0  0  0  0  0  0  0  0  0
  183.7470  176.0240  136.7150 N   0  0  2  0  0  0  0  0  0  0  0  0
  184.9430  178.7160  138.5840 C   0  0  0  0  0  0  0  0  0  0  0  0
  183.6500  177.4600  136.9760 C   0  0  0  0  0  2  0  0  0  0  0  0
  184.7190  175.8870  135.6320 C   0  0  0  0  0  2  0  0  0  0  0  0
  184.9330  179.4320  139.5900 O   0  0  0  0  0  0  0  0  0  0  0  0
  186.2570  177.3740  137.0370 C   0  0  2  0  0  3  0  0  0  0  0  0
  180.9790  175.0550  138.1330 C   0  0  1  0  0  3  0  0  0  0  0  0
  181.3310  176.1170  137.1070 C   0  0  1  0  0  3  0  0  0  0  0  0
  182.3290  174.0390  136.5540 C   0  0  0  0  0  2  0  0  0  0  0  0
  181.8570  173.9110  137.9220 N   0  0  0  0  0  2  0  0  0  0  0  0
  182.4430  175.5260  136.2610 C   0  0  2  0  0  3  0  0  0  0  0  0
  181.1880  175.6050  139.5250 C   0  0  0  0  0  1  0  0  0  0  0  0
  180.2160  176.3750  136.3090 O   0  0  0  0  0  1  0  0  0  0  0  0
  187.6700  178.7000  141.3070 C   0  0  0  0  0  2  0  0  0  0  0  0
  188.0410  177.8620  142.5290 C   0  0  1  0  0  3  0  0  0  0  0  0
  187.2850  177.9310  145.3810 C   0  0  0  0  0  2  0  0  0  0  0  0
  186.8640  177.0030  143.0260 C   0  0  2  0  0  3  0  0  0  0  0  0
  186.1530  178.9400  145.5230 C   0  0  0  0  0  2  0  0  0  0  0  0
  185.4990  177.5290  142.5530 C   0  0  0  0  0  2  0  0  0  0  0  0
  186.9010  176.7130  144.5370 C   0  0  0  0  0  2  0  0  0  0  0  0
  185.7640  179.5470  144.1850 C   0  0  0  0  0  2  0  0  0  0  0  0
  184.8260  178.5830  143.4520 C   0  0  1  0  0  3  0  0  0  0  0  0
  183.7430  179.2300  142.8220 O   0  0  0  0  0  0  0  0  0  0  0  0
  182.6030  179.0810  143.6290 C   0  0  0  0  0  1  0  0  0  0  0  0
  189.5200  176.8380  142.1910 S   0  0  0  0  0  0  0  0  0  0  0  0
  190.3770  177.4010  143.6600 C   0  0  0  0  0  0  0  0  0  0  0  0
  190.7930  178.7720  143.7570 S   0  0  0  0  0  0  0  0  0  0  0  0
  190.8340  176.4000  144.6700 C   0  0  0  0  0  2  0  0  0  0  0  0
  191.6770  177.0750  145.7500 C   0  0  0  0  0  2  0  0  0  0  0  0
  189.8920  176.1110  147.3700 C   0  0  0  0  0  2  0  0  0  0  0  0
  191.8810  177.2020  148.2370 O   0  0  0  0  0  1  0  0  0  0  0  0
  189.3420  178.1440  148.6880 C   0  0  0  0  0  1  0  0  0  0  0  0
  189.6050  177.6120  147.2910 C   0  0  1  0  0  3  0  0  0  0  0  0
  191.0260  177.0820  147.1360 C   0  0  1  0  0  0  0  0  0  0  0  0
  1  2  2  0  0  0  0
  1  3  1  0  0  0  0
  3 27  1  0  0  0  0
  4  8  1  0  0  0  0
  4  1  1  0  0  0  0
  5 10  1  0  0  0  0
  5  9  1  0  0  0  0
  6  7  1  0  0  0  0
  7  8  1  0  0  0  0
  9  4  2  0  0  0  0
 10  6  1  0  0  0  0
 11  9  1  0  0  0  0
 12 19  1  0  0  0  0
 13 15  2  0  0  0  0
 14 17  1  6  0  0  0
 14 16  1  0  0  0  0
 15 18  2  0  0  0  0
 16 13  1  0  0  0  0
 17 12  1  0  0  0  0
 19 11  1  6  0  0  0
 19 13  1  0  0  0  0
 20 25  1  1  0  0  0
 21 26  1  6  0  0  0
 21 20  1  0  0  0  0
 22 23  1  0  0  0  0
 23 20  1  0  0  0  0
 24 22  1  1  0  0  0
 24 14  1  0  0  0  0
 24 21  1  0  0  0  0
 28 27  1  6  0  0  0
 29 31  1  0  0  0  0
 30 28  1  1  0  0  0
 30 33  1  0  0  0  0
 32 30  1  0  0  0  0
 32 35  1  0  0  0  0
 33 29  1  0  0  0  0
 34 31  1  0  0  0  0
 35 36  1  6  0  0  0
 35 34  1  0  0  0  0
 36 37  1  0  0  0  0
 38 28  1  0  0  0  0
 38 39  1  0  0  0  0
 39 40  2  0  0  0  0
 39 41  1  0  0  0  0
 41 42  1  0  0  0  0
 42 47  1  0  0  0  0
 46 43  1  0  0  0  0
 46 45  1  1  0  0  0
 47 46  1  0  0  0  0
 47 43  1  0  0  0  0
 47 44  1  1  0  0  0
M  END
>  <MODEL>
4

>  <REMARK>
 VINA RESULT:      -6.2      2.819      7.206
  Name = 
  13 active torsions:
  status: ('A' for Active; 'I' for Inactive)
    1  A    between atoms: C_2  and  C_7
    2  A    between atoms: C_2  and  S_10
    3  A    between atoms: C_3  and  C_9
    4  A    between atoms: C_7  and  C_14
    5  A    between atoms: S_10  and  C_34
    6  A    between atoms: C_14  and  C_40
    7  A    between atoms: C_15  and  C_34
    8  A    between atoms: O_16  and  C_45
    9  A    between atoms: S_18  and  C_38
   10  A    between atoms: S_18  and  C_47
   11  A    between atoms: N_19  and  C_31
   12  A    between atoms: N_21  and  C_32
   13  A    between atoms: C_32  and  C_34
                            x       y       z     vdW  Elec       q    Type
                         _______ _______ _______ _____ _____    ______ ____

>  <TORSDO>
F 13

$$$$
=
 OpenBabel11062417033D

 47 51  0  0  1  0  0  0  0  0999 V2000
  185.6830  178.3030  138.4250 C   0  0  0  0  0  0  0  0  0  0  0  0
  186.1720  178.7180  139.5100 O   0  0  0  0  0  0  0  0  0  0  0  0
  184.3220  178.5950  138.1060 N   0  0  0  0  0  2  0  0  0  0  0  0
  186.4750  177.4460  137.5150 C   0  0  0  0  0  0  0  0  0  0  0  0
  188.5630  176.3570  136.7310 C   0  0  0  0  0  2  0  0  0  0  0  0
  187.3320  176.1190  134.7220 C   0  0  0  0  0  2  0  0  0  0  0  0
  186.0610  176.8700  135.1130 C   0  0  0  0  0  2  0  0  0  0  0  0
  185.6950  176.5790  136.5650 C   0  0  0  0  0  2  0  0  0  0  0  0
  187.8270  177.3750  137.5560 C   0  0  0  0  0  0  0  0  0  0  0  0
  188.5110  176.7300  135.3240 N   0  0  0  0  0  2  0  0  0  0  0  0
  188.8330  178.5740  138.4450 S   0  0  0  0  0  0  0  0  0  0  0  0
  188.7010  177.4810  140.9890 C   0  0  0  0  0  2  0  0  0  0  0  0
  190.8920  177.1650  139.6700 C   0  0  0  0  0  0  0  0  0  0  0  0
  190.8340  177.0260  142.0850 N   0  0  2  0  0  0  0  0  0  0  0  0
  191.5140  176.5690  138.6940 C   0  0  0  0  0  0  0  0  0  0  0  0
  191.6370  177.4530  140.9380 C   0  0  0  0  0  2  0  0  0  0  0  0
  189.6670  177.9050  142.0950 C   0  0  0  0  0  2  0  0  0  0  0  0
  192.1040  176.0010  137.7690 O   0  0  0  0  0  0  0  0  0  0  0  0
  189.3880  177.3020  139.6230 C   0  0  2  0  0  3  0  0  0  0  0  0
  190.1510  177.5270  145.2300 C   0  0  1  0  0  3  0  0  0  0  0  0
  190.9600  176.4910  144.4720 C   0  0  1  0  0  3  0  0  0  0  0  0
  191.5030  178.6830  143.7530 C   0  0  0  0  0  2  0  0  0  0  0  0
  190.2890  178.8040  144.5420 N   0  0  0  0  0  2  0  0  0  0  0  0
  191.6060  177.2310  143.3170 C   0  0  2  0  0  3  0  0  0  0  0  0
  188.6970  177.1180  145.2540 C   0  0  0  0  0  1  0  0  0  0  0  0
  191.9470  175.9710  145.3110 O   0  0  0  0  0  1  0  0  0  0  0  0
  183.4050  179.1580  139.0840 C   0  0  0  0  0  2  0  0  0  0  0  0
  181.9800  178.6550  138.8580 C   0  0  1  0  0  3  0  0  0  0  0  0
  179.8130  176.8400  138.0090 C   0  0  0  0  0  2  0  0  0  0  0  0
  181.6640  177.4030  139.6970 C   0  0  2  0  0  3  0  0  0  0  0  0
  180.4550  175.7140  137.2100 C   0  0  0  0  0  2  0  0  0  0  0  0
  182.7460  176.3180  139.5830 C   0  0  0  0  0  2  0  0  0  0  0  0
  180.2430  176.8540  139.4790 C   0  0  0  0  0  2  0  0  0  0  0  0
  181.9660  175.8620  137.1350 C   0  0  0  0  0  2  0  0  0  0  0  0
  182.5870  175.3150  138.4230 C   0  0  1  0  0  3  0  0  0  0  0  0
  183.7490  174.5480  138.2010 O   0  0  0  0  0  0  0  0  0  0  0  0
  183.4660  173.5870  137.2140 C   0  0  0  0  0  1  0  0  0  0  0  0
  180.7630  179.9880  139.1610 S   0  0  0  0  0  0  0  0  0  0  0  0
  180.5250  180.3130  137.4150 C   0  0  0  0  0  0  0  0  0  0  0  0
  181.2060  179.5050  136.4440 S   0  0  0  0  0  0  0  0  0  0  0  0
  179.7940  181.5450  136.9940 C   0  0  0  0  0  2  0  0  0  0  0  0
  180.5790  182.2920  135.9180 C   0  0  0  0  0  2  0  0  0  0  0  0
  181.4710  184.2980  137.3050 C   0  0  0  0  0  2  0  0  0  0  0  0
  180.7890  184.6040  134.9940 O   0  0  0  0  0  1  0  0  0  0  0  0
  179.5570  185.8690  137.0970 C   0  0  0  0  0  1  0  0  0  0  0  0
  179.9460  184.4220  137.3390 C   0  0  1  0  0  3  0  0  0  0  0  0
  180.6500  183.8070  136.1350 C   0  0  1  0  0  0  0  0  0  0  0  0
  1  2  2  0  0  0  0
  3  1  1  0  0  0  0
  3 27  1  0  0  0  0
  4  9  2  0  0  0  0
  4  1  1  0  0  0  0
  5  9  1  0  0  0  0
  6  7  1  0  0  0  0
  6 10  1  0  0  0  0
  7  8  1  0  0  0  0
  8  4  1  0  0  0  0
  9 11  1  0  0  0  0
 10  5  1  0  0  0  0
 12 17  1  0  0  0  0
 13 16  1  0  0  0  0
 14 16  1  6  0  0  0
 14 17  1  0  0  0  0
 14 24  1  0  0  0  0
 15 13  2  0  0  0  0
 18 15  2  0  0  0  0
 19 11  1  6  0  0  0
 19 13  1  0  0  0  0
 19 12  1  0  0  0  0
 20 25  1  6  0  0  0
 21 20  1  0  0  0  0
 21 26  1  1  0  0  0
 22 23  1  0  0  0  0
 23 20  1  0  0  0  0
 24 22  1  1  0  0  0
 24 21  1  0  0  0  0
 28 27  1  1  0  0  0
 28 38  1  0  0  0  0
 29 33  1  0  0  0  0
 30 28  1  6  0  0  0
 31 29  1  0  0  0  0
 32 30  1  0  0  0  0
 33 30  1  0  0  0  0
 34 31  1  0  0  0  0
 34 35  1  0  0  0  0
 35 36  1  6  0  0  0
 35 32  1  0  0  0  0
 37 36  1  0  0  0  0
 39 38  1  0  0  0  0
 40 39  2  0  0  0  0
 41 39  1  0  0  0  0
 42 47  1  0  0  0  0
 42 41  1  0  0  0  0
 43 46  1  0  0  0  0
 46 45  1  6  0  0  0
 47 44  1  6  0  0  0
 47 43  1  0  0  0  0
 47 46  1  0  0  0  0
M  END
>  <MODEL>
5

>  <REMARK>
 VINA RESULT:      -5.8      3.636      9.353
  Name = 
  13 active torsions:
  status: ('A' for Active; 'I' for Inactive)
    1  A    between atoms: C_2  and  C_7
    2  A    between atoms: C_2  and  S_10
    3  A    between atoms: C_3  and  C_9
    4  A    between atoms: C_7  and  C_14
    5  A    between atoms: S_10  and  C_34
    6  A    between atoms: C_14  and  C_40
    7  A    between atoms: C_15  and  C_34
    8  A    between atoms: O_16  and  C_45
    9  A    between atoms: S_18  and  C_38
   10  A    between atoms: S_18  and  C_47
   11  A    between atoms: N_19  and  C_31
   12  A    between atoms: N_21  and  C_32
   13  A    between atoms: C_32  and  C_34
                            x       y       z     vdW  Elec       q    Type
                         _______ _______ _______ _____ _____    ______ ____

>  <TORSDO>
F 13

$$$$
=
 OpenBabel11062417033D

 47 51  0  0  1  0  0  0  0  0999 V2000
  188.6230  177.8810  140.4860 C   0  0  0  0  0  0  0  0  0  0  0  0
  188.6770  179.1050  140.1890 O   0  0  0  0  0  0  0  0  0  0  0  0
  188.7450  176.8990  139.4580 N   0  0  0  0  0  2  0  0  0  0  0  0
  188.3520  177.4510  141.8750 C   0  0  0  0  0  0  0  0  0  0  0  0
  186.9630  177.2720  143.9250 C   0  0  0  0  0  2  0  0  0  0  0  0
  189.0430  176.7560  144.9310 C   0  0  0  0  0  2  0  0  0  0  0  0
  189.9630  176.9530  143.7270 C   0  0  0  0  0  2  0  0  0  0  0  0
  189.2960  176.4350  142.4570 C   0  0  0  0  0  2  0  0  0  0  0  0
  187.2820  177.8800  142.5870 C   0  0  0  0  0  0  0  0  0  0  0  0
  187.9410  177.7090  144.9120 N   0  0  0  0  0  2  0  0  0  0  0  0
  186.2870  179.2910  142.0820 S   0  0  0  0  0  0  0  0  0  0  0  0
  184.2410  177.8770  140.8570 C   0  0  0  0  0  2  0  0  0  0  0  0
  183.7270  178.9910  143.1230 C   0  0  0  0  0  0  0  0  0  0  0  0
  181.9700  178.4330  141.5560 N   0  0  2  0  0  0  0  0  0  0  0  0
  183.8910  178.9880  144.4150 C   0  0  0  0  0  0  0  0  0  0  0  0
  182.4020  179.4060  142.5600 C   0  0  0  0  0  2  0  0  0  0  0  0
  182.9280  178.5490  140.4590 C   0  0  0  0  0  2  0  0  0  0  0  0
  184.0450  178.9840  145.6400 O   0  0  0  0  0  0  0  0  0  0  0  0
  184.7530  178.3220  142.2390 C   0  0  2  0  0  3  0  0  0  0  0  0
  179.0310  178.8840  142.8880 C   0  0  1  0  0  3  0  0  0  0  0  0
  179.9600  179.7440  142.0510 C   0  0  1  0  0  3  0  0  0  0  0  0
  179.7220  177.5830  141.1060 C   0  0  0  0  0  2  0  0  0  0  0  0
  179.1710  177.5020  142.4480 N   0  0  0  0  0  2  0  0  0  0  0  0
  180.6330  178.8000  141.0730 C   0  0  2  0  0  3  0  0  0  0  0  0
  179.4150  178.9930  144.3460 C   0  0  0  0  0  1  0  0  0  0  0  0
  179.2090  180.6910  141.3530 O   0  0  0  0  0  1  0  0  0  0  0  0
  188.7010  177.2500  138.0470 C   0  0  0  0  0  2  0  0  0  0  0  0
  188.8910  176.0160  137.1660 C   0  0  1  0  0  3  0  0  0  0  0  0
  190.1970  174.0430  135.4020 C   0  0  0  0  0  2  0  0  0  0  0  0
  189.9180  175.0320  137.7540 C   0  0  2  0  0  3  0  0  0  0  0  0
  191.5330  174.6360  134.9730 C   0  0  0  0  0  2  0  0  0  0  0  0
  191.2440  175.7090  138.1360 C   0  0  0  0  0  2  0  0  0  0  0  0
  190.1190  173.7640  136.9050 C   0  0  0  0  0  2  0  0  0  0  0  0
  191.7740  176.0000  135.5980 C   0  0  0  0  0  2  0  0  0  0  0  0
  192.3040  175.8120  137.0230 C   0  0  1  0  0  3  0  0  0  0  0  0
  193.3560  176.6920  137.3470 O   0  0  0  0  0  0  0  0  0  0  0  0
  193.4520  176.7750  138.7470 C   0  0  0  0  0  1  0  0  0  0  0  0
  187.2880  175.1940  136.8430 S   0  0  0  0  0  0  0  0  0  0  0  0
  186.8770  176.2920  135.4880 C   0  0  0  0  0  0  0  0  0  0  0  0
  187.9290  176.8890  134.7150 S   0  0  0  0  0  0  0  0  0  0  0  0
  185.4630  176.7410  135.3130 C   0  0  0  0  0  2  0  0  0  0  0  0
  184.8720  177.1830  136.6500 C   0  0  0  0  0  2  0  0  0  0  0  0
  182.6210  176.1160  135.9190 C   0  0  0  0  0  2  0  0  0  0  0  0
  183.6940  175.4320  137.9870 O   0  0  0  0  0  1  0  0  0  0  0  0
  181.2210  176.6210  137.9090 C   0  0  0  0  0  1  0  0  0  0  0  0
  182.2510  177.1870  136.9480 C   0  0  1  0  0  3  0  0  0  0  0  0
  183.5830  176.4500  137.0350 C   0  0  1  0  0  0  0  0  0  0  0  0
  1  4  1  0  0  0  0
  2  1  2  0  0  0  0
  3  1  1  0  0  0  0
  4  8  1  0  0  0  0
  4  9  2  0  0  0  0
  5 10  1  0  0  0  0
  7  6  1  0  0  0  0
  8  7  1  0  0  0  0
  9  5  1  0  0  0  0
 10  6  1  0  0  0  0
 11  9  1  0  0  0  0
 12 19  1  0  0  0  0
 13 15  2  0  0  0  0
 14 17  1  6  0  0  0
 14 16  1  0  0  0  0
 15 18  2  0  0  0  0
 16 13  1  0  0  0  0
 17 12  1  0  0  0  0
 19 11  1  6  0  0  0
 19 13  1  0  0  0  0
 20 25  1  1  0  0  0
 21 26  1  6  0  0  0
 21 20  1  0  0  0  0
 22 23  1  0  0  0  0
 23 20  1  0  0  0  0
 24 22  1  1  0  0  0
 24 14  1  0  0  0  0
 24 21  1  0  0  0  0
 27  3  1  0  0  0  0
 28 27  1  1  0  0  0
 29 33  1  0  0  0  0
 30 28  1  6  0  0  0
 30 32  1  0  0  0  0
 31 29  1  0  0  0  0
 31 34  1  0  0  0  0
 33 30  1  0  0  0  0
 34 35  1  0  0  0  0
 35 36  1  1  0  0  0
 35 32  1  0  0  0  0
 36 37  1  0  0  0  0
 38 28  1  0  0  0  0
 39 38  1  0  0  0  0
 40 39  2  0  0  0  0
 41 39  1  0  0  0  0
 41 42  1  0  0  0  0
 42 47  1  0  0  0  0
 43 46  1  0  0  0  0
 43 47  1  0  0  0  0
 46 47  1  0  0  0  0
 46 45  1  1  0  0  0
 47 44  1  1  0  0  0
M  END
>  <MODEL>
6

>  <REMARK>
 VINA RESULT:      -5.8      1.446      4.998
  Name = 
  13 active torsions:
  status: ('A' for Active; 'I' for Inactive)
    1  A    between atoms: C_2  and  C_7
    2  A    between atoms: C_2  and  S_10
    3  A    between atoms: C_3  and  C_9
    4  A    between atoms: C_7  and  C_14
    5  A    between atoms: S_10  and  C_34
    6  A    between atoms: C_14  and  C_40
    7  A    between atoms: C_15  and  C_34
    8  A    between atoms: O_16  and  C_45
    9  A    between atoms: S_18  and  C_38
   10  A    between atoms: S_18  and  C_47
   11  A    between atoms: N_19  and  C_31
   12  A    between atoms: N_21  and  C_32
   13  A    between atoms: C_32  and  C_34
                            x       y       z     vdW  Elec       q    Type
                         _______ _______ _______ _____ _____    ______ ____

>  <TORSDO>
F 13

$$$$
=
 OpenBabel11062417033D

 47 51  0  0  1  0  0  0  0  0999 V2000
  186.1640  177.7770  137.7640 C   0  0  0  0  0  0  0  0  0  0  0  0
  186.4810  178.5720  138.6890 O   0  0  0  0  0  0  0  0  0  0  0  0
  184.8000  177.6750  137.3570 N   0  0  0  0  0  2  0  0  0  0  0  0
  187.1750  176.8860  137.1520 C   0  0  0  0  0  0  0  0  0  0  0  0
  189.4290  175.8630  136.9680 C   0  0  0  0  0  2  0  0  0  0  0  0
  188.6860  175.3380  134.7820 C   0  0  0  0  0  2  0  0  0  0  0  0
  187.3290  176.0390  134.8000 C   0  0  0  0  0  2  0  0  0  0  0  0
  186.6620  175.8760  136.1620 C   0  0  0  0  0  2  0  0  0  0  0  0
  188.4850  176.9100  137.4920 C   0  0  0  0  0  0  0  0  0  0  0  0
  189.6740  176.0850  135.5500 N   0  0  0  0  0  2  0  0  0  0  0  0
  189.2160  178.2580  138.4330 S   0  0  0  0  0  0  0  0  0  0  0  0
  188.9770  177.2740  141.0140 C   0  0  0  0  0  2  0  0  0  0  0  0
  191.2940  177.1320  139.8970 C   0  0  0  0  0  0  0  0  0  0  0  0
  191.0420  177.0970  142.3020 N   0  0  2  0  0  0  0  0  0  0  0  0
  192.0560  176.5610  139.0080 C   0  0  0  0  0  0  0  0  0  0  0  0
  191.8940  177.5540  141.2030 C   0  0  0  0  0  2  0  0  0  0  0  0
  189.7950  177.8470  142.1700 C   0  0  0  0  0  2  0  0  0  0  0  0
  192.7790  176.0180  138.1660 O   0  0  0  0  0  0  0  0  0  0  0  0
  189.7940  177.1060  139.7200 C   0  0  2  0  0  3  0  0  0  0  0  0
  190.0400  177.6750  145.3480 C   0  0  1  0  0  3  0  0  0  0  0  0
  191.0100  176.6920  144.7180 C   0  0  1  0  0  3  0  0  0  0  0  0
  191.3970  178.8920  143.9240 C   0  0  0  0  0  2  0  0  0  0  0  0
  190.1120  178.9250  144.6020 N   0  0  0  0  0  2  0  0  0  0  0  0
  191.6790  177.4380  143.5800 C   0  0  2  0  0  3  0  0  0  0  0  0
  188.6360  177.1210  145.2740 C   0  0  0  0  0  1  0  0  0  0  0  0
  191.9650  176.3160  145.6640 O   0  0  0  0  0  1  0  0  0  0  0  0
  183.7200  178.2850  138.1180 C   0  0  0  0  0  2  0  0  0  0  0  0
  182.3570  177.8100  137.6180 C   0  0  1  0  0  3  0  0  0  0  0  0
  179.7330  176.7540  138.4600 C   0  0  0  0  0  2  0  0  0  0  0  0
  181.2270  178.7880  137.9890 C   0  0  2  0  0  3  0  0  0  0  0  0
  179.7290  176.7190  139.9830 C   0  0  0  0  0  2  0  0  0  0  0  0
  181.4730  179.5060  139.3250 C   0  0  0  0  0  2  0  0  0  0  0  0
  179.8190  178.1730  137.8930 C   0  0  0  0  0  2  0  0  0  0  0  0
  181.0260  177.2550  140.5660 C   0  0  0  0  0  2  0  0  0  0  0  0
  180.9700  178.7850  140.5910 C   0  0  1  0  0  3  0  0  0  0  0  0
  181.4840  179.3430  141.7790 O   0  0  0  0  0  0  0  0  0  0  0  0
  180.5570  179.1210  142.8120 C   0  0  0  0  0  1  0  0  0  0  0  0
  182.4000  177.4910  135.8160 S   0  0  0  0  0  0  0  0  0  0  0  0
  182.1570  175.7270  136.0150 C   0  0  0  0  0  0  0  0  0  0  0  0
  181.0750  175.0790  135.3290 S   0  0  0  0  0  0  0  0  0  0  0  0
  182.9430  174.9920  137.0500 C   0  0  0  0  0  2  0  0  0  0  0  0
  182.4180  173.5660  137.2080 C   0  0  0  0  0  2  0  0  0  0  0  0
  184.8600  172.7680  137.5870 C   0  0  0  0  0  2  0  0  0  0  0  0
  183.0820  171.1580  137.2100 O   0  0  0  0  0  1  0  0  0  0  0  0
  185.2230  171.4460  135.5150 C   0  0  0  0  0  1  0  0  0  0  0  0
  184.6490  172.7360  136.0720 C   0  0  1  0  0  3  0  0  0  0  0  0
  183.4860  172.4840  137.0250 C   0  0  1  0  0  0  0  0  0  0  0  0
  1  2  2  0  0  0  0
  3  1  1  0  0  0  0
  3 27  1  0  0  0  0
  4  9  2  0  0  0  0
  4  1  1  0  0  0  0
  5  9  1  0  0  0  0
  6  7  1  0  0  0  0
  6 10  1  0  0  0  0
  7  8  1  0  0  0  0
  8  4  1  0  0  0  0
  9 11  1  0  0  0  0
 10  5  1  0  0  0  0
 12 17  1  0  0  0  0
 13 16  1  0  0  0  0
 14 16  1  6  0  0  0
 14 24  1  0  0  0  0
 15 13  2  0  0  0  0
 17 14  1  0  0  0  0
 18 15  2  0  0  0  0
 19 11  1  6  0  0  0
 19 13  1  0  0  0  0
 19 12  1  0  0  0  0
 20 25  1  6  0  0  0
 21 20  1  0  0  0  0
 21 26  1  1  0  0  0
 22 23  1  0  0  0  0
 23 20  1  0  0  0  0
 24 22  1  1  0  0  0
 24 21  1  0  0  0  0
 28 27  1  6  0  0  0
 29 31  1  0  0  0  0
 30 28  1  1  0  0  0
 30 32  1  0  0  0  0
 31 34  1  0  0  0  0
 32 35  1  0  0  0  0
 33 30  1  0  0  0  0
 33 29  1  0  0  0  0
 34 35  1  0  0  0  0
 35 36  1  1  0  0  0
 36 37  1  0  0  0  0
 38 39  1  0  0  0  0
 38 28  1  0  0  0  0
 39 41  1  0  0  0  0
 40 39  2  0  0  0  0
 41 42  1  0  0  0  0
 46 45  1  6  0  0  0
 46 47  1  0  0  0  0
 46 43  1  0  0  0  0
 47 42  1  0  0  0  0
 47 44  1  1  0  0  0
 47 43  1  0  0  0  0
M  END
>  <MODEL>
7

>  <REMARK>
 VINA RESULT:      -5.6      2.745      8.333
  Name = 
  13 active torsions:
  status: ('A' for Active; 'I' for Inactive)
    1  A    between atoms: C_2  and  C_7
    2  A    between atoms: C_2  and  S_10
    3  A    between atoms: C_3  and  C_9
    4  A    between atoms: C_7  and  C_14
    5  A    between atoms: S_10  and  C_34
    6  A    between atoms: C_14  and  C_40
    7  A    between atoms: C_15  and  C_34
    8  A    between atoms: O_16  and  C_45
    9  A    between atoms: S_18  and  C_38
   10  A    between atoms: S_18  and  C_47
   11  A    between atoms: N_19  and  C_31
   12  A    between atoms: N_21  and  C_32
   13  A    between atoms: C_32  and  C_34
                            x       y       z     vdW  Elec       q    Type
                         _______ _______ _______ _____ _____    ______ ____

>  <TORSDO>
F 13

$$$$
=
 OpenBabel11062417033D

 47 51  0  0  1  0  0  0  0  0999 V2000
  185.6730  177.4360  137.0760 C   0  0  0  0  0  0  0  0  0  0  0  0
  185.9530  178.3930  137.8470 O   0  0  0  0  0  0  0  0  0  0  0  0
  184.3420  177.2970  136.5770 N   0  0  0  0  0  2  0  0  0  0  0  0
  186.6840  176.4070  136.7480 C   0  0  0  0  0  0  0  0  0  0  0  0
  188.9060  175.3190  136.9470 C   0  0  0  0  0  2  0  0  0  0  0  0
  188.2740  174.3280  134.8910 C   0  0  0  0  0  2  0  0  0  0  0  0
  186.9450  175.0450  134.6620 C   0  0  0  0  0  2  0  0  0  0  0  0
  186.1940  175.2100  135.9800 C   0  0  0  0  0  2  0  0  0  0  0  0
  187.9720  176.4780  137.1590 C   0  0  0  0  0  0  0  0  0  0  0  0
  189.2420  175.2080  135.5340 N   0  0  0  0  0  2  0  0  0  0  0  0
  188.6960  177.9880  137.8180 S   0  0  0  0  0  0  0  0  0  0  0  0
  188.0170  177.5460  140.4690 C   0  0  0  0  0  2  0  0  0  0  0  0
  190.5040  177.3410  139.8280 C   0  0  0  0  0  0  0  0  0  0  0  0
  189.8140  177.7890  142.1030 N   0  0  2  0  0  0  0  0  0  0  0  0
  191.4350  176.6540  139.2300 C   0  0  0  0  0  0  0  0  0  0  0  0
  190.8380  178.0670  141.0960 C   0  0  0  0  0  2  0  0  0  0  0  0
  188.5880  178.4040  141.5970 C   0  0  0  0  0  2  0  0  0  0  0  0
  192.3180  176.0010  138.6640 O   0  0  0  0  0  0  0  0  0  0  0  0
  189.0640  177.1730  139.4040 C   0  0  2  0  0  3  0  0  0  0  0  0
  191.2090  176.8490  144.8930 C   0  0  1  0  0  3  0  0  0  0  0  0
  191.5300  177.9010  143.8480 C   0  0  1  0  0  3  0  0  0  0  0  0
  189.2450  177.9950  144.4720 C   0  0  0  0  0  2  0  0  0  0  0  0
  189.7600  176.7430  145.0010 N   0  0  0  0  0  2  0  0  0  0  0  0
  190.1930  178.4320  143.3670 C   0  0  2  0  0  3  0  0  0  0  0  0
  191.7840  175.5180  144.4670 C   0  0  0  0  0  1  0  0  0  0  0  0
  192.2630  178.9320  144.4390 O   0  0  0  0  0  1  0  0  0  0  0  0
  183.2360  178.0840  137.1010 C   0  0  0  0  0  2  0  0  0  0  0  0
  181.9520  177.2580  137.1590 C   0  0  1  0  0  3  0  0  0  0  0  0
  179.0730  177.9040  137.2370 C   0  0  0  0  0  2  0  0  0  0  0  0
  181.1530  177.3310  135.8450 C   0  0  2  0  0  3  0  0  0  0  0  0
  178.9410  179.4020  136.9930 C   0  0  0  0  0  2  0  0  0  0  0  0
  181.5040  178.5660  135.0000 C   0  0  0  0  0  2  0  0  0  0  0  0
  179.6360  177.1480  136.0310 C   0  0  0  0  0  2  0  0  0  0  0  0
  180.2910  180.0600  136.7610 C   0  0  0  0  0  2  0  0  0  0  0  0
  180.7070  179.8500  135.3030 C   0  0  1  0  0  3  0  0  0  0  0  0
  181.2740  180.9980  134.7130 O   0  0  0  0  0  0  0  0  0  0  0  0
  180.5870  182.1280  135.1880 C   0  0  0  0  0  1  0  0  0  0  0  0
  182.3130  175.5260  137.6260 S   0  0  0  0  0  0  0  0  0  0  0  0
  181.3000  175.6010  139.1020 C   0  0  0  0  0  0  0  0  0  0  0  0
  180.1090  174.8030  139.1860 S   0  0  0  0  0  0  0  0  0  0  0  0
  181.5860  176.6430  140.1340 C   0  0  0  0  0  2  0  0  0  0  0  0
  180.2940  177.3280  140.5750 C   0  0  0  0  0  2  0  0  0  0  0  0
  180.3870  179.5950  141.8360 C   0  0  0  0  0  2  0  0  0  0  0  0
  179.6970  177.5720  142.9880 O   0  0  0  0  0  1  0  0  0  0  0  0
  181.9280  179.0090  143.6950 C   0  0  0  0  0  1  0  0  0  0  0  0
  181.6830  178.8700  142.2030 C   0  0  1  0  0  3  0  0  0  0  0  0
  180.4110  178.0860  141.9010 C   0  0  1  0  0  0  0  0  0  0  0  0
  1  2  2  0  0  0  0
  3  1  1  0  0  0  0
  3 27  1  0  0  0  0
  4  1  1  0  0  0  0
  4  9  2  0  0  0  0
  5  9  1  0  0  0  0
  6 10  1  0  0  0  0
  7  6  1  0  0  0  0
  7  8  1  0  0  0  0
  8  4  1  0  0  0  0
  9 11  1  0  0  0  0
 10  5  1  0  0  0  0
 12 17  1  0  0  0  0
 13 16  1  0  0  0  0
 14 16  1  6  0  0  0
 14 24  1  0  0  0  0
 15 13  2  0  0  0  0
 17 14  1  0  0  0  0
 18 15  2  0  0  0  0
 19 11  1  6  0  0  0
 19 13  1  0  0  0  0
 19 12  1  0  0  0  0
 20 25  1  6  0  0  0
 20 23  1  0  0  0  0
 21 26  1  1  0  0  0
 21 20  1  0  0  0  0
 22 23  1  0  0  0  0
 24 21  1  0  0  0  0
 24 22  1  1  0  0  0
 28 27  1  6  0  0  0
 28 38  1  0  0  0  0
 30 33  1  0  0  0  0
 30 28  1  1  0  0  0
 31 29  1  0  0  0  0
 32 35  1  0  0  0  0
 32 30  1  0  0  0  0
 33 29  1  0  0  0  0
 34 31  1  0  0  0  0
 35 36  1  1  0  0  0
 35 34  1  0  0  0  0
 36 37  1  0  0  0  0
 38 39  1  0  0  0  0
 39 40  2  0  0  0  0
 39 41  1  0  0  0  0
 41 42  1  0  0  0  0
 42 47  1  0  0  0  0
 43 47  1  0  0  0  0
 43 46  1  0  0  0  0
 46 45  1  1  0  0  0
 47 46  1  0  0  0  0
 47 44  1  1  0  0  0
M  END
>  <MODEL>
8

>  <REMARK>
 VINA RESULT:      -5.0      3.309      9.044
  Name = 
  13 active torsions:
  status: ('A' for Active; 'I' for Inactive)
    1  A    between atoms: C_2  and  C_7
    2  A    between atoms: C_2  and  S_10
    3  A    between atoms: C_3  and  C_9
    4  A    between atoms: C_7  and  C_14
    5  A    between atoms: S_10  and  C_34
    6  A    between atoms: C_14  and  C_40
    7  A    between atoms: C_15  and  C_34
    8  A    between atoms: O_16  and  C_45
    9  A    between atoms: S_18  and  C_38
   10  A    between atoms: S_18  and  C_47
   11  A    between atoms: N_19  and  C_31
   12  A    between atoms: N_21  and  C_32
   13  A    between atoms: C_32  and  C_34
                            x       y       z     vdW  Elec       q    Type
                         _______ _______ _______ _____ _____    ______ ____

>  <TORSDO>
F 13

$$$$
=
 OpenBabel11062417033D

 47 51  0  0  1  0  0  0  0  0999 V2000
  186.6730  178.6280  139.0640 C   0  0  0  0  0  0  0  0  0  0  0  0
  186.6960  178.9330  137.8410 O   0  0  0  0  0  0  0  0  0  0  0  0
  185.4490  178.7280  139.7930 N   0  0  0  0  0  2  0  0  0  0  0  0
  187.9140  178.2490  139.7740 C   0  0  0  0  0  0  0  0  0  0  0  0
  190.2710  177.4790  139.8930 C   0  0  0  0  0  2  0  0  0  0  0  0
  189.6890  177.0010  142.1380 C   0  0  0  0  0  2  0  0  0  0  0  0
  188.2060  177.3620  142.0980 C   0  0  0  0  0  2  0  0  0  0  0  0
  187.9810  178.5990  141.2350 C   0  0  0  0  0  2  0  0  0  0  0  0
  188.9750  177.6770  139.1570 C   0  0  0  0  0  0  0  0  0  0  0  0
  190.1220  176.4150  140.8760 N   0  0  0  0  0  2  0  0  0  0  0  0
  188.8680  176.9710  137.5050 S   0  0  0  0  0  0  0  0  0  0  0  0
  191.5960  176.6740  137.8970 C   0  0  0  0  0  2  0  0  0  0  0  0
  190.3080  174.6640  136.9280 C   0  0  0  0  0  0  0  0  0  0  0  0
  192.6920  174.9180  136.6050 N   0  0  2  0  0  0  0  0  0  0  0  0
  189.4710  173.6890  137.1350 C   0  0  0  0  0  0  0  0  0  0  0  0
  191.4520  174.4520  135.9840 C   0  0  0  0  0  2  0  0  0  0  0  0
  192.5440  176.3660  136.7390 C   0  0  0  0  0  2  0  0  0  0  0  0
  188.6780  172.7620  137.3320 O   0  0  0  0  0  0  0  0  0  0  0  0
  190.2830  175.8730  137.8340 C   0  0  2  0  0  3  0  0  0  0  0  0
  195.7280  173.7850  136.9400 C   0  0  1  0  0  3  0  0  0  0  0  0
  194.5160  173.3500  136.1380 C   0  0  1  0  0  3  0  0  0  0  0  0
  194.9050  175.6750  135.8920 C   0  0  0  0  0  2  0  0  0  0  0  0
  195.7300  175.2410  137.0060 N   0  0  0  0  0  2  0  0  0  0  0  0
  193.8190  174.6270  135.7100 C   0  0  2  0  0  3  0  0  0  0  0  0
  195.6460  173.2150  138.3360 C   0  0  0  0  0  1  0  0  0  0  0  0
  194.9370  172.6410  135.0120 O   0  0  0  0  0  1  0  0  0  0  0  0
  184.2740  179.3850  139.2400 C   0  0  0  0  0  2  0  0  0  0  0  0
  182.9960  178.8770  139.9060 C   0  0  1  0  0  3  0  0  0  0  0  0
  180.1360  179.2270  140.5420 C   0  0  0  0  0  2  0  0  0  0  0  0
  181.9310  178.4560  138.8770 C   0  0  2  0  0  3  0  0  0  0  0  0
  179.6980  180.5530  139.9320 C   0  0  0  0  0  2  0  0  0  0  0  0
  181.8730  179.3920  137.6600 C   0  0  0  0  0  2  0  0  0  0  0  0
  180.5450  178.1910  139.4920 C   0  0  0  0  0  2  0  0  0  0  0  0
  180.8310  181.2350  139.1850 C   0  0  0  0  0  2  0  0  0  0  0  0
  180.9520  180.6210  137.7880 C   0  0  1  0  0  3  0  0  0  0  0  0
  181.1710  181.5770  136.7750 O   0  0  0  0  0  0  0  0  0  0  0  0
  180.9390  182.8550  137.3120 C   0  0  0  0  0  1  0  0  0  0  0  0
  183.3670  177.5200  141.0770 S   0  0  0  0  0  0  0  0  0  0  0  0
  183.3540  178.6030  142.5030 C   0  0  0  0  0  0  0  0  0  0  0  0
  182.1000  179.0060  143.0760 S   0  0  0  0  0  0  0  0  0  0  0  0
  184.6280  179.2430  142.9480 C   0  0  0  0  0  2  0  0  0  0  0  0
  184.4570  179.8710  144.3300 C   0  0  0  0  0  2  0  0  0  0  0  0
  186.0550  179.5700  146.3540 C   0  0  0  0  0  2  0  0  0  0  0  0
  184.0030  178.2810  146.2020 O   0  0  0  0  0  1  0  0  0  0  0  0
  186.4950  177.1290  146.2150 C   0  0  0  0  0  1  0  0  0  0  0  0
  186.3690  178.4080  145.4090 C   0  0  1  0  0  3  0  0  0  0  0  0
  184.9640  178.9960  145.4810 C   0  0  1  0  0  0  0  0  0  0  0  0
  1  4  1  0  0  0  0
  1  3  1  0  0  0  0
  2  1  2  0  0  0  0
  4  8  1  0  0  0  0
  5 10  1  0  0  0  0
  7  6  1  0  0  0  0
  8  7  1  0  0  0  0
  9  4  2  0  0  0  0
  9  5  1  0  0  0  0
 10  6  1  0  0  0  0
 11  9  1  0  0  0  0
 13 15  2  0  0  0  0
 13 19  1  0  0  0  0
 14 16  1  6  0  0  0
 14 17  1  0  0  0  0
 15 18  2  0  0  0  0
 16 13  1  0  0  0  0
 17 12  1  0  0  0  0
 19 11  1  6  0  0  0
 19 12  1  0  0  0  0
 20 23  1  0  0  0  0
 20 25  1  1  0  0  0
 21 26  1  6  0  0  0
 21 20  1  0  0  0  0
 22 23  1  0  0  0  0
 24 22  1  1  0  0  0
 24 21  1  0  0  0  0
 24 14  1  0  0  0  0
 27  3  1  0  0  0  0
 28 27  1  6  0  0  0
 28 38  1  0  0  0  0
 30 33  1  0  0  0  0
 30 28  1  1  0  0  0
 31 29  1  0  0  0  0
 32 35  1  0  0  0  0
 32 30  1  0  0  0  0
 33 29  1  0  0  0  0
 34 31  1  0  0  0  0
 35 36  1  6  0  0  0
 35 34  1  0  0  0  0
 36 37  1  0  0  0  0
 38 39  1  0  0  0  0
 39 41  1  0  0  0  0
 39 40  2  0  0  0  0
 41 42  1  0  0  0  0
 42 47  1  0  0  0  0
 46 47  1  0  0  0  0
 46 45  1  1  0  0  0
 46 43  1  0  0  0  0
 47 44  1  1  0  0  0
 47 43  1  0  0  0  0
M  END
>  <MODEL>
9

>  <REMARK>
 VINA RESULT:      -4.9      2.965     10.085
  Name = 
  13 active torsions:
  status: ('A' for Active; 'I' for Inactive)
    1  A    between atoms: C_2  and  C_7
    2  A    between atoms: C_2  and  S_10
    3  A    between atoms: C_3  and  C_9
    4  A    between atoms: C_7  and  C_14
    5  A    between atoms: S_10  and  C_34
    6  A    between atoms: C_14  and  C_40
    7  A    between atoms: C_15  and  C_34
    8  A    between atoms: O_16  and  C_45
    9  A    between atoms: S_18  and  C_38
   10  A    between atoms: S_18  and  C_47
   11  A    between atoms: N_19  and  C_31
   12  A    between atoms: N_21  and  C_32
   13  A    between atoms: C_32  and  C_34
                            x       y       z     vdW  Elec       q    Type
                         _______ _______ _______ _____ _____    ______ ____

>  <TORSDO>
F 13

$$$$
