=
 OpenBabel11062413073D

 40 45  0  0  1  0  0  0  0  0999 V2000
  187.1460  178.4940  139.2490 N   0  0  0  0  0  0  0  0  0  0  0  0
  187.3030  178.6130  141.4430 C   0  0  0  0  0  3  0  0  0  0  0  0
  185.9660  178.7540  141.1190 C   0  0  0  0  0  0  0  0  0  0  0  0
  185.9070  178.6840  139.7370 C   0  0  0  0  0  0  0  0  0  0  0  0
  187.9760  178.4700  140.2850 N   0  0  0  0  0  0  0  0  0  0  0  0
  183.7000  179.6630  143.8820 C   0  0  0  0  0  2  0  0  0  0  0  0
  182.9060  178.6000  143.1160 C   0  0  2  0  0  3  0  0  0  0  0  0
  184.8950  179.7880  143.1300 O   0  0  0  0  0  0  0  0  0  0  0  0
  183.7770  178.2060  142.0170 N   0  0  0  0  0  0  0  0  0  0  0  0
  184.8610  178.8990  142.0760 C   0  0  0  0  0  0  0  0  0  0  0  0
  179.8400  179.3080  141.3880 C   0  0  0  0  0  3  0  0  0  0  0  0
  179.7530  180.2150  142.5700 C   0  0  0  0  0  2  0  0  0  0  0  0
  180.9740  180.1160  143.2810 O   0  0  0  0  0  0  0  0  0  0  0  0
  181.6650  179.1670  142.6000 N   0  0  0  0  0  0  0  0  0  0  0  0
  180.9900  178.6980  141.4520 C   0  0  0  0  0  3  0  0  0  0  0  0
  189.8430  177.0210  140.9930 C   0  0  2  0  0  3  0  0  0  0  0  0
  189.7040  176.9460  139.4840 C   0  0  0  0  0  2  0  0  0  0  0  0
  189.4180  178.2540  140.2050 C   0  0  1  0  0  3  0  0  0  0  0  0
  191.3090  177.1560  141.3570 C   0  0  0  0  0  2  0  0  0  0  0  0
  191.5080  176.7400  142.7350 N   0  0  0  0  0  2  0  0  0  0  0  0
  191.5620  177.9470  143.5430 C   0  0  0  0  0  2  0  0  0  0  0  0
  190.8650  177.2350  145.8650 C   0  0  0  0  0  0  0  0  0  0  0  0
  190.5770  177.8610  144.6090 N   0  0  0  0  0  2  0  0  0  0  0  0
  192.0360  176.8300  146.1120 O   0  0  0  0  0  0  0  0  0  0  0  0
  189.8430  177.0470  146.8530 N   0  0  0  0  0  2  0  0  0  0  0  0
  184.5060  178.7190  146.6540 F   0  0  0  0  0  0  0  0  0  0  0  0
  188.4700  177.4580  146.7750 C   0  0  0  0  0  0  0  0  0  0  0  0
  185.7960  178.3080  146.6930 C   0  0  0  0  0  0  0  0  0  0  0  0
  186.5630  178.5250  147.8410 C   0  0  0  0  0  3  0  0  0  0  0  0
  187.6930  177.2480  145.6240 C   0  0  0  0  0  3  0  0  0  0  0  0
  187.8950  178.1010  147.8800 C   0  0  0  0  0  3  0  0  0  0  0  0
  186.3590  177.6700  145.5830 C   0  0  0  0  0  3  0  0  0  0  0  0
  184.6780  178.7010  138.8890 C   0  0  0  0  0  2  0  0  0  0  0  0
  184.0540  179.9800  138.9550 O   0  0  0  0  0  0  0  0  0  0  0  0
  180.6330  179.4630  137.6010 C   0  0  0  0  0  3  0  0  0  0  0  0
  181.9540  179.2030  137.9700 C   0  0  0  0  0  3  0  0  0  0  0  0
  182.7280  180.2040  138.5800 C   0  0  0  0  0  0  0  0  0  0  0  0
  182.1630  181.4630  138.8120 C   0  0  0  0  0  3  0  0  0  0  0  0
  180.8400  181.7230  138.4400 C   0  0  0  0  0  3  0  0  0  0  0  0
  180.0760  180.7210  137.8340 C   0  0  0  0  0  3  0  0  0  0  0  0
  1  4  2  0  0  0  0
  1  5  1  0  0  0  0
  3  2  2  0  0  0  0
  3 10  1  0  0  0  0
  4  3  1  0  0  0  0
  5  2  1  0  0  0  0
  7 14  1  6  0  0  0
  7  6  1  0  0  0  0
  8  6  1  0  0  0  0
  9 10  2  0  0  0  0
  9  7  1  0  0  0  0
 10  8  1  0  0  0  0
 11 15  2  0  0  0  0
 11 12  1  0  0  0  0
 12 13  1  0  0  0  0
 14 13  1  0  0  0  0
 15 14  1  0  0  0  0
 16 19  1  6  0  0  0
 17 16  1  0  0  0  0
 18 17  1  6  0  0  0
 18  5  1  0  0  0  0
 18 16  1  0  0  0  0
 19 20  1  0  0  0  0
 20 21  1  0  0  0  0
 21 23  1  0  0  0  0
 22 24  2  0  0  0  0
 22 25  1  0  0  0  0
 23 22  1  0  0  0  0
 26 28  1  0  0  0  0
 27 25  1  0  0  0  0
 27 31  1  0  0  0  0
 28 29  1  0  0  0  0
 29 31  2  0  0  0  0
 30 27  2  0  0  0  0
 32 30  1  0  0  0  0
 32 28  2  0  0  0  0
 33 34  1  0  0  0  0
 33  4  1  0  0  0  0
 35 40  2  0  0  0  0
 35 36  1  0  0  0  0
 36 37  2  0  0  0  0
 37 38  1  0  0  0  0
 37 34  1  0  0  0  0
 39 38  2  0  0  0  0
 40 39  1  0  0  0  0
M  END
>  <MODEL>
1

>  <REMARK>
 VINA RESULT:      -8.9      0.000      0.000
  Name = 
  11 active torsions:
  status: ('A' for Active; 'I' for Inactive)
    1  A    between atoms: C_7  and  N_19
    2  A    between atoms: C_8  and  N_38
    3  A    between atoms: N_15  and  C_23
    4  A    between atoms: O_16  and  C_28
    5  A    between atoms: O_16  and  C_39
    6  A    between atoms: C_17  and  C_29
    7  A    between atoms: C_18  and  C_30
    8  A    between atoms: C_23  and  N_32
    9  A    between atoms: C_24  and  C_39
   10  A    between atoms: C_29  and  N_32
   11  A    between atoms: N_31  and  C_35
                            x       y       z     vdW  Elec       q    Type
                         _______ _______ _______ _____ _____    ______ ____

>  <TORSDO>
F 11

$$$$
=
 OpenBabel11062413073D

 40 45  0  0  1  0  0  0  0  0999 V2000
  188.1580  177.6800  139.4740 N   0  0  0  0  0  0  0  0  0  0  0  0
  190.0810  176.7260  139.9690 C   0  0  0  0  0  3  0  0  0  0  0  0
  189.6420  177.3800  141.1060 C   0  0  0  0  0  0  0  0  0  0  0  0
  188.4410  177.9740  140.7560 C   0  0  0  0  0  0  0  0  0  0  0  0
  189.1600  176.9430  139.0100 N   0  0  0  0  0  0  0  0  0  0  0  0
  191.6660  178.0930  144.1040 C   0  0  0  0  0  2  0  0  0  0  0  0
  191.0100  176.7500  144.4390 C   0  0  2  0  0  3  0  0  0  0  0  0
  191.1450  178.4050  142.8240 O   0  0  0  0  0  0  0  0  0  0  0  0
  190.2060  176.4270  143.2670 N   0  0  0  0  0  0  0  0  0  0  0  0
  190.3190  177.3820  142.4100 C   0  0  0  0  0  0  0  0  0  0  0  0
  189.6230  177.2670  147.7090 C   0  0  0  0  0  3  0  0  0  0  0  0
  188.4160  177.3590  146.8360 C   0  0  0  0  0  2  0  0  0  0  0  0
  188.8160  177.0510  145.5130 O   0  0  0  0  0  0  0  0  0  0  0  0
  190.1590  176.8790  145.6160 N   0  0  0  0  0  0  0  0  0  0  0  0
  190.6380  176.9890  146.9400 C   0  0  0  0  0  3  0  0  0  0  0  0
  189.4600  177.4660  136.6170 C   0  0  2  0  0  3  0  0  0  0  0  0
  190.6270  176.6190  137.0870 C   0  0  0  0  0  2  0  0  0  0  0  0
  189.2400  176.3810  137.6640 C   0  0  1  0  0  3  0  0  0  0  0  0
  188.9750  176.9530  135.2740 C   0  0  0  0  0  2  0  0  0  0  0  0
  187.9170  177.8160  134.7770 N   0  0  0  0  0  2  0  0  0  0  0  0
  186.7250  176.9960  134.6400 C   0  0  0  0  0  2  0  0  0  0  0  0
  185.4970  176.2070  136.7030 C   0  0  0  0  0  0  0  0  0  0  0  0
  185.8380  177.2370  135.7670 N   0  0  0  0  0  2  0  0  0  0  0  0
  186.0540  175.0760  136.6240 O   0  0  0  0  0  0  0  0  0  0  0  0
  184.5220  176.4310  137.7300 N   0  0  0  0  0  2  0  0  0  0  0  0
  181.8290  181.2100  138.8410 F   0  0  0  0  0  0  0  0  0  0  0  0
  183.8050  177.6440  138.0010 C   0  0  0  0  0  0  0  0  0  0  0  0
  182.4720  180.0480  138.5680 C   0  0  0  0  0  0  0  0  0  0  0  0
  183.7160  179.7870  139.1470 C   0  0  0  0  0  3  0  0  0  0  0  0
  182.5550  177.9170  137.4210 C   0  0  0  0  0  3  0  0  0  0  0  0
  184.3790  178.5880  138.8630 C   0  0  0  0  0  3  0  0  0  0  0  0
  181.8890  179.1150  137.7040 C   0  0  0  0  0  3  0  0  0  0  0  0
  187.5210  178.7330  141.6530 C   0  0  0  0  0  2  0  0  0  0  0  0
  186.8120  177.8350  142.5010 O   0  0  0  0  0  0  0  0  0  0  0  0
  184.5820  178.7480  145.3300 C   0  0  0  0  0  3  0  0  0  0  0  0
  185.7310  178.3830  144.6260 C   0  0  0  0  0  3  0  0  0  0  0  0
  185.6820  178.2070  143.2340 C   0  0  0  0  0  0  0  0  0  0  0  0
  184.4720  178.3990  142.5600 C   0  0  0  0  0  3  0  0  0  0  0  0
  183.3200  178.7630  143.2650 C   0  0  0  0  0  3  0  0  0  0  0  0
  183.3760  178.9370  144.6510 C   0  0  0  0  0  3  0  0  0  0  0  0
  1  4  2  0  0  0  0
  2  3  2  0  0  0  0
  3 10  1  0  0  0  0
  4  3  1  0  0  0  0
  4 33  1  0  0  0  0
  5  1  1  0  0  0  0
  5  2  1  0  0  0  0
  7  6  1  6  0  0  0
  7 14  1  0  0  0  0
  8  6  1  0  0  0  0
  9  7  1  0  0  0  0
 10  8  1  0  0  0  0
 10  9  2  0  0  0  0
 12 11  1  0  0  0  0
 13 14  1  0  0  0  0
 13 12  1  0  0  0  0
 14 15  1  0  0  0  0
 15 11  2  0  0  0  0
 16 19  1  6  0  0  0
 16 17  1  0  0  0  0
 16 18  1  0  0  0  0
 18 17  1  1  0  0  0
 18  5  1  0  0  0  0
 20 19  1  0  0  0  0
 21 20  1  0  0  0  0
 21 23  1  0  0  0  0
 22 25  1  0  0  0  0
 23 22  1  0  0  0  0
 24 22  2  0  0  0  0
 25 27  1  0  0  0  0
 27 31  1  0  0  0  0
 28 26  1  0  0  0  0
 28 29  1  0  0  0  0
 30 32  1  0  0  0  0
 30 27  2  0  0  0  0
 31 29  2  0  0  0  0
 32 28  2  0  0  0  0
 33 34  1  0  0  0  0
 34 37  1  0  0  0  0
 36 35  2  0  0  0  0
 37 36  1  0  0  0  0
 38 37  2  0  0  0  0
 38 39  1  0  0  0  0
 39 40  2  0  0  0  0
 40 35  1  0  0  0  0
M  END
>  <MODEL>
2

>  <REMARK>
 VINA RESULT:      -8.8      2.792      7.895
  Name = 
  11 active torsions:
  status: ('A' for Active; 'I' for Inactive)
    1  A    between atoms: C_7  and  N_19
    2  A    between atoms: C_8  and  N_38
    3  A    between atoms: N_15  and  C_23
    4  A    between atoms: O_16  and  C_28
    5  A    between atoms: O_16  and  C_39
    6  A    between atoms: C_17  and  C_29
    7  A    between atoms: C_18  and  C_30
    8  A    between atoms: C_23  and  N_32
    9  A    between atoms: C_24  and  C_39
   10  A    between atoms: C_29  and  N_32
   11  A    between atoms: N_31  and  C_35
                            x       y       z     vdW  Elec       q    Type
                         _______ _______ _______ _____ _____    ______ ____

>  <TORSDO>
F 11

$$$$
=
 OpenBabel11062413073D

 40 45  0  0  1  0  0  0  0  0999 V2000
  191.4920  177.1000  140.3610 N   0  0  0  0  0  0  0  0  0  0  0  0
  189.4710  177.7900  140.8960 C   0  0  0  0  0  3  0  0  0  0  0  0
  189.4470  177.4490  139.5560 C   0  0  0  0  0  0  0  0  0  0  0  0
  190.7320  177.0310  139.2540 C   0  0  0  0  0  0  0  0  0  0  0  0
  190.7260  177.5740  141.3350 N   0  0  0  0  0  0  0  0  0  0  0  0
  186.6600  176.7570  137.2440 C   0  0  0  0  0  2  0  0  0  0  0  0
  186.5100  178.2550  137.5310 C   0  0  2  0  0  3  0  0  0  0  0  0
  187.7740  176.3800  138.0320 O   0  0  0  0  0  0  0  0  0  0  0  0
  187.6060  178.5700  138.4380 N   0  0  0  0  0  0  0  0  0  0  0  0
  188.2680  177.4920  138.6800 C   0  0  0  0  0  0  0  0  0  0  0  0
  183.2270  178.1130  138.9760 C   0  0  0  0  0  3  0  0  0  0  0  0
  183.7750  179.3730  139.5590 C   0  0  0  0  0  2  0  0  0  0  0  0
  185.0400  179.6080  138.9680 O   0  0  0  0  0  0  0  0  0  0  0  0
  185.2290  178.5240  138.1730 N   0  0  0  0  0  0  0  0  0  0  0  0
  184.1290  177.6380  138.1640 C   0  0  0  0  0  3  0  0  0  0  0  0
  190.2800  176.9890  143.6900 C   0  0  2  0  0  3  0  0  0  0  0  0
  191.6500  176.4660  143.3020 C   0  0  0  0  0  2  0  0  0  0  0  0
  191.1490  177.7780  142.7190 C   0  0  1  0  0  3  0  0  0  0  0  0
  190.3590  177.6440  145.0560 C   0  0  0  0  0  2  0  0  0  0  0  0
  190.8650  176.6880  146.0260 N   0  0  0  0  0  2  0  0  0  0  0  0
  190.0560  176.8250  147.2250 C   0  0  0  0  0  2  0  0  0  0  0  0
  187.9210  178.0230  147.8520 C   0  0  0  0  0  0  0  0  0  0  0  0
  188.7670  177.4000  146.8770 N   0  0  0  0  0  2  0  0  0  0  0  0
  188.3350  178.1810  149.0350 O   0  0  0  0  0  0  0  0  0  0  0  0
  186.6000  178.4680  147.5140 N   0  0  0  0  0  2  0  0  0  0  0  0
  184.0150  178.2870  142.5530 F   0  0  0  0  0  0  0  0  0  0  0  0
  185.9630  178.4060  146.2300 C   0  0  0  0  0  0  0  0  0  0  0  0
  184.6490  178.3250  143.7500 C   0  0  0  0  0  0  0  0  0  0  0  0
  183.9520  178.7130  144.8970 C   0  0  0  0  0  3  0  0  0  0  0  0
  186.6560  178.0210  145.0700 C   0  0  0  0  0  3  0  0  0  0  0  0
  184.6090  178.7530  146.1320 C   0  0  0  0  0  3  0  0  0  0  0  0
  186.0020  177.9790  143.8340 C   0  0  0  0  0  3  0  0  0  0  0  0
  191.2140  176.4790  137.9530 C   0  0  0  0  0  2  0  0  0  0  0  0
  191.3250  175.0610  138.0330 O   0  0  0  0  0  0  0  0  0  0  0  0
  194.7810  173.8810  137.3440 C   0  0  0  0  0  3  0  0  0  0  0  0
  193.7250  174.6080  137.8990 C   0  0  0  0  0  3  0  0  0  0  0  0
  192.4030  174.3480  137.5040 C   0  0  0  0  0  0  0  0  0  0  0  0
  192.1540  173.3560  136.5490 C   0  0  0  0  0  3  0  0  0  0  0  0
  193.2120  172.6300  135.9930 C   0  0  0  0  0  3  0  0  0  0  0  0
  194.5260  172.8930  136.3920 C   0  0  0  0  0  3  0  0  0  0  0  0
  1  5  1  0  0  0  0
  2  5  1  0  0  0  0
  3  2  2  0  0  0  0
  4  3  1  0  0  0  0
  4  1  2  0  0  0  0
  6  8  1  0  0  0  0
  7  6  1  1  0  0  0
  7 14  1  0  0  0  0
  7  9  1  0  0  0  0
  8 10  1  0  0  0  0
  9 10  2  0  0  0  0
 10  3  1  0  0  0  0
 11 12  1  0  0  0  0
 13 12  1  0  0  0  0
 14 13  1  0  0  0  0
 15 14  1  0  0  0  0
 15 11  2  0  0  0  0
 16 19  1  1  0  0  0
 17 16  1  0  0  0  0
 18  5  1  6  0  0  0
 18 17  1  0  0  0  0
 18 16  1  0  0  0  0
 19 20  1  0  0  0  0
 20 21  1  0  0  0  0
 22 24  2  0  0  0  0
 23 21  1  0  0  0  0
 23 22  1  0  0  0  0
 25 22  1  0  0  0  0
 26 28  1  0  0  0  0
 27 25  1  0  0  0  0
 28 32  2  0  0  0  0
 28 29  1  0  0  0  0
 29 31  2  0  0  0  0
 30 27  2  0  0  0  0
 31 27  1  0  0  0  0
 32 30  1  0  0  0  0
 33 34  1  0  0  0  0
 33  4  1  0  0  0  0
 35 36  1  0  0  0  0
 37 36  2  0  0  0  0
 37 34  1  0  0  0  0
 38 37  1  0  0  0  0
 39 40  1  0  0  0  0
 39 38  2  0  0  0  0
 40 35  2  0  0  0  0
M  END
>  <MODEL>
3

>  <REMARK>
 VINA RESULT:      -8.7      3.251      6.995
  Name = 
  11 active torsions:
  status: ('A' for Active; 'I' for Inactive)
    1  A    between atoms: C_7  and  N_19
    2  A    between atoms: C_8  and  N_38
    3  A    between atoms: N_15  and  C_23
    4  A    between atoms: O_16  and  C_28
    5  A    between atoms: O_16  and  C_39
    6  A    between atoms: C_17  and  C_29
    7  A    between atoms: C_18  and  C_30
    8  A    between atoms: C_23  and  N_32
    9  A    between atoms: C_24  and  C_39
   10  A    between atoms: C_29  and  N_32
   11  A    between atoms: N_31  and  C_35
                            x       y       z     vdW  Elec       q    Type
                         _______ _______ _______ _____ _____    ______ ____

>  <TORSDO>
F 11

$$$$
=
 OpenBabel11062413073D

 40 45  0  0  1  0  0  0  0  0999 V2000
  187.8140  178.2320  138.8530 N   0  0  0  0  0  0  0  0  0  0  0  0
  188.6290  176.4980  137.7670 C   0  0  0  0  0  3  0  0  0  0  0  0
  187.2940  176.6080  137.4230 C   0  0  0  0  0  0  0  0  0  0  0  0
  186.8140  177.6980  138.1290 C   0  0  0  0  0  0  0  0  0  0  0  0
  188.8940  177.4910  138.6390 N   0  0  0  0  0  0  0  0  0  0  0  0
  186.2110  174.5070  134.5940 C   0  0  0  0  0  2  0  0  0  0  0  0
  184.9680  174.5530  135.4880 C   0  0  2  0  0  3  0  0  0  0  0  0
  187.1640  175.2690  135.3130 O   0  0  0  0  0  0  0  0  0  0  0  0
  185.3550  175.3880  136.6180 N   0  0  0  0  0  0  0  0  0  0  0  0
  186.5810  175.7510  136.4660 C   0  0  0  0  0  0  0  0  0  0  0  0
  183.5570  171.6570  137.0710 C   0  0  0  0  0  3  0  0  0  0  0  0
  184.2440  171.0660  135.8850 C   0  0  0  0  0  2  0  0  0  0  0  0
  184.9480  172.1060  135.2320 O   0  0  0  0  0  0  0  0  0  0  0  0
  184.6210  173.2130  135.9450 N   0  0  0  0  0  0  0  0  0  0  0  0
  183.8010  172.9370  137.0620 C   0  0  0  0  0  3  0  0  0  0  0  0
  190.4880  176.8360  140.4040 C   0  0  2  0  0  3  0  0  0  0  0  0
  191.0860  176.5050  139.0510 C   0  0  0  0  0  2  0  0  0  0  0  0
  190.2160  177.7410  139.2090 C   0  0  1  0  0  3  0  0  0  0  0  0
  191.5450  177.4870  141.2760 C   0  0  0  0  0  2  0  0  0  0  0  0
  191.4860  176.9240  142.6150 N   0  0  0  0  0  2  0  0  0  0  0  0
  191.5920  178.0310  143.5500 C   0  0  0  0  0  2  0  0  0  0  0  0
  190.7500  177.2910  145.8140 C   0  0  0  0  0  0  0  0  0  0  0  0
  190.5400  177.9260  144.5480 N   0  0  0  0  0  2  0  0  0  0  0  0
  191.9050  176.8940  146.1350 O   0  0  0  0  0  0  0  0  0  0  0  0
  189.6660  177.0840  146.7300 N   0  0  0  0  0  2  0  0  0  0  0  0
  184.3390  178.7150  146.1890 F   0  0  0  0  0  0  0  0  0  0  0  0
  188.2980  177.4840  146.5650 C   0  0  0  0  0  0  0  0  0  0  0  0
  185.6280  178.3130  146.3110 C   0  0  0  0  0  0  0  0  0  0  0  0
  186.3310  178.5740  147.4900 C   0  0  0  0  0  3  0  0  0  0  0  0
  187.5840  177.2300  145.3820 C   0  0  0  0  0  3  0  0  0  0  0  0
  187.6610  178.1600  147.6140 C   0  0  0  0  0  3  0  0  0  0  0  0
  186.2520  177.6420  145.2550 C   0  0  0  0  0  3  0  0  0  0  0  0
  185.4450  178.2890  138.0480 C   0  0  0  0  0  2  0  0  0  0  0  0
  185.2940  179.3110  139.0270 O   0  0  0  0  0  0  0  0  0  0  0  0
  184.6630  179.0020  142.6770 C   0  0  0  0  0  3  0  0  0  0  0  0
  185.3350  179.2180  141.4720 C   0  0  0  0  0  3  0  0  0  0  0  0
  184.6500  179.1080  140.2510 C   0  0  0  0  0  0  0  0  0  0  0  0
  183.2910  178.7780  140.2530 C   0  0  0  0  0  3  0  0  0  0  0  0
  182.6190  178.5590  141.4600 C   0  0  0  0  0  3  0  0  0  0  0  0
  183.3070  178.6720  142.6720 C   0  0  0  0  0  3  0  0  0  0  0  0
  2  5  1  0  0  0  0
  3  2  2  0  0  0  0
  3  4  1  0  0  0  0
  4  1  2  0  0  0  0
  5  1  1  0  0  0  0
  6  8  1  0  0  0  0
  7  6  1  6  0  0  0
  7 14  1  0  0  0  0
  7  9  1  0  0  0  0
  8 10  1  0  0  0  0
 10  9  2  0  0  0  0
 10  3  1  0  0  0  0
 12 11  1  0  0  0  0
 13 12  1  0  0  0  0
 13 14  1  0  0  0  0
 14 15  1  0  0  0  0
 15 11  2  0  0  0  0
 16 19  1  1  0  0  0
 17 18  1  0  0  0  0
 17 16  1  0  0  0  0
 18  5  1  6  0  0  0
 18 16  1  0  0  0  0
 19 20  1  0  0  0  0
 20 21  1  0  0  0  0
 21 23  1  0  0  0  0
 22 24  2  0  0  0  0
 22 25  1  0  0  0  0
 23 22  1  0  0  0  0
 26 28  1  0  0  0  0
 27 25  1  0  0  0  0
 27 31  1  0  0  0  0
 28 29  1  0  0  0  0
 29 31  2  0  0  0  0
 30 27  2  0  0  0  0
 32 30  1  0  0  0  0
 32 28  2  0  0  0  0
 33  4  1  0  0  0  0
 33 34  1  0  0  0  0
 34 37  1  0  0  0  0
 36 35  2  0  0  0  0
 37 38  2  0  0  0  0
 37 36  1  0  0  0  0
 38 39  1  0  0  0  0
 39 40  2  0  0  0  0
 40 35  1  0  0  0  0
M  END
>  <MODEL>
4

>  <REMARK>
 VINA RESULT:      -8.6      3.442      5.257
  Name = 
  11 active torsions:
  status: ('A' for Active; 'I' for Inactive)
    1  A    between atoms: C_7  and  N_19
    2  A    between atoms: C_8  and  N_38
    3  A    between atoms: N_15  and  C_23
    4  A    between atoms: O_16  and  C_28
    5  A    between atoms: O_16  and  C_39
    6  A    between atoms: C_17  and  C_29
    7  A    between atoms: C_18  and  C_30
    8  A    between atoms: C_23  and  N_32
    9  A    between atoms: C_24  and  C_39
   10  A    between atoms: C_29  and  N_32
   11  A    between atoms: N_31  and  C_35
                            x       y       z     vdW  Elec       q    Type
                         _______ _______ _______ _____ _____    ______ ____

>  <TORSDO>
F 11

$$$$
=
 OpenBabel11062413073D

 40 45  0  0  1  0  0  0  0  0999 V2000
  188.6810  178.0310  140.7310 N   0  0  0  0  0  0  0  0  0  0  0  0
  190.6780  177.1180  140.5720 C   0  0  0  0  0  3  0  0  0  0  0  0
  190.0100  176.8550  139.3890 C   0  0  0  0  0  0  0  0  0  0  0  0
  188.7600  177.4330  139.5290 C   0  0  0  0  0  0  0  0  0  0  0  0
  189.8340  177.8190  141.3530 N   0  0  0  0  0  0  0  0  0  0  0  0
  191.3100  175.7990  136.1050 C   0  0  0  0  0  2  0  0  0  0  0  0
  191.3790  174.5140  136.9350 C   0  0  2  0  0  3  0  0  0  0  0  0
  190.8100  176.7580  137.0200 O   0  0  0  0  0  0  0  0  0  0  0  0
  190.8600  174.8900  138.2440 N   0  0  0  0  0  0  0  0  0  0  0  0
  190.5660  176.1430  138.2300 C   0  0  0  0  0  0  0  0  0  0  0  0
  194.8060  173.9360  137.8320 C   0  0  0  0  0  3  0  0  0  0  0  0
  194.4690  172.7040  137.0590 C   0  0  0  0  0  2  0  0  0  0  0  0
  193.1610  172.8630  136.5420 O   0  0  0  0  0  0  0  0  0  0  0  0
  192.7580  174.0560  137.0500 N   0  0  0  0  0  0  0  0  0  0  0  0
  193.7560  174.7070  137.8080 C   0  0  0  0  0  3  0  0  0  0  0  0
  190.3650  177.1920  143.6790 C   0  0  2  0  0  3  0  0  0  0  0  0
  191.5790  177.8550  143.0570 C   0  0  0  0  0  2  0  0  0  0  0  0
  190.1840  178.3260  142.6780 C   0  0  1  0  0  3  0  0  0  0  0  0
  190.1550  177.7390  145.0780 C   0  0  0  0  0  2  0  0  0  0  0  0
  190.6750  176.7970  146.0530 N   0  0  0  0  0  2  0  0  0  0  0  0
  189.7540  176.7910  147.1770 C   0  0  0  0  0  2  0  0  0  0  0  0
  187.5960  177.9910  147.7130 C   0  0  0  0  0  0  0  0  0  0  0  0
  188.4900  177.3840  146.7720 N   0  0  0  0  0  2  0  0  0  0  0  0
  187.9440  178.1170  148.9200 O   0  0  0  0  0  0  0  0  0  0  0  0
  186.2990  178.4550  147.3120 N   0  0  0  0  0  2  0  0  0  0  0  0
  184.1950  178.2830  142.1290 F   0  0  0  0  0  0  0  0  0  0  0  0
  185.7340  178.4280  145.9930 C   0  0  0  0  0  0  0  0  0  0  0  0
  184.6960  178.3310  143.3870 C   0  0  0  0  0  0  0  0  0  0  0  0
  186.0100  177.9250  143.6310 C   0  0  0  0  0  3  0  0  0  0  0  0
  184.4120  178.8300  145.7400 C   0  0  0  0  0  3  0  0  0  0  0  0
  186.5260  177.9740  144.9300 C   0  0  0  0  0  3  0  0  0  0  0  0
  183.8940  178.7840  144.4400 C   0  0  0  0  0  3  0  0  0  0  0  0
  187.6830  177.5030  138.4980 C   0  0  0  0  0  2  0  0  0  0  0  0
  186.7070  178.4710  138.8730 O   0  0  0  0  0  0  0  0  0  0  0  0
  183.5540  177.3540  137.2550 C   0  0  0  0  0  3  0  0  0  0  0  0
  184.9060  177.4130  137.6000 C   0  0  0  0  0  3  0  0  0  0  0  0
  185.3610  178.3790  138.5120 C   0  0  0  0  0  0  0  0  0  0  0  0
  184.4480  179.2810  139.0700 C   0  0  0  0  0  3  0  0  0  0  0  0
  183.0950  179.2220  138.7220 C   0  0  0  0  0  3  0  0  0  0  0  0
  182.6490  178.2570  137.8140 C   0  0  0  0  0  3  0  0  0  0  0  0
  1  5  1  0  0  0  0
  2  5  1  0  0  0  0
  3  4  1  0  0  0  0
  3  2  2  0  0  0  0
  4  1  2  0  0  0  0
  6  8  1  0  0  0  0
  7  6  1  6  0  0  0
  7 14  1  0  0  0  0
  7  9  1  0  0  0  0
  8 10  1  0  0  0  0
 10  9  2  0  0  0  0
 10  3  1  0  0  0  0
 12 11  1  0  0  0  0
 13 14  1  0  0  0  0
 13 12  1  0  0  0  0
 14 15  1  0  0  0  0
 15 11  2  0  0  0  0
 16 19  1  1  0  0  0
 17 16  1  0  0  0  0
 18  5  1  6  0  0  0
 18 17  1  0  0  0  0
 18 16  1  0  0  0  0
 19 20  1  0  0  0  0
 20 21  1  0  0  0  0
 22 24  2  0  0  0  0
 23 21  1  0  0  0  0
 23 22  1  0  0  0  0
 25 22  1  0  0  0  0
 26 28  1  0  0  0  0
 27 25  1  0  0  0  0
 28 29  2  0  0  0  0
 28 32  1  0  0  0  0
 29 31  1  0  0  0  0
 30 27  1  0  0  0  0
 31 27  2  0  0  0  0
 32 30  2  0  0  0  0
 33 34  1  0  0  0  0
 33  4  1  0  0  0  0
 35 36  2  0  0  0  0
 35 40  1  0  0  0  0
 36 37  1  0  0  0  0
 37 34  1  0  0  0  0
 37 38  2  0  0  0  0
 39 38  1  0  0  0  0
 40 39  2  0  0  0  0
M  END
>  <MODEL>
5

>  <REMARK>
 VINA RESULT:      -8.6      3.513      7.141
  Name = 
  11 active torsions:
  status: ('A' for Active; 'I' for Inactive)
    1  A    between atoms: C_7  and  N_19
    2  A    between atoms: C_8  and  N_38
    3  A    between atoms: N_15  and  C_23
    4  A    between atoms: O_16  and  C_28
    5  A    between atoms: O_16  and  C_39
    6  A    between atoms: C_17  and  C_29
    7  A    between atoms: C_18  and  C_30
    8  A    between atoms: C_23  and  N_32
    9  A    between atoms: C_24  and  C_39
   10  A    between atoms: C_29  and  N_32
   11  A    between atoms: N_31  and  C_35
                            x       y       z     vdW  Elec       q    Type
                         _______ _______ _______ _____ _____    ______ ____

>  <TORSDO>
F 11

$$$$
=
 OpenBabel11062413073D

 40 45  0  0  1  0  0  0  0  0999 V2000
  186.2060  178.6400  139.6050 N   0  0  0  0  0  0  0  0  0  0  0  0
  184.6530  177.9910  138.1860 C   0  0  0  0  0  3  0  0  0  0  0  0
  184.0270  178.2430  139.3930 C   0  0  0  0  0  0  0  0  0  0  0  0
  185.0320  178.6380  140.2600 C   0  0  0  0  0  0  0  0  0  0  0  0
  185.9660  178.2340  138.3650 N   0  0  0  0  0  0  0  0  0  0  0  0
  180.5440  177.1810  139.9730 C   0  0  0  0  0  2  0  0  0  0  0  0
  180.4530  178.7100  140.0170 C   0  0  2  0  0  3  0  0  0  0  0  0
  181.9240  176.9380  139.7620 O   0  0  0  0  0  0  0  0  0  0  0  0
  181.8160  179.1690  139.7790 N   0  0  0  0  0  0  0  0  0  0  0  0
  182.5830  178.1430  139.6490 C   0  0  0  0  0  0  0  0  0  0  0  0
  179.4720  179.0240  143.4550 C   0  0  0  0  0  3  0  0  0  0  0  0
  179.6850  180.4470  143.0560 C   0  0  0  0  0  2  0  0  0  0  0  0
  179.9660  180.4680  141.6680 O   0  0  0  0  0  0  0  0  0  0  0  0
  179.9900  179.1550  141.3260 N   0  0  0  0  0  0  0  0  0  0  0  0
  179.6730  178.2910  142.3970 C   0  0  0  0  0  3  0  0  0  0  0  0
  187.8040  176.8600  137.4590 C   0  0  2  0  0  3  0  0  0  0  0  0
  186.6730  176.8990  136.4500 C   0  0  0  0  0  2  0  0  0  0  0  0
  186.9650  178.1220  137.3040 C   0  0  1  0  0  3  0  0  0  0  0  0
  189.1260  177.0640  136.7430 C   0  0  0  0  0  2  0  0  0  0  0  0
  190.1640  177.3670  137.7130 N   0  0  0  0  0  2  0  0  0  0  0  0
  190.2220  176.2510  138.6420 C   0  0  0  0  0  2  0  0  0  0  0  0
  192.0090  177.1380  140.1920 C   0  0  0  0  0  0  0  0  0  0  0  0
  190.6600  176.7250  139.9450 N   0  0  0  0  0  2  0  0  0  0  0  0
  192.8340  177.1970  139.2380 O   0  0  0  0  0  0  0  0  0  0  0  0
  192.4510  177.4800  141.5130 N   0  0  0  0  0  2  0  0  0  0  0  0
  189.4460  177.4640  146.2350 F   0  0  0  0  0  0  0  0  0  0  0  0
  191.6660  177.5040  142.7150 C   0  0  0  0  0  0  0  0  0  0  0  0
  190.1690  177.4770  145.0890 C   0  0  0  0  0  0  0  0  0  0  0  0
  190.8980  176.3470  144.7100 C   0  0  0  0  0  3  0  0  0  0  0  0
  190.9330  178.6370  143.1050 C   0  0  0  0  0  3  0  0  0  0  0  0
  191.6430  176.3620  143.5270 C   0  0  0  0  0  3  0  0  0  0  0  0
  190.1850  178.6240  144.2880 C   0  0  0  0  0  3  0  0  0  0  0  0
  184.8700  179.1010  141.6700 C   0  0  0  0  0  2  0  0  0  0  0  0
  185.6530  178.2930  142.5440 O   0  0  0  0  0  0  0  0  0  0  0  0
  186.2970  177.8620  146.1780 C   0  0  0  0  0  3  0  0  0  0  0  0
  186.5080  177.8760  144.7980 C   0  0  0  0  0  3  0  0  0  0  0  0
  185.4780  178.2740  143.9300 C   0  0  0  0  0  0  0  0  0  0  0  0
  184.2400  178.6530  144.4600 C   0  0  0  0  0  3  0  0  0  0  0  0
  184.0300  178.6360  145.8420 C   0  0  0  0  0  3  0  0  0  0  0  0
  185.0590  178.2400  146.7010 C   0  0  0  0  0  3  0  0  0  0  0  0
  1  4  2  0  0  0  0
  2  5  1  0  0  0  0
  2  3  2  0  0  0  0
  3 10  1  0  0  0  0
  3  4  1  0  0  0  0
  4 33  1  0  0  0  0
  5  1  1  0  0  0  0
  7  6  1  1  0  0  0
  7 14  1  0  0  0  0
  8  6  1  0  0  0  0
  9  7  1  0  0  0  0
 10  8  1  0  0  0  0
 10  9  2  0  0  0  0
 12 11  1  0  0  0  0
 13 12  1  0  0  0  0
 14 13  1  0  0  0  0
 14 15  1  0  0  0  0
 15 11  2  0  0  0  0
 16 19  1  6  0  0  0
 17 16  1  0  0  0  0
 18 17  1  6  0  0  0
 18 16  1  0  0  0  0
 18  5  1  0  0  0  0
 19 20  1  0  0  0  0
 20 21  1  0  0  0  0
 21 23  1  0  0  0  0
 22 25  1  0  0  0  0
 23 22  1  0  0  0  0
 24 22  2  0  0  0  0
 25 27  1  0  0  0  0
 27 30  2  0  0  0  0
 27 31  1  0  0  0  0
 28 26  1  0  0  0  0
 29 28  1  0  0  0  0
 30 32  1  0  0  0  0
 31 29  2  0  0  0  0
 32 28  2  0  0  0  0
 33 34  1  0  0  0  0
 34 37  1  0  0  0  0
 35 40  1  0  0  0  0
 36 35  2  0  0  0  0
 37 38  2  0  0  0  0
 37 36  1  0  0  0  0
 38 39  1  0  0  0  0
 39 40  2  0  0  0  0
M  END
>  <MODEL>
6

>  <REMARK>
 VINA RESULT:      -8.4      2.598      5.175
  Name = 
  11 active torsions:
  status: ('A' for Active; 'I' for Inactive)
    1  A    between atoms: C_7  and  N_19
    2  A    between atoms: C_8  and  N_38
    3  A    between atoms: N_15  and  C_23
    4  A    between atoms: O_16  and  C_28
    5  A    between atoms: O_16  and  C_39
    6  A    between atoms: C_17  and  C_29
    7  A    between atoms: C_18  and  C_30
    8  A    between atoms: C_23  and  N_32
    9  A    between atoms: C_24  and  C_39
   10  A    between atoms: C_29  and  N_32
   11  A    between atoms: N_31  and  C_35
                            x       y       z     vdW  Elec       q    Type
                         _______ _______ _______ _____ _____    ______ ____

>  <TORSDO>
F 11

$$$$
=
 OpenBabel11062413073D

 40 45  0  0  1  0  0  0  0  0999 V2000
  186.4510  178.7460  140.7940 N   0  0  0  0  0  0  0  0  0  0  0  0
  185.5020  178.3490  142.7410 C   0  0  0  0  0  3  0  0  0  0  0  0
  184.4950  178.6800  141.8530 C   0  0  0  0  0  0  0  0  0  0  0  0
  185.1270  178.9320  140.6470 C   0  0  0  0  0  0  0  0  0  0  0  0
  186.6630  178.4120  142.0600 N   0  0  0  0  0  0  0  0  0  0  0  0
  181.1470  178.8910  143.3830 C   0  0  0  0  0  2  0  0  0  0  0  0
  180.8400  178.5680  141.9170 C   0  0  2  0  0  3  0  0  0  0  0  0
  182.5600  178.9770  143.4130 O   0  0  0  0  0  0  0  0  0  0  0  0
  182.1450  178.4650  141.2790 N   0  0  0  0  0  0  0  0  0  0  0  0
  183.0570  178.7050  142.1560 C   0  0  0  0  0  0  0  0  0  0  0  0
  178.9560  181.5350  141.1860 C   0  0  0  0  0  3  0  0  0  0  0  0
  179.3860  181.0900  139.8280 C   0  0  0  0  0  2  0  0  0  0  0  0
  180.0480  179.8470  139.9700 O   0  0  0  0  0  0  0  0  0  0  0  0
  180.0630  179.6430  141.3120 N   0  0  0  0  0  0  0  0  0  0  0  0
  179.3880  180.6490  142.0380 C   0  0  0  0  0  3  0  0  0  0  0  0
  188.5250  176.7930  142.0700 C   0  0  2  0  0  3  0  0  0  0  0  0
  189.0340  178.1280  141.5620 C   0  0  0  0  0  2  0  0  0  0  0  0
  187.9640  178.0890  142.6420 C   0  0  1  0  0  3  0  0  0  0  0  0
  189.5210  176.2160  143.0570 C   0  0  0  0  0  2  0  0  0  0  0  0
  190.8730  176.4810  142.5950 N   0  0  0  0  0  2  0  0  0  0  0  0
  191.6510  176.8840  143.7540 C   0  0  0  0  0  2  0  0  0  0  0  0
  191.1160  176.7800  146.2210 C   0  0  0  0  0  0  0  0  0  0  0  0
  190.7590  177.1240  144.8770 N   0  0  0  0  0  2  0  0  0  0  0  0
  192.2760  176.3500  146.4740 O   0  0  0  0  0  0  0  0  0  0  0  0
  190.1730  176.9050  147.2950 N   0  0  0  0  0  2  0  0  0  0  0  0
  184.9490  178.9020  147.0930 F   0  0  0  0  0  0  0  0  0  0  0  0
  188.8270  177.3970  147.2190 C   0  0  0  0  0  0  0  0  0  0  0  0
  186.2120  178.4120  147.1340 C   0  0  0  0  0  0  0  0  0  0  0  0
  187.0540  178.7420  148.1980 C   0  0  0  0  0  3  0  0  0  0  0  0
  187.9740  177.0730  146.1520 C   0  0  0  0  0  3  0  0  0  0  0  0
  188.3570  178.2360  148.2390 C   0  0  0  0  0  3  0  0  0  0  0  0
  186.6690  177.5770  146.1090 C   0  0  0  0  0  3  0  0  0  0  0  0
  184.4760  179.2530  139.3420 C   0  0  0  0  0  2  0  0  0  0  0  0
  185.3720  178.9810  138.2690 O   0  0  0  0  0  0  0  0  0  0  0  0
  184.6930  175.6130  136.8520 C   0  0  0  0  0  3  0  0  0  0  0  0
  184.4720  176.8880  137.3780 C   0  0  0  0  0  3  0  0  0  0  0  0
  185.5570  177.7040  137.7330 C   0  0  0  0  0  0  0  0  0  0  0  0
  186.8610  177.2290  137.5560 C   0  0  0  0  0  3  0  0  0  0  0  0
  187.0820  175.9520  137.0310 C   0  0  0  0  0  3  0  0  0  0  0  0
  185.9960  175.1440  136.6780 C   0  0  0  0  0  3  0  0  0  0  0  0
  1  5  1  0  0  0  0
  3 10  1  0  0  0  0
  3  2  2  0  0  0  0
  4  1  2  0  0  0  0
  4  3  1  0  0  0  0
  5 18  1  0  0  0  0
  5  2  1  0  0  0  0
  6  8  1  0  0  0  0
  7 14  1  6  0  0  0
  7  6  1  0  0  0  0
  9  7  1  0  0  0  0
  9 10  2  0  0  0  0
 10  8  1  0  0  0  0
 11 15  2  0  0  0  0
 12 13  1  0  0  0  0
 12 11  1  0  0  0  0
 13 14  1  0  0  0  0
 14 15  1  0  0  0  0
 16 18  1  0  0  0  0
 16 19  1  1  0  0  0
 17 16  1  0  0  0  0
 18 17  1  6  0  0  0
 20 19  1  0  0  0  0
 20 21  1  0  0  0  0
 21 23  1  0  0  0  0
 22 24  2  0  0  0  0
 22 25  1  0  0  0  0
 23 22  1  0  0  0  0
 26 28  1  0  0  0  0
 27 25  1  0  0  0  0
 27 31  1  0  0  0  0
 28 29  1  0  0  0  0
 29 31  2  0  0  0  0
 30 27  2  0  0  0  0
 32 30  1  0  0  0  0
 32 28  2  0  0  0  0
 33  4  1  0  0  0  0
 34 33  1  0  0  0  0
 35 36  1  0  0  0  0
 36 37  2  0  0  0  0
 37 34  1  0  0  0  0
 38 37  1  0  0  0  0
 39 38  2  0  0  0  0
 40 35  2  0  0  0  0
 40 39  1  0  0  0  0
M  END
>  <MODEL>
7

>  <REMARK>
 VINA RESULT:      -8.4      1.814      2.985
  Name = 
  11 active torsions:
  status: ('A' for Active; 'I' for Inactive)
    1  A    between atoms: C_7  and  N_19
    2  A    between atoms: C_8  and  N_38
    3  A    between atoms: N_15  and  C_23
    4  A    between atoms: O_16  and  C_28
    5  A    between atoms: O_16  and  C_39
    6  A    between atoms: C_17  and  C_29
    7  A    between atoms: C_18  and  C_30
    8  A    between atoms: C_23  and  N_32
    9  A    between atoms: C_24  and  C_39
   10  A    between atoms: C_29  and  N_32
   11  A    between atoms: N_31  and  C_35
                            x       y       z     vdW  Elec       q    Type
                         _______ _______ _______ _____ _____    ______ ____

>  <TORSDO>
F 11

$$$$
=
 OpenBabel11062413073D

 40 45  0  0  1  0  0  0  0  0999 V2000
  186.1780  178.6280  139.1400 N   0  0  0  0  0  0  0  0  0  0  0  0
  185.5800  177.3710  137.4340 C   0  0  0  0  0  3  0  0  0  0  0  0
  184.4220  177.7640  138.0800 C   0  0  0  0  0  0  0  0  0  0  0  0
  184.8360  178.5410  139.1480 C   0  0  0  0  0  0  0  0  0  0  0  0
  186.6120  177.9060  138.1140 N   0  0  0  0  0  0  0  0  0  0  0  0
  181.1800  177.4030  136.3630 C   0  0  0  0  0  2  0  0  0  0  0  0
  180.9690  176.6310  137.6690 C   0  0  2  0  0  3  0  0  0  0  0  0
  182.5230  177.8440  136.4530 O   0  0  0  0  0  0  0  0  0  0  0  0
  182.2320  176.7610  138.3840 N   0  0  0  0  0  0  0  0  0  0  0  0
  183.0520  177.4390  137.6590 C   0  0  0  0  0  0  0  0  0  0  0  0
  179.8990  173.2050  137.7190 C   0  0  0  0  0  3  0  0  0  0  0  0
  180.1810  173.4280  136.2700 C   0  0  0  0  0  2  0  0  0  0  0  0
  180.7300  174.7250  136.1310 O   0  0  0  0  0  0  0  0  0  0  0  0
  180.6870  175.2270  137.3910 N   0  0  0  0  0  0  0  0  0  0  0  0
  180.2060  174.3050  138.3460 C   0  0  0  0  0  3  0  0  0  0  0  0
  188.6750  176.5970  138.4560 C   0  0  2  0  0  3  0  0  0  0  0  0
  188.2080  176.4180  137.0240 C   0  0  0  0  0  2  0  0  0  0  0  0
  188.0110  177.7540  137.7210 C   0  0  1  0  0  3  0  0  0  0  0  0
  190.1750  176.8260  138.4710 C   0  0  0  0  0  2  0  0  0  0  0  0
  190.7290  176.3400  139.7230 N   0  0  0  0  0  2  0  0  0  0  0  0
  191.1570  177.5030  140.4820 C   0  0  0  0  0  2  0  0  0  0  0  0
  189.3760  177.8750  142.2350 C   0  0  0  0  0  0  0  0  0  0  0  0
  190.6700  177.3980  141.8480 N   0  0  0  0  0  2  0  0  0  0  0  0
  188.5770  178.3100  141.3590 O   0  0  0  0  0  0  0  0  0  0  0  0
  188.9670  177.8790  143.6100 N   0  0  0  0  0  2  0  0  0  0  0  0
  191.7660  176.0400  148.0940 F   0  0  0  0  0  0  0  0  0  0  0  0
  189.7110  177.4050  144.7410 C   0  0  0  0  0  0  0  0  0  0  0  0
  191.0970  176.4850  147.0020 C   0  0  0  0  0  0  0  0  0  0  0  0
  189.8250  177.0440  147.1430 C   0  0  0  0  0  3  0  0  0  0  0  0
  190.9890  176.8380  144.6090 C   0  0  0  0  0  3  0  0  0  0  0  0
  189.1350  177.5020  146.0160 C   0  0  0  0  0  3  0  0  0  0  0  0
  191.6820  176.3800  145.7350 C   0  0  0  0  0  3  0  0  0  0  0  0
  183.9660  179.2760  140.1140 C   0  0  0  0  0  2  0  0  0  0  0  0
  183.5100  178.3910  141.1330 O   0  0  0  0  0  0  0  0  0  0  0  0
  183.4280  179.0050  144.7970 C   0  0  0  0  0  3  0  0  0  0  0  0
  183.0020  178.9010  143.4710 C   0  0  0  0  0  3  0  0  0  0  0  0
  183.9010  178.4990  142.4700 C   0  0  0  0  0  0  0  0  0  0  0  0
  185.2260  178.2060  142.8130 C   0  0  0  0  0  3  0  0  0  0  0  0
  185.6510  178.3130  144.1410 C   0  0  0  0  0  3  0  0  0  0  0  0
  184.7510  178.7120  145.1330 C   0  0  0  0  0  3  0  0  0  0  0  0
  1  4  2  0  0  0  0
  2  3  2  0  0  0  0
  2  5  1  0  0  0  0
  3  4  1  0  0  0  0
  4 33  1  0  0  0  0
  5  1  1  0  0  0  0
  6  8  1  0  0  0  0
  7  6  1  6  0  0  0
  7  9  1  0  0  0  0
  8 10  1  0  0  0  0
 10  3  1  0  0  0  0
 10  9  2  0  0  0  0
 11 15  2  0  0  0  0
 12 11  1  0  0  0  0
 13 12  1  0  0  0  0
 13 14  1  0  0  0  0
 14  7  1  0  0  0  0
 14 15  1  0  0  0  0
 16 19  1  6  0  0  0
 17 16  1  0  0  0  0
 18 17  1  6  0  0  0
 18  5  1  0  0  0  0
 18 16  1  0  0  0  0
 19 20  1  0  0  0  0
 20 21  1  0  0  0  0
 21 23  1  0  0  0  0
 22 25  1  0  0  0  0
 23 22  1  0  0  0  0
 24 22  2  0  0  0  0
 25 27  1  0  0  0  0
 27 31  1  0  0  0  0
 28 29  1  0  0  0  0
 28 26  1  0  0  0  0
 30 27  2  0  0  0  0
 30 32  1  0  0  0  0
 31 29  2  0  0  0  0
 32 28  2  0  0  0  0
 33 34  1  0  0  0  0
 34 37  1  0  0  0  0
 35 40  1  0  0  0  0
 36 35  2  0  0  0  0
 37 38  2  0  0  0  0
 37 36  1  0  0  0  0
 38 39  1  0  0  0  0
 39 40  2  0  0  0  0
M  END
>  <MODEL>
8

>  <REMARK>
 VINA RESULT:      -8.3      3.161      5.301
  Name = 
  11 active torsions:
  status: ('A' for Active; 'I' for Inactive)
    1  A    between atoms: C_7  and  N_19
    2  A    between atoms: C_8  and  N_38
    3  A    between atoms: N_15  and  C_23
    4  A    between atoms: O_16  and  C_28
    5  A    between atoms: O_16  and  C_39
    6  A    between atoms: C_17  and  C_29
    7  A    between atoms: C_18  and  C_30
    8  A    between atoms: C_23  and  N_32
    9  A    between atoms: C_24  and  C_39
   10  A    between atoms: C_29  and  N_32
   11  A    between atoms: N_31  and  C_35
                            x       y       z     vdW  Elec       q    Type
                         _______ _______ _______ _____ _____    ______ ____

>  <TORSDO>
F 11

$$$$
=
 OpenBabel11062413073D

 40 45  0  0  1  0  0  0  0  0999 V2000
  187.4640  178.5010  139.8310 N   0  0  0  0  0  0  0  0  0  0  0  0
  189.4050  177.6620  140.4450 C   0  0  0  0  0  3  0  0  0  0  0  0
  188.7390  178.0420  141.5960 C   0  0  0  0  0  0  0  0  0  0  0  0
  187.5320  178.5720  141.1720 C   0  0  0  0  0  0  0  0  0  0  0  0
  188.6030  177.9680  139.4070 N   0  0  0  0  0  0  0  0  0  0  0  0
  190.4940  178.1900  144.8350 C   0  0  0  0  0  2  0  0  0  0  0  0
  189.4760  177.0640  145.0420 C   0  0  2  0  0  3  0  0  0  0  0  0
  190.2340  178.6320  143.5150 O   0  0  0  0  0  0  0  0  0  0  0  0
  188.7670  176.9670  143.7730 N   0  0  0  0  0  0  0  0  0  0  0  0
  189.2280  177.8620  142.9700 C   0  0  0  0  0  0  0  0  0  0  0  0
  187.8880  177.9980  148.1230 C   0  0  0  0  0  3  0  0  0  0  0  0
  186.8110  178.2530  147.1210 C   0  0  0  0  0  2  0  0  0  0  0  0
  187.2780  177.8070  145.8610 O   0  0  0  0  0  0  0  0  0  0  0  0
  188.5500  177.4060  146.1150 N   0  0  0  0  0  0  0  0  0  0  0  0
  188.9060  177.5030  147.4780 C   0  0  0  0  0  3  0  0  0  0  0  0
  187.8030  178.0880  137.0760 C   0  0  2  0  0  3  0  0  0  0  0  0
  189.0190  178.9810  137.2270 C   0  0  0  0  0  2  0  0  0  0  0  0
  188.9340  177.6820  138.0130 C   0  0  1  0  0  3  0  0  0  0  0  0
  187.9220  177.2880  135.7930 C   0  0  0  0  0  2  0  0  0  0  0  0
  186.7590  176.4290  135.6450 N   0  0  0  0  0  2  0  0  0  0  0  0
  187.2390  175.1310  135.2030 C   0  0  0  0  0  2  0  0  0  0  0  0
  188.8810  173.8720  136.6530 C   0  0  0  0  0  0  0  0  0  0  0  0
  188.5830  174.9110  135.7120 N   0  0  0  0  0  2  0  0  0  0  0  0
  187.9850  173.0460  136.9830 O   0  0  0  0  0  0  0  0  0  0  0  0
  190.1840  173.7540  137.2400 N   0  0  0  0  0  2  0  0  0  0  0  0
  194.6760  176.8880  136.0930 F   0  0  0  0  0  0  0  0  0  0  0  0
  191.3350  174.5690  136.9760 C   0  0  0  0  0  0  0  0  0  0  0  0
  193.5890  176.1330  136.3810 C   0  0  0  0  0  0  0  0  0  0  0  0
  193.1780  175.1340  135.4940 C   0  0  0  0  0  3  0  0  0  0  0  0
  191.7530  175.5780  137.8600 C   0  0  0  0  0  3  0  0  0  0  0  0
  192.0550  174.3560  135.7930 C   0  0  0  0  0  3  0  0  0  0  0  0
  192.8780  176.3570  137.5640 C   0  0  0  0  0  3  0  0  0  0  0  0
  186.4110  179.0530  142.0330 C   0  0  0  0  0  2  0  0  0  0  0  0
  185.1660  178.5870  141.5230 O   0  0  0  0  0  0  0  0  0  0  0  0
  181.5370  178.7450  142.3070 C   0  0  0  0  0  3  0  0  0  0  0  0
  182.7210  178.6270  141.5750 C   0  0  0  0  0  3  0  0  0  0  0  0
  183.9640  178.6940  142.2250 C   0  0  0  0  0  0  0  0  0  0  0  0
  184.0050  178.8820  143.6110 C   0  0  0  0  0  3  0  0  0  0  0  0
  182.8190  179.0020  144.3430 C   0  0  0  0  0  3  0  0  0  0  0  0
  181.5850  178.9330  143.6890 C   0  0  0  0  0  3  0  0  0  0  0  0
  1  4  2  0  0  0  0
  2  3  2  0  0  0  0
  3 10  1  0  0  0  0
  4  3  1  0  0  0  0
  4 33  1  0  0  0  0
  5  1  1  0  0  0  0
  5  2  1  0  0  0  0
  7  6  1  6  0  0  0
  7 14  1  0  0  0  0
  8  6  1  0  0  0  0
  9  7  1  0  0  0  0
 10  8  1  0  0  0  0
 10  9  2  0  0  0  0
 12 11  1  0  0  0  0
 13 14  1  0  0  0  0
 13 12  1  0  0  0  0
 14 15  1  0  0  0  0
 15 11  2  0  0  0  0
 16 19  1  6  0  0  0
 16 17  1  0  0  0  0
 16 18  1  0  0  0  0
 18 17  1  6  0  0  0
 18  5  1  0  0  0  0
 20 19  1  0  0  0  0
 21 20  1  0  0  0  0
 21 23  1  0  0  0  0
 22 24  2  0  0  0  0
 22 25  1  0  0  0  0
 23 22  1  0  0  0  0
 26 28  1  0  0  0  0
 27 25  1  0  0  0  0
 27 30  1  0  0  0  0
 28 32  1  0  0  0  0
 29 31  1  0  0  0  0
 29 28  2  0  0  0  0
 31 27  2  0  0  0  0
 32 30  2  0  0  0  0
 34 33  1  0  0  0  0
 34 37  1  0  0  0  0
 35 40  1  0  0  0  0
 36 37  1  0  0  0  0
 36 35  2  0  0  0  0
 37 38  2  0  0  0  0
 38 39  1  0  0  0  0
 40 39  2  0  0  0  0
M  END
>  <MODEL>
9

>  <REMARK>
 VINA RESULT:      -8.3      4.000      7.953
  Name = 
  11 active torsions:
  status: ('A' for Active; 'I' for Inactive)
    1  A    between atoms: C_7  and  N_19
    2  A    between atoms: C_8  and  N_38
    3  A    between atoms: N_15  and  C_23
    4  A    between atoms: O_16  and  C_28
    5  A    between atoms: O_16  and  C_39
    6  A    between atoms: C_17  and  C_29
    7  A    between atoms: C_18  and  C_30
    8  A    between atoms: C_23  and  N_32
    9  A    between atoms: C_24  and  C_39
   10  A    between atoms: C_29  and  N_32
   11  A    between atoms: N_31  and  C_35
                            x       y       z     vdW  Elec       q    Type
                         _______ _______ _______ _____ _____    ______ ____

>  <TORSDO>
F 11

$$$$
