=
 OpenBabel11062415213D

 70 78  0  0  1  0  0  0  0  0999 V2000
  186.4900  178.1090  137.9340 C   0  0  0  0  0  3  0  0  0  0  0  0
  184.4980  173.2600  136.8960 O   0  0  0  0  0  0  0  0  0  0  0  0
  185.0410  172.3050  134.8330 O   0  0  0  0  0  1  0  0  0  0  0  0
  183.9740  178.8490  141.8780 C   0  0  0  0  0  2  0  0  0  0  0  0
  182.5880  176.8830  138.9370 N   0  0  0  0  0  0  0  0  0  0  0  0
  185.9100  174.4800  135.3340 C   0  0  0  0  0  2  0  0  0  0  0  0
  183.2920  177.6440  141.1990 C   0  0  0  0  0  2  0  0  0  0  0  0
  183.6770  174.8150  139.0200 O   0  0  0  0  0  0  0  0  0  0  0  0
  185.3760  179.3310  139.7730 C   0  0  2  0  0  3  0  0  0  0  0  0
  183.2920  173.1630  136.3540 O   0  0  0  0  0  0  0  0  0  0  0  0
  183.6540  177.5200  139.7110 C   0  0  2  0  0  3  0  0  0  0  0  0
  187.0880  176.5370  136.2030 C   0  0  0  0  0  2  0  0  0  0  0  0
  186.4900  178.6110  139.2380 O   0  0  0  0  0  0  0  0  0  0  0  0
  182.8040  175.5360  138.4610 C   0  0  0  0  0  0  0  0  0  0  0  0
  186.0250  175.4880  136.4620 C   0  0  0  0  0  2  0  0  0  0  0  0
  185.3690  179.1310  141.3020 C   0  0  0  0  0  2  0  0  0  0  0  0
  186.7020  172.4510  136.5030 C   0  0  0  0  0  1  0  0  0  0  0  0
  185.4860  173.1130  135.8850 C   0  0  1  0  0  0  0  0  0  0  0  0
  182.8300  174.4780  136.1630 C   0  0  2  0  0  3  0  0  0  0  0  0
  181.9810  174.9440  137.3510 C   0  0  0  0  0  2  0  0  0  0  0  0
  184.0560  178.8740  139.1270 C   0  0  0  0  0  2  0  0  0  0  0  0
  187.3700  177.2000  137.5140 C   0  0  0  0  0  0  0  0  0  0  0  0
  178.9330  177.5360  138.2770 O   0  0  0  0  0  0  0  0  0  0  0  0
  180.2050  175.4540  138.0500 C   0  0  0  0  0  1  0  0  0  0  0  0
  178.9310  179.2470  136.5750 C   0  0  0  0  0  2  0  0  0  0  0  0
  180.3060  179.9110  136.5930 C   0  0  0  0  0  2  0  0  0  0  0  0
  180.6560  180.5510  137.9400 C   0  0  2  0  0  3  0  0  0  0  0  0
  180.2210  179.7710  139.0220 O   0  0  0  0  0  0  0  0  0  0  0  0
  179.0540  177.7620  136.8910 C   0  0  0  0  0  2  0  0  0  0  0  0
  181.3240  179.0060  139.4390 C   0  0  2  0  0  3  0  0  0  0  0  0
  181.3590  177.6560  138.6890 C   0  0  2  0  0  3  0  0  0  0  0  0
  180.0630  176.8170  138.7390 C   0  0  1  0  0  3  0  0  0  0  0  0
  181.3750  178.8380  140.9670 C   0  0  0  0  0  3  0  0  0  0  0  0
  180.3390  179.7080  141.6540 C   0  0  0  0  0  2  0  0  0  0  0  0
  180.1150  178.2120  141.5400 C   0  0  0  0  0  2  0  0  0  0  0  0
  179.5140  182.2670  139.4070 C   0  0  0  0  0  1  0  0  0  0  0  0
  180.1140  181.9800  138.0340 C   0  0  1  0  0  3  0  0  0  0  0  0
  181.2220  182.9720  137.7100 C   0  0  0  0  0  2  0  0  0  0  0  0
  180.6420  184.3230  137.3370 C   0  0  0  0  0  2  0  0  0  0  0  0
  181.5250  184.9890  136.4900 O   0  0  0  0  0  1  0  0  0  0  0  0
  189.0440  175.4810  137.8840 N   0  0  0  0  0  2  0  0  0  0  0  0
  188.4660  176.6920  138.4240 C   0  0  1  0  0  3  0  0  0  0  0  0
  189.6120  177.6530  138.5370 C   0  0  2  0  0  3  0  0  0  0  0  0
  190.4270  175.5290  138.1390 N   0  0  0  0  0  2  0  0  0  0  0  0
  190.8150  176.8730  138.3300 N   0  0  0  0  0  2  0  0  0  0  0  0
  189.6450  178.3140  139.9030 C   0  0  0  0  0  2  0  0  0  0  0  0
  188.5350  177.7480  140.7690 C   0  0  0  0  0  2  0  0  0  0  0  0
  188.3220  178.5790  141.8690 O   0  0  0  0  0  0  0  0  0  0  0  0
  189.5050  178.4970  142.6060 C   0  0  0  0  0  2  0  0  0  0  0  0
  189.4430  177.2990  143.5400 C   0  0  2  0  0  3  0  0  0  0  0  0
  185.4750  178.6780  145.5880 C   0  0  0  0  0  2  0  0  0  0  0  0
  186.0980  178.0260  146.8080 C   0  0  2  0  0  3  0  0  0  0  0  0
  187.4970  178.6040  147.0780 C   0  0  0  0  0  2  0  0  0  0  0  0
  188.3050  178.2090  145.9870 O   0  0  0  0  0  0  0  0  0  0  0  0
  187.5680  177.5170  145.0530 C   0  0  0  0  0  0  0  0  0  0  0  0
  188.0580  177.0770  143.9350 N   0  0  0  0  0  0  0  0  0  0  0  0
  186.1570  177.3320  145.4460 C   0  0  2  0  0  3  0  0  0  0  0  0
  191.3740  176.5500  144.8050 C   0  0  2  0  0  3  0  0  0  0  0  0
  191.6670  177.9380  144.4120 N   0  0  0  0  0  2  0  0  0  0  0  0
  190.2980  177.5450  144.7800 C   0  0  1  0  0  3  0  0  0  0  0  0
  191.8000  176.3130  146.1800 N   0  0  0  0  0  0  0  0  0  0  0  0
  192.6240  175.3330  146.5970 C   0  0  0  0  0  3  0  0  0  0  0  0
  191.3530  176.9820  147.2540 C   0  0  0  0  0  3  0  0  0  0  0  0
  191.9180  176.4360  148.3910 C   0  0  0  0  0  3  0  0  0  0  0  0
  192.7270  175.3900  147.9730 C   0  0  0  0  0  3  0  0  0  0  0  0
  182.0540  174.5250  134.8420 C   0  0  2  0  0  3  0  0  0  0  0  0
  181.4020  175.8720  134.5940 C   0  0  0  0  0  1  0  0  0  0  0  0
  179.6770  173.6520  134.6130 N   0  0  0  0  0  1  0  0  0  0  0  0
  181.4990  172.2140  134.6210 O   0  0  0  0  0  0  0  0  0  0  0  0
  181.0770  173.3990  134.6790 C   0  0  0  0  0  0  0  0  0  0  0  0
  1 13  1  0  0  0  0
  3 18  1  0  0  0  0
  5 11  1  0  0  0  0
  6 18  1  0  0  0  0
  6 15  1  0  0  0  0
  7  4  1  0  0  0  0
  9 21  1  6  0  0  0
  9 16  1  0  0  0  0
 10  2  1  0  0  0  0
 11 21  1  6  0  0  0
 11  7  1  0  0  0  0
 12 15  1  0  0  0  0
 12 22  1  0  0  0  0
 13  9  1  0  0  0  0
 14  5  1  0  0  0  0
 14  8  2  0  0  0  0
 16  4  1  0  0  0  0
 18 17  1  1  0  0  0
 18  2  1  0  0  0  0
 19 66  1  6  0  0  0
 19 10  1  0  0  0  0
 19 20  1  0  0  0  0
 20 14  1  0  0  0  0
 22  1  2  0  0  0  0
 23 32  1  0  0  0  0
 25 26  1  0  0  0  0
 25 29  1  0  0  0  0
 26 27  1  0  0  0  0
 27 37  1  6  0  0  0
 27 28  1  0  0  0  0
 28 30  1  0  0  0  0
 29 23  1  0  0  0  0
 30 33  1  1  0  0  0
 31 32  1  0  0  0  0
 31  5  1  1  0  0  0
 31 30  1  0  0  0  0
 32 24  1  6  0  0  0
 33 35  1  0  0  0  0
 33 34  1  0  0  0  0
 35 34  1  0  0  0  0
 37 36  1  1  0  0  0
 38 37  1  0  0  0  0
 39 38  1  0  0  0  0
 40 39  1  0  0  0  0
 41 44  1  0  0  0  0
 41 42  1  0  0  0  0
 42 22  1  6  0  0  0
 42 43  1  0  0  0  0
 43 46  1  1  0  0  0
 44 45  1  0  0  0  0
 45 43  1  0  0  0  0
 46 47  1  0  0  0  0
 47 48  1  0  0  0  0
 48 49  1  0  0  0  0
 50 49  1  6  0  0  0
 50 56  1  0  0  0  0
 52 51  1  6  0  0  0
 52 53  1  0  0  0  0
 54 53  1  0  0  0  0
 55 57  1  0  0  0  0
 55 54  1  0  0  0  0
 56 55  2  0  0  0  0
 57 51  1  6  0  0  0
 57 52  1  0  0  0  0
 58 61  1  1  0  0  0
 59 60  1  0  0  0  0
 59 58  1  0  0  0  0
 60 50  1  6  0  0  0
 60 58  1  0  0  0  0
 61 62  1  0  0  0  0
 61 63  1  0  0  0  0
 62 65  2  0  0  0  0
 63 64  2  0  0  0  0
 65 64  1  0  0  0  0
 66 67  1  1  0  0  0
 68 70  1  0  0  0  0
 69 70  2  0  0  0  0
 70 66  1  0  0  0  0
M  END
>  <MODEL>
1

>  <REMARK>
 VINA RESULT:      -7.9      0.000      0.000
  Name = 
  16 active torsions:
  status: ('A' for Active; 'I' for Inactive)
    1  A    between atoms: C_9  and  N_49
    2  A    between atoms: C_9  and  C_61
    3  A    between atoms: C_9  and  C_70
    4  A    between atoms: C_10  and  C_57
    5  A    between atoms: C_11  and  C_66
    6  A    between atoms: N_12  and  C_55
    7  A    between atoms: C_17  and  C_51
    8  A    between atoms: C_18  and  N_24
    9  A    between atoms: C_20  and  C_26
   10  A    between atoms: C_26  and  C_44
   11  A    between atoms: C_27  and  C_54
   12  A    between atoms: C_27  and  C_56
   13  A    between atoms: C_33  and  C_63
   14  A    between atoms: O_38  and  C_44
   15  A    between atoms: O_38  and  C_61
   16  A    between atoms: C_57  and  C_63
                            x       y       z     vdW  Elec       q    Type
                         _______ _______ _______ _____ _____    ______ ____

>  <TORSDO>
F 16

$$$$
=
 OpenBabel11062415213D

 70 78  0  0  1  0  0  0  0  0999 V2000
  186.1020  177.4030  137.7280 C   0  0  0  0  0  3  0  0  0  0  0  0
  182.0190  173.9590  137.5610 O   0  0  0  0  0  0  0  0  0  0  0  0
  181.2830  173.2800  135.4480 O   0  0  0  0  0  1  0  0  0  0  0  0
  185.8300  178.2750  142.3750 C   0  0  0  0  0  2  0  0  0  0  0  0
  182.7470  177.5760  140.2670 N   0  0  0  0  0  0  0  0  0  0  0  0
  183.1080  174.8280  135.5660 C   0  0  0  0  0  2  0  0  0  0  0  0
  184.5030  177.5700  142.0310 C   0  0  0  0  0  2  0  0  0  0  0  0
  182.8020  175.2750  139.8540 O   0  0  0  0  0  0  0  0  0  0  0  0
  186.3950  178.5810  139.8820 C   0  0  2  0  0  3  0  0  0  0  0  0
  180.7800  174.4300  137.5780 O   0  0  0  0  0  0  0  0  0  0  0  0
  184.1870  177.6030  140.5280 C   0  0  2  0  0  3  0  0  0  0  0  0
  185.2770  176.0820  135.8850 C   0  0  0  0  0  2  0  0  0  0  0  0
  186.8060  177.6100  138.9160 O   0  0  0  0  0  0  0  0  0  0  0  0
  182.1760  176.3640  139.7260 C   0  0  0  0  0  0  0  0  0  0  0  0
  184.0550  175.4840  136.5530 C   0  0  0  0  0  2  0  0  0  0  0  0
  186.8820  178.1130  141.2680 C   0  0  0  0  0  2  0  0  0  0  0  0
  183.3450  172.4680  136.2630 C   0  0  0  0  0  1  0  0  0  0  0  0
  182.3890  173.6450  136.2250 C   0  0  1  0  0  0  0  0  0  0  0  0
  180.8830  175.8320  137.6180 C   0  0  2  0  0  3  0  0  0  0  0  0
  180.8290  176.3500  139.0600 C   0  0  0  0  0  2  0  0  0  0  0  0
  184.8710  178.7890  139.8470 C   0  0  0  0  0  2  0  0  0  0  0  0
  186.2840  176.3260  136.9630 C   0  0  0  0  0  0  0  0  0  0  0  0
  181.2330  180.3380  142.3400 O   0  0  0  0  0  0  0  0  0  0  0  0
  182.1890  178.2000  143.0610 C   0  0  0  0  0  1  0  0  0  0  0  0
  178.9760  180.5370  141.5110 C   0  0  0  0  0  2  0  0  0  0  0  0
  178.9370  179.8850  140.1310 C   0  0  0  0  0  2  0  0  0  0  0  0
  179.8940  180.5320  139.1240 C   0  0  2  0  0  3  0  0  0  0  0  0
  181.1150  180.8900  139.7160 O   0  0  0  0  0  0  0  0  0  0  0  0
  179.9380  179.7890  142.4250 C   0  0  0  0  0  2  0  0  0  0  0  0
  182.0170  179.8460  139.4470 C   0  0  2  0  0  3  0  0  0  0  0  0
  181.9680  178.7880  140.5720 C   0  0  2  0  0  3  0  0  0  0  0  0
  182.1580  179.3180  142.0110 C   0  0  1  0  0  3  0  0  0  0  0  0
  183.4410  180.3590  139.1750 C   0  0  0  0  0  3  0  0  0  0  0  0
  183.8490  180.1200  137.7340 C   0  0  0  0  0  2  0  0  0  0  0  0
  183.4790  181.5180  138.1940 C   0  0  0  0  0  2  0  0  0  0  0  0
  180.0770  182.9970  138.5850 C   0  0  0  0  0  1  0  0  0  0  0  0
  179.2430  181.7300  138.4280 C   0  0  1  0  0  3  0  0  0  0  0  0
  179.0180  181.4090  136.9570 C   0  0  0  0  0  2  0  0  0  0  0  0
  180.2840  181.6470  136.1560 C   0  0  0  0  0  2  0  0  0  0  0  0
  180.0180  182.5480  135.1270 O   0  0  0  0  0  1  0  0  0  0  0  0
  186.8100  173.9570  137.0220 N   0  0  0  0  0  2  0  0  0  0  0  0
  187.3160  175.2790  137.3180 C   0  0  1  0  0  3  0  0  0  0  0  0
  188.5690  175.4060  136.5050 C   0  0  2  0  0  3  0  0  0  0  0  0
  187.8850  173.2010  136.5200 N   0  0  0  0  0  2  0  0  0  0  0  0
  188.8690  174.0780  136.0120 N   0  0  0  0  0  2  0  0  0  0  0  0
  189.7220  175.9250  137.3450 C   0  0  0  0  0  2  0  0  0  0  0  0
  190.4440  177.0270  136.5920 C   0  0  0  0  0  2  0  0  0  0  0  0
  191.1450  176.4830  135.5150 O   0  0  0  0  0  0  0  0  0  0  0  0
  192.0720  175.6180  136.1000 C   0  0  0  0  0  2  0  0  0  0  0  0
  193.3050  175.5190  135.2170 C   0  0  2  0  0  3  0  0  0  0  0  0
  192.5250  170.9110  135.2860 C   0  0  0  0  0  2  0  0  0  0  0  0
  193.9400  170.8690  135.8310 C   0  0  2  0  0  3  0  0  0  0  0  0
  194.0770  171.7760  137.0640 C   0  0  0  0  0  2  0  0  0  0  0  0
  193.8900  173.1000  136.6030 O   0  0  0  0  0  0  0  0  0  0  0  0
  193.5960  173.1170  135.2580 C   0  0  0  0  0  0  0  0  0  0  0  0
  193.3380  174.2020  134.5940 N   0  0  0  0  0  0  0  0  0  0  0  0
  193.5940  171.7740  134.6470 C   0  0  2  0  0  3  0  0  0  0  0  0
  195.7230  175.7100  135.1380 C   0  0  2  0  0  3  0  0  0  0  0  0
  195.2390  176.9890  135.6830 N   0  0  0  0  0  2  0  0  0  0  0  0
  194.5710  175.7280  136.0440 C   0  0  1  0  0  3  0  0  0  0  0  0
  196.9140  175.2720  135.8570 N   0  0  0  0  0  0  0  0  0  0  0  0
  198.1560  175.1680  135.3470 C   0  0  0  0  0  3  0  0  0  0  0  0
  196.9310  174.8130  137.1180 C   0  0  0  0  0  3  0  0  0  0  0  0
  198.2180  174.4220  137.4380 C   0  0  0  0  0  3  0  0  0  0  0  0
  198.9960  174.6500  136.3130 C   0  0  0  0  0  3  0  0  0  0  0  0
  179.7650  176.4200  136.7480 C   0  0  2  0  0  3  0  0  0  0  0  0
  179.1970  175.4130  135.7660 C   0  0  0  0  0  1  0  0  0  0  0  0
  181.4930  178.1660  136.0900 N   0  0  0  0  0  1  0  0  0  0  0  0
  179.2600  178.3860  135.4930 O   0  0  0  0  0  0  0  0  0  0  0  0
  180.1460  177.7020  136.0690 C   0  0  0  0  0  0  0  0  0  0  0  0
  1 13  1  0  0  0  0
  2 10  1  0  0  0  0
  3 18  1  0  0  0  0
  5 11  1  0  0  0  0
  6 18  1  0  0  0  0
  6 15  1  0  0  0  0
  7  4  1  0  0  0  0
  9 21  1  1  0  0  0
  9 16  1  0  0  0  0
 10 19  1  0  0  0  0
 11 21  1  1  0  0  0
 11  7  1  0  0  0  0
 12 15  1  0  0  0  0
 12 22  1  0  0  0  0
 13  9  1  0  0  0  0
 14  8  2  0  0  0  0
 14  5  1  0  0  0  0
 16  4  1  0  0  0  0
 18 17  1  1  0  0  0
 18  2  1  0  0  0  0
 19 66  1  6  0  0  0
 19 20  1  0  0  0  0
 20 14  1  0  0  0  0
 22  1  2  0  0  0  0
 23 29  1  0  0  0  0
 25 29  1  0  0  0  0
 26 25  1  0  0  0  0
 27 37  1  1  0  0  0
 27 28  1  0  0  0  0
 27 26  1  0  0  0  0
 30 33  1  1  0  0  0
 30 28  1  0  0  0  0
 30 31  1  0  0  0  0
 31  5  1  6  0  0  0
 31 32  1  0  0  0  0
 32 23  1  0  0  0  0
 32 24  1  1  0  0  0
 34 35  1  0  0  0  0
 34 33  1  0  0  0  0
 35 33  1  0  0  0  0
 37 36  1  6  0  0  0
 38 37  1  0  0  0  0
 39 38  1  0  0  0  0
 40 39  1  0  0  0  0
 41 42  1  0  0  0  0
 42 22  1  6  0  0  0
 43 42  1  0  0  0  0
 43 46  1  1  0  0  0
 44 41  1  0  0  0  0
 45 43  1  0  0  0  0
 45 44  1  0  0  0  0
 47 46  1  0  0  0  0
 48 49  1  0  0  0  0
 48 47  1  0  0  0  0
 50 49  1  1  0  0  0
 52 51  1  1  0  0  0
 52 53  1  0  0  0  0
 54 53  1  0  0  0  0
 55 54  1  0  0  0  0
 56 50  1  0  0  0  0
 56 55  2  0  0  0  0
 57 55  1  0  0  0  0
 57 51  1  1  0  0  0
 57 52  1  0  0  0  0
 58 59  1  0  0  0  0
 58 61  1  1  0  0  0
 58 60  1  0  0  0  0
 59 60  1  0  0  0  0
 60 50  1  6  0  0  0
 61 63  1  0  0  0  0
 62 61  1  0  0  0  0
 62 65  2  0  0  0  0
 63 64  2  0  0  0  0
 65 64  1  0  0  0  0
 66 67  1  6  0  0  0
 69 70  2  0  0  0  0
 70 68  1  0  0  0  0
 70 66  1  0  0  0  0
M  END
>  <MODEL>
2

>  <REMARK>
 VINA RESULT:      -5.2      3.991      6.665
  Name = 
  16 active torsions:
  status: ('A' for Active; 'I' for Inactive)
    1  A    between atoms: C_9  and  N_49
    2  A    between atoms: C_9  and  C_61
    3  A    between atoms: C_9  and  C_70
    4  A    between atoms: C_10  and  C_57
    5  A    between atoms: C_11  and  C_66
    6  A    between atoms: N_12  and  C_55
    7  A    between atoms: C_17  and  C_51
    8  A    between atoms: C_18  and  N_24
    9  A    between atoms: C_20  and  C_26
   10  A    between atoms: C_26  and  C_44
   11  A    between atoms: C_27  and  C_54
   12  A    between atoms: C_27  and  C_56
   13  A    between atoms: C_33  and  C_63
   14  A    between atoms: O_38  and  C_44
   15  A    between atoms: O_38  and  C_61
   16  A    between atoms: C_57  and  C_63
                            x       y       z     vdW  Elec       q    Type
                         _______ _______ _______ _____ _____    ______ ____

>  <TORSDO>
F 16

$$$$
=
 OpenBabel11062415213D

 70 78  0  0  1  0  0  0  0  0999 V2000
  184.4220  177.1520  141.4190 C   0  0  0  0  0  3  0  0  0  0  0  0
  181.5580  178.2280  137.0380 O   0  0  0  0  0  0  0  0  0  0  0  0
  179.3820  177.3780  136.9520 O   0  0  0  0  0  1  0  0  0  0  0  0
  188.5320  178.8120  139.7490 C   0  0  0  0  0  2  0  0  0  0  0  0
  185.9740  177.1230  137.5040 N   0  0  0  0  0  0  0  0  0  0  0  0
  180.7010  176.9130  138.8970 C   0  0  0  0  0  2  0  0  0  0  0  0
  187.6250  178.6910  138.5080 C   0  0  0  0  0  2  0  0  0  0  0  0
  184.2680  178.7000  137.2340 O   0  0  0  0  0  0  0  0  0  0  0  0
  186.8630  177.4780  141.1850 C   0  0  2  0  0  3  0  0  0  0  0  0
  181.6590  177.4220  135.9900 O   0  0  0  0  0  0  0  0  0  0  0  0
  186.4240  177.7640  138.7410 C   0  0  2  0  0  3  0  0  0  0  0  0
  182.0540  176.9050  141.0290 C   0  0  0  0  0  2  0  0  0  0  0  0
  185.5870  177.8710  141.6990 O   0  0  0  0  0  0  0  0  0  0  0  0
  184.7280  177.5650  136.9220 C   0  0  0  0  0  0  0  0  0  0  0  0
  182.0190  177.2700  139.5590 C   0  0  0  0  0  2  0  0  0  0  0  0
  187.7380  178.7410  141.0620 C   0  0  0  0  0  2  0  0  0  0  0  0
  179.8550  179.1810  138.4000 C   0  0  0  0  0  1  0  0  0  0  0  0
  180.3850  177.9070  137.7730 C   0  0  1  0  0  0  0  0  0  0  0  0
  182.5550  176.4000  136.3530 C   0  0  2  0  0  3  0  0  0  0  0  0
  183.9850  176.7360  135.9130 C   0  0  0  0  0  2  0  0  0  0  0  0
  186.7190  176.7430  139.8410 C   0  0  0  0  0  2  0  0  0  0  0  0
  183.2030  177.6470  141.6320 C   0  0  0  0  0  0  0  0  0  0  0  0
  186.8670  173.7930  135.9770 O   0  0  0  0  0  0  0  0  0  0  0  0
  184.8310  174.4610  137.1660 C   0  0  0  0  0  1  0  0  0  0  0  0
  188.8830  173.1310  137.1250 C   0  0  0  0  0  2  0  0  0  0  0  0
  189.4840  174.3870  137.7540 C   0  0  0  0  0  2  0  0  0  0  0  0
  189.8300  175.4740  136.7310 C   0  0  2  0  0  3  0  0  0  0  0  0
  188.8630  175.5690  135.7190 O   0  0  0  0  0  0  0  0  0  0  0  0
  187.3620  173.1990  137.1550 C   0  0  0  0  0  2  0  0  0  0  0  0
  187.9940  176.6120  136.0850 C   0  0  2  0  0  3  0  0  0  0  0  0
  186.8210  176.0650  136.9290 C   0  0  2  0  0  3  0  0  0  0  0  0
  186.0330  174.8870  136.3130 C   0  0  1  0  0  3  0  0  0  0  0  0
  187.5220  177.4330  134.8730 C   0  0  0  0  0  3  0  0  0  0  0  0
  187.0610  178.8160  135.2880 C   0  0  0  0  0  2  0  0  0  0  0  0
  188.3990  178.6410  134.5940 C   0  0  0  0  0  2  0  0  0  0  0  0
  191.1870  175.1100  134.6270 C   0  0  0  0  0  1  0  0  0  0  0  0
  191.2280  175.2620  136.1440 C   0  0  1  0  0  3  0  0  0  0  0  0
  192.1350  176.4150  136.5490 C   0  0  0  0  0  2  0  0  0  0  0  0
  193.0890  175.9880  137.6490 C   0  0  0  0  0  2  0  0  0  0  0  0
  193.7390  177.1090  138.1590 O   0  0  0  0  0  1  0  0  0  0  0  0
  181.7150  179.5480  141.8870 N   0  0  0  0  0  2  0  0  0  0  0  0
  183.0110  179.0160  142.2460 C   0  0  1  0  0  3  0  0  0  0  0  0
  183.0150  178.9810  143.7450 C   0  0  2  0  0  3  0  0  0  0  0  0
  181.2190  180.2330  143.0130 N   0  0  0  0  0  2  0  0  0  0  0  0
  181.8590  179.7420  144.1710 N   0  0  0  0  0  2  0  0  0  0  0  0
  184.2830  179.5970  144.3080 C   0  0  0  0  0  2  0  0  0  0  0  0
  184.8060  178.7340  145.4430 C   0  0  0  0  0  2  0  0  0  0  0  0
  185.9450  178.0450  145.0260 O   0  0  0  0  0  0  0  0  0  0  0  0
  186.6730  177.8270  146.1980 C   0  0  0  0  0  2  0  0  0  0  0  0
  188.1590  177.8180  145.8800 C   0  0  2  0  0  3  0  0  0  0  0  0
  190.8890  175.5910  142.8090 C   0  0  0  0  0  2  0  0  0  0  0  0
  191.1110  176.9930  142.2740 C   0  0  2  0  0  3  0  0  0  0  0  0
  191.5940  177.9320  143.3900 C   0  0  0  0  0  2  0  0  0  0  0  0
  190.5210  178.0440  144.3050 O   0  0  0  0  0  0  0  0  0  0  0  0
  189.4650  177.2470  143.9250 C   0  0  0  0  0  0  0  0  0  0  0  0
  188.3700  177.1320  144.6120 N   0  0  0  0  0  0  0  0  0  0  0  0
  189.7060  176.5260  142.6600 C   0  0  2  0  0  3  0  0  0  0  0  0
  190.1530  177.8740  147.2640 C   0  0  2  0  0  3  0  0  0  0  0  0
  189.0160  177.9360  148.1970 N   0  0  0  0  0  2  0  0  0  0  0  0
  188.9360  177.1060  146.9850 C   0  0  1  0  0  3  0  0  0  0  0  0
  191.1890  176.9910  147.7860 N   0  0  0  0  0  0  0  0  0  0  0  0
  192.0440  177.2770  148.7870 C   0  0  0  0  0  3  0  0  0  0  0  0
  191.5110  175.7910  147.2790 C   0  0  0  0  0  3  0  0  0  0  0  0
  192.5860  175.2790  147.9820 C   0  0  0  0  0  3  0  0  0  0  0  0
  192.9220  176.2220  148.9410 C   0  0  0  0  0  3  0  0  0  0  0  0
  182.0540  175.0860  135.7450 C   0  0  2  0  0  3  0  0  0  0  0  0
  181.0900  175.3030  134.5940 C   0  0  0  0  0  1  0  0  0  0  0  0
  180.5140  173.1680  136.3910 N   0  0  0  0  0  1  0  0  0  0  0  0
  181.8960  174.1900  137.9520 O   0  0  0  0  0  0  0  0  0  0  0  0
  181.5000  174.1290  136.7580 C   0  0  0  0  0  0  0  0  0  0  0  0
  1 22  2  0  0  0  0
  1 13  1  0  0  0  0
  2 18  1  0  0  0  0
  3 18  1  0  0  0  0
  4 16  1  0  0  0  0
  5 11  1  0  0  0  0
  6 15  1  0  0  0  0
  7  4  1  0  0  0  0
  9 21  1  6  0  0  0
  9 13  1  0  0  0  0
 10 19  1  0  0  0  0
 10  2  1  0  0  0  0
 11  7  1  6  0  0  0
 11 21  1  0  0  0  0
 12 22  1  0  0  0  0
 14  8  2  0  0  0  0
 14  5  1  0  0  0  0
 15 12  1  0  0  0  0
 16  9  1  0  0  0  0
 18 17  1  1  0  0  0
 18  6  1  0  0  0  0
 19 66  1  6  0  0  0
 20 19  1  0  0  0  0
 20 14  1  0  0  0  0
 23 32  1  0  0  0  0
 23 29  1  0  0  0  0
 25 29  1  0  0  0  0
 25 26  1  0  0  0  0
 27 37  1  6  0  0  0
 27 26  1  0  0  0  0
 28 30  1  0  0  0  0
 28 27  1  0  0  0  0
 30 33  1  6  0  0  0
 30 31  1  0  0  0  0
 31  5  1  6  0  0  0
 32 31  1  0  0  0  0
 32 24  1  1  0  0  0
 33 34  1  0  0  0  0
 35 33  1  0  0  0  0
 35 34  1  0  0  0  0
 37 36  1  6  0  0  0
 37 38  1  0  0  0  0
 38 39  1  0  0  0  0
 39 40  1  0  0  0  0
 41 42  1  0  0  0  0
 41 44  1  0  0  0  0
 42 22  1  6  0  0  0
 42 43  1  0  0  0  0
 43 45  1  0  0  0  0
 43 46  1  1  0  0  0
 44 45  1  0  0  0  0
 46 47  1  0  0  0  0
 48 47  1  0  0  0  0
 48 49  1  0  0  0  0
 50 49  1  1  0  0  0
 52 57  1  0  0  0  0
 52 51  1  1  0  0  0
 52 53  1  0  0  0  0
 53 54  1  0  0  0  0
 55 54  1  0  0  0  0
 55 56  2  0  0  0  0
 56 50  1  0  0  0  0
 57 51  1  1  0  0  0
 57 55  1  0  0  0  0
 58 61  1  1  0  0  0
 58 59  1  0  0  0  0
 60 50  1  6  0  0  0
 60 58  1  0  0  0  0
 60 59  1  0  0  0  0
 61 62  1  0  0  0  0
 62 65  2  0  0  0  0
 63 61  1  0  0  0  0
 63 64  2  0  0  0  0
 64 65  1  0  0  0  0
 66 67  1  6  0  0  0
 66 70  1  0  0  0  0
 68 70  1  0  0  0  0
 70 69  2  0  0  0  0
M  END
>  <MODEL>
3

>  <REMARK>
 VINA RESULT:      -5.1      2.497      7.063
  Name = 
  16 active torsions:
  status: ('A' for Active; 'I' for Inactive)
    1  A    between atoms: C_9  and  N_49
    2  A    between atoms: C_9  and  C_61
    3  A    between atoms: C_9  and  C_70
    4  A    between atoms: C_10  and  C_57
    5  A    between atoms: C_11  and  C_66
    6  A    between atoms: N_12  and  C_55
    7  A    between atoms: C_17  and  C_51
    8  A    between atoms: C_18  and  N_24
    9  A    between atoms: C_20  and  C_26
   10  A    between atoms: C_26  and  C_44
   11  A    between atoms: C_27  and  C_54
   12  A    between atoms: C_27  and  C_56
   13  A    between atoms: C_33  and  C_63
   14  A    between atoms: O_38  and  C_44
   15  A    between atoms: O_38  and  C_61
   16  A    between atoms: C_57  and  C_63
                            x       y       z     vdW  Elec       q    Type
                         _______ _______ _______ _____ _____    ______ ____

>  <TORSDO>
F 16

$$$$
