=
 OpenBabel11062415443D

 27 30  0  0  1  0  0  0  0  0999 V2000
  184.8670  178.3370  144.0270 C   0  0  1  0  0  3  0  0  0  0  0  0
  183.8630  179.0420  146.0680 O   0  0  0  0  0  1  0  0  0  0  0  0
  183.6910  178.7230  144.8640 C   0  0  0  0  0  0  0  0  0  0  0  0
  182.4130  178.7610  144.3170 O   0  0  0  0  0  0  0  0  0  0  0  0
  185.0340  179.2780  142.8360 C   0  0  0  0  0  2  0  0  0  0  0  0
  183.3840  178.6120  141.0580 C   0  0  1  0  0  3  0  0  0  0  0  0
  185.8490  179.0900  140.4740 C   0  0  2  0  0  3  0  0  0  0  0  0
  184.5030  178.1760  138.8500 C   0  0  0  0  0  2  0  0  0  0  0  0
  184.8500  178.5430  141.5160 C   0  0  1  0  0  3  0  0  0  0  0  0
  183.1700  178.3320  139.5670 C   0  0  1  0  0  3  0  0  0  0  0  0
  185.3230  179.2720  139.1720 O   0  0  0  0  0  0  0  0  0  0  0  0
  182.9730  177.2310  140.5850 C   0  0  0  0  0  2  0  0  0  0  0  0
  187.9170  178.6270  139.3720 O   0  0  0  0  0  1  0  0  0  0  0  0
  187.1130  178.2450  140.4460 C   0  0  0  0  0  2  0  0  0  0  0  0
  186.1440  178.2070  144.8610 C   0  0  0  0  0  2  0  0  0  0  0  0
  187.3560  177.8200  144.0220 C   0  0  0  0  0  2  0  0  0  0  0  0
  188.2990  177.3100  146.1710 N   0  0  0  0  0  0  0  0  0  0  0  0
  190.2170  176.6140  141.8660 C   0  0  0  0  0  3  0  0  0  0  0  0
  188.4040  177.1880  144.8820 C   0  0  0  0  0  0  0  0  0  0  0  0
  191.7050  177.6650  143.4940 C   0  0  0  0  0  2  0  0  0  0  0  0
  191.2820  177.2920  145.8380 C   0  0  0  0  0  3  0  0  0  0  0  0
  189.2450  176.8640  147.1580 C   0  0  0  0  0  3  0  0  0  0  0  0
  191.4010  177.4130  142.2210 C   0  0  0  0  0  3  0  0  0  0  0  0
  190.5380  176.8690  146.9930 N   0  0  0  0  0  0  0  0  0  0  0  0
  189.3810  176.1570  142.8010 C   0  0  0  0  0  3  0  0  0  0  0  0
  189.5650  176.4490  144.2740 C   0  0  0  0  0  0  0  0  0  0  0  0
  190.8560  177.1610  144.5830 C   0  0  0  0  0  0  0  0  0  0  0  0
  1  5  1  6  0  0  0
  1 15  1  0  0  0  0
  1  3  1  0  0  0  0
  3  2  1  0  0  0  0
  4  3  2  0  0  0  0
  6 12  1  1  0  0  0
  6  9  1  0  0  0  0
  7 14  1  6  0  0  0
  7  9  1  0  0  0  0
  8 11  1  0  0  0  0
  9  5  1  1  0  0  0
 10  8  1  6  0  0  0
 10 12  1  0  0  0  0
 10  6  1  0  0  0  0
 11  7  1  0  0  0  0
 13 14  1  0  0  0  0
 16 15  1  0  0  0  0
 16 19  1  0  0  0  0
 17 22  1  0  0  0  0
 18 23  2  0  0  0  0
 18 25  1  0  0  0  0
 19 17  2  0  0  0  0
 20 27  1  0  0  0  0
 21 24  1  0  0  0  0
 23 20  1  0  0  0  0
 24 22  2  0  0  0  0
 25 26  2  0  0  0  0
 26 27  1  0  0  0  0
 26 19  1  0  0  0  0
 27 21  2  0  0  0  0
M  END
>  <MODEL>
1

>  <REMARK>
 VINA RESULT:      -8.2      0.000      0.000
  Name = 
  7 active torsions:
  status: ('A' for Active; 'I' for Inactive)
    1  A    between atoms: C_3  and  C_20
    2  A    between atoms: C_7  and  C_18
    3  A    between atoms: C_12  and  C_24
    4  A    between atoms: C_13  and  C_16
    5  A    between atoms: C_16  and  C_24
    6  A    between atoms: C_18  and  C_27
    7  A    between atoms: C_24  and  C_27
                            x       y       z     vdW  Elec       q    Type
                         _______ _______ _______ _____ _____    ______ ____

>  <TORSDO>
F 7

$$$$
=
 OpenBabel11062415443D

 27 30  0  0  1  0  0  0  0  0999 V2000
  185.8500  178.5470  145.1230 C   0  0  1  0  0  3  0  0  0  0  0  0
  184.3670  178.2240  146.9580 O   0  0  0  0  0  0  0  0  0  0  0  0
  185.3560  178.8510  146.5000 C   0  0  0  0  0  0  0  0  0  0  0  0
  185.9950  179.8000  147.2900 O   0  0  0  0  0  1  0  0  0  0  0  0
  186.7250  177.2950  145.1120 C   0  0  0  0  0  2  0  0  0  0  0  0
  188.4200  177.0210  146.9500 C   0  0  1  0  0  3  0  0  0  0  0  0
  189.1440  177.1270  144.4770 C   0  0  2  0  0  3  0  0  0  0  0  0
  190.7770  177.2050  146.0940 C   0  0  0  0  0  2  0  0  0  0  0  0
  188.1480  177.6070  145.5540 C   0  0  1  0  0  3  0  0  0  0  0  0
  189.9050  176.8600  147.2930 C   0  0  1  0  0  3  0  0  0  0  0  0
  190.3100  176.4950  144.9730 O   0  0  0  0  0  0  0  0  0  0  0  0
  189.1400  178.0740  147.7700 C   0  0  0  0  0  2  0  0  0  0  0  0
  190.4190  177.8180  142.5800 O   0  0  0  0  0  1  0  0  0  0  0  0
  189.4920  178.2600  143.5240 C   0  0  0  0  0  2  0  0  0  0  0  0
  184.7070  178.4780  144.1070 C   0  0  0  0  0  2  0  0  0  0  0  0
  184.8520  179.5040  142.9900 C   0  0  0  0  0  2  0  0  0  0  0  0
  186.5930  178.8060  141.4900 N   0  0  0  0  0  0  0  0  0  0  0  0
  181.8820  178.7370  140.7810 C   0  0  0  0  0  3  0  0  0  0  0  0
  185.3180  178.8420  141.7320 C   0  0  0  0  0  0  0  0  0  0  0  0
  183.1830  179.6800  138.9400 C   0  0  0  0  0  3  0  0  0  0  0  0
  185.4880  179.0100  138.7070 C   0  0  0  0  0  3  0  0  0  0  0  0
  187.2310  178.3060  140.3020 C   0  0  0  0  0  3  0  0  0  0  0  0
  182.0140  179.5610  139.5680 C   0  0  0  0  0  3  0  0  0  0  0  0
  186.7330  178.4100  139.1010 N   0  0  0  0  0  0  0  0  0  0  0  0
  182.9380  178.1230  141.3220 C   0  0  0  0  0  3  0  0  0  0  0  0
  184.3350  178.2520  140.7570 C   0  0  0  0  0  0  0  0  0  0  0  0
  184.3830  179.0010  139.4510 C   0  0  2  0  0  3  0  0  0  0  0  0
  1 15  1  6  0  0  0
  1  3  1  0  0  0  0
  3  2  2  0  0  0  0
  3  4  1  0  0  0  0
  5  1  1  0  0  0  0
  6 10  1  0  0  0  0
  6 12  1  1  0  0  0
  7 14  1  1  0  0  0
  7 11  1  0  0  0  0
  7  9  1  0  0  0  0
  9  5  1  6  0  0  0
  9  6  1  0  0  0  0
 10  8  1  6  0  0  0
 10 12  1  0  0  0  0
 11  8  1  0  0  0  0
 13 14  1  0  0  0  0
 16 15  1  0  0  0  0
 17 19  1  0  0  0  0
 18 25  2  0  0  0  0
 19 16  1  0  0  0  0
 20 27  1  0  0  0  0
 20 23  2  0  0  0  0
 21 24  2  0  0  0  0
 22 17  2  0  0  0  0
 23 18  1  0  0  0  0
 24 22  1  0  0  0  0
 26 25  1  0  0  0  0
 26 19  2  0  0  0  0
 27 21  1  6  0  0  0
 27 26  1  0  0  0  0
M  END
>  <MODEL>
2

>  <REMARK>
 VINA RESULT:      -8.1      2.604      6.860
  Name = 
  7 active torsions:
  status: ('A' for Active; 'I' for Inactive)
    1  A    between atoms: C_3  and  C_20
    2  A    between atoms: C_7  and  C_18
    3  A    between atoms: C_12  and  C_24
    4  A    between atoms: C_13  and  C_16
    5  A    between atoms: C_16  and  C_24
    6  A    between atoms: C_18  and  C_27
    7  A    between atoms: C_24  and  C_27
                            x       y       z     vdW  Elec       q    Type
                         _______ _______ _______ _____ _____    ______ ____

>  <TORSDO>
F 7

$$$$
=
 OpenBabel11062415443D

 27 30  0  0  1  0  0  0  0  0999 V2000
  185.8160  178.7120  145.0990 C   0  0  1  0  0  3  0  0  0  0  0  0
  184.4940  178.4110  147.0580 O   0  0  0  0  0  0  0  0  0  0  0  0
  185.6490  178.5230  146.5720 C   0  0  0  0  0  0  0  0  0  0  0  0
  186.7580  178.4400  147.4070 O   0  0  0  0  0  1  0  0  0  0  0  0
  186.4230  177.4730  144.4460 C   0  0  0  0  0  2  0  0  0  0  0  0
  188.8670  177.0520  144.8680 C   0  0  1  0  0  3  0  0  0  0  0  0
  187.9600  177.3320  142.4710 C   0  0  2  0  0  3  0  0  0  0  0  0
  190.2390  177.2800  142.7730 C   0  0  0  0  0  2  0  0  0  0  0  0
  187.8400  177.7410  143.9550 C   0  0  1  0  0  3  0  0  0  0  0  0
  190.2490  176.8550  144.2340 C   0  0  1  0  0  3  0  0  0  0  0  0
  189.1560  176.6570  142.1260 O   0  0  0  0  0  0  0  0  0  0  0  0
  189.9880  178.0360  145.1420 C   0  0  0  0  0  2  0  0  0  0  0  0
  187.9270  178.1660  140.2340 O   0  0  0  0  0  1  0  0  0  0  0  0
  187.7200  178.5300  141.5640 C   0  0  0  0  0  2  0  0  0  0  0  0
  184.5130  179.1540  144.4290 C   0  0  0  0  0  2  0  0  0  0  0  0
  184.2730  178.4560  143.0960 C   0  0  0  0  0  2  0  0  0  0  0  0
  181.9480  178.9720  143.4100 N   0  0  0  0  0  0  0  0  0  0  0  0
  184.2500  178.0840  139.3340 C   0  0  0  0  0  3  0  0  0  0  0  0
  182.9190  178.8020  142.5630 C   0  0  0  0  0  0  0  0  0  0  0  0
  182.1410  176.8810  139.6030 C   0  0  0  0  0  2  0  0  0  0  0  0
  180.4690  177.8180  141.0670 C   0  0  0  0  0  3  0  0  0  0  0  0
  180.5660  179.2120  143.0980 C   0  0  0  0  0  3  0  0  0  0  0  0
  183.3280  176.9840  139.0070 C   0  0  0  0  0  3  0  0  0  0  0  0
  179.9420  178.6960  142.0760 N   0  0  0  0  0  0  0  0  0  0  0  0
  183.9520  178.9860  140.2730 C   0  0  0  0  0  3  0  0  0  0  0  0
  182.6760  178.9280  141.0840 C   0  0  0  0  0  0  0  0  0  0  0  0
  181.7220  177.8600  140.6180 C   0  0  0  0  0  0  0  0  0  0  0  0
  1 15  1  6  0  0  0
  1  3  1  0  0  0  0
  3  2  2  0  0  0  0
  3  4  1  0  0  0  0
  5  1  1  0  0  0  0
  6 12  1  1  0  0  0
  7 14  1  6  0  0  0
  7  9  1  0  0  0  0
  9  5  1  1  0  0  0
  9  6  1  0  0  0  0
 10  8  1  6  0  0  0
 10  6  1  0  0  0  0
 10 12  1  0  0  0  0
 11  7  1  0  0  0  0
 11  8  1  0  0  0  0
 13 14  1  0  0  0  0
 16 15  1  0  0  0  0
 18 25  1  0  0  0  0
 19 16  1  0  0  0  0
 19 17  2  0  0  0  0
 20 27  1  0  0  0  0
 21 24  1  0  0  0  0
 22 17  1  0  0  0  0
 23 18  2  0  0  0  0
 23 20  1  0  0  0  0
 24 22  2  0  0  0  0
 25 26  2  0  0  0  0
 26 19  1  0  0  0  0
 27 21  2  0  0  0  0
 27 26  1  0  0  0  0
M  END
>  <MODEL>
3

>  <REMARK>
 VINA RESULT:      -7.8      2.794      6.838
  Name = 
  7 active torsions:
  status: ('A' for Active; 'I' for Inactive)
    1  A    between atoms: C_3  and  C_20
    2  A    between atoms: C_7  and  C_18
    3  A    between atoms: C_12  and  C_24
    4  A    between atoms: C_13  and  C_16
    5  A    between atoms: C_16  and  C_24
    6  A    between atoms: C_18  and  C_27
    7  A    between atoms: C_24  and  C_27
                            x       y       z     vdW  Elec       q    Type
                         _______ _______ _______ _____ _____    ______ ____

>  <TORSDO>
F 7

$$$$
=
 OpenBabel11062415443D

 27 30  0  0  1  0  0  0  0  0999 V2000
  186.1000  178.7000  144.9820 C   0  0  1  0  0  3  0  0  0  0  0  0
  184.0890  178.6420  146.2570 O   0  0  0  0  0  0  0  0  0  0  0  0
  185.3070  178.9520  146.2230 C   0  0  0  0  0  0  0  0  0  0  0  0
  185.9090  179.5000  147.3510 O   0  0  0  0  0  1  0  0  0  0  0  0
  186.4110  177.2140  144.8160 C   0  0  0  0  0  2  0  0  0  0  0  0
  188.3600  177.1400  143.2280 C   0  0  1  0  0  3  0  0  0  0  0  0
  188.6690  177.8790  145.6780 C   0  0  2  0  0  3  0  0  0  0  0  0
  190.5490  177.5300  144.4020 C   0  0  0  0  0  2  0  0  0  0  0  0
  187.9090  176.9710  144.6880 C   0  0  1  0  0  3  0  0  0  0  0  0
  189.8640  177.3810  143.0510 C   0  0  1  0  0  3  0  0  0  0  0  0
  189.8460  178.4770  145.1670 O   0  0  0  0  0  0  0  0  0  0  0  0
  189.2900  175.9920  142.8870 C   0  0  0  0  0  2  0  0  0  0  0  0
  188.8380  178.0200  148.0560 O   0  0  0  0  0  1  0  0  0  0  0  0
  188.9450  177.1400  146.9800 C   0  0  0  0  0  2  0  0  0  0  0  0
  185.4330  179.3050  143.7450 C   0  0  0  0  0  2  0  0  0  0  0  0
  184.8090  178.2500  142.8400 C   0  0  0  0  0  2  0  0  0  0  0  0
  182.5100  178.7910  143.2820 N   0  0  0  0  0  0  0  0  0  0  0  0
  184.6640  178.2870  139.0620 C   0  0  0  0  0  3  0  0  0  0  0  0
  183.4500  178.6880  142.3910 C   0  0  0  0  0  0  0  0  0  0  0  0
  182.5280  177.1180  139.2700 C   0  0  0  0  0  2  0  0  0  0  0  0
  180.9290  177.9360  140.8790 C   0  0  0  0  0  3  0  0  0  0  0  0
  181.1270  179.1000  143.0430 C   0  0  0  0  0  3  0  0  0  0  0  0
  183.7000  177.2530  138.6500 C   0  0  0  0  0  3  0  0  0  0  0  0
  180.4580  178.7140  141.9920 N   0  0  0  0  0  0  0  0  0  0  0  0
  184.4200  179.0900  140.1010 C   0  0  0  0  0  3  0  0  0  0  0  0
  183.1680  178.9790  140.9420 C   0  0  0  0  0  0  0  0  0  0  0  0
  182.1690  177.9930  140.3970 C   0  0  0  0  0  0  0  0  0  0  0  0
  1 15  1  6  0  0  0
  1  3  1  0  0  0  0
  3  2  2  0  0  0  0
  3  4  1  0  0  0  0
  5  1  1  0  0  0  0
  6 12  1  6  0  0  0
  6  9  1  0  0  0  0
  7 14  1  1  0  0  0
  8 11  1  0  0  0  0
  9  5  1  6  0  0  0
  9  7  1  0  0  0  0
 10 12  1  1  0  0  0
 10  6  1  0  0  0  0
 10  8  1  0  0  0  0
 11  7  1  0  0  0  0
 14 13  1  0  0  0  0
 16 15  1  0  0  0  0
 18 25  1  0  0  0  0
 19 16  1  0  0  0  0
 19 17  2  0  0  0  0
 20 27  1  0  0  0  0
 21 24  1  0  0  0  0
 22 17  1  0  0  0  0
 23 18  2  0  0  0  0
 23 20  1  0  0  0  0
 24 22  2  0  0  0  0
 25 26  2  0  0  0  0
 26 19  1  0  0  0  0
 27 21  2  0  0  0  0
 27 26  1  0  0  0  0
M  END
>  <MODEL>
4

>  <REMARK>
 VINA RESULT:      -7.8      3.098      7.017
  Name = 
  7 active torsions:
  status: ('A' for Active; 'I' for Inactive)
    1  A    between atoms: C_3  and  C_20
    2  A    between atoms: C_7  and  C_18
    3  A    between atoms: C_12  and  C_24
    4  A    between atoms: C_13  and  C_16
    5  A    between atoms: C_16  and  C_24
    6  A    between atoms: C_18  and  C_27
    7  A    between atoms: C_24  and  C_27
                            x       y       z     vdW  Elec       q    Type
                         _______ _______ _______ _____ _____    ______ ____

>  <TORSDO>
F 7

$$$$
=
 OpenBabel11062415443D

 27 30  0  0  1  0  0  0  0  0999 V2000
  190.5680  176.9090  144.1890 C   0  0  1  0  0  3  0  0  0  0  0  0
  192.1470  175.1880  144.6580 O   0  0  0  0  0  0  0  0  0  0  0  0
  191.6070  176.2570  145.0430 C   0  0  0  0  0  0  0  0  0  0  0  0
  192.0040  176.8340  146.2440 O   0  0  0  0  0  1  0  0  0  0  0  0
  189.9260  178.0940  144.9060 C   0  0  0  0  0  2  0  0  0  0  0  0
  188.8250  178.0860  147.1670 C   0  0  1  0  0  3  0  0  0  0  0  0
  187.4240  178.2120  145.0060 C   0  0  2  0  0  3  0  0  0  0  0  0
  186.3250  177.8810  146.9980 C   0  0  0  0  0  2  0  0  0  0  0  0
  188.6950  177.6670  145.6940 C   0  0  1  0  0  3  0  0  0  0  0  0
  187.4980  178.1370  147.9330 C   0  0  1  0  0  3  0  0  0  0  0  0
  186.4390  178.7290  145.8820 O   0  0  0  0  0  0  0  0  0  0  0  0
  188.3880  176.9190  148.0290 C   0  0  0  0  0  2  0  0  0  0  0  0
  185.8640  177.7600  143.2560 O   0  0  0  0  0  1  0  0  0  0  0  0
  186.8360  177.1720  144.0650 C   0  0  0  0  0  2  0  0  0  0  0  0
  191.1130  177.2780  142.8070 C   0  0  0  0  0  2  0  0  0  0  0  0
  190.5420  176.4010  141.6990 C   0  0  0  0  0  2  0  0  0  0  0  0
  188.6730  177.8070  141.1520 N   0  0  0  0  0  0  0  0  0  0  0  0
  191.8960  175.9040  138.2040 C   0  0  0  0  0  3  0  0  0  0  0  0
  189.7580  177.2310  140.7310 C   0  0  0  0  0  0  0  0  0  0  0  0
  189.5740  175.6450  137.4900 C   0  0  0  0  0  3  0  0  0  0  0  0
  187.9450  177.2300  138.2980 C   0  0  0  0  0  3  0  0  0  0  0  0
  187.7360  178.5600  140.3620 C   0  0  0  0  0  3  0  0  0  0  0  0
  190.8430  175.2440  137.4160 C   0  0  0  0  0  3  0  0  0  0  0  0
  187.4320  178.2880  139.1240 N   0  0  0  0  0  0  0  0  0  0  0  0
  191.6110  176.8910  139.0580 C   0  0  0  0  0  3  0  0  0  0  0  0
  190.1990  177.3770  139.3000 C   0  0  0  0  0  0  0  0  0  0  0  0
  189.1870  176.7530  138.3760 C   0  0  2  0  0  3  0  0  0  0  0  0
  1 15  1  6  0  0  0
  1  5  1  0  0  0  0
  1  3  1  0  0  0  0
  2  3  2  0  0  0  0
  3  4  1  0  0  0  0
  6 10  1  0  0  0  0
  6 12  1  1  0  0  0
  7 14  1  1  0  0  0
  7  9  1  0  0  0  0
  7 11  1  0  0  0  0
  9  5  1  6  0  0  0
  9  6  1  0  0  0  0
 10  8  1  6  0  0  0
 10 12  1  0  0  0  0
 11  8  1  0  0  0  0
 13 14  1  0  0  0  0
 16 15  1  0  0  0  0
 18 25  2  0  0  0  0
 19 17  1  0  0  0  0
 19 16  1  0  0  0  0
 21 27  1  0  0  0  0
 21 24  2  0  0  0  0
 22 17  2  0  0  0  0
 23 20  2  0  0  0  0
 23 18  1  0  0  0  0
 24 22  1  0  0  0  0
 25 26  1  0  0  0  0
 26 19  2  0  0  0  0
 27 20  1  6  0  0  0
 27 26  1  0  0  0  0
M  END
>  <MODEL>
5

>  <REMARK>
 VINA RESULT:      -7.7      3.540      6.743
  Name = 
  7 active torsions:
  status: ('A' for Active; 'I' for Inactive)
    1  A    between atoms: C_3  and  C_20
    2  A    between atoms: C_7  and  C_18
    3  A    between atoms: C_12  and  C_24
    4  A    between atoms: C_13  and  C_16
    5  A    between atoms: C_16  and  C_24
    6  A    between atoms: C_18  and  C_27
    7  A    between atoms: C_24  and  C_27
                            x       y       z     vdW  Elec       q    Type
                         _______ _______ _______ _____ _____    ______ ____

>  <TORSDO>
F 7

$$$$
=
 OpenBabel11062415443D

 27 30  0  0  1  0  0  0  0  0999 V2000
  183.7990  178.7320  141.0180 C   0  0  1  0  0  3  0  0  0  0  0  0
  184.1900  180.2540  139.2280 O   0  0  0  0  0  0  0  0  0  0  0  0
  184.6120  179.2670  139.8840 C   0  0  0  0  0  0  0  0  0  0  0  0
  185.8420  178.7030  139.5650 O   0  0  0  0  0  1  0  0  0  0  0  0
  182.5780  177.9670  140.5120 C   0  0  0  0  0  2  0  0  0  0  0  0
  181.4680  178.9350  142.5520 C   0  0  1  0  0  3  0  0  0  0  0  0
  180.8090  179.7120  140.1840 C   0  0  2  0  0  3  0  0  0  0  0  0
  179.5210  180.4080  141.9550 C   0  0  0  0  0  2  0  0  0  0  0  0
  181.2870  178.5460  141.0750 C   0  0  1  0  0  3  0  0  0  0  0  0
  180.4280  179.9300  143.0790 C   0  0  1  0  0  3  0  0  0  0  0  0
  180.3170  180.8420  140.8810 O   0  0  0  0  0  0  0  0  0  0  0  0
  180.2550  178.4470  143.3190 C   0  0  0  0  0  2  0  0  0  0  0  0
  179.3380  177.9580  139.5050 O   0  0  0  0  0  1  0  0  0  0  0  0
  179.8070  179.2220  139.1490 C   0  0  0  0  0  2  0  0  0  0  0  0
  184.6480  177.9110  141.9920 C   0  0  0  0  0  2  0  0  0  0  0  0
  185.5850  178.7770  142.8260 C   0  0  0  0  0  2  0  0  0  0  0  0
  184.7760  178.7610  145.0880 N   0  0  0  0  0  0  0  0  0  0  0  0
  188.7010  176.7010  143.3420 C   0  0  0  0  0  3  0  0  0  0  0  0
  185.6330  178.2830  144.2370 C   0  0  0  0  0  0  0  0  0  0  0  0
  189.0380  177.9680  145.4030 C   0  0  0  0  0  3  0  0  0  0  0  0
  187.1490  178.2980  146.8650 C   0  0  0  0  0  3  0  0  0  0  0  0
  184.7190  178.4890  146.4990 C   0  0  0  0  0  3  0  0  0  0  0  0
  189.5530  177.4200  144.3030 C   0  0  0  0  0  3  0  0  0  0  0  0
  185.7650  178.2950  147.2530 N   0  0  0  0  0  0  0  0  0  0  0  0
  187.3790  176.6170  143.5110 C   0  0  0  0  0  3  0  0  0  0  0  0
  186.6620  177.2740  144.6700 C   0  0  1  0  0  3  0  0  0  0  0  0
  187.5970  177.8830  145.6810 C   0  0  0  0  0  0  0  0  0  0  0  0
  1  5  1  6  0  0  0
  1 15  1  0  0  0  0
  2  3  2  0  0  0  0
  3  1  1  0  0  0  0
  4  3  1  0  0  0  0
  6 10  1  0  0  0  0
  6 12  1  1  0  0  0
  7 14  1  6  0  0  0
  7 11  1  0  0  0  0
  7  9  1  0  0  0  0
  9  5  1  6  0  0  0
  9  6  1  0  0  0  0
 10  8  1  6  0  0  0
 10 12  1  0  0  0  0
 11  8  1  0  0  0  0
 14 13  1  0  0  0  0
 15 16  1  0  0  0  0
 16 19  1  0  0  0  0
 17 22  1  0  0  0  0
 18 25  2  0  0  0  0
 18 23  1  0  0  0  0
 19 26  1  0  0  0  0
 19 17  2  0  0  0  0
 20 27  1  0  0  0  0
 21 24  1  0  0  0  0
 22 24  2  0  0  0  0
 23 20  2  0  0  0  0
 26 25  1  6  0  0  0
 26 27  1  0  0  0  0
 27 21  2  0  0  0  0
M  END
>  <MODEL>
6

>  <REMARK>
 VINA RESULT:      -7.6      2.588      4.609
  Name = 
  7 active torsions:
  status: ('A' for Active; 'I' for Inactive)
    1  A    between atoms: C_3  and  C_20
    2  A    between atoms: C_7  and  C_18
    3  A    between atoms: C_12  and  C_24
    4  A    between atoms: C_13  and  C_16
    5  A    between atoms: C_16  and  C_24
    6  A    between atoms: C_18  and  C_27
    7  A    between atoms: C_24  and  C_27
                            x       y       z     vdW  Elec       q    Type
                         _______ _______ _______ _____ _____    ______ ____

>  <TORSDO>
F 7

$$$$
=
 OpenBabel11062415443D

 27 30  0  0  1  0  0  0  0  0999 V2000
  189.8090  177.2290  142.3090 C   0  0  1  0  0  3  0  0  0  0  0  0
  191.9990  178.0410  142.7750 O   0  0  0  0  0  0  0  0  0  0  0  0
  190.7790  178.0640  143.0800 C   0  0  0  0  0  0  0  0  0  0  0  0
  190.3430  178.8870  144.1120 O   0  0  0  0  0  1  0  0  0  0  0  0
  190.4830  176.5580  141.1140 C   0  0  0  0  0  2  0  0  0  0  0  0
  189.0940  178.2320  139.8530 C   0  0  1  0  0  3  0  0  0  0  0  0
  190.6580  176.6000  138.6140 C   0  0  2  0  0  3  0  0  0  0  0  0
  189.1940  177.8610  137.3680 C   0  0  0  0  0  2  0  0  0  0  0  0
  189.7250  176.8310  139.8220 C   0  0  1  0  0  3  0  0  0  0  0  0
  188.7210  178.7920  138.4750 C   0  0  1  0  0  3  0  0  0  0  0  0
  190.5510  177.5580  137.5780 O   0  0  0  0  0  0  0  0  0  0  0  0
  187.6730  178.1200  139.3350 C   0  0  0  0  0  2  0  0  0  0  0  0
  191.7450  174.5580  138.0180 O   0  0  0  0  0  1  0  0  0  0  0  0
  190.5010  175.1850  138.0770 C   0  0  0  0  0  2  0  0  0  0  0  0
  189.0710  176.2330  143.2070 C   0  0  0  0  0  2  0  0  0  0  0  0
  187.5660  176.4710  143.2320 C   0  0  0  0  0  2  0  0  0  0  0  0
  187.6500  177.2430  145.5060 N   0  0  0  0  0  0  0  0  0  0  0  0
  184.9830  178.9010  141.9220 C   0  0  0  0  0  3  0  0  0  0  0  0
  187.2130  177.4570  144.3010 C   0  0  0  0  0  0  0  0  0  0  0  0
  183.7750  178.5310  144.0140 C   0  0  0  0  0  3  0  0  0  0  0  0
  185.0230  178.5750  146.0780 C   0  0  0  0  0  3  0  0  0  0  0  0
  187.3450  178.0120  146.6810 C   0  0  0  0  0  3  0  0  0  0  0  0
  183.7460  178.6820  142.6900 C   0  0  0  0  0  3  0  0  0  0  0  0
  186.1940  178.5790  146.9110 N   0  0  0  0  0  0  0  0  0  0  0  0
  186.1790  178.9040  142.5170 C   0  0  0  0  0  3  0  0  0  0  0  0
  186.3550  178.6550  143.9980 C   0  0  1  0  0  3  0  0  0  0  0  0
  185.0510  178.5640  144.7460 C   0  0  0  0  0  0  0  0  0  0  0  0
  1  5  1  6  0  0  0
  1  3  1  0  0  0  0
  1 15  1  0  0  0  0
  2  3  2  0  0  0  0
  3  4  1  0  0  0  0
  6 12  1  1  0  0  0
  7 14  1  6  0  0  0
  7  9  1  0  0  0  0
  8 11  1  0  0  0  0
  9  6  1  0  0  0  0
  9  5  1  1  0  0  0
 10  8  1  6  0  0  0
 10 12  1  0  0  0  0
 10  6  1  0  0  0  0
 11  7  1  0  0  0  0
 13 14  1  0  0  0  0
 15 16  1  0  0  0  0
 16 19  1  0  0  0  0
 17 22  1  0  0  0  0
 18 25  2  0  0  0  0
 18 23  1  0  0  0  0
 19 17  2  0  0  0  0
 20 27  1  0  0  0  0
 21 24  1  0  0  0  0
 22 24  2  0  0  0  0
 23 20  2  0  0  0  0
 26 25  1  6  0  0  0
 26 19  1  0  0  0  0
 26 27  1  0  0  0  0
 27 21  2  0  0  0  0
M  END
>  <MODEL>
7

>  <REMARK>
 VINA RESULT:      -7.6      2.891      5.602
  Name = 
  7 active torsions:
  status: ('A' for Active; 'I' for Inactive)
    1  A    between atoms: C_3  and  C_20
    2  A    between atoms: C_7  and  C_18
    3  A    between atoms: C_12  and  C_24
    4  A    between atoms: C_13  and  C_16
    5  A    between atoms: C_16  and  C_24
    6  A    between atoms: C_18  and  C_27
    7  A    between atoms: C_24  and  C_27
                            x       y       z     vdW  Elec       q    Type
                         _______ _______ _______ _____ _____    ______ ____

>  <TORSDO>
F 7

$$$$
=
 OpenBabel11062415443D

 27 30  0  0  1  0  0  0  0  0999 V2000
  185.8980  178.3590  144.8670 C   0  0  1  0  0  3  0  0  0  0  0  0
  183.9130  179.1260  145.9360 O   0  0  0  0  0  0  0  0  0  0  0  0
  185.1680  179.0380  145.9790 C   0  0  0  0  0  0  0  0  0  0  0  0
  185.8560  179.5490  147.0730 O   0  0  0  0  0  1  0  0  0  0  0  0
  186.5280  177.0490  145.3360 C   0  0  0  0  0  2  0  0  0  0  0  0
  188.1610  177.1600  143.4260 C   0  0  1  0  0  3  0  0  0  0  0  0
  188.8180  177.9660  145.7850 C   0  0  2  0  0  3  0  0  0  0  0  0
  190.4680  177.8020  144.1920 C   0  0  0  0  0  2  0  0  0  0  0  0
  187.9970  176.9660  144.9420 C   0  0  1  0  0  3  0  0  0  0  0  0
  189.5740  177.5600  142.9850 C   0  0  1  0  0  3  0  0  0  0  0  0
  189.8130  178.6800  145.0740 O   0  0  0  0  0  0  0  0  0  0  0  0
  189.1340  176.1140  142.9200 C   0  0  0  0  0  2  0  0  0  0  0  0
  188.7610  177.7460  148.1630 O   0  0  0  0  0  1  0  0  0  0  0  0
  189.3990  177.2820  147.0130 C   0  0  0  0  0  2  0  0  0  0  0  0
  185.0160  178.1790  143.6290 C   0  0  0  0  0  2  0  0  0  0  0  0
  185.1970  179.3010  142.6130 C   0  0  0  0  0  2  0  0  0  0  0  0
  186.6540  178.7160  140.7950 N   0  0  0  0  0  0  0  0  0  0  0  0
  181.8910  178.6990  140.8810 C   0  0  0  0  0  3  0  0  0  0  0  0
  185.4370  178.7340  141.2490 C   0  0  0  0  0  0  0  0  0  0  0  0
  182.8770  179.7760  138.9220 C   0  0  0  0  0  3  0  0  0  0  0  0
  185.1030  179.1260  138.2590 C   0  0  0  0  0  3  0  0  0  0  0  0
  187.0780  178.3050  139.4840 C   0  0  0  0  0  3  0  0  0  0  0  0
  181.8280  179.6110  139.7270 C   0  0  0  0  0  3  0  0  0  0  0  0
  186.3890  178.4980  138.3950 N   0  0  0  0  0  0  0  0  0  0  0  0
  183.0140  178.0470  141.1920 C   0  0  0  0  0  3  0  0  0  0  0  0
  184.2990  178.2180  140.4120 C   0  0  0  0  0  0  0  0  0  0  0  0
  184.1380  179.0610  139.1750 C   0  0  2  0  0  3  0  0  0  0  0  0
  1 15  1  6  0  0  0
  1  5  1  0  0  0  0
  1  3  1  0  0  0  0
  2  3  2  0  0  0  0
  3  4  1  0  0  0  0
  6 12  1  6  0  0  0
  6  9  1  0  0  0  0
  7 14  1  1  0  0  0
  8 11  1  0  0  0  0
  9  5  1  6  0  0  0
  9  7  1  0  0  0  0
 10 12  1  6  0  0  0
 10  6  1  0  0  0  0
 10  8  1  0  0  0  0
 11  7  1  0  0  0  0
 14 13  1  0  0  0  0
 16 15  1  0  0  0  0
 17 19  1  0  0  0  0
 18 25  2  0  0  0  0
 19 16  1  0  0  0  0
 20 27  1  0  0  0  0
 20 23  2  0  0  0  0
 21 24  2  0  0  0  0
 22 17  2  0  0  0  0
 23 18  1  0  0  0  0
 24 22  1  0  0  0  0
 26 25  1  0  0  0  0
 26 19  2  0  0  0  0
 27 21  1  6  0  0  0
 27 26  1  0  0  0  0
M  END
>  <MODEL>
8

>  <REMARK>
 VINA RESULT:      -7.6      2.767      6.822
  Name = 
  7 active torsions:
  status: ('A' for Active; 'I' for Inactive)
    1  A    between atoms: C_3  and  C_20
    2  A    between atoms: C_7  and  C_18
    3  A    between atoms: C_12  and  C_24
    4  A    between atoms: C_13  and  C_16
    5  A    between atoms: C_16  and  C_24
    6  A    between atoms: C_18  and  C_27
    7  A    between atoms: C_24  and  C_27
                            x       y       z     vdW  Elec       q    Type
                         _______ _______ _______ _____ _____    ______ ____

>  <TORSDO>
F 7

$$$$
=
 OpenBabel11062415443D

 27 30  0  0  1  0  0  0  0  0999 V2000
  184.3920  178.5620  140.4350 C   0  0  1  0  0  3  0  0  0  0  0  0
  182.1420  178.5660  139.6530 O   0  0  0  0  0  0  0  0  0  0  0  0
  182.9130  178.5850  140.6470 C   0  0  0  0  0  0  0  0  0  0  0  0
  182.3800  178.5980  141.9310 O   0  0  0  0  0  1  0  0  0  0  0  0
  184.7560  179.0090  139.0210 C   0  0  0  0  0  2  0  0  0  0  0  0
  184.3260  177.4090  137.1280 C   0  0  1  0  0  3  0  0  0  0  0  0
  186.7060  178.2580  137.6370 C   0  0  2  0  0  3  0  0  0  0  0  0
  186.4600  176.5590  136.1080 C   0  0  0  0  0  2  0  0  0  0  0  0
  185.3280  177.8570  138.2050 C   0  0  1  0  0  3  0  0  0  0  0  0
  184.9450  176.6090  135.9760 C   0  0  1  0  0  3  0  0  0  0  0  0
  186.9450  177.8650  136.2980 O   0  0  0  0  0  0  0  0  0  0  0  0
  184.2780  175.8940  137.1300 C   0  0  0  0  0  2  0  0  0  0  0  0
  188.5730  178.8820  138.9890 O   0  0  0  0  0  1  0  0  0  0  0  0
  187.8230  177.7880  138.5580 C   0  0  0  0  0  2  0  0  0  0  0  0
  185.1360  179.3520  141.5140 C   0  0  0  0  0  2  0  0  0  0  0  0
  186.2090  178.5240  142.2120 C   0  0  0  0  0  2  0  0  0  0  0  0
  184.7380  178.7980  144.0910 N   0  0  0  0  0  0  0  0  0  0  0  0
  188.9110  176.5040  143.9180 C   0  0  0  0  0  3  0  0  0  0  0  0
  185.7940  178.2100  143.6140 C   0  0  0  0  0  0  0  0  0  0  0  0
  188.6510  178.0180  145.8180 C   0  0  0  0  0  3  0  0  0  0  0  0
  186.4190  178.5430  146.5650 C   0  0  0  0  0  3  0  0  0  0  0  0
  184.2340  178.7050  145.4350 C   0  0  0  0  0  3  0  0  0  0  0  0
  189.4550  177.3320  145.0070 C   0  0  0  0  0  3  0  0  0  0  0  0
  184.9840  178.5990  146.4960 N   0  0  0  0  0  0  0  0  0  0  0  0
  187.5990  176.4530  143.6720 C   0  0  0  0  0  3  0  0  0  0  0  0
  186.5890  177.2550  144.4630 C   0  0  1  0  0  3  0  0  0  0  0  0
  187.1920  177.9800  145.6380 C   0  0  0  0  0  0  0  0  0  0  0  0
  1  5  1  6  0  0  0
  1  3  1  0  0  0  0
  1 15  1  0  0  0  0
  2  3  2  0  0  0  0
  3  4  1  0  0  0  0
  6 12  1  1  0  0  0
  6  9  1  0  0  0  0
  7  9  1  0  0  0  0
  7 14  1  1  0  0  0
  8 11  1  0  0  0  0
  9  5  1  6  0  0  0
 10  8  1  1  0  0  0
 10  6  1  0  0  0  0
 10 12  1  0  0  0  0
 11  7  1  0  0  0  0
 14 13  1  0  0  0  0
 15 16  1  0  0  0  0
 16 19  1  0  0  0  0
 17 22  1  0  0  0  0
 18 23  1  0  0  0  0
 19 17  2  0  0  0  0
 19 26  1  0  0  0  0
 22 24  2  0  0  0  0
 23 20  2  0  0  0  0
 24 21  1  0  0  0  0
 25 18  2  0  0  0  0
 26 25  1  6  0  0  0
 26 27  1  0  0  0  0
 27 20  1  0  0  0  0
 27 21  2  0  0  0  0
M  END
>  <MODEL>
9

>  <REMARK>
 VINA RESULT:      -7.4      2.246      3.855
  Name = 
  7 active torsions:
  status: ('A' for Active; 'I' for Inactive)
    1  A    between atoms: C_3  and  C_20
    2  A    between atoms: C_7  and  C_18
    3  A    between atoms: C_12  and  C_24
    4  A    between atoms: C_13  and  C_16
    5  A    between atoms: C_16  and  C_24
    6  A    between atoms: C_18  and  C_27
    7  A    between atoms: C_24  and  C_27
                            x       y       z     vdW  Elec       q    Type
                         _______ _______ _______ _____ _____    ______ ____

>  <TORSDO>
F 7

$$$$
