=
 OpenBabel11062414133D

 32 38  0  0  1  0  0  0  0  0999 V2000
  185.8800  178.8130  139.3930 N   0  0  0  0  0  2  0  0  0  0  0  0
  187.8530  177.2510  140.0370 C   0  0  1  0  0  3  0  0  0  0  0  0
  191.8410  176.7240  138.0880 C   0  0  0  0  0  2  0  0  0  0  0  0
  189.0720  177.8940  138.1070 C   0  0  0  0  0  0  0  0  0  0  0  0
  189.9060  175.9420  139.5000 C   0  0  0  0  0  3  0  0  0  0  0  0
  189.8780  177.9340  137.0860 N   0  0  0  0  0  0  0  0  0  0  0  0
  187.2080  178.3230  139.1920 C   0  0  0  0  0  0  0  0  0  0  0  0
  187.8810  178.6610  138.1390 N   0  0  0  0  0  0  0  0  0  0  0  0
  189.0860  176.9630  139.2380 C   0  0  0  0  0  0  0  0  0  0  0  0
  191.1140  175.6860  138.7890 N   0  0  0  0  0  2  0  0  0  0  0  0
  191.0700  177.2040  136.9560 N   0  0  0  0  0  2  0  0  0  0  0  0
  190.1790  176.5550  147.4670 N   0  0  0  0  0  2  0  0  0  0  0  0
  189.8430  177.7230  145.3830 C   0  0  1  0  0  3  0  0  0  0  0  0
  190.6300  176.8780  146.3110 C   0  0  0  0  0  0  0  0  0  0  0  0
  191.6390  176.5030  144.1990 C   0  0  0  0  0  3  0  0  0  0  0  0
  190.7210  178.7550  143.2750 C   0  0  0  0  0  2  0  0  0  0  0  0
  190.4390  177.4350  144.0130 C   0  0  2  0  0  0  0  0  0  0  0  0
  188.2390  177.7850  141.3850 C   0  0  0  0  0  0  0  0  0  0  0  0
  189.0700  176.8580  144.4010 C   0  0  2  0  0  3  0  0  0  0  0  0
  189.5290  179.4610  142.6430 C   0  0  0  0  0  2  0  0  0  0  0  0
  187.8730  177.6210  143.8640 C   0  0  1  0  0  3  0  0  0  0  0  0
  191.7130  176.1040  145.6650 C   0  0  0  0  0  3  0  0  0  0  0  0
  189.0870  178.7720  141.4360 N   0  0  0  0  0  0  0  0  0  0  0  0
  187.6260  177.2280  142.5220 O   0  0  0  0  0  0  0  0  0  0  0  0
  186.6580  177.2900  144.7130 C   0  0  0  0  0  2  0  0  0  0  0  0
  186.0150  178.5650  145.2240 C   0  0  0  0  0  1  0  0  0  0  0  0
  183.5470  178.9630  142.1660 C   0  0  0  0  0  2  0  0  0  0  0  0
  182.7190  177.2290  140.5810 C   0  0  0  0  0  2  0  0  0  0  0  0
  184.9440  179.1200  141.6150 C   0  0  0  0  0  2  0  0  0  0  0  0
  182.6490  178.6930  140.9710 C   0  0  2  0  0  3  0  0  0  0  0  0
  183.5590  178.2470  139.8360 C   0  0  1  0  0  3  0  0  0  0  0  0
  184.9750  178.2510  140.3810 C   0  0  1  0  0  3  0  0  0  0  0  0
  1 32  1  0  0  0  0
  2 18  1  1  0  0  0
  3 10  1  0  0  0  0
  4  8  1  0  0  0  0
  4  9  1  0  0  0  0
  6  4  2  0  0  0  0
  7  1  1  0  0  0  0
  7  2  1  0  0  0  0
  8  7  2  0  0  0  0
  9  5  2  0  0  0  0
  9  2  1  0  0  0  0
 10  5  1  0  0  0  0
 11  6  1  0  0  0  0
 11  3  1  0  0  0  0
 13 14  1  1  0  0  0
 14 12  2  0  0  0  0
 15 22  2  0  0  0  0
 17 16  1  6  0  0  0
 17 15  1  0  0  0  0
 17 19  1  0  0  0  0
 17 13  1  0  0  0  0
 18 23  2  0  0  0  0
 18 24  1  0  0  0  0
 19 13  1  0  0  0  0
 20 16  1  0  0  0  0
 21 19  1  0  0  0  0
 21 25  1  0  0  0  0
 22 14  1  0  0  0  0
 23 20  1  0  0  0  0
 24 21  1  0  0  0  0
 25 26  1  0  0  0  0
 28 30  1  0  0  0  0
 29 27  1  0  0  0  0
 30 27  1  0  0  0  0
 31 32  1  0  0  0  0
 31 28  1  0  0  0  0
 31 30  1  0  0  0  0
 32 29  1  0  0  0  0
M  END
>  <MODEL>
1

>  <REMARK>
 VINA RESULT:      -6.6      0.000      0.000
  Name = 
  3 active torsions:
  status: ('A' for Active; 'I' for Inactive)
    1  A    between atoms: N_2  and  C_29
    2  A    between atoms: C_5  and  C_26
    3  A    between atoms: C_7  and  C_15
                            x       y       z     vdW  Elec       q    Type
                         _______ _______ _______ _____ _____    ______ ____

>  <TORSDO>
F 3

$$$$
=
 OpenBabel11062414133D

 32 38  0  0  1  0  0  0  0  0999 V2000
  186.1920  179.3370  140.8930 N   0  0  0  0  0  2  0  0  0  0  0  0
  188.0390  177.5140  141.0010 C   0  0  1  0  0  3  0  0  0  0  0  0
  191.4020  176.6740  138.1770 C   0  0  0  0  0  2  0  0  0  0  0  0
  188.8780  178.1510  138.8760 C   0  0  0  0  0  0  0  0  0  0  0  0
  189.7380  176.0190  139.9540 C   0  0  0  0  0  3  0  0  0  0  0  0
  189.4390  178.1730  137.7030 N   0  0  0  0  0  0  0  0  0  0  0  0
  187.3690  178.7130  140.3740 C   0  0  0  0  0  0  0  0  0  0  0  0
  187.8330  179.0470  139.2120 N   0  0  0  0  0  0  0  0  0  0  0  0
  189.0190  177.1450  139.9320 C   0  0  0  0  0  0  0  0  0  0  0  0
  190.7170  175.6780  138.9770 N   0  0  0  0  0  2  0  0  0  0  0  0
  190.4700  177.3220  137.2730 N   0  0  0  0  0  2  0  0  0  0  0  0
  191.2230  176.1040  148.0000 N   0  0  0  0  0  2  0  0  0  0  0  0
  190.9140  177.3350  145.9470 C   0  0  1  0  0  3  0  0  0  0  0  0
  191.5560  176.2870  146.7760 C   0  0  0  0  0  0  0  0  0  0  0  0
  192.0560  175.6450  144.5490 C   0  0  0  0  0  3  0  0  0  0  0  0
  191.7050  178.0750  143.6880 C   0  0  0  0  0  2  0  0  0  0  0  0
  191.1700  176.8930  144.5140 C   0  0  2  0  0  0  0  0  0  0  0  0
  188.7770  177.8990  142.2500 C   0  0  0  0  0  0  0  0  0  0  0  0
  189.7740  176.7460  145.1350 C   0  0  2  0  0  3  0  0  0  0  0  0
  190.6880  179.1070  143.2210 C   0  0  0  0  0  2  0  0  0  0  0  0
  188.7830  177.8330  144.7610 C   0  0  1  0  0  3  0  0  0  0  0  0
  192.2450  175.2310  146.0010 C   0  0  0  0  0  3  0  0  0  0  0  0
  189.8750  178.5900  142.1270 N   0  0  0  0  0  0  0  0  0  0  0  0
  188.2190  177.5410  143.4900 O   0  0  0  0  0  0  0  0  0  0  0  0
  187.6790  177.8720  145.8010 C   0  0  0  0  0  2  0  0  0  0  0  0
  186.4720  177.0940  145.3120 C   0  0  0  0  0  1  0  0  0  0  0  0
  184.3440  179.5890  144.0040 C   0  0  0  0  0  2  0  0  0  0  0  0
  183.2680  177.8090  142.6340 C   0  0  0  0  0  2  0  0  0  0  0  0
  185.6320  179.7210  143.2270 C   0  0  0  0  0  2  0  0  0  0  0  0
  183.2630  179.2850  142.9810 C   0  0  2  0  0  3  0  0  0  0  0  0
  183.9750  178.7980  141.7280 C   0  0  1  0  0  3  0  0  0  0  0  0
  185.4610  178.8130  142.0340 C   0  0  1  0  0  3  0  0  0  0  0  0
  1 32  1  0  0  0  0
  2 18  1  1  0  0  0
  3 10  1  0  0  0  0
  4  8  1  0  0  0  0
  4  9  1  0  0  0  0
  6  4  2  0  0  0  0
  7  1  1  0  0  0  0
  7  2  1  0  0  0  0
  8  7  2  0  0  0  0
  9  5  2  0  0  0  0
  9  2  1  0  0  0  0
 10  5  1  0  0  0  0
 11  6  1  0  0  0  0
 11  3  1  0  0  0  0
 13 14  1  1  0  0  0
 14 12  2  0  0  0  0
 15 22  2  0  0  0  0
 17 16  1  6  0  0  0
 17 15  1  0  0  0  0
 17 19  1  0  0  0  0
 17 13  1  0  0  0  0
 18 24  1  0  0  0  0
 19 13  1  0  0  0  0
 20 16  1  0  0  0  0
 21 19  1  0  0  0  0
 21 25  1  0  0  0  0
 22 14  1  0  0  0  0
 23 18  2  0  0  0  0
 23 20  1  0  0  0  0
 24 21  1  0  0  0  0
 26 25  1  0  0  0  0
 28 30  1  0  0  0  0
 29 27  1  0  0  0  0
 30 27  1  0  0  0  0
 31 32  1  0  0  0  0
 31 28  1  0  0  0  0
 31 30  1  0  0  0  0
 32 29  1  0  0  0  0
M  END
>  <MODEL>
2

>  <REMARK>
 VINA RESULT:      -6.2      1.129      1.333
  Name = 
  3 active torsions:
  status: ('A' for Active; 'I' for Inactive)
    1  A    between atoms: N_2  and  C_29
    2  A    between atoms: C_5  and  C_26
    3  A    between atoms: C_7  and  C_15
                            x       y       z     vdW  Elec       q    Type
                         _______ _______ _______ _____ _____    ______ ____

>  <TORSDO>
F 3

$$$$
=
 OpenBabel11062414133D

 32 38  0  0  1  0  0  0  0  0999 V2000
  186.3210  179.1730  141.4610 N   0  0  0  0  0  2  0  0  0  0  0  0
  185.5240  177.8470  139.3750 C   0  0  1  0  0  3  0  0  0  0  0  0
  182.0790  178.6220  136.6330 C   0  0  0  0  0  2  0  0  0  0  0  0
  183.6220  179.2440  139.1370 C   0  0  0  0  0  0  0  0  0  0  0  0
  183.7840  177.1300  137.7390 C   0  0  0  0  0  3  0  0  0  0  0  0
  182.4470  179.7290  138.8600 N   0  0  0  0  0  0  0  0  0  0  0  0
  185.4430  179.0010  140.3460 C   0  0  0  0  0  0  0  0  0  0  0  0
  184.3980  179.7520  140.2090 N   0  0  0  0  0  0  0  0  0  0  0  0
  184.2500  178.0280  138.6110 C   0  0  0  0  0  0  0  0  0  0  0  0
  182.6060  177.3110  136.9600 N   0  0  0  0  0  2  0  0  0  0  0  0
  181.6010  179.2860  137.8310 N   0  0  0  0  0  2  0  0  0  0  0  0
  191.6380  175.2150  135.2770 N   0  0  0  0  0  2  0  0  0  0  0  0
  189.8850  176.7800  135.8260 C   0  0  1  0  0  3  0  0  0  0  0  0
  190.4250  175.5960  135.1160 C   0  0  0  0  0  0  0  0  0  0  0  0
  188.0730  175.3300  134.9730 C   0  0  0  0  0  3  0  0  0  0  0  0
  187.6860  177.8760  135.3380 C   0  0  0  0  0  2  0  0  0  0  0  0
  188.3770  176.5820  135.7990 C   0  0  2  0  0  0  0  0  0  0  0  0
  186.6940  178.0010  138.4480 C   0  0  0  0  0  0  0  0  0  0  0  0
  189.1670  176.3580  137.0960 C   0  0  2  0  0  3  0  0  0  0  0  0
  187.5530  178.9920  136.3660 C   0  0  0  0  0  2  0  0  0  0  0  0
  189.1300  177.5120  138.0820 C   0  0  1  0  0  3  0  0  0  0  0  0
  189.3920  174.6730  134.5940 C   0  0  0  0  0  3  0  0  0  0  0  0
  186.5230  178.6820  137.3510 N   0  0  0  0  0  0  0  0  0  0  0  0
  187.9280  177.4490  138.8360 O   0  0  0  0  0  0  0  0  0  0  0  0
  190.3160  177.3950  139.0210 C   0  0  0  0  0  2  0  0  0  0  0  0
  190.9140  176.0030  138.9380 C   0  0  0  0  0  1  0  0  0  0  0  0
  189.4700  178.0830  142.8930 C   0  0  0  0  0  2  0  0  0  0  0  0
  187.7500  176.3780  143.4750 C   0  0  0  0  0  2  0  0  0  0  0  0
  188.6980  178.8240  141.8270 C   0  0  0  0  0  2  0  0  0  0  0  0
  188.4480  177.6460  143.9270 C   0  0  2  0  0  3  0  0  0  0  0  0
  187.0860  177.7220  143.2530 C   0  0  1  0  0  3  0  0  0  0  0  0
  187.3270  178.1930  141.8300 C   0  0  1  0  0  3  0  0  0  0  0  0
  1 32  1  0  0  0  0
  2 18  1  6  0  0  0
  2  7  1  0  0  0  0
  3 10  1  0  0  0  0
  3 11  1  0  0  0  0
  4  8  1  0  0  0  0
  5  9  2  0  0  0  0
  6  4  2  0  0  0  0
  7  1  1  0  0  0  0
  8  7  2  0  0  0  0
  9  4  1  0  0  0  0
  9  2  1  0  0  0  0
 10  5  1  0  0  0  0
 11  6  1  0  0  0  0
 13 14  1  6  0  0  0
 13 19  1  0  0  0  0
 14 12  2  0  0  0  0
 16 17  1  0  0  0  0
 16 20  1  0  0  0  0
 17 15  1  6  0  0  0
 17 13  1  0  0  0  0
 17 19  1  0  0  0  0
 18 24  1  0  0  0  0
 19 21  1  0  0  0  0
 20 23  1  0  0  0  0
 21 24  1  0  0  0  0
 21 25  1  0  0  0  0
 22 15  2  0  0  0  0
 22 14  1  0  0  0  0
 23 18  2  0  0  0  0
 26 25  1  0  0  0  0
 27 30  1  0  0  0  0
 28 30  1  0  0  0  0
 29 32  1  0  0  0  0
 29 27  1  0  0  0  0
 31 28  1  0  0  0  0
 31 30  1  0  0  0  0
 32 31  1  0  0  0  0
M  END
>  <MODEL>
3

>  <REMARK>
 VINA RESULT:      -6.2      2.550      7.228
  Name = 
  3 active torsions:
  status: ('A' for Active; 'I' for Inactive)
    1  A    between atoms: N_2  and  C_29
    2  A    between atoms: C_5  and  C_26
    3  A    between atoms: C_7  and  C_15
                            x       y       z     vdW  Elec       q    Type
                         _______ _______ _______ _____ _____    ______ ____

>  <TORSDO>
F 3

$$$$
=
 OpenBabel11062414133D

 32 38  0  0  1  0  0  0  0  0999 V2000
  186.5480  175.3280  137.3170 N   0  0  0  0  0  2  0  0  0  0  0  0
  184.0810  175.2350  136.5100 C   0  0  1  0  0  3  0  0  0  0  0  0
  181.1190  171.8940  136.7320 C   0  0  0  0  0  2  0  0  0  0  0  0
  183.9170  172.9390  137.0780 C   0  0  0  0  0  0  0  0  0  0  0  0
  182.0500  174.0150  135.7360 C   0  0  0  0  0  3  0  0  0  0  0  0
  183.5910  171.6810  137.1410 N   0  0  0  0  0  0  0  0  0  0  0  0
  185.2990  174.6470  137.1810 C   0  0  0  0  0  0  0  0  0  0  0  0
  185.1970  173.3910  137.4810 N   0  0  0  0  0  0  0  0  0  0  0  0
  183.1940  174.0320  136.4220 C   0  0  0  0  0  0  0  0  0  0  0  0
  181.1640  172.8990  135.6890 N   0  0  0  0  0  2  0  0  0  0  0  0
  182.3560  171.1350  136.7550 N   0  0  0  0  0  2  0  0  0  0  0  0
  182.5490  178.7330  143.3320 N   0  0  0  0  0  2  0  0  0  0  0  0
  182.6980  178.6030  140.9260 C   0  0  1  0  0  3  0  0  0  0  0  0
  183.2520  178.8890  142.2710 C   0  0  0  0  0  0  0  0  0  0  0  0
  185.1690  178.6740  140.8930 C   0  0  0  0  0  3  0  0  0  0  0  0
  183.7890  179.2160  138.7560 C   0  0  0  0  0  2  0  0  0  0  0  0
  183.9230  178.3940  140.0490 C   0  0  2  0  0  0  0  0  0  0  0  0
  183.4350  176.2750  137.3780 C   0  0  0  0  0  0  0  0  0  0  0  0
  183.0670  177.1970  140.4860 C   0  0  2  0  0  3  0  0  0  0  0  0
  182.8790  178.6540  137.6730 C   0  0  0  0  0  2  0  0  0  0  0  0
  182.0780  176.6980  139.4490 C   0  0  1  0  0  3  0  0  0  0  0  0
  184.7310  178.9280  142.3270 C   0  0  0  0  0  3  0  0  0  0  0  0
  183.4990  177.5200  136.9980 N   0  0  0  0  0  0  0  0  0  0  0  0
  182.7480  175.8480  138.5280 O   0  0  0  0  0  0  0  0  0  0  0  0
  180.9840  175.9130  140.1500 C   0  0  0  0  0  2  0  0  0  0  0  0
  180.4080  174.8680  139.2140 C   0  0  0  0  0  1  0  0  0  0  0  0
  188.0590  178.6230  137.1680 C   0  0  0  0  0  2  0  0  0  0  0  0
  188.0240  177.7060  134.8520 C   0  0  0  0  0  2  0  0  0  0  0  0
  187.1060  177.6420  137.8100 C   0  0  0  0  0  2  0  0  0  0  0  0
  188.8350  177.8360  136.1270 C   0  0  2  0  0  3  0  0  0  0  0  0
  188.0380  176.5690  135.8540 C   0  0  1  0  0  3  0  0  0  0  0  0
  186.8010  176.6330  136.7300 C   0  0  1  0  0  3  0  0  0  0  0  0
  2  7  1  0  0  0  0
  2 18  1  1  0  0  0
  3 11  1  0  0  0  0
  4  6  2  0  0  0  0
  4  8  1  0  0  0  0
  5  9  2  0  0  0  0
  7  1  1  0  0  0  0
  7  8  2  0  0  0  0
  9  2  1  0  0  0  0
  9  4  1  0  0  0  0
 10  5  1  0  0  0  0
 10  3  1  0  0  0  0
 11  6  1  0  0  0  0
 13 14  1  1  0  0  0
 14 22  1  0  0  0  0
 14 12  2  0  0  0  0
 15 22  2  0  0  0  0
 17 16  1  6  0  0  0
 17 19  1  0  0  0  0
 17 15  1  0  0  0  0
 17 13  1  0  0  0  0
 18 24  1  0  0  0  0
 19 13  1  0  0  0  0
 20 16  1  0  0  0  0
 21 25  1  0  0  0  0
 21 19  1  0  0  0  0
 23 18  2  0  0  0  0
 23 20  1  0  0  0  0
 24 21  1  0  0  0  0
 26 25  1  0  0  0  0
 27 29  1  0  0  0  0
 28 31  1  0  0  0  0
 28 30  1  0  0  0  0
 30 27  1  0  0  0  0
 31 30  1  0  0  0  0
 31 32  1  0  0  0  0
 32  1  1  0  0  0  0
 32 29  1  0  0  0  0
M  END
>  <MODEL>
4

>  <REMARK>
 VINA RESULT:      -6.1      4.619      7.726
  Name = 
  3 active torsions:
  status: ('A' for Active; 'I' for Inactive)
    1  A    between atoms: N_2  and  C_29
    2  A    between atoms: C_5  and  C_26
    3  A    between atoms: C_7  and  C_15
                            x       y       z     vdW  Elec       q    Type
                         _______ _______ _______ _____ _____    ______ ____

>  <TORSDO>
F 3

$$$$
=
 OpenBabel11062414133D

 32 38  0  0  1  0  0  0  0  0999 V2000
  193.2520  176.4210  138.2100 N   0  0  0  0  0  2  0  0  0  0  0  0
  190.8750  176.2570  139.2440 C   0  0  1  0  0  3  0  0  0  0  0  0
  189.2060  178.1970  142.9090 C   0  0  0  0  0  2  0  0  0  0  0  0
  191.5320  177.5570  141.1150 C   0  0  0  0  0  0  0  0  0  0  0  0
  189.2780  176.3890  141.1540 C   0  0  0  0  0  3  0  0  0  0  0  0
  191.6420  178.0930  142.2950 N   0  0  0  0  0  0  0  0  0  0  0  0
  192.2850  176.7940  139.1950 C   0  0  0  0  0  0  0  0  0  0  0  0
  192.6330  177.4970  140.2250 N   0  0  0  0  0  0  0  0  0  0  0  0
  190.4240  176.7610  140.5790 C   0  0  0  0  0  0  0  0  0  0  0  0
  188.8040  176.9030  142.3960 N   0  0  0  0  0  2  0  0  0  0  0  0
  190.6170  178.1890  143.2500 N   0  0  0  0  0  2  0  0  0  0  0  0
  184.5990  176.6010  134.5960 N   0  0  0  0  0  2  0  0  0  0  0  0
  186.5310  177.4980  135.7310 C   0  0  1  0  0  3  0  0  0  0  0  0
  185.0920  177.1540  135.6420 C   0  0  0  0  0  0  0  0  0  0  0  0
  185.4730  177.4380  137.9650 C   0  0  0  0  0  3  0  0  0  0  0  0
  187.5680  178.9140  137.5190 C   0  0  0  0  0  2  0  0  0  0  0  0
  186.8000  177.6140  137.2230 C   0  0  2  0  0  0  0  0  0  0  0  0
  190.0280  176.8630  138.1640 C   0  0  0  0  0  0  0  0  0  0  0  0
  187.3000  176.3950  136.4360 C   0  0  2  0  0  3  0  0  0  0  0  0
  189.0600  178.9180  137.2170 C   0  0  0  0  0  2  0  0  0  0  0  0
  188.7630  176.4400  136.0360 C   0  0  1  0  0  3  0  0  0  0  0  0
  184.3990  177.0830  136.9480 C   0  0  0  0  0  3  0  0  0  0  0  0
  189.8010  178.1450  138.2070 N   0  0  0  0  0  0  0  0  0  0  0  0
  189.5660  176.0270  137.1320 O   0  0  0  0  0  0  0  0  0  0  0  0
  188.9830  175.4940  134.8690 C   0  0  0  0  0  2  0  0  0  0  0  0
  189.8530  174.3280  135.2990 C   0  0  0  0  0  1  0  0  0  0  0  0
  193.5580  174.9010  134.9310 C   0  0  0  0  0  2  0  0  0  0  0  0
  193.6110  173.0680  136.6160 C   0  0  0  0  0  2  0  0  0  0  0  0
  193.0510  176.0100  135.8220 C   0  0  0  0  0  2  0  0  0  0  0  0
  194.4490  174.0330  135.8010 C   0  0  2  0  0  3  0  0  0  0  0  0
  194.0980  174.3580  137.2450 C   0  0  1  0  0  3  0  0  0  0  0  0
  192.9990  175.4040  137.2040 C   0  0  1  0  0  3  0  0  0  0  0  0
  1  7  1  0  0  0  0
  2 18  1  6  0  0  0
  2  9  1  0  0  0  0
  3 11  1  0  0  0  0
  4  6  2  0  0  0  0
  5 10  1  0  0  0  0
  6 11  1  0  0  0  0
  7  2  1  0  0  0  0
  7  8  2  0  0  0  0
  8  4  1  0  0  0  0
  9  4  1  0  0  0  0
  9  5  2  0  0  0  0
 10  3  1  0  0  0  0
 12 14  2  0  0  0  0
 13 14  1  1  0  0  0
 13 19  1  0  0  0  0
 13 17  1  0  0  0  0
 14 22  1  0  0  0  0
 17 16  1  1  0  0  0
 17 15  1  0  0  0  0
 18 23  2  0  0  0  0
 19 17  1  0  0  0  0
 20 16  1  0  0  0  0
 20 23  1  0  0  0  0
 21 19  1  0  0  0  0
 21 24  1  0  0  0  0
 22 15  2  0  0  0  0
 24 18  1  0  0  0  0
 25 26  1  0  0  0  0
 25 21  1  0  0  0  0
 27 30  1  0  0  0  0
 27 29  1  0  0  0  0
 28 31  1  0  0  0  0
 29 32  1  0  0  0  0
 30 28  1  0  0  0  0
 30 31  1  0  0  0  0
 32 31  1  0  0  0  0
 32  1  1  0  0  0  0
M  END
>  <MODEL>
5

>  <REMARK>
 VINA RESULT:      -6.0      3.029      8.515
  Name = 
  3 active torsions:
  status: ('A' for Active; 'I' for Inactive)
    1  A    between atoms: N_2  and  C_29
    2  A    between atoms: C_5  and  C_26
    3  A    between atoms: C_7  and  C_15
                            x       y       z     vdW  Elec       q    Type
                         _______ _______ _______ _____ _____    ______ ____

>  <TORSDO>
F 3

$$$$
=
 OpenBabel11062414133D

 32 38  0  0  1  0  0  0  0  0999 V2000
  186.4730  177.9680  139.3020 N   0  0  0  0  0  2  0  0  0  0  0  0
  186.3380  179.0040  141.6800 C   0  0  1  0  0  3  0  0  0  0  0  0
  182.8650  179.3160  144.4770 C   0  0  0  0  0  2  0  0  0  0  0  0
  183.9980  178.6330  141.7780 C   0  0  0  0  0  0  0  0  0  0  0  0
  185.0970  180.0550  143.5700 C   0  0  0  0  0  3  0  0  0  0  0  0
  182.7270  178.6980  142.0440 N   0  0  0  0  0  0  0  0  0  0  0  0
  185.7500  178.2710  140.4990 C   0  0  0  0  0  0  0  0  0  0  0  0
  184.4720  178.0800  140.5620 N   0  0  0  0  0  0  0  0  0  0  0  0
  185.1090  179.2660  142.4930 C   0  0  0  0  0  0  0  0  0  0  0  0
  183.9520  180.2700  144.3900 N   0  0  0  0  0  2  0  0  0  0  0  0
  182.1610  179.2370  143.2100 N   0  0  0  0  0  2  0  0  0  0  0  0
  191.5110  177.5010  147.3460 N   0  0  0  0  0  2  0  0  0  0  0  0
  189.8660  176.9220  145.6780 C   0  0  1  0  0  3  0  0  0  0  0  0
  190.2790  177.3070  147.0480 C   0  0  0  0  0  0  0  0  0  0  0  0
  187.9620  177.8060  146.9860 C   0  0  0  0  0  3  0  0  0  0  0  0
  187.5770  176.1360  145.0290 C   0  0  0  0  0  2  0  0  0  0  0  0
  188.3950  177.3040  145.6060 C   0  0  2  0  0  0  0  0  0  0  0  0
  187.2750  178.1230  142.4530 C   0  0  0  0  0  0  0  0  0  0  0  0
  189.4530  178.1480  144.8820 C   0  0  2  0  0  3  0  0  0  0  0  0
  187.6310  175.9350  143.5200 C   0  0  0  0  0  2  0  0  0  0  0  0
  189.5900  177.8760  143.3950 C   0  0  1  0  0  3  0  0  0  0  0  0
  189.1890  177.8630  147.8820 C   0  0  0  0  0  3  0  0  0  0  0  0
  186.8490  176.9490  142.8240 N   0  0  0  0  0  0  0  0  0  0  0  0
  188.5810  178.5860  142.6900 O   0  0  0  0  0  0  0  0  0  0  0  0
  190.9540  178.3530  142.9310 C   0  0  0  0  0  2  0  0  0  0  0  0
  191.5480  179.3080  143.9490 C   0  0  0  0  0  1  0  0  0  0  0  0
  190.0160  177.5380  138.6580 C   0  0  0  0  0  2  0  0  0  0  0  0
  189.2380  179.4830  137.3100 C   0  0  0  0  0  2  0  0  0  0  0  0
  188.8230  177.4100  139.5750 C   0  0  0  0  0  2  0  0  0  0  0  0
  189.4700  177.9840  137.3130 C   0  0  2  0  0  3  0  0  0  0  0  0
  188.0780  178.5430  137.5720 C   0  0  1  0  0  3  0  0  0  0  0  0
  187.8300  178.4270  139.0650 C   0  0  1  0  0  3  0  0  0  0  0  0
  1  7  1  0  0  0  0
  2 18  1  1  0  0  0
  2  9  1  0  0  0  0
  4  6  2  0  0  0  0
  4  9  1  0  0  0  0
  5 10  1  0  0  0  0
  6 11  1  0  0  0  0
  7  8  2  0  0  0  0
  7  2  1  0  0  0  0
  8  4  1  0  0  0  0
  9  5  2  0  0  0  0
 10  3  1  0  0  0  0
 11  3  1  0  0  0  0
 13 14  1  1  0  0  0
 14 12  2  0  0  0  0
 14 22  1  0  0  0  0
 15 22  2  0  0  0  0
 17 16  1  6  0  0  0
 17 13  1  0  0  0  0
 17 15  1  0  0  0  0
 18 24  1  0  0  0  0
 18 23  2  0  0  0  0
 19 17  1  0  0  0  0
 19 13  1  0  0  0  0
 20 16  1  0  0  0  0
 21 19  1  0  0  0  0
 23 20  1  0  0  0  0
 24 21  1  0  0  0  0
 25 21  1  0  0  0  0
 25 26  1  0  0  0  0
 27 29  1  0  0  0  0
 28 30  1  0  0  0  0
 28 31  1  0  0  0  0
 30 31  1  0  0  0  0
 30 27  1  0  0  0  0
 31 32  1  0  0  0  0
 32  1  1  0  0  0  0
 32 29  1  0  0  0  0
M  END
>  <MODEL>
6

>  <REMARK>
 VINA RESULT:      -6.0      2.135      5.543
  Name = 
  3 active torsions:
  status: ('A' for Active; 'I' for Inactive)
    1  A    between atoms: N_2  and  C_29
    2  A    between atoms: C_5  and  C_26
    3  A    between atoms: C_7  and  C_15
                            x       y       z     vdW  Elec       q    Type
                         _______ _______ _______ _____ _____    ______ ____

>  <TORSDO>
F 3

$$$$
=
 OpenBabel11062414133D

 32 38  0  0  1  0  0  0  0  0999 V2000
  185.7990  177.8830  136.9110 N   0  0  0  0  0  2  0  0  0  0  0  0
  187.6250  176.2690  137.8110 C   0  0  1  0  0  3  0  0  0  0  0  0
  191.2090  174.5670  135.7510 C   0  0  0  0  0  2  0  0  0  0  0  0
  188.6410  176.1280  135.6720 C   0  0  0  0  0  0  0  0  0  0  0  0
  189.4000  174.5450  137.5070 C   0  0  0  0  0  3  0  0  0  0  0  0
  189.2990  175.7450  134.6180 N   0  0  0  0  0  0  0  0  0  0  0  0
  187.0140  177.1470  136.7450 C   0  0  0  0  0  0  0  0  0  0  0  0
  187.5740  177.0560  135.5820 N   0  0  0  0  0  0  0  0  0  0  0  0
  188.6900  175.5690  137.0260 C   0  0  0  0  0  0  0  0  0  0  0  0
  190.4570  173.9040  136.7980 N   0  0  0  0  0  2  0  0  0  0  0  0
  190.3590  174.8240  134.6040 N   0  0  0  0  0  2  0  0  0  0  0  0
  189.1300  178.1360  145.2510 N   0  0  0  0  0  2  0  0  0  0  0  0
  189.5360  178.1380  142.8720 C   0  0  1  0  0  3  0  0  0  0  0  0
  189.6800  177.5770  144.2370 C   0  0  0  0  0  0  0  0  0  0  0  0
  190.2660  175.7760  142.8110 C   0  0  0  0  0  3  0  0  0  0  0  0
  190.8430  177.4030  140.8650 C   0  0  0  0  0  2  0  0  0  0  0  0
  189.8420  176.9680  141.9490 C   0  0  2  0  0  0  0  0  0  0  0  0
  188.2570  177.0940  138.8930 C   0  0  0  0  0  0  0  0  0  0  0  0
  188.3980  177.4540  142.1330 C   0  0  2  0  0  3  0  0  0  0  0  0
  190.2920  178.2170  139.7030 C   0  0  0  0  0  2  0  0  0  0  0  0
  187.8750  178.3570  141.0310 C   0  0  1  0  0  3  0  0  0  0  0  0
  190.0980  176.1580  144.2730 C   0  0  0  0  0  3  0  0  0  0  0  0
  189.5240  177.3790  138.7890 N   0  0  0  0  0  0  0  0  0  0  0  0
  187.4390  177.5620  139.9370 O   0  0  0  0  0  0  0  0  0  0  0  0
  186.7030  179.1580  141.5660 C   0  0  0  0  0  2  0  0  0  0  0  0
  185.6290  178.2260  142.0940 C   0  0  0  0  0  1  0  0  0  0  0  0
  183.2280  178.9740  139.2250 C   0  0  0  0  0  2  0  0  0  0  0  0
  183.0560  176.4970  139.0250 C   0  0  0  0  0  2  0  0  0  0  0  0
  184.5850  179.1560  138.5890 C   0  0  0  0  0  2  0  0  0  0  0  0
  182.5650  177.8260  138.4840 C   0  0  2  0  0  3  0  0  0  0  0  0
  183.6740  177.0720  137.7660 C   0  0  1  0  0  3  0  0  0  0  0  0
  184.9740  177.7810  138.1020 C   0  0  1  0  0  3  0  0  0  0  0  0
  1 32  1  0  0  0  0
  2 18  1  1  0  0  0
  3 10  1  0  0  0  0
  4  9  1  0  0  0  0
  6  4  2  0  0  0  0
  7  1  1  0  0  0  0
  7  2  1  0  0  0  0
  8  4  1  0  0  0  0
  8  7  2  0  0  0  0
  9  5  2  0  0  0  0
  9  2  1  0  0  0  0
 10  5  1  0  0  0  0
 11  6  1  0  0  0  0
 11  3  1  0  0  0  0
 13 14  1  1  0  0  0
 14 22  1  0  0  0  0
 14 12  2  0  0  0  0
 15 22  2  0  0  0  0
 17 16  1  6  0  0  0
 17 19  1  0  0  0  0
 17 15  1  0  0  0  0
 17 13  1  0  0  0  0
 18 24  1  0  0  0  0
 19 13  1  0  0  0  0
 20 16  1  0  0  0  0
 21 25  1  0  0  0  0
 21 19  1  0  0  0  0
 23 18  2  0  0  0  0
 23 20  1  0  0  0  0
 24 21  1  0  0  0  0
 25 26  1  0  0  0  0
 29 27  1  0  0  0  0
 30 28  1  0  0  0  0
 30 27  1  0  0  0  0
 31 32  1  0  0  0  0
 31 30  1  0  0  0  0
 31 28  1  0  0  0  0
 32 29  1  0  0  0  0
M  END
>  <MODEL>
7

>  <REMARK>
 VINA RESULT:      -5.8      2.204      2.771
  Name = 
  3 active torsions:
  status: ('A' for Active; 'I' for Inactive)
    1  A    between atoms: N_2  and  C_29
    2  A    between atoms: C_5  and  C_26
    3  A    between atoms: C_7  and  C_15
                            x       y       z     vdW  Elec       q    Type
                         _______ _______ _______ _____ _____    ______ ____

>  <TORSDO>
F 3

$$$$
=
 OpenBabel11062414133D

 32 38  0  0  1  0  0  0  0  0999 V2000
  183.5610  178.7930  139.2830 N   0  0  0  0  0  2  0  0  0  0  0  0
  185.1530  178.3020  137.2900 C   0  0  1  0  0  3  0  0  0  0  0  0
  189.5360  177.4230  137.2770 C   0  0  0  0  0  2  0  0  0  0  0  0
  187.0380  178.2530  138.7290 C   0  0  0  0  0  0  0  0  0  0  0  0
  187.4020  178.2450  136.2160 C   0  0  0  0  0  3  0  0  0  0  0  0
  188.2360  178.3220  139.2320 N   0  0  0  0  0  0  0  0  0  0  0  0
  184.8480  178.4550  138.7610 C   0  0  0  0  0  0  0  0  0  0  0  0
  185.8860  178.4320  139.5350 N   0  0  0  0  0  0  0  0  0  0  0  0
  186.6470  178.2140  137.3170 C   0  0  0  0  0  0  0  0  0  0  0  0
  188.8200  178.1040  136.2170 N   0  0  0  0  0  2  0  0  0  0  0  0
  189.4340  178.1720  138.5160 N   0  0  0  0  0  2  0  0  0  0  0  0
  180.7260  171.8690  137.6650 N   0  0  0  0  0  2  0  0  0  0  0  0
  181.9770  173.6000  136.5390 C   0  0  1  0  0  3  0  0  0  0  0  0
  180.7410  173.0360  137.1330 C   0  0  0  0  0  0  0  0  0  0  0  0
  180.3060  175.3630  137.0050 C   0  0  0  0  0  3  0  0  0  0  0  0
  182.0860  175.6710  135.1340 C   0  0  0  0  0  2  0  0  0  0  0  0
  181.7340  175.1020  136.5180 C   0  0  2  0  0  0  0  0  0  0  0  0
  184.5830  177.0230  136.7500 C   0  0  0  0  0  0  0  0  0  0  0  0
  182.6930  174.4850  137.5450 C   0  0  2  0  0  3  0  0  0  0  0  0
  183.5640  175.8740  134.8280 C   0  0  0  0  0  2  0  0  0  0  0  0
  184.1660  174.5860  137.1940 C   0  0  1  0  0  3  0  0  0  0  0  0
  179.7020  174.0400  137.4530 C   0  0  0  0  0  3  0  0  0  0  0  0
  184.0970  177.0290  135.5410 N   0  0  0  0  0  0  0  0  0  0  0  0
  184.6500  175.8720  137.5550 O   0  0  0  0  0  0  0  0  0  0  0  0
  184.9310  173.5280  137.9680 C   0  0  0  0  0  2  0  0  0  0  0  0
  186.1970  173.1480  137.2240 C   0  0  0  0  0  1  0  0  0  0  0  0
  180.0350  179.0730  138.4760 C   0  0  0  0  0  2  0  0  0  0  0  0
  181.1810  181.0780  137.5410 C   0  0  0  0  0  2  0  0  0  0  0  0
  181.2560  178.2290  138.7560 C   0  0  0  0  0  2  0  0  0  0  0  0
  180.4470  180.5110  138.7410 C   0  0  2  0  0  3  0  0  0  0  0  0
  181.9680  180.5390  138.7200 C   0  0  1  0  0  3  0  0  0  0  0  0
  182.4290  179.1220  138.4340 C   0  0  1  0  0  3  0  0  0  0  0  0
  2 18  1  1  0  0  0
  2  9  1  0  0  0  0
  2  7  1  0  0  0  0
  3 11  1  0  0  0  0
  4  6  2  0  0  0  0
  4  8  1  0  0  0  0
  5 10  1  0  0  0  0
  5  9  2  0  0  0  0
  7  1  1  0  0  0  0
  7  8  2  0  0  0  0
  9  4  1  0  0  0  0
 10  3  1  0  0  0  0
 11  6  1  0  0  0  0
 13 14  1  1  0  0  0
 13 19  1  0  0  0  0
 14 22  1  0  0  0  0
 14 12  2  0  0  0  0
 15 22  2  0  0  0  0
 17 16  1  6  0  0  0
 17 13  1  0  0  0  0
 17 15  1  0  0  0  0
 17 19  1  0  0  0  0
 18 24  1  0  0  0  0
 20 16  1  0  0  0  0
 20 23  1  0  0  0  0
 21 19  1  0  0  0  0
 21 24  1  0  0  0  0
 21 25  1  0  0  0  0
 23 18  2  0  0  0  0
 26 25  1  0  0  0  0
 27 30  1  0  0  0  0
 27 29  1  0  0  0  0
 28 31  1  0  0  0  0
 28 30  1  0  0  0  0
 31 30  1  0  0  0  0
 32 31  1  0  0  0  0
 32 29  1  0  0  0  0
 32  1  1  0  0  0  0
M  END
>  <MODEL>
8

>  <REMARK>
 VINA RESULT:      -5.6      4.686      7.952
  Name = 
  3 active torsions:
  status: ('A' for Active; 'I' for Inactive)
    1  A    between atoms: N_2  and  C_29
    2  A    between atoms: C_5  and  C_26
    3  A    between atoms: C_7  and  C_15
                            x       y       z     vdW  Elec       q    Type
                         _______ _______ _______ _____ _____    ______ ____

>  <TORSDO>
F 3

$$$$
=
 OpenBabel11062414133D

 32 38  0  0  1  0  0  0  0  0999 V2000
  191.2020  176.9270  139.3550 N   0  0  0  0  0  2  0  0  0  0  0  0
  189.4120  176.7220  141.2260 C   0  0  1  0  0  3  0  0  0  0  0  0
  189.7130  177.6430  145.5900 C   0  0  0  0  0  2  0  0  0  0  0  0
  190.9940  177.3200  142.8900 C   0  0  0  0  0  0  0  0  0  0  0  0
  188.7180  176.4500  143.6050 C   0  0  0  0  0  3  0  0  0  0  0  0
  191.6530  177.4610  144.0020 N   0  0  0  0  0  0  0  0  0  0  0  0
  190.7840  177.0900  140.7120 C   0  0  0  0  0  0  0  0  0  0  0  0
  191.6380  177.4090  141.6310 N   0  0  0  0  0  0  0  0  0  0  0  0
  189.6180  176.8480  142.7030 C   0  0  0  0  0  0  0  0  0  0  0  0
  188.8710  176.6160  145.0120 N   0  0  0  0  0  2  0  0  0  0  0  0
  191.1090  177.3780  145.2930 N   0  0  0  0  0  2  0  0  0  0  0  0
  182.5760  178.8030  138.0570 N   0  0  0  0  0  2  0  0  0  0  0  0
  184.5540  179.1340  139.4000 C   0  0  1  0  0  3  0  0  0  0  0  0
  183.1510  178.6990  139.1980 C   0  0  0  0  0  0  0  0  0  0  0  0
  183.8070  177.6120  141.2010 C   0  0  0  0  0  3  0  0  0  0  0  0
  185.6890  179.3580  141.6220 C   0  0  0  0  0  2  0  0  0  0  0  0
  185.0050  178.3860  140.6450 C   0  0  2  0  0  0  0  0  0  0  0  0
  188.3810  177.7140  140.7740 C   0  0  0  0  0  0  0  0  0  0  0  0
  185.5020  177.9560  139.2580 C   0  0  2  0  0  3  0  0  0  0  0  0
  187.1230  179.7600  141.3060 C   0  0  0  0  0  2  0  0  0  0  0  0
  186.8910  178.4450  138.8890 C   0  0  1  0  0  3  0  0  0  0  0  0
  182.6440  177.7700  140.2320 C   0  0  0  0  0  3  0  0  0  0  0  0
  188.0510  178.6730  141.5920 N   0  0  0  0  0  0  0  0  0  0  0  0
  187.8630  177.5890  139.4730 O   0  0  0  0  0  0  0  0  0  0  0  0
  187.0380  178.4140  137.3790 C   0  0  0  0  0  2  0  0  0  0  0  0
  186.4340  177.1390  136.8210 C   0  0  0  0  0  1  0  0  0  0  0  0
  190.0460  176.3050  135.9740 C   0  0  0  0  0  2  0  0  0  0  0  0
  190.0650  174.1220  137.1740 C   0  0  0  0  0  2  0  0  0  0  0  0
  190.1800  177.2180  137.1690 C   0  0  0  0  0  2  0  0  0  0  0  0
  190.8630  175.0660  136.2950 C   0  0  2  0  0  3  0  0  0  0  0  0
  191.0750  175.0630  137.8020 C   0  0  1  0  0  3  0  0  0  0  0  0
  190.3720  176.2930  138.3460 C   0  0  1  0  0  3  0  0  0  0  0  0
  1  7  1  0  0  0  0
  2 18  1  6  0  0  0
  2  9  1  0  0  0  0
  4  6  2  0  0  0  0
  5 10  1  0  0  0  0
  6 11  1  0  0  0  0
  7  2  1  0  0  0  0
  7  8  2  0  0  0  0
  8  4  1  0  0  0  0
  9  4  1  0  0  0  0
  9  5  2  0  0  0  0
 10  3  1  0  0  0  0
 11  3  1  0  0  0  0
 12 14  2  0  0  0  0
 13 14  1  6  0  0  0
 13 17  1  0  0  0  0
 14 22  1  0  0  0  0
 17 15  1  1  0  0  0
 17 16  1  0  0  0  0
 18 23  2  0  0  0  0
 19 13  1  0  0  0  0
 19 17  1  0  0  0  0
 20 23  1  0  0  0  0
 20 16  1  0  0  0  0
 21 19  1  0  0  0  0
 21 24  1  0  0  0  0
 22 15  2  0  0  0  0
 24 18  1  0  0  0  0
 25 21  1  0  0  0  0
 26 25  1  0  0  0  0
 27 30  1  0  0  0  0
 27 29  1  0  0  0  0
 28 31  1  0  0  0  0
 29 32  1  0  0  0  0
 30 28  1  0  0  0  0
 30 31  1  0  0  0  0
 31 32  1  0  0  0  0
 32  1  1  0  0  0  0
M  END
>  <MODEL>
9

>  <REMARK>
 VINA RESULT:      -5.5      2.007      7.040
  Name = 
  3 active torsions:
  status: ('A' for Active; 'I' for Inactive)
    1  A    between atoms: N_2  and  C_29
    2  A    between atoms: C_5  and  C_26
    3  A    between atoms: C_7  and  C_15
                            x       y       z     vdW  Elec       q    Type
                         _______ _______ _______ _____ _____    ______ ____

>  <TORSDO>
F 3

$$$$
