=
 OpenBabel11062411033D

 66 69  0  0  1  0  0  0  0  0999 V2000
  191.1650  177.0120  141.6850 N   0  0  0  0  0  0  0  0  0  0  0  0
  191.3490  178.1330  142.6010 C   0  0  0  0  0  2  0  0  0  0  0  0
  191.8890  176.2680  144.0150 O   0  0  0  0  0  1  0  0  0  0  0  0
  191.7210  177.6530  143.9980 C   0  0  2  0  0  3  0  0  0  0  0  0
  190.6700  178.0770  145.0130 C   0  0  0  0  0  2  0  0  0  0  0  0
  190.5950  177.0590  146.1450 C   0  0  1  0  0  3  0  0  0  0  0  0
  189.4930  176.2390  145.9890 F   0  0  0  0  0  0  0  0  0  0  0  0
  191.8770  176.2400  146.2650 C   0  0  0  0  0  2  0  0  0  0  0  0
  191.1850  174.7980  148.2130 F   0  0  0  0  0  0  0  0  0  0  0  0
  192.0880  175.6950  147.6700 C   0  0  2  0  0  0  0  0  0  0  0  0
  192.3690  176.7280  148.5770 O   0  0  0  0  0  0  0  0  0  0  0  0
  193.4150  175.8240  148.3010 C   0  0  0  0  0  2  0  0  0  0  0  0
  191.5100  177.5120  140.3640 C   0  0  0  0  0  2  0  0  0  0  0  0
  191.5310  176.3730  139.3680 C   0  0  0  0  0  2  0  0  0  0  0  0
  192.3680  176.7870  138.1770 C   0  0  0  0  0  2  0  0  0  0  0  0
  193.2360  175.7560  137.8190 O   0  0  0  0  0  0  0  0  0  0  0  0
  192.7440  175.2660  136.6030 C   0  0  1  0  0  3  0  0  0  0  0  0
  190.8810  175.8230  135.0890 C   0  0  0  0  0  3  0  0  0  0  0  0
  191.6280  176.1530  136.1400 C   0  0  0  0  0  3  0  0  0  0  0  0
  189.8100  176.7410  134.6000 C   0  0  0  0  0  2  0  0  0  0  0  0
  187.8440  175.2210  135.2090 C   0  0  1  0  0  3  0  0  0  0  0  0
  187.2610  176.5050  134.6020 C   0  0  2  0  0  3  0  0  0  0  0  0
  188.5410  176.5630  135.4250 C   0  0  2  0  0  0  0  0  0  0  0  0
  188.4830  177.1710  136.8300 C   0  0  0  0  0  2  0  0  0  0  0  0
  188.2270  178.6680  136.7600 C   0  0  0  0  0  1  0  0  0  0  0  0
  187.6550  173.5520  136.6530 C   0  0  0  0  0  1  0  0  0  0  0  0
  187.1380  174.8150  136.3480 O   0  0  0  0  0  0  0  0  0  0  0  0
  186.1320  176.9690  135.3340 O   0  0  0  0  0  0  0  0  0  0  0  0
  182.5320  176.4080  134.7380 C   0  0  0  0  0  1  0  0  0  0  0  0
  183.8610  176.4440  135.4070 C   0  0  0  0  0  0  0  0  0  0  0  0
  184.8780  176.9230  134.7660 N   0  0  0  0  0  0  0  0  0  0  0  0
  183.9970  175.9140  136.7970 C   0  0  0  0  0  1  0  0  0  0  0  0
  193.8470  175.2100  135.5260 C   0  0  1  0  0  3  0  0  0  0  0  0
  194.8280  176.3850  135.5830 C   0  0  0  0  0  1  0  0  0  0  0  0
  196.6980  173.2120  135.2180 C   0  0  0  0  0  2  0  0  0  0  0  0
  195.0120  173.5150  136.8350 C   0  0  1  0  0  3  0  0  0  0  0  0
  197.2820  174.3390  137.3340 C   0  0  0  0  0  1  0  0  0  0  0  0
  196.4810  173.2200  136.7030 C   0  0  2  0  0  3  0  0  0  0  0  0
  195.6180  173.9910  134.6310 N   0  0  0  0  0  2  0  0  0  0  0  0
  194.5150  173.8970  135.5040 N   0  0  0  0  0  0  0  0  0  0  0  0
  194.3050  172.2540  137.3110 C   0  0  0  0  0  2  0  0  0  0  0  0
  195.0950  171.0190  136.9180 C   0  0  0  0  0  1  0  0  0  0  0  0
  189.7400  176.7140  141.6620 C   0  0  0  0  0  2  0  0  0  0  0  0
  188.9250  178.0010  141.6360 C   0  0  1  0  0  3  0  0  0  0  0  0
  188.0680  178.0460  140.3850 C   0  0  0  0  0  1  0  0  0  0  0  0
  188.0780  178.1650  142.8950 C   0  0  0  0  0  2  0  0  0  0  0  0
  186.8160  177.4440  142.7820 N   0  0  0  0  0  2  0  0  0  0  0  0
  185.7640  178.3050  143.3160 C   0  0  2  0  0  3  0  0  0  0  0  0
  186.6810  177.3540  145.5100 C   0  0  0  0  0  2  0  0  0  0  0  0
  186.7340  177.9980  146.8440 C   0  0  0  0  0  0  0  0  0  0  0  0
  187.4080  177.4820  147.8690 C   0  0  0  0  0  2  0  0  0  0  0  0
  185.8210  179.1600  146.9780 C   0  0  0  0  0  2  0  0  0  0  0  0
  185.3370  179.4030  145.5550 C   0  0  0  0  0  2  0  0  0  0  0  0
  185.5400  178.0870  144.8130 C   0  0  1  0  0  3  0  0  0  0  0  0
  184.4520  178.1860  142.5270 C   0  0  2  0  0  3  0  0  0  0  0  0
  183.9190  177.9180  140.0080 C   0  0  0  0  0  1  0  0  0  0  0  0
  184.5720  178.6840  141.1070 C   0  0  0  0  0  0  0  0  0  0  0  0
  185.1920  179.7060  140.8500 O   0  0  0  0  0  0  0  0  0  0  0  0
  183.2660  178.7740  143.3190 C   0  0  1  0  0  3  0  0  0  0  0  0
  183.4760  180.2380  143.6720 C   0  0  0  0  0  1  0  0  0  0  0  0
  182.0510  178.6820  142.5120 N   0  0  0  0  0  2  0  0  0  0  0  0
  180.7630  178.3860  143.0500 C   0  0  0  0  0  0  0  0  0  0  0  0
  180.5870  178.3020  144.2930 O   0  0  0  0  0  0  0  0  0  0  0  0
  179.6090  178.2060  142.1270 C   0  0  0  0  0  2  0  0  0  0  0  0
  180.0480  177.5920  140.8870 N   0  0  0  0  0  2  0  0  0  0  0  0
  179.3040  176.3530  140.7340 C   0  0  0  0  0  1  0  0  0  0  0  0
  1  2  1  0  0  0  0
  2  4  1  0  0  0  0
  4  3  1  6  0  0  0
  4  5  1  0  0  0  0
  5  6  1  0  0  0  0
  6  7  1  6  0  0  0
  6  8  1  0  0  0  0
  8 10  1  0  0  0  0
 10  9  1  1  0  0  0
 10 12  1  0  0  0  0
 10 11  1  0  0  0  0
 12 11  1  0  0  0  0
 13  1  1  0  0  0  0
 14 13  1  0  0  0  0
 15 14  1  0  0  0  0
 16 15  1  0  0  0  0
 17 19  1  6  0  0  0
 17 16  1  0  0  0  0
 18 19  2  0  0  0  0
 20 18  1  0  0  0  0
 21 23  1  0  0  0  0
 21 27  1  1  0  0  0
 22 21  1  0  0  0  0
 22 28  1  1  0  0  0
 22 23  1  0  0  0  0
 23 20  1  6  0  0  0
 23 24  1  0  0  0  0
 25 24  1  0  0  0  0
 27 26  1  0  0  0  0
 29 30  1  0  0  0  0
 30 32  1  0  0  0  0
 31 28  1  0  0  0  0
 31 30  2  0  0  0  0
 33 34  1  1  0  0  0
 33 17  1  0  0  0  0
 35 38  1  0  0  0  0
 36 41  1  6  0  0  0
 38 36  1  0  0  0  0
 38 37  1  1  0  0  0
 39 35  1  0  0  0  0
 39 40  1  0  0  0  0
 40 33  1  0  0  0  0
 40 36  1  0  0  0  0
 42 41  1  0  0  0  0
 43  1  1  0  0  0  0
 44 45  1  6  0  0  0
 44 43  1  0  0  0  0
 44 46  1  0  0  0  0
 47 46  1  0  0  0  0
 48 47  1  6  0  0  0
 49 50  1  0  0  0  0
 50 52  1  0  0  0  0
 50 51  2  0  0  0  0
 53 52  1  0  0  0  0
 54 48  1  6  0  0  0
 54 49  1  0  0  0  0
 54 53  1  0  0  0  0
 55 57  1  6  0  0  0
 55 48  1  0  0  0  0
 55 59  1  0  0  0  0
 56 57  1  0  0  0  0
 58 57  2  0  0  0  0
 59 60  1  6  0  0  0
 61 62  1  0  0  0  0
 61 59  1  0  0  0  0
 62 63  2  0  0  0  0
 64 62  1  0  0  0  0
 65 64  1  0  0  0  0
 66 65  1  0  0  0  0
M  END
>  <MODEL>
1

>  <REMARK>
 VINA RESULT:      -5.9      0.000      0.000
  Name = 
  33 active torsions:
  status: ('A' for Active; 'I' for Inactive)
    1  A    between atoms: C_1  and  C_27
    2  A    between atoms: C_1  and  C_48
    3  A    between atoms: N_2  and  C_13
    4  A    between atoms: C_4  and  C_55
    5  A    between atoms: O_5  and  N_37
    6  A    between atoms: O_5  and  C_54
    7  A    between atoms: C_6  and  C_31
    8  A    between atoms: C_6  and  N_51
    9  A    between atoms: C_9  and  C_17
   10  A    between atoms: N_10  and  C_35
   11  A    between atoms: C_11  and  C_33
   12  A    between atoms: C_11  and  C_50
   13  A    between atoms: C_13  and  C_44
   14  A    between atoms: C_14  and  C_22
   15  A    between atoms: C_14  and  C_33
   16  A    between atoms: C_19  and  C_44
   17  A    between atoms: C_19  and  C_56
   18  A    between atoms: C_19  and  N_58
   19  A    between atoms: N_24  and  C_27
   20  A    between atoms: N_24  and  C_57
   21  A    between atoms: N_24  and  C_66
   22  A    between atoms: C_25  and  C_29
   23  A    between atoms: C_25  and  O_41
   24  A    between atoms: C_28  and  C_65
   25  A    between atoms: C_29  and  C_66
   26  A    between atoms: C_31  and  C_36
   27  A    between atoms: C_31  and  O_41
   28  A    between atoms: C_34  and  C_35
   29  A    between atoms: C_44  and  C_59
   30  A    between atoms: O_47  and  C_53
   31  A    between atoms: C_48  and  N_58
   32  A    between atoms: C_50  and  C_57
   33  A    between atoms: C_55  and  C_65
                            x       y       z     vdW  Elec       q    Type
                         _______ _______ _______ _____ _____    ______ ____

>  <TORSDO>
F 33

$$$$
=
 OpenBabel11062411033D

 66 69  0  0  1  0  0  0  0  0999 V2000
  189.0470  177.9810  138.5190 N   0  0  0  0  0  0  0  0  0  0  0  0
  190.4270  177.5380  138.3470 C   0  0  0  0  0  2  0  0  0  0  0  0
  191.0820  176.0180  140.0860 O   0  0  0  0  0  1  0  0  0  0  0  0
  190.6010  176.0880  138.7780 C   0  0  2  0  0  3  0  0  0  0  0  0
  191.5290  175.3480  137.8260 C   0  0  0  0  0  2  0  0  0  0  0  0
  192.8210  176.1350  137.6370 C   0  0  1  0  0  3  0  0  0  0  0  0
  193.7420  175.7960  138.6100 F   0  0  0  0  0  0  0  0  0  0  0  0
  193.4060  175.9500  136.2390 C   0  0  0  0  0  2  0  0  0  0  0  0
  192.5050  173.6960  135.5600 F   0  0  0  0  0  0  0  0  0  0  0  0
  193.5970  174.4830  135.8790 C   0  0  2  0  0  0  0  0  0  0  0  0
  194.4200  173.8370  136.8120 O   0  0  0  0  0  0  0  0  0  0  0  0
  194.9420  174.0020  135.5130 C   0  0  0  0  0  2  0  0  0  0  0  0
  188.8060  178.9610  137.4710 C   0  0  0  0  0  2  0  0  0  0  0  0
  188.0580  178.3180  136.3240 C   0  0  0  0  0  2  0  0  0  0  0  0
  186.9810  177.4200  136.8920 C   0  0  0  0  0  2  0  0  0  0  0  0
  185.9570  177.2500  135.9610 O   0  0  0  0  0  0  0  0  0  0  0  0
  184.9470  176.5600  136.6450 C   0  0  1  0  0  3  0  0  0  0  0  0
  183.3710  177.5300  138.2710 C   0  0  0  0  0  3  0  0  0  0  0  0
  184.6310  177.2970  137.9110 C   0  0  0  0  0  3  0  0  0  0  0  0
  183.0660  178.3170  139.5020 C   0  0  0  0  0  2  0  0  0  0  0  0
  180.8370  178.4860  138.2570 C   0  0  1  0  0  3  0  0  0  0  0  0
  181.1340  179.8670  138.8580 C   0  0  2  0  0  3  0  0  0  0  0  0
  181.5730  178.6070  139.5910 C   0  0  2  0  0  0  0  0  0  0  0  0
  180.8140  178.1920  140.8560 C   0  0  0  0  0  2  0  0  0  0  0  0
  180.4070  176.7290  140.7850 C   0  0  0  0  0  1  0  0  0  0  0  0
  179.0540  177.7710  137.1560 C   0  0  0  0  0  1  0  0  0  0  0  0
  179.4980  178.1150  138.4360 O   0  0  0  0  0  0  0  0  0  0  0  0
  179.9720  180.4490  139.4420 O   0  0  0  0  0  0  0  0  0  0  0  0
  178.9410  183.3400  137.3900 C   0  0  0  0  0  1  0  0  0  0  0  0
  179.7920  182.3720  138.1330 C   0  0  0  0  0  0  0  0  0  0  0  0
  179.2330  181.3680  138.7310 N   0  0  0  0  0  0  0  0  0  0  0  0
  181.2690  182.5830  138.1860 C   0  0  0  0  0  1  0  0  0  0  0  0
  183.6730  176.4230  135.7870 C   0  0  1  0  0  3  0  0  0  0  0  0
  183.6170  177.3930  134.6040 C   0  0  0  0  0  1  0  0  0  0  0  0
  184.6830  173.0900  135.5000 C   0  0  0  0  0  2  0  0  0  0  0  0
  182.8950  174.2330  136.5230 C   0  0  1  0  0  3  0  0  0  0  0  0
  184.6300  173.2340  137.9630 C   0  0  0  0  0  1  0  0  0  0  0  0
  183.7990  173.0450  136.7120 C   0  0  2  0  0  3  0  0  0  0  0  0
  184.6640  174.4620  135.0160 N   0  0  0  0  0  2  0  0  0  0  0  0
  183.4290  175.0230  135.4020 N   0  0  0  0  0  0  0  0  0  0  0  0
  181.4990  173.7310  136.1860 C   0  0  0  0  0  2  0  0  0  0  0  0
  180.7090  173.4610  137.4540 C   0  0  0  0  0  1  0  0  0  0  0  0
  188.9890  178.6990  139.7850 C   0  0  0  0  0  2  0  0  0  0  0  0
  187.5810  178.6490  140.3640 C   0  0  1  0  0  3  0  0  0  0  0  0
  186.9970  177.2600  140.1840 C   0  0  0  0  0  1  0  0  0  0  0  0
  187.5520  179.0760  141.8290 C   0  0  0  0  0  2  0  0  0  0  0  0
  187.4390  177.9250  142.7160 N   0  0  0  0  0  2  0  0  0  0  0  0
  187.8030  178.3630  144.0610 C   0  0  2  0  0  3  0  0  0  0  0  0
  189.5160  176.4670  143.8910 C   0  0  0  0  0  2  0  0  0  0  0  0
  190.9790  176.5630  143.6750 C   0  0  0  0  0  0  0  0  0  0  0  0
  191.7410  175.5040  143.4110 C   0  0  0  0  0  2  0  0  0  0  0  0
  191.5350  177.9080  143.9630 C   0  0  0  0  0  2  0  0  0  0  0  0
  190.2970  178.7760  144.1460 C   0  0  0  0  0  2  0  0  0  0  0  0
  189.1630  177.8200  144.5000 C   0  0  1  0  0  3  0  0  0  0  0  0
  186.7110  178.0490  145.0940 C   0  0  2  0  0  3  0  0  0  0  0  0
  184.1860  178.0820  144.5230 C   0  0  0  0  0  1  0  0  0  0  0  0
  185.4370  178.8220  144.8580 C   0  0  0  0  0  0  0  0  0  0  0  0
  185.4170  180.0410  144.9410 O   0  0  0  0  0  0  0  0  0  0  0  0
  187.2600  178.1350  146.5340 C   0  0  1  0  0  3  0  0  0  0  0  0
  186.1650  177.9910  147.5790 C   0  0  0  0  0  1  0  0  0  0  0  0
  188.2250  177.0600  146.7510 N   0  0  0  0  0  2  0  0  0  0  0  0
  189.4020  177.2000  147.5440 C   0  0  0  0  0  0  0  0  0  0  0  0
  189.6120  178.2480  148.2070 O   0  0  0  0  0  0  0  0  0  0  0  0
  190.3770  176.0760  147.6100 C   0  0  0  0  0  2  0  0  0  0  0  0
  191.7230  176.5640  147.3750 N   0  0  0  0  0  2  0  0  0  0  0  0
  192.6260  175.7120  148.1290 C   0  0  0  0  0  1  0  0  0  0  0  0
  1 43  1  0  0  0  0
  2  1  1  0  0  0  0
  2  4  1  0  0  0  0
  4  3  1  1  0  0  0
  5  4  1  0  0  0  0
  6  5  1  0  0  0  0
  6  7  1  1  0  0  0
  8  6  1  0  0  0  0
 10  9  1  6  0  0  0
 10  8  1  0  0  0  0
 10 11  1  0  0  0  0
 12 10  1  0  0  0  0
 12 11  1  0  0  0  0
 13  1  1  0  0  0  0
 14 15  1  0  0  0  0
 14 13  1  0  0  0  0
 16 17  1  0  0  0  0
 16 15  1  0  0  0  0
 17 19  1  1  0  0  0
 18 20  1  0  0  0  0
 19 18  2  0  0  0  0
 21 27  1  1  0  0  0
 21 22  1  0  0  0  0
 21 23  1  0  0  0  0
 22 28  1  1  0  0  0
 22 23  1  0  0  0  0
 23 20  1  6  0  0  0
 23 24  1  0  0  0  0
 25 24  1  0  0  0  0
 26 27  1  0  0  0  0
 29 30  1  0  0  0  0
 30 32  1  0  0  0  0
 30 31  2  0  0  0  0
 31 28  1  0  0  0  0
 33 34  1  6  0  0  0
 33 17  1  0  0  0  0
 35 38  1  0  0  0  0
 36 41  1  6  0  0  0
 36 38  1  0  0  0  0
 38 37  1  1  0  0  0
 39 40  1  0  0  0  0
 39 35  1  0  0  0  0
 40 33  1  0  0  0  0
 40 36  1  0  0  0  0
 41 42  1  0  0  0  0
 43 44  1  0  0  0  0
 44 45  1  1  0  0  0
 44 46  1  0  0  0  0
 46 47  1  0  0  0  0
 48 47  1  6  0  0  0
 48 55  1  0  0  0  0
 49 54  1  0  0  0  0
 50 49  1  0  0  0  0
 50 52  1  0  0  0  0
 51 50  2  0  0  0  0
 52 53  1  0  0  0  0
 53 54  1  0  0  0  0
 54 48  1  6  0  0  0
 55 57  1  1  0  0  0
 55 59  1  0  0  0  0
 56 57  1  0  0  0  0
 57 58  2  0  0  0  0
 59 61  1  0  0  0  0
 59 60  1  1  0  0  0
 61 62  1  0  0  0  0
 62 64  1  0  0  0  0
 62 63  2  0  0  0  0
 65 64  1  0  0  0  0
 65 66  1  0  0  0  0
M  END
>  <MODEL>
2

>  <REMARK>
 VINA RESULT:      -5.0      3.235      8.572
  Name = 
  33 active torsions:
  status: ('A' for Active; 'I' for Inactive)
    1  A    between atoms: C_1  and  C_27
    2  A    between atoms: C_1  and  C_48
    3  A    between atoms: N_2  and  C_13
    4  A    between atoms: C_4  and  C_55
    5  A    between atoms: O_5  and  N_37
    6  A    between atoms: O_5  and  C_54
    7  A    between atoms: C_6  and  C_31
    8  A    between atoms: C_6  and  N_51
    9  A    between atoms: C_9  and  C_17
   10  A    between atoms: N_10  and  C_35
   11  A    between atoms: C_11  and  C_33
   12  A    between atoms: C_11  and  C_50
   13  A    between atoms: C_13  and  C_44
   14  A    between atoms: C_14  and  C_22
   15  A    between atoms: C_14  and  C_33
   16  A    between atoms: C_19  and  C_44
   17  A    between atoms: C_19  and  C_56
   18  A    between atoms: C_19  and  N_58
   19  A    between atoms: N_24  and  C_27
   20  A    between atoms: N_24  and  C_57
   21  A    between atoms: N_24  and  C_66
   22  A    between atoms: C_25  and  C_29
   23  A    between atoms: C_25  and  O_41
   24  A    between atoms: C_28  and  C_65
   25  A    between atoms: C_29  and  C_66
   26  A    between atoms: C_31  and  C_36
   27  A    between atoms: C_31  and  O_41
   28  A    between atoms: C_34  and  C_35
   29  A    between atoms: C_44  and  C_59
   30  A    between atoms: O_47  and  C_53
   31  A    between atoms: C_48  and  N_58
   32  A    between atoms: C_50  and  C_57
   33  A    between atoms: C_55  and  C_65
                            x       y       z     vdW  Elec       q    Type
                         _______ _______ _______ _____ _____    ______ ____

>  <TORSDO>
F 33

$$$$
=
 OpenBabel11062411033D

 66 69  0  0  1  0  0  0  0  0999 V2000
  187.7940  177.7560  137.4170 N   0  0  0  0  0  0  0  0  0  0  0  0
  188.4280  176.4650  137.1690 C   0  0  0  0  0  2  0  0  0  0  0  0
  187.8000  176.9500  134.9030 O   0  0  0  0  0  1  0  0  0  0  0  0
  188.7290  176.2690  135.6900 C   0  0  2  0  0  3  0  0  0  0  0  0
  188.7500  174.7890  135.3340 C   0  0  0  0  0  2  0  0  0  0  0  0
  189.9560  174.1140  135.9760 C   0  0  1  0  0  3  0  0  0  0  0  0
  190.0270  172.7860  135.6000 F   0  0  0  0  0  0  0  0  0  0  0  0
  191.2590  174.8440  135.6600 C   0  0  0  0  0  2  0  0  0  0  0  0
  191.5980  174.8300  138.1570 F   0  0  0  0  0  0  0  0  0  0  0  0
  192.1190  175.0590  136.8970 C   0  0  2  0  0  0  0  0  0  0  0  0
  192.7760  176.2970  136.8480 O   0  0  0  0  0  0  0  0  0  0  0  0
  193.5840  175.1470  136.7480 C   0  0  0  0  0  2  0  0  0  0  0  0
  188.6970  178.4860  138.2930 C   0  0  0  0  0  2  0  0  0  0  0  0
  189.9670  177.6920  138.5040 C   0  0  0  0  0  2  0  0  0  0  0  0
  190.4110  177.8640  139.9410 C   0  0  0  0  0  2  0  0  0  0  0  0
  189.3030  178.0630  140.7650 O   0  0  0  0  0  0  0  0  0  0  0  0
  189.2450  176.9290  141.5840 C   0  0  1  0  0  3  0  0  0  0  0  0
  190.1930  177.5340  143.7760 C   0  0  0  0  0  3  0  0  0  0  0  0
  190.3680  176.9900  142.5750 C   0  0  0  0  0  3  0  0  0  0  0  0
  191.3340  177.6440  144.7330 C   0  0  0  0  0  2  0  0  0  0  0  0
  189.6600  177.5090  146.6640 C   0  0  1  0  0  3  0  0  0  0  0  0
  191.0060  177.9560  147.2520 C   0  0  2  0  0  3  0  0  0  0  0  0
  190.9720  177.0010  146.0660 C   0  0  2  0  0  0  0  0  0  0  0  0
  191.3300  175.5300  146.2990 C   0  0  0  0  0  2  0  0  0  0  0  0
  192.0990  174.9690  145.1140 C   0  0  0  0  0  1  0  0  0  0  0  0
  187.7510  177.0280  147.6770 C   0  0  0  0  0  1  0  0  0  0  0  0
  189.0400  176.5350  147.4570 O   0  0  0  0  0  0  0  0  0  0  0  0
  191.2970  177.2830  148.4730 O   0  0  0  0  0  0  0  0  0  0  0  0
  194.4660  177.2500  150.3660 C   0  0  0  0  0  1  0  0  0  0  0  0
  193.3070  176.7960  149.5530 C   0  0  0  0  0  0  0  0  0  0  0  0
  192.3960  177.6520  149.2160 N   0  0  0  0  0  0  0  0  0  0  0  0
  193.2090  175.3600  149.1520 C   0  0  0  0  0  1  0  0  0  0  0  0
  187.8970  176.8360  142.3290 C   0  0  1  0  0  3  0  0  0  0  0  0
  187.9360  175.9430  143.5720 C   0  0  0  0  0  1  0  0  0  0  0  0
  185.7550  179.4810  141.5350 C   0  0  0  0  0  2  0  0  0  0  0  0
  186.1110  178.0970  143.4080 C   0  0  1  0  0  3  0  0  0  0  0  0
  184.0430  177.7950  142.0990 C   0  0  0  0  0  1  0  0  0  0  0  0
  185.0190  178.8090  142.6570 C   0  0  2  0  0  3  0  0  0  0  0  0
  186.9970  178.7460  141.3470 N   0  0  0  0  0  2  0  0  0  0  0  0
  187.3320  178.1710  142.5910 N   0  0  0  0  0  0  0  0  0  0  0  0
  186.3300  178.8090  144.7350 C   0  0  0  0  0  2  0  0  0  0  0  0
  185.0010  179.1590  145.3780 C   0  0  0  0  0  1  0  0  0  0  0  0
  186.5840  177.4930  138.1850 C   0  0  0  0  0  2  0  0  0  0  0  0
  185.3480  177.8720  137.3790 C   0  0  1  0  0  3  0  0  0  0  0  0
  184.7750  176.6420  136.7010 C   0  0  0  0  0  1  0  0  0  0  0  0
  184.2980  178.5680  138.2420 C   0  0  0  0  0  2  0  0  0  0  0  0
  183.2500  177.6430  138.6530 N   0  0  0  0  0  2  0  0  0  0  0  0
  181.9750  178.1830  138.1910 C   0  0  2  0  0  3  0  0  0  0  0  0
  181.6320  180.7000  137.8590 C   0  0  0  0  0  2  0  0  0  0  0  0
  180.5360  181.5560  138.3710 C   0  0  0  0  0  0  0  0  0  0  0  0
  180.3570  182.8140  137.9740 C   0  0  0  0  0  2  0  0  0  0  0  0
  179.7800  180.9460  139.4930 C   0  0  0  0  0  2  0  0  0  0  0  0
  180.2880  179.5110  139.5300 C   0  0  0  0  0  2  0  0  0  0  0  0
  181.6470  179.5300  138.8380 C   0  0  1  0  0  3  0  0  0  0  0  0
  180.8210  177.1830  138.3560 C   0  0  2  0  0  3  0  0  0  0  0  0
  182.5070  175.6400  139.5720 C   0  0  0  0  0  1  0  0  0  0  0  0
  181.1070  176.1180  139.3850 C   0  0  0  0  0  0  0  0  0  0  0  0
  180.2090  175.6470  140.0680 O   0  0  0  0  0  0  0  0  0  0  0  0
  180.3420  176.6490  136.9900 C   0  0  1  0  0  3  0  0  0  0  0  0
  180.0590  177.7670  135.9990 C   0  0  0  0  0  1  0  0  0  0  0  0
  181.3790  175.7960  136.4120 N   0  0  0  0  0  2  0  0  0  0  0  0
  181.3150  174.3710  136.3960 C   0  0  0  0  0  0  0  0  0  0  0  0
  180.2820  173.7680  136.7850 O   0  0  0  0  0  0  0  0  0  0  0  0
  182.4760  173.5930  135.8830 C   0  0  0  0  0  2  0  0  0  0  0  0
  183.2960  173.1270  136.9850 N   0  0  0  0  0  2  0  0  0  0  0  0
  183.2280  171.6760  136.9880 C   0  0  0  0  0  1  0  0  0  0  0  0
  1 43  1  0  0  0  0
  1 13  1  0  0  0  0
  2  1  1  0  0  0  0
  4  3  1  6  0  0  0
  4  2  1  0  0  0  0
  5  4  1  0  0  0  0
  5  6  1  0  0  0  0
  6  7  1  6  0  0  0
  8  6  1  0  0  0  0
  8 10  1  0  0  0  0
 10  9  1  1  0  0  0
 11 10  1  0  0  0  0
 12 11  1  0  0  0  0
 12 10  1  0  0  0  0
 13 14  1  0  0  0  0
 14 15  1  0  0  0  0
 15 16  1  0  0  0  0
 16 17  1  0  0  0  0
 17 33  1  0  0  0  0
 17 19  1  1  0  0  0
 18 20  1  0  0  0  0
 19 18  2  0  0  0  0
 21 22  1  0  0  0  0
 21 27  1  1  0  0  0
 22 28  1  1  0  0  0
 23 20  1  6  0  0  0
 23 24  1  0  0  0  0
 23 21  1  0  0  0  0
 23 22  1  0  0  0  0
 25 24  1  0  0  0  0
 27 26  1  0  0  0  0
 28 31  1  0  0  0  0
 30 29  1  0  0  0  0
 31 30  2  0  0  0  0
 32 30  1  0  0  0  0
 33 40  1  0  0  0  0
 33 34  1  1  0  0  0
 35 38  1  0  0  0  0
 36 41  1  1  0  0  0
 38 37  1  6  0  0  0
 38 36  1  0  0  0  0
 39 35  1  0  0  0  0
 39 40  1  0  0  0  0
 40 36  1  0  0  0  0
 41 42  1  0  0  0  0
 44 45  1  1  0  0  0
 44 43  1  0  0  0  0
 44 46  1  0  0  0  0
 46 47  1  0  0  0  0
 48 55  1  0  0  0  0
 48 47  1  1  0  0  0
 49 50  1  0  0  0  0
 49 54  1  0  0  0  0
 50 52  1  0  0  0  0
 51 50  2  0  0  0  0
 52 53  1  0  0  0  0
 54 48  1  6  0  0  0
 54 53  1  0  0  0  0
 55 57  1  1  0  0  0
 57 56  1  0  0  0  0
 57 58  2  0  0  0  0
 59 60  1  6  0  0  0
 59 55  1  0  0  0  0
 61 59  1  0  0  0  0
 62 61  1  0  0  0  0
 62 63  2  0  0  0  0
 64 62  1  0  0  0  0
 64 65  1  0  0  0  0
 65 66  1  0  0  0  0
M  END
>  <MODEL>
3

>  <REMARK>
 VINA RESULT:      -4.9      3.254     10.135
  Name = 
  33 active torsions:
  status: ('A' for Active; 'I' for Inactive)
    1  A    between atoms: C_1  and  C_27
    2  A    between atoms: C_1  and  C_48
    3  A    between atoms: N_2  and  C_13
    4  A    between atoms: C_4  and  C_55
    5  A    between atoms: O_5  and  N_37
    6  A    between atoms: O_5  and  C_54
    7  A    between atoms: C_6  and  C_31
    8  A    between atoms: C_6  and  N_51
    9  A    between atoms: C_9  and  C_17
   10  A    between atoms: N_10  and  C_35
   11  A    between atoms: C_11  and  C_33
   12  A    between atoms: C_11  and  C_50
   13  A    between atoms: C_13  and  C_44
   14  A    between atoms: C_14  and  C_22
   15  A    between atoms: C_14  and  C_33
   16  A    between atoms: C_19  and  C_44
   17  A    between atoms: C_19  and  C_56
   18  A    between atoms: C_19  and  N_58
   19  A    between atoms: N_24  and  C_27
   20  A    between atoms: N_24  and  C_57
   21  A    between atoms: N_24  and  C_66
   22  A    between atoms: C_25  and  C_29
   23  A    between atoms: C_25  and  O_41
   24  A    between atoms: C_28  and  C_65
   25  A    between atoms: C_29  and  C_66
   26  A    between atoms: C_31  and  C_36
   27  A    between atoms: C_31  and  O_41
   28  A    between atoms: C_34  and  C_35
   29  A    between atoms: C_44  and  C_59
   30  A    between atoms: O_47  and  C_53
   31  A    between atoms: C_48  and  N_58
   32  A    between atoms: C_50  and  C_57
   33  A    between atoms: C_55  and  C_65
                            x       y       z     vdW  Elec       q    Type
                         _______ _______ _______ _____ _____    ______ ____

>  <TORSDO>
F 33

$$$$
=
 OpenBabel11062411033D

 66 69  0  0  1  0  0  0  0  0999 V2000
  188.9530  178.0280  139.5280 N   0  0  0  0  0  0  0  0  0  0  0  0
  190.3820  177.7420  139.4450 C   0  0  0  0  0  2  0  0  0  0  0  0
  191.9360  175.9330  139.1620 O   0  0  0  0  0  1  0  0  0  0  0  0
  190.6380  176.3560  138.8690 C   0  0  2  0  0  3  0  0  0  0  0  0
  190.3950  176.3420  137.3670 C   0  0  0  0  0  2  0  0  0  0  0  0
  190.8120  174.9970  136.7830 C   0  0  1  0  0  3  0  0  0  0  0  0
  192.1010  174.6790  137.1650 F   0  0  0  0  0  0  0  0  0  0  0  0
  189.8380  173.8830  137.1580 C   0  0  0  0  0  2  0  0  0  0  0  0
  187.7750  174.6000  135.8990 F   0  0  0  0  0  0  0  0  0  0  0  0
  188.7720  173.6610  136.0930 C   0  0  2  0  0  0  0  0  0  0  0  0
  188.2310  172.3710  136.1810 O   0  0  0  0  0  0  0  0  0  0  0  0
  189.0070  172.6560  135.0390 C   0  0  0  0  0  2  0  0  0  0  0  0
  188.6950  179.0770  138.5540 C   0  0  0  0  0  2  0  0  0  0  0  0
  188.1670  178.4730  137.2710 C   0  0  0  0  0  2  0  0  0  0  0  0
  186.9930  177.5780  137.6060 C   0  0  0  0  0  2  0  0  0  0  0  0
  186.2220  177.3510  136.4660 O   0  0  0  0  0  0  0  0  0  0  0  0
  185.0190  176.8110  136.9370 C   0  0  1  0  0  3  0  0  0  0  0  0
  183.2260  177.8840  138.2420 C   0  0  0  0  0  3  0  0  0  0  0  0
  184.5250  177.6510  138.0760 C   0  0  0  0  0  3  0  0  0  0  0  0
  182.7490  178.7700  139.3450 C   0  0  0  0  0  2  0  0  0  0  0  0
  180.6460  179.6350  140.5210 C   0  0  1  0  0  3  0  0  0  0  0  0
  180.7340  178.1260  140.7870 C   0  0  2  0  0  3  0  0  0  0  0  0
  181.2310  178.6970  139.4660 C   0  0  2  0  0  0  0  0  0  0  0  0
  180.4010  178.4510  138.2020 C   0  0  0  0  0  2  0  0  0  0  0  0
  180.6940  179.5090  137.1500 C   0  0  0  0  0  1  0  0  0  0  0  0
  179.4070  181.4280  140.1300 C   0  0  0  0  0  1  0  0  0  0  0  0
  179.3440  180.0330  140.1950 O   0  0  0  0  0  0  0  0  0  0  0  0
  179.4660  177.4920  140.6530 O   0  0  0  0  0  0  0  0  0  0  0  0
  179.1010  173.9000  141.4230 C   0  0  0  0  0  1  0  0  0  0  0  0
  179.3870  175.1610  140.6880 C   0  0  0  0  0  0  0  0  0  0  0  0
  179.2260  176.2950  141.2910 N   0  0  0  0  0  0  0  0  0  0  0  0
  179.8430  175.0940  139.2670 C   0  0  0  0  0  1  0  0  0  0  0  0
  183.9490  176.7570  135.8270 C   0  0  1  0  0  3  0  0  0  0  0  0
  184.2860  177.6090  134.6000 C   0  0  0  0  0  1  0  0  0  0  0  0
  184.7780  173.3950  135.3510 C   0  0  0  0  0  2  0  0  0  0  0  0
  183.2450  174.5860  136.6850 C   0  0  1  0  0  3  0  0  0  0  0  0
  185.1780  173.5180  137.7830 C   0  0  0  0  0  1  0  0  0  0  0  0
  184.1270  173.3680  136.7030 C   0  0  2  0  0  3  0  0  0  0  0  0
  184.7180  174.7720  134.8830 N   0  0  0  0  0  2  0  0  0  0  0  0
  183.5930  175.3680  135.4880 N   0  0  0  0  0  0  0  0  0  0  0  0
  181.7950  174.1330  136.6060 C   0  0  0  0  0  2  0  0  0  0  0  0
  181.1760  174.5510  135.2850 C   0  0  0  0  0  1  0  0  0  0  0  0
  188.7140  178.6070  140.8430 C   0  0  0  0  0  2  0  0  0  0  0  0
  187.2190  178.6900  141.1260 C   0  0  1  0  0  3  0  0  0  0  0  0
  186.5350  177.4140  140.6730 C   0  0  0  0  0  1  0  0  0  0  0  0
  186.9340  178.9790  142.5980 C   0  0  0  0  0  2  0  0  0  0  0  0
  187.2260  177.8210  143.4320 N   0  0  0  0  0  2  0  0  0  0  0  0
  187.9290  178.2960  144.6210 C   0  0  2  0  0  3  0  0  0  0  0  0
  189.6800  176.6480  143.7410 C   0  0  0  0  0  2  0  0  0  0  0  0
  191.0510  176.9310  143.2560 C   0  0  0  0  0  0  0  0  0  0  0  0
  191.8030  176.0210  142.6420 C   0  0  0  0  0  2  0  0  0  0  0  0
  191.5700  178.2550  143.6830 C   0  0  0  0  0  2  0  0  0  0  0  0
  190.3500  178.9440  144.2780 C   0  0  0  0  0  2  0  0  0  0  0  0
  189.3840  177.8280  144.6610 C   0  0  1  0  0  3  0  0  0  0  0  0
  187.1880  177.9440  145.9190 C   0  0  2  0  0  3  0  0  0  0  0  0
  184.6270  177.6360  146.1370 C   0  0  0  0  0  1  0  0  0  0  0  0
  185.8030  178.5390  145.9880 C   0  0  0  0  0  0  0  0  0  0  0  0
  185.6350  179.7480  145.9260 O   0  0  0  0  0  0  0  0  0  0  0  0
  188.0680  178.2140  147.1580 C   0  0  1  0  0  3  0  0  0  0  0  0
  187.4610  177.6470  148.4320 C   0  0  0  0  0  1  0  0  0  0  0  0
  189.3740  177.5870  146.9720 N   0  0  0  0  0  2  0  0  0  0  0  0
  190.4420  177.6840  147.9130 C   0  0  0  0  0  0  0  0  0  0  0  0
  190.2670  178.2320  149.0320 O   0  0  0  0  0  0  0  0  0  0  0  0
  191.7700  177.1020  147.5750 C   0  0  0  0  0  2  0  0  0  0  0  0
  191.6070  175.9390  146.7230 N   0  0  0  0  0  2  0  0  0  0  0  0
  191.1930  174.8370  147.5740 C   0  0  0  0  0  1  0  0  0  0  0  0
  1 43  1  0  0  0  0
  2  1  1  0  0  0  0
  4  3  1  6  0  0  0
  4  2  1  0  0  0  0
  5  4  1  0  0  0  0
  6  8  1  0  0  0  0
  6  7  1  1  0  0  0
  6  5  1  0  0  0  0
 10  9  1  6  0  0  0
 10 11  1  0  0  0  0
 10  8  1  0  0  0  0
 12 10  1  0  0  0  0
 12 11  1  0  0  0  0
 13  1  1  0  0  0  0
 14 15  1  0  0  0  0
 14 13  1  0  0  0  0
 16 17  1  0  0  0  0
 16 15  1  0  0  0  0
 17 19  1  1  0  0  0
 18 20  1  0  0  0  0
 19 18  2  0  0  0  0
 20 23  1  0  0  0  0
 21 27  1  6  0  0  0
 21 22  1  0  0  0  0
 22 28  1  6  0  0  0
 23 24  1  6  0  0  0
 23 21  1  0  0  0  0
 23 22  1  0  0  0  0
 25 24  1  0  0  0  0
 26 27  1  0  0  0  0
 28 31  1  0  0  0  0
 30 31  2  0  0  0  0
 30 29  1  0  0  0  0
 32 30  1  0  0  0  0
 33 34  1  6  0  0  0
 33 17  1  0  0  0  0
 35 38  1  0  0  0  0
 36 41  1  6  0  0  0
 36 38  1  0  0  0  0
 38 37  1  1  0  0  0
 39 35  1  0  0  0  0
 39 40  1  0  0  0  0
 40 33  1  0  0  0  0
 40 36  1  0  0  0  0
 42 41  1  0  0  0  0
 43 44  1  0  0  0  0
 44 45  1  1  0  0  0
 44 46  1  0  0  0  0
 46 47  1  0  0  0  0
 48 47  1  6  0  0  0
 48 55  1  0  0  0  0
 49 54  1  0  0  0  0
 50 52  1  0  0  0  0
 50 49  1  0  0  0  0
 51 50  2  0  0  0  0
 52 53  1  0  0  0  0
 53 54  1  0  0  0  0
 54 48  1  6  0  0  0
 55 57  1  1  0  0  0
 55 59  1  0  0  0  0
 57 56  1  0  0  0  0
 58 57  2  0  0  0  0
 59 60  1  1  0  0  0
 61 59  1  0  0  0  0
 61 62  1  0  0  0  0
 62 63  2  0  0  0  0
 64 62  1  0  0  0  0
 65 66  1  0  0  0  0
 65 64  1  0  0  0  0
M  END
>  <MODEL>
4

>  <REMARK>
 VINA RESULT:      -4.3      3.559      8.757
  Name = 
  33 active torsions:
  status: ('A' for Active; 'I' for Inactive)
    1  A    between atoms: C_1  and  C_27
    2  A    between atoms: C_1  and  C_48
    3  A    between atoms: N_2  and  C_13
    4  A    between atoms: C_4  and  C_55
    5  A    between atoms: O_5  and  N_37
    6  A    between atoms: O_5  and  C_54
    7  A    between atoms: C_6  and  C_31
    8  A    between atoms: C_6  and  N_51
    9  A    between atoms: C_9  and  C_17
   10  A    between atoms: N_10  and  C_35
   11  A    between atoms: C_11  and  C_33
   12  A    between atoms: C_11  and  C_50
   13  A    between atoms: C_13  and  C_44
   14  A    between atoms: C_14  and  C_22
   15  A    between atoms: C_14  and  C_33
   16  A    between atoms: C_19  and  C_44
   17  A    between atoms: C_19  and  C_56
   18  A    between atoms: C_19  and  N_58
   19  A    between atoms: N_24  and  C_27
   20  A    between atoms: N_24  and  C_57
   21  A    between atoms: N_24  and  C_66
   22  A    between atoms: C_25  and  C_29
   23  A    between atoms: C_25  and  O_41
   24  A    between atoms: C_28  and  C_65
   25  A    between atoms: C_29  and  C_66
   26  A    between atoms: C_31  and  C_36
   27  A    between atoms: C_31  and  O_41
   28  A    between atoms: C_34  and  C_35
   29  A    between atoms: C_44  and  C_59
   30  A    between atoms: O_47  and  C_53
   31  A    between atoms: C_48  and  N_58
   32  A    between atoms: C_50  and  C_57
   33  A    between atoms: C_55  and  C_65
                            x       y       z     vdW  Elec       q    Type
                         _______ _______ _______ _____ _____    ______ ____

>  <TORSDO>
F 33

$$$$
=
 OpenBabel11062411033D

 66 69  0  0  1  0  0  0  0  0999 V2000
  187.0620  178.6070  139.9140 N   0  0  0  0  0  0  0  0  0  0  0  0
  187.2210  178.0130  138.5910 C   0  0  0  0  0  2  0  0  0  0  0  0
  188.6680  179.5930  137.5050 O   0  0  0  0  0  1  0  0  0  0  0  0
  188.6030  178.2960  138.0170 C   0  0  2  0  0  3  0  0  0  0  0  0
  188.9620  177.2780  136.9450 C   0  0  0  0  0  2  0  0  0  0  0  0
  187.8980  176.1880  136.8800 C   0  0  1  0  0  3  0  0  0  0  0  0
  187.2270  176.2360  135.6730 F   0  0  0  0  0  0  0  0  0  0  0  0
  188.4830  174.8000  137.1300 C   0  0  0  0  0  2  0  0  0  0  0  0
  186.7960  173.8650  135.5070 F   0  0  0  0  0  0  0  0  0  0  0  0
  188.0570  173.7930  136.0710 C   0  0  2  0  0  0  0  0  0  0  0  0
  188.3460  172.4820  136.4760 O   0  0  0  0  0  0  0  0  0  0  0  0
  189.0870  172.9880  135.3890 C   0  0  0  0  0  2  0  0  0  0  0  0
  187.1200  177.5040  140.8600 C   0  0  0  0  0  2  0  0  0  0  0  0
  188.2040  177.7570  141.8850 C   0  0  0  0  0  2  0  0  0  0  0  0
  189.3400  176.7900  141.6360 C   0  0  0  0  0  2  0  0  0  0  0  0
  189.6030  176.0500  142.7880 O   0  0  0  0  0  0  0  0  0  0  0  0
  190.8810  176.4470  143.1980 C   0  0  1  0  0  3  0  0  0  0  0  0
  191.9550  176.6440  140.9900 C   0  0  0  0  0  3  0  0  0  0  0  0
  191.5180  177.2390  142.0970 C   0  0  0  0  0  3  0  0  0  0  0  0
  192.6410  177.4330  139.9240 C   0  0  0  0  0  2  0  0  0  0  0  0
  193.2280  176.7910  137.5170 C   0  0  1  0  0  3  0  0  0  0  0  0
  192.5700  175.5680  138.1720 C   0  0  2  0  0  3  0  0  0  0  0  0
  193.4310  176.5090  139.0050 C   0  0  2  0  0  0  0  0  0  0  0  0
  194.8180  176.0330  139.4510 C   0  0  0  0  0  2  0  0  0  0  0  0
  195.0050  174.5560  139.1450 C   0  0  0  0  0  1  0  0  0  0  0  0
  194.0800  176.9100  135.4770 C   0  0  0  0  0  1  0  0  0  0  0  0
  194.3540  176.4380  136.7640 O   0  0  0  0  0  0  0  0  0  0  0  0
  193.2560  174.3640  137.8460 O   0  0  0  0  0  0  0  0  0  0  0  0
  192.6060  171.6520  135.4260 C   0  0  0  0  0  1  0  0  0  0  0  0
  193.3240  172.6490  136.2650 C   0  0  0  0  0  0  0  0  0  0  0  0
  192.6430  173.4170  137.0550 N   0  0  0  0  0  0  0  0  0  0  0  0
  194.8110  172.7530  136.1730 C   0  0  0  0  0  1  0  0  0  0  0  0
  190.8250  177.2940  144.4860 C   0  0  1  0  0  3  0  0  0  0  0  0
  190.7600  178.8030  144.2320 C   0  0  0  0  0  1  0  0  0  0  0  0
  189.7200  176.3200  147.6550 C   0  0  0  0  0  2  0  0  0  0  0  0
  189.0730  177.9270  146.0590 C   0  0  1  0  0  3  0  0  0  0  0  0
  190.1400  178.7020  148.1430 C   0  0  0  0  0  1  0  0  0  0  0  0
  189.1650  177.7090  147.5450 C   0  0  2  0  0  3  0  0  0  0  0  0
  190.4040  176.0390  146.4020 N   0  0  0  0  0  2  0  0  0  0  0  0
  189.7770  176.8140  145.4040 N   0  0  0  0  0  0  0  0  0  0  0  0
  187.6050  177.9210  145.6580 C   0  0  0  0  0  2  0  0  0  0  0  0
  187.3050  176.7410  144.7520 C   0  0  0  0  0  1  0  0  0  0  0  0
  185.7090  179.1430  139.9770 C   0  0  0  0  0  2  0  0  0  0  0  0
  184.7040  178.0260  140.2310 C   0  0  1  0  0  3  0  0  0  0  0  0
  183.8240  178.3810  141.4140 C   0  0  0  0  0  1  0  0  0  0  0  0
  183.8680  177.7210  138.9910 C   0  0  0  0  0  2  0  0  0  0  0  0
  182.4730  177.4780  139.3380 N   0  0  0  0  0  2  0  0  0  0  0  0
  181.6810  177.6270  138.1200 C   0  0  2  0  0  3  0  0  0  0  0  0
  181.0250  179.2090  136.2150 C   0  0  0  0  0  2  0  0  0  0  0  0
  180.6050  180.6270  136.2990 C   0  0  0  0  0  0  0  0  0  0  0  0
  180.1020  181.2940  135.2630 C   0  0  0  0  0  2  0  0  0  0  0  0
  180.9690  181.2800  137.5810 C   0  0  0  0  0  2  0  0  0  0  0  0
  181.4410  180.1230  138.4520 C   0  0  0  0  0  2  0  0  0  0  0  0
  181.8410  179.0100  137.4890 C   0  0  1  0  0  3  0  0  0  0  0  0
  180.2020  177.2740  138.3370 C   0  0  2  0  0  3  0  0  0  0  0  0
  179.2180  178.4630  140.4160 C   0  0  0  0  0  1  0  0  0  0  0  0
  179.8110  177.2440  139.7940 C   0  0  0  0  0  0  0  0  0  0  0  0
  179.9690  176.2360  140.4660 O   0  0  0  0  0  0  0  0  0  0  0  0
  179.8010  176.0170  137.5360 C   0  0  1  0  0  3  0  0  0  0  0  0
  178.9310  176.3510  136.3350 C   0  0  0  0  0  1  0  0  0  0  0  0
  181.0050  175.3530  137.0410 N   0  0  0  0  0  2  0  0  0  0  0  0
  181.1450  173.9370  136.9420 C   0  0  0  0  0  0  0  0  0  0  0  0
  180.1710  173.1750  137.1730 O   0  0  0  0  0  0  0  0  0  0  0  0
  182.4530  173.3580  136.5290 C   0  0  0  0  0  2  0  0  0  0  0  0
  183.4540  174.4040  136.4220 N   0  0  0  0  0  2  0  0  0  0  0  0
  184.2630  174.3480  137.6280 C   0  0  0  0  0  1  0  0  0  0  0  0
  1 43  1  0  0  0  0
  1 13  1  0  0  0  0
  2  1  1  0  0  0  0
  4  3  1  6  0  0  0
  4  2  1  0  0  0  0
  5  4  1  0  0  0  0
  6  7  1  6  0  0  0
  6  5  1  0  0  0  0
  6  8  1  0  0  0  0
 10  9  1  6  0  0  0
 10 11  1  0  0  0  0
 10  8  1  0  0  0  0
 12 10  1  0  0  0  0
 12 11  1  0  0  0  0
 13 14  1  0  0  0  0
 15 14  1  0  0  0  0
 15 16  1  0  0  0  0
 16 17  1  0  0  0  0
 17 19  1  6  0  0  0
 17 33  1  0  0  0  0
 18 19  2  0  0  0  0
 20 18  1  0  0  0  0
 21 27  1  6  0  0  0
 21 22  1  0  0  0  0
 21 23  1  0  0  0  0
 22 28  1  6  0  0  0
 22 23  1  0  0  0  0
 23 24  1  1  0  0  0
 23 20  1  0  0  0  0
 25 24  1  0  0  0  0
 26 27  1  0  0  0  0
 29 30  1  0  0  0  0
 30 31  2  0  0  0  0
 31 28  1  0  0  0  0
 32 30  1  0  0  0  0
 33 34  1  6  0  0  0
 33 40  1  0  0  0  0
 36 41  1  6  0  0  0
 36 38  1  0  0  0  0
 38 35  1  0  0  0  0
 38 37  1  6  0  0  0
 39 35  1  0  0  0  0
 40 36  1  0  0  0  0
 40 39  1  0  0  0  0
 42 41  1  0  0  0  0
 43 44  1  0  0  0  0
 44 45  1  1  0  0  0
 46 47  1  0  0  0  0
 46 44  1  0  0  0  0
 48 55  1  0  0  0  0
 48 47  1  1  0  0  0
 49 50  1  0  0  0  0
 49 54  1  0  0  0  0
 50 52  1  0  0  0  0
 51 50  2  0  0  0  0
 52 53  1  0  0  0  0
 54 48  1  1  0  0  0
 54 53  1  0  0  0  0
 55 57  1  1  0  0  0
 57 56  1  0  0  0  0
 57 58  2  0  0  0  0
 59 60  1  6  0  0  0
 59 55  1  0  0  0  0
 61 59  1  0  0  0  0
 62 61  1  0  0  0  0
 62 63  2  0  0  0  0
 64 62  1  0  0  0  0
 65 64  1  0  0  0  0
 65 66  1  0  0  0  0
M  END
>  <MODEL>
5

>  <REMARK>
 VINA RESULT:      -4.2      3.272      9.027
  Name = 
  33 active torsions:
  status: ('A' for Active; 'I' for Inactive)
    1  A    between atoms: C_1  and  C_27
    2  A    between atoms: C_1  and  C_48
    3  A    between atoms: N_2  and  C_13
    4  A    between atoms: C_4  and  C_55
    5  A    between atoms: O_5  and  N_37
    6  A    between atoms: O_5  and  C_54
    7  A    between atoms: C_6  and  C_31
    8  A    between atoms: C_6  and  N_51
    9  A    between atoms: C_9  and  C_17
   10  A    between atoms: N_10  and  C_35
   11  A    between atoms: C_11  and  C_33
   12  A    between atoms: C_11  and  C_50
   13  A    between atoms: C_13  and  C_44
   14  A    between atoms: C_14  and  C_22
   15  A    between atoms: C_14  and  C_33
   16  A    between atoms: C_19  and  C_44
   17  A    between atoms: C_19  and  C_56
   18  A    between atoms: C_19  and  N_58
   19  A    between atoms: N_24  and  C_27
   20  A    between atoms: N_24  and  C_57
   21  A    between atoms: N_24  and  C_66
   22  A    between atoms: C_25  and  C_29
   23  A    between atoms: C_25  and  O_41
   24  A    between atoms: C_28  and  C_65
   25  A    between atoms: C_29  and  C_66
   26  A    between atoms: C_31  and  C_36
   27  A    between atoms: C_31  and  O_41
   28  A    between atoms: C_34  and  C_35
   29  A    between atoms: C_44  and  C_59
   30  A    between atoms: O_47  and  C_53
   31  A    between atoms: C_48  and  N_58
   32  A    between atoms: C_50  and  C_57
   33  A    between atoms: C_55  and  C_65
                            x       y       z     vdW  Elec       q    Type
                         _______ _______ _______ _____ _____    ______ ____

>  <TORSDO>
F 33

$$$$
=
 OpenBabel11062411033D

 66 69  0  0  1  0  0  0  0  0999 V2000
  185.5980  178.7730  140.5050 N   0  0  0  0  0  0  0  0  0  0  0  0
  185.0240  179.4820  141.6430 C   0  0  0  0  0  2  0  0  0  0  0  0
  184.8150  177.2770  142.5720 O   0  0  0  0  0  1  0  0  0  0  0  0
  184.2260  178.5420  142.5370 C   0  0  2  0  0  3  0  0  0  0  0  0
  182.7810  178.4480  142.0710 C   0  0  0  0  0  2  0  0  0  0  0  0
  181.8370  178.7920  143.2170 C   0  0  1  0  0  3  0  0  0  0  0  0
  182.5500  179.2230  144.3200 F   0  0  0  0  0  0  0  0  0  0  0  0
  180.7870  179.8210  142.8060 C   0  0  0  0  0  2  0  0  0  0  0  0
  180.9120  180.3920  140.3540 F   0  0  0  0  0  0  0  0  0  0  0  0
  180.3350  179.6430  141.3630 C   0  0  2  0  0  0  0  0  0  0  0  0
  178.9360  179.6720  141.2650 O   0  0  0  0  0  0  0  0  0  0  0  0
  179.5650  178.4400  140.9940 C   0  0  0  0  0  2  0  0  0  0  0  0
  186.9730  179.2360  140.3950 C   0  0  0  0  0  2  0  0  0  0  0  0
  187.8190  178.6070  141.4800 C   0  0  0  0  0  2  0  0  0  0  0  0
  189.2410  178.4900  140.9770 C   0  0  0  0  0  2  0  0  0  0  0  0
  189.2460  178.1490  139.6240 O   0  0  0  0  0  0  0  0  0  0  0  0
  190.2950  177.2340  139.4780 C   0  0  1  0  0  3  0  0  0  0  0  0
  190.3470  176.9860  141.9290 C   0  0  0  0  0  3  0  0  0  0  0  0
  190.3990  176.4140  140.7280 C   0  0  0  0  0  3  0  0  0  0  0  0
  190.5110  176.1680  143.1670 C   0  0  0  0  0  2  0  0  0  0  0  0
  190.5330  176.2910  145.7230 C   0  0  1  0  0  3  0  0  0  0  0  0
  189.1290  176.6980  145.2550 C   0  0  2  0  0  3  0  0  0  0  0  0
  190.3450  177.0410  144.4050 C   0  0  2  0  0  0  0  0  0  0  0  0
  190.8140  178.4980  144.3490 C   0  0  0  0  0  2  0  0  0  0  0  0
  192.1410  178.6100  143.6150 C   0  0  0  0  0  1  0  0  0  0  0  0
  191.7930  176.3020  147.5440 C   0  0  0  0  0  1  0  0  0  0  0  0
  191.0120  177.1320  146.7350 O   0  0  0  0  0  0  0  0  0  0  0  0
  188.6420  177.8280  145.9720 O   0  0  0  0  0  0  0  0  0  0  0  0
  185.1790  178.0230  147.2380 C   0  0  0  0  0  1  0  0  0  0  0  0
  186.3640  178.1650  146.3510 C   0  0  0  0  0  0  0  0  0  0  0  0
  187.5100  177.7130  146.7490 N   0  0  0  0  0  0  0  0  0  0  0  0
  186.2130  178.8360  145.0250 C   0  0  0  0  0  1  0  0  0  0  0  0
  190.0760  176.3090  138.2630 C   0  0  1  0  0  3  0  0  0  0  0  0
  189.8220  177.0590  136.9520 C   0  0  0  0  0  1  0  0  0  0  0  0
  191.5880  173.5910  136.6690 C   0  0  0  0  0  2  0  0  0  0  0  0
  192.2510  175.7580  137.3120 C   0  0  1  0  0  3  0  0  0  0  0  0
  191.9540  175.2820  134.9100 C   0  0  0  0  0  1  0  0  0  0  0  0
  192.4550  174.7340  136.2290 C   0  0  2  0  0  3  0  0  0  0  0  0
  190.5790  174.1480  137.5590 N   0  0  0  0  0  2  0  0  0  0  0  0
  191.1390  175.2960  138.1560 N   0  0  0  0  0  0  0  0  0  0  0  0
  193.5270  175.8510  138.1370 C   0  0  0  0  0  2  0  0  0  0  0  0
  194.5970  174.9380  137.5680 C   0  0  0  0  0  1  0  0  0  0  0  0
  184.9000  179.2450  139.3170 C   0  0  0  0  0  2  0  0  0  0  0  0
  184.9290  178.1850  138.2230 C   0  0  1  0  0  3  0  0  0  0  0  0
  186.3390  177.6490  138.0590 C   0  0  0  0  0  1  0  0  0  0  0  0
  183.9370  177.0580  138.4970 C   0  0  0  0  0  2  0  0  0  0  0  0
  183.0850  176.8080  137.3400 N   0  0  0  0  0  2  0  0  0  0  0  0
  182.6540  175.4140  137.4000 C   0  0  2  0  0  3  0  0  0  0  0  0
  184.6250  175.1800  135.7820 C   0  0  0  0  0  2  0  0  0  0  0  0
  185.8700  174.3950  135.9530 C   0  0  0  0  0  0  0  0  0  0  0  0
  186.9110  174.5010  135.1300 C   0  0  0  0  0  2  0  0  0  0  0  0
  185.7760  173.3550  137.0080 C   0  0  0  0  0  2  0  0  0  0  0  0
  184.4590  173.6680  137.7040 C   0  0  0  0  0  2  0  0  0  0  0  0
  183.6370  174.4720  136.7030 C   0  0  1  0  0  3  0  0  0  0  0  0
  181.2230  175.2210  136.8780 C   0  0  2  0  0  3  0  0  0  0  0  0
  181.1980  173.1910  135.2710 C   0  0  0  0  0  1  0  0  0  0  0  0
  180.8840  173.7760  136.6060 C   0  0  0  0  0  0  0  0  0  0  0  0
  180.3620  173.0820  137.4650 O   0  0  0  0  0  0  0  0  0  0  0  0
  180.9150  176.1860  135.7130 C   0  0  1  0  0  3  0  0  0  0  0  0
  179.5690  175.9000  135.0670 C   0  0  0  0  0  1  0  0  0  0  0  0
  180.8850  177.5580  136.2150 N   0  0  0  0  0  2  0  0  0  0  0  0
  179.8410  178.0790  137.0350 C   0  0  0  0  0  0  0  0  0  0  0  0
  178.9310  177.3290  137.4740 O   0  0  0  0  0  0  0  0  0  0  0  0
  179.8490  179.5230  137.4000 C   0  0  0  0  0  2  0  0  0  0  0  0
  179.2390  180.3110  136.3460 N   0  0  0  0  0  2  0  0  0  0  0  0
  178.9330  181.6160  136.9080 C   0  0  0  0  0  1  0  0  0  0  0  0
  1  2  1  0  0  0  0
  2  4  1  0  0  0  0
  4  3  1  6  0  0  0
  5  4  1  0  0  0  0
  5  6  1  0  0  0  0
  6  7  1  1  0  0  0
  8  6  1  0  0  0  0
 10  9  1  6  0  0  0
 10  8  1  0  0  0  0
 11 10  1  0  0  0  0
 12 11  1  0  0  0  0
 12 10  1  0  0  0  0
 13  1  1  0  0  0  0
 13 14  1  0  0  0  0
 15 14  1  0  0  0  0
 16 15  1  0  0  0  0
 17 16  1  0  0  0  0
 17 19  1  1  0  0  0
 18 20  1  0  0  0  0
 19 18  2  0  0  0  0
 21 27  1  1  0  0  0
 22 21  1  0  0  0  0
 22 28  1  1  0  0  0
 23 20  1  6  0  0  0
 23 22  1  0  0  0  0
 23 21  1  0  0  0  0
 24 23  1  0  0  0  0
 25 24  1  0  0  0  0
 27 26  1  0  0  0  0
 28 31  1  0  0  0  0
 30 31  2  0  0  0  0
 30 29  1  0  0  0  0
 32 30  1  0  0  0  0
 33 34  1  6  0  0  0
 33 17  1  0  0  0  0
 35 39  1  0  0  0  0
 36 41  1  1  0  0  0
 36 40  1  0  0  0  0
 38 37  1  6  0  0  0
 38 35  1  0  0  0  0
 38 36  1  0  0  0  0
 39 40  1  0  0  0  0
 40 33  1  0  0  0  0
 42 41  1  0  0  0  0
 43  1  1  0  0  0  0
 44 45  1  1  0  0  0
 44 46  1  0  0  0  0
 44 43  1  0  0  0  0
 47 46  1  0  0  0  0
 48 47  1  6  0  0  0
 49 50  1  0  0  0  0
 49 54  1  0  0  0  0
 50 52  1  0  0  0  0
 51 50  2  0  0  0  0
 52 53  1  0  0  0  0
 54 48  1  1  0  0  0
 54 53  1  0  0  0  0
 55 57  1  6  0  0  0
 55 48  1  0  0  0  0
 56 57  1  0  0  0  0
 57 58  2  0  0  0  0
 59 60  1  1  0  0  0
 59 61  1  0  0  0  0
 59 55  1  0  0  0  0
 61 62  1  0  0  0  0
 62 64  1  0  0  0  0
 62 63  2  0  0  0  0
 65 66  1  0  0  0  0
 65 64  1  0  0  0  0
M  END
>  <MODEL>
6

>  <REMARK>
 VINA RESULT:      -4.2      3.205      8.583
  Name = 
  33 active torsions:
  status: ('A' for Active; 'I' for Inactive)
    1  A    between atoms: C_1  and  C_27
    2  A    between atoms: C_1  and  C_48
    3  A    between atoms: N_2  and  C_13
    4  A    between atoms: C_4  and  C_55
    5  A    between atoms: O_5  and  N_37
    6  A    between atoms: O_5  and  C_54
    7  A    between atoms: C_6  and  C_31
    8  A    between atoms: C_6  and  N_51
    9  A    between atoms: C_9  and  C_17
   10  A    between atoms: N_10  and  C_35
   11  A    between atoms: C_11  and  C_33
   12  A    between atoms: C_11  and  C_50
   13  A    between atoms: C_13  and  C_44
   14  A    between atoms: C_14  and  C_22
   15  A    between atoms: C_14  and  C_33
   16  A    between atoms: C_19  and  C_44
   17  A    between atoms: C_19  and  C_56
   18  A    between atoms: C_19  and  N_58
   19  A    between atoms: N_24  and  C_27
   20  A    between atoms: N_24  and  C_57
   21  A    between atoms: N_24  and  C_66
   22  A    between atoms: C_25  and  C_29
   23  A    between atoms: C_25  and  O_41
   24  A    between atoms: C_28  and  C_65
   25  A    between atoms: C_29  and  C_66
   26  A    between atoms: C_31  and  C_36
   27  A    between atoms: C_31  and  O_41
   28  A    between atoms: C_34  and  C_35
   29  A    between atoms: C_44  and  C_59
   30  A    between atoms: O_47  and  C_53
   31  A    between atoms: C_48  and  N_58
   32  A    between atoms: C_50  and  C_57
   33  A    between atoms: C_55  and  C_65
                            x       y       z     vdW  Elec       q    Type
                         _______ _______ _______ _____ _____    ______ ____

>  <TORSDO>
F 33

$$$$
=
 OpenBabel11062411033D

 66 69  0  0  1  0  0  0  0  0999 V2000
  186.5800  178.4110  138.6870 N   0  0  0  0  0  0  0  0  0  0  0  0
  185.8690  178.2970  139.9560 C   0  0  0  0  0  2  0  0  0  0  0  0
  187.5950  177.7260  141.5250 O   0  0  0  0  0  1  0  0  0  0  0  0
  186.7370  178.7500  141.1210 C   0  0  2  0  0  3  0  0  0  0  0  0
  185.8770  179.2190  142.2860 C   0  0  0  0  0  2  0  0  0  0  0  0
  186.0140  178.2540  143.4590 C   0  0  1  0  0  3  0  0  0  0  0  0
  187.3260  178.1960  143.8890 F   0  0  0  0  0  0  0  0  0  0  0  0
  185.0740  178.6120  144.6070 C   0  0  0  0  0  2  0  0  0  0  0  0
  186.1890  176.9640  146.1550 F   0  0  0  0  0  0  0  0  0  0  0  0
  185.6410  178.2200  145.9640 C   0  0  2  0  0  0  0  0  0  0  0  0
  184.7450  178.5330  146.9960 O   0  0  0  0  0  0  0  0  0  0  0  0
  185.9420  179.2750  146.9500 C   0  0  0  0  0  2  0  0  0  0  0  0
  186.4770  177.1070  138.0490 C   0  0  0  0  0  2  0  0  0  0  0  0
  185.8420  177.2480  136.6840 C   0  0  0  0  0  2  0  0  0  0  0  0
  184.3390  177.3020  136.8530 C   0  0  0  0  0  2  0  0  0  0  0  0
  183.8440  176.0350  137.1600 O   0  0  0  0  0  0  0  0  0  0  0  0
  182.8870  176.2450  138.1600 C   0  0  1  0  0  3  0  0  0  0  0  0
  181.8160  177.8630  136.6420 C   0  0  0  0  0  3  0  0  0  0  0  0
  182.1710  177.5320  137.8810 C   0  0  0  0  0  3  0  0  0  0  0  0
  181.1560  179.1730  136.3660 C   0  0  0  0  0  2  0  0  0  0  0  0
  182.1680  180.7900  138.0730 C   0  0  1  0  0  3  0  0  0  0  0  0
  181.8420  179.4850  138.8130 C   0  0  2  0  0  3  0  0  0  0  0  0
  180.9590  179.9500  137.6620 C   0  0  2  0  0  0  0  0  0  0  0  0
  179.5690  180.5100  137.9830 C   0  0  0  0  0  2  0  0  0  0  0  0
  178.9320  181.1180  136.7440 C   0  0  0  0  0  1  0  0  0  0  0  0
  181.9220  182.9860  137.9180 C   0  0  0  0  0  1  0  0  0  0  0  0
  181.7890  181.9180  138.8110 O   0  0  0  0  0  0  0  0  0  0  0  0
  181.2430  179.7340  140.0810 O   0  0  0  0  0  0  0  0  0  0  0  0
  179.5350  177.5040  142.4780 C   0  0  0  0  0  1  0  0  0  0  0  0
  180.4390  178.5470  141.9210 C   0  0  0  0  0  0  0  0  0  0  0  0
  180.4200  178.7870  140.6490 N   0  0  0  0  0  0  0  0  0  0  0  0
  181.3590  179.2860  142.8370 C   0  0  0  0  0  1  0  0  0  0  0  0
  181.8710  175.0850  138.2250 C   0  0  1  0  0  3  0  0  0  0  0  0
  180.5060  175.4890  138.7900 C   0  0  0  0  0  1  0  0  0  0  0  0
  181.9090  172.1570  136.3190 C   0  0  0  0  0  2  0  0  0  0  0  0
  180.4050  173.9390  136.6510 C   0  0  1  0  0  3  0  0  0  0  0  0
  179.8350  171.7290  137.5840 C   0  0  0  0  0  1  0  0  0  0  0  0
  180.4410  172.4560  136.4020 C   0  0  2  0  0  3  0  0  0  0  0  0
  182.5980  173.2280  137.0240 N   0  0  0  0  0  2  0  0  0  0  0  0
  181.7810  174.3740  136.9390 N   0  0  0  0  0  0  0  0  0  0  0  0
  179.8950  174.6280  135.3930 C   0  0  0  0  0  2  0  0  0  0  0  0
  181.0470  175.2320  134.6110 C   0  0  0  0  0  1  0  0  0  0  0  0
  187.9870  178.6110  139.0070 C   0  0  0  0  0  2  0  0  0  0  0  0
  188.8620  178.2730  137.8070 C   0  0  1  0  0  3  0  0  0  0  0  0
  189.0820  179.5130  136.9610 C   0  0  0  0  0  1  0  0  0  0  0  0
  190.1890  177.6470  138.2280 C   0  0  0  0  0  2  0  0  0  0  0  0
  190.4520  177.8620  139.6450 N   0  0  0  0  0  2  0  0  0  0  0  0
  191.0230  176.6310  140.1830 C   0  0  2  0  0  3  0  0  0  0  0  0
  191.2050  178.1310  142.2500 C   0  0  0  0  0  2  0  0  0  0  0  0
  190.5860  177.9430  143.5830 C   0  0  0  0  0  0  0  0  0  0  0  0
  190.5930  178.8860  144.5220 C   0  0  0  0  0  2  0  0  0  0  0  0
  190.1280  176.5530  143.8340 C   0  0  0  0  0  2  0  0  0  0  0  0
  190.2580  175.8810  142.4740 C   0  0  0  0  0  2  0  0  0  0  0  0
  191.2660  176.7140  141.6900 C   0  0  1  0  0  3  0  0  0  0  0  0
  192.2890  176.1950  139.4310 C   0  0  2  0  0  3  0  0  0  0  0  0
  194.6780  176.3700  140.4130 C   0  0  0  0  0  1  0  0  0  0  0  0
  193.4980  177.0270  139.7820 C   0  0  0  0  0  0  0  0  0  0  0  0
  193.5230  178.2270  139.5520 O   0  0  0  0  0  0  0  0  0  0  0  0
  192.0220  176.0520  137.9180 C   0  0  1  0  0  3  0  0  0  0  0  0
  193.3070  175.9480  137.1120 C   0  0  0  0  0  1  0  0  0  0  0  0
  191.2460  174.8380  137.6740 N   0  0  0  0  0  2  0  0  0  0  0  0
  190.7030  174.4850  136.4030 C   0  0  0  0  0  0  0  0  0  0  0  0
  190.9710  175.1630  135.3780 O   0  0  0  0  0  0  0  0  0  0  0  0
  189.8340  173.2830  136.2870 C   0  0  0  0  0  2  0  0  0  0  0  0
  188.6840  173.4070  137.1640 N   0  0  0  0  0  2  0  0  0  0  0  0
  187.8980  172.1940  137.0150 C   0  0  0  0  0  1  0  0  0  0  0  0
  1 43  1  0  0  0  0
  1  2  1  0  0  0  0
  2  4  1  0  0  0  0
  4  3  1  1  0  0  0
  4  5  1  0  0  0  0
  5  6  1  0  0  0  0
  6  7  1  1  0  0  0
  6  8  1  0  0  0  0
  8 10  1  0  0  0  0
 10  9  1  1  0  0  0
 10 12  1  0  0  0  0
 10 11  1  0  0  0  0
 12 11  1  0  0  0  0
 13  1  1  0  0  0  0
 14 15  1  0  0  0  0
 14 13  1  0  0  0  0
 15 16  1  0  0  0  0
 16 17  1  0  0  0  0
 17 19  1  6  0  0  0
 17 33  1  0  0  0  0
 18 19  2  0  0  0  0
 20 18  1  0  0  0  0
 21 27  1  1  0  0  0
 21 22  1  0  0  0  0
 22 28  1  1  0  0  0
 23 20  1  6  0  0  0
 23 24  1  0  0  0  0
 23 21  1  0  0  0  0
 23 22  1  0  0  0  0
 25 24  1  0  0  0  0
 26 27  1  0  0  0  0
 28 31  1  0  0  0  0
 30 29  1  0  0  0  0
 30 32  1  0  0  0  0
 31 30  2  0  0  0  0
 33 34  1  6  0  0  0
 35 38  1  0  0  0  0
 35 39  1  0  0  0  0
 36 41  1  6  0  0  0
 36 40  1  0  0  0  0
 38 36  1  0  0  0  0
 38 37  1  1  0  0  0
 40 39  1  0  0  0  0
 40 33  1  0  0  0  0
 42 41  1  0  0  0  0
 44 45  1  1  0  0  0
 44 46  1  0  0  0  0
 44 43  1  0  0  0  0
 46 47  1  0  0  0  0
 48 47  1  6  0  0  0
 49 50  1  0  0  0  0
 50 52  1  0  0  0  0
 50 51  2  0  0  0  0
 53 52  1  0  0  0  0
 54 48  1  6  0  0  0
 54 49  1  0  0  0  0
 54 53  1  0  0  0  0
 55 57  1  6  0  0  0
 55 48  1  0  0  0  0
 57 56  1  0  0  0  0
 58 57  2  0  0  0  0
 59 60  1  6  0  0  0
 59 55  1  0  0  0  0
 61 59  1  0  0  0  0
 62 61  1  0  0  0  0
 63 62  2  0  0  0  0
 64 62  1  0  0  0  0
 64 65  1  0  0  0  0
 66 65  1  0  0  0  0
M  END
>  <MODEL>
7

>  <REMARK>
 VINA RESULT:      -3.7      3.010      9.473
  Name = 
  33 active torsions:
  status: ('A' for Active; 'I' for Inactive)
    1  A    between atoms: C_1  and  C_27
    2  A    between atoms: C_1  and  C_48
    3  A    between atoms: N_2  and  C_13
    4  A    between atoms: C_4  and  C_55
    5  A    between atoms: O_5  and  N_37
    6  A    between atoms: O_5  and  C_54
    7  A    between atoms: C_6  and  C_31
    8  A    between atoms: C_6  and  N_51
    9  A    between atoms: C_9  and  C_17
   10  A    between atoms: N_10  and  C_35
   11  A    between atoms: C_11  and  C_33
   12  A    between atoms: C_11  and  C_50
   13  A    between atoms: C_13  and  C_44
   14  A    between atoms: C_14  and  C_22
   15  A    between atoms: C_14  and  C_33
   16  A    between atoms: C_19  and  C_44
   17  A    between atoms: C_19  and  C_56
   18  A    between atoms: C_19  and  N_58
   19  A    between atoms: N_24  and  C_27
   20  A    between atoms: N_24  and  C_57
   21  A    between atoms: N_24  and  C_66
   22  A    between atoms: C_25  and  C_29
   23  A    between atoms: C_25  and  O_41
   24  A    between atoms: C_28  and  C_65
   25  A    between atoms: C_29  and  C_66
   26  A    between atoms: C_31  and  C_36
   27  A    between atoms: C_31  and  O_41
   28  A    between atoms: C_34  and  C_35
   29  A    between atoms: C_44  and  C_59
   30  A    between atoms: O_47  and  C_53
   31  A    between atoms: C_48  and  N_58
   32  A    between atoms: C_50  and  C_57
   33  A    between atoms: C_55  and  C_65
                            x       y       z     vdW  Elec       q    Type
                         _______ _______ _______ _____ _____    ______ ____

>  <TORSDO>
F 33

$$$$
