=
 OpenBabel11062416453D

 28 32  0  0  1  0  0  0  0  0999 V2000
  189.9180  177.3760  144.9430 N   0  0  0  0  0  0  0  0  0  0  0  0
  186.3140  178.2900  144.6610 C   0  0  0  0  0  2  0  0  0  0  0  0
  190.7420  175.7720  143.3390 C   0  0  0  0  0  3  0  0  0  0  0  0
  188.0010  177.5530  142.0550 C   0  0  2  0  0  3  0  0  0  0  0  0
  189.3370  175.4670  142.9070 C   0  0  0  0  0  2  0  0  0  0  0  0
  187.3420  178.7170  142.5040 O   0  0  0  0  0  0  0  0  0  0  0  0
  188.7000  177.3590  144.4920 C   0  0  0  0  0  0  0  0  0  0  0  0
  187.7120  178.2030  145.0980 N   0  0  0  0  0  2  0  0  0  0  0  0
  190.9830  176.6400  144.3230 C   0  0  0  0  0  3  0  0  0  0  0  0
  186.1500  178.3070  143.1270 C   0  0  2  0  0  3  0  0  0  0  0  0
  188.3610  176.6060  143.2300 C   0  0  1  0  0  3  0  0  0  0  0  0
  182.5540  178.4940  142.1850 O   0  0  0  0  0  0  0  0  0  0  0  0
  184.5310  178.9270  139.1100 C   0  0  2  0  0  3  0  0  0  0  0  0
  182.5960  178.8820  140.8160 C   0  0  1  0  0  3  0  0  0  0  0  0
  184.9750  179.2090  142.7020 C   0  0  2  0  0  3  0  0  0  0  0  0
  183.6070  178.6760  143.0950 C   0  0  0  0  0  0  0  0  0  0  0  0
  185.0550  179.6650  141.3650 O   0  0  0  0  0  0  0  0  0  0  0  0
  184.1210  180.2660  139.0540 O   0  0  0  0  0  1  0  0  0  0  0  0
  183.6820  178.0980  140.0770 C   0  0  2  0  0  3  0  0  0  0  0  0
  185.0810  178.5560  140.4870 C   0  0  1  0  0  3  0  0  0  0  0  0
  183.3950  178.3960  144.3040 O   0  0  0  0  0  0  0  0  0  0  0  0
  180.4770  177.5750  140.6030 O   0  0  0  0  0  1  0  0  0  0  0  0
  180.8750  179.3800  139.2480 O   0  0  0  0  0  0  0  0  0  0  0  0
  181.2700  178.6350  140.1820 C   0  0  0  0  0  0  0  0  0  0  0  0
  189.2160  177.9740  141.2410 C   0  0  0  0  0  2  0  0  0  0  0  0
  190.0910  178.1110  139.0470 O   0  0  0  0  0  0  0  0  0  0  0  0
  188.9710  177.7450  139.7600 C   0  0  0  0  0  3  0  0  0  0  0  0
  189.0390  178.9450  139.0870 O   0  0  0  0  0  0  0  0  0  0  0  0
  2  8  1  0  0  0  0
  3  9  2  0  0  0  0
  4 25  1  1  0  0  0
  4  6  1  0  0  0  0
  4 11  1  0  0  0  0
  5  3  1  0  0  0  0
  6 10  1  0  0  0  0
  7  1  2  0  0  0  0
  7  8  1  0  0  0  0
  9  1  1  0  0  0  0
 10  2  1  1  0  0  0
 11  5  1  6  0  0  0
 11  7  1  0  0  0  0
 12 16  1  0  0  0  0
 13 18  1  1  0  0  0
 13 19  1  0  0  0  0
 13 20  1  0  0  0  0
 14 24  1  6  0  0  0
 14 12  1  0  0  0  0
 15 17  1  6  0  0  0
 15 16  1  0  0  0  0
 15 10  1  0  0  0  0
 16 21  2  0  0  0  0
 19 20  1  0  0  0  0
 19 14  1  0  0  0  0
 20 17  1  0  0  0  0
 23 24  2  0  0  0  0
 24 22  1  0  0  0  0
 26 28  1  0  0  0  0
 26 27  1  0  0  0  0
 27 25  1  0  0  0  0
 28 27  1  0  0  0  0
M  END
>  <MODEL>
1

>  <REMARK>
 VINA RESULT:      -7.6      0.000      0.000
  Name = 
  4 active torsions:
  status: ('A' for Active; 'I' for Inactive)
    1  A    between atoms: C_4  and  C_12
    2  A    between atoms: C_5  and  C_27
    3  A    between atoms: C_14  and  C_15
    4  A    between atoms: C_14  and  C_16
                            x       y       z     vdW  Elec       q    Type
                         _______ _______ _______ _____ _____    ______ ____

>  <TORSDO>
F 4

$$$$
=
 OpenBabel11062416453D

 28 32  0  0  1  0  0  0  0  0999 V2000
  182.0860  179.7380  139.3130 N   0  0  0  0  0  0  0  0  0  0  0  0
  185.7430  179.0150  139.3870 C   0  0  0  0  0  2  0  0  0  0  0  0
  180.6710  178.2170  140.5410 C   0  0  0  0  0  3  0  0  0  0  0  0
  183.9070  178.3140  141.9010 C   0  0  2  0  0  3  0  0  0  0  0  0
  181.8210  177.2680  140.7110 C   0  0  0  0  0  2  0  0  0  0  0  0
  184.9910  179.1920  141.6890 O   0  0  0  0  0  0  0  0  0  0  0  0
  183.1870  179.1090  139.5960 C   0  0  0  0  0  0  0  0  0  0  0  0
  184.4350  179.6210  139.1120 N   0  0  0  0  0  2  0  0  0  0  0  0
  180.8110  179.3470  139.8470 C   0  0  0  0  0  3  0  0  0  0  0  0
  185.9020  178.5330  140.8440 C   0  0  2  0  0  3  0  0  0  0  0  0
  183.1820  177.9620  140.5760 C   0  0  1  0  0  3  0  0  0  0  0  0
  189.2810  177.0300  141.2620 O   0  0  0  0  0  0  0  0  0  0  0  0
  187.6920  177.1270  144.5810 C   0  0  2  0  0  3  0  0  0  0  0  0
  189.4190  176.9270  142.6760 C   0  0  1  0  0  3  0  0  0  0  0  0
  187.3470  178.7300  141.3420 C   0  0  2  0  0  3  0  0  0  0  0  0
  188.3780  177.8850  140.6130 C   0  0  0  0  0  0  0  0  0  0  0  0
  187.4770  178.7110  142.7510 O   0  0  0  0  0  0  0  0  0  0  0  0
  188.6070  178.1120  144.9740 O   0  0  0  0  0  1  0  0  0  0  0  0
  188.1210  176.4120  143.2980 C   0  0  2  0  0  3  0  0  0  0  0  0
  187.0190  177.4690  143.2520 C   0  0  1  0  0  3  0  0  0  0  0  0
  188.4420  177.9660  139.3580 O   0  0  0  0  0  0  0  0  0  0  0  0
  191.7990  176.5100  143.3160 O   0  0  0  0  0  1  0  0  0  0  0  0
  190.3550  174.7600  142.9850 O   0  0  0  0  0  0  0  0  0  0  0  0
  190.5430  176.0050  143.0060 C   0  0  0  0  0  0  0  0  0  0  0  0
  182.9800  178.9390  142.9340 C   0  0  0  0  0  2  0  0  0  0  0  0
  184.3130  178.5550  144.8500 O   0  0  0  0  0  0  0  0  0  0  0  0
  183.7820  179.5550  144.0660 C   0  0  0  0  0  3  0  0  0  0  0  0
  183.2200  179.2090  145.2750 O   0  0  0  0  0  0  0  0  0  0  0  0
  1  7  2  0  0  0  0
  1  9  1  0  0  0  0
  3  5  1  0  0  0  0
  4 25  1  1  0  0  0
  6  4  1  0  0  0  0
  7 11  1  0  0  0  0
  8  2  1  0  0  0  0
  8  7  1  0  0  0  0
  9  3  2  0  0  0  0
 10  2  1  6  0  0  0
 10 15  1  0  0  0  0
 10  6  1  0  0  0  0
 11  5  1  1  0  0  0
 11  4  1  0  0  0  0
 12 14  1  0  0  0  0
 13 18  1  6  0  0  0
 14 24  1  6  0  0  0
 14 19  1  0  0  0  0
 15 16  1  6  0  0  0
 15 17  1  0  0  0  0
 16 12  1  0  0  0  0
 17 20  1  0  0  0  0
 19 13  1  0  0  0  0
 20 19  1  0  0  0  0
 20 13  1  0  0  0  0
 21 16  2  0  0  0  0
 23 24  2  0  0  0  0
 24 22  1  0  0  0  0
 25 27  1  0  0  0  0
 26 28  1  0  0  0  0
 27 26  1  0  0  0  0
 27 28  1  0  0  0  0
M  END
>  <MODEL>
2

>  <REMARK>
 VINA RESULT:      -7.4      2.729      7.438
  Name = 
  4 active torsions:
  status: ('A' for Active; 'I' for Inactive)
    1  A    between atoms: C_4  and  C_12
    2  A    between atoms: C_5  and  C_27
    3  A    between atoms: C_14  and  C_15
    4  A    between atoms: C_14  and  C_16
                            x       y       z     vdW  Elec       q    Type
                         _______ _______ _______ _____ _____    ______ ____

>  <TORSDO>
F 4

$$$$
=
 OpenBabel11062416453D

 28 32  0  0  1  0  0  0  0  0999 V2000
  188.3110  177.3770  135.3850 N   0  0  0  0  0  0  0  0  0  0  0  0
  190.3680  177.1490  138.4870 C   0  0  0  0  0  2  0  0  0  0  0  0
  186.0420  176.5730  135.5480 C   0  0  0  0  0  3  0  0  0  0  0  0
  187.2250  177.6630  138.6690 C   0  0  2  0  0  3  0  0  0  0  0  0
  186.3420  175.9610  136.8840 C   0  0  0  0  0  2  0  0  0  0  0  0
  188.3660  178.4080  139.0350 O   0  0  0  0  0  0  0  0  0  0  0  0
  188.6120  177.0910  136.6170 C   0  0  0  0  0  0  0  0  0  0  0  0
  189.9210  177.3990  137.1120 N   0  0  0  0  0  2  0  0  0  0  0  0
  186.9920  177.1950  134.8480 C   0  0  0  0  0  3  0  0  0  0  0  0
  189.3080  177.5000  139.5510 C   0  0  2  0  0  3  0  0  0  0  0  0
  187.5480  176.6140  137.5730 C   0  0  1  0  0  3  0  0  0  0  0  0
  191.6850  176.8990  142.3510 O   0  0  0  0  0  0  0  0  0  0  0  0
  188.2760  176.6570  143.7190 C   0  0  2  0  0  3  0  0  0  0  0  0
  190.8380  176.8600  143.4950 C   0  0  1  0  0  3  0  0  0  0  0  0
  189.9630  178.0610  140.8270 C   0  0  2  0  0  3  0  0  0  0  0  0
  191.3390  177.4880  141.1260 C   0  0  0  0  0  0  0  0  0  0  0  0
  189.0990  178.1020  141.9470 O   0  0  0  0  0  0  0  0  0  0  0  0
  188.4910  177.8470  144.4250 O   0  0  0  0  0  1  0  0  0  0  0  0
  189.5780  176.0480  143.1930 C   0  0  2  0  0  3  0  0  0  0  0  0
  188.6440  176.7950  142.2410 C   0  0  1  0  0  3  0  0  0  0  0  0
  192.2260  177.5590  140.2350 O   0  0  0  0  0  0  0  0  0  0  0  0
  191.7370  176.9670  145.8240 O   0  0  0  0  0  1  0  0  0  0  0  0
  192.0550  175.0990  144.5350 O   0  0  0  0  0  0  0  0  0  0  0  0
  191.5700  176.2550  144.6430 C   0  0  0  0  0  0  0  0  0  0  0  0
  186.1310  178.6370  138.2520 C   0  0  0  0  0  2  0  0  0  0  0  0
  184.4500  179.8910  139.3460 O   0  0  0  0  0  0  0  0  0  0  0  0
  184.9980  178.6300  139.2610 C   0  0  0  0  0  3  0  0  0  0  0  0
  185.2980  179.4790  140.3030 O   0  0  0  0  0  0  0  0  0  0  0  0
  1  7  2  0  0  0  0
  3  5  1  0  0  0  0
  4 25  1  6  0  0  0
  4  6  1  0  0  0  0
  6 10  1  0  0  0  0
  7  8  1  0  0  0  0
  7 11  1  0  0  0  0
  8  2  1  0  0  0  0
  9  1  1  0  0  0  0
  9  3  2  0  0  0  0
 10  2  1  6  0  0  0
 10 15  1  0  0  0  0
 11  5  1  6  0  0  0
 11  4  1  0  0  0  0
 12 14  1  0  0  0  0
 13 18  1  1  0  0  0
 14 24  1  1  0  0  0
 15 16  1  1  0  0  0
 15 17  1  0  0  0  0
 16 12  1  0  0  0  0
 17 20  1  0  0  0  0
 19 14  1  0  0  0  0
 19 13  1  0  0  0  0
 20 19  1  0  0  0  0
 20 13  1  0  0  0  0
 21 16  2  0  0  0  0
 23 24  2  0  0  0  0
 24 22  1  0  0  0  0
 25 27  1  0  0  0  0
 26 28  1  0  0  0  0
 27 26  1  0  0  0  0
 27 28  1  0  0  0  0
M  END
>  <MODEL>
3

>  <REMARK>
 VINA RESULT:      -7.3      3.611      7.740
  Name = 
  4 active torsions:
  status: ('A' for Active; 'I' for Inactive)
    1  A    between atoms: C_4  and  C_12
    2  A    between atoms: C_5  and  C_27
    3  A    between atoms: C_14  and  C_15
    4  A    between atoms: C_14  and  C_16
                            x       y       z     vdW  Elec       q    Type
                         _______ _______ _______ _____ _____    ______ ____

>  <TORSDO>
F 4

$$$$
=
 OpenBabel11062416453D

 28 32  0  0  1  0  0  0  0  0999 V2000
  193.2330  176.6950  137.9170 N   0  0  0  0  0  0  0  0  0  0  0  0
  192.0760  177.3800  141.3950 C   0  0  0  0  0  2  0  0  0  0  0  0
  191.7750  175.3380  136.5550 C   0  0  0  0  0  3  0  0  0  0  0  0
  189.9640  177.0540  139.0270 C   0  0  2  0  0  3  0  0  0  0  0  0
  190.9570  174.9850  137.7620 C   0  0  0  0  0  2  0  0  0  0  0  0
  190.3190  178.1130  139.8890 O   0  0  0  0  0  0  0  0  0  0  0  0
  192.4720  176.6430  138.9690 C   0  0  0  0  0  0  0  0  0  0  0  0
  192.8620  177.3440  140.1570 N   0  0  0  0  0  2  0  0  0  0  0  0
  192.8590  176.1080  136.6620 C   0  0  0  0  0  3  0  0  0  0  0  0
  190.5620  177.5550  141.1560 C   0  0  2  0  0  3  0  0  0  0  0  0
  191.1040  176.0110  138.8940 C   0  0  1  0  0  3  0  0  0  0  0  0
  190.1310  178.1090  144.8110 O   0  0  0  0  0  0  0  0  0  0  0  0
  186.9910  176.6770  143.5290 C   0  0  2  0  0  3  0  0  0  0  0  0
  188.7510  177.8300  145.0220 C   0  0  1  0  0  3  0  0  0  0  0  0
  189.9180  178.4130  142.2620 C   0  0  2  0  0  3  0  0  0  0  0  0
  190.6950  178.4330  143.5680 C   0  0  0  0  0  0  0  0  0  0  0  0
  188.5280  178.1980  142.4200 O   0  0  0  0  0  0  0  0  0  0  0  0
  186.3570  177.9060  143.7530 O   0  0  0  0  0  1  0  0  0  0  0  0
  188.3400  176.5780  144.2460 C   0  0  2  0  0  3  0  0  0  0  0  0
  188.2930  176.8410  142.7420 C   0  0  1  0  0  3  0  0  0  0  0  0
  191.9060  178.7740  143.5410 O   0  0  0  0  0  0  0  0  0  0  0  0
  189.4460  177.0180  147.2820 O   0  0  0  0  0  1  0  0  0  0  0  0
  187.4020  178.0110  146.9760 O   0  0  0  0  0  0  0  0  0  0  0  0
  188.4940  177.6330  146.4780 C   0  0  0  0  0  0  0  0  0  0  0  0
  189.5450  177.6460  137.6880 C   0  0  0  0  0  2  0  0  0  0  0  0
  187.5480  178.8360  138.1220 O   0  0  0  0  0  0  0  0  0  0  0  0
  188.8940  179.0030  137.8860 C   0  0  0  0  0  3  0  0  0  0  0  0
  187.9550  179.2150  136.9000 O   0  0  0  0  0  0  0  0  0  0  0  0
  1  7  2  0  0  0  0
  3  9  2  0  0  0  0
  3  5  1  0  0  0  0
  4 25  1  6  0  0  0
  4  6  1  0  0  0  0
  6 10  1  0  0  0  0
  7  8  1  0  0  0  0
  8  2  1  0  0  0  0
  9  1  1  0  0  0  0
 10  2  1  1  0  0  0
 10 15  1  0  0  0  0
 11  5  1  6  0  0  0
 11  7  1  0  0  0  0
 11  4  1  0  0  0  0
 12 14  1  0  0  0  0
 13 18  1  1  0  0  0
 13 19  1  0  0  0  0
 14 24  1  1  0  0  0
 15 17  1  1  0  0  0
 15 16  1  0  0  0  0
 16 12  1  0  0  0  0
 17 20  1  0  0  0  0
 19 14  1  0  0  0  0
 20 13  1  0  0  0  0
 20 19  1  0  0  0  0
 21 16  2  0  0  0  0
 24 23  2  0  0  0  0
 24 22  1  0  0  0  0
 25 27  1  0  0  0  0
 27 26  1  0  0  0  0
 28 27  1  0  0  0  0
 28 26  1  0  0  0  0
M  END
>  <MODEL>
4

>  <REMARK>
 VINA RESULT:      -7.3      3.903      6.503
  Name = 
  4 active torsions:
  status: ('A' for Active; 'I' for Inactive)
    1  A    between atoms: C_4  and  C_12
    2  A    between atoms: C_5  and  C_27
    3  A    between atoms: C_14  and  C_15
    4  A    between atoms: C_14  and  C_16
                            x       y       z     vdW  Elec       q    Type
                         _______ _______ _______ _____ _____    ______ ____

>  <TORSDO>
F 4

$$$$
=
 OpenBabel11062416453D

 28 32  0  0  1  0  0  0  0  0999 V2000
  191.6640  177.4880  140.7880 N   0  0  0  0  0  0  0  0  0  0  0  0
  188.3160  177.8790  142.3820 C   0  0  0  0  0  2  0  0  0  0  0  0
  191.6940  176.4610  138.6050 C   0  0  0  0  0  3  0  0  0  0  0  0
  188.6250  178.0550  139.2120 C   0  0  2  0  0  3  0  0  0  0  0  0
  190.2580  176.0560  138.7630 C   0  0  0  0  0  2  0  0  0  0  0  0
  188.2180  178.9630  140.2130 O   0  0  0  0  0  0  0  0  0  0  0  0
  190.3760  177.3930  140.9310 C   0  0  0  0  0  0  0  0  0  0  0  0
  189.7600  177.9050  142.1190 N   0  0  0  0  0  2  0  0  0  0  0  0
  192.3410  177.0940  139.5850 C   0  0  0  0  0  3  0  0  0  0  0  0
  187.4610  178.2380  141.1500 C   0  0  2  0  0  3  0  0  0  0  0  0
  189.5130  176.9220  139.7880 C   0  0  1  0  0  3  0  0  0  0  0  0
  183.9160  178.0680  142.2710 O   0  0  0  0  0  0  0  0  0  0  0  0
  183.9130  179.0950  138.7360 C   0  0  2  0  0  3  0  0  0  0  0  0
  183.1990  178.6110  141.1670 C   0  0  1  0  0  3  0  0  0  0  0  0
  186.1990  179.0240  141.5560 C   0  0  2  0  0  3  0  0  0  0  0  0
  185.2820  178.2790  142.5120 C   0  0  0  0  0  0  0  0  0  0  0  0
  185.5280  179.6340  140.4700 O   0  0  0  0  0  0  0  0  0  0  0  0
  183.4740  180.3680  139.1230 O   0  0  0  0  0  1  0  0  0  0  0  0
  183.7560  178.0610  139.8530 C   0  0  2  0  0  3  0  0  0  0  0  0
  185.1330  178.6440  139.5410 C   0  0  1  0  0  3  0  0  0  0  0  0
  185.7650  177.8400  143.5890 O   0  0  0  0  0  0  0  0  0  0  0  0
  181.1250  177.5120  140.3090 O   0  0  0  0  0  0  0  0  0  0  0  0
  181.0950  178.6850  142.2790 O   0  0  0  0  0  1  0  0  0  0  0  0
  181.7530  178.2690  141.2900 C   0  0  0  0  0  0  0  0  0  0  0  0
  189.3150  178.8410  138.1040 C   0  0  0  0  0  2  0  0  0  0  0  0
  187.9470  177.5950  136.6300 O   0  0  0  0  0  0  0  0  0  0  0  0
  188.4610  178.8540  136.8490 C   0  0  0  0  0  3  0  0  0  0  0  0
  189.0040  178.0060  135.9100 O   0  0  0  0  0  0  0  0  0  0  0  0
  1  7  2  0  0  0  0
  3  5  1  0  0  0  0
  3  9  2  0  0  0  0
  4 25  1  6  0  0  0
  4 11  1  0  0  0  0
  4  6  1  0  0  0  0
  6 10  1  0  0  0  0
  7  8  1  0  0  0  0
  8  2  1  0  0  0  0
  9  1  1  0  0  0  0
 10 15  1  0  0  0  0
 10  2  1  1  0  0  0
 11  5  1  6  0  0  0
 11  7  1  0  0  0  0
 12 16  1  0  0  0  0
 13 18  1  1  0  0  0
 13 20  1  0  0  0  0
 13 19  1  0  0  0  0
 14 24  1  1  0  0  0
 14 12  1  0  0  0  0
 15 17  1  6  0  0  0
 15 16  1  0  0  0  0
 16 21  2  0  0  0  0
 19 14  1  0  0  0  0
 20 19  1  0  0  0  0
 20 17  1  0  0  0  0
 22 24  2  0  0  0  0
 24 23  1  0  0  0  0
 26 27  1  0  0  0  0
 27 25  1  0  0  0  0
 28 26  1  0  0  0  0
 28 27  1  0  0  0  0
M  END
>  <MODEL>
5

>  <REMARK>
 VINA RESULT:      -7.2      2.025      2.872
  Name = 
  4 active torsions:
  status: ('A' for Active; 'I' for Inactive)
    1  A    between atoms: C_4  and  C_12
    2  A    between atoms: C_5  and  C_27
    3  A    between atoms: C_14  and  C_15
    4  A    between atoms: C_14  and  C_16
                            x       y       z     vdW  Elec       q    Type
                         _______ _______ _______ _____ _____    ______ ____

>  <TORSDO>
F 4

$$$$
=
 OpenBabel11062416453D

 28 32  0  0  1  0  0  0  0  0999 V2000
  185.9410  178.6970  143.8240 N   0  0  0  0  0  0  0  0  0  0  0  0
  186.8080  178.2850  140.2200 C   0  0  0  0  0  2  0  0  0  0  0  0
  187.0480  177.2070  145.3650 C   0  0  0  0  0  3  0  0  0  0  0  0
  188.9860  177.7110  142.4800 C   0  0  2  0  0  3  0  0  0  0  0  0
  187.5510  176.3780  144.2200 C   0  0  0  0  0  2  0  0  0  0  0  0
  188.8820  178.6470  141.4290 O   0  0  0  0  0  0  0  0  0  0  0  0
  186.5070  178.1930  142.7670 C   0  0  0  0  0  0  0  0  0  0  0  0
  186.2140  178.7500  141.4790 N   0  0  0  0  0  2  0  0  0  0  0  0
  186.2620  178.2640  145.1540 C   0  0  0  0  0  3  0  0  0  0  0  0
  188.3160  177.9770  140.3310 C   0  0  2  0  0  3  0  0  0  0  0  0
  187.5980  177.1620  142.9020 C   0  0  1  0  0  3  0  0  0  0  0  0
  188.6680  177.3710  136.6750 O   0  0  0  0  0  0  0  0  0  0  0  0
  191.5410  175.7860  138.3430 C   0  0  2  0  0  3  0  0  0  0  0  0
  189.9590  176.7820  136.5650 C   0  0  1  0  0  3  0  0  0  0  0  0
  189.0560  178.3430  139.0290 C   0  0  2  0  0  3  0  0  0  0  0  0
  188.2350  178.1390  137.7670 C   0  0  0  0  0  0  0  0  0  0  0  0
  190.3710  177.8270  138.9520 O   0  0  0  0  0  0  0  0  0  0  0  0
  192.3830  176.7530  137.7790 O   0  0  0  0  0  1  0  0  0  0  0  0
  190.1650  175.7490  137.6740 C   0  0  2  0  0  3  0  0  0  0  0  0
  190.3330  176.4160  139.0380 C   0  0  1  0  0  3  0  0  0  0  0  0
  187.1120  178.7010  137.6830 O   0  0  0  0  0  0  0  0  0  0  0  0
  191.3590  175.9870  134.6540 O   0  0  0  0  0  1  0  0  0  0  0  0
  189.0820  175.7310  134.6170 O   0  0  0  0  0  0  0  0  0  0  0  0
  190.1040  176.1330  135.2310 C   0  0  0  0  0  0  0  0  0  0  0  0
  189.7370  178.3660  143.6320 C   0  0  0  0  0  2  0  0  0  0  0  0
  191.3930  176.7320  144.0590 O   0  0  0  0  0  0  0  0  0  0  0  0
  191.2120  178.0090  143.5770 C   0  0  0  0  0  3  0  0  0  0  0  0
  191.6810  177.7780  144.8510 O   0  0  0  0  0  0  0  0  0  0  0  0
  1  9  1  0  0  0  0
  2  8  1  0  0  0  0
  4 11  1  0  0  0  0
  4 25  1  1  0  0  0
  5  3  1  0  0  0  0
  6  4  1  0  0  0  0
  7 11  1  0  0  0  0
  7  1  2  0  0  0  0
  8  7  1  0  0  0  0
  9  3  2  0  0  0  0
 10  2  1  6  0  0  0
 10  6  1  0  0  0  0
 11  5  1  1  0  0  0
 12 16  1  0  0  0  0
 13 18  1  6  0  0  0
 13 20  1  0  0  0  0
 14 24  1  6  0  0  0
 14 12  1  0  0  0  0
 14 19  1  0  0  0  0
 15 16  1  6  0  0  0
 15 10  1  0  0  0  0
 17 15  1  0  0  0  0
 17 20  1  0  0  0  0
 19 13  1  0  0  0  0
 19 20  1  0  0  0  0
 21 16  2  0  0  0  0
 22 24  1  0  0  0  0
 23 24  2  0  0  0  0
 26 28  1  0  0  0  0
 27 25  1  0  0  0  0
 27 26  1  0  0  0  0
 27 28  1  0  0  0  0
M  END
>  <MODEL>
6

>  <REMARK>
 VINA RESULT:      -7.1      3.463      6.401
  Name = 
  4 active torsions:
  status: ('A' for Active; 'I' for Inactive)
    1  A    between atoms: C_4  and  C_12
    2  A    between atoms: C_5  and  C_27
    3  A    between atoms: C_14  and  C_15
    4  A    between atoms: C_14  and  C_16
                            x       y       z     vdW  Elec       q    Type
                         _______ _______ _______ _____ _____    ______ ____

>  <TORSDO>
F 4

$$$$
=
 OpenBabel11062416453D

 28 32  0  0  1  0  0  0  0  0999 V2000
  181.5020  179.0470  138.4700 N   0  0  0  0  0  0  0  0  0  0  0  0
  184.9030  178.9250  139.9940 C   0  0  0  0  0  2  0  0  0  0  0  0
  179.8450  177.5830  139.4380 C   0  0  0  0  0  3  0  0  0  0  0  0
  182.3120  178.4330  141.7890 C   0  0  2  0  0  3  0  0  0  0  0  0
  180.9120  176.8720  140.2180 C   0  0  0  0  0  2  0  0  0  0  0  0
  183.3270  179.4130  141.7750 O   0  0  0  0  0  0  0  0  0  0  0  0
  182.4580  178.6600  139.2610 C   0  0  0  0  0  0  0  0  0  0  0  0
  183.7550  179.2590  139.1440 N   0  0  0  0  0  2  0  0  0  0  0  0
  180.1530  178.5710  138.5960 C   0  0  0  0  0  3  0  0  0  0  0  0
  184.5350  178.7560  141.4830 C   0  0  2  0  0  3  0  0  0  0  0  0
  182.1690  177.7310  140.4140 C   0  0  1  0  0  3  0  0  0  0  0  0
  187.5250  177.8750  143.5170 O   0  0  0  0  0  0  0  0  0  0  0  0
  184.7670  178.5870  145.8490 C   0  0  2  0  0  3  0  0  0  0  0  0
  187.1040  178.1500  144.8500 C   0  0  1  0  0  3  0  0  0  0  0  0
  185.6660  179.2650  142.3980 C   0  0  2  0  0  3  0  0  0  0  0  0
  186.9230  178.4110  142.3680 C   0  0  0  0  0  0  0  0  0  0  0  0
  185.2380  179.6170  143.6990 O   0  0  0  0  0  0  0  0  0  0  0  0
  185.4290  179.7540  146.2530 O   0  0  0  0  0  1  0  0  0  0  0  0
  185.6810  177.6370  145.0710 C   0  0  2  0  0  3  0  0  0  0  0  0
  184.6560  178.4910  144.3270 C   0  0  1  0  0  3  0  0  0  0  0  0
  187.4680  178.1810  141.2570 O   0  0  0  0  0  0  0  0  0  0  0  0
  187.7790  177.5470  147.1800 O   0  0  0  0  0  1  0  0  0  0  0  0
  189.0690  176.9200  145.3920 O   0  0  0  0  0  0  0  0  0  0  0  0
  188.0350  177.5000  145.8150 C   0  0  0  0  0  0  0  0  0  0  0  0
  181.0190  179.0900  142.2550 C   0  0  0  0  0  2  0  0  0  0  0  0
  179.6830  177.6300  143.5500 O   0  0  0  0  0  0  0  0  0  0  0  0
  180.6470  178.6080  143.6450 C   0  0  0  0  0  3  0  0  0  0  0  0
  179.3190  178.8770  143.8900 O   0  0  0  0  0  0  0  0  0  0  0  0
  1  9  1  0  0  0  0
  1  7  2  0  0  0  0
  3  5  1  0  0  0  0
  4 25  1  6  0  0  0
  6  4  1  0  0  0  0
  7 11  1  0  0  0  0
  8  7  1  0  0  0  0
  8  2  1  0  0  0  0
  9  3  2  0  0  0  0
 10  2  1  6  0  0  0
 10  6  1  0  0  0  0
 10 15  1  0  0  0  0
 11  5  1  6  0  0  0
 11  4  1  0  0  0  0
 12 14  1  0  0  0  0
 13 18  1  6  0  0  0
 14 19  1  0  0  0  0
 14 24  1  1  0  0  0
 15 16  1  1  0  0  0
 15 17  1  0  0  0  0
 16 12  1  0  0  0  0
 17 20  1  0  0  0  0
 19 13  1  0  0  0  0
 20 19  1  0  0  0  0
 20 13  1  0  0  0  0
 21 16  2  0  0  0  0
 23 24  2  0  0  0  0
 24 22  1  0  0  0  0
 25 27  1  0  0  0  0
 26 27  1  0  0  0  0
 26 28  1  0  0  0  0
 27 28  1  0  0  0  0
M  END
>  <MODEL>
7

>  <REMARK>
 VINA RESULT:      -6.7      3.114      7.730
  Name = 
  4 active torsions:
  status: ('A' for Active; 'I' for Inactive)
    1  A    between atoms: C_4  and  C_12
    2  A    between atoms: C_5  and  C_27
    3  A    between atoms: C_14  and  C_15
    4  A    between atoms: C_14  and  C_16
                            x       y       z     vdW  Elec       q    Type
                         _______ _______ _______ _____ _____    ______ ____

>  <TORSDO>
F 4

$$$$
=
 OpenBabel11062416453D

 28 32  0  0  1  0  0  0  0  0999 V2000
  191.7870  176.1640  143.7740 N   0  0  0  0  0  0  0  0  0  0  0  0
  191.4560  177.7170  140.4010 C   0  0  0  0  0  2  0  0  0  0  0  0
  190.5060  177.1810  145.5480 C   0  0  0  0  0  3  0  0  0  0  0  0
  188.9900  177.7150  142.4260 C   0  0  2  0  0  3  0  0  0  0  0  0
  190.1910  178.3520  144.6650 C   0  0  0  0  0  2  0  0  0  0  0  0
  189.2220  177.1420  141.1570 O   0  0  0  0  0  0  0  0  0  0  0  0
  191.3910  177.0040  142.8650 C   0  0  0  0  0  0  0  0  0  0  0  0
  191.8520  176.8510  141.5160 N   0  0  0  0  0  2  0  0  0  0  0  0
  191.2890  176.1890  145.1200 C   0  0  0  0  0  3  0  0  0  0  0  0
  189.9560  178.0770  140.4060 C   0  0  2  0  0  3  0  0  0  0  0  0
  190.3160  178.0150  143.1730 C   0  0  1  0  0  3  0  0  0  0  0  0
  187.3350  176.9850  137.9980 O   0  0  0  0  0  0  0  0  0  0  0  0
  190.4540  175.2460  137.1060 C   0  0  2  0  0  3  0  0  0  0  0  0
  188.0660  176.2190  137.0460 C   0  0  1  0  0  3  0  0  0  0  0  0
  189.4010  178.1770  138.9710 C   0  0  2  0  0  3  0  0  0  0  0  0
  187.9050  177.9320  138.8620 C   0  0  0  0  0  0  0  0  0  0  0  0
  190.1710  177.4850  138.0070 O   0  0  0  0  0  0  0  0  0  0  0  0
  190.5300  176.0150  135.9370 O   0  0  0  0  0  1  0  0  0  0  0  0
  189.0710  175.3110  137.7570 C   0  0  2  0  0  3  0  0  0  0  0  0
  190.2310  176.1130  138.3460 C   0  0  1  0  0  3  0  0  0  0  0  0
  187.1290  178.6250  139.5710 O   0  0  0  0  0  0  0  0  0  0  0  0
  186.0740  174.7240  136.8420 O   0  0  0  0  0  1  0  0  0  0  0  0
  187.2960  175.3000  134.9900 O   0  0  0  0  0  0  0  0  0  0  0  0
  187.1250  175.3970  136.2330 C   0  0  0  0  0  0  0  0  0  0  0  0
  188.0670  176.7910  143.2080 C   0  0  0  0  0  2  0  0  0  0  0  0
  186.9760  178.3110  144.6540 O   0  0  0  0  0  0  0  0  0  0  0  0
  186.7730  177.5030  143.5580 C   0  0  0  0  0  3  0  0  0  0  0  0
  186.3630  177.1280  144.8190 O   0  0  0  0  0  0  0  0  0  0  0  0
  1  9  1  0  0  0  0
  2  8  1  0  0  0  0
  4 11  1  0  0  0  0
  4 25  1  1  0  0  0
  5  3  1  0  0  0  0
  6  4  1  0  0  0  0
  7 11  1  0  0  0  0
  7  1  2  0  0  0  0
  8  7  1  0  0  0  0
  9  3  2  0  0  0  0
 10  2  1  6  0  0  0
 10  6  1  0  0  0  0
 11  5  1  1  0  0  0
 12 16  1  0  0  0  0
 13 18  1  6  0  0  0
 13 19  1  0  0  0  0
 13 20  1  0  0  0  0
 14 24  1  1  0  0  0
 14 19  1  0  0  0  0
 14 12  1  0  0  0  0
 15 17  1  6  0  0  0
 15 10  1  0  0  0  0
 16 15  1  0  0  0  0
 16 21  2  0  0  0  0
 17 20  1  0  0  0  0
 19 20  1  0  0  0  0
 23 24  2  0  0  0  0
 24 22  1  0  0  0  0
 25 27  1  0  0  0  0
 26 28  1  0  0  0  0
 27 26  1  0  0  0  0
 27 28  1  0  0  0  0
M  END
>  <MODEL>
8

>  <REMARK>
 VINA RESULT:      -6.6      3.417      5.653
  Name = 
  4 active torsions:
  status: ('A' for Active; 'I' for Inactive)
    1  A    between atoms: C_4  and  C_12
    2  A    between atoms: C_5  and  C_27
    3  A    between atoms: C_14  and  C_15
    4  A    between atoms: C_14  and  C_16
                            x       y       z     vdW  Elec       q    Type
                         _______ _______ _______ _____ _____    ______ ____

>  <TORSDO>
F 4

$$$$
=
 OpenBabel11062416453D

 28 32  0  0  1  0  0  0  0  0999 V2000
  190.0100  178.2910  143.9550 N   0  0  0  0  0  0  0  0  0  0  0  0
  187.7870  178.3470  140.9620 C   0  0  0  0  0  2  0  0  0  0  0  0
  191.3820  176.3250  144.2290 C   0  0  0  0  0  3  0  0  0  0  0  0
  190.6120  176.8690  140.8460 C   0  0  2  0  0  3  0  0  0  0  0  0
  190.6110  175.6220  143.1510 C   0  0  0  0  0  2  0  0  0  0  0  0
  190.0540  177.9780  140.1750 O   0  0  0  0  0  0  0  0  0  0  0  0
  189.4380  177.8680  142.8670 C   0  0  0  0  0  0  0  0  0  0  0  0
  188.4790  178.7030  142.2060 N   0  0  0  0  0  2  0  0  0  0  0  0
  191.0540  177.5590  144.6150 C   0  0  0  0  0  3  0  0  0  0  0  0
  188.7050  177.6740  139.9210 C   0  0  2  0  0  3  0  0  0  0  0  0
  189.9050  176.5990  142.2000 C   0  0  1  0  0  3  0  0  0  0  0  0
  186.2810  177.2850  137.1230 O   0  0  0  0  0  0  0  0  0  0  0  0
  189.3380  175.4500  136.2050 C   0  0  2  0  0  3  0  0  0  0  0  0
  187.0500  176.6380  136.1130 C   0  0  1  0  0  3  0  0  0  0  0  0
  188.3160  178.0830  138.4870 C   0  0  2  0  0  3  0  0  0  0  0  0
  186.8260  178.0030  138.1980 C   0  0  0  0  0  0  0  0  0  0  0  0
  189.1300  177.5060  137.4830 O   0  0  0  0  0  0  0  0  0  0  0  0
  189.5960  176.4060  135.2140 O   0  0  0  0  0  1  0  0  0  0  0  0
  187.9020  175.5270  136.7290 C   0  0  2  0  0  3  0  0  0  0  0  0
  189.0490  176.0960  137.5610 C   0  0  1  0  0  3  0  0  0  0  0  0
  186.0330  178.6260  138.9510 O   0  0  0  0  0  0  0  0  0  0  0  0
  185.0740  176.8130  134.5940 O   0  0  0  0  0  0  0  0  0  0  0  0
  186.3340  174.8990  134.6520 O   0  0  0  0  0  1  0  0  0  0  0  0
  186.1420  176.0680  135.0770 C   0  0  0  0  0  0  0  0  0  0  0  0
  192.1090  177.1050  140.9980 C   0  0  0  0  0  2  0  0  0  0  0  0
  192.8540  176.4080  138.8640 O   0  0  0  0  0  0  0  0  0  0  0  0
  192.7200  177.5160  139.6710 C   0  0  0  0  0  3  0  0  0  0  0  0
  193.9340  176.8860  139.5030 O   0  0  0  0  0  0  0  0  0  0  0  0
  1  9  1  0  0  0  0
  2  8  1  0  0  0  0
  3  9  2  0  0  0  0
  4 25  1  1  0  0  0
  4 11  1  0  0  0  0
  5  3  1  0  0  0  0
  6  4  1  0  0  0  0
  7  1  2  0  0  0  0
  8  7  1  0  0  0  0
 10  6  1  0  0  0  0
 10  2  1  1  0  0  0
 11  7  1  0  0  0  0
 11  5  1  1  0  0  0
 12 16  1  0  0  0  0
 13 18  1  6  0  0  0
 13 19  1  0  0  0  0
 13 20  1  0  0  0  0
 14 24  1  6  0  0  0
 14 19  1  0  0  0  0
 14 12  1  0  0  0  0
 15 17  1  6  0  0  0
 15 10  1  0  0  0  0
 16 15  1  0  0  0  0
 16 21  2  0  0  0  0
 17 20  1  0  0  0  0
 19 20  1  0  0  0  0
 22 24  2  0  0  0  0
 23 24  1  0  0  0  0
 26 28  1  0  0  0  0
 26 27  1  0  0  0  0
 27 25  1  0  0  0  0
 28 27  1  0  0  0  0
M  END
>  <MODEL>
9

>  <REMARK>
 VINA RESULT:      -6.5      3.360      5.067
  Name = 
  4 active torsions:
  status: ('A' for Active; 'I' for Inactive)
    1  A    between atoms: C_4  and  C_12
    2  A    between atoms: C_5  and  C_27
    3  A    between atoms: C_14  and  C_15
    4  A    between atoms: C_14  and  C_16
                            x       y       z     vdW  Elec       q    Type
                         _______ _______ _______ _____ _____    ______ ____

>  <TORSDO>
F 4

$$$$
