=
 OpenBabel11062418013D

 58 65  0  0  1  0  0  0  0  0999 V2000
  184.3690  177.0690  137.8370 C   0  0  2  0  0  3  0  0  0  0  0  0
  181.6170  174.4010  137.8710 O   0  0  0  0  0  0  0  0  0  0  0  0
  180.2170  178.3490  135.5270 C   0  0  2  0  0  3  0  0  0  0  0  0
  182.6860  177.9770  136.2240 C   0  0  0  0  0  2  0  0  0  0  0  0
  183.0940  176.7270  137.0560 C   0  0  1  0  0  3  0  0  0  0  0  0
  180.0020  175.7370  136.7640 C   0  0  2  0  0  0  0  0  0  0  0  0
  181.5920  177.7680  135.1490 C   0  0  1  0  0  3  0  0  0  0  0  0
  179.1130  177.5530  135.1070 O   0  0  0  0  0  0  0  0  0  0  0  0
  182.5550  174.1430  136.8480 C   0  0  0  0  0  2  0  0  0  0  0  0
  179.0730  176.1970  135.5890 C   0  0  1  0  0  3  0  0  0  0  0  0
  181.4940  176.3350  134.6590 C   0  0  1  0  0  3  0  0  0  0  0  0
  183.2220  175.4110  136.2390 C   0  0  1  0  0  3  0  0  0  0  0  0
  182.8150  175.5800  134.7760 C   0  0  0  0  0  2  0  0  0  0  0  0
  180.3660  175.5180  135.2740 C   0  0  1  0  0  3  0  0  0  0  0  0
  180.3280  174.3510  137.2960 C   0  0  2  0  0  3  0  0  0  0  0  0
  179.3220  173.9070  138.3090 C   0  0  0  0  0  3  0  0  0  0  0  0
  179.6700  173.6760  139.4550 O   0  0  0  0  0  0  0  0  0  0  0  0
  180.2830  176.8630  137.7750 C   0  0  0  0  0  2  0  0  0  0  0  0
  179.0840  177.1020  138.6730 C   0  0  0  0  0  1  0  0  0  0  0  0
  180.0710  179.7550  134.9700 C   0  0  0  0  0  2  0  0  0  0  0  0
  179.7560  180.4420  137.2340 O   0  0  0  0  0  1  0  0  0  0  0  0
  179.2850  180.6290  135.9330 C   0  0  1  0  0  3  0  0  0  0  0  0
  179.4460  182.0850  135.5300 C   0  0  0  0  0  2  0  0  0  0  0  0
  180.2960  182.8430  136.5380 C   0  0  0  0  0  2  0  0  0  0  0  0
  180.3640  185.2190  136.3010 O   0  0  0  0  0  1  0  0  0  0  0  0
  180.9860  184.0370  135.8970 C   0  0  0  0  0  2  0  0  0  0  0  0
  184.4370  178.5220  138.3130 C   0  0  0  0  0  2  0  0  0  0  0  0
  182.5770  178.3570  139.8430 N   0  0  0  0  0  0  0  0  0  0  0  0
  182.2320  178.6150  143.4820 N   0  0  0  0  0  2  0  0  0  0  0  0
  181.8360  178.5200  141.0990 C   0  0  0  0  0  2  0  0  0  0  0  0
  185.8340  179.5080  140.6420 O   0  0  0  0  0  0  0  0  0  0  0  0
  183.8330  178.6580  139.6730 C   0  0  0  0  0  0  0  0  0  0  0  0
  182.7360  178.6600  142.2950 C   0  0  0  0  0  0  0  0  0  0  0  0
  184.6470  179.1180  140.8110 C   0  0  0  0  0  0  0  0  0  0  0  0
  184.0890  179.0810  142.1220 N   0  0  0  0  0  2  0  0  0  0  0  0
  185.6760  176.5240  137.2420 C   0  0  0  0  0  2  0  0  0  0  0  0
  188.6290  178.9180  137.0510 C   0  0  0  0  0  3  0  0  0  0  0  0
  187.4470  177.1680  138.8790 C   0  0  0  0  0  3  0  0  0  0  0  0
  186.9140  177.2910  137.5920 C   0  0  0  0  0  0  0  0  0  0  0  0
  187.4980  178.1850  136.6860 C   0  0  0  0  0  3  0  0  0  0  0  0
  188.5860  177.8970  139.2600 C   0  0  0  0  0  0  0  0  0  0  0  0
  189.1720  178.7720  138.3300 C   0  0  0  0  0  3  0  0  0  0  0  0
  191.4110  177.6040  141.5030 C   0  0  1  0  0  3  0  0  0  0  0  0
  192.5010  176.6310  141.8960 C   0  0  0  0  0  1  0  0  0  0  0  0
  189.4250  178.3750  142.9860 C   0  0  1  0  0  3  0  0  0  0  0  0
  189.1500  177.7410  140.5760 N   0  0  0  0  0  0  0  0  0  0  0  0
  190.2950  176.8570  140.7830 C   0  0  0  0  0  2  0  0  0  0  0  0
  190.9420  178.3800  142.7430 C   0  0  0  0  0  2  0  0  0  0  0  0
  188.5760  178.4710  141.7120 C   0  0  0  0  0  2  0  0  0  0  0  0
  188.9620  177.3030  143.9730 C   0  0  0  0  0  2  0  0  0  0  0  0
  186.2580  178.1620  144.9660 C   0  0  0  0  0  1  0  0  0  0  0  0
  187.1040  177.9860  147.2310 N   0  0  0  0  0  2  0  0  0  0  0  0
  187.2970  177.5050  145.8620 C   0  0  2  0  0  3  0  0  0  0  0  0
  187.7600  177.6320  149.4290 F   0  0  0  0  0  0  0  0  0  0  0  0
  188.0190  177.2730  148.1180 C   0  0  2  0  0  3  0  0  0  0  0  0
  188.7190  177.8390  145.3810 C   0  0  1  0  0  3  0  0  0  0  0  0
  189.7470  177.2260  146.3300 C   0  0  0  0  0  2  0  0  0  0  0  0
  189.4600  177.6350  147.7700 C   0  0  0  0  0  2  0  0  0  0  0  0
  1 36  1  6  0  0  0
  1 27  1  0  0  0  0
  3 20  1  6  0  0  0
  4  5  1  0  0  0  0
  5  1  1  6  0  0  0
  6 15  1  0  0  0  0
  6 18  1  1  0  0  0
  7  3  1  0  0  0  0
  7  4  1  1  0  0  0
  8  3  1  0  0  0  0
  9  2  1  0  0  0  0
 10  8  1  6  0  0  0
 10  6  1  0  0  0  0
 11 13  1  1  0  0  0
 11  7  1  0  0  0  0
 11 14  1  0  0  0  0
 12 13  1  6  0  0  0
 12  9  1  0  0  0  0
 12  5  1  0  0  0  0
 14 10  1  0  0  0  0
 14  6  1  0  0  0  0
 15  2  1  0  0  0  0
 15 16  1  0  0  0  0
 16 17  2  0  0  0  0
 18 19  1  0  0  0  0
 20 22  1  0  0  0  0
 22 21  1  0  0  0  0
 23 22  1  0  0  0  0
 23 24  1  0  0  0  0
 26 25  1  0  0  0  0
 26 24  1  0  0  0  0
 27 32  1  0  0  0  0
 28 30  1  0  0  0  0
 30 33  1  0  0  0  0
 31 34  2  0  0  0  0
 32 28  2  0  0  0  0
 32 34  1  0  0  0  0
 33 29  2  0  0  0  0
 34 35  1  0  0  0  0
 35 33  1  0  0  0  0
 36 39  1  0  0  0  0
 37 42  1  0  0  0  0
 38 41  1  0  0  0  0
 39 38  2  0  0  0  0
 40 37  2  0  0  0  0
 40 39  1  0  0  0  0
 41 46  1  0  0  0  0
 42 41  2  0  0  0  0
 43 44  1  0  0  0  0
 43 48  1  0  0  0  0
 45 50  1  0  0  0  0
 46 47  1  0  0  0  0
 46 49  1  0  0  0  0
 47 43  1  0  0  0  0
 48 45  1  0  0  0  0
 49 45  1  0  0  0  0
 50 56  1  0  0  0  0
 51 53  1  0  0  0  0
 52 55  1  0  0  0  0
 53 52  1  0  0  0  0
 55 54  1  0  0  0  0
 56 53  1  0  0  0  0
 56 57  1  0  0  0  0
 57 58  1  0  0  0  0
 58 55  1  0  0  0  0
M  END
>  <MODEL>
1

>  <REMARK>
 VINA RESULT:      -7.5      0.000      0.000
  Name = 
  15 active torsions:
  status: ('A' for Active; 'I' for Inactive)
    1  A    between atoms: C_4  and  C_22
    2  A    between atoms: C_4  and  C_40
    3  A    between atoms: C_6  and  C_25
    4  A    between atoms: C_6  and  C_38
    5  A    between atoms: C_7  and  C_58
    6  A    between atoms: C_9  and  C_17
    7  A    between atoms: C_12  and  C_49
    8  A    between atoms: C_16  and  C_17
    9  A    between atoms: C_16  and  C_30
   10  A    between atoms: C_23  and  C_33
   11  A    between atoms: N_29  and  C_35
   12  A    between atoms: C_30  and  C_32
   13  A    between atoms: C_31  and  C_38
   14  A    between atoms: C_32  and  C_48
   15  A    between atoms: C_38  and  C_49
                            x       y       z     vdW  Elec       q    Type
                         _______ _______ _______ _____ _____    ______ ____

>  <TORSDO>
F 15

$$$$
=
 OpenBabel11062418013D

 58 65  0  0  1  0  0  0  0  0999 V2000
  185.4560  176.7020  136.6790 C   0  0  2  0  0  3  0  0  0  0  0  0
  182.3080  174.5690  136.1980 O   0  0  0  0  0  0  0  0  0  0  0  0
  181.3040  178.7290  138.3710 C   0  0  2  0  0  3  0  0  0  0  0  0
  183.6110  178.2820  137.2750 C   0  0  0  0  0  2  0  0  0  0  0  0
  183.9350  176.8940  136.6520 C   0  0  1  0  0  3  0  0  0  0  0  0
  180.8540  176.0640  137.3250 C   0  0  2  0  0  0  0  0  0  0  0  0
  182.1630  178.8030  137.0950 C   0  0  1  0  0  3  0  0  0  0  0  0
  179.9440  178.3770  138.1370 O   0  0  0  0  0  0  0  0  0  0  0  0
  182.6210  175.2770  135.0180 C   0  0  0  0  0  2  0  0  0  0  0  0
  179.7060  177.1210  137.4740 C   0  0  1  0  0  3  0  0  0  0  0  0
  181.4540  178.2100  135.8920 C   0  0  1  0  0  3  0  0  0  0  0  0
  183.3210  176.6490  135.2450 C   0  0  1  0  0  3  0  0  0  0  0  0
  182.4190  177.7930  134.7850 C   0  0  0  0  0  2  0  0  0  0  0  0
  180.4920  177.0720  136.2050 C   0  0  1  0  0  3  0  0  0  0  0  0
  180.9450  174.7980  136.4880 C   0  0  2  0  0  3  0  0  0  0  0  0
  180.3610  173.6270  137.2110 C   0  0  0  0  0  3  0  0  0  0  0  0
  180.5690  172.4950  136.8070 O   0  0  0  0  0  0  0  0  0  0  0  0
  181.8450  176.0920  138.5030 C   0  0  0  0  0  2  0  0  0  0  0  0
  181.2330  175.4700  139.7440 C   0  0  0  0  0  1  0  0  0  0  0  0
  181.3640  180.0500  139.1190 C   0  0  0  0  0  2  0  0  0  0  0  0
  179.6320  180.5920  140.6700 O   0  0  0  0  0  1  0  0  0  0  0  0
  179.9670  180.6150  139.3150 C   0  0  1  0  0  3  0  0  0  0  0  0
  179.9280  182.0430  138.7970 C   0  0  0  0  0  2  0  0  0  0  0  0
  179.6180  182.0790  137.3080 C   0  0  0  0  0  2  0  0  0  0  0  0
  181.4440  183.6110  137.4500 O   0  0  0  0  0  1  0  0  0  0  0  0
  180.6280  182.9270  136.5510 C   0  0  0  0  0  2  0  0  0  0  0  0
  185.9200  175.5320  137.5510 C   0  0  0  0  0  2  0  0  0  0  0  0
  187.2550  174.7150  135.7120 N   0  0  0  0  0  0  0  0  0  0  0  0
  188.2990  171.3850  134.5960 N   0  0  0  0  0  2  0  0  0  0  0  0
  187.7900  173.7420  134.7530 C   0  0  0  0  0  2  0  0  0  0  0  0
  185.2550  172.7390  137.8730 O   0  0  0  0  0  0  0  0  0  0  0  0
  186.4590  174.4270  136.7020 C   0  0  0  0  0  0  0  0  0  0  0  0
  187.6960  172.3250  135.2430 C   0  0  0  0  0  0  0  0  0  0  0  0
  186.1020  173.0250  136.9840 C   0  0  0  0  0  0  0  0  0  0  0  0
  186.7580  171.9850  136.2630 N   0  0  0  0  0  2  0  0  0  0  0  0
  186.2830  177.9870  136.8310 C   0  0  0  0  0  2  0  0  0  0  0  0
  189.8080  177.8170  138.2570 C   0  0  0  0  0  3  0  0  0  0  0  0
  187.1720  177.9700  139.1640 C   0  0  0  0  0  3  0  0  0  0  0  0
  187.4300  177.9070  137.7920 C   0  0  0  0  0  0  0  0  0  0  0  0
  188.7550  177.8520  137.3410 C   0  0  0  0  0  3  0  0  0  0  0  0
  188.2210  177.9350  140.0980 C   0  0  0  0  0  0  0  0  0  0  0  0
  189.5420  177.8550  139.6280 C   0  0  0  0  0  3  0  0  0  0  0  0
  185.9570  177.7010  142.9120 C   0  0  1  0  0  3  0  0  0  0  0  0
  184.8420  178.4690  143.5870 C   0  0  0  0  0  1  0  0  0  0  0  0
  188.3200  177.2410  143.8830 C   0  0  1  0  0  3  0  0  0  0  0  0
  187.9460  177.9650  141.5110 N   0  0  0  0  0  0  0  0  0  0  0  0
  186.7510  178.6400  142.0130 C   0  0  0  0  0  2  0  0  0  0  0  0
  186.8080  176.9870  143.9730 C   0  0  0  0  0  2  0  0  0  0  0  0
  188.8670  177.3170  142.4510 C   0  0  0  0  0  2  0  0  0  0  0  0
  188.8150  178.3530  144.8070 C   0  0  0  0  0  2  0  0  0  0  0  0
  188.6980  178.3200  147.8100 C   0  0  0  0  0  1  0  0  0  0  0  0
  190.6440  176.8730  147.8060 N   0  0  0  0  0  2  0  0  0  0  0  0
  189.5020  177.3110  147.0030 C   0  0  2  0  0  3  0  0  0  0  0  0
  192.3610  175.3150  147.8900 F   0  0  0  0  0  0  0  0  0  0  0  0
  191.3540  175.8190  147.0880 C   0  0  2  0  0  3  0  0  0  0  0  0
  189.9900  177.9340  145.6860 C   0  0  1  0  0  3  0  0  0  0  0  0
  190.8490  176.9290  144.9200 C   0  0  0  0  0  2  0  0  0  0  0  0
  191.9620  176.3860  145.8080 C   0  0  0  0  0  2  0  0  0  0  0  0
  1 36  1  1  0  0  0
  1 27  1  0  0  0  0
  2 15  1  0  0  0  0
  3 20  1  6  0  0  0
  5  1  1  6  0  0  0
  5  4  1  0  0  0  0
  6 10  1  0  0  0  0
  6 18  1  1  0  0  0
  7  4  1  1  0  0  0
  7  3  1  0  0  0  0
  8  3  1  0  0  0  0
  9 12  1  0  0  0  0
  9  2  1  0  0  0  0
 10  8  1  1  0  0  0
 11 13  1  6  0  0  0
 11 14  1  0  0  0  0
 11  7  1  0  0  0  0
 12 13  1  1  0  0  0
 12  5  1  0  0  0  0
 14  6  1  0  0  0  0
 14 10  1  0  0  0  0
 15 16  1  0  0  0  0
 15  6  1  0  0  0  0
 17 16  2  0  0  0  0
 18 19  1  0  0  0  0
 20 22  1  0  0  0  0
 22 21  1  0  0  0  0
 23 22  1  0  0  0  0
 24 23  1  0  0  0  0
 26 24  1  0  0  0  0
 26 25  1  0  0  0  0
 28 32  2  0  0  0  0
 29 33  2  0  0  0  0
 30 33  1  0  0  0  0
 30 28  1  0  0  0  0
 32 34  1  0  0  0  0
 32 27  1  0  0  0  0
 33 35  1  0  0  0  0
 34 31  2  0  0  0  0
 35 34  1  0  0  0  0
 36 39  1  0  0  0  0
 37 42  1  0  0  0  0
 38 41  1  0  0  0  0
 39 38  2  0  0  0  0
 40 39  1  0  0  0  0
 40 37  2  0  0  0  0
 41 46  1  0  0  0  0
 42 41  2  0  0  0  0
 43 44  1  0  0  0  0
 43 48  1  0  0  0  0
 45 48  1  0  0  0  0
 45 50  1  0  0  0  0
 46 47  1  0  0  0  0
 46 49  1  0  0  0  0
 47 43  1  0  0  0  0
 49 45  1  0  0  0  0
 50 56  1  0  0  0  0
 53 52  1  0  0  0  0
 53 51  1  0  0  0  0
 55 52  1  0  0  0  0
 55 54  1  0  0  0  0
 56 53  1  0  0  0  0
 57 56  1  0  0  0  0
 57 58  1  0  0  0  0
 58 55  1  0  0  0  0
M  END
>  <MODEL>
2

>  <REMARK>
 VINA RESULT:      -7.4      2.698      4.311
  Name = 
  15 active torsions:
  status: ('A' for Active; 'I' for Inactive)
    1  A    between atoms: C_4  and  C_22
    2  A    between atoms: C_4  and  C_40
    3  A    between atoms: C_6  and  C_25
    4  A    between atoms: C_6  and  C_38
    5  A    between atoms: C_7  and  C_58
    6  A    between atoms: C_9  and  C_17
    7  A    between atoms: C_12  and  C_49
    8  A    between atoms: C_16  and  C_17
    9  A    between atoms: C_16  and  C_30
   10  A    between atoms: C_23  and  C_33
   11  A    between atoms: N_29  and  C_35
   12  A    between atoms: C_30  and  C_32
   13  A    between atoms: C_31  and  C_38
   14  A    between atoms: C_32  and  C_48
   15  A    between atoms: C_38  and  C_49
                            x       y       z     vdW  Elec       q    Type
                         _______ _______ _______ _____ _____    ______ ____

>  <TORSDO>
F 15

$$$$
=
 OpenBabel11062418013D

 58 65  0  0  1  0  0  0  0  0999 V2000
  185.0190  178.1320  137.8480 C   0  0  2  0  0  3  0  0  0  0  0  0
  183.7730  174.6880  136.7200 O   0  0  0  0  0  0  0  0  0  0  0  0
  180.1480  177.7910  137.2380 C   0  0  2  0  0  3  0  0  0  0  0  0
  182.6230  178.5630  137.2720 C   0  0  0  0  0  2  0  0  0  0  0  0
  183.7770  177.5240  137.1850 C   0  0  1  0  0  3  0  0  0  0  0  0
  181.4720  175.2530  136.7870 C   0  0  2  0  0  0  0  0  0  0  0  0
  181.3620  178.2720  136.4210 C   0  0  1  0  0  3  0  0  0  0  0  0
  179.3680  176.7920  136.5870 O   0  0  0  0  0  0  0  0  0  0  0  0
  184.2410  175.4390  135.6200 C   0  0  0  0  0  2  0  0  0  0  0  0
  180.0510  175.5810  136.2140 C   0  0  1  0  0  3  0  0  0  0  0  0
  181.6350  177.3840  135.2220 C   0  0  1  0  0  3  0  0  0  0  0  0
  184.0620  176.9800  135.7580 C   0  0  1  0  0  3  0  0  0  0  0  0
  183.0710  177.4990  134.7170 C   0  0  0  0  0  2  0  0  0  0  0  0
  181.2600  175.9190  135.4050 C   0  0  1  0  0  3  0  0  0  0  0  0
  182.4910  174.1970  136.3910 C   0  0  2  0  0  3  0  0  0  0  0  0
  182.2320  172.9020  137.0930 C   0  0  0  0  0  3  0  0  0  0  0  0
  182.7350  171.8710  136.6770 O   0  0  0  0  0  0  0  0  0  0  0  0
  181.6790  175.7980  138.2120 C   0  0  0  0  0  2  0  0  0  0  0  0
  180.7650  175.0990  139.2020 C   0  0  0  0  0  1  0  0  0  0  0  0
  179.2610  178.9700  137.6020 C   0  0  0  0  0  2  0  0  0  0  0  0
  178.9460  180.6800  135.9670 O   0  0  0  0  0  1  0  0  0  0  0  0
  179.7990  180.2500  136.9840 C   0  0  1  0  0  3  0  0  0  0  0  0
  179.9000  181.3190  138.0600 C   0  0  0  0  0  2  0  0  0  0  0  0
  181.2570  182.0050  138.0270 C   0  0  0  0  0  2  0  0  0  0  0  0
  179.9730  184.0070  137.8160 O   0  0  0  0  0  1  0  0  0  0  0  0
  181.1630  183.3960  137.4210 C   0  0  0  0  0  2  0  0  0  0  0  0
  185.9510  177.1010  138.4900 C   0  0  0  0  0  2  0  0  0  0  0  0
  187.9170  178.0850  137.4940 N   0  0  0  0  0  0  0  0  0  0  0  0
  190.9710  176.7290  135.9890 N   0  0  0  0  0  2  0  0  0  0  0  0
  189.1430  178.1480  136.6900 C   0  0  0  0  0  2  0  0  0  0  0  0
  187.0180  174.6580  137.3760 O   0  0  0  0  0  0  0  0  0  0  0  0
  187.2310  177.0030  137.7260 C   0  0  0  0  0  0  0  0  0  0  0  0
  189.7900  176.8040  136.5040 C   0  0  0  0  0  0  0  0  0  0  0  0
  187.7190  175.6980  137.2470 C   0  0  0  0  0  0  0  0  0  0  0  0
  189.0170  175.6140  136.6660 N   0  0  0  0  0  2  0  0  0  0  0  0
  184.7680  179.3890  138.6950 C   0  0  0  0  0  2  0  0  0  0  0  0
  182.3390  178.8120  141.5680 C   0  0  0  0  0  3  0  0  0  0  0  0
  185.0940  178.8970  141.1210 C   0  0  0  0  0  3  0  0  0  0  0  0
  184.2120  179.1450  140.0650 C   0  0  0  0  0  0  0  0  0  0  0  0
  182.8310  179.0800  140.2890 C   0  0  0  0  0  3  0  0  0  0  0  0
  184.6130  178.6270  142.4130 C   0  0  0  0  0  0  0  0  0  0  0  0
  183.2250  178.5910  142.6250 C   0  0  0  0  0  3  0  0  0  0  0  0
  185.3970  178.5280  145.9450 C   0  0  1  0  0  3  0  0  0  0  0  0
  185.6170  179.4500  147.1250 C   0  0  0  0  0  1  0  0  0  0  0  0
  187.1880  177.0420  144.7950 C   0  0  1  0  0  3  0  0  0  0  0  0
  185.5270  178.4070  143.5040 N   0  0  0  0  0  0  0  0  0  0  0  0
  185.5380  179.3160  144.6480 C   0  0  0  0  0  2  0  0  0  0  0  0
  186.3450  177.3240  146.0480 C   0  0  0  0  0  2  0  0  0  0  0  0
  186.4500  177.2670  143.4690 C   0  0  0  0  0  2  0  0  0  0  0  0
  188.5920  177.6470  144.8460 C   0  0  0  0  0  2  0  0  0  0  0  0
  191.1230  176.7540  143.4950 C   0  0  0  0  0  1  0  0  0  0  0  0
  192.0100  176.1790  145.6770 N   0  0  0  0  0  2  0  0  0  0  0  0
  191.0370  177.0280  144.9890 C   0  0  2  0  0  3  0  0  0  0  0  0
  193.0180  175.8090  147.7340 F   0  0  0  0  0  0  0  0  0  0  0  0
  192.0170  176.5180  147.0970 C   0  0  2  0  0  3  0  0  0  0  0  0
  189.6200  176.7380  145.5130 C   0  0  1  0  0  3  0  0  0  0  0  0
  189.5690  176.9550  147.0240 C   0  0  0  0  0  2  0  0  0  0  0  0
  190.6690  176.1610  147.7190 C   0  0  0  0  0  2  0  0  0  0  0  0
  1 27  1  1  0  0  0
  1 36  1  0  0  0  0
  3 20  1  6  0  0  0
  5  4  1  0  0  0  0
  5  1  1  6  0  0  0
  6 18  1  1  0  0  0
  7  3  1  0  0  0  0
  7  4  1  1  0  0  0
  8  3  1  0  0  0  0
  9 12  1  0  0  0  0
  9  2  1  0  0  0  0
 10  8  1  1  0  0  0
 10  6  1  0  0  0  0
 11 13  1  1  0  0  0
 11 14  1  0  0  0  0
 11  7  1  0  0  0  0
 12 13  1  6  0  0  0
 12  5  1  0  0  0  0
 14 10  1  0  0  0  0
 14  6  1  0  0  0  0
 15  2  1  0  0  0  0
 15  6  1  0  0  0  0
 15 16  1  0  0  0  0
 17 16  2  0  0  0  0
 18 19  1  0  0  0  0
 21 22  1  0  0  0  0
 22 20  1  0  0  0  0
 22 23  1  0  0  0  0
 24 23  1  0  0  0  0
 26 25  1  0  0  0  0
 26 24  1  0  0  0  0
 28 32  2  0  0  0  0
 29 33  2  0  0  0  0
 30 28  1  0  0  0  0
 32 27  1  0  0  0  0
 33 35  1  0  0  0  0
 33 30  1  0  0  0  0
 34 31  2  0  0  0  0
 34 32  1  0  0  0  0
 35 34  1  0  0  0  0
 36 39  1  0  0  0  0
 37 42  1  0  0  0  0
 38 41  1  0  0  0  0
 39 40  1  0  0  0  0
 39 38  2  0  0  0  0
 40 37  2  0  0  0  0
 41 42  2  0  0  0  0
 41 46  1  0  0  0  0
 43 48  1  0  0  0  0
 43 44  1  0  0  0  0
 45 50  1  0  0  0  0
 45 48  1  0  0  0  0
 46 47  1  0  0  0  0
 47 43  1  0  0  0  0
 49 46  1  0  0  0  0
 49 45  1  0  0  0  0
 50 56  1  0  0  0  0
 51 53  1  0  0  0  0
 52 55  1  0  0  0  0
 53 56  1  0  0  0  0
 53 52  1  0  0  0  0
 55 58  1  0  0  0  0
 55 54  1  0  0  0  0
 56 57  1  0  0  0  0
 57 58  1  0  0  0  0
M  END
>  <MODEL>
3

>  <REMARK>
 VINA RESULT:      -7.1      2.176      4.565
  Name = 
  15 active torsions:
  status: ('A' for Active; 'I' for Inactive)
    1  A    between atoms: C_4  and  C_22
    2  A    between atoms: C_4  and  C_40
    3  A    between atoms: C_6  and  C_25
    4  A    between atoms: C_6  and  C_38
    5  A    between atoms: C_7  and  C_58
    6  A    between atoms: C_9  and  C_17
    7  A    between atoms: C_12  and  C_49
    8  A    between atoms: C_16  and  C_17
    9  A    between atoms: C_16  and  C_30
   10  A    between atoms: C_23  and  C_33
   11  A    between atoms: N_29  and  C_35
   12  A    between atoms: C_30  and  C_32
   13  A    between atoms: C_31  and  C_38
   14  A    between atoms: C_32  and  C_48
   15  A    between atoms: C_38  and  C_49
                            x       y       z     vdW  Elec       q    Type
                         _______ _______ _______ _____ _____    ______ ____

>  <TORSDO>
F 15

$$$$
=
 OpenBabel11062418013D

 58 65  0  0  1  0  0  0  0  0999 V2000
  189.7130  177.5760  140.6160 C   0  0  2  0  0  3  0  0  0  0  0  0
  191.1680  176.7190  144.0560 O   0  0  0  0  0  0  0  0  0  0  0  0
  186.8750  178.8320  144.4340 C   0  0  2  0  0  3  0  0  0  0  0  0
  187.7880  177.9900  142.1580 C   0  0  0  0  0  2  0  0  0  0  0  0
  189.2170  177.3850  142.0540 C   0  0  1  0  0  3  0  0  0  0  0  0
  189.4010  177.7020  145.2940 C   0  0  2  0  0  0  0  0  0  0  0  0
  186.9860  177.6600  143.4420 C   0  0  1  0  0  3  0  0  0  0  0  0
  186.9470  178.4450  145.8030 O   0  0  0  0  0  0  0  0  0  0  0  0
  190.5460  175.5910  143.4780 C   0  0  0  0  0  2  0  0  0  0  0  0
  188.1330  177.7400  146.2140 C   0  0  1  0  0  3  0  0  0  0  0  0
  187.4320  176.3770  144.1180 C   0  0  1  0  0  3  0  0  0  0  0  0
  189.3430  175.9160  142.5440 C   0  0  1  0  0  3  0  0  0  0  0  0
  188.0430  175.3760  143.1400 C   0  0  0  0  0  2  0  0  0  0  0  0
  188.3490  176.5640  145.3180 C   0  0  1  0  0  3  0  0  0  0  0  0
  190.6650  176.8610  145.3680 C   0  0  2  0  0  3  0  0  0  0  0  0
  191.6890  177.4970  146.2530 C   0  0  0  0  0  3  0  0  0  0  0  0
  191.9160  177.0310  147.3570 O   0  0  0  0  0  0  0  0  0  0  0  0
  189.5660  178.9820  144.4550 C   0  0  0  0  0  2  0  0  0  0  0  0
  191.0220  179.4030  144.3830 C   0  0  0  0  0  1  0  0  0  0  0  0
  185.5880  179.6030  144.1920 C   0  0  0  0  0  2  0  0  0  0  0  0
  183.6670  179.0040  145.4740 O   0  0  0  0  0  1  0  0  0  0  0  0
  184.3850  178.6840  144.3210 C   0  0  1  0  0  3  0  0  0  0  0  0
  183.4990  178.8470  143.0980 C   0  0  0  0  0  2  0  0  0  0  0  0
  184.1270  178.1990  141.8740 C   0  0  0  0  0  2  0  0  0  0  0  0
  185.2700  179.3660  140.1310 O   0  0  0  0  0  1  0  0  0  0  0  0
  184.0040  179.0910  140.6480 C   0  0  0  0  0  2  0  0  0  0  0  0
  191.2380  177.6000  140.4800 C   0  0  0  0  0  2  0  0  0  0  0  0
  190.8220  175.8850  138.8320 N   0  0  0  0  0  0  0  0  0  0  0  0
  192.7420  174.5220  136.0240 N   0  0  0  0  0  2  0  0  0  0  0  0
  191.1380  174.8980  137.7930 C   0  0  0  0  0  2  0  0  0  0  0  0
  193.9340  177.4700  139.4490 O   0  0  0  0  0  0  0  0  0  0  0  0
  191.6800  176.7060  139.3680 C   0  0  0  0  0  0  0  0  0  0  0  0
  192.4320  175.1880  137.0850 C   0  0  0  0  0  0  0  0  0  0  0  0
  193.0680  176.7550  138.8750 C   0  0  0  0  0  0  0  0  0  0  0  0
  193.4160  176.0120  137.7100 N   0  0  0  0  0  2  0  0  0  0  0  0
  188.9760  178.6480  139.7990 C   0  0  0  0  0  2  0  0  0  0  0  0
  188.6410  178.5570  136.0080 C   0  0  0  0  0  3  0  0  0  0  0  0
  187.8500  177.0640  138.2320 C   0  0  0  0  0  3  0  0  0  0  0  0
  188.5790  178.2430  138.4120 C   0  0  0  0  0  0  0  0  0  0  0  0
  188.9920  178.9770  137.2930 C   0  0  0  0  0  3  0  0  0  0  0  0
  187.4880  176.6300  136.9460 C   0  0  0  0  0  0  0  0  0  0  0  0
  187.8890  177.3910  135.8360 C   0  0  0  0  0  3  0  0  0  0  0  0
  187.0610  173.0410  137.1520 C   0  0  1  0  0  3  0  0  0  0  0  0
  187.5240  171.7640  136.4860 C   0  0  0  0  0  1  0  0  0  0  0  0
  184.6590  174.0240  137.1000 C   0  0  1  0  0  3  0  0  0  0  0  0
  186.7070  175.4320  136.7690 N   0  0  0  0  0  0  0  0  0  0  0  0
  187.3260  174.2250  136.2290 C   0  0  0  0  0  2  0  0  0  0  0  0
  185.5910  172.8990  137.5740 C   0  0  0  0  0  2  0  0  0  0  0  0
  185.2850  175.4240  137.1320 C   0  0  0  0  0  2  0  0  0  0  0  0
  183.9060  173.6990  135.8100 C   0  0  0  0  0  2  0  0  0  0  0  0
  182.8470  170.9010  136.0900 C   0  0  0  0  0  1  0  0  0  0  0  0
  180.8380  171.8280  137.0820 N   0  0  0  0  0  2  0  0  0  0  0  0
  182.2580  172.0860  136.8410 C   0  0  2  0  0  3  0  0  0  0  0  0
  178.9840  172.6090  138.2390 F   0  0  0  0  0  0  0  0  0  0  0  0
  180.2930  172.9050  137.9040 C   0  0  2  0  0  3  0  0  0  0  0  0
  182.4300  173.3810  136.0310 C   0  0  1  0  0  3  0  0  0  0  0  0
  181.7760  174.5480  136.7700 C   0  0  0  0  0  2  0  0  0  0  0  0
  180.3320  174.2170  137.1250 C   0  0  0  0  0  2  0  0  0  0  0  0
  1 36  1  1  0  0  0
  2 15  1  0  0  0  0
  3 20  1  1  0  0  0
  3  8  1  0  0  0  0
  5  1  1  6  0  0  0
  5  4  1  0  0  0  0
  5 12  1  0  0  0  0
  6 18  1  6  0  0  0
  6 14  1  0  0  0  0
  6 15  1  0  0  0  0
  6 10  1  0  0  0  0
  7  4  1  6  0  0  0
  7 11  1  0  0  0  0
  7  3  1  0  0  0  0
  9  2  1  0  0  0  0
 10  8  1  6  0  0  0
 11 13  1  6  0  0  0
 11 14  1  0  0  0  0
 12 13  1  1  0  0  0
 12  9  1  0  0  0  0
 14 10  1  0  0  0  0
 15 16  1  0  0  0  0
 16 17  2  0  0  0  0
 19 18  1  0  0  0  0
 20 22  1  0  0  0  0
 22 21  1  0  0  0  0
 23 22  1  0  0  0  0
 24 23  1  0  0  0  0
 25 26  1  0  0  0  0
 26 24  1  0  0  0  0
 27  1  1  0  0  0  0
 28 32  2  0  0  0  0
 29 33  2  0  0  0  0
 30 28  1  0  0  0  0
 32 27  1  0  0  0  0
 33 35  1  0  0  0  0
 33 30  1  0  0  0  0
 34 32  1  0  0  0  0
 34 31  2  0  0  0  0
 35 34  1  0  0  0  0
 37 40  1  0  0  0  0
 38 39  1  0  0  0  0
 39 36  1  0  0  0  0
 40 39  2  0  0  0  0
 41 38  2  0  0  0  0
 42 37  2  0  0  0  0
 42 41  1  0  0  0  0
 43 48  1  0  0  0  0
 44 43  1  0  0  0  0
 45 49  1  0  0  0  0
 45 48  1  0  0  0  0
 46 41  1  0  0  0  0
 46 49  1  0  0  0  0
 47 46  1  0  0  0  0
 47 43  1  0  0  0  0
 50 56  1  0  0  0  0
 50 45  1  0  0  0  0
 51 53  1  0  0  0  0
 52 55  1  0  0  0  0
 53 52  1  0  0  0  0
 55 54  1  0  0  0  0
 56 57  1  0  0  0  0
 56 53  1  0  0  0  0
 57 58  1  0  0  0  0
 58 55  1  0  0  0  0
M  END
>  <MODEL>
4

>  <REMARK>
 VINA RESULT:      -7.1      4.478     10.160
  Name = 
  15 active torsions:
  status: ('A' for Active; 'I' for Inactive)
    1  A    between atoms: C_4  and  C_22
    2  A    between atoms: C_4  and  C_40
    3  A    between atoms: C_6  and  C_25
    4  A    between atoms: C_6  and  C_38
    5  A    between atoms: C_7  and  C_58
    6  A    between atoms: C_9  and  C_17
    7  A    between atoms: C_12  and  C_49
    8  A    between atoms: C_16  and  C_17
    9  A    between atoms: C_16  and  C_30
   10  A    between atoms: C_23  and  C_33
   11  A    between atoms: N_29  and  C_35
   12  A    between atoms: C_30  and  C_32
   13  A    between atoms: C_31  and  C_38
   14  A    between atoms: C_32  and  C_48
   15  A    between atoms: C_38  and  C_49
                            x       y       z     vdW  Elec       q    Type
                         _______ _______ _______ _____ _____    ______ ____

>  <TORSDO>
F 15

$$$$
=
 OpenBabel11062418013D

 58 65  0  0  1  0  0  0  0  0999 V2000
  180.4010  178.5960  138.6850 C   0  0  2  0  0  3  0  0  0  0  0  0
  179.3680  175.0020  137.8440 O   0  0  0  0  0  0  0  0  0  0  0  0
  183.4280  176.2390  135.6040 C   0  0  2  0  0  3  0  0  0  0  0  0
  182.4040  177.7020  137.4840 C   0  0  0  0  0  2  0  0  0  0  0  0
  181.0450  177.3180  138.1330 C   0  0  1  0  0  3  0  0  0  0  0  0
  181.1260  174.6220  136.3010 C   0  0  2  0  0  0  0  0  0  0  0  0
  183.3510  176.5340  137.1130 C   0  0  1  0  0  3  0  0  0  0  0  0
  183.5240  174.8540  135.2850 O   0  0  0  0  0  0  0  0  0  0  0  0
  180.0500  175.0530  139.0790 C   0  0  0  0  0  2  0  0  0  0  0  0
  182.4620  174.0060  135.7600 C   0  0  1  0  0  3  0  0  0  0  0  0
  183.1090  175.2780  137.9300 C   0  0  1  0  0  3  0  0  0  0  0  0
  181.1210  176.1780  139.1870 C   0  0  1  0  0  3  0  0  0  0  0  0
  182.5200  175.5750  139.3070 C   0  0  0  0  0  2  0  0  0  0  0  0
  182.2910  174.2010  137.2320 C   0  0  1  0  0  3  0  0  0  0  0  0
  179.9710  173.9930  137.0620 C   0  0  2  0  0  3  0  0  0  0  0  0
  178.9710  173.3890  136.1290 C   0  0  0  0  0  3  0  0  0  0  0  0
  179.1210  172.2460  135.7290 O   0  0  0  0  0  0  0  0  0  0  0  0
  180.7500  175.9380  135.5940 C   0  0  0  0  0  2  0  0  0  0  0  0
  179.4930  175.7690  134.7600 C   0  0  0  0  0  1  0  0  0  0  0  0
  184.5980  176.9850  134.9830 C   0  0  0  0  0  2  0  0  0  0  0  0
  186.3400  175.4020  134.5940 O   0  0  0  0  0  1  0  0  0  0  0  0
  185.9160  176.4040  135.4670 C   0  0  1  0  0  3  0  0  0  0  0  0
  186.9560  177.5090  135.5300 C   0  0  0  0  0  2  0  0  0  0  0  0
  188.1320  177.1070  136.4070 C   0  0  0  0  0  2  0  0  0  0  0  0
  190.1120  177.8870  137.4910 O   0  0  0  0  0  1  0  0  0  0  0  0
  189.0260  178.2970  136.7180 C   0  0  0  0  0  2  0  0  0  0  0  0
  179.3940  179.2470  137.7330 C   0  0  0  0  0  2  0  0  0  0  0  0
  179.1850  181.5120  138.5420 N   0  0  0  0  0  0  0  0  0  0  0  0
  180.6840  184.7160  137.5860 N   0  0  0  0  0  2  0  0  0  0  0  0
  179.2900  182.9750  138.5190 C   0  0  0  0  0  2  0  0  0  0  0  0
  180.7950  180.5130  135.5460 O   0  0  0  0  0  0  0  0  0  0  0  0
  179.6500  180.7150  137.6230 C   0  0  0  0  0  0  0  0  0  0  0  0
  180.3450  183.4700  137.5700 C   0  0  0  0  0  0  0  0  0  0  0  0
  180.4260  181.2570  136.4940 C   0  0  0  0  0  0  0  0  0  0  0  0
  180.7910  182.6340  136.5020 N   0  0  0  0  0  2  0  0  0  0  0  0
  181.3610  179.5750  139.3760 C   0  0  0  0  0  2  0  0  0  0  0  0
  180.5330  179.2120  143.0730 C   0  0  0  0  0  3  0  0  0  0  0  0
  182.7660  179.1560  141.3970 C   0  0  0  0  0  3  0  0  0  0  0  0
  181.5000  179.4050  140.8590 C   0  0  0  0  0  0  0  0  0  0  0  0
  180.3810  179.4120  141.7000 C   0  0  0  0  0  3  0  0  0  0  0  0
  182.9350  178.9550  142.7780 C   0  0  0  0  0  0  0  0  0  0  0  0
  181.8040  178.9890  143.6100 C   0  0  0  0  0  3  0  0  0  0  0  0
  185.1590  178.3740  145.5730 C   0  0  1  0  0  3  0  0  0  0  0  0
  185.7570  179.0900  146.7650 C   0  0  0  0  0  1  0  0  0  0  0  0
  186.4410  177.5290  143.4800 C   0  0  1  0  0  3  0  0  0  0  0  0
  184.2460  178.7330  143.3310 N   0  0  0  0  0  0  0  0  0  0  0  0
  184.6430  179.3980  144.5690 C   0  0  0  0  0  2  0  0  0  0  0  0
  186.1880  177.3950  144.9900 C   0  0  0  0  0  2  0  0  0  0  0  0
  185.1860  177.8350  142.6510 C   0  0  0  0  0  2  0  0  0  0  0  0
  187.6540  178.3910  143.1310 C   0  0  0  0  0  2  0  0  0  0  0  0
  188.2960  177.6720  140.2840 C   0  0  0  0  0  1  0  0  0  0  0  0
  190.5720  177.2100  140.9820 N   0  0  0  0  0  2  0  0  0  0  0  0
  189.3670  177.9670  141.3240 C   0  0  2  0  0  3  0  0  0  0  0  0
  192.8160  176.9590  141.5150 F   0  0  0  0  0  0  0  0  0  0  0  0
  191.6420  177.5760  141.9050 C   0  0  2  0  0  3  0  0  0  0  0  0
  188.8810  177.5780  142.7300 C   0  0  1  0  0  3  0  0  0  0  0  0
  189.9920  177.8200  143.7500 C   0  0  0  0  0  2  0  0  0  0  0  0
  191.2790  177.1280  143.3180 C   0  0  0  0  0  2  0  0  0  0  0  0
  1 27  1  6  0  0  0
  1 36  1  0  0  0  0
  2  9  1  0  0  0  0
  3 20  1  1  0  0  0
  3  7  1  0  0  0  0
  4  5  1  0  0  0  0
  5  1  1  1  0  0  0
  5 12  1  0  0  0  0
  6 18  1  6  0  0  0
  6 15  1  0  0  0  0
  6 14  1  0  0  0  0
  7  4  1  6  0  0  0
  7 11  1  0  0  0  0
  8  3  1  0  0  0  0
 10  8  1  6  0  0  0
 10  6  1  0  0  0  0
 10 14  1  0  0  0  0
 11 13  1  1  0  0  0
 12  9  1  6  0  0  0
 12 13  1  0  0  0  0
 14 11  1  0  0  0  0
 15  2  1  0  0  0  0
 16 15  1  0  0  0  0
 17 16  2  0  0  0  0
 19 18  1  0  0  0  0
 20 22  1  0  0  0  0
 21 22  1  0  0  0  0
 22 23  1  0  0  0  0
 23 24  1  0  0  0  0
 24 26  1  0  0  0  0
 26 25  1  0  0  0  0
 30 28  1  0  0  0  0
 31 34  2  0  0  0  0
 32 27  1  0  0  0  0
 32 28  2  0  0  0  0
 33 29  2  0  0  0  0
 33 30  1  0  0  0  0
 34 35  1  0  0  0  0
 34 32  1  0  0  0  0
 35 33  1  0  0  0  0
 36 39  1  0  0  0  0
 37 42  1  0  0  0  0
 38 41  1  0  0  0  0
 39 38  2  0  0  0  0
 39 40  1  0  0  0  0
 40 37  2  0  0  0  0
 41 46  1  0  0  0  0
 41 42  2  0  0  0  0
 43 44  1  0  0  0  0
 45 48  1  0  0  0  0
 46 47  1  0  0  0  0
 47 43  1  0  0  0  0
 48 43  1  0  0  0  0
 49 46  1  0  0  0  0
 49 45  1  0  0  0  0
 50 45  1  0  0  0  0
 51 53  1  0  0  0  0
 52 53  1  0  0  0  0
 52 55  1  0  0  0  0
 53 56  1  0  0  0  0
 54 55  1  0  0  0  0
 55 58  1  0  0  0  0
 56 50  1  0  0  0  0
 56 57  1  0  0  0  0
 58 57  1  0  0  0  0
M  END
>  <MODEL>
5

>  <REMARK>
 VINA RESULT:      -7.0      2.642      6.092
  Name = 
  15 active torsions:
  status: ('A' for Active; 'I' for Inactive)
    1  A    between atoms: C_4  and  C_22
    2  A    between atoms: C_4  and  C_40
    3  A    between atoms: C_6  and  C_25
    4  A    between atoms: C_6  and  C_38
    5  A    between atoms: C_7  and  C_58
    6  A    between atoms: C_9  and  C_17
    7  A    between atoms: C_12  and  C_49
    8  A    between atoms: C_16  and  C_17
    9  A    between atoms: C_16  and  C_30
   10  A    between atoms: C_23  and  C_33
   11  A    between atoms: N_29  and  C_35
   12  A    between atoms: C_30  and  C_32
   13  A    between atoms: C_31  and  C_38
   14  A    between atoms: C_32  and  C_48
   15  A    between atoms: C_38  and  C_49
                            x       y       z     vdW  Elec       q    Type
                         _______ _______ _______ _____ _____    ______ ____

>  <TORSDO>
F 15

$$$$
=
 OpenBabel11062418013D

 58 65  0  0  1  0  0  0  0  0999 V2000
  189.6800  177.5040  140.4180 C   0  0  2  0  0  3  0  0  0  0  0  0
  191.1970  176.7030  143.8460 O   0  0  0  0  0  0  0  0  0  0  0  0
  186.9170  178.8350  144.2660 C   0  0  2  0  0  3  0  0  0  0  0  0
  187.7860  177.9500  141.9890 C   0  0  0  0  0  2  0  0  0  0  0  0
  189.2110  177.3390  141.8690 C   0  0  1  0  0  3  0  0  0  0  0  0
  189.4550  177.7130  145.0990 C   0  0  2  0  0  0  0  0  0  0  0  0
  187.0070  177.6450  143.2920 C   0  0  1  0  0  3  0  0  0  0  0  0
  187.0130  178.4720  145.6390 O   0  0  0  0  0  0  0  0  0  0  0  0
  190.5610  175.5670  143.2990 C   0  0  0  0  0  2  0  0  0  0  0  0
  188.2050  177.7710  146.0410 C   0  0  1  0  0  3  0  0  0  0  0  0
  187.4610  176.3730  143.9820 C   0  0  1  0  0  3  0  0  0  0  0  0
  189.3420  175.8790  142.3830 C   0  0  1  0  0  3  0  0  0  0  0  0
  188.0520  175.3540  143.0120 C   0  0  0  0  0  2  0  0  0  0  0  0
  188.4010  176.5790  145.1620 C   0  0  1  0  0  3  0  0  0  0  0  0
  190.7180  176.8690  145.1650 C   0  0  2  0  0  3  0  0  0  0  0  0
  191.7600  177.5180  146.0190 C   0  0  0  0  0  3  0  0  0  0  0  0
  191.9460  177.1250  147.1590 O   0  0  0  0  0  0  0  0  0  0  0  0
  189.6080  178.9780  144.2340 C   0  0  0  0  0  2  0  0  0  0  0  0
  191.0630  179.3990  144.1370 C   0  0  0  0  0  1  0  0  0  0  0  0
  185.6280  179.6060  144.0330 C   0  0  0  0  0  2  0  0  0  0  0  0
  183.9490  179.0130  145.6230 O   0  0  0  0  0  1  0  0  0  0  0  0
  184.4230  178.7320  144.3410 C   0  0  1  0  0  3  0  0  0  0  0  0
  183.3350  179.0030  143.3160 C   0  0  0  0  0  2  0  0  0  0  0  0
  181.9570  178.9850  143.9610 C   0  0  0  0  0  2  0  0  0  0  0  0
  180.4150  180.4880  142.9300 O   0  0  0  0  0  1  0  0  0  0  0  0
  180.8570  179.1660  142.9270 C   0  0  0  0  0  2  0  0  0  0  0  0
  191.1920  177.3420  140.2310 C   0  0  0  0  0  2  0  0  0  0  0  0
  190.5490  175.6330  138.6510 N   0  0  0  0  0  0  0  0  0  0  0  0
  192.1090  174.2020  135.6600 N   0  0  0  0  0  2  0  0  0  0  0  0
  190.7210  174.6330  137.5920 C   0  0  0  0  0  2  0  0  0  0  0  0
  193.7530  177.1290  138.9110 O   0  0  0  0  0  0  0  0  0  0  0  0
  191.4830  176.4300  139.0840 C   0  0  0  0  0  0  0  0  0  0  0  0
  191.9370  174.8810  136.7440 C   0  0  0  0  0  0  0  0  0  0  0  0
  192.8100  176.4370  138.4410 C   0  0  0  0  0  0  0  0  0  0  0  0
  193.0070  175.6790  137.2510 N   0  0  0  0  0  2  0  0  0  0  0  0
  189.0580  178.6790  139.6500 C   0  0  0  0  0  2  0  0  0  0  0  0
  188.2870  177.9620  135.9930 C   0  0  0  0  0  3  0  0  0  0  0  0
  187.0130  177.8610  138.4750 C   0  0  0  0  0  3  0  0  0  0  0  0
  188.3320  178.3150  138.3910 C   0  0  0  0  0  0  0  0  0  0  0  0
  188.9740  178.3440  137.1460 C   0  0  0  0  0  3  0  0  0  0  0  0
  186.3080  177.4750  137.3230 C   0  0  0  0  0  0  0  0  0  0  0  0
  186.9600  177.5340  136.0790 C   0  0  0  0  0  3  0  0  0  0  0  0
  183.8010  174.9070  137.7960 C   0  0  1  0  0  3  0  0  0  0  0  0
  183.1960  173.7140  137.0890 C   0  0  0  0  0  1  0  0  0  0  0  0
  182.6080  177.1490  138.3340 C   0  0  1  0  0  3  0  0  0  0  0  0
  184.9370  177.0410  137.4120 N   0  0  0  0  0  0  0  0  0  0  0  0
  184.5210  175.7890  136.7830 C   0  0  0  0  0  2  0  0  0  0  0  0
  182.7130  175.6390  138.5960 C   0  0  0  0  0  2  0  0  0  0  0  0
  183.9560  177.8550  138.1360 C   0  0  0  0  0  2  0  0  0  0  0  0
  181.5430  177.5240  137.3030 C   0  0  0  0  0  2  0  0  0  0  0  0
  179.4930  177.3590  139.4950 C   0  0  0  0  0  1  0  0  0  0  0  0
  179.5180  179.7810  139.6140 N   0  0  0  0  0  2  0  0  0  0  0  0
  180.3080  178.6140  139.2180 C   0  0  2  0  0  3  0  0  0  0  0  0
  179.6400  182.0730  139.9480 F   0  0  0  0  0  0  0  0  0  0  0  0
  180.3350  180.9810  139.4630 C   0  0  2  0  0  3  0  0  0  0  0  0
  180.6760  178.7050  137.7280 C   0  0  1  0  0  3  0  0  0  0  0  0
  181.4360  180.0020  137.4590 C   0  0  0  0  0  2  0  0  0  0  0  0
  180.6580  181.2020  137.9870 C   0  0  0  0  0  2  0  0  0  0  0  0
  1 36  1  1  0  0  0
  2 15  1  0  0  0  0
  3 20  1  1  0  0  0
  3  8  1  0  0  0  0
  5  1  1  6  0  0  0
  5  4  1  0  0  0  0
  5 12  1  0  0  0  0
  6 18  1  6  0  0  0
  6 14  1  0  0  0  0
  6 15  1  0  0  0  0
  6 10  1  0  0  0  0
  7  4  1  6  0  0  0
  7 11  1  0  0  0  0
  7  3  1  0  0  0  0
  9  2  1  0  0  0  0
 10  8  1  6  0  0  0
 11 13  1  6  0  0  0
 11 14  1  0  0  0  0
 12 13  1  1  0  0  0
 12  9  1  0  0  0  0
 14 10  1  0  0  0  0
 15 16  1  0  0  0  0
 16 17  2  0  0  0  0
 19 18  1  0  0  0  0
 20 22  1  0  0  0  0
 22 21  1  0  0  0  0
 23 24  1  0  0  0  0
 23 22  1  0  0  0  0
 26 25  1  0  0  0  0
 26 24  1  0  0  0  0
 27  1  1  0  0  0  0
 28 32  2  0  0  0  0
 29 33  2  0  0  0  0
 30 28  1  0  0  0  0
 32 27  1  0  0  0  0
 33 35  1  0  0  0  0
 33 30  1  0  0  0  0
 34 31  2  0  0  0  0
 34 32  1  0  0  0  0
 35 34  1  0  0  0  0
 37 42  2  0  0  0  0
 37 40  1  0  0  0  0
 39 38  1  0  0  0  0
 39 36  1  0  0  0  0
 40 39  2  0  0  0  0
 41 46  1  0  0  0  0
 41 38  2  0  0  0  0
 42 41  1  0  0  0  0
 43 48  1  0  0  0  0
 44 43  1  0  0  0  0
 45 48  1  0  0  0  0
 46 49  1  0  0  0  0
 47 46  1  0  0  0  0
 47 43  1  0  0  0  0
 49 45  1  0  0  0  0
 50 56  1  0  0  0  0
 50 45  1  0  0  0  0
 53 51  1  0  0  0  0
 53 52  1  0  0  0  0
 55 52  1  0  0  0  0
 55 54  1  0  0  0  0
 56 53  1  0  0  0  0
 57 56  1  0  0  0  0
 57 58  1  0  0  0  0
 58 55  1  0  0  0  0
M  END
>  <MODEL>
6

>  <REMARK>
 VINA RESULT:      -7.0      3.803      9.921
  Name = 
  15 active torsions:
  status: ('A' for Active; 'I' for Inactive)
    1  A    between atoms: C_4  and  C_22
    2  A    between atoms: C_4  and  C_40
    3  A    between atoms: C_6  and  C_25
    4  A    between atoms: C_6  and  C_38
    5  A    between atoms: C_7  and  C_58
    6  A    between atoms: C_9  and  C_17
    7  A    between atoms: C_12  and  C_49
    8  A    between atoms: C_16  and  C_17
    9  A    between atoms: C_16  and  C_30
   10  A    between atoms: C_23  and  C_33
   11  A    between atoms: N_29  and  C_35
   12  A    between atoms: C_30  and  C_32
   13  A    between atoms: C_31  and  C_38
   14  A    between atoms: C_32  and  C_48
   15  A    between atoms: C_38  and  C_49
                            x       y       z     vdW  Elec       q    Type
                         _______ _______ _______ _____ _____    ______ ____

>  <TORSDO>
F 15

$$$$
=
 OpenBabel11062418013D

 58 65  0  0  1  0  0  0  0  0999 V2000
  182.6420  177.4190  138.4730 C   0  0  2  0  0  3  0  0  0  0  0  0
  186.1650  176.5340  137.2510 O   0  0  0  0  0  0  0  0  0  0  0  0
  182.9010  173.4080  135.6340 C   0  0  2  0  0  3  0  0  0  0  0  0
  182.2150  175.6330  136.7740 C   0  0  0  0  0  2  0  0  0  0  0  0
  183.2940  176.5870  137.3620 C   0  0  1  0  0  3  0  0  0  0  0  0
  185.5200  174.5390  136.1440 C   0  0  2  0  0  0  0  0  0  0  0  0
  182.5770  174.9030  135.4570 C   0  0  1  0  0  3  0  0  0  0  0  0
  183.9530  172.9370  134.7970 O   0  0  0  0  0  0  0  0  0  0  0  0
  185.5870  177.5350  136.4400 C   0  0  0  0  0  2  0  0  0  0  0  0
  185.2260  173.5970  134.9270 C   0  0  1  0  0  3  0  0  0  0  0  0
  183.6300  175.6250  134.6380 C   0  0  1  0  0  3  0  0  0  0  0  0
  184.0380  177.4590  136.3140 C   0  0  1  0  0  3  0  0  0  0  0  0
  183.6330  177.1320  134.8770 C   0  0  0  0  0  2  0  0  0  0  0  0
  185.0420  175.0700  134.7690 C   0  0  1  0  0  3  0  0  0  0  0  0
  186.6540  175.5190  136.3990 C   0  0  2  0  0  3  0  0  0  0  0  0
  187.8310  174.8380  137.0210 C   0  0  0  0  0  3  0  0  0  0  0  0
  188.8990  174.8070  136.4330 O   0  0  0  0  0  0  0  0  0  0  0  0
  184.7920  174.0990  137.4270 C   0  0  0  0  0  2  0  0  0  0  0  0
  185.3610  172.7960  137.9570 C   0  0  0  0  0  1  0  0  0  0  0  0
  181.6540  172.5710  135.4020 C   0  0  0  0  0  2  0  0  0  0  0  0
  182.7210  171.2530  137.0810 O   0  0  0  0  0  1  0  0  0  0  0  0
  181.4800  171.5560  136.5180 C   0  0  1  0  0  3  0  0  0  0  0  0
  180.5590  172.1340  137.5800 C   0  0  0  0  0  2  0  0  0  0  0  0
  179.3650  172.8340  136.9480 C   0  0  0  0  0  2  0  0  0  0  0  0
  179.3090  173.8920  139.0880 O   0  0  0  0  0  1  0  0  0  0  0  0
  178.9490  174.0560  137.7510 C   0  0  0  0  0  2  0  0  0  0  0  0
  183.1250  178.8710  138.5290 C   0  0  0  0  0  2  0  0  0  0  0  0
  181.1720  179.3180  137.1800 N   0  0  0  0  0  0  0  0  0  0  0  0
  178.9460  182.2010  136.7850 N   0  0  0  0  0  2  0  0  0  0  0  0
  180.1430  180.1190  136.5090 C   0  0  0  0  0  2  0  0  0  0  0  0
  183.0070  181.7110  139.0450 O   0  0  0  0  0  0  0  0  0  0  0  0
  182.0820  179.7920  137.9820 C   0  0  0  0  0  0  0  0  0  0  0  0
  179.9460  181.4680  137.1430 C   0  0  0  0  0  0  0  0  0  0  0  0
  182.0760  181.2180  138.3520 C   0  0  0  0  0  0  0  0  0  0  0  0
  180.9800  182.0340  137.9480 N   0  0  0  0  0  2  0  0  0  0  0  0
  182.5260  176.7250  139.8380 C   0  0  0  0  0  2  0  0  0  0  0  0
  181.5430  179.2630  142.4990 C   0  0  0  0  0  3  0  0  0  0  0  0
  183.6910  177.5940  141.8690 C   0  0  0  0  0  3  0  0  0  0  0  0
  182.5730  177.6330  141.0300 C   0  0  0  0  0  0  0  0  0  0  0  0
  181.4900  178.4560  141.3610 C   0  0  0  0  0  3  0  0  0  0  0  0
  183.7600  178.4020  143.0160 C   0  0  0  0  0  0  0  0  0  0  0  0
  182.6730  179.2400  143.3200 C   0  0  0  0  0  3  0  0  0  0  0  0
  185.3590  178.6060  146.2560 C   0  0  1  0  0  3  0  0  0  0  0  0
  185.6970  179.6110  147.3370 C   0  0  0  0  0  1  0  0  0  0  0  0
  187.0470  177.3620  144.7270 C   0  0  1  0  0  3  0  0  0  0  0  0
  184.9280  178.3830  143.8570 N   0  0  0  0  0  0  0  0  0  0  0  0
  185.0590  179.3390  144.9540 C   0  0  0  0  0  2  0  0  0  0  0  0
  186.4890  177.5720  146.1420 C   0  0  0  0  0  2  0  0  0  0  0  0
  185.9900  177.4000  143.6150 C   0  0  0  0  0  2  0  0  0  0  0  0
  188.3040  178.1790  144.4310 C   0  0  0  0  0  2  0  0  0  0  0  0
  188.2130  178.3390  141.4310 C   0  0  0  0  0  1  0  0  0  0  0  0
  190.5050  177.5490  141.3830 N   0  0  0  0  0  2  0  0  0  0  0  0
  189.5130  178.2340  142.2140 C   0  0  2  0  0  3  0  0  0  0  0  0
  192.7590  177.0130  141.2510 F   0  0  0  0  0  0  0  0  0  0  0  0
  191.7880  177.5480  142.0790 C   0  0  2  0  0  3  0  0  0  0  0  0
  189.2980  177.4590  143.5240 C   0  0  1  0  0  3  0  0  0  0  0  0
  190.6250  177.3070  144.2640 C   0  0  0  0  0  2  0  0  0  0  0  0
  191.6860  176.7060  143.3480 C   0  0  0  0  0  2  0  0  0  0  0  0
  1 27  1  1  0  0  0
  1 36  1  0  0  0  0
  3 20  1  6  0  0  0
  4  5  1  0  0  0  0
  5  1  1  1  0  0  0
  6 15  1  0  0  0  0
  6 18  1  1  0  0  0
  7  3  1  0  0  0  0
  7  4  1  1  0  0  0
  8  3  1  0  0  0  0
  9  2  1  0  0  0  0
 10  8  1  1  0  0  0
 10  6  1  0  0  0  0
 11 14  1  0  0  0  0
 11 13  1  1  0  0  0
 11  7  1  0  0  0  0
 12 13  1  6  0  0  0
 12  9  1  0  0  0  0
 12  5  1  0  0  0  0
 14 10  1  0  0  0  0
 14  6  1  0  0  0  0
 15 16  1  0  0  0  0
 15  2  1  0  0  0  0
 17 16  2  0  0  0  0
 18 19  1  0  0  0  0
 20 22  1  0  0  0  0
 22 21  1  0  0  0  0
 22 23  1  0  0  0  0
 24 23  1  0  0  0  0
 24 26  1  0  0  0  0
 26 25  1  0  0  0  0
 28 32  2  0  0  0  0
 29 33  2  0  0  0  0
 30 33  1  0  0  0  0
 30 28  1  0  0  0  0
 32 34  1  0  0  0  0
 32 27  1  0  0  0  0
 33 35  1  0  0  0  0
 34 31  2  0  0  0  0
 35 34  1  0  0  0  0
 36 39  1  0  0  0  0
 37 42  1  0  0  0  0
 38 41  1  0  0  0  0
 39 40  1  0  0  0  0
 39 38  2  0  0  0  0
 40 37  2  0  0  0  0
 41 42  2  0  0  0  0
 41 46  1  0  0  0  0
 43 44  1  0  0  0  0
 45 48  1  0  0  0  0
 46 47  1  0  0  0  0
 47 43  1  0  0  0  0
 48 43  1  0  0  0  0
 49 46  1  0  0  0  0
 49 45  1  0  0  0  0
 50 45  1  0  0  0  0
 51 53  1  0  0  0  0
 52 55  1  0  0  0  0
 52 53  1  0  0  0  0
 53 56  1  0  0  0  0
 54 55  1  0  0  0  0
 55 58  1  0  0  0  0
 56 57  1  0  0  0  0
 56 50  1  0  0  0  0
 58 57  1  0  0  0  0
M  END
>  <MODEL>
7

>  <REMARK>
 VINA RESULT:      -6.9      2.704      6.318
  Name = 
  15 active torsions:
  status: ('A' for Active; 'I' for Inactive)
    1  A    between atoms: C_4  and  C_22
    2  A    between atoms: C_4  and  C_40
    3  A    between atoms: C_6  and  C_25
    4  A    between atoms: C_6  and  C_38
    5  A    between atoms: C_7  and  C_58
    6  A    between atoms: C_9  and  C_17
    7  A    between atoms: C_12  and  C_49
    8  A    between atoms: C_16  and  C_17
    9  A    between atoms: C_16  and  C_30
   10  A    between atoms: C_23  and  C_33
   11  A    between atoms: N_29  and  C_35
   12  A    between atoms: C_30  and  C_32
   13  A    between atoms: C_31  and  C_38
   14  A    between atoms: C_32  and  C_48
   15  A    between atoms: C_38  and  C_49
                            x       y       z     vdW  Elec       q    Type
                         _______ _______ _______ _____ _____    ______ ____

>  <TORSDO>
F 15

$$$$
=
 OpenBabel11062418013D

 58 65  0  0  1  0  0  0  0  0999 V2000
  186.2980  178.1840  138.1020 C   0  0  2  0  0  3  0  0  0  0  0  0
  187.6180  175.2040  136.0860 O   0  0  0  0  0  0  0  0  0  0  0  0
  182.8450  175.0350  136.5620 C   0  0  2  0  0  3  0  0  0  0  0  0
  184.2080  177.1450  137.2020 C   0  0  0  0  0  2  0  0  0  0  0  0
  185.7610  177.1410  137.1150 C   0  0  1  0  0  3  0  0  0  0  0  0
  185.5100  174.1460  135.8500 C   0  0  2  0  0  0  0  0  0  0  0  0
  183.4490  176.3720  136.0950 C   0  0  1  0  0  3  0  0  0  0  0  0
  182.9130  173.9950  135.5910 O   0  0  0  0  0  0  0  0  0  0  0  0
  187.4820  176.3450  135.2660 C   0  0  0  0  0  2  0  0  0  0  0  0
  184.2240  173.6460  135.1080 C   0  0  1  0  0  3  0  0  0  0  0  0
  184.2410  176.2260  134.8100 C   0  0  1  0  0  3  0  0  0  0  0  0
  186.3370  177.3150  135.6820 C   0  0  1  0  0  3  0  0  0  0  0  0
  185.2510  177.3530  134.6080 C   0  0  0  0  0  2  0  0  0  0  0  0
  184.9170  174.8750  134.6180 C   0  0  1  0  0  3  0  0  0  0  0  0
  186.9730  174.1290  135.4360 C   0  0  2  0  0  3  0  0  0  0  0  0
  187.6240  172.8330  135.8000 C   0  0  0  0  0  3  0  0  0  0  0  0
  188.2500  172.7360  136.8420 O   0  0  0  0  0  0  0  0  0  0  0  0
  185.3050  174.2830  137.3690 C   0  0  0  0  0  2  0  0  0  0  0  0
  184.9450  172.9480  137.9940 C   0  0  0  0  0  1  0  0  0  0  0  0
  181.4010  175.2340  136.9930 C   0  0  0  0  0  2  0  0  0  0  0  0
  180.9870  175.7340  139.2900 O   0  0  0  0  0  1  0  0  0  0  0  0
  181.1840  174.6830  138.3920 C   0  0  1  0  0  3  0  0  0  0  0  0
  179.9660  173.7740  138.3870 C   0  0  0  0  0  2  0  0  0  0  0  0
  179.6460  173.2930  136.9810 C   0  0  0  0  0  2  0  0  0  0  0  0
  180.9820  171.4080  136.3780 O   0  0  0  0  0  1  0  0  0  0  0  0
  179.7340  171.7780  136.8780 C   0  0  0  0  0  2  0  0  0  0  0  0
  187.1570  177.5950  139.2250 C   0  0  0  0  0  2  0  0  0  0  0  0
  189.2230  176.3460  139.2010 N   0  0  0  0  0  0  0  0  0  0  0  0
  192.2640  176.4760  137.1600 N   0  0  0  0  0  2  0  0  0  0  0  0
  190.6260  176.0520  138.8870 C   0  0  0  0  0  2  0  0  0  0  0  0
  188.5800  179.3400  137.4140 O   0  0  0  0  0  0  0  0  0  0  0  0
  188.5570  177.3710  138.7510 C   0  0  0  0  0  0  0  0  0  0  0  0
  191.1180  176.7820  137.6690 C   0  0  0  0  0  0  0  0  0  0  0  0
  189.1750  178.2910  137.7800 C   0  0  0  0  0  0  0  0  0  0  0  0
  190.4450  177.9610  137.2260 N   0  0  0  0  0  2  0  0  0  0  0  0
  185.2870  179.2480  138.5550 C   0  0  0  0  0  2  0  0  0  0  0  0
  182.6920  178.5950  141.2620 C   0  0  0  0  0  3  0  0  0  0  0  0
  185.4620  178.8410  141.0120 C   0  0  0  0  0  3  0  0  0  0  0  0
  184.6480  179.0050  139.8880 C   0  0  0  0  0  0  0  0  0  0  0  0
  183.2600  178.8600  140.0140 C   0  0  0  0  0  3  0  0  0  0  0  0
  184.9050  178.5760  142.2740 C   0  0  0  0  0  0  0  0  0  0  0  0
  183.5100  178.4580  142.3860 C   0  0  0  0  0  3  0  0  0  0  0  0
  185.3930  177.9500  145.8060 C   0  0  1  0  0  3  0  0  0  0  0  0
  185.1630  178.5970  147.1540 C   0  0  0  0  0  1  0  0  0  0  0  0
  187.6900  177.4780  144.6940 C   0  0  1  0  0  3  0  0  0  0  0  0
  185.7480  178.4420  143.4340 N   0  0  0  0  0  0  0  0  0  0  0  0
  185.3320  179.0120  144.7140 C   0  0  0  0  0  2  0  0  0  0  0  0
  186.7080  177.1580  145.8310 C   0  0  0  0  0  2  0  0  0  0  0  0
  187.0270  177.7300  143.3330 C   0  0  0  0  0  2  0  0  0  0  0  0
  188.7620  178.5010  145.0720 C   0  0  0  0  0  2  0  0  0  0  0  0
  189.6920  177.9600  147.8790 C   0  0  0  0  0  1  0  0  0  0  0  0
  191.3370  176.4280  146.9700 N   0  0  0  0  0  2  0  0  0  0  0  0
  190.0440  177.0600  146.7030 C   0  0  2  0  0  3  0  0  0  0  0  0
  192.7870  174.7840  146.2090 F   0  0  0  0  0  0  0  0  0  0  0  0
  191.6280  175.4740  145.9040 C   0  0  2  0  0  3  0  0  0  0  0  0
  190.1130  177.8720  145.3990 C   0  0  1  0  0  3  0  0  0  0  0  0
  190.5320  176.9660  144.2430 C   0  0  0  0  0  2  0  0  0  0  0  0
  191.8150  176.2170  144.5840 C   0  0  0  0  0  2  0  0  0  0  0  0
  1 36  1  1  0  0  0
  1 27  1  0  0  0  0
  3 20  1  6  0  0  0
  5  4  1  0  0  0  0
  5  1  1  1  0  0  0
  6 18  1  1  0  0  0
  7  3  1  0  0  0  0
  7  4  1  1  0  0  0
  8  3  1  0  0  0  0
  9 12  1  0  0  0  0
  9  2  1  0  0  0  0
 10  8  1  1  0  0  0
 10  6  1  0  0  0  0
 11 13  1  1  0  0  0
 11  7  1  0  0  0  0
 12 13  1  6  0  0  0
 12  5  1  0  0  0  0
 14 11  1  0  0  0  0
 14 10  1  0  0  0  0
 14  6  1  0  0  0  0
 15 16  1  0  0  0  0
 15  6  1  0  0  0  0
 15  2  1  0  0  0  0
 16 17  2  0  0  0  0
 18 19  1  0  0  0  0
 20 22  1  0  0  0  0
 22 21  1  0  0  0  0
 23 22  1  0  0  0  0
 24 23  1  0  0  0  0
 25 26  1  0  0  0  0
 26 24  1  0  0  0  0
 29 33  2  0  0  0  0
 30 28  1  0  0  0  0
 31 34  2  0  0  0  0
 32 28  2  0  0  0  0
 32 27  1  0  0  0  0
 33 30  1  0  0  0  0
 34 32  1  0  0  0  0
 35 33  1  0  0  0  0
 35 34  1  0  0  0  0
 36 39  1  0  0  0  0
 37 42  1  0  0  0  0
 38 41  1  0  0  0  0
 39 40  1  0  0  0  0
 39 38  2  0  0  0  0
 40 37  2  0  0  0  0
 41 42  2  0  0  0  0
 41 46  1  0  0  0  0
 43 48  1  0  0  0  0
 43 44  1  0  0  0  0
 45 50  1  0  0  0  0
 45 48  1  0  0  0  0
 46 47  1  0  0  0  0
 47 43  1  0  0  0  0
 49 46  1  0  0  0  0
 49 45  1  0  0  0  0
 50 56  1  0  0  0  0
 53 52  1  0  0  0  0
 53 51  1  0  0  0  0
 55 54  1  0  0  0  0
 55 52  1  0  0  0  0
 56 53  1  0  0  0  0
 57 58  1  0  0  0  0
 57 56  1  0  0  0  0
 58 55  1  0  0  0  0
M  END
>  <MODEL>
8

>  <REMARK>
 VINA RESULT:      -6.8      3.202      6.246
  Name = 
  15 active torsions:
  status: ('A' for Active; 'I' for Inactive)
    1  A    between atoms: C_4  and  C_22
    2  A    between atoms: C_4  and  C_40
    3  A    between atoms: C_6  and  C_25
    4  A    between atoms: C_6  and  C_38
    5  A    between atoms: C_7  and  C_58
    6  A    between atoms: C_9  and  C_17
    7  A    between atoms: C_12  and  C_49
    8  A    between atoms: C_16  and  C_17
    9  A    between atoms: C_16  and  C_30
   10  A    between atoms: C_23  and  C_33
   11  A    between atoms: N_29  and  C_35
   12  A    between atoms: C_30  and  C_32
   13  A    between atoms: C_31  and  C_38
   14  A    between atoms: C_32  and  C_48
   15  A    between atoms: C_38  and  C_49
                            x       y       z     vdW  Elec       q    Type
                         _______ _______ _______ _____ _____    ______ ____

>  <TORSDO>
F 15

$$$$
=
 OpenBabel11062418013D

 58 65  0  0  1  0  0  0  0  0999 V2000
  189.6200  177.4890  140.4900 C   0  0  2  0  0  3  0  0  0  0  0  0
  191.1430  176.6930  143.9160 O   0  0  0  0  0  0  0  0  0  0  0  0
  186.8230  178.7430  144.3390 C   0  0  2  0  0  3  0  0  0  0  0  0
  187.7140  177.8900  142.0580 C   0  0  0  0  0  2  0  0  0  0  0  0
  189.1500  177.3060  141.9380 C   0  0  1  0  0  3  0  0  0  0  0  0
  189.3800  177.6620  145.1710 C   0  0  2  0  0  0  0  0  0  0  0  0
  186.9370  177.5620  143.3570 C   0  0  1  0  0  3  0  0  0  0  0  0
  186.9220  178.3720  145.7100 O   0  0  0  0  0  0  0  0  0  0  0  0
  190.5300  175.5500  143.3600 C   0  0  0  0  0  2  0  0  0  0  0  0
  188.1260  177.6910  146.1100 C   0  0  1  0  0  3  0  0  0  0  0  0
  187.4140  176.2940  144.0400 C   0  0  1  0  0  3  0  0  0  0  0  0
  189.3070  175.8450  142.4420 C   0  0  1  0  0  3  0  0  0  0  0  0
  188.0250  175.2920  143.0640 C   0  0  0  0  0  2  0  0  0  0  0  0
  188.3470  176.5090  145.2240 C   0  0  1  0  0  3  0  0  0  0  0  0
  190.6580  176.8420  145.2350 C   0  0  2  0  0  3  0  0  0  0  0  0
  191.6860  177.5040  146.0960 C   0  0  0  0  0  3  0  0  0  0  0  0
  192.0550  176.9670  147.1270 O   0  0  0  0  0  0  0  0  0  0  0  0
  189.5120  178.9360  144.3160 C   0  0  0  0  0  2  0  0  0  0  0  0
  190.9590  179.3800  144.2190 C   0  0  0  0  0  1  0  0  0  0  0  0
  185.5200  179.4910  144.1080 C   0  0  0  0  0  2  0  0  0  0  0  0
  183.7970  179.0090  145.6860 O   0  0  0  0  0  1  0  0  0  0  0  0
  184.3330  178.6110  144.4610 C   0  0  1  0  0  3  0  0  0  0  0  0
  183.2800  178.7350  143.3720 C   0  0  0  0  0  2  0  0  0  0  0  0
  181.8930  178.9160  143.9680 C   0  0  0  0  0  2  0  0  0  0  0  0
  179.6850  178.4800  143.1680 O   0  0  0  0  0  1  0  0  0  0  0  0
  180.8550  179.1870  142.8900 C   0  0  0  0  0  2  0  0  0  0  0  0
  191.1330  177.3450  140.3030 C   0  0  0  0  0  2  0  0  0  0  0  0
  190.5220  175.6410  138.7060 N   0  0  0  0  0  0  0  0  0  0  0  0
  192.0780  174.3120  135.6660 N   0  0  0  0  0  2  0  0  0  0  0  0
  190.7090  174.6640  137.6270 C   0  0  0  0  0  2  0  0  0  0  0  0
  193.6780  177.2390  138.9390 O   0  0  0  0  0  0  0  0  0  0  0  0
  191.4360  176.4620  139.1360 C   0  0  0  0  0  0  0  0  0  0  0  0
  191.9010  174.9670  136.7640 C   0  0  0  0  0  0  0  0  0  0  0  0
  192.7510  176.5240  138.4720 C   0  0  0  0  0  0  0  0  0  0  0  0
  192.9520  175.7920  137.2670 N   0  0  0  0  0  2  0  0  0  0  0  0
  188.9870  178.6660  139.7320 C   0  0  0  0  0  2  0  0  0  0  0  0
  188.6280  178.2190  135.9690 C   0  0  0  0  0  3  0  0  0  0  0  0
  187.1790  177.7100  138.3010 C   0  0  0  0  0  3  0  0  0  0  0  0
  188.4250  178.3370  138.3820 C   0  0  0  0  0  0  0  0  0  0  0  0
  189.1580  178.5710  137.2120 C   0  0  0  0  0  3  0  0  0  0  0  0
  186.6310  177.3520  137.0570 C   0  0  0  0  0  0  0  0  0  0  0  0
  187.3700  177.6160  135.8920 C   0  0  0  0  0  3  0  0  0  0  0  0
  183.2110  177.2690  135.8750 C   0  0  1  0  0  3  0  0  0  0  0  0
  181.8830  177.9640  136.0790 C   0  0  0  0  0  1  0  0  0  0  0  0
  183.7830  174.8190  136.5160 C   0  0  1  0  0  3  0  0  0  0  0  0
  185.3310  176.7370  136.9780 N   0  0  0  0  0  0  0  0  0  0  0  0
  184.1250  177.5580  137.0610 C   0  0  0  0  0  2  0  0  0  0  0  0
  182.9770  175.7720  135.6210 C   0  0  0  0  0  2  0  0  0  0  0  0
  185.2150  175.2840  136.8120 C   0  0  0  0  0  2  0  0  0  0  0  0
  183.0150  174.3250  137.7420 C   0  0  0  0  0  2  0  0  0  0  0  0
  180.1090  173.8620  137.1330 C   0  0  0  0  0  1  0  0  0  0  0  0
  179.5550  175.4360  138.8930 N   0  0  0  0  0  2  0  0  0  0  0  0
  180.5900  174.5140  138.4210 C   0  0  2  0  0  3  0  0  0  0  0  0
  178.9320  176.7530  140.6980 F   0  0  0  0  0  0  0  0  0  0  0  0
  179.9560  175.9770  140.1880 C   0  0  2  0  0  3  0  0  0  0  0  0
  181.9060  175.2730  138.1870 C   0  0  1  0  0  3  0  0  0  0  0  0
  182.3380  175.9750  139.4730 C   0  0  0  0  0  2  0  0  0  0  0  0
  181.2070  176.8360  140.0220 C   0  0  0  0  0  2  0  0  0  0  0  0
  1 36  1  1  0  0  0
  2 15  1  0  0  0  0
  3 20  1  1  0  0  0
  3  8  1  0  0  0  0
  5  1  1  6  0  0  0
  5  4  1  0  0  0  0
  5 12  1  0  0  0  0
  6 18  1  6  0  0  0
  6 14  1  0  0  0  0
  6 15  1  0  0  0  0
  6 10  1  0  0  0  0
  7  4  1  6  0  0  0
  7 11  1  0  0  0  0
  7  3  1  0  0  0  0
  9  2  1  0  0  0  0
 10  8  1  6  0  0  0
 11 13  1  6  0  0  0
 11 14  1  0  0  0  0
 12 13  1  1  0  0  0
 12  9  1  0  0  0  0
 14 10  1  0  0  0  0
 15 16  1  0  0  0  0
 16 17  2  0  0  0  0
 19 18  1  0  0  0  0
 20 22  1  0  0  0  0
 22 21  1  0  0  0  0
 23 24  1  0  0  0  0
 23 22  1  0  0  0  0
 26 25  1  0  0  0  0
 26 24  1  0  0  0  0
 27  1  1  0  0  0  0
 28 32  2  0  0  0  0
 29 33  2  0  0  0  0
 30 28  1  0  0  0  0
 32 27  1  0  0  0  0
 33 35  1  0  0  0  0
 33 30  1  0  0  0  0
 34 31  2  0  0  0  0
 34 32  1  0  0  0  0
 35 34  1  0  0  0  0
 37 40  1  0  0  0  0
 38 39  1  0  0  0  0
 39 36  1  0  0  0  0
 40 39  2  0  0  0  0
 41 38  2  0  0  0  0
 42 37  2  0  0  0  0
 42 41  1  0  0  0  0
 43 44  1  0  0  0  0
 43 47  1  0  0  0  0
 45 49  1  0  0  0  0
 45 50  1  0  0  0  0
 46 41  1  0  0  0  0
 46 47  1  0  0  0  0
 48 43  1  0  0  0  0
 48 45  1  0  0  0  0
 49 46  1  0  0  0  0
 50 56  1  0  0  0  0
 51 53  1  0  0  0  0
 52 55  1  0  0  0  0
 53 52  1  0  0  0  0
 55 54  1  0  0  0  0
 56 53  1  0  0  0  0
 56 57  1  0  0  0  0
 57 58  1  0  0  0  0
 58 55  1  0  0  0  0
M  END
>  <MODEL>
9

>  <REMARK>
 VINA RESULT:      -6.8      3.871      9.932
  Name = 
  15 active torsions:
  status: ('A' for Active; 'I' for Inactive)
    1  A    between atoms: C_4  and  C_22
    2  A    between atoms: C_4  and  C_40
    3  A    between atoms: C_6  and  C_25
    4  A    between atoms: C_6  and  C_38
    5  A    between atoms: C_7  and  C_58
    6  A    between atoms: C_9  and  C_17
    7  A    between atoms: C_12  and  C_49
    8  A    between atoms: C_16  and  C_17
    9  A    between atoms: C_16  and  C_30
   10  A    between atoms: C_23  and  C_33
   11  A    between atoms: N_29  and  C_35
   12  A    between atoms: C_30  and  C_32
   13  A    between atoms: C_31  and  C_38
   14  A    between atoms: C_32  and  C_48
   15  A    between atoms: C_38  and  C_49
                            x       y       z     vdW  Elec       q    Type
                         _______ _______ _______ _____ _____    ______ ____

>  <TORSDO>
F 15

$$$$
