=
 OpenBabel11062412363D

 51 55  0  0  1  0  0  0  0  0999 V2000
  182.6520  177.3890  139.5550 N   0  0  0  0  0  0  0  0  0  0  0  0
  185.5740  176.5500  137.2410 C   0  0  2  0  0  3  0  0  0  0  0  0
  184.2300  178.8130  140.4350 C   0  0  0  0  0  0  0  0  0  0  0  0
  181.3320  176.8580  139.3740 C   0  0  0  0  0  0  0  0  0  0  0  0
  184.2120  176.4340  137.8920 C   0  0  0  0  0  0  0  0  0  0  0  0
  185.9450  178.2470  138.9040 O   0  0  0  0  0  0  0  0  0  0  0  0
  183.5620  177.6880  138.4440 C   0  0  2  0  0  3  0  0  0  0  0  0
  186.2020  177.9050  137.5660 C   0  0  1  0  0  3  0  0  0  0  0  0
  183.5390  175.3170  137.8810 N   0  0  0  0  0  0  0  0  0  0  0  0
  184.6060  178.6940  139.0000 C   0  0  1  0  0  0  0  0  0  0  0  0
  180.4960  176.6770  140.4700 O   0  0  0  0  0  1  0  0  0  0  0  0
  184.8210  179.5300  141.2300 O   0  0  0  0  0  0  0  0  0  0  0  0
  183.0560  177.9990  140.8090 C   0  0  0  0  0  2  0  0  0  0  0  0
  184.4580  179.9350  138.3760 O   0  0  0  0  0  1  0  0  0  0  0  0
  180.9120  176.5630  138.2230 O   0  0  0  0  0  0  0  0  0  0  0  0
  187.6980  177.9140  137.2660 C   0  0  2  0  0  3  0  0  0  0  0  0
  187.9490  177.9370  135.8900 O   0  0  0  0  0  1  0  0  0  0  0  0
  188.3950  176.7390  137.9590 C   0  0  2  0  0  3  0  0  0  0  0  0
  189.1420  178.6350  139.3990 C   0  0  0  0  0  2  0  0  0  0  0  0
  189.1370  177.1700  139.2280 C   0  0  1  0  0  0  0  0  0  0  0  0
  188.2130  177.8110  140.3140 C   0  0  2  0  0  0  0  0  0  0  0  0
  188.2240  178.8120  141.4620 C   0  0  0  0  0  2  0  0  0  0  0  0
  190.5120  176.5590  139.4830 C   0  0  0  0  0  1  0  0  0  0  0  0
  188.7280  177.4440  141.7460 C   0  0  2  0  0  3  0  0  0  0  0  0
  190.1660  177.5540  141.9610 N   0  0  0  0  0  2  0  0  0  0  0  0
  190.6550  176.3530  143.1180 S   0  0  0  0  0  0  0  0  0  0  0  0
  190.0930  175.0170  142.7170 O   0  0  0  0  0  0  0  0  0  0  0  0
  192.1580  176.2630  143.1660 O   0  0  0  0  0  0  0  0  0  0  0  0
  190.0100  176.7880  144.7330 C   0  0  1  0  0  3  0  0  0  0  0  0
  191.9980  178.1100  145.4940 O   0  0  0  0  0  1  0  0  0  0  0  0
  189.7690  176.0920  147.5990 F   0  0  0  0  0  0  0  0  0  0  0  0
  191.1430  177.0360  145.7470 C   0  0  1  0  0  0  0  0  0  0  0  0
  191.6180  177.5020  148.1290 F   0  0  0  0  0  0  0  0  0  0  0  0
  190.9390  176.7180  147.2130 C   0  0  0  0  0  0  0  0  0  0  0  0
  191.8510  175.8390  146.3690 C   0  0  0  0  0  2  0  0  0  0  0  0
  188.9890  177.9200  144.6360 C   0  0  0  0  0  2  0  0  0  0  0  0
  187.3520  178.0430  146.3190 O   0  0  0  0  0  0  0  0  0  0  0  0
  187.7060  177.5160  145.2790 C   0  0  0  0  0  3  0  0  0  0  0  0
  188.7420  174.5440  136.8280 C   0  0  0  0  0  1  0  0  0  0  0  0
  189.2920  175.9460  137.0130 C   0  0  0  0  0  2  0  0  0  0  0  0
  185.0240  173.5030  137.9350 O   0  0  0  0  0  0  0  0  0  0  0  0
  183.9990  174.0370  137.4340 C   0  0  0  0  0  0  0  0  0  0  0  0
  183.2020  173.3040  136.4070 C   0  0  1  0  0  3  0  0  0  0  0  0
  181.0060  174.0320  135.8210 O   0  0  0  0  0  1  0  0  0  0  0  0
  182.3620  174.2770  135.5990 C   0  0  0  0  0  2  0  0  0  0  0  0
  184.0550  172.5680  135.5410 O   0  0  0  0  0  0  0  0  0  0  0  0
  184.1970  171.1850  135.6410 C   0  0  0  0  0  0  0  0  0  0  0  0
  183.1660  170.3980  136.1460 O   0  0  0  0  0  1  0  0  0  0  0  0
  185.2640  170.6430  135.2580 O   0  0  0  0  0  0  0  0  0  0  0  0
  185.4900  176.3550  135.7490 C   0  0  0  0  0  3  0  0  0  0  0  0
  185.1500  177.3430  134.9190 C   0  0  0  0  0  2  0  0  0  0  0  0
  1 13  1  0  0  0  0
  2 50  1  6  0  0  0
  2  8  1  0  0  0  0
  2  5  1  0  0  0  0
  3 13  1  0  0  0  0
  3 12  2  0  0  0  0
  4  1  1  0  0  0  0
  4 11  1  0  0  0  0
  6 10  1  0  0  0  0
  7  5  1  1  0  0  0
  7 10  1  0  0  0  0
  7  1  1  0  0  0  0
  8 16  1  1  0  0  0
  8  6  1  0  0  0  0
  9  5  2  0  0  0  0
 10 14  1  6  0  0  0
 10  3  1  0  0  0  0
 15  4  2  0  0  0  0
 16 17  1  6  0  0  0
 16 18  1  0  0  0  0
 18 40  1  6  0  0  0
 18 20  1  0  0  0  0
 20 19  1  0  0  0  0
 20 23  1  1  0  0  0
 20 21  1  0  0  0  0
 21 19  1  1  0  0  0
 21 22  1  0  0  0  0
 21 24  1  0  0  0  0
 22 24  1  0  0  0  0
 24 25  1  6  0  0  0
 25 26  1  0  0  0  0
 26 28  2  0  0  0  0
 26 29  1  0  0  0  0
 27 26  2  0  0  0  0
 29 36  1  6  0  0  0
 29 32  1  0  0  0  0
 32 30  1  6  0  0  0
 32 35  1  0  0  0  0
 32 34  1  0  0  0  0
 34 31  1  0  0  0  0
 34 33  1  0  0  0  0
 35 34  1  0  0  0  0
 36 38  1  0  0  0  0
 38 37  2  0  0  0  0
 39 40  1  0  0  0  0
 42  9  1  0  0  0  0
 42 41  2  0  0  0  0
 43 45  1  6  0  0  0
 43 42  1  0  0  0  0
 45 44  1  0  0  0  0
 46 47  1  0  0  0  0
 46 43  1  0  0  0  0
 47 48  1  0  0  0  0
 49 47  2  0  0  0  0
 51 50  2  0  0  0  0
M  END
>  <MODEL>
1

>  <REMARK>
 VINA RESULT:      -7.2      0.000      0.000
  Name = 
  16 active torsions:
  status: ('A' for Active; 'I' for Inactive)
    1  A    between atoms: S_1  and  N_23
    2  A    between atoms: S_1  and  C_49
    3  A    between atoms: C_4  and  O_50
    4  A    between atoms: C_5  and  C_13
    5  A    between atoms: C_11  and  C_24
    6  A    between atoms: C_11  and  C_39
    7  A    between atoms: C_11  and  O_50
    8  A    between atoms: C_14  and  C_33
    9  A    between atoms: C_19  and  C_29
   10  A    between atoms: C_22  and  C_33
   11  A    between atoms: N_23  and  C_43
   12  A    between atoms: C_24  and  N_25
   13  A    between atoms: C_29  and  C_33
   14  A    between atoms: C_30  and  C_49
   15  A    between atoms: C_32  and  C_47
   16  A    between atoms: C_32  and  C_49
                            x       y       z     vdW  Elec       q    Type
                         _______ _______ _______ _____ _____    ______ ____

>  <TORSDO>
F 16

$$$$
=
 OpenBabel11062412363D

 51 55  0  0  1  0  0  0  0  0999 V2000
  182.6020  177.7360  139.9550 N   0  0  0  0  0  0  0  0  0  0  0  0
  184.9630  176.8930  137.0720 C   0  0  2  0  0  3  0  0  0  0  0  0
  184.4050  179.0230  140.5750 C   0  0  0  0  0  0  0  0  0  0  0  0
  181.2420  177.2840  140.0120 C   0  0  0  0  0  0  0  0  0  0  0  0
  183.7490  176.8060  137.9710 C   0  0  0  0  0  0  0  0  0  0  0  0
  185.7530  178.4650  138.7110 O   0  0  0  0  0  0  0  0  0  0  0  0
  183.2960  178.0560  138.7030 C   0  0  2  0  0  3  0  0  0  0  0  0
  185.7230  178.1920  137.3330 C   0  0  1  0  0  3  0  0  0  0  0  0
  183.0190  175.7270  138.0380 N   0  0  0  0  0  0  0  0  0  0  0  0
  184.4870  178.9720  139.0900 C   0  0  1  0  0  0  0  0  0  0  0  0
  180.6250  177.0790  141.2410 O   0  0  0  0  0  1  0  0  0  0  0  0
  185.1810  179.6610  141.2730 O   0  0  0  0  0  0  0  0  0  0  0  0
  183.2780  178.2480  141.1330 C   0  0  0  0  0  2  0  0  0  0  0  0
  184.2970  180.2550  138.5700 O   0  0  0  0  0  1  0  0  0  0  0  0
  180.5890  177.0800  138.9530 O   0  0  0  0  0  0  0  0  0  0  0  0
  187.1300  178.1440  136.7440 C   0  0  2  0  0  3  0  0  0  0  0  0
  187.1200  178.3650  135.3620 O   0  0  0  0  0  1  0  0  0  0  0  0
  187.8260  176.8300  137.1130 C   0  0  2  0  0  3  0  0  0  0  0  0
  189.3090  178.3790  138.3880 C   0  0  0  0  0  2  0  0  0  0  0  0
  188.8040  176.9990  138.2790 C   0  0  1  0  0  0  0  0  0  0  0  0
  188.2680  177.9150  139.4270 C   0  0  2  0  0  0  0  0  0  0  0  0
  188.7350  178.8610  140.5250 C   0  0  0  0  0  2  0  0  0  0  0  0
  189.9210  175.9680  138.4160 C   0  0  0  0  0  1  0  0  0  0  0  0
  188.7890  177.4060  140.8130 C   0  0  2  0  0  3  0  0  0  0  0  0
  190.1980  177.0340  140.8740 N   0  0  0  0  0  2  0  0  0  0  0  0
  190.6290  176.7280  142.5290 S   0  0  0  0  0  0  0  0  0  0  0  0
  190.4280  175.2690  142.8340 O   0  0  0  0  0  0  0  0  0  0  0  0
  192.0720  177.0880  142.7630 O   0  0  0  0  0  0  0  0  0  0  0  0
  189.5680  177.6920  143.6060 C   0  0  1  0  0  3  0  0  0  0  0  0
  188.1030  175.6660  143.4560 O   0  0  0  0  0  1  0  0  0  0  0  0
  187.6720  178.5220  145.7200 F   0  0  0  0  0  0  0  0  0  0  0  0
  188.2020  177.0120  143.8100 C   0  0  1  0  0  0  0  0  0  0  0  0
  186.4790  176.4690  145.5000 F   0  0  0  0  0  0  0  0  0  0  0  0
  187.2990  177.4370  144.9490 C   0  0  0  0  0  0  0  0  0  0  0  0
  186.9330  177.8030  143.5180 C   0  0  0  0  0  2  0  0  0  0  0  0
  190.2880  178.0690  144.9000 C   0  0  0  0  0  2  0  0  0  0  0  0
  191.7070  176.5280  145.9670 O   0  0  0  0  0  0  0  0  0  0  0  0
  190.5600  176.8500  145.7150 C   0  0  0  0  0  3  0  0  0  0  0  0
  187.7590  174.8550  135.5930 C   0  0  0  0  0  1  0  0  0  0  0  0
  188.4780  176.1530  135.9120 C   0  0  0  0  0  2  0  0  0  0  0  0
  184.3210  173.7920  137.7870 O   0  0  0  0  0  0  0  0  0  0  0  0
  183.3050  174.4550  137.4460 C   0  0  0  0  0  0  0  0  0  0  0  0
  182.3380  173.8850  136.4640 C   0  0  1  0  0  3  0  0  0  0  0  0
  182.8620  171.6660  135.7580 O   0  0  0  0  0  1  0  0  0  0  0  0
  183.0640  173.0130  135.4550 C   0  0  0  0  0  2  0  0  0  0  0  0
  181.3370  173.1250  137.1270 O   0  0  0  0  0  0  0  0  0  0  0  0
  179.9820  173.4350  137.0230 C   0  0  0  0  0  0  0  0  0  0  0  0
  179.0210  172.6530  137.6580 O   0  0  0  0  0  1  0  0  0  0  0  0
  179.6260  174.4410  136.3590 O   0  0  0  0  0  0  0  0  0  0  0  0
  184.5780  176.7930  135.6170 C   0  0  0  0  0  3  0  0  0  0  0  0
  183.5290  177.4430  135.1110 C   0  0  0  0  0  2  0  0  0  0  0  0
  1  4  1  0  0  0  0
  1 13  1  0  0  0  0
  2 50  1  6  0  0  0
  2  8  1  0  0  0  0
  2  5  1  0  0  0  0
  3 13  1  0  0  0  0
  3 12  2  0  0  0  0
  4 11  1  0  0  0  0
  5  9  2  0  0  0  0
  6 10  1  0  0  0  0
  7  5  1  1  0  0  0
  7 10  1  0  0  0  0
  7  1  1  0  0  0  0
  8 16  1  1  0  0  0
  8  6  1  0  0  0  0
 10 14  1  6  0  0  0
 10  3  1  0  0  0  0
 15  4  2  0  0  0  0
 16 17  1  6  0  0  0
 16 18  1  0  0  0  0
 18 40  1  6  0  0  0
 18 20  1  0  0  0  0
 20 19  1  0  0  0  0
 20 23  1  1  0  0  0
 20 21  1  0  0  0  0
 21 19  1  1  0  0  0
 21 22  1  0  0  0  0
 21 24  1  0  0  0  0
 22 24  1  0  0  0  0
 24 25  1  6  0  0  0
 25 26  1  0  0  0  0
 26 28  2  0  0  0  0
 26 27  2  0  0  0  0
 26 29  1  0  0  0  0
 29 32  1  0  0  0  0
 29 36  1  1  0  0  0
 32 30  1  6  0  0  0
 32 34  1  0  0  0  0
 34 33  1  0  0  0  0
 34 31  1  0  0  0  0
 35 32  1  0  0  0  0
 35 34  1  0  0  0  0
 36 38  1  0  0  0  0
 38 37  2  0  0  0  0
 39 40  1  0  0  0  0
 42 41  2  0  0  0  0
 42  9  1  0  0  0  0
 43 45  1  6  0  0  0
 43 46  1  0  0  0  0
 43 42  1  0  0  0  0
 45 44  1  0  0  0  0
 47 46  1  0  0  0  0
 47 48  1  0  0  0  0
 49 47  2  0  0  0  0
 51 50  2  0  0  0  0
M  END
>  <MODEL>
2

>  <REMARK>
 VINA RESULT:      -7.0      1.453      2.512
  Name = 
  16 active torsions:
  status: ('A' for Active; 'I' for Inactive)
    1  A    between atoms: S_1  and  N_23
    2  A    between atoms: S_1  and  C_49
    3  A    between atoms: C_4  and  O_50
    4  A    between atoms: C_5  and  C_13
    5  A    between atoms: C_11  and  C_24
    6  A    between atoms: C_11  and  C_39
    7  A    between atoms: C_11  and  O_50
    8  A    between atoms: C_14  and  C_33
    9  A    between atoms: C_19  and  C_29
   10  A    between atoms: C_22  and  C_33
   11  A    between atoms: N_23  and  C_43
   12  A    between atoms: C_24  and  N_25
   13  A    between atoms: C_29  and  C_33
   14  A    between atoms: C_30  and  C_49
   15  A    between atoms: C_32  and  C_47
   16  A    between atoms: C_32  and  C_49
                            x       y       z     vdW  Elec       q    Type
                         _______ _______ _______ _____ _____    ______ ____

>  <TORSDO>
F 16

$$$$
=
 OpenBabel11062412363D

 51 55  0  0  1  0  0  0  0  0999 V2000
  185.6990  178.6050  144.2850 N   0  0  0  0  0  0  0  0  0  0  0  0
  188.8660  177.7290  142.3350 C   0  0  2  0  0  3  0  0  0  0  0  0
  185.0650  179.3610  142.2060 C   0  0  0  0  0  0  0  0  0  0  0  0
  185.4940  178.2340  145.6550 C   0  0  0  0  0  0  0  0  0  0  0  0
  187.9560  177.9360  143.5270 C   0  0  0  0  0  0  0  0  0  0  0  0
  187.0570  178.7200  141.0990 O   0  0  0  0  0  0  0  0  0  0  0  0
  186.4580  177.7900  143.3310 C   0  0  2  0  0  3  0  0  0  0  0  0
  188.0530  177.7300  141.0410 C   0  0  1  0  0  3  0  0  0  0  0  0
  188.4270  178.1150  144.7290 N   0  0  0  0  0  0  0  0  0  0  0  0
  186.0050  178.2440  141.9170 C   0  0  1  0  0  0  0  0  0  0  0  0
  184.6940  179.0170  146.4780 O   0  0  0  0  0  1  0  0  0  0  0  0
  184.4800  179.9920  141.3380 O   0  0  0  0  0  0  0  0  0  0  0  0
  184.8850  179.6250  143.6480 C   0  0  0  0  0  2  0  0  0  0  0  0
  185.3160  177.2110  141.2770 O   0  0  0  0  0  1  0  0  0  0  0  0
  186.0240  177.1900  146.1220 O   0  0  0  0  0  0  0  0  0  0  0  0
  188.9490  177.9120  139.8190 C   0  0  2  0  0  3  0  0  0  0  0  0
  189.1030  179.2630  139.4880 O   0  0  0  0  0  1  0  0  0  0  0  0
  188.4280  177.0850  138.6400 C   0  0  2  0  0  3  0  0  0  0  0  0
  189.0120  175.0460  137.3270 C   0  0  0  0  0  2  0  0  0  0  0  0
  189.5350  176.2620  137.9740 C   0  0  1  0  0  0  0  0  0  0  0  0
  189.4380  176.2150  136.4150 C   0  0  2  0  0  0  0  0  0  0  0  0
  189.7800  175.3390  135.2160 C   0  0  0  0  0  2  0  0  0  0  0  0
  190.7920  175.9810  138.7920 C   0  0  0  0  0  1  0  0  0  0  0  0
  190.8700  176.1720  135.7840 C   0  0  2  0  0  3  0  0  0  0  0  0
  191.8220  175.2610  136.4100 N   0  0  0  0  0  2  0  0  0  0  0  0
  193.4330  175.7550  135.9890 S   0  0  0  0  0  0  0  0  0  0  0  0
  193.4330  176.3200  134.5950 O   0  0  0  0  0  0  0  0  0  0  0  0
  193.9200  176.8080  136.9490 O   0  0  0  0  0  0  0  0  0  0  0  0
  194.5200  174.3300  136.0310 C   0  0  1  0  0  3  0  0  0  0  0  0
  195.9700  175.1650  137.8970 O   0  0  0  0  0  1  0  0  0  0  0  0
  197.0010  173.0000  135.1190 F   0  0  0  0  0  0  0  0  0  0  0  0
  195.9110  174.6950  136.5830 C   0  0  1  0  0  0  0  0  0  0  0  0
  198.1740  173.8020  137.0340 F   0  0  0  0  0  0  0  0  0  0  0  0
  197.1390  173.9360  136.1250 C   0  0  0  0  0  0  0  0  0  0  0  0
  196.9180  175.3690  135.6600 C   0  0  0  0  0  2  0  0  0  0  0  0
  193.8540  173.1450  136.7280 C   0  0  0  0  0  2  0  0  0  0  0  0
  192.5300  172.0830  135.1010 O   0  0  0  0  0  0  0  0  0  0  0  0
  193.5630  172.0620  135.7440 C   0  0  0  0  0  3  0  0  0  0  0  0
  186.1610  177.7220  137.8210 C   0  0  0  0  0  1  0  0  0  0  0  0
  187.6530  177.9250  137.6290 C   0  0  0  0  0  2  0  0  0  0  0  0
  190.5230  179.1430  144.4950 O   0  0  0  0  0  0  0  0  0  0  0  0
  189.7980  178.3060  145.0980 C   0  0  0  0  0  0  0  0  0  0  0  0
  190.3430  177.5470  146.2600 C   0  0  1  0  0  3  0  0  0  0  0  0
  188.9490  177.6130  148.1960 O   0  0  0  0  0  1  0  0  0  0  0  0
  189.2160  176.8870  147.0340 C   0  0  0  0  0  2  0  0  0  0  0  0
  191.2720  176.5620  145.8270 O   0  0  0  0  0  0  0  0  0  0  0  0
  192.1230  175.9060  146.7140 C   0  0  0  0  0  0  0  0  0  0  0  0
  192.6610  174.6620  146.3970 O   0  0  0  0  0  0  0  0  0  0  0  0
  192.4170  176.4510  147.8080 O   0  0  0  0  0  1  0  0  0  0  0  0
  189.6520  176.4480  142.4590 C   0  0  0  0  0  3  0  0  0  0  0  0
  190.9850  176.4220  142.4050 C   0  0  0  0  0  2  0  0  0  0  0  0
  1  4  1  0  0  0  0
  2 50  1  1  0  0  0
  2  5  1  0  0  0  0
  3 13  1  0  0  0  0
  4 15  2  0  0  0  0
  4 11  1  0  0  0  0
  5  9  2  0  0  0  0
  6 10  1  0  0  0  0
  7  5  1  6  0  0  0
  7  1  1  0  0  0  0
  8 16  1  6  0  0  0
  8  6  1  0  0  0  0
  8  2  1  0  0  0  0
  9 42  1  0  0  0  0
 10 14  1  6  0  0  0
 10  3  1  0  0  0  0
 10  7  1  0  0  0  0
 12  3  2  0  0  0  0
 13  1  1  0  0  0  0
 16 17  1  6  0  0  0
 18 40  1  6  0  0  0
 18 16  1  0  0  0  0
 19 20  1  0  0  0  0
 20 18  1  0  0  0  0
 20 23  1  1  0  0  0
 21 22  1  6  0  0  0
 21 19  1  0  0  0  0
 21 20  1  0  0  0  0
 22 24  1  0  0  0  0
 24 25  1  1  0  0  0
 24 21  1  0  0  0  0
 26 29  1  0  0  0  0
 26 25  1  0  0  0  0
 26 28  2  0  0  0  0
 27 26  2  0  0  0  0
 29 32  1  0  0  0  0
 29 36  1  1  0  0  0
 31 34  1  0  0  0  0
 32 30  1  1  0  0  0
 34 32  1  0  0  0  0
 34 33  1  0  0  0  0
 35 34  1  0  0  0  0
 35 32  1  0  0  0  0
 37 38  2  0  0  0  0
 38 36  1  0  0  0  0
 40 39  1  0  0  0  0
 41 42  2  0  0  0  0
 42 43  1  0  0  0  0
 43 45  1  6  0  0  0
 45 44  1  0  0  0  0
 46 43  1  0  0  0  0
 46 47  1  0  0  0  0
 47 49  1  0  0  0  0
 48 47  2  0  0  0  0
 51 50  2  0  0  0  0
M  END
>  <MODEL>
3

>  <REMARK>
 VINA RESULT:      -6.9      4.690      9.020
  Name = 
  16 active torsions:
  status: ('A' for Active; 'I' for Inactive)
    1  A    between atoms: S_1  and  N_23
    2  A    between atoms: S_1  and  C_49
    3  A    between atoms: C_4  and  O_50
    4  A    between atoms: C_5  and  C_13
    5  A    between atoms: C_11  and  C_24
    6  A    between atoms: C_11  and  C_39
    7  A    between atoms: C_11  and  O_50
    8  A    between atoms: C_14  and  C_33
    9  A    between atoms: C_19  and  C_29
   10  A    between atoms: C_22  and  C_33
   11  A    between atoms: N_23  and  C_43
   12  A    between atoms: C_24  and  N_25
   13  A    between atoms: C_29  and  C_33
   14  A    between atoms: C_30  and  C_49
   15  A    between atoms: C_32  and  C_47
   16  A    between atoms: C_32  and  C_49
                            x       y       z     vdW  Elec       q    Type
                         _______ _______ _______ _____ _____    ______ ____

>  <TORSDO>
F 16

$$$$
=
 OpenBabel11062412363D

 51 55  0  0  1  0  0  0  0  0999 V2000
  183.1110  177.2260  138.4030 N   0  0  0  0  0  0  0  0  0  0  0  0
  186.8400  177.4080  137.5920 C   0  0  2  0  0  3  0  0  0  0  0  0
  183.8690  178.1140  140.3850 C   0  0  0  0  0  0  0  0  0  0  0  0
  182.1170  176.8440  137.4420 C   0  0  0  0  0  0  0  0  0  0  0  0
  185.3790  177.0470  137.4330 C   0  0  0  0  0  0  0  0  0  0  0  0
  186.1460  178.2270  139.7430 O   0  0  0  0  0  0  0  0  0  0  0  0
  184.3340  177.9560  138.0550 C   0  0  2  0  0  3  0  0  0  0  0  0
  187.0070  178.4850  138.6630 C   0  0  1  0  0  3  0  0  0  0  0  0
  184.9940  176.0530  136.6830 N   0  0  0  0  0  0  0  0  0  0  0  0
  184.8360  178.6130  139.3690 C   0  0  1  0  0  0  0  0  0  0  0  0
  180.9440  176.2270  137.8590 O   0  0  0  0  0  1  0  0  0  0  0  0
  183.9210  178.4150  141.5690 O   0  0  0  0  0  0  0  0  0  0  0  0
  182.8220  177.2370  139.8250 C   0  0  0  0  0  2  0  0  0  0  0  0
  184.7410  180.0030  139.2790 O   0  0  0  0  0  1  0  0  0  0  0  0
  182.2910  177.0750  136.2150 O   0  0  0  0  0  0  0  0  0  0  0  0
  188.4570  178.5970  139.1220 C   0  0  2  0  0  3  0  0  0  0  0  0
  189.3210  178.8430  138.0480 O   0  0  0  0  0  1  0  0  0  0  0  0
  188.8700  177.3570  139.9200 C   0  0  2  0  0  3  0  0  0  0  0  0
  187.7740  178.1430  142.0190 C   0  0  0  0  0  2  0  0  0  0  0  0
  189.0260  177.6530  141.4140 C   0  0  1  0  0  0  0  0  0  0  0  0
  188.2040  176.6970  142.3390 C   0  0  2  0  0  0  0  0  0  0  0  0
  187.5080  176.6400  143.6920 C   0  0  0  0  0  2  0  0  0  0  0  0
  190.2330  178.4820  141.8460 C   0  0  0  0  0  1  0  0  0  0  0  0
  188.9790  176.4390  143.6740 C   0  0  2  0  0  3  0  0  0  0  0  0
  189.5780  177.6080  144.3080 N   0  0  0  0  0  2  0  0  0  0  0  0
  191.0560  177.1310  145.0860 S   0  0  0  0  0  0  0  0  0  0  0  0
  191.4900  175.7920  144.5550 O   0  0  0  0  0  0  0  0  0  0  0  0
  192.1360  178.1440  144.8130 O   0  0  0  0  0  0  0  0  0  0  0  0
  190.7770  176.9860  146.8510 C   0  0  1  0  0  3  0  0  0  0  0  0
  188.3900  176.2280  146.9290 O   0  0  0  0  0  1  0  0  0  0  0  0
  189.9690  178.7310  149.1000 F   0  0  0  0  0  0  0  0  0  0  0  0
  189.3030  177.2450  147.2140 C   0  0  1  0  0  0  0  0  0  0  0  0
  187.7770  177.7910  149.0830 F   0  0  0  0  0  0  0  0  0  0  0  0
  188.9490  178.0960  148.4150 C   0  0  0  0  0  0  0  0  0  0  0  0
  188.7270  178.6410  147.0110 C   0  0  0  0  0  2  0  0  0  0  0  0
  191.3420  175.6750  147.3960 C   0  0  0  0  0  2  0  0  0  0  0  0
  193.1000  176.1720  148.8750 O   0  0  0  0  0  0  0  0  0  0  0  0
  192.7820  175.8390  147.7490 C   0  0  0  0  0  3  0  0  0  0  0  0
  189.6880  175.6910  138.2550 C   0  0  0  0  0  1  0  0  0  0  0  0
  190.1010  176.6670  139.3410 C   0  0  0  0  0  2  0  0  0  0  0  0
  186.2200  175.2310  134.8600 O   0  0  0  0  0  0  0  0  0  0  0  0
  185.8290  175.0780  136.0480 C   0  0  0  0  0  0  0  0  0  0  0  0
  186.2940  173.9030  136.8400 C   0  0  1  0  0  3  0  0  0  0  0  0
  184.3450  172.5250  136.8520 O   0  0  0  0  0  1  0  0  0  0  0  0
  185.1490  173.3330  137.6580 C   0  0  0  0  0  2  0  0  0  0  0  0
  186.8230  172.8980  135.9860 O   0  0  0  0  0  0  0  0  0  0  0  0
  187.8500  172.0470  136.3910 C   0  0  0  0  0  0  0  0  0  0  0  0
  188.1370  171.8690  137.7410 O   0  0  0  0  0  1  0  0  0  0  0  0
  188.5150  171.4240  135.5250 O   0  0  0  0  0  0  0  0  0  0  0  0
  187.4370  177.8690  136.2870 C   0  0  0  0  0  3  0  0  0  0  0  0
  186.8390  178.7730  135.5090 C   0  0  0  0  0  2  0  0  0  0  0  0
  1 13  1  0  0  0  0
  2 50  1  6  0  0  0
  2  8  1  0  0  0  0
  3 12  2  0  0  0  0
  4 11  1  0  0  0  0
  4  1  1  0  0  0  0
  5  2  1  0  0  0  0
  7  5  1  1  0  0  0
  7  1  1  0  0  0  0
  7 10  1  0  0  0  0
  8 16  1  1  0  0  0
  8  6  1  0  0  0  0
  9  5  2  0  0  0  0
 10 14  1  6  0  0  0
 10  6  1  0  0  0  0
 10  3  1  0  0  0  0
 13  3  1  0  0  0  0
 15  4  2  0  0  0  0
 16 17  1  6  0  0  0
 16 18  1  0  0  0  0
 18 40  1  6  0  0  0
 18 20  1  0  0  0  0
 20 23  1  1  0  0  0
 20 19  1  0  0  0  0
 20 21  1  0  0  0  0
 21 19  1  1  0  0  0
 21 24  1  0  0  0  0
 21 22  1  0  0  0  0
 24 22  1  0  0  0  0
 24 25  1  1  0  0  0
 25 26  1  0  0  0  0
 26 29  1  0  0  0  0
 27 26  2  0  0  0  0
 28 26  2  0  0  0  0
 29 32  1  0  0  0  0
 29 36  1  6  0  0  0
 32 30  1  6  0  0  0
 32 34  1  0  0  0  0
 34 33  1  0  0  0  0
 34 31  1  0  0  0  0
 35 32  1  0  0  0  0
 35 34  1  0  0  0  0
 36 38  1  0  0  0  0
 38 37  2  0  0  0  0
 39 40  1  0  0  0  0
 41 42  2  0  0  0  0
 42  9  1  0  0  0  0
 42 43  1  0  0  0  0
 43 45  1  6  0  0  0
 44 45  1  0  0  0  0
 46 47  1  0  0  0  0
 46 43  1  0  0  0  0
 47 48  1  0  0  0  0
 49 47  2  0  0  0  0
 51 50  2  0  0  0  0
M  END
>  <MODEL>
4

>  <REMARK>
 VINA RESULT:      -6.8      1.895      2.933
  Name = 
  16 active torsions:
  status: ('A' for Active; 'I' for Inactive)
    1  A    between atoms: S_1  and  N_23
    2  A    between atoms: S_1  and  C_49
    3  A    between atoms: C_4  and  O_50
    4  A    between atoms: C_5  and  C_13
    5  A    between atoms: C_11  and  C_24
    6  A    between atoms: C_11  and  C_39
    7  A    between atoms: C_11  and  O_50
    8  A    between atoms: C_14  and  C_33
    9  A    between atoms: C_19  and  C_29
   10  A    between atoms: C_22  and  C_33
   11  A    between atoms: N_23  and  C_43
   12  A    between atoms: C_24  and  N_25
   13  A    between atoms: C_29  and  C_33
   14  A    between atoms: C_30  and  C_49
   15  A    between atoms: C_32  and  C_47
   16  A    between atoms: C_32  and  C_49
                            x       y       z     vdW  Elec       q    Type
                         _______ _______ _______ _____ _____    ______ ____

>  <TORSDO>
F 16

$$$$
=
 OpenBabel11062412363D

 51 55  0  0  1  0  0  0  0  0999 V2000
  190.5640  177.0890  147.6010 N   0  0  0  0  0  0  0  0  0  0  0  0
  188.3660  178.2300  144.6920 C   0  0  2  0  0  3  0  0  0  0  0  0
  188.8530  178.0540  148.7980 C   0  0  0  0  0  0  0  0  0  0  0  0
  191.7470  176.2960  147.4260 C   0  0  0  0  0  0  0  0  0  0  0  0
  189.5810  177.6860  145.4120 C   0  0  0  0  0  0  0  0  0  0  0  0
  187.5540  178.6610  146.9140 O   0  0  0  0  0  0  0  0  0  0  0  0
  189.3820  176.9780  146.7400 C   0  0  2  0  0  3  0  0  0  0  0  0
  187.1600  178.2500  145.6300 C   0  0  1  0  0  3  0  0  0  0  0  0
  190.7660  177.7020  144.8690 N   0  0  0  0  0  0  0  0  0  0  0  0
  188.1990  177.5740  147.5500 C   0  0  1  0  0  0  0  0  0  0  0  0
  192.7960  176.3970  148.3320 O   0  0  0  0  0  1  0  0  0  0  0  0
  188.2470  178.5920  149.7130 O   0  0  0  0  0  0  0  0  0  0  0  0
  190.3070  177.7980  148.8410 C   0  0  0  0  0  2  0  0  0  0  0  0
  187.2780  176.5720  147.8640 O   0  0  0  0  0  1  0  0  0  0  0  0
  191.8420  175.4920  146.4590 O   0  0  0  0  0  0  0  0  0  0  0  0
  186.0410  179.1310  145.0820 C   0  0  2  0  0  3  0  0  0  0  0  0
  185.7700  180.2100  145.9310 O   0  0  0  0  0  1  0  0  0  0  0  0
  184.7890  178.2980  144.7920 C   0  0  2  0  0  3  0  0  0  0  0  0
  184.9720  179.5880  142.6640 C   0  0  0  0  0  2  0  0  0  0  0  0
  184.1250  178.6890  143.4690 C   0  0  1  0  0  0  0  0  0  0  0  0
  184.8480  178.1200  142.2050 C   0  0  2  0  0  0  0  0  0  0  0  0
  185.1000  178.4130  140.7320 C   0  0  0  0  0  2  0  0  0  0  0  0
  182.6750  179.1630  143.5210 C   0  0  0  0  0  1  0  0  0  0  0  0
  183.8040  177.7850  141.0890 C   0  0  2  0  0  3  0  0  0  0  0  0
  182.7660  178.7830  140.8570 N   0  0  0  0  0  2  0  0  0  0  0  0
  181.4540  178.0420  139.9920 S   0  0  0  0  0  0  0  0  0  0  0  0
  181.5390  176.5470  140.1440 O   0  0  0  0  0  0  0  0  0  0  0  0
  180.1360  178.5200  140.5410 O   0  0  0  0  0  0  0  0  0  0  0  0
  181.5840  178.4510  138.2520 C   0  0  1  0  0  3  0  0  0  0  0  0
  181.3340  180.8690  138.8570 O   0  0  0  0  0  1  0  0  0  0  0  0
  181.0400  179.4060  135.5040 F   0  0  0  0  0  0  0  0  0  0  0  0
  181.0160  179.8520  137.9560 C   0  0  1  0  0  0  0  0  0  0  0  0
  180.9560  181.6630  136.2720 F   0  0  0  0  0  0  0  0  0  0  0  0
  180.8180  180.3100  136.5260 C   0  0  0  0  0  0  0  0  0  0  0  0
  179.6080  179.9730  137.3870 C   0  0  0  0  0  2  0  0  0  0  0  0
  183.0020  178.2200  137.7320 C   0  0  0  0  0  2  0  0  0  0  0  0
  184.1720  176.3190  136.9950 O   0  0  0  0  0  0  0  0  0  0  0  0
  183.0990  176.8900  137.0660 C   0  0  0  0  0  3  0  0  0  0  0  0
  184.4540  177.7270  147.1960 C   0  0  0  0  0  1  0  0  0  0  0  0
  183.7990  178.3010  145.9530 C   0  0  0  0  0  2  0  0  0  0  0  0
  191.1280  179.6010  143.5400 O   0  0  0  0  0  0  0  0  0  0  0  0
  191.1460  178.3450  143.6470 C   0  0  0  0  0  0  0  0  0  0  0  0
  191.6360  177.5070  142.5140 C   0  0  1  0  0  3  0  0  0  0  0  0
  190.6390  175.3510  142.7490 O   0  0  0  0  0  1  0  0  0  0  0  0
  191.8170  176.0680  142.9640 C   0  0  0  0  0  2  0  0  0  0  0  0
  190.7300  177.5610  141.4210 O   0  0  0  0  0  0  0  0  0  0  0  0
  191.1110  177.2150  140.1260 C   0  0  0  0  0  0  0  0  0  0  0  0
  190.1810  176.7180  139.2180 O   0  0  0  0  0  0  0  0  0  0  0  0
  192.3080  177.3680  139.7710 O   0  0  0  0  0  1  0  0  0  0  0  0
  188.0550  177.4280  143.4540 C   0  0  0  0  0  3  0  0  0  0  0  0
  187.6500  176.1580  143.5100 C   0  0  0  0  0  2  0  0  0  0  0  0
  1 13  1  0  0  0  0
  2 50  1  6  0  0  0
  2  5  1  0  0  0  0
  2  8  1  0  0  0  0
  3 13  1  0  0  0  0
  3 12  2  0  0  0  0
  4  1  1  0  0  0  0
  4 11  1  0  0  0  0
  6 10  1  0  0  0  0
  7  5  1  6  0  0  0
  7 10  1  0  0  0  0
  7  1  1  0  0  0  0
  8 16  1  6  0  0  0
  8  6  1  0  0  0  0
  9  5  2  0  0  0  0
 10 14  1  1  0  0  0
 10  3  1  0  0  0  0
 15  4  2  0  0  0  0
 16 17  1  1  0  0  0
 18 16  1  0  0  0  0
 18 40  1  1  0  0  0
 19 20  1  0  0  0  0
 20 23  1  6  0  0  0
 20 18  1  0  0  0  0
 21 22  1  1  0  0  0
 21 19  1  0  0  0  0
 21 20  1  0  0  0  0
 22 24  1  0  0  0  0
 24 25  1  1  0  0  0
 24 21  1  0  0  0  0
 26 27  2  0  0  0  0
 26 28  2  0  0  0  0
 26 25  1  0  0  0  0
 29 36  1  1  0  0  0
 29 26  1  0  0  0  0
 31 34  1  0  0  0  0
 32 29  1  0  0  0  0
 32 30  1  1  0  0  0
 33 34  1  0  0  0  0
 34 35  1  0  0  0  0
 34 32  1  0  0  0  0
 35 32  1  0  0  0  0
 37 38  2  0  0  0  0
 38 36  1  0  0  0  0
 40 39  1  0  0  0  0
 41 42  2  0  0  0  0
 42  9  1  0  0  0  0
 43 45  1  1  0  0  0
 43 42  1  0  0  0  0
 44 45  1  0  0  0  0
 46 43  1  0  0  0  0
 47 46  1  0  0  0  0
 48 47  2  0  0  0  0
 49 47  1  0  0  0  0
 50 51  2  0  0  0  0
M  END
>  <MODEL>
5

>  <REMARK>
 VINA RESULT:      -6.6      4.533     10.561
  Name = 
  16 active torsions:
  status: ('A' for Active; 'I' for Inactive)
    1  A    between atoms: S_1  and  N_23
    2  A    between atoms: S_1  and  C_49
    3  A    between atoms: C_4  and  O_50
    4  A    between atoms: C_5  and  C_13
    5  A    between atoms: C_11  and  C_24
    6  A    between atoms: C_11  and  C_39
    7  A    between atoms: C_11  and  O_50
    8  A    between atoms: C_14  and  C_33
    9  A    between atoms: C_19  and  C_29
   10  A    between atoms: C_22  and  C_33
   11  A    between atoms: N_23  and  C_43
   12  A    between atoms: C_24  and  N_25
   13  A    between atoms: C_29  and  C_33
   14  A    between atoms: C_30  and  C_49
   15  A    between atoms: C_32  and  C_47
   16  A    between atoms: C_32  and  C_49
                            x       y       z     vdW  Elec       q    Type
                         _______ _______ _______ _____ _____    ______ ____

>  <TORSDO>
F 16

$$$$
=
 OpenBabel11062412363D

 51 55  0  0  1  0  0  0  0  0999 V2000
  188.4410  177.8210  146.9400 N   0  0  0  0  0  0  0  0  0  0  0  0
  187.8840  178.1470  143.1740 C   0  0  2  0  0  3  0  0  0  0  0  0
  186.3110  178.6920  146.9630 C   0  0  0  0  0  0  0  0  0  0  0  0
  189.6000  177.1990  147.5100 C   0  0  0  0  0  0  0  0  0  0  0  0
  188.6210  177.9130  144.4750 C   0  0  0  0  0  0  0  0  0  0  0  0
  186.0670  178.7930  144.6100 O   0  0  0  0  0  0  0  0  0  0  0  0
  187.8390  177.4000  145.6700 C   0  0  2  0  0  3  0  0  0  0  0  0
  186.3740  178.1310  143.4100 C   0  0  1  0  0  3  0  0  0  0  0  0
  189.9170  178.0230  144.5610 N   0  0  0  0  0  0  0  0  0  0  0  0
  186.3790  177.9290  145.6860 C   0  0  1  0  0  0  0  0  0  0  0  0
  190.0650  177.5990  148.7580 O   0  0  0  0  0  1  0  0  0  0  0  0
  185.3050  179.2690  147.3510 O   0  0  0  0  0  0  0  0  0  0  0  0
  187.5710  178.6690  147.7340 C   0  0  0  0  0  2  0  0  0  0  0  0
  185.4800  176.8610  145.7350 O   0  0  0  0  0  1  0  0  0  0  0  0
  190.2010  176.2770  146.8940 O   0  0  0  0  0  0  0  0  0  0  0  0
  185.6180  178.7360  142.2300 C   0  0  2  0  0  3  0  0  0  0  0  0
  185.7550  180.1280  142.1890 O   0  0  0  0  0  1  0  0  0  0  0  0
  184.1500  178.3010  142.2490 C   0  0  2  0  0  3  0  0  0  0  0  0
  183.0110  179.2070  140.2220 C   0  0  0  0  0  2  0  0  0  0  0  0
  183.6120  178.0130  140.8450 C   0  0  1  0  0  0  0  0  0  0  0  0
  184.3900  178.7480  139.7060 C   0  0  2  0  0  0  0  0  0  0  0  0
  184.2120  179.3200  138.3050 C   0  0  0  0  0  2  0  0  0  0  0  0
  182.7400  176.7730  140.6650 C   0  0  0  0  0  1  0  0  0  0  0  0
  184.4340  177.8570  138.4190 C   0  0  2  0  0  3  0  0  0  0  0  0
  183.1840  177.2040  138.0440 N   0  0  0  0  0  2  0  0  0  0  0  0
  183.4340  176.3100  136.5760 S   0  0  0  0  0  0  0  0  0  0  0  0
  182.8700  177.0860  135.4180 O   0  0  0  0  0  0  0  0  0  0  0  0
  184.9050  176.0850  136.3510 O   0  0  0  0  0  0  0  0  0  0  0  0
  182.5780  174.7390  136.6860 C   0  0  1  0  0  3  0  0  0  0  0  0
  184.4930  173.6550  137.8840 O   0  0  0  0  0  1  0  0  0  0  0  0
  181.9000  171.9640  135.9130 F   0  0  0  0  0  0  0  0  0  0  0  0
  183.5650  173.5670  136.8450 C   0  0  1  0  0  0  0  0  0  0  0  0
  183.7160  171.1250  137.2120 F   0  0  0  0  0  0  0  0  0  0  0  0
  183.1400  172.1570  136.4920 C   0  0  0  0  0  0  0  0  0  0  0  0
  184.1230  172.8970  135.5970 C   0  0  0  0  0  2  0  0  0  0  0  0
  181.4710  174.7820  137.7390 C   0  0  0  0  0  2  0  0  0  0  0  0
  180.0810  174.2130  135.9300 O   0  0  0  0  0  0  0  0  0  0  0  0
  180.1490  174.4930  137.1130 C   0  0  0  0  0  3  0  0  0  0  0  0
  182.7660  178.6280  144.2970 C   0  0  0  0  0  1  0  0  0  0  0  0
  183.2590  179.2740  143.0160 C   0  0  0  0  0  2  0  0  0  0  0  0
  190.9110  179.7520  143.3270 O   0  0  0  0  0  0  0  0  0  0  0  0
  190.8080  178.5170  143.5550 C   0  0  0  0  0  0  0  0  0  0  0  0
  191.6740  177.5490  142.8210 C   0  0  1  0  0  3  0  0  0  0  0  0
  190.7640  175.3440  142.9100 O   0  0  0  0  0  1  0  0  0  0  0  0
  191.6750  176.2040  143.5260 C   0  0  0  0  0  2  0  0  0  0  0  0
  191.2280  177.3910  141.4810 O   0  0  0  0  0  0  0  0  0  0  0  0
  192.1160  177.2450  140.4170 C   0  0  0  0  0  0  0  0  0  0  0  0
  193.4730  177.5040  140.5810 O   0  0  0  0  0  1  0  0  0  0  0  0
  191.6860  176.8610  139.3000 O   0  0  0  0  0  0  0  0  0  0  0  0
  188.2640  177.1240  142.1340 C   0  0  0  0  0  3  0  0  0  0  0  0
  188.3480  177.4230  140.8370 C   0  0  0  0  0  2  0  0  0  0  0  0
  1  4  1  0  0  0  0
  1 13  1  0  0  0  0
  2 50  1  6  0  0  0
  2  8  1  0  0  0  0
  2  5  1  0  0  0  0
  3 12  2  0  0  0  0
  3 13  1  0  0  0  0
  4 11  1  0  0  0  0
  5  9  2  0  0  0  0
  6 10  1  0  0  0  0
  7  5  1  6  0  0  0
  7 10  1  0  0  0  0
  7  1  1  0  0  0  0
  8 16  1  6  0  0  0
  8  6  1  0  0  0  0
 10 14  1  1  0  0  0
 10  3  1  0  0  0  0
 15  4  2  0  0  0  0
 16 17  1  1  0  0  0
 16 18  1  0  0  0  0
 18 40  1  6  0  0  0
 19 20  1  0  0  0  0
 20 23  1  6  0  0  0
 20 18  1  0  0  0  0
 21 22  1  1  0  0  0
 21 19  1  0  0  0  0
 21 20  1  0  0  0  0
 22 24  1  0  0  0  0
 24 25  1  1  0  0  0
 24 21  1  0  0  0  0
 26 29  1  0  0  0  0
 26 25  1  0  0  0  0
 27 26  2  0  0  0  0
 28 26  2  0  0  0  0
 29 32  1  0  0  0  0
 29 36  1  1  0  0  0
 31 34  1  0  0  0  0
 32 30  1  1  0  0  0
 34 32  1  0  0  0  0
 34 33  1  0  0  0  0
 35 34  1  0  0  0  0
 35 32  1  0  0  0  0
 37 38  2  0  0  0  0
 38 36  1  0  0  0  0
 40 39  1  0  0  0  0
 41 42  2  0  0  0  0
 42  9  1  0  0  0  0
 43 45  1  1  0  0  0
 43 42  1  0  0  0  0
 44 45  1  0  0  0  0
 46 43  1  0  0  0  0
 47 48  1  0  0  0  0
 47 46  1  0  0  0  0
 49 47  2  0  0  0  0
 51 50  2  0  0  0  0
M  END
>  <MODEL>
6

>  <REMARK>
 VINA RESULT:      -6.5      3.914      9.821
  Name = 
  16 active torsions:
  status: ('A' for Active; 'I' for Inactive)
    1  A    between atoms: S_1  and  N_23
    2  A    between atoms: S_1  and  C_49
    3  A    between atoms: C_4  and  O_50
    4  A    between atoms: C_5  and  C_13
    5  A    between atoms: C_11  and  C_24
    6  A    between atoms: C_11  and  C_39
    7  A    between atoms: C_11  and  O_50
    8  A    between atoms: C_14  and  C_33
    9  A    between atoms: C_19  and  C_29
   10  A    between atoms: C_22  and  C_33
   11  A    between atoms: N_23  and  C_43
   12  A    between atoms: C_24  and  N_25
   13  A    between atoms: C_29  and  C_33
   14  A    between atoms: C_30  and  C_49
   15  A    between atoms: C_32  and  C_47
   16  A    between atoms: C_32  and  C_49
                            x       y       z     vdW  Elec       q    Type
                         _______ _______ _______ _____ _____    ______ ____

>  <TORSDO>
F 16

$$$$
=
 OpenBabel11062412363D

 51 55  0  0  1  0  0  0  0  0999 V2000
  188.3680  177.7920  146.9810 N   0  0  0  0  0  0  0  0  0  0  0  0
  187.7920  178.0320  143.2120 C   0  0  2  0  0  3  0  0  0  0  0  0
  186.3010  178.8010  146.9950 C   0  0  0  0  0  0  0  0  0  0  0  0
  189.4910  177.1140  147.5610 C   0  0  0  0  0  0  0  0  0  0  0  0
  188.5260  177.7920  144.5130 C   0  0  0  0  0  0  0  0  0  0  0  0
  186.0370  178.8420  144.6420 O   0  0  0  0  0  0  0  0  0  0  0  0
  187.7260  177.3700  145.7320 C   0  0  2  0  0  3  0  0  0  0  0  0
  186.2870  178.1230  143.4620 C   0  0  1  0  0  3  0  0  0  0  0  0
  189.8280  177.8190  144.5830 N   0  0  0  0  0  0  0  0  0  0  0  0
  186.3040  177.9950  145.7440 C   0  0  1  0  0  0  0  0  0  0  0  0
  189.9950  177.5220  148.7900 O   0  0  0  0  0  1  0  0  0  0  0  0
  185.3390  179.4550  147.3730 O   0  0  0  0  0  0  0  0  0  0  0  0
  187.5650  178.7210  147.7550 C   0  0  0  0  0  2  0  0  0  0  0  0
  185.3380  176.9900  145.8360 O   0  0  0  0  0  1  0  0  0  0  0  0
  190.0240  176.1350  146.9700 O   0  0  0  0  0  0  0  0  0  0  0  0
  185.5590  178.7370  142.2700 C   0  0  2  0  0  3  0  0  0  0  0  0
  185.6710  180.1320  142.2590 O   0  0  0  0  0  1  0  0  0  0  0  0
  184.0990  178.2770  142.2320 C   0  0  2  0  0  3  0  0  0  0  0  0
  183.4730  179.1590  139.9840 C   0  0  0  0  0  2  0  0  0  0  0  0
  183.6300  177.9490  140.8120 C   0  0  1  0  0  0  0  0  0  0  0  0
  184.6930  178.2560  139.7080 C   0  0  2  0  0  0  0  0  0  0  0  0
  184.8240  178.6420  138.2400 C   0  0  0  0  0  2  0  0  0  0  0  0
  182.4480  176.9950  140.6620 C   0  0  0  0  0  1  0  0  0  0  0  0
  184.5860  177.2100  138.5480 C   0  0  2  0  0  3  0  0  0  0  0  0
  183.2390  176.8910  138.0900 N   0  0  0  0  0  2  0  0  0  0  0  0
  183.3350  176.1750  136.5110 S   0  0  0  0  0  0  0  0  0  0  0  0
  182.2730  175.1180  136.3770 O   0  0  0  0  0  0  0  0  0  0  0  0
  183.1240  177.2240  135.4520 O   0  0  0  0  0  0  0  0  0  0  0  0
  184.9410  175.4040  136.3050 C   0  0  1  0  0  3  0  0  0  0  0  0
  184.1170  173.2930  135.2390 O   0  0  0  0  0  1  0  0  0  0  0  0
  187.0330  173.6450  137.4400 F   0  0  0  0  0  0  0  0  0  0  0  0
  184.8340  173.8680  136.2900 C   0  0  1  0  0  0  0  0  0  0  0  0
  186.1570  171.7790  136.2420 F   0  0  0  0  0  0  0  0  0  0  0  0
  185.9650  173.0170  136.8270 C   0  0  0  0  0  0  0  0  0  0  0  0
  184.6640  173.1260  137.6090 C   0  0  0  0  0  2  0  0  0  0  0  0
  185.6930  175.9990  135.1160 C   0  0  0  0  0  2  0  0  0  0  0  0
  187.3860  176.5860  136.6380 O   0  0  0  0  0  0  0  0  0  0  0  0
  186.8240  176.8470  135.5900 C   0  0  0  0  0  3  0  0  0  0  0  0
  182.6770  178.6510  144.2460 C   0  0  0  0  0  1  0  0  0  0  0  0
  183.1570  179.2480  142.9360 C   0  0  0  0  0  2  0  0  0  0  0  0
  190.7900  179.4180  143.1620 O   0  0  0  0  0  0  0  0  0  0  0  0
  190.7380  178.2210  143.5530 C   0  0  0  0  0  0  0  0  0  0  0  0
  191.6830  177.2110  142.9930 C   0  0  1  0  0  3  0  0  0  0  0  0
  190.7930  175.0240  143.3410 O   0  0  0  0  0  1  0  0  0  0  0  0
  191.6900  175.9620  143.8560 C   0  0  0  0  0  2  0  0  0  0  0  0
  191.3260  176.8750  141.6590 O   0  0  0  0  0  0  0  0  0  0  0  0
  191.9930  177.4090  140.5580 C   0  0  0  0  0  0  0  0  0  0  0  0
  191.2870  177.8700  139.4510 O   0  0  0  0  0  0  0  0  0  0  0  0
  193.2480  177.4860  140.5720 O   0  0  0  0  0  1  0  0  0  0  0  0
  188.0920  176.9530  142.2030 C   0  0  0  0  0  3  0  0  0  0  0  0
  188.3610  177.2260  140.9250 C   0  0  0  0  0  2  0  0  0  0  0  0
  1  4  1  0  0  0  0
  1 13  1  0  0  0  0
  2 50  1  6  0  0  0
  2  8  1  0  0  0  0
  2  5  1  0  0  0  0
  3 12  2  0  0  0  0
  3 13  1  0  0  0  0
  4 11  1  0  0  0  0
  5  9  2  0  0  0  0
  6 10  1  0  0  0  0
  7  5  1  6  0  0  0
  7 10  1  0  0  0  0
  7  1  1  0  0  0  0
  8 16  1  6  0  0  0
  8  6  1  0  0  0  0
 10 14  1  1  0  0  0
 10  3  1  0  0  0  0
 15  4  2  0  0  0  0
 16 17  1  1  0  0  0
 18 16  1  0  0  0  0
 18 40  1  6  0  0  0
 19 20  1  0  0  0  0
 20 23  1  6  0  0  0
 20 18  1  0  0  0  0
 21 22  1  1  0  0  0
 21 19  1  0  0  0  0
 21 20  1  0  0  0  0
 22 24  1  0  0  0  0
 24 25  1  6  0  0  0
 24 21  1  0  0  0  0
 26 25  1  0  0  0  0
 27 26  2  0  0  0  0
 28 26  2  0  0  0  0
 29 36  1  6  0  0  0
 29 26  1  0  0  0  0
 32 30  1  6  0  0  0
 32 29  1  0  0  0  0
 32 34  1  0  0  0  0
 32 35  1  0  0  0  0
 33 34  1  0  0  0  0
 34 31  1  0  0  0  0
 34 35  1  0  0  0  0
 36 38  1  0  0  0  0
 38 37  2  0  0  0  0
 40 39  1  0  0  0  0
 41 42  2  0  0  0  0
 42  9  1  0  0  0  0
 43 42  1  0  0  0  0
 43 45  1  1  0  0  0
 44 45  1  0  0  0  0
 46 43  1  0  0  0  0
 47 49  1  0  0  0  0
 47 46  1  0  0  0  0
 48 47  2  0  0  0  0
 51 50  2  0  0  0  0
M  END
>  <MODEL>
7

>  <REMARK>
 VINA RESULT:      -6.5      3.452      9.520
  Name = 
  16 active torsions:
  status: ('A' for Active; 'I' for Inactive)
    1  A    between atoms: S_1  and  N_23
    2  A    between atoms: S_1  and  C_49
    3  A    between atoms: C_4  and  O_50
    4  A    between atoms: C_5  and  C_13
    5  A    between atoms: C_11  and  C_24
    6  A    between atoms: C_11  and  C_39
    7  A    between atoms: C_11  and  O_50
    8  A    between atoms: C_14  and  C_33
    9  A    between atoms: C_19  and  C_29
   10  A    between atoms: C_22  and  C_33
   11  A    between atoms: N_23  and  C_43
   12  A    between atoms: C_24  and  N_25
   13  A    between atoms: C_29  and  C_33
   14  A    between atoms: C_30  and  C_49
   15  A    between atoms: C_32  and  C_47
   16  A    between atoms: C_32  and  C_49
                            x       y       z     vdW  Elec       q    Type
                         _______ _______ _______ _____ _____    ______ ____

>  <TORSDO>
F 16

$$$$
=
 OpenBabel11062412363D

 51 55  0  0  1  0  0  0  0  0999 V2000
  183.1050  177.0320  138.7410 N   0  0  0  0  0  0  0  0  0  0  0  0
  186.7270  177.1490  137.5310 C   0  0  2  0  0  3  0  0  0  0  0  0
  183.9760  178.4330  140.3440 C   0  0  0  0  0  0  0  0  0  0  0  0
  182.0580  176.3740  138.0150 C   0  0  0  0  0  0  0  0  0  0  0  0
  185.2850  176.7000  137.6210 C   0  0  0  0  0  0  0  0  0  0  0  0
  186.1740  178.4690  139.4640 O   0  0  0  0  0  0  0  0  0  0  0  0
  184.2420  177.6960  138.0950 C   0  0  2  0  0  3  0  0  0  0  0  0
  186.9170  178.4730  138.2710 C   0  0  1  0  0  3  0  0  0  0  0  0
  184.9010  175.5310  137.1910 N   0  0  0  0  0  0  0  0  0  0  0  0
  184.8140  178.6900  139.1410 C   0  0  1  0  0  0  0  0  0  0  0  0
  180.9690  175.8380  138.6930 O   0  0  0  0  0  1  0  0  0  0  0  0
  184.1130  179.0320  141.4010 O   0  0  0  0  0  0  0  0  0  0  0  0
  182.9430  177.3990  140.1360 C   0  0  0  0  0  2  0  0  0  0  0  0
  184.6200  180.0050  138.7110 O   0  0  0  0  0  1  0  0  0  0  0  0
  182.1060  176.2850  136.7580 O   0  0  0  0  0  0  0  0  0  0  0  0
  188.3920  178.7590  138.5350 C   0  0  2  0  0  3  0  0  0  0  0  0
  189.0510  179.1860  137.3770 O   0  0  0  0  0  1  0  0  0  0  0  0
  189.0740  177.5430  139.1710 C   0  0  2  0  0  3  0  0  0  0  0  0
  188.8870  176.5150  141.4360 C   0  0  0  0  0  2  0  0  0  0  0  0
  189.2810  177.7160  140.6780 C   0  0  1  0  0  0  0  0  0  0  0  0
  190.3950  176.7950  141.2730 C   0  0  2  0  0  0  0  0  0  0  0  0
  190.8090  176.0860  142.5560 C   0  0  0  0  0  2  0  0  0  0  0  0
  188.7540  178.9970  141.3200 C   0  0  0  0  0  1  0  0  0  0  0  0
  191.1370  177.5290  142.4400 C   0  0  2  0  0  3  0  0  0  0  0  0
  190.2930  178.2380  143.3950 N   0  0  0  0  0  2  0  0  0  0  0  0
  190.4860  177.5150  144.9630 S   0  0  0  0  0  0  0  0  0  0  0  0
  190.6790  176.0310  144.8070 O   0  0  0  0  0  0  0  0  0  0  0  0
  191.6870  178.0990  145.6580 O   0  0  0  0  0  0  0  0  0  0  0  0
  189.0080  177.8030  145.9360 C   0  0  1  0  0  3  0  0  0  0  0  0
  187.6780  176.2860  144.4500 O   0  0  0  0  0  1  0  0  0  0  0  0
  186.3540  178.8780  146.6850 F   0  0  0  0  0  0  0  0  0  0  0  0
  187.7310  177.5050  145.1270 C   0  0  1  0  0  0  0  0  0  0  0  0
  185.2750  177.2680  145.2960 F   0  0  0  0  0  0  0  0  0  0  0  0
  186.3900  178.0310  145.5940 C   0  0  0  0  0  0  0  0  0  0  0  0
  187.0560  178.6410  144.3690 C   0  0  0  0  0  2  0  0  0  0  0  0
  189.0840  177.0900  147.2840 C   0  0  0  0  0  2  0  0  0  0  0  0
  188.1050  178.2240  149.0960 O   0  0  0  0  0  0  0  0  0  0  0  0
  189.0910  178.0830  148.3960 C   0  0  0  0  0  3  0  0  0  0  0  0
  190.1830  175.8200  137.7510 C   0  0  0  0  0  1  0  0  0  0  0  0
  190.3630  177.1520  138.4560 C   0  0  0  0  0  2  0  0  0  0  0  0
  186.8200  174.1880  137.3300 O   0  0  0  0  0  0  0  0  0  0  0  0
  185.7390  174.4600  136.7420 C   0  0  0  0  0  0  0  0  0  0  0  0
  185.2790  173.6160  135.6010 C   0  0  1  0  0  3  0  0  0  0  0  0
  186.5890  171.6330  135.3720 O   0  0  0  0  0  1  0  0  0  0  0  0
  186.4660  172.9510  134.9260 C   0  0  0  0  0  2  0  0  0  0  0  0
  184.3600  172.6280  136.0450 O   0  0  0  0  0  0  0  0  0  0  0  0
  183.0570  172.5550  135.5540 C   0  0  0  0  0  0  0  0  0  0  0  0
  182.5150  173.6010  134.8140 O   0  0  0  0  0  0  0  0  0  0  0  0
  182.3710  171.5240  135.7720 O   0  0  0  0  0  1  0  0  0  0  0  0
  187.1750  177.2810  136.0980 C   0  0  0  0  0  3  0  0  0  0  0  0
  186.4260  177.8780  135.1690 C   0  0  0  0  0  2  0  0  0  0  0  0
  1 13  1  0  0  0  0
  2 50  1  6  0  0  0
  2  5  1  0  0  0  0
  2  8  1  0  0  0  0
  3 12  2  0  0  0  0
  4 11  1  0  0  0  0
  4  1  1  0  0  0  0
  7  5  1  1  0  0  0
  7  1  1  0  0  0  0
  7 10  1  0  0  0  0
  8 16  1  1  0  0  0
  8  6  1  0  0  0  0
  9  5  2  0  0  0  0
 10 14  1  6  0  0  0
 10  6  1  0  0  0  0
 10  3  1  0  0  0  0
 13  3  1  0  0  0  0
 15  4  2  0  0  0  0
 16 17  1  6  0  0  0
 16 18  1  0  0  0  0
 18 40  1  6  0  0  0
 18 20  1  0  0  0  0
 20 21  1  0  0  0  0
 20 23  1  1  0  0  0
 20 19  1  0  0  0  0
 21 19  1  1  0  0  0
 21 24  1  0  0  0  0
 21 22  1  0  0  0  0
 24 22  1  0  0  0  0
 24 25  1  1  0  0  0
 25 26  1  0  0  0  0
 26 28  2  0  0  0  0
 26 29  1  0  0  0  0
 27 26  2  0  0  0  0
 29 36  1  1  0  0  0
 32 30  1  6  0  0  0
 32 34  1  0  0  0  0
 32 29  1  0  0  0  0
 33 34  1  0  0  0  0
 34 31  1  0  0  0  0
 35 32  1  0  0  0  0
 35 34  1  0  0  0  0
 36 38  1  0  0  0  0
 38 37  2  0  0  0  0
 39 40  1  0  0  0  0
 42  9  1  0  0  0  0
 42 41  2  0  0  0  0
 43 45  1  1  0  0  0
 43 46  1  0  0  0  0
 43 42  1  0  0  0  0
 45 44  1  0  0  0  0
 47 49  1  0  0  0  0
 47 46  1  0  0  0  0
 48 47  2  0  0  0  0
 51 50  2  0  0  0  0
M  END
>  <MODEL>
8

>  <REMARK>
 VINA RESULT:      -6.4      1.824      2.839
  Name = 
  16 active torsions:
  status: ('A' for Active; 'I' for Inactive)
    1  A    between atoms: S_1  and  N_23
    2  A    between atoms: S_1  and  C_49
    3  A    between atoms: C_4  and  O_50
    4  A    between atoms: C_5  and  C_13
    5  A    between atoms: C_11  and  C_24
    6  A    between atoms: C_11  and  C_39
    7  A    between atoms: C_11  and  O_50
    8  A    between atoms: C_14  and  C_33
    9  A    between atoms: C_19  and  C_29
   10  A    between atoms: C_22  and  C_33
   11  A    between atoms: N_23  and  C_43
   12  A    between atoms: C_24  and  N_25
   13  A    between atoms: C_29  and  C_33
   14  A    between atoms: C_30  and  C_49
   15  A    between atoms: C_32  and  C_47
   16  A    between atoms: C_32  and  C_49
                            x       y       z     vdW  Elec       q    Type
                         _______ _______ _______ _____ _____    ______ ____

>  <TORSDO>
F 16

$$$$
=
 OpenBabel11062412363D

 51 55  0  0  1  0  0  0  0  0999 V2000
  190.6340  177.0930  147.6170 N   0  0  0  0  0  0  0  0  0  0  0  0
  188.3250  178.2170  144.7890 C   0  0  2  0  0  3  0  0  0  0  0  0
  188.9740  178.0720  148.8740 C   0  0  0  0  0  0  0  0  0  0  0  0
  191.8060  176.2950  147.4020 C   0  0  0  0  0  0  0  0  0  0  0  0
  189.5660  177.6750  145.4640 C   0  0  0  0  0  0  0  0  0  0  0  0
  187.6030  178.6680  147.0380 O   0  0  0  0  0  0  0  0  0  0  0  0
  189.4180  176.9790  146.8050 C   0  0  2  0  0  3  0  0  0  0  0  0
  187.1560  178.2480  145.7730 C   0  0  1  0  0  3  0  0  0  0  0  0
  190.7290  177.6840  144.8750 N   0  0  0  0  0  0  0  0  0  0  0  0
  188.2700  177.5850  147.6560 C   0  0  1  0  0  0  0  0  0  0  0  0
  192.8910  176.4010  148.2650 O   0  0  0  0  0  1  0  0  0  0  0  0
  188.4050  178.6190  149.8080 O   0  0  0  0  0  0  0  0  0  0  0  0
  190.4280  177.8130  148.8610 C   0  0  0  0  0  2  0  0  0  0  0  0
  187.3590  176.5870  148.0140 O   0  0  0  0  0  1  0  0  0  0  0  0
  191.8610  175.4830  146.4390 O   0  0  0  0  0  0  0  0  0  0  0  0
  186.0190  179.1280  145.2630 C   0  0  2  0  0  3  0  0  0  0  0  0
  185.6790  180.1210  146.1890 O   0  0  0  0  0  1  0  0  0  0  0  0
  184.8110  178.2740  144.8650 C   0  0  2  0  0  3  0  0  0  0  0  0
  185.0100  179.6840  142.8160 C   0  0  0  0  0  2  0  0  0  0  0  0
  184.1340  178.7850  143.5900 C   0  0  1  0  0  0  0  0  0  0  0  0
  184.7880  178.2580  142.2720 C   0  0  2  0  0  0  0  0  0  0  0  0
  185.0150  178.6280  140.8120 C   0  0  0  0  0  2  0  0  0  0  0  0
  182.7170  179.3360  143.7170 C   0  0  0  0  0  1  0  0  0  0  0  0
  183.6940  178.0530  141.1700 C   0  0  2  0  0  3  0  0  0  0  0  0
  182.7110  179.1210  141.0330 N   0  0  0  0  0  2  0  0  0  0  0  0
  182.3260  179.3200  139.3510 S   0  0  0  0  0  0  0  0  0  0  0  0
  180.9140  179.8200  139.2180 O   0  0  0  0  0  0  0  0  0  0  0  0
  183.2640  180.3140  138.7190 O   0  0  0  0  0  0  0  0  0  0  0  0
  182.4550  177.7350  138.5220 C   0  0  1  0  0  3  0  0  0  0  0  0
  180.1560  177.4530  137.5650 O   0  0  0  0  0  1  0  0  0  0  0  0
  182.1680  174.8780  139.2370 F   0  0  0  0  0  0  0  0  0  0  0  0
  181.1010  177.0020  138.4890 C   0  0  1  0  0  0  0  0  0  0  0  0
  180.0390  174.7910  138.1660 F   0  0  0  0  0  0  0  0  0  0  0  0
  181.0250  175.5230  138.8040 C   0  0  0  0  0  0  0  0  0  0  0  0
  180.4820  176.5370  139.8010 C   0  0  0  0  0  2  0  0  0  0  0  0
  183.1320  177.8760  137.1590 C   0  0  0  0  0  2  0  0  0  0  0  0
  184.9260  176.6310  136.2910 O   0  0  0  0  0  0  0  0  0  0  0  0
  184.5130  177.3180  137.2070 C   0  0  0  0  0  3  0  0  0  0  0  0
  184.5600  177.8780  147.3140 C   0  0  0  0  0  1  0  0  0  0  0  0
  183.8180  178.0920  146.0080 C   0  0  0  0  0  2  0  0  0  0  0  0
  191.0690  179.5730  143.5250 O   0  0  0  0  0  0  0  0  0  0  0  0
  191.0610  178.3170  143.6340 C   0  0  0  0  0  0  0  0  0  0  0  0
  191.4710  177.4660  142.4790 C   0  0  1  0  0  3  0  0  0  0  0  0
  190.5420  175.2800  142.7120 O   0  0  0  0  0  1  0  0  0  0  0  0
  191.6950  176.0350  142.9330 C   0  0  0  0  0  2  0  0  0  0  0  0
  190.4870  177.5000  141.4550 O   0  0  0  0  0  0  0  0  0  0  0  0
  190.8220  177.4590  140.1030 C   0  0  0  0  0  0  0  0  0  0  0  0
  189.8350  177.3860  139.1250 O   0  0  0  0  0  0  0  0  0  0  0  0
  192.0330  177.5010  139.7650 O   0  0  0  0  0  1  0  0  0  0  0  0
  187.9630  177.4070  143.5700 C   0  0  0  0  0  3  0  0  0  0  0  0
  187.5570  176.1390  143.6530 C   0  0  0  0  0  2  0  0  0  0  0  0
  1 13  1  0  0  0  0
  2 50  1  6  0  0  0
  2  5  1  0  0  0  0
  2  8  1  0  0  0  0
  3 12  2  0  0  0  0
  4  1  1  0  0  0  0
  4 11  1  0  0  0  0
  6 10  1  0  0  0  0
  7  5  1  6  0  0  0
  7  1  1  0  0  0  0
  7 10  1  0  0  0  0
  8 16  1  6  0  0  0
  8  6  1  0  0  0  0
  9  5  2  0  0  0  0
 10 14  1  1  0  0  0
 10  3  1  0  0  0  0
 13  3  1  0  0  0  0
 15  4  2  0  0  0  0
 16 17  1  1  0  0  0
 18 16  1  0  0  0  0
 18 40  1  1  0  0  0
 19 20  1  0  0  0  0
 20 23  1  1  0  0  0
 20 18  1  0  0  0  0
 21 22  1  1  0  0  0
 21 19  1  0  0  0  0
 21 20  1  0  0  0  0
 22 24  1  0  0  0  0
 24 25  1  1  0  0  0
 24 21  1  0  0  0  0
 26 25  1  0  0  0  0
 27 26  2  0  0  0  0
 28 26  2  0  0  0  0
 29 36  1  6  0  0  0
 29 26  1  0  0  0  0
 32 30  1  6  0  0  0
 32 29  1  0  0  0  0
 32 34  1  0  0  0  0
 32 35  1  0  0  0  0
 33 34  1  0  0  0  0
 34 31  1  0  0  0  0
 34 35  1  0  0  0  0
 36 38  1  0  0  0  0
 37 38  2  0  0  0  0
 40 39  1  0  0  0  0
 41 42  2  0  0  0  0
 42  9  1  0  0  0  0
 43 45  1  1  0  0  0
 43 42  1  0  0  0  0
 44 45  1  0  0  0  0
 46 43  1  0  0  0  0
 47 46  1  0  0  0  0
 48 47  2  0  0  0  0
 49 47  1  0  0  0  0
 50 51  2  0  0  0  0
M  END
>  <MODEL>
9

>  <REMARK>
 VINA RESULT:      -6.2      3.992     10.333
  Name = 
  16 active torsions:
  status: ('A' for Active; 'I' for Inactive)
    1  A    between atoms: S_1  and  N_23
    2  A    between atoms: S_1  and  C_49
    3  A    between atoms: C_4  and  O_50
    4  A    between atoms: C_5  and  C_13
    5  A    between atoms: C_11  and  C_24
    6  A    between atoms: C_11  and  C_39
    7  A    between atoms: C_11  and  O_50
    8  A    between atoms: C_14  and  C_33
    9  A    between atoms: C_19  and  C_29
   10  A    between atoms: C_22  and  C_33
   11  A    between atoms: N_23  and  C_43
   12  A    between atoms: C_24  and  N_25
   13  A    between atoms: C_29  and  C_33
   14  A    between atoms: C_30  and  C_49
   15  A    between atoms: C_32  and  C_47
   16  A    between atoms: C_32  and  C_49
                            x       y       z     vdW  Elec       q    Type
                         _______ _______ _______ _____ _____    ______ ____

>  <TORSDO>
F 16

$$$$
