=
 OpenBabel11062416593D

 26 30  0  0  1  0  0  0  0  0999 V2000
  187.3740  178.3380  140.1300 C   0  0  2  0  0  0  0  0  0  0  0  0
  187.2800  179.0470  141.4520 C   0  0  1  0  0  3  0  0  0  0  0  0
  186.1070  178.6270  139.3630 C   0  0  0  0  0  2  0  0  0  0  0  0
  187.6470  176.9930  144.6720 C   0  0  0  0  0  3  0  0  0  0  0  0
  189.0810  176.5900  140.6650 O   0  0  0  0  0  1  0  0  0  0  0  0
  185.7780  179.3200  141.5090 C   0  0  1  0  0  3  0  0  0  0  0  0
  185.2980  179.4470  140.1820 O   0  0  0  0  0  0  0  0  0  0  0  0
  189.0320  177.0220  144.8390 C   0  0  0  0  0  3  0  0  0  0  0  0
  185.5400  177.7080  143.5420 C   0  0  2  0  0  3  0  0  0  0  0  0
  189.8290  177.7290  143.9370 C   0  0  0  0  0  0  0  0  0  0  0  0
  187.9100  176.4510  138.6030 O   0  0  0  0  0  1  0  0  0  0  0  0
  188.3130  177.2280  139.6930 C   0  0  0  0  0  0  0  0  0  0  0  0
  183.9800  177.7900  141.7860 O   0  0  0  0  0  0  0  0  0  0  0  0
  187.8540  178.3440  142.6600 C   0  0  0  0  0  0  0  0  0  0  0  0
  188.6900  178.6730  139.3980 C   0  0  1  0  0  3  0  0  0  0  0  0
  187.0430  177.6610  143.5960 C   0  0  0  0  0  0  0  0  0  0  0  0
  189.2400  178.3950  142.8610 C   0  0  0  0  0  3  0  0  0  0  0  0
  185.0350  178.2180  142.2280 C   0  0  0  0  0  0  0  0  0  0  0  0
  185.0020  178.5630  144.6430 C   0  0  0  0  0  0  0  0  0  0  0  0
  185.1980  179.5020  145.5830 N   0  0  0  0  0  0  0  0  0  0  0  0
  183.9360  178.9770  145.4190 N   0  0  0  0  0  2  0  0  0  0  0  0
  189.6150  178.4940  137.3990 C   0  0  0  0  0  1  0  0  0  0  0  0
  188.4780  178.9740  138.0480 O   0  0  0  0  0  0  0  0  0  0  0  0
  191.3010  177.7960  144.1380 C   0  0  0  0  0  2  0  0  0  0  0  0
  191.8050  175.6700  143.8370 C   0  0  0  0  0  1  0  0  0  0  0  0
  191.7370  176.6590  144.8170 O   0  0  0  0  0  0  0  0  0  0  0  0
  1  3  1  6  0  0  0
  1  2  1  0  0  0  0
  2  6  1  0  0  0  0
  2 14  1  1  0  0  0
  3  7  1  0  0  0  0
  4  8  1  0  0  0  0
  6  7  1  6  0  0  0
  6 18  1  0  0  0  0
  9 16  1  0  0  0  0
  9 19  1  1  0  0  0
 10 24  1  0  0  0  0
 10  8  2  0  0  0  0
 11 12  1  0  0  0  0
 12  1  1  0  0  0  0
 12  5  1  0  0  0  0
 13 18  2  0  0  0  0
 14 17  2  0  0  0  0
 14 16  1  0  0  0  0
 15 23  1  6  0  0  0
 15 12  1  0  0  0  0
 15  1  1  0  0  0  0
 16  4  2  0  0  0  0
 17 10  1  0  0  0  0
 18  9  1  0  0  0  0
 19 21  1  0  0  0  0
 19 20  2  0  0  0  0
 21 20  1  0  0  0  0
 22 23  1  0  0  0  0
 24 26  1  0  0  0  0
 25 26  1  0  0  0  0
M  END
>  <MODEL>
1

>  <REMARK>
 VINA RESULT:      -7.2      0.000      0.000
  Name = 
  4 active torsions:
  status: ('A' for Active; 'I' for Inactive)
    1  A    between atoms: O_8  and  C_13
    2  A    between atoms: C_11  and  C_18
    3  A    between atoms: C_13  and  C_14
    4  A    between atoms: C_20  and  O_24
                            x       y       z     vdW  Elec       q    Type
                         _______ _______ _______ _____ _____    ______ ____

>  <TORSDO>
F 4

$$$$
=
 OpenBabel11062416593D

 26 30  0  0  1  0  0  0  0  0999 V2000
  189.3310  177.6400  142.2610 C   0  0  2  0  0  0  0  0  0  0  0  0
  188.8200  178.5030  143.3800 C   0  0  1  0  0  3  0  0  0  0  0  0
  188.5070  177.9430  141.0340 C   0  0  0  0  0  2  0  0  0  0  0  0
  187.6540  176.8130  146.6210 C   0  0  0  0  0  3  0  0  0  0  0  0
  190.4680  175.8280  143.5580 O   0  0  0  0  0  1  0  0  0  0  0  0
  187.4600  178.9060  142.8140 C   0  0  1  0  0  3  0  0  0  0  0  0
  187.5520  178.9180  141.4000 O   0  0  0  0  0  0  0  0  0  0  0  0
  188.8580  176.7450  147.3230 C   0  0  0  0  0  3  0  0  0  0  0  0
  186.2550  177.5680  144.6960 C   0  0  2  0  0  3  0  0  0  0  0  0
  190.0220  177.2720  146.7640 C   0  0  0  0  0  0  0  0  0  0  0  0
  190.1800  175.5500  141.2170 O   0  0  0  0  0  1  0  0  0  0  0  0
  190.2220  176.4110  142.3170 C   0  0  0  0  0  0  0  0  0  0  0  0
  185.5210  177.5760  142.4640 O   0  0  0  0  0  0  0  0  0  0  0  0
  188.7900  177.8990  144.7650 C   0  0  0  0  0  0  0  0  0  0  0  0
  190.8590  177.7750  142.0910 C   0  0  1  0  0  3  0  0  0  0  0  0
  187.6010  177.4000  145.3480 C   0  0  0  0  0  0  0  0  0  0  0  0
  189.9840  177.8560  145.4960 C   0  0  0  0  0  3  0  0  0  0  0  0
  186.3660  177.9620  143.2570 C   0  0  0  0  0  0  0  0  0  0  0  0
  185.4430  178.5860  145.4260 C   0  0  0  0  0  0  0  0  0  0  0  0
  185.3690  179.7470  146.0980 N   0  0  0  0  0  0  0  0  0  0  0  0
  184.2150  179.0300  145.8820 N   0  0  0  0  0  2  0  0  0  0  0  0
  192.5800  177.6000  140.7150 C   0  0  0  0  0  1  0  0  0  0  0  0
  191.2260  177.9340  140.7500 O   0  0  0  0  0  0  0  0  0  0  0  0
  191.2970  177.2380  147.5290 C   0  0  0  0  0  2  0  0  0  0  0  0
  192.7200  175.6190  147.9950 C   0  0  0  0  0  1  0  0  0  0  0  0
  192.1820  176.3410  146.9310 O   0  0  0  0  0  0  0  0  0  0  0  0
  1  3  1  6  0  0  0
  1 12  1  0  0  0  0
  1  2  1  0  0  0  0
  2 14  1  1  0  0  0
  3  7  1  0  0  0  0
  4  8  1  0  0  0  0
  6  7  1  6  0  0  0
  6 18  1  0  0  0  0
  6  2  1  0  0  0  0
  9 16  1  0  0  0  0
  9 19  1  1  0  0  0
 10  8  2  0  0  0  0
 10 24  1  0  0  0  0
 11 12  1  0  0  0  0
 12  5  1  0  0  0  0
 13 18  2  0  0  0  0
 14 16  1  0  0  0  0
 14 17  2  0  0  0  0
 15 23  1  6  0  0  0
 15  1  1  0  0  0  0
 15 12  1  0  0  0  0
 16  4  2  0  0  0  0
 17 10  1  0  0  0  0
 18  9  1  0  0  0  0
 19 21  1  0  0  0  0
 19 20  2  0  0  0  0
 21 20  1  0  0  0  0
 22 23  1  0  0  0  0
 26 24  1  0  0  0  0
 26 25  1  0  0  0  0
M  END
>  <MODEL>
2

>  <REMARK>
 VINA RESULT:      -7.2      2.012      2.766
  Name = 
  4 active torsions:
  status: ('A' for Active; 'I' for Inactive)
    1  A    between atoms: O_8  and  C_13
    2  A    between atoms: C_11  and  C_18
    3  A    between atoms: C_13  and  C_14
    4  A    between atoms: C_20  and  O_24
                            x       y       z     vdW  Elec       q    Type
                         _______ _______ _______ _____ _____    ______ ____

>  <TORSDO>
F 4

$$$$
=
 OpenBabel11062416593D

 26 30  0  0  1  0  0  0  0  0999 V2000
  188.2800  177.5970  145.3020 C   0  0  2  0  0  0  0  0  0  0  0  0
  187.4040  177.0190  144.2260 C   0  0  1  0  0  3  0  0  0  0  0  0
  187.4180  177.8300  146.5190 C   0  0  0  0  0  2  0  0  0  0  0  0
  187.2070  178.8200  140.8450 C   0  0  0  0  0  3  0  0  0  0  0  0
  190.1560  178.5140  143.9250 O   0  0  0  0  0  1  0  0  0  0  0  0
  186.0250  177.3800  144.7740 C   0  0  1  0  0  3  0  0  0  0  0  0
  186.1050  177.4280  146.1880 O   0  0  0  0  0  0  0  0  0  0  0  0
  188.2850  178.2350  140.1790 C   0  0  0  0  0  3  0  0  0  0  0  0
  185.6280  178.9960  142.7690 C   0  0  2  0  0  3  0  0  0  0  0  0
  189.0410  177.2460  140.8080 C   0  0  0  0  0  0  0  0  0  0  0  0
  190.0540  179.0690  146.2320 O   0  0  0  0  0  1  0  0  0  0  0  0
  189.6600  178.2210  145.1930 C   0  0  0  0  0  0  0  0  0  0  0  0
  184.9960  179.5140  144.9730 O   0  0  0  0  0  0  0  0  0  0  0  0
  187.6690  177.4560  142.8040 C   0  0  0  0  0  0  0  0  0  0  0  0
  189.5430  176.7410  145.5300 C   0  0  1  0  0  3  0  0  0  0  0  0
  186.8780  178.4300  142.1510 C   0  0  0  0  0  0  0  0  0  0  0  0
  188.7250  176.8510  142.1100 C   0  0  0  0  0  3  0  0  0  0  0  0
  185.5370  178.7050  144.2340 C   0  0  0  0  0  0  0  0  0  0  0  0
  184.4150  178.4580  142.0830 C   0  0  0  0  0  0  0  0  0  0  0  0
  183.8510  177.5590  141.2590 N   0  0  0  0  0  0  0  0  0  0  0  0
  183.0530  178.5130  141.8500 N   0  0  0  0  0  2  0  0  0  0  0  0
  191.1470  176.2070  146.9520 C   0  0  0  0  0  1  0  0  0  0  0  0
  189.7900  176.5210  146.8890 O   0  0  0  0  0  0  0  0  0  0  0  0
  190.1630  176.5910  140.0850 C   0  0  0  0  0  2  0  0  0  0  0  0
  192.0960  177.4810  140.6640 C   0  0  0  0  0  1  0  0  0  0  0  0
  191.0970  177.5510  139.6960 O   0  0  0  0  0  0  0  0  0  0  0  0
  1 15  1  0  0  0  0
  1  3  1  1  0  0  0
  2 14  1  6  0  0  0
  2  6  1  0  0  0  0
  2  1  1  0  0  0  0
  4 16  1  0  0  0  0
  5 12  1  0  0  0  0
  6 18  1  6  0  0  0
  6  7  1  0  0  0  0
  7  3  1  0  0  0  0
  8 10  1  0  0  0  0
  8  4  2  0  0  0  0
  9 19  1  6  0  0  0
  9 18  1  0  0  0  0
 10 17  2  0  0  0  0
 12  1  1  0  0  0  0
 12 15  1  0  0  0  0
 12 11  1  0  0  0  0
 15 23  1  1  0  0  0
 16  9  1  0  0  0  0
 16 14  2  0  0  0  0
 17 14  1  0  0  0  0
 18 13  2  0  0  0  0
 20 21  1  0  0  0  0
 20 19  2  0  0  0  0
 21 19  1  0  0  0  0
 23 22  1  0  0  0  0
 24 10  1  0  0  0  0
 26 24  1  0  0  0  0
 26 25  1  0  0  0  0
M  END
>  <MODEL>
3

>  <REMARK>
 VINA RESULT:      -7.1      2.397      5.110
  Name = 
  4 active torsions:
  status: ('A' for Active; 'I' for Inactive)
    1  A    between atoms: O_8  and  C_13
    2  A    between atoms: C_11  and  C_18
    3  A    between atoms: C_13  and  C_14
    4  A    between atoms: C_20  and  O_24
                            x       y       z     vdW  Elec       q    Type
                         _______ _______ _______ _____ _____    ______ ____

>  <TORSDO>
F 4

$$$$
=
 OpenBabel11062416593D

 26 30  0  0  1  0  0  0  0  0999 V2000
  188.8120  177.4810  141.5020 C   0  0  2  0  0  0  0  0  0  0  0  0
  188.2880  176.7860  142.7270 C   0  0  1  0  0  3  0  0  0  0  0  0
  190.2710  177.1250  141.3600 C   0  0  0  0  0  2  0  0  0  0  0  0
  186.6540  178.8930  145.4850 C   0  0  0  0  0  3  0  0  0  0  0  0
  187.1260  179.3130  141.2570 O   0  0  0  0  0  1  0  0  0  0  0  0
  189.6010  176.4440  143.4280 C   0  0  1  0  0  3  0  0  0  0  0  0
  190.6040  176.2790  142.4420 O   0  0  0  0  0  0  0  0  0  0  0  0
  185.3350  178.9300  145.0330 C   0  0  0  0  0  3  0  0  0  0  0  0
  189.0070  178.0670  145.3780 C   0  0  2  0  0  3  0  0  0  0  0  0
  184.9770  178.2500  143.8680 C   0  0  0  0  0  0  0  0  0  0  0  0
  189.0820  179.3730  139.9120 O   0  0  0  0  0  1  0  0  0  0  0  0
  188.2100  178.6290  140.7110 C   0  0  0  0  0  0  0  0  0  0  0  0
  191.1700  177.8930  144.4750 O   0  0  0  0  0  0  0  0  0  0  0  0
  187.2790  177.5290  143.5710 C   0  0  0  0  0  0  0  0  0  0  0  0
  187.9310  177.1990  140.2670 C   0  0  1  0  0  3  0  0  0  0  0  0
  187.6340  178.1850  144.7740 C   0  0  0  0  0  0  0  0  0  0  0  0
  185.9440  177.5440  143.1490 C   0  0  0  0  0  3  0  0  0  0  0  0
  190.0090  177.5190  144.4100 C   0  0  0  0  0  0  0  0  0  0  0  0
  188.9720  177.2020  146.5950 C   0  0  0  0  0  0  0  0  0  0  0  0
  189.5710  176.3130  147.4040 N   0  0  0  0  0  0  0  0  0  0  0  0
  188.3050  176.7530  147.7200 N   0  0  0  0  0  2  0  0  0  0  0  0
  187.7840  176.8820  138.0850 C   0  0  0  0  0  1  0  0  0  0  0  0
  188.6950  176.8730  139.1410 O   0  0  0  0  0  0  0  0  0  0  0  0
  183.5630  178.2530  143.4080 C   0  0  0  0  0  2  0  0  0  0  0  0
  181.5120  179.0030  143.7170 C   0  0  0  0  0  1  0  0  0  0  0  0
  182.7810  178.9950  144.2930 O   0  0  0  0  0  0  0  0  0  0  0  0
  1  3  1  6  0  0  0
  1  2  1  0  0  0  0
  2  6  1  0  0  0  0
  2 14  1  1  0  0  0
  3  7  1  0  0  0  0
  6  7  1  6  0  0  0
  6 18  1  0  0  0  0
  8  4  1  0  0  0  0
  9 19  1  1  0  0  0
 10  8  2  0  0  0  0
 11 12  1  0  0  0  0
 12  5  1  0  0  0  0
 12  1  1  0  0  0  0
 14 16  1  0  0  0  0
 15 23  1  6  0  0  0
 15 12  1  0  0  0  0
 15  1  1  0  0  0  0
 16  9  1  0  0  0  0
 16  4  2  0  0  0  0
 17 14  2  0  0  0  0
 17 10  1  0  0  0  0
 18 13  2  0  0  0  0
 18  9  1  0  0  0  0
 19 20  2  0  0  0  0
 19 21  1  0  0  0  0
 20 21  1  0  0  0  0
 22 23  1  0  0  0  0
 24 10  1  0  0  0  0
 24 26  1  0  0  0  0
 25 26  1  0  0  0  0
M  END
>  <MODEL>
4

>  <REMARK>
 VINA RESULT:      -7.0      2.199      5.043
  Name = 
  4 active torsions:
  status: ('A' for Active; 'I' for Inactive)
    1  A    between atoms: O_8  and  C_13
    2  A    between atoms: C_11  and  C_18
    3  A    between atoms: C_13  and  C_14
    4  A    between atoms: C_20  and  O_24
                            x       y       z     vdW  Elec       q    Type
                         _______ _______ _______ _____ _____    ______ ____

>  <TORSDO>
F 4

$$$$
=
 OpenBabel11062416593D

 26 30  0  0  1  0  0  0  0  0999 V2000
  188.7870  177.5560  144.5870 C   0  0  2  0  0  0  0  0  0  0  0  0
  187.9590  176.9460  143.4920 C   0  0  1  0  0  3  0  0  0  0  0  0
  187.8970  177.7300  145.7930 C   0  0  0  0  0  2  0  0  0  0  0  0
  187.7200  178.7740  140.1280 C   0  0  0  0  0  3  0  0  0  0  0  0
  190.6340  178.5850  143.2500 O   0  0  0  0  0  1  0  0  0  0  0  0
  186.5550  177.2290  144.0220 C   0  0  1  0  0  3  0  0  0  0  0  0
  186.6110  177.2640  145.4370 O   0  0  0  0  0  0  0  0  0  0  0  0
  188.8360  178.2530  139.4720 C   0  0  0  0  0  3  0  0  0  0  0  0
  186.1050  178.8450  142.0290 C   0  0  2  0  0  3  0  0  0  0  0  0
  189.6320  177.2970  140.1030 C   0  0  0  0  0  0  0  0  0  0  0  0
  190.4680  179.1070  145.5610 O   0  0  0  0  0  1  0  0  0  0  0  0
  190.1340  178.2520  144.5070 C   0  0  0  0  0  0  0  0  0  0  0  0
  185.4130  179.3050  144.2280 O   0  0  0  0  0  0  0  0  0  0  0  0
  188.2220  177.4120  142.0790 C   0  0  0  0  0  0  0  0  0  0  0  0
  190.0890  176.7630  144.8250 C   0  0  1  0  0  3  0  0  0  0  0  0
  187.3910  178.3530  141.4250 C   0  0  0  0  0  0  0  0  0  0  0  0
  189.3190  176.8710  141.3950 C   0  0  0  0  0  3  0  0  0  0  0  0
  186.0070  178.5330  143.4890 C   0  0  0  0  0  0  0  0  0  0  0  0
  184.9320  178.2540  141.3180 C   0  0  0  0  0  0  0  0  0  0  0  0
  183.8170  177.5040  141.3420 N   0  0  0  0  0  0  0  0  0  0  0  0
  184.1920  178.1010  140.1600 N   0  0  0  0  0  2  0  0  0  0  0  0
  191.6810  176.2150  146.2570 C   0  0  0  0  0  1  0  0  0  0  0  0
  190.3270  176.5410  146.1860 O   0  0  0  0  0  0  0  0  0  0  0  0
  190.7980  176.7100  139.3900 C   0  0  0  0  0  2  0  0  0  0  0  0
  191.3870  175.3600  137.7470 C   0  0  0  0  0  1  0  0  0  0  0  0
  190.4050  175.5520  138.7180 O   0  0  0  0  0  0  0  0  0  0  0  0
  1 15  1  0  0  0  0
  1  3  1  1  0  0  0
  2 14  1  6  0  0  0
  2  6  1  0  0  0  0
  2  1  1  0  0  0  0
  4 16  1  0  0  0  0
  5 12  1  0  0  0  0
  6 18  1  6  0  0  0
  6  7  1  0  0  0  0
  7  3  1  0  0  0  0
  8 10  1  0  0  0  0
  8  4  2  0  0  0  0
  9 19  1  6  0  0  0
  9 18  1  0  0  0  0
 10 17  2  0  0  0  0
 12  1  1  0  0  0  0
 12 15  1  0  0  0  0
 12 11  1  0  0  0  0
 15 23  1  1  0  0  0
 16  9  1  0  0  0  0
 16 14  2  0  0  0  0
 17 14  1  0  0  0  0
 18 13  2  0  0  0  0
 19 20  2  0  0  0  0
 21 19  1  0  0  0  0
 21 20  1  0  0  0  0
 23 22  1  0  0  0  0
 24 10  1  0  0  0  0
 25 26  1  0  0  0  0
 26 24  1  0  0  0  0
M  END
>  <MODEL>
5

>  <REMARK>
 VINA RESULT:      -6.7      2.376      5.135
  Name = 
  4 active torsions:
  status: ('A' for Active; 'I' for Inactive)
    1  A    between atoms: O_8  and  C_13
    2  A    between atoms: C_11  and  C_18
    3  A    between atoms: C_13  and  C_14
    4  A    between atoms: C_20  and  O_24
                            x       y       z     vdW  Elec       q    Type
                         _______ _______ _______ _____ _____    ______ ____

>  <TORSDO>
F 4

$$$$
=
 OpenBabel11062416593D

 26 30  0  0  1  0  0  0  0  0999 V2000
  188.7150  177.1280  137.2530 C   0  0  2  0  0  0  0  0  0  0  0  0
  189.5750  176.0880  137.9140 C   0  0  1  0  0  3  0  0  0  0  0  0
  188.5130  176.7120  135.8160 C   0  0  0  0  0  2  0  0  0  0  0  0
  192.8430  177.1970  139.5900 C   0  0  0  0  0  3  0  0  0  0  0  0
  189.0890  179.0730  138.7800 O   0  0  0  0  0  1  0  0  0  0  0  0
  190.1570  175.3940  136.6840 C   0  0  1  0  0  3  0  0  0  0  0  0
  189.2210  175.5040  135.6260 O   0  0  0  0  0  0  0  0  0  0  0  0
  192.3810  177.5180  140.8670 C   0  0  0  0  0  3  0  0  0  0  0  0
  192.5390  176.2490  137.3010 C   0  0  2  0  0  3  0  0  0  0  0  0
  191.0350  177.3430  141.1860 C   0  0  0  0  0  0  0  0  0  0  0  0
  187.9430  179.4330  136.7310 O   0  0  0  0  0  1  0  0  0  0  0  0
  188.3750  178.5350  137.7120 C   0  0  0  0  0  0  0  0  0  0  0  0
  191.7270  176.2110  135.0960 O   0  0  0  0  0  0  0  0  0  0  0  0
  190.5900  176.5660  138.9260 C   0  0  0  0  0  0  0  0  0  0  0  0
  187.4270  177.3960  138.0590 C   0  0  1  0  0  3  0  0  0  0  0  0
  191.9640  176.7060  138.6140 C   0  0  0  0  0  0  0  0  0  0  0  0
  190.1470  176.8580  140.2220 C   0  0  0  0  0  3  0  0  0  0  0  0
  191.4810  175.9980  136.2730 C   0  0  0  0  0  0  0  0  0  0  0  0
  193.3510  175.0100  137.4880 C   0  0  0  0  0  0  0  0  0  0  0  0
  193.4540  173.6710  137.4380 N   0  0  0  0  0  0  0  0  0  0  0  0
  194.5520  174.4080  137.8170 N   0  0  0  0  0  2  0  0  0  0  0  0
  185.2680  177.8710  138.0780 C   0  0  0  0  0  1  0  0  0  0  0  0
  186.2930  177.4290  137.2400 O   0  0  0  0  0  0  0  0  0  0  0  0
  190.5490  177.6450  142.5590 C   0  0  0  0  0  2  0  0  0  0  0  0
  191.1730  179.1760  144.0190 C   0  0  0  0  0  1  0  0  0  0  0  0
  191.6210  178.0300  143.3640 O   0  0  0  0  0  0  0  0  0  0  0  0
  1  3  1  6  0  0  0
  1 12  1  0  0  0  0
  1  2  1  0  0  0  0
  1 15  1  0  0  0  0
  2 14  1  1  0  0  0
  4  8  1  0  0  0  0
  6  7  1  6  0  0  0
  6  2  1  0  0  0  0
  7  3  1  0  0  0  0
  8 10  2  0  0  0  0
  9 19  1  1  0  0  0
  9 16  1  0  0  0  0
 10 24  1  0  0  0  0
 11 12  1  0  0  0  0
 12 15  1  0  0  0  0
 12  5  1  0  0  0  0
 13 18  2  0  0  0  0
 14 17  2  0  0  0  0
 15 23  1  6  0  0  0
 16 14  1  0  0  0  0
 16  4  2  0  0  0  0
 17 10  1  0  0  0  0
 18  6  1  0  0  0  0
 18  9  1  0  0  0  0
 19 21  1  0  0  0  0
 20 19  2  0  0  0  0
 20 21  1  0  0  0  0
 23 22  1  0  0  0  0
 24 26  1  0  0  0  0
 26 25  1  0  0  0  0
M  END
>  <MODEL>
6

>  <REMARK>
 VINA RESULT:      -6.7      4.766      6.784
  Name = 
  4 active torsions:
  status: ('A' for Active; 'I' for Inactive)
    1  A    between atoms: O_8  and  C_13
    2  A    between atoms: C_11  and  C_18
    3  A    between atoms: C_13  and  C_14
    4  A    between atoms: C_20  and  O_24
                            x       y       z     vdW  Elec       q    Type
                         _______ _______ _______ _____ _____    ______ ____

>  <TORSDO>
F 4

$$$$
=
 OpenBabel11062416593D

 26 30  0  0  1  0  0  0  0  0999 V2000
  189.2600  177.4080  140.4960 C   0  0  2  0  0  0  0  0  0  0  0  0
  189.3150  176.5500  141.7290 C   0  0  1  0  0  3  0  0  0  0  0  0
  190.4900  177.1110  139.6740 C   0  0  0  0  0  2  0  0  0  0  0  0
  189.1550  178.2480  145.1650 C   0  0  0  0  0  3  0  0  0  0  0  0
  187.7040  179.2110  141.2610 O   0  0  0  0  0  1  0  0  0  0  0  0
  190.7910  176.1570  141.7210 C   0  0  1  0  0  3  0  0  0  0  0  0
  191.2420  176.1430  140.3780 O   0  0  0  0  0  0  0  0  0  0  0  0
  187.7750  178.3080  145.3580 C   0  0  0  0  0  3  0  0  0  0  0  0
  191.1840  177.5050  143.9150 C   0  0  2  0  0  3  0  0  0  0  0  0
  186.9130  177.7710  144.4020 C   0  0  0  0  0  0  0  0  0  0  0  0
  188.8550  179.4910  139.2020 O   0  0  0  0  0  1  0  0  0  0  0  0
  188.4060  178.6300  140.2070 C   0  0  0  0  0  0  0  0  0  0  0  0
  192.7090  177.5020  142.1270 O   0  0  0  0  0  0  0  0  0  0  0  0
  188.8150  177.1540  143.0200 C   0  0  0  0  0  0  0  0  0  0  0  0
  187.9110  177.2610  139.7610 C   0  0  1  0  0  3  0  0  0  0  0  0
  189.6910  177.6620  144.0080 C   0  0  0  0  0  0  0  0  0  0  0  0
  187.4320  177.1870  143.2450 C   0  0  0  0  0  3  0  0  0  0  0  0
  191.6290  177.1100  142.5420 C   0  0  0  0  0  0  0  0  0  0  0  0
  191.6670  176.4930  144.9020 C   0  0  0  0  0  0  0  0  0  0  0  0
  192.0590  175.2380  145.1790 N   0  0  0  0  0  0  0  0  0  0  0  0
  192.0570  176.1730  146.1890 N   0  0  0  0  0  2  0  0  0  0  0  0
  186.7920  177.1930  137.8570 C   0  0  0  0  0  1  0  0  0  0  0  0
  188.0810  177.0990  138.3810 O   0  0  0  0  0  0  0  0  0  0  0  0
  185.4430  177.7950  144.6270 C   0  0  0  0  0  2  0  0  0  0  0  0
  183.6250  179.0010  144.2990 C   0  0  0  0  0  1  0  0  0  0  0  0
  184.8400  178.6560  143.7100 O   0  0  0  0  0  0  0  0  0  0  0  0
  1  3  1  6  0  0  0
  1  2  1  0  0  0  0
  2 14  1  1  0  0  0
  3  7  1  0  0  0  0
  4  8  1  0  0  0  0
  6  7  1  6  0  0  0
  6  2  1  0  0  0  0
  6 18  1  0  0  0  0
  9 16  1  0  0  0  0
  9 19  1  1  0  0  0
 10 24  1  0  0  0  0
 10  8  2  0  0  0  0
 11 12  1  0  0  0  0
 12  1  1  0  0  0  0
 12  5  1  0  0  0  0
 13 18  2  0  0  0  0
 14 17  2  0  0  0  0
 14 16  1  0  0  0  0
 15 23  1  6  0  0  0
 15 12  1  0  0  0  0
 15  1  1  0  0  0  0
 16  4  2  0  0  0  0
 17 10  1  0  0  0  0
 18  9  1  0  0  0  0
 19 20  2  0  0  0  0
 19 21  1  0  0  0  0
 20 21  1  0  0  0  0
 22 23  1  0  0  0  0
 26 25  1  0  0  0  0
 26 24  1  0  0  0  0
M  END
>  <MODEL>
7

>  <REMARK>
 VINA RESULT:      -6.2      2.807      5.169
  Name = 
  4 active torsions:
  status: ('A' for Active; 'I' for Inactive)
    1  A    between atoms: O_8  and  C_13
    2  A    between atoms: C_11  and  C_18
    3  A    between atoms: C_13  and  C_14
    4  A    between atoms: C_20  and  O_24
                            x       y       z     vdW  Elec       q    Type
                         _______ _______ _______ _____ _____    ______ ____

>  <TORSDO>
F 4

$$$$
=
 OpenBabel11062416593D

 26 30  0  0  1  0  0  0  0  0999 V2000
  189.7940  177.2540  141.4740 C   0  0  2  0  0  0  0  0  0  0  0  0
  189.1660  178.3430  140.6500 C   0  0  1  0  0  3  0  0  0  0  0  0
  191.0250  176.7770  140.7420 C   0  0  0  0  0  2  0  0  0  0  0  0
  185.5070  177.9540  139.5660 C   0  0  0  0  0  3  0  0  0  0  0  0
  187.8370  176.5360  142.8570 O   0  0  0  0  0  1  0  0  0  0  0  0
  189.8450  178.0930  139.3050 C   0  0  1  0  0  3  0  0  0  0  0  0
  191.1200  177.5260  139.5480 O   0  0  0  0  0  0  0  0  0  0  0  0
  184.8520  178.5100  140.6650 C   0  0  0  0  0  3  0  0  0  0  0  0
  187.5600  177.4190  138.2510 C   0  0  2  0  0  3  0  0  0  0  0  0
  185.5910  179.0340  141.7260 C   0  0  0  0  0  0  0  0  0  0  0  0
  189.8160  175.2220  142.9060 O   0  0  0  0  0  1  0  0  0  0  0  0
  189.2070  176.4470  142.6190 C   0  0  0  0  0  0  0  0  0  0  0  0
  189.5650  176.2830  137.7900 O   0  0  0  0  0  0  0  0  0  0  0  0
  187.6570  178.4020  140.6100 C   0  0  0  0  0  0  0  0  0  0  0  0
  190.0130  177.7000  142.9340 C   0  0  1  0  0  3  0  0  0  0  0  0
  186.9080  177.9060  139.5170 C   0  0  0  0  0  0  0  0  0  0  0  0
  186.9870  178.9900  141.6910 C   0  0  0  0  0  3  0  0  0  0  0  0
  189.0260  177.1770  138.4250 C   0  0  0  0  0  0  0  0  0  0  0  0
  187.3490  178.3990  137.1430 C   0  0  0  0  0  0  0  0  0  0  0  0
  187.3920  179.6620  136.6870 N   0  0  0  0  0  0  0  0  0  0  0  0
  186.9880  178.6600  135.8350 N   0  0  0  0  0  2  0  0  0  0  0  0
  191.6030  178.3630  144.3190 C   0  0  0  0  0  1  0  0  0  0  0  0
  191.2890  177.3620  143.4000 O   0  0  0  0  0  0  0  0  0  0  0  0
  184.8960  179.6660  142.8790 C   0  0  0  0  0  2  0  0  0  0  0  0
  183.5700  179.0990  144.5470 C   0  0  0  0  0  1  0  0  0  0  0  0
  184.7560  178.7370  143.9100 O   0  0  0  0  0  0  0  0  0  0  0  0
  1  3  1  6  0  0  0
  1 12  1  0  0  0  0
  1 15  1  0  0  0  0
  2 14  1  6  0  0  0
  2  1  1  0  0  0  0
  4  8  1  0  0  0  0
  6 18  1  6  0  0  0
  6  7  1  0  0  0  0
  6  2  1  0  0  0  0
  7  3  1  0  0  0  0
  8 10  2  0  0  0  0
  9 19  1  6  0  0  0
  9 18  1  0  0  0  0
  9 16  1  0  0  0  0
 10 24  1  0  0  0  0
 12  5  1  0  0  0  0
 12 11  1  0  0  0  0
 12 15  1  0  0  0  0
 13 18  2  0  0  0  0
 14 17  2  0  0  0  0
 15 23  1  1  0  0  0
 16  4  2  0  0  0  0
 16 14  1  0  0  0  0
 17 10  1  0  0  0  0
 20 19  2  0  0  0  0
 21 20  1  0  0  0  0
 21 19  1  0  0  0  0
 23 22  1  0  0  0  0
 24 26  1  0  0  0  0
 26 25  1  0  0  0  0
M  END
>  <MODEL>
8

>  <REMARK>
 VINA RESULT:      -6.2      3.166      5.920
  Name = 
  4 active torsions:
  status: ('A' for Active; 'I' for Inactive)
    1  A    between atoms: O_8  and  C_13
    2  A    between atoms: C_11  and  C_18
    3  A    between atoms: C_13  and  C_14
    4  A    between atoms: C_20  and  O_24
                            x       y       z     vdW  Elec       q    Type
                         _______ _______ _______ _____ _____    ______ ____

>  <TORSDO>
F 4

$$$$
=
 OpenBabel11062416593D

 26 30  0  0  1  0  0  0  0  0999 V2000
  185.6110  178.6460  143.1680 C   0  0  2  0  0  0  0  0  0  0  0  0
  186.6550  177.5690  143.0850 C   0  0  1  0  0  3  0  0  0  0  0  0
  185.2010  178.9990  141.7600 C   0  0  0  0  0  2  0  0  0  0  0  0
  190.0600  178.1700  144.7470 C   0  0  0  0  0  3  0  0  0  0  0  0
  186.0800  179.5650  145.4470 O   0  0  0  0  0  1  0  0  0  0  0  0
  187.0720  177.7070  141.6220 C   0  0  1  0  0  3  0  0  0  0  0  0
  185.9630  178.1920  140.8860 O   0  0  0  0  0  0  0  0  0  0  0  0
  189.7990  177.7130  146.0400 C   0  0  0  0  0  3  0  0  0  0  0  0
  189.4460  178.4950  142.3500 C   0  0  2  0  0  3  0  0  0  0  0  0
  188.5470  177.1860  146.3540 C   0  0  0  0  0  0  0  0  0  0  0  0
  184.5730  180.7340  144.0310 O   0  0  0  0  0  1  0  0  0  0  0  0
  185.2400  179.5440  144.3360 C   0  0  0  0  0  0  0  0  0  0  0  0
  188.2730  179.4620  140.5580 O   0  0  0  0  0  0  0  0  0  0  0  0
  187.7860  177.6170  144.0850 C   0  0  0  0  0  0  0  0  0  0  0  0
  184.4630  178.2530  144.1210 C   0  0  1  0  0  3  0  0  0  0  0  0
  189.0690  178.1150  143.7560 C   0  0  0  0  0  0  0  0  0  0  0  0
  187.5500  177.1280  145.3770 C   0  0  0  0  0  3  0  0  0  0  0  0
  188.2510  178.6390  141.4600 C   0  0  0  0  0  0  0  0  0  0  0  0
  190.3780  177.4840  141.7660 C   0  0  0  0  0  0  0  0  0  0  0  0
  190.5740  176.3050  141.1520 N   0  0  0  0  0  0  0  0  0  0  0  0
  191.6640  177.0920  141.4450 N   0  0  0  0  0  2  0  0  0  0  0  0
  182.3540  178.6280  144.6650 C   0  0  0  0  0  1  0  0  0  0  0  0
  183.2060  178.5180  143.5660 O   0  0  0  0  0  0  0  0  0  0  0  0
  188.2810  176.6590  147.7190 C   0  0  0  0  0  2  0  0  0  0  0  0
  187.5550  178.5210  148.6520 C   0  0  0  0  0  1  0  0  0  0  0  0
  188.6200  177.6220  148.6700 O   0  0  0  0  0  0  0  0  0  0  0  0
  1  3  1  6  0  0  0
  1 15  1  0  0  0  0
  1 12  1  0  0  0  0
  2  1  1  0  0  0  0
  2 14  1  1  0  0  0
  4  8  1  0  0  0  0
  6  7  1  6  0  0  0
  6  2  1  0  0  0  0
  7  3  1  0  0  0  0
  8 10  2  0  0  0  0
  9 19  1  6  0  0  0
  9 16  1  0  0  0  0
 10 24  1  0  0  0  0
 11 12  1  0  0  0  0
 12  5  1  0  0  0  0
 13 18  2  0  0  0  0
 14 17  2  0  0  0  0
 15 23  1  6  0  0  0
 15 12  1  0  0  0  0
 16 14  1  0  0  0  0
 16  4  2  0  0  0  0
 17 10  1  0  0  0  0
 18  6  1  0  0  0  0
 18  9  1  0  0  0  0
 20 21  1  0  0  0  0
 20 19  2  0  0  0  0
 21 19  1  0  0  0  0
 23 22  1  0  0  0  0
 24 26  1  0  0  0  0
 25 26  1  0  0  0  0
M  END
>  <MODEL>
9

>  <REMARK>
 VINA RESULT:      -6.2      3.101      5.307
  Name = 
  4 active torsions:
  status: ('A' for Active; 'I' for Inactive)
    1  A    between atoms: O_8  and  C_13
    2  A    between atoms: C_11  and  C_18
    3  A    between atoms: C_13  and  C_14
    4  A    between atoms: C_20  and  O_24
                            x       y       z     vdW  Elec       q    Type
                         _______ _______ _______ _____ _____    ______ ____

>  <TORSDO>
F 4

$$$$
