=
 OpenBabel11062417263D

 45 50  0  0  1  0  0  0  0  0999 V2000
  184.3770  178.5540  144.2130 C   0  0  0  0  0  0  0  0  0  0  0  0
  184.7380  178.3690  142.9140 C   0  0  0  0  0  0  0  0  0  0  0  0
  181.3910  178.9610  141.2810 C   0  0  0  0  0  0  0  0  0  0  0  0
  178.9330  179.4630  140.8390 C   0  0  0  0  0  1  0  0  0  0  0  0
  183.1120  178.8650  144.5670 N   0  0  0  0  0  0  0  0  0  0  0  0
  180.8600  179.3170  144.0050 C   0  0  0  0  0  3  0  0  0  0  0  0
  185.5480  178.3730  145.1080 C   0  0  0  0  0  2  0  0  0  0  0  0
  182.1520  178.9950  143.6100 C   0  0  0  0  0  0  0  0  0  0  0  0
  182.4530  178.8060  142.2230 C   0  0  0  0  0  0  0  0  0  0  0  0
  179.8760  179.4540  143.0880 N   0  0  0  0  0  0  0  0  0  0  0  0
  183.8050  178.4740  141.8750 C   0  0  0  0  0  0  0  0  0  0  0  0
  184.2720  178.2240  140.4760 C   0  0  0  0  0  1  0  0  0  0  0  0
  180.0950  179.2890  141.7600 C   0  0  0  0  0  0  0  0  0  0  0  0
  186.6210  178.0730  144.1580 N   0  0  0  0  0  0  0  0  0  0  0  0
  186.1620  178.0640  142.9440 C   0  0  0  0  0  0  0  0  0  0  0  0
  182.2070  178.0470  136.9770 C   0  0  0  0  0  2  0  0  0  0  0  0
  181.1520  179.1140  136.7350 C   0  0  2  0  0  3  0  0  0  0  0  0
  181.7190  177.0020  137.9930 C   0  0  1  0  0  3  0  0  0  0  0  0
  181.3780  180.0740  139.0550 C   0  0  0  0  0  3  0  0  0  0  0  0
  181.2800  179.6040  135.4480 F   0  0  0  0  0  0  0  0  0  0  0  0
  180.9160  177.5440  139.1920 C   0  0  2  0  0  3  0  0  0  0  0  0
  181.0900  181.5150  137.2710 F   0  0  0  0  0  0  0  0  0  0  0  0
  181.2370  180.2440  137.7290 C   0  0  0  0  0  0  0  0  0  0  0  0
  181.6150  178.7760  139.7940 C   0  0  2  0  0  3  0  0  0  0  0  0
  180.7970  176.5250  140.1430 O   0  0  0  0  0  1  0  0  0  0  0  0
  182.1160  174.8570  137.2890 C   0  0  0  0  0  1  0  0  0  0  0  0
  181.1430  175.8630  137.3890 O   0  0  0  0  0  0  0  0  0  0  0  0
  187.0520  177.8490  141.7640 C   0  0  0  0  0  2  0  0  0  0  0  0
  188.1090  178.9460  141.6560 C   0  0  0  0  0  2  0  0  0  0  0  0
  190.4270  177.1160  138.5880 N   0  0  0  0  0  0  0  0  0  0  0  0
  190.1800  177.1010  140.7710 N   0  0  0  0  0  0  0  0  0  0  0  0
  189.3050  178.6030  142.4200 N   0  0  0  0  0  0  0  0  0  0  0  0
  190.8950  175.9660  140.5260 O   0  0  0  0  0  0  0  0  0  0  0  0
  191.0530  176.0150  139.1720 N   0  0  0  0  0  2  0  0  0  0  0  0
  190.2300  177.7690  142.0420 C   0  0  0  0  0  0  0  0  0  0  0  0
  189.9140  177.7750  139.5530 C   0  0  0  0  0  3  0  0  0  0  0  0
  191.3270  177.4370  143.0020 C   0  0  0  0  0  2  0  0  0  0  0  0
  189.9990  176.8460  146.5480 C   0  0  0  0  0  2  0  0  0  0  0  0
  191.9350  175.3290  145.9720 C   0  0  0  0  0  3  0  0  0  0  0  0
  191.7850  175.6380  144.6740 C   0  0  0  0  0  3  0  0  0  0  0  0
  190.3980  177.6390  145.3090 C   0  0  0  0  0  2  0  0  0  0  0  0
  190.7880  176.6680  144.2000 C   0  0  1  0  0  3  0  0  0  0  0  0
  191.2000  176.0520  147.0760 C   0  0  1  0  0  3  0  0  0  0  0  0
  192.9140  176.0730  148.4780 C   0  0  0  0  0  1  0  0  0  0  0  0
  192.0810  176.9120  147.7350 O   0  0  0  0  0  0  0  0  0  0  0  0
  1  5  1  0  0  0  0
  1  7  1  0  0  0  0
  2 15  1  0  0  0  0
  2  1  2  0  0  0  0
  3 13  2  0  0  0  0
  3  9  1  0  0  0  0
  4 13  1  0  0  0  0
  8  6  1  0  0  0  0
  8  5  2  0  0  0  0
  9  8  1  0  0  0  0
 10  6  2  0  0  0  0
 11  9  2  0  0  0  0
 11  2  1  0  0  0  0
 12 11  1  0  0  0  0
 13 10  1  0  0  0  0
 14  7  1  0  0  0  0
 15 14  2  0  0  0  0
 16 18  1  0  0  0  0
 17 20  1  6  0  0  0
 17 16  1  0  0  0  0
 17 23  1  0  0  0  0
 18 27  1  6  0  0  0
 18 21  1  0  0  0  0
 19 24  1  0  0  0  0
 21 24  1  0  0  0  0
 21 25  1  1  0  0  0
 22 23  1  0  0  0  0
 23 19  2  0  0  0  0
 24  3  1  1  0  0  0
 26 27  1  0  0  0  0
 28 15  1  0  0  0  0
 29 28  1  0  0  0  0
 29 32  1  0  0  0  0
 30 34  1  0  0  0  0
 30 36  2  0  0  0  0
 31 35  1  0  0  0  0
 33 31  1  0  0  0  0
 34 33  1  0  0  0  0
 35 32  2  0  0  0  0
 35 37  1  0  0  0  0
 36 31  1  0  0  0  0
 38 43  1  0  0  0  0
 39 43  1  0  0  0  0
 40 39  2  0  0  0  0
 41 38  1  0  0  0  0
 42 37  1  6  0  0  0
 42 40  1  0  0  0  0
 42 41  1  0  0  0  0
 43 45  1  6  0  0  0
 45 44  1  0  0  0  0
M  END
>  <MODEL>
1

>  <REMARK>
 VINA RESULT:      -8.8      0.000      0.000
  Name = 
  8 active torsions:
  status: ('A' for Active; 'I' for Inactive)
    1  A    between atoms: C_8  and  C_9
    2  A    between atoms: C_8  and  N_16
    3  A    between atoms: C_9  and  C_44
    4  A    between atoms: C_11  and  C_38
    5  A    between atoms: C_19  and  O_26
    6  A    between atoms: C_27  and  C_33
    7  A    between atoms: C_33  and  C_42
    8  A    between atoms: O_40  and  C_45
                            x       y       z     vdW  Elec       q    Type
                         _______ _______ _______ _____ _____    ______ ____

>  <TORSDO>
F 8

$$$$
=
 OpenBabel11062417263D

 45 50  0  0  1  0  0  0  0  0999 V2000
  186.9020  175.6760  136.5590 C   0  0  0  0  0  0  0  0  0  0  0  0
  186.5730  176.7510  137.3250 C   0  0  2  0  0  3  0  0  0  0  0  0
  182.8220  176.3650  137.3030 C   0  0  0  0  0  0  0  0  0  0  0  0
  180.4440  175.5470  136.8980 C   0  0  0  0  0  1  0  0  0  0  0  0
  185.9680  174.8450  136.0520 N   0  0  0  0  0  0  0  0  0  0  0  0
  183.7100  174.2020  135.7650 C   0  0  0  0  0  3  0  0  0  0  0  0
  188.3760  175.5850  136.3980 C   0  0  0  0  0  3  0  0  0  0  0  0
  184.6480  175.0750  136.2990 C   0  0  0  0  0  0  0  0  0  0  0  0
  184.2240  176.1920  137.0890 C   0  0  0  0  0  0  0  0  0  0  0  0
  182.3900  174.3960  135.9850 N   0  0  0  0  0  0  0  0  0  0  0  0
  185.2380  177.0610  137.6130 C   0  0  0  0  0  0  0  0  0  0  0  0
  184.9550  178.2780  138.4350 C   0  0  0  0  0  1  0  0  0  0  0  0
  181.9230  175.4320  136.7240 C   0  0  0  0  0  0  0  0  0  0  0  0
  188.8440  176.7330  137.1770 N   0  0  0  0  0  0  0  0  0  0  0  0
  187.8380  177.3800  137.6800 C   0  0  0  0  0  0  0  0  0  0  0  0
  181.4300  180.0230  139.4730 C   0  0  0  0  0  2  0  0  0  0  0  0
  180.3080  179.1060  139.9320 C   0  0  2  0  0  3  0  0  0  0  0  0
  181.6170  179.9550  137.9490 C   0  0  1  0  0  3  0  0  0  0  0  0
  181.5890  177.0090  139.3660 C   0  0  0  0  0  3  0  0  0  0  0  0
  179.7260  179.6280  141.0720 F   0  0  0  0  0  0  0  0  0  0  0  0
  181.4850  178.5580  137.3110 C   0  0  2  0  0  3  0  0  0  0  0  0
  180.3130  177.0560  141.2930 F   0  0  0  0  0  0  0  0  0  0  0  0
  180.7830  177.7000  140.1920 C   0  0  0  0  0  0  0  0  0  0  0  0
  182.2810  177.5190  138.1210 C   0  0  2  0  0  3  0  0  0  0  0  0
  181.9530  178.6270  135.9940 O   0  0  0  0  0  1  0  0  0  0  0  0
  181.1710  182.2020  137.8730 C   0  0  0  0  0  1  0  0  0  0  0  0
  180.9170  180.9670  137.2560 O   0  0  0  0  0  0  0  0  0  0  0  0
  188.0250  178.5610  138.5750 C   0  0  0  0  0  2  0  0  0  0  0  0
  188.7980  178.1860  139.8390 C   0  0  0  0  0  2  0  0  0  0  0  0
  191.5950  176.9430  142.7980 N   0  0  0  0  0  0  0  0  0  0  0  0
  189.4620  176.7830  142.3010 N   0  0  0  0  0  0  0  0  0  0  0  0
  187.8980  178.0260  140.9780 N   0  0  0  0  0  0  0  0  0  0  0  0
  189.6440  175.8060  143.2350 O   0  0  0  0  0  0  0  0  0  0  0  0
  190.9660  175.9450  143.5410 N   0  0  0  0  0  2  0  0  0  0  0  0
  188.1780  177.3890  142.0780 C   0  0  0  0  0  0  0  0  0  0  0  0
  190.6860  177.4540  142.0620 C   0  0  0  0  0  3  0  0  0  0  0  0
  187.0980  177.2130  143.0950 C   0  0  0  0  0  2  0  0  0  0  0  0
  184.5450  179.7310  144.4470 C   0  0  0  0  0  2  0  0  0  0  0  0
  183.7980  178.6580  142.2850 C   0  0  0  0  0  3  0  0  0  0  0  0
  185.0490  178.2170  142.0780 C   0  0  0  0  0  3  0  0  0  0  0  0
  185.5980  178.6310  144.4980 C   0  0  0  0  0  2  0  0  0  0  0  0
  186.1500  178.4030  143.0950 C   0  0  1  0  0  3  0  0  0  0  0  0
  183.3570  179.2850  143.5870 C   0  0  1  0  0  3  0  0  0  0  0  0
  181.2570  178.6900  143.9650 C   0  0  0  0  0  1  0  0  0  0  0  0
  182.5750  178.3720  144.2990 O   0  0  0  0  0  0  0  0  0  0  0  0
  2  1  1  6  0  0  0
  2 11  1  0  0  0  0
  2 15  1  0  0  0  0
  5  8  2  0  0  0  0
  5  1  1  0  0  0  0
  6 10  2  0  0  0  0
  6  8  1  0  0  0  0
  7  1  2  0  0  0  0
  7 14  1  0  0  0  0
  8  9  1  0  0  0  0
  9  3  1  0  0  0  0
  9 11  2  0  0  0  0
 10 13  1  0  0  0  0
 11 12  1  0  0  0  0
 13  4  1  0  0  0  0
 13  3  2  0  0  0  0
 14 15  2  0  0  0  0
 15 28  1  0  0  0  0
 16 17  1  0  0  0  0
 17 23  1  0  0  0  0
 17 20  1  1  0  0  0
 18 27  1  6  0  0  0
 18 16  1  0  0  0  0
 19 23  2  0  0  0  0
 21 25  1  6  0  0  0
 21 18  1  0  0  0  0
 21 24  1  0  0  0  0
 23 22  1  0  0  0  0
 24  3  1  6  0  0  0
 24 19  1  0  0  0  0
 27 26  1  0  0  0  0
 28 29  1  0  0  0  0
 29 32  1  0  0  0  0
 30 34  1  0  0  0  0
 31 33  1  0  0  0  0
 32 35  2  0  0  0  0
 33 34  1  0  0  0  0
 35 31  1  0  0  0  0
 35 37  1  0  0  0  0
 36 31  1  0  0  0  0
 36 30  2  0  0  0  0
 38 41  1  0  0  0  0
 39 43  1  0  0  0  0
 40 39  2  0  0  0  0
 40 42  1  0  0  0  0
 42 37  1  1  0  0  0
 42 41  1  0  0  0  0
 43 45  1  1  0  0  0
 43 38  1  0  0  0  0
 44 45  1  0  0  0  0
M  END
>  <MODEL>
2

>  <REMARK>
 VINA RESULT:      -8.7      3.125      6.220
  Name = 
  8 active torsions:
  status: ('A' for Active; 'I' for Inactive)
    1  A    between atoms: C_8  and  C_9
    2  A    between atoms: C_8  and  N_16
    3  A    between atoms: C_9  and  C_44
    4  A    between atoms: C_11  and  C_38
    5  A    between atoms: C_19  and  O_26
    6  A    between atoms: C_27  and  C_33
    7  A    between atoms: C_33  and  C_42
    8  A    between atoms: O_40  and  C_45
                            x       y       z     vdW  Elec       q    Type
                         _______ _______ _______ _____ _____    ______ ____

>  <TORSDO>
F 8

$$$$
=
 OpenBabel11062417263D

 45 50  0  0  1  0  0  0  0  0999 V2000
  183.5220  178.7890  144.6210 C   0  0  0  0  0  0  0  0  0  0  0  0
  184.1740  178.4700  143.4720 C   0  0  0  0  0  0  0  0  0  0  0  0
  181.2540  178.5680  141.0880 C   0  0  0  0  0  0  0  0  0  0  0  0
  178.9350  178.8040  140.0610 C   0  0  0  0  0  1  0  0  0  0  0  0
  182.1950  179.0360  144.6470 N   0  0  0  0  0  0  0  0  0  0  0  0
  180.1060  179.2240  143.5550 C   0  0  0  0  0  3  0  0  0  0  0  0
  184.4700  178.8210  145.7650 C   0  0  0  0  0  2  0  0  0  0  0  0
  181.4690  178.9630  143.4970 C   0  0  0  0  0  0  0  0  0  0  0  0
  182.0840  178.6240  142.2490 C   0  0  0  0  0  0  0  0  0  0  0  0
  179.3480  179.1610  142.4370 N   0  0  0  0  0  0  0  0  0  0  0  0
  183.4950  178.3640  142.2520 C   0  0  0  0  0  0  0  0  0  0  0  0
  184.2770  177.9760  141.0360 C   0  0  0  0  0  1  0  0  0  0  0  0
  179.8680  178.8460  141.2250 C   0  0  0  0  0  0  0  0  0  0  0  0
  185.7430  178.4930  145.1200 N   0  0  0  0  0  0  0  0  0  0  0  0
  185.5700  178.2910  143.8510 C   0  0  0  0  0  0  0  0  0  0  0  0
  183.0940  177.2020  137.2450 C   0  0  0  0  0  2  0  0  0  0  0  0
  181.9790  178.0290  136.6240 C   0  0  2  0  0  3  0  0  0  0  0  0
  182.5470  176.2450  138.3160 C   0  0  1  0  0  3  0  0  0  0  0  0
  181.5680  179.3340  138.7410 C   0  0  0  0  0  3  0  0  0  0  0  0
  182.3130  178.3440  135.3200 F   0  0  0  0  0  0  0  0  0  0  0  0
  181.4390  176.8080  139.2280 C   0  0  2  0  0  3  0  0  0  0  0  0
  181.4750  180.4350  136.7110 F   0  0  0  0  0  0  0  0  0  0  0  0
  181.6930  179.2860  137.4030 C   0  0  0  0  0  0  0  0  0  0  0  0
  181.8160  178.2140  139.7270 C   0  0  2  0  0  3  0  0  0  0  0  0
  181.2590  175.9300  140.3010 O   0  0  0  0  0  1  0  0  0  0  0  0
  183.4610  174.3990  137.3090 C   0  0  0  0  0  1  0  0  0  0  0  0
  182.2760  174.9500  137.8210 O   0  0  0  0  0  0  0  0  0  0  0  0
  186.7120  178.0010  142.9330 C   0  0  0  0  0  2  0  0  0  0  0  0
  187.5450  176.8230  143.4340 C   0  0  0  0  0  2  0  0  0  0  0  0
  191.1260  178.1080  145.3450 N   0  0  0  0  0  0  0  0  0  0  0  0
  190.3170  177.7080  143.3430 N   0  0  0  0  0  0  0  0  0  0  0  0
  188.5230  176.4050  142.4340 N   0  0  0  0  0  0  0  0  0  0  0  0
  191.4460  178.4290  143.0900 O   0  0  0  0  0  0  0  0  0  0  0  0
  191.9370  178.6410  144.3440 N   0  0  0  0  0  2  0  0  0  0  0  0
  189.7600  176.8050  142.3740 C   0  0  0  0  0  0  0  0  0  0  0  0
  190.1590  177.5360  144.7410 C   0  0  0  0  0  3  0  0  0  0  0  0
  190.5930  176.3750  141.2100 C   0  0  0  0  0  2  0  0  0  0  0  0
  188.9580  178.7280  138.6660 C   0  0  0  0  0  2  0  0  0  0  0  0
  190.5550  177.0940  137.5880 C   0  0  0  0  0  3  0  0  0  0  0  0
  191.0680  176.8070  138.7960 C   0  0  0  0  0  3  0  0  0  0  0  0
  189.0540  177.8370  139.8980 C   0  0  0  0  0  2  0  0  0  0  0  0
  190.4990  177.3800  140.0710 C   0  0  1  0  0  3  0  0  0  0  0  0
  189.3080  177.9270  137.4060 C   0  0  1  0  0  3  0  0  0  0  0  0
  187.1760  177.9620  136.8100 C   0  0  0  0  0  1  0  0  0  0  0  0
  188.2400  177.0950  137.0640 O   0  0  0  0  0  0  0  0  0  0  0  0
  1  5  1  0  0  0  0
  1  7  1  0  0  0  0
  2 15  1  0  0  0  0
  2  1  2  0  0  0  0
  3 13  2  0  0  0  0
  3  9  1  0  0  0  0
  4 13  1  0  0  0  0
  8  6  1  0  0  0  0
  8  5  2  0  0  0  0
  9 11  2  0  0  0  0
  9  8  1  0  0  0  0
 10  6  2  0  0  0  0
 11  2  1  0  0  0  0
 12 11  1  0  0  0  0
 13 10  1  0  0  0  0
 14  7  1  0  0  0  0
 15 14  2  0  0  0  0
 16 18  1  0  0  0  0
 17 20  1  6  0  0  0
 17 16  1  0  0  0  0
 17 23  1  0  0  0  0
 18 27  1  6  0  0  0
 18 21  1  0  0  0  0
 19 24  1  0  0  0  0
 21 24  1  0  0  0  0
 21 25  1  1  0  0  0
 22 23  1  0  0  0  0
 23 19  2  0  0  0  0
 24  3  1  1  0  0  0
 26 27  1  0  0  0  0
 28 29  1  0  0  0  0
 28 15  1  0  0  0  0
 31 36  1  0  0  0  0
 32 29  1  0  0  0  0
 33 31  1  0  0  0  0
 33 34  1  0  0  0  0
 34 30  1  0  0  0  0
 35 32  2  0  0  0  0
 35 31  1  0  0  0  0
 36 30  2  0  0  0  0
 37 35  1  0  0  0  0
 38 41  1  0  0  0  0
 39 40  2  0  0  0  0
 40 42  1  0  0  0  0
 41 42  1  0  0  0  0
 42 37  1  1  0  0  0
 43 45  1  1  0  0  0
 43 39  1  0  0  0  0
 43 38  1  0  0  0  0
 44 45  1  0  0  0  0
M  END
>  <MODEL>
3

>  <REMARK>
 VINA RESULT:      -8.6      1.954      4.237
  Name = 
  8 active torsions:
  status: ('A' for Active; 'I' for Inactive)
    1  A    between atoms: C_8  and  C_9
    2  A    between atoms: C_8  and  N_16
    3  A    between atoms: C_9  and  C_44
    4  A    between atoms: C_11  and  C_38
    5  A    between atoms: C_19  and  O_26
    6  A    between atoms: C_27  and  C_33
    7  A    between atoms: C_33  and  C_42
    8  A    between atoms: O_40  and  C_45
                            x       y       z     vdW  Elec       q    Type
                         _______ _______ _______ _____ _____    ______ ____

>  <TORSDO>
F 8

$$$$
=
 OpenBabel11062417263D

 45 50  0  0  1  0  0  0  0  0999 V2000
  191.8740  176.7900  138.6060 C   0  0  0  0  0  0  0  0  0  0  0  0
  190.7680  177.0580  139.3510 C   0  0  0  0  0  0  0  0  0  0  0  0
  188.1240  176.3930  136.7460 C   0  0  0  0  0  0  0  0  0  0  0  0
  186.8980  175.7980  134.5940 C   0  0  0  0  0  1  0  0  0  0  0  0
  191.7910  176.4020  137.3160 N   0  0  0  0  0  0  0  0  0  0  0  0
  190.5190  175.8740  135.3940 C   0  0  0  0  0  3  0  0  0  0  0  0
  193.1040  176.9810  139.4150 C   0  0  0  0  0  2  0  0  0  0  0  0
  190.5720  176.2750  136.7220 C   0  0  0  0  0  0  0  0  0  0  0  0
  189.3630  176.5490  137.4390 C   0  0  0  0  0  0  0  0  0  0  0  0
  189.3290  175.7370  134.7660 N   0  0  0  0  0  0  0  0  0  0  0  0
  189.4810  176.9610  138.8090 C   0  0  0  0  0  0  0  0  0  0  0  0
  188.3160  177.3040  139.6830 C   0  0  0  0  0  1  0  0  0  0  0  0
  188.1490  175.9800  135.3880 C   0  0  0  0  0  0  0  0  0  0  0  0
  192.5610  177.3780  140.7160 N   0  0  0  0  0  0  0  0  0  0  0  0
  191.2650  177.4270  140.6700 C   0  0  0  0  0  0  0  0  0  0  0  0
  184.3800  177.5110  138.9270 C   0  0  0  0  0  2  0  0  0  0  0  0
  183.7100  176.7120  137.8200 C   0  0  2  0  0  3  0  0  0  0  0  0
  185.3700  178.5350  138.3520 C   0  0  1  0  0  3  0  0  0  0  0  0
  185.8380  175.5160  137.1910 C   0  0  0  0  0  3  0  0  0  0  0  0
  182.4470  176.3270  138.2320 F   0  0  0  0  0  0  0  0  0  0  0  0
  186.2170  178.0640  137.1540 C   0  0  2  0  0  3  0  0  0  0  0  0
  183.8490  174.3380  137.1910 F   0  0  0  0  0  0  0  0  0  0  0  0
  184.5120  175.5030  137.4150 C   0  0  0  0  0  0  0  0  0  0  0  0
  186.7960  176.6630  137.4230 C   0  0  2  0  0  3  0  0  0  0  0  0
  187.2400  178.9930  136.9400 O   0  0  0  0  0  1  0  0  0  0  0  0
  183.7010  179.9500  139.0350 C   0  0  0  0  0  1  0  0  0  0  0  0
  184.8080  179.8200  138.1830 O   0  0  0  0  0  0  0  0  0  0  0  0
  190.4430  177.7440  141.8760 C   0  0  0  0  0  2  0  0  0  0  0  0
  189.8970  176.4750  142.5270 C   0  0  0  0  0  2  0  0  0  0  0  0
  191.5230  177.5340  146.3180 N   0  0  0  0  0  0  0  0  0  0  0  0
  189.6940  176.7120  145.4220 N   0  0  0  0  0  0  0  0  0  0  0  0
  188.6630  176.7470  143.2590 N   0  0  0  0  0  0  0  0  0  0  0  0
  189.5580  176.4170  146.7460 O   0  0  0  0  0  0  0  0  0  0  0  0
  190.6920  176.9580  147.2780 N   0  0  0  0  0  2  0  0  0  0  0  0
  188.5570  176.8400  144.5530 C   0  0  0  0  0  0  0  0  0  0  0  0
  190.9150  177.3960  145.2040 C   0  0  0  0  0  3  0  0  0  0  0  0
  187.1950  176.9990  145.1480 C   0  0  0  0  0  2  0  0  0  0  0  0
  184.6310  179.8260  144.8000 C   0  0  0  0  0  2  0  0  0  0  0  0
  184.6040  178.2450  142.8300 C   0  0  0  0  0  3  0  0  0  0  0  0
  185.7860  177.7430  143.2230 C   0  0  0  0  0  3  0  0  0  0  0  0
  185.4600  178.7580  145.5030 C   0  0  0  0  0  2  0  0  0  0  0  0
  186.4550  178.1660  144.5090 C   0  0  1  0  0  3  0  0  0  0  0  0
  183.7950  179.1940  143.6810 C   0  0  1  0  0  3  0  0  0  0  0  0
  181.5910  179.0070  143.5600 C   0  0  0  0  0  1  0  0  0  0  0  0
  182.7080  178.5110  144.2330 O   0  0  0  0  0  0  0  0  0  0  0  0
  1  2  2  0  0  0  0
  1  7  1  0  0  0  0
  2 15  1  0  0  0  0
  3  9  1  0  0  0  0
  4 13  1  0  0  0  0
  5  1  1  0  0  0  0
  6  8  1  0  0  0  0
  7 14  1  0  0  0  0
  8  5  2  0  0  0  0
  8  9  1  0  0  0  0
  9 11  2  0  0  0  0
 10 13  1  0  0  0  0
 10  6  2  0  0  0  0
 11  2  1  0  0  0  0
 11 12  1  0  0  0  0
 13  3  2  0  0  0  0
 15 14  2  0  0  0  0
 15 28  1  0  0  0  0
 17 20  1  1  0  0  0
 17 16  1  0  0  0  0
 18 27  1  6  0  0  0
 18 16  1  0  0  0  0
 19 23  2  0  0  0  0
 19 24  1  0  0  0  0
 21 25  1  1  0  0  0
 21 24  1  0  0  0  0
 21 18  1  0  0  0  0
 22 23  1  0  0  0  0
 23 17  1  0  0  0  0
 24  3  1  6  0  0  0
 27 26  1  0  0  0  0
 28 29  1  0  0  0  0
 29 32  1  0  0  0  0
 30 34  1  0  0  0  0
 31 33  1  0  0  0  0
 32 35  2  0  0  0  0
 33 34  1  0  0  0  0
 35 37  1  0  0  0  0
 35 31  1  0  0  0  0
 36 31  1  0  0  0  0
 36 30  2  0  0  0  0
 38 41  1  0  0  0  0
 39 40  2  0  0  0  0
 39 43  1  0  0  0  0
 40 42  1  0  0  0  0
 42 37  1  1  0  0  0
 42 41  1  0  0  0  0
 43 45  1  1  0  0  0
 43 38  1  0  0  0  0
 44 45  1  0  0  0  0
M  END
>  <MODEL>
4

>  <REMARK>
 VINA RESULT:      -8.4      3.214      7.561
  Name = 
  8 active torsions:
  status: ('A' for Active; 'I' for Inactive)
    1  A    between atoms: C_8  and  C_9
    2  A    between atoms: C_8  and  N_16
    3  A    between atoms: C_9  and  C_44
    4  A    between atoms: C_11  and  C_38
    5  A    between atoms: C_19  and  O_26
    6  A    between atoms: C_27  and  C_33
    7  A    between atoms: C_33  and  C_42
    8  A    between atoms: O_40  and  C_45
                            x       y       z     vdW  Elec       q    Type
                         _______ _______ _______ _____ _____    ______ ____

>  <TORSDO>
F 8

$$$$
=
 OpenBabel11062417263D

 45 50  0  0  1  0  0  0  0  0999 V2000
  187.7380  178.1000  138.4240 C   0  0  0  0  0  0  0  0  0  0  0  0
  186.9030  178.2590  139.4860 C   0  0  2  0  0  3  0  0  0  0  0  0
  183.6290  177.4730  137.7870 C   0  0  0  0  0  0  0  0  0  0  0  0
  181.8360  176.8520  136.0880 C   0  0  0  0  0  1  0  0  0  0  0  0
  187.2840  177.7470  137.2030 N   0  0  0  0  0  0  0  0  0  0  0  0
  185.5140  177.1810  135.7390 C   0  0  0  0  0  3  0  0  0  0  0  0
  189.1440  178.3600  138.8250 C   0  0  0  0  0  3  0  0  0  0  0  0
  185.9510  177.5450  137.0070 C   0  0  0  0  0  0  0  0  0  0  0  0
  185.0090  177.7030  138.0740 C   0  0  0  0  0  0  0  0  0  0  0  0
  184.2000  176.9730  135.5010 N   0  0  0  0  0  0  0  0  0  0  0  0
  185.5200  178.0810  139.3610 C   0  0  0  0  0  0  0  0  0  0  0  0
  184.6640  178.3070  140.5670 C   0  0  0  0  0  1  0  0  0  0  0  0
  183.2580  177.1050  136.4670 C   0  0  0  0  0  0  0  0  0  0  0  0
  189.0060  178.6750  140.2490 N   0  0  0  0  0  0  0  0  0  0  0  0
  187.7600  178.6250  140.6060 C   0  0  0  0  0  0  0  0  0  0  0  0
  180.6170  178.2860  140.9950 C   0  0  0  0  0  2  0  0  0  0  0  0
  179.8570  177.1560  140.3200 C   0  0  2  0  0  3  0  0  0  0  0  0
  181.0780  179.3360  139.9720 C   0  0  1  0  0  3  0  0  0  0  0  0
  181.9060  176.2870  139.1350 C   0  0  0  0  0  3  0  0  0  0  0  0
  178.9320  176.6310  141.2040 F   0  0  0  0  0  0  0  0  0  0  0  0
  181.5910  178.7920  138.6240 C   0  0  2  0  0  3  0  0  0  0  0  0
  180.3900  174.7740  140.0050 F   0  0  0  0  0  0  0  0  0  0  0  0
  180.7690  176.0660  139.8190 C   0  0  0  0  0  0  0  0  0  0  0  0
  182.5620  177.6200  138.8530 C   0  0  2  0  0  3  0  0  0  0  0  0
  182.2210  179.8340  137.9370 O   0  0  0  0  0  1  0  0  0  0  0  0
  179.6410  180.7160  141.1060 C   0  0  0  0  0  1  0  0  0  0  0  0
  180.1830  180.4220  139.8460 O   0  0  0  0  0  0  0  0  0  0  0  0
  187.3340  178.8410  142.0210 C   0  0  0  0  0  2  0  0  0  0  0  0
  186.8760  177.5370  142.6700 C   0  0  0  0  0  2  0  0  0  0  0  0
  184.4540  178.6160  146.0020 N   0  0  0  0  0  0  0  0  0  0  0  0
  186.5630  178.3500  145.4480 N   0  0  0  0  0  0  0  0  0  0  0  0
  187.7670  177.1500  143.7590 N   0  0  0  0  0  0  0  0  0  0  0  0
  186.6280  179.0540  146.6140 O   0  0  0  0  0  0  0  0  0  0  0  0
  185.3110  179.1820  146.9450 N   0  0  0  0  0  2  0  0  0  0  0  0
  187.6460  177.5180  145.0020 C   0  0  0  0  0  0  0  0  0  0  0  0
  185.2090  178.1050  145.1090 C   0  0  0  0  0  3  0  0  0  0  0  0
  188.7190  177.1320  145.9690 C   0  0  0  0  0  2  0  0  0  0  0  0
  191.3180  178.9080  143.7840 C   0  0  0  0  0  2  0  0  0  0  0  0
  191.6650  176.4070  143.8640 C   0  0  0  0  0  3  0  0  0  0  0  0
  190.8410  176.3310  144.9220 C   0  0  0  0  0  3  0  0  0  0  0  0
  189.9510  178.6250  144.3940 C   0  0  0  0  0  2  0  0  0  0  0  0
  190.0910  177.5320  145.4480 C   0  0  1  0  0  3  0  0  0  0  0  0
  191.8350  177.6660  143.0480 C   0  0  1  0  0  3  0  0  0  0  0  0
  192.1720  177.3950  140.8760 C   0  0  0  0  0  1  0  0  0  0  0  0
  191.1630  177.5250  141.8310 O   0  0  0  0  0  0  0  0  0  0  0  0
  1  7  2  0  0  0  0
  2  1  1  6  0  0  0
  2 15  1  0  0  0  0
  3  9  1  0  0  0  0
  4 13  1  0  0  0  0
  5  1  1  0  0  0  0
  6  8  1  0  0  0  0
  7 14  1  0  0  0  0
  8  5  2  0  0  0  0
  8  9  1  0  0  0  0
  9 11  2  0  0  0  0
 10  6  2  0  0  0  0
 10 13  1  0  0  0  0
 11  2  1  0  0  0  0
 11 12  1  0  0  0  0
 13  3  2  0  0  0  0
 14 15  2  0  0  0  0
 15 28  1  0  0  0  0
 17 16  1  0  0  0  0
 17 20  1  1  0  0  0
 18 27  1  6  0  0  0
 18 16  1  0  0  0  0
 19 23  2  0  0  0  0
 21 25  1  1  0  0  0
 21 24  1  0  0  0  0
 21 18  1  0  0  0  0
 23 22  1  0  0  0  0
 23 17  1  0  0  0  0
 24  3  1  6  0  0  0
 24 19  1  0  0  0  0
 27 26  1  0  0  0  0
 28 29  1  0  0  0  0
 29 32  1  0  0  0  0
 30 34  1  0  0  0  0
 31 33  1  0  0  0  0
 32 35  2  0  0  0  0
 33 34  1  0  0  0  0
 35 31  1  0  0  0  0
 35 37  1  0  0  0  0
 36 31  1  0  0  0  0
 36 30  2  0  0  0  0
 38 41  1  0  0  0  0
 39 40  2  0  0  0  0
 40 42  1  0  0  0  0
 41 42  1  0  0  0  0
 42 37  1  6  0  0  0
 43 45  1  6  0  0  0
 43 38  1  0  0  0  0
 43 39  1  0  0  0  0
 44 45  1  0  0  0  0
M  END
>  <MODEL>
5

>  <REMARK>
 VINA RESULT:      -8.2      2.744      5.604
  Name = 
  8 active torsions:
  status: ('A' for Active; 'I' for Inactive)
    1  A    between atoms: C_8  and  C_9
    2  A    between atoms: C_8  and  N_16
    3  A    between atoms: C_9  and  C_44
    4  A    between atoms: C_11  and  C_38
    5  A    between atoms: C_19  and  O_26
    6  A    between atoms: C_27  and  C_33
    7  A    between atoms: C_33  and  C_42
    8  A    between atoms: O_40  and  C_45
                            x       y       z     vdW  Elec       q    Type
                         _______ _______ _______ _____ _____    ______ ____

>  <TORSDO>
F 8

$$$$
=
 OpenBabel11062417263D

 45 50  0  0  1  0  0  0  0  0999 V2000
  186.0490  173.5180  136.5500 C   0  0  0  0  0  0  0  0  0  0  0  0
  185.9820  174.8370  136.8770 C   0  0  0  0  0  0  0  0  0  0  0  0
  182.2920  175.0780  137.6140 C   0  0  0  0  0  0  0  0  0  0  0  0
  179.8200  174.5610  137.9520 C   0  0  0  0  0  1  0  0  0  0  0  0
  184.9600  172.7200  136.5680 N   0  0  0  0  0  0  0  0  0  0  0  0
  182.6460  172.3890  136.9240 C   0  0  0  0  0  3  0  0  0  0  0  0
  187.4420  173.1390  136.2020 C   0  0  0  0  0  3  0  0  0  0  0  0
  183.7470  173.2340  136.9150 C   0  0  0  0  0  0  0  0  0  0  0  0
  183.5970  174.6160  137.2620 C   0  0  0  0  0  0  0  0  0  0  0  0
  181.4230  172.8590  137.2610 N   0  0  0  0  0  0  0  0  0  0  0  0
  184.7700  175.4410  137.2330 C   0  0  0  0  0  0  0  0  0  0  0  0
  184.7730  176.9040  137.5460 C   0  0  0  0  0  1  0  0  0  0  0  0
  181.2140  174.1550  137.6000 C   0  0  1  0  0  3  0  0  0  0  0  0
  188.1610  174.4020  136.3820 N   0  0  0  0  0  0  0  0  0  0  0  0
  187.3430  175.3400  136.7480 C   0  0  0  0  0  0  0  0  0  0  0  0
  181.7030  179.4490  138.3710 C   0  0  0  0  0  2  0  0  0  0  0  0
  180.6470  178.9560  139.3460 C   0  0  2  0  0  3  0  0  0  0  0  0
  181.5380  178.7920  136.9920 C   0  0  1  0  0  3  0  0  0  0  0  0
  181.6060  176.6260  139.4380 C   0  0  0  0  0  3  0  0  0  0  0  0
  180.3760  179.9480  140.2710 F   0  0  0  0  0  0  0  0  0  0  0  0
  181.1610  177.2970  136.9910 C   0  0  2  0  0  3  0  0  0  0  0  0
  180.8020  177.5830  141.3820 F   0  0  0  0  0  0  0  0  0  0  0  0
  181.0600  177.6900  140.0520 C   0  0  0  0  0  0  0  0  0  0  0  0
  182.0370  176.5230  137.9920 C   0  0  2  0  0  3  0  0  0  0  0  0
  181.3250  176.7990  135.6950 O   0  0  0  0  0  1  0  0  0  0  0  0
  180.7950  180.9090  136.5170 C   0  0  0  0  0  1  0  0  0  0  0  0
  180.7790  179.5720  136.0900 O   0  0  0  0  0  0  0  0  0  0  0  0
  187.8160  176.7210  137.0660 C   0  0  0  0  0  2  0  0  0  0  0  0
  188.6430  176.7450  138.3500 C   0  0  0  0  0  2  0  0  0  0  0  0
  192.1220  177.4050  140.7140 N   0  0  0  0  0  0  0  0  0  0  0  0
  189.9330  177.5080  140.8470 N   0  0  0  0  0  0  0  0  0  0  0  0
  188.1160  177.7230  139.2980 N   0  0  0  0  0  0  0  0  0  0  0  0
  190.3300  177.5390  142.1500 O   0  0  0  0  0  0  0  0  0  0  0  0
  191.6890  177.4990  142.0360 N   0  0  0  0  0  2  0  0  0  0  0  0
  188.6760  178.0630  140.4240 C   0  0  0  0  0  0  0  0  0  0  0  0
  191.0650  177.4240  139.9990 C   0  0  0  0  0  3  0  0  0  0  0  0
  187.9400  178.9900  141.3360 C   0  0  0  0  0  2  0  0  0  0  0  0
  184.5270  178.5530  143.0240 C   0  0  0  0  0  2  0  0  0  0  0  0
  186.4170  177.5840  144.3920 C   0  0  0  0  0  3  0  0  0  0  0  0
  187.2220  177.6510  143.3190 C   0  0  0  0  0  3  0  0  0  0  0  0
  185.6170  179.2440  142.2130 C   0  0  0  0  0  2  0  0  0  0  0  0
  186.7810  178.2770  142.0170 C   0  0  1  0  0  3  0  0  0  0  0  0
  185.0460  178.2160  144.4270 C   0  0  1  0  0  3  0  0  0  0  0  0
  185.7900  179.0100  146.3560 C   0  0  0  0  0  1  0  0  0  0  0  0
  185.0890  179.3750  145.2050 O   0  0  0  0  0  0  0  0  0  0  0  0
  1  5  1  0  0  0  0
  1  2  1  0  0  0  0
  2 11  2  0  0  0  0
  5  8  2  0  0  0  0
  6 10  2  0  0  0  0
  7 14  1  0  0  0  0
  7  1  2  0  0  0  0
  8  6  1  0  0  0  0
  8  9  1  0  0  0  0
  9  3  2  0  0  0  0
 10 13  1  0  0  0  0
 11  9  1  0  0  0  0
 11 12  1  0  0  0  0
 13  3  1  0  0  0  0
 13  4  1  6  0  0  0
 14 15  2  0  0  0  0
 15  2  1  0  0  0  0
 15 28  1  0  0  0  0
 16 17  1  0  0  0  0
 17 23  1  0  0  0  0
 17 20  1  1  0  0  0
 18 27  1  6  0  0  0
 18 16  1  0  0  0  0
 19 23  2  0  0  0  0
 21 25  1  6  0  0  0
 21 18  1  0  0  0  0
 21 24  1  0  0  0  0
 23 22  1  0  0  0  0
 24  3  1  6  0  0  0
 24 19  1  0  0  0  0
 27 26  1  0  0  0  0
 28 29  1  0  0  0  0
 29 32  1  0  0  0  0
 30 34  1  0  0  0  0
 31 33  1  0  0  0  0
 32 35  2  0  0  0  0
 34 33  1  0  0  0  0
 35 31  1  0  0  0  0
 35 37  1  0  0  0  0
 36 30  2  0  0  0  0
 36 31  1  0  0  0  0
 38 43  1  0  0  0  0
 39 43  1  0  0  0  0
 40 39  2  0  0  0  0
 41 38  1  0  0  0  0
 42 37  1  1  0  0  0
 42 41  1  0  0  0  0
 42 40  1  0  0  0  0
 43 45  1  1  0  0  0
 45 44  1  0  0  0  0
M  END
>  <MODEL>
6

>  <REMARK>
 VINA RESULT:      -8.2      3.482      5.884
  Name = 
  8 active torsions:
  status: ('A' for Active; 'I' for Inactive)
    1  A    between atoms: C_8  and  C_9
    2  A    between atoms: C_8  and  N_16
    3  A    between atoms: C_9  and  C_44
    4  A    between atoms: C_11  and  C_38
    5  A    between atoms: C_19  and  O_26
    6  A    between atoms: C_27  and  C_33
    7  A    between atoms: C_33  and  C_42
    8  A    between atoms: O_40  and  C_45
                            x       y       z     vdW  Elec       q    Type
                         _______ _______ _______ _____ _____    ______ ____

>  <TORSDO>
F 8

$$$$
=
 OpenBabel11062417263D

 45 50  0  0  1  0  0  0  0  0999 V2000
  185.3850  175.1200  136.5080 C   0  0  0  0  0  0  0  0  0  0  0  0
  185.2840  176.3810  137.0090 C   0  0  0  0  0  0  0  0  0  0  0  0
  181.7270  176.2390  138.2530 C   0  0  0  0  0  0  0  0  0  0  0  0
  179.3650  175.4930  138.8440 C   0  0  0  0  0  1  0  0  0  0  0  0
  184.3610  174.2430  136.5650 N   0  0  0  0  0  0  0  0  0  0  0  0
  182.1450  173.6890  137.1780 C   0  0  0  0  0  3  0  0  0  0  0  0
  186.7360  174.8960  135.9320 C   0  0  0  0  0  3  0  0  0  0  0  0
  183.1800  174.6140  137.1330 C   0  0  0  0  0  0  0  0  0  0  0  0
  182.9950  175.9270  137.6740 C   0  0  0  0  0  0  0  0  0  0  0  0
  180.9560  174.0180  137.7310 N   0  0  0  0  0  0  0  0  0  0  0  0
  184.1000  176.8400  137.5980 C   0  0  0  0  0  0  0  0  0  0  0  0
  184.0570  178.2500  138.0960 C   0  0  0  0  0  1  0  0  0  0  0  0
  180.7170  175.2430  138.2610 C   0  0  1  0  0  3  0  0  0  0  0  0
  187.3940  176.1810  136.1790 N   0  0  0  0  0  0  0  0  0  0  0  0
  186.5800  177.0020  136.7690 C   0  0  0  0  0  0  0  0  0  0  0  0
  181.0000  180.4280  139.6490 C   0  0  0  0  0  2  0  0  0  0  0  0
  180.0750  179.7460  140.6440 C   0  0  2  0  0  3  0  0  0  0  0  0
  180.7270  179.9480  138.2150 C   0  0  1  0  0  3  0  0  0  0  0  0
  181.1540  177.4900  140.3270 C   0  0  0  0  0  3  0  0  0  0  0  0
  179.8500  180.5900  141.7160 F   0  0  0  0  0  0  0  0  0  0  0  0
  180.4280  178.4450  138.0470 C   0  0  2  0  0  3  0  0  0  0  0  0
  180.5060  178.1320  142.4510 F   0  0  0  0  0  0  0  0  0  0  0  0
  180.6220  178.4280  141.1290 C   0  0  0  0  0  0  0  0  0  0  0  0
  181.4400  177.6040  138.8460 C   0  0  2  0  0  3  0  0  0  0  0  0
  180.4840  178.1310  136.6860 O   0  0  0  0  0  1  0  0  0  0  0  0
  180.5620  181.8740  136.9840 C   0  0  0  0  0  1  0  0  0  0  0  0
  179.8420  180.7880  137.5040 O   0  0  0  0  0  0  0  0  0  0  0  0
  187.0070  178.3670  137.1990 C   0  0  0  0  0  2  0  0  0  0  0  0
  188.5260  178.5180  137.1460 C   0  0  0  0  0  2  0  0  0  0  0  0
  191.5180  175.5230  136.6870 N   0  0  0  0  0  0  0  0  0  0  0  0
  190.2740  176.4590  138.2350 N   0  0  0  0  0  0  0  0  0  0  0  0
  189.1010  178.5340  138.4880 N   0  0  0  0  0  0  0  0  0  0  0  0
  190.7320  175.3270  138.8400 O   0  0  0  0  0  0  0  0  0  0  0  0
  191.5170  174.7810  137.8680 N   0  0  0  0  0  2  0  0  0  0  0  0
  189.8720  177.6130  138.9920 C   0  0  0  0  0  0  0  0  0  0  0  0
  190.7800  176.5390  136.9140 C   0  0  0  0  0  3  0  0  0  0  0  0
  190.2730  177.7250  140.4270 C   0  0  0  0  0  2  0  0  0  0  0  0
  187.3560  177.5600  142.9070 C   0  0  0  0  0  2  0  0  0  0  0  0
  189.3560  176.2200  143.6720 C   0  0  0  0  0  3  0  0  0  0  0  0
  189.8720  176.2920  142.4340 C   0  0  0  0  0  3  0  0  0  0  0  0
  188.3040  178.1840  141.8900 C   0  0  0  0  0  2  0  0  0  0  0  0
  189.2240  177.1010  141.3360 C   0  0  1  0  0  3  0  0  0  0  0  0
  188.1470  177.0150  144.1020 C   0  0  1  0  0  3  0  0  0  0  0  0
  189.4790  177.5110  145.8010 C   0  0  0  0  0  1  0  0  0  0  0  0
  188.5550  178.0730  144.9190 O   0  0  0  0  0  0  0  0  0  0  0  0
  1  5  1  0  0  0  0
  1  2  1  0  0  0  0
  2 11  2  0  0  0  0
  3 13  1  0  0  0  0
  5  8  2  0  0  0  0
  6 10  2  0  0  0  0
  7 14  1  0  0  0  0
  7  1  2  0  0  0  0
  8  6  1  0  0  0  0
  8  9  1  0  0  0  0
  9  3  2  0  0  0  0
 10 13  1  0  0  0  0
 11  9  1  0  0  0  0
 11 12  1  0  0  0  0
 13  4  1  6  0  0  0
 14 15  2  0  0  0  0
 15  2  1  0  0  0  0
 15 28  1  0  0  0  0
 16 17  1  0  0  0  0
 17 23  1  0  0  0  0
 17 20  1  1  0  0  0
 18 27  1  1  0  0  0
 18 16  1  0  0  0  0
 19 23  2  0  0  0  0
 21 25  1  6  0  0  0
 21 18  1  0  0  0  0
 21 24  1  0  0  0  0
 23 22  1  0  0  0  0
 24  3  1  6  0  0  0
 24 19  1  0  0  0  0
 26 27  1  0  0  0  0
 29 28  1  0  0  0  0
 29 32  1  0  0  0  0
 30 36  2  0  0  0  0
 30 34  1  0  0  0  0
 31 33  1  0  0  0  0
 31 35  1  0  0  0  0
 32 35  2  0  0  0  0
 34 33  1  0  0  0  0
 35 37  1  0  0  0  0
 36 31  1  0  0  0  0
 38 43  1  0  0  0  0
 39 43  1  0  0  0  0
 40 39  2  0  0  0  0
 41 38  1  0  0  0  0
 42 37  1  1  0  0  0
 42 41  1  0  0  0  0
 42 40  1  0  0  0  0
 43 45  1  1  0  0  0
 45 44  1  0  0  0  0
M  END
>  <MODEL>
7

>  <REMARK>
 VINA RESULT:      -8.1      3.159      5.175
  Name = 
  8 active torsions:
  status: ('A' for Active; 'I' for Inactive)
    1  A    between atoms: C_8  and  C_9
    2  A    between atoms: C_8  and  N_16
    3  A    between atoms: C_9  and  C_44
    4  A    between atoms: C_11  and  C_38
    5  A    between atoms: C_19  and  O_26
    6  A    between atoms: C_27  and  C_33
    7  A    between atoms: C_33  and  C_42
    8  A    between atoms: O_40  and  C_45
                            x       y       z     vdW  Elec       q    Type
                         _______ _______ _______ _____ _____    ______ ____

>  <TORSDO>
F 8

$$$$
=
 OpenBabel11062417263D

 45 50  0  0  1  0  0  0  0  0999 V2000
  188.5020  177.7760  140.0230 C   0  0  0  0  0  0  0  0  0  0  0  0
  189.8150  177.5570  140.3030 C   0  0  0  0  0  0  0  0  0  0  0  0
  190.8930  176.1100  136.9920 C   0  0  0  0  0  0  0  0  0  0  0  0
  190.9500  175.2440  134.5960 C   0  0  0  0  0  1  0  0  0  0  0  0
  187.9680  177.4820  138.8180 N   0  0  0  0  0  0  0  0  0  0  0  0
  188.1730  176.6520  136.6130 C   0  0  0  0  0  3  0  0  0  0  0  0
  187.8110  178.3640  141.1990 C   0  0  0  0  0  2  0  0  0  0  0  0
  188.7510  176.9430  137.8420 C   0  0  0  0  0  0  0  0  0  0  0  0
  190.1400  176.6750  138.0660 C   0  0  0  0  0  0  0  0  0  0  0  0
  188.9140  176.1150  135.6180 N   0  0  0  0  0  0  0  0  0  0  0  0
  190.6800  176.9960  139.3560 C   0  0  0  0  0  0  0  0  0  0  0  0
  192.1030  176.7560  139.7500 C   0  0  0  0  0  1  0  0  0  0  0  0
  190.2330  175.8380  135.7640 C   0  0  0  0  0  0  0  0  0  0  0  0
  188.8960  178.4630  142.1770 N   0  0  0  0  0  0  0  0  0  0  0  0
  190.0020  178.0060  141.6760 C   0  0  0  0  0  0  0  0  0  0  0  0
  195.1440  174.9320  137.7420 C   0  0  0  0  0  2  0  0  0  0  0  0
  195.3230  175.3230  136.2850 C   0  0  2  0  0  3  0  0  0  0  0  0
  193.9510  173.9800  137.9210 C   0  0  1  0  0  3  0  0  0  0  0  0
  193.1940  176.6740  136.2320 C   0  0  0  0  0  3  0  0  0  0  0  0
  196.6590  175.5790  136.0380 F   0  0  0  0  0  0  0  0  0  0  0  0
  192.7020  174.2890  137.0720 C   0  0  2  0  0  3  0  0  0  0  0  0
  195.0540  177.4710  135.1150 F   0  0  0  0  0  0  0  0  0  0  0  0
  194.4890  176.5190  135.9030 C   0  0  0  0  0  0  0  0  0  0  0  0
  192.3660  175.7900  137.1380 C   0  0  2  0  0  3  0  0  0  0  0  0
  191.6380  173.5190  137.5520 O   0  0  0  0  0  1  0  0  0  0  0  0
  195.7010  172.5160  138.1420 C   0  0  0  0  0  1  0  0  0  0  0  0
  194.3200  172.6160  137.9160 O   0  0  0  0  0  0  0  0  0  0  0  0
  191.2880  178.0440  142.4340 C   0  0  0  0  0  2  0  0  0  0  0  0
  191.2070  177.2120  143.7120 C   0  0  0  0  0  2  0  0  0  0  0  0
  192.7030  175.3030  147.2120 N   0  0  0  0  0  0  0  0  0  0  0  0
  190.9000  176.3090  146.4630 N   0  0  0  0  0  0  0  0  0  0  0  0
  190.3940  177.8800  144.7250 N   0  0  0  0  0  0  0  0  0  0  0  0
  190.4600  175.6620  147.5790 O   0  0  0  0  0  0  0  0  0  0  0  0
  191.6010  175.0690  148.0340 N   0  0  0  0  0  2  0  0  0  0  0  0
  190.2370  177.4780  145.9530 C   0  0  0  0  0  0  0  0  0  0  0  0
  192.2820  176.0590  146.2740 C   0  0  0  0  0  3  0  0  0  0  0  0
  189.2700  178.2110  146.8250 C   0  0  0  0  0  2  0  0  0  0  0  0
  186.0160  177.4040  144.9690 C   0  0  0  0  0  2  0  0  0  0  0  0
  185.6230  178.7330  147.0810 C   0  0  0  0  0  3  0  0  0  0  0  0
  186.8720  178.4500  147.4860 C   0  0  0  0  0  3  0  0  0  0  0  0
  187.4820  177.7820  145.1380 C   0  0  0  0  0  2  0  0  0  0  0  0
  187.8520  177.7000  146.6150 C   0  0  1  0  0  3  0  0  0  0  0  0
  185.1230  178.4190  145.6920 C   0  0  1  0  0  3  0  0  0  0  0  0
  183.9420  179.4340  144.1170 C   0  0  0  0  0  1  0  0  0  0  0  0
  185.0520  179.5990  144.9470 O   0  0  0  0  0  0  0  0  0  0  0  0
  1  2  2  0  0  0  0
  1  7  1  0  0  0  0
  2 15  1  0  0  0  0
  3  9  1  0  0  0  0
  4 13  1  0  0  0  0
  5  1  1  0  0  0  0
  6  8  1  0  0  0  0
  7 14  1  0  0  0  0
  8  9  1  0  0  0  0
  8  5  2  0  0  0  0
  9 11  2  0  0  0  0
 10 13  1  0  0  0  0
 10  6  2  0  0  0  0
 11 12  1  0  0  0  0
 11  2  1  0  0  0  0
 13  3  2  0  0  0  0
 15 14  2  0  0  0  0
 15 28  1  0  0  0  0
 16 18  1  0  0  0  0
 17 20  1  1  0  0  0
 17 16  1  0  0  0  0
 18 27  1  6  0  0  0
 19 24  1  0  0  0  0
 21 24  1  0  0  0  0
 21 25  1  1  0  0  0
 21 18  1  0  0  0  0
 22 23  1  0  0  0  0
 23 19  2  0  0  0  0
 23 17  1  0  0  0  0
 24  3  1  6  0  0  0
 27 26  1  0  0  0  0
 28 29  1  0  0  0  0
 29 32  1  0  0  0  0
 30 34  1  0  0  0  0
 31 33  1  0  0  0  0
 32 35  2  0  0  0  0
 33 34  1  0  0  0  0
 35 31  1  0  0  0  0
 35 37  1  0  0  0  0
 36 31  1  0  0  0  0
 36 30  2  0  0  0  0
 38 41  1  0  0  0  0
 38 43  1  0  0  0  0
 39 40  2  0  0  0  0
 41 42  1  0  0  0  0
 42 37  1  6  0  0  0
 42 40  1  0  0  0  0
 43 45  1  6  0  0  0
 43 39  1  0  0  0  0
 44 45  1  0  0  0  0
M  END
>  <MODEL>
8

>  <REMARK>
 VINA RESULT:      -7.9      5.115      9.529
  Name = 
  8 active torsions:
  status: ('A' for Active; 'I' for Inactive)
    1  A    between atoms: C_8  and  C_9
    2  A    between atoms: C_8  and  N_16
    3  A    between atoms: C_9  and  C_44
    4  A    between atoms: C_11  and  C_38
    5  A    between atoms: C_19  and  O_26
    6  A    between atoms: C_27  and  C_33
    7  A    between atoms: C_33  and  C_42
    8  A    between atoms: O_40  and  C_45
                            x       y       z     vdW  Elec       q    Type
                         _______ _______ _______ _____ _____    ______ ____

>  <TORSDO>
F 8

$$$$
=
 OpenBabel11062417263D

 45 50  0  0  1  0  0  0  0  0999 V2000
  183.7920  178.6880  144.4490 C   0  0  0  0  0  0  0  0  0  0  0  0
  184.3160  178.3090  143.2530 C   0  0  0  0  0  0  0  0  0  0  0  0
  181.2690  178.8090  141.0880 C   0  0  0  0  0  0  0  0  0  0  0  0
  178.9310  179.3490  140.2330 C   0  0  0  0  0  1  0  0  0  0  0  0
  182.5120  179.0980  144.5730 N   0  0  0  0  0  0  0  0  0  0  0  0
  180.3910  179.5630  143.6360 C   0  0  0  0  0  3  0  0  0  0  0  0
  184.8150  178.5830  145.5210 C   0  0  0  0  0  2  0  0  0  0  0  0
  181.7030  179.1350  143.4780 C   0  0  0  0  0  0  0  0  0  0  0  0
  182.1800  178.7420  142.1860 C   0  0  0  0  0  0  0  0  0  0  0  0
  179.5530  179.6120  142.5760 N   0  0  0  0  0  0  0  0  0  0  0  0
  183.5440  178.3090  142.0850 C   0  0  0  0  0  0  0  0  0  0  0  0
  184.1830  177.8470  140.8130 C   0  0  0  0  0  1  0  0  0  0  0  0
  179.9430  179.2550  141.3270 C   0  0  0  0  0  0  0  0  0  0  0  0
  185.9880  178.1100  144.7840 N   0  0  0  0  0  0  0  0  0  0  0  0
  185.7010  177.9520  143.5290 C   0  0  0  0  0  0  0  0  0  0  0  0
  182.6320  177.2810  137.1090 C   0  0  0  0  0  2  0  0  0  0  0  0
  181.6290  178.2920  136.5770 C   0  0  2  0  0  3  0  0  0  0  0  0
  182.0050  176.3920  138.1950 C   0  0  1  0  0  3  0  0  0  0  0  0
  181.5600  179.5840  138.7410 C   0  0  0  0  0  3  0  0  0  0  0  0
  181.9300  178.5890  135.2610 F   0  0  0  0  0  0  0  0  0  0  0  0
  181.0580  177.0970  139.1860 C   0  0  2  0  0  3  0  0  0  0  0  0
  181.5230  180.7450  136.7420 F   0  0  0  0  0  0  0  0  0  0  0  0
  181.5950  179.5560  137.3970 C   0  0  0  0  0  0  0  0  0  0  0  0
  181.6850  178.4100  139.6870 C   0  0  2  0  0  3  0  0  0  0  0  0
  180.8050  176.2280  140.2520 O   0  0  0  0  0  1  0  0  0  0  0  0
  182.5030  174.5360  136.9450 C   0  0  0  0  0  1  0  0  0  0  0  0
  181.5010  175.1720  137.6940 O   0  0  0  0  0  0  0  0  0  0  0  0
  186.7300  177.5370  142.5280 C   0  0  0  0  0  2  0  0  0  0  0  0
  187.4990  178.7410  141.9880 C   0  0  0  0  0  2  0  0  0  0  0  0
  190.7250  176.3730  143.4420 N   0  0  0  0  0  0  0  0  0  0  0  0
  190.1910  177.6590  141.7440 N   0  0  0  0  0  0  0  0  0  0  0  0
  188.1600  178.4210  140.7260 N   0  0  0  0  0  0  0  0  0  0  0  0
  191.5470  177.5500  141.6450 O   0  0  0  0  0  0  0  0  0  0  0  0
  191.8450  176.7300  142.6920 N   0  0  0  0  0  2  0  0  0  0  0  0
  189.3680  177.9500  140.6030 C   0  0  0  0  0  0  0  0  0  0  0  0
  189.7300  176.9220  142.8630 C   0  0  0  0  0  3  0  0  0  0  0  0
  189.9370  177.7950  139.2300 C   0  0  0  0  0  2  0  0  0  0  0  0
  187.2720  176.4100  136.8490 C   0  0  0  0  0  2  0  0  0  0  0  0
  188.9180  177.9320  135.6840 C   0  0  0  0  0  3  0  0  0  0  0  0
  189.3400  178.3820  136.8760 C   0  0  0  0  0  3  0  0  0  0  0  0
  188.2680  176.4040  138.0030 C   0  0  0  0  0  2  0  0  0  0  0  0
  188.8360  177.8080  138.1790 C   0  0  1  0  0  3  0  0  0  0  0  0
  187.9880  176.7510  135.5370 C   0  0  1  0  0  3  0  0  0  0  0  0
  187.7460  174.6980  134.7430 C   0  0  0  0  0  1  0  0  0  0  0  0
  188.7130  175.6420  135.0930 O   0  0  0  0  0  0  0  0  0  0  0  0
  1  5  1  0  0  0  0
  1  7  1  0  0  0  0
  2 15  1  0  0  0  0
  2  1  2  0  0  0  0
  3 13  2  0  0  0  0
  3  9  1  0  0  0  0
  4 13  1  0  0  0  0
  8  6  1  0  0  0  0
  8  5  2  0  0  0  0
  9  8  1  0  0  0  0
 10  6  2  0  0  0  0
 11  9  2  0  0  0  0
 11  2  1  0  0  0  0
 12 11  1  0  0  0  0
 13 10  1  0  0  0  0
 14  7  1  0  0  0  0
 15 14  2  0  0  0  0
 16 18  1  0  0  0  0
 17 20  1  6  0  0  0
 17 16  1  0  0  0  0
 17 23  1  0  0  0  0
 18 27  1  6  0  0  0
 18 21  1  0  0  0  0
 19 24  1  0  0  0  0
 21 24  1  0  0  0  0
 21 25  1  1  0  0  0
 22 23  1  0  0  0  0
 23 19  2  0  0  0  0
 24  3  1  1  0  0  0
 26 27  1  0  0  0  0
 28 15  1  0  0  0  0
 29 28  1  0  0  0  0
 31 36  1  0  0  0  0
 32 29  1  0  0  0  0
 33 31  1  0  0  0  0
 33 34  1  0  0  0  0
 34 30  1  0  0  0  0
 35 32  2  0  0  0  0
 35 31  1  0  0  0  0
 36 30  2  0  0  0  0
 37 35  1  0  0  0  0
 38 41  1  0  0  0  0
 39 40  2  0  0  0  0
 40 42  1  0  0  0  0
 41 42  1  0  0  0  0
 42 37  1  1  0  0  0
 43 45  1  1  0  0  0
 43 39  1  0  0  0  0
 43 38  1  0  0  0  0
 44 45  1  0  0  0  0
M  END
>  <MODEL>
9

>  <REMARK>
 VINA RESULT:      -7.8      2.092      4.772
  Name = 
  8 active torsions:
  status: ('A' for Active; 'I' for Inactive)
    1  A    between atoms: C_8  and  C_9
    2  A    between atoms: C_8  and  N_16
    3  A    between atoms: C_9  and  C_44
    4  A    between atoms: C_11  and  C_38
    5  A    between atoms: C_19  and  O_26
    6  A    between atoms: C_27  and  C_33
    7  A    between atoms: C_33  and  C_42
    8  A    between atoms: O_40  and  C_45
                            x       y       z     vdW  Elec       q    Type
                         _______ _______ _______ _____ _____    ______ ____

>  <TORSDO>
F 8

$$$$
