=
 OpenBabel11062416593D

 26 28  0  0  1  0  0  0  0  0999 V2000
  188.3560  177.3460  144.8120 C   0  0  0  0  0  0  0  0  0  0  0  0
  186.9060  177.7250  144.7730 C   0  0  0  0  0  2  0  0  0  0  0  0
  188.5230  177.8240  147.2190 C   0  0  0  0  0  0  0  0  0  0  0  0
  190.4730  176.8530  144.3480 C   0  0  0  0  0  0  0  0  0  0  0  0
  187.1020  178.0020  147.2490 N   0  0  0  0  0  2  0  0  0  0  0  0
  189.2180  178.0370  148.2470 O   0  0  0  0  0  0  0  0  0  0  0  0
  189.2070  177.0080  143.7830 C   0  0  0  0  0  0  0  0  0  0  0  0
  190.4100  177.1180  145.6750 N   0  0  0  0  0  0  0  0  0  0  0  0
  189.1250  177.4350  145.9430 C   0  0  0  0  0  0  0  0  0  0  0  0
  186.2600  177.4990  146.1540 C   0  0  0  0  0  2  0  0  0  0  0  0
  188.4530  178.9900  141.7620 O   0  0  0  0  0  0  0  0  0  0  0  0
  188.8030  176.7730  142.4290 N   0  0  0  0  0  2  0  0  0  0  0  0
  188.5980  177.7820  141.4360 C   0  0  0  0  0  0  0  0  0  0  0  0
  188.5220  177.3940  140.0010 C   0  0  0  0  0  2  0  0  0  0  0  0
  191.6650  177.1780  140.0850 O   0  0  0  0  0  0  0  0  0  0  0  0
  191.0110  176.1930  138.0860 N   0  0  0  0  0  2  0  0  0  0  0  0
  190.8380  177.1540  139.1370 C   0  0  0  0  0  0  0  0  0  0  0  0
  187.5820  178.8100  137.6950 O   0  0  0  0  0  0  0  0  0  0  0  0
  189.6360  178.0580  139.1980 C   0  0  1  0  0  3  0  0  0  0  0  0
  189.0480  176.8520  136.7550 C   0  0  0  0  0  2  0  0  0  0  0  0
  190.4750  176.3380  136.7360 C   0  0  0  0  0  2  0  0  0  0  0  0
  189.0590  178.4690  137.5340 S   0  0  1  0  0  0  0  0  0  0  0  0
  191.5180  177.0740  146.6220 C   0  0  0  0  0  2  0  0  0  0  0  0
  191.5770  175.7130  147.2880 C   0  0  0  0  0  1  0  0  0  0  0  0
  191.6880  176.3140  143.6680 C   0  0  0  0  0  2  0  0  0  0  0  0
  191.8050  174.9490  143.9300 O   0  0  0  0  0  1  0  0  0  0  0  0
  1  9  2  0  0  0  0
  2  1  1  0  0  0  0
  2 10  1  0  0  0  0
  3  5  1  0  0  0  0
  3  6  2  0  0  0  0
  4  8  1  0  0  0  0
  7  4  2  0  0  0  0
  7  1  1  0  0  0  0
  8  9  1  0  0  0  0
  8 23  1  0  0  0  0
  9  3  1  0  0  0  0
 10  5  1  0  0  0  0
 12  7  1  0  0  0  0
 13 11  2  0  0  0  0
 13 12  1  0  0  0  0
 14 13  1  0  0  0  0
 16 17  1  0  0  0  0
 17 19  1  0  0  0  0
 17 15  2  0  0  0  0
 19 14  1  1  0  0  0
 20 22  1  0  0  0  0
 21 20  1  0  0  0  0
 21 16  1  0  0  0  0
 22 18  2  1  0  0  0
 22 19  1  0  0  0  0
 23 24  1  0  0  0  0
 25 26  1  0  0  0  0
 25  4  1  0  0  0  0
M  END
>  <MODEL>
1

>  <REMARK>
 VINA RESULT:      -8.0      0.000      0.000
  Name = 
  5 active torsions:
  status: ('A' for Active; 'I' for Inactive)
    1  A    between atoms: C_6  and  N_18
    2  A    between atoms: C_9  and  C_12
    3  A    between atoms: C_10  and  C_24
    4  A    between atoms: C_16  and  N_23
    5  A    between atoms: C_24  and  C_26
                            x       y       z     vdW  Elec       q    Type
                         _______ _______ _______ _____ _____    ______ ____

>  <TORSDO>
F 5

$$$$
=
 OpenBabel11062416593D

 26 28  0  0  1  0  0  0  0  0999 V2000
  186.3900  178.0400  144.2830 C   0  0  0  0  0  0  0  0  0  0  0  0
  185.1360  178.3710  143.5310 C   0  0  0  0  0  2  0  0  0  0  0  0
  185.5030  178.9730  146.3790 C   0  0  0  0  0  0  0  0  0  0  0  0
  188.4560  177.5170  144.9140 C   0  0  0  0  0  0  0  0  0  0  0  0
  184.2310  179.1200  145.7370 N   0  0  0  0  0  2  0  0  0  0  0  0
  185.6820  179.3940  147.5510 O   0  0  0  0  0  0  0  0  0  0  0  0
  187.5860  177.5320  143.8240 C   0  0  0  0  0  0  0  0  0  0  0  0
  187.8280  178.0280  146.0000 N   0  0  0  0  0  0  0  0  0  0  0  0
  186.5820  178.3610  145.6010 C   0  0  0  0  0  0  0  0  0  0  0  0
  183.9310  178.3980  144.4920 C   0  0  0  0  0  2  0  0  0  0  0  0
  188.3180  179.0530  141.4300 O   0  0  0  0  0  0  0  0  0  0  0  0
  187.8090  177.0330  142.4990 N   0  0  0  0  0  2  0  0  0  0  0  0
  188.3190  177.7930  141.4010 C   0  0  0  0  0  0  0  0  0  0  0  0
  188.8270  177.0860  140.1930 C   0  0  0  0  0  2  0  0  0  0  0  0
  191.9720  177.3010  140.2210 O   0  0  0  0  0  0  0  0  0  0  0  0
  191.4130  176.3900  138.1600 N   0  0  0  0  0  2  0  0  0  0  0  0
  191.1340  177.2350  139.2850 C   0  0  0  0  0  0  0  0  0  0  0  0
  187.6500  178.5290  138.0180 O   0  0  0  0  0  0  0  0  0  0  0  0
  189.8210  177.9570  139.4310 C   0  0  1  0  0  3  0  0  0  0  0  0
  189.3480  176.8710  136.9090 C   0  0  0  0  0  2  0  0  0  0  0  0
  190.8310  176.5620  136.8310 C   0  0  0  0  0  2  0  0  0  0  0  0
  189.1550  178.4100  137.8120 S   0  0  1  0  0  0  0  0  0  0  0  0
  188.3960  178.1920  147.3320 C   0  0  0  0  0  2  0  0  0  0  0  0
  188.1300  176.9520  148.1650 C   0  0  0  0  0  1  0  0  0  0  0  0
  189.8090  176.8860  144.9590 C   0  0  0  0  0  2  0  0  0  0  0  0
  190.7190  177.6780  144.2610 O   0  0  0  0  0  1  0  0  0  0  0  0
  1  9  2  0  0  0  0
  2  1  1  0  0  0  0
  2 10  1  0  0  0  0
  3  6  2  0  0  0  0
  4 25  1  0  0  0  0
  4  8  1  0  0  0  0
  5  3  1  0  0  0  0
  7  1  1  0  0  0  0
  7  4  2  0  0  0  0
  8 23  1  0  0  0  0
  9  8  1  0  0  0  0
  9  3  1  0  0  0  0
 10  5  1  0  0  0  0
 12  7  1  0  0  0  0
 13 11  2  0  0  0  0
 13 12  1  0  0  0  0
 14 13  1  0  0  0  0
 16 17  1  0  0  0  0
 17 19  1  0  0  0  0
 17 15  2  0  0  0  0
 19 14  1  6  0  0  0
 20 22  1  0  0  0  0
 21 20  1  0  0  0  0
 21 16  1  0  0  0  0
 22 18  2  1  0  0  0
 22 19  1  0  0  0  0
 23 24  1  0  0  0  0
 26 25  1  0  0  0  0
M  END
>  <MODEL>
2

>  <REMARK>
 VINA RESULT:      -7.8      1.558      2.164
  Name = 
  5 active torsions:
  status: ('A' for Active; 'I' for Inactive)
    1  A    between atoms: C_6  and  N_18
    2  A    between atoms: C_9  and  C_12
    3  A    between atoms: C_10  and  C_24
    4  A    between atoms: C_16  and  N_23
    5  A    between atoms: C_24  and  C_26
                            x       y       z     vdW  Elec       q    Type
                         _______ _______ _______ _____ _____    ______ ____

>  <TORSDO>
F 5

$$$$
=
 OpenBabel11062416593D

 26 28  0  0  1  0  0  0  0  0999 V2000
  187.6500  178.0260  144.1640 C   0  0  0  0  0  0  0  0  0  0  0  0
  186.5990  178.5660  143.2410 C   0  0  0  0  0  2  0  0  0  0  0  0
  186.1010  177.9810  146.0730 C   0  0  0  0  0  0  0  0  0  0  0  0
  189.5380  177.4050  145.1580 C   0  0  0  0  0  0  0  0  0  0  0  0
  185.0340  178.3070  145.1740 N   0  0  0  0  0  2  0  0  0  0  0  0
  185.8930  177.9010  147.3120 O   0  0  0  0  0  0  0  0  0  0  0  0
  188.9930  177.8130  143.9410 C   0  0  0  0  0  0  0  0  0  0  0  0
  188.5710  177.3980  146.1060 N   0  0  0  0  0  0  0  0  0  0  0  0
  187.4330  177.7950  145.4970 C   0  0  0  0  0  0  0  0  0  0  0  0
  185.1980  178.1360  143.7230 C   0  0  0  0  0  2  0  0  0  0  0  0
  190.0320  175.6280  142.2880 O   0  0  0  0  0  0  0  0  0  0  0  0
  189.6370  177.9060  142.6640 N   0  0  0  0  0  2  0  0  0  0  0  0
  189.9830  176.7990  141.8270 C   0  0  0  0  0  0  0  0  0  0  0  0
  190.3210  177.0400  140.3970 C   0  0  0  0  0  2  0  0  0  0  0  0
  187.6200  178.6180  140.0110 O   0  0  0  0  0  0  0  0  0  0  0  0
  188.8210  178.9210  138.0470 N   0  0  0  0  0  2  0  0  0  0  0  0
  188.4490  178.1420  139.1930 C   0  0  0  0  0  0  0  0  0  0  0  0
  190.7210  175.0430  138.3840 O   0  0  0  0  0  0  0  0  0  0  0  0
  189.1030  176.8230  139.5050 C   0  0  1  0  0  3  0  0  0  0  0  0
  190.3840  177.2870  137.0740 C   0  0  0  0  0  2  0  0  0  0  0  0
  189.3510  178.3640  136.8050 C   0  0  0  0  0  2  0  0  0  0  0  0
  189.5770  175.9670  137.9830 S   0  0  1  0  0  0  0  0  0  0  0  0
  188.7340  177.0380  147.5100 C   0  0  0  0  0  2  0  0  0  0  0  0
  189.1350  178.2590  148.3150 C   0  0  0  0  0  1  0  0  0  0  0  0
  190.9200  176.8830  145.3800 C   0  0  0  0  0  2  0  0  0  0  0  0
  191.8430  177.9140  145.2130 O   0  0  0  0  0  1  0  0  0  0  0  0
  1  9  2  0  0  0  0
  2 10  1  0  0  0  0
  2  1  1  0  0  0  0
  3  6  2  0  0  0  0
  4 25  1  0  0  0  0
  4  8  1  0  0  0  0
  5  3  1  0  0  0  0
  7  1  1  0  0  0  0
  7  4  2  0  0  0  0
  8 23  1  0  0  0  0
  9  3  1  0  0  0  0
  9  8  1  0  0  0  0
 10  5  1  0  0  0  0
 12  7  1  0  0  0  0
 13 11  2  0  0  0  0
 13 12  1  0  0  0  0
 14 13  1  0  0  0  0
 16 17  1  0  0  0  0
 17 19  1  0  0  0  0
 17 15  2  0  0  0  0
 19 14  1  1  0  0  0
 20 22  1  0  0  0  0
 21 20  1  0  0  0  0
 21 16  1  0  0  0  0
 22 18  2  1  0  0  0
 22 19  1  0  0  0  0
 23 24  1  0  0  0  0
 26 25  1  0  0  0  0
M  END
>  <MODEL>
3

>  <REMARK>
 VINA RESULT:      -7.7      1.955      2.676
  Name = 
  5 active torsions:
  status: ('A' for Active; 'I' for Inactive)
    1  A    between atoms: C_6  and  N_18
    2  A    between atoms: C_9  and  C_12
    3  A    between atoms: C_10  and  C_24
    4  A    between atoms: C_16  and  N_23
    5  A    between atoms: C_24  and  C_26
                            x       y       z     vdW  Elec       q    Type
                         _______ _______ _______ _____ _____    ______ ____

>  <TORSDO>
F 5

$$$$
=
 OpenBabel11062416593D

 26 28  0  0  1  0  0  0  0  0999 V2000
  189.0130  177.0320  144.2930 C   0  0  0  0  0  0  0  0  0  0  0  0
  190.4620  176.6460  144.2780 C   0  0  0  0  0  2  0  0  0  0  0  0
  188.9690  177.1760  146.7480 C   0  0  0  0  0  0  0  0  0  0  0  0
  186.8730  177.4060  143.8260 C   0  0  0  0  0  0  0  0  0  0  0  0
  190.3910  177.0030  146.7520 N   0  0  0  0  0  2  0  0  0  0  0  0
  188.3270  177.2320  147.8300 O   0  0  0  0  0  0  0  0  0  0  0  0
  188.1090  177.1060  143.2560 C   0  0  0  0  0  0  0  0  0  0  0  0
  187.0030  177.4830  145.1720 N   0  0  0  0  0  0  0  0  0  0  0  0
  188.3020  177.2360  145.4470 C   0  0  0  0  0  0  0  0  0  0  0  0
  191.1740  177.2080  145.5250 C   0  0  0  0  0  2  0  0  0  0  0  0
  188.3940  179.2590  141.2900 O   0  0  0  0  0  0  0  0  0  0  0  0
  188.4450  176.9900  141.8670 N   0  0  0  0  0  2  0  0  0  0  0  0
  188.7270  178.0820  140.9880 C   0  0  0  0  0  0  0  0  0  0  0  0
  189.3930  177.8190  139.6830 C   0  0  0  0  0  2  0  0  0  0  0  0
  186.6370  178.5420  138.3350 O   0  0  0  0  0  0  0  0  0  0  0  0
  188.1930  178.4810  136.6120 N   0  0  0  0  0  2  0  0  0  0  0  0
  187.6960  178.0350  137.8820 C   0  0  0  0  0  0  0  0  0  0  0  0
  190.5550  175.4400  138.5940 O   0  0  0  0  0  0  0  0  0  0  0  0
  188.4630  177.0640  138.7390 C   0  0  1  0  0  3  0  0  0  0  0  0
  190.1770  177.0250  136.5430 C   0  0  0  0  0  2  0  0  0  0  0  0
  189.0760  177.7010  135.7490 C   0  0  0  0  0  2  0  0  0  0  0  0
  189.4030  175.9080  137.7150 S   0  0  1  0  0  0  0  0  0  0  0  0
  185.9430  177.7700  146.1310 C   0  0  0  0  0  2  0  0  0  0  0  0
  185.8780  179.2620  146.4000 C   0  0  0  0  0  1  0  0  0  0  0  0
  185.6220  177.7640  143.0930 C   0  0  0  0  0  2  0  0  0  0  0  0
  185.5840  179.1410  142.8750 O   0  0  0  0  0  1  0  0  0  0  0  0
  1  9  2  0  0  0  0
  2  1  1  0  0  0  0
  2 10  1  0  0  0  0
  3  5  1  0  0  0  0
  3  6  2  0  0  0  0
  4  8  1  0  0  0  0
  7  4  2  0  0  0  0
  7  1  1  0  0  0  0
  8  9  1  0  0  0  0
  8 23  1  0  0  0  0
  9  3  1  0  0  0  0
 10  5  1  0  0  0  0
 12  7  1  0  0  0  0
 13 11  2  0  0  0  0
 13 12  1  0  0  0  0
 14 13  1  0  0  0  0
 16 17  1  0  0  0  0
 17 15  2  0  0  0  0
 17 19  1  0  0  0  0
 19 14  1  1  0  0  0
 20 22  1  0  0  0  0
 21 20  1  0  0  0  0
 21 16  1  0  0  0  0
 22 18  2  1  0  0  0
 22 19  1  0  0  0  0
 23 24  1  0  0  0  0
 25  4  1  0  0  0  0
 26 25  1  0  0  0  0
M  END
>  <MODEL>
4

>  <REMARK>
 VINA RESULT:      -7.6      1.831      3.683
  Name = 
  5 active torsions:
  status: ('A' for Active; 'I' for Inactive)
    1  A    between atoms: C_6  and  N_18
    2  A    between atoms: C_9  and  C_12
    3  A    between atoms: C_10  and  C_24
    4  A    between atoms: C_16  and  N_23
    5  A    between atoms: C_24  and  C_26
                            x       y       z     vdW  Elec       q    Type
                         _______ _______ _______ _____ _____    ______ ____

>  <TORSDO>
F 5

$$$$
=
 OpenBabel11062416593D

 26 28  0  0  1  0  0  0  0  0999 V2000
  186.4350  177.9730  144.0730 C   0  0  0  0  0  0  0  0  0  0  0  0
  185.3520  178.5330  143.1990 C   0  0  0  0  0  2  0  0  0  0  0  0
  185.2220  178.5610  146.1310 C   0  0  0  0  0  0  0  0  0  0  0  0
  188.3290  177.1880  144.9280 C   0  0  0  0  0  0  0  0  0  0  0  0
  184.0940  178.9210  145.3250 N   0  0  0  0  0  2  0  0  0  0  0  0
  185.2040  178.7410  147.3760 O   0  0  0  0  0  0  0  0  0  0  0  0
  187.6720  177.4720  143.7310 C   0  0  0  0  0  0  0  0  0  0  0  0
  187.5370  177.5330  145.9710 N   0  0  0  0  0  0  0  0  0  0  0  0
  186.3980  178.0260  145.4410 C   0  0  0  0  0  0  0  0  0  0  0  0
  183.9950  178.4690  143.9290 C   0  0  0  0  0  2  0  0  0  0  0  0
  188.7220  179.3910  141.7830 O   0  0  0  0  0  0  0  0  0  0  0  0
  188.1100  177.2140  142.3920 N   0  0  0  0  0  2  0  0  0  0  0  0
  188.7620  178.1570  141.5360 C   0  0  0  0  0  0  0  0  0  0  0  0
  189.4690  177.6740  140.3180 C   0  0  0  0  0  2  0  0  0  0  0  0
  186.6130  178.5410  139.3070 O   0  0  0  0  0  0  0  0  0  0  0  0
  188.0420  178.8250  137.4990 N   0  0  0  0  0  2  0  0  0  0  0  0
  187.6450  178.1520  138.7020 C   0  0  0  0  0  0  0  0  0  0  0  0
  190.5890  175.5540  138.7530 O   0  0  0  0  0  0  0  0  0  0  0  0
  188.4860  177.0680  139.3220 C   0  0  1  0  0  3  0  0  0  0  0  0
  190.0390  177.4600  137.0420 C   0  0  0  0  0  2  0  0  0  0  0  0
  188.8730  178.2320  136.4550 C   0  0  0  0  0  2  0  0  0  0  0  0
  189.3690  176.1350  138.0490 S   0  0  1  0  0  0  0  0  0  0  0  0
  187.8620  177.4010  147.3870 C   0  0  0  0  0  2  0  0  0  0  0  0
  188.7080  178.5770  147.8360 C   0  0  0  0  0  1  0  0  0  0  0  0
  189.6250  176.4600  145.0760 C   0  0  0  0  0  2  0  0  0  0  0  0
  190.6850  177.3390  144.8590 O   0  0  0  0  0  1  0  0  0  0  0  0
  1  9  2  0  0  0  0
  2 10  1  0  0  0  0
  2  1  1  0  0  0  0
  3  6  2  0  0  0  0
  4 25  1  0  0  0  0
  4  8  1  0  0  0  0
  5  3  1  0  0  0  0
  7  1  1  0  0  0  0
  7  4  2  0  0  0  0
  8 23  1  0  0  0  0
  9  8  1  0  0  0  0
  9  3  1  0  0  0  0
 10  5  1  0  0  0  0
 12  7  1  0  0  0  0
 13 11  2  0  0  0  0
 13 12  1  0  0  0  0
 14 13  1  0  0  0  0
 16 17  1  0  0  0  0
 17 15  2  0  0  0  0
 17 19  1  0  0  0  0
 19 14  1  1  0  0  0
 20 22  1  0  0  0  0
 21 20  1  0  0  0  0
 21 16  1  0  0  0  0
 22 18  2  1  0  0  0
 22 19  1  0  0  0  0
 23 24  1  0  0  0  0
 26 25  1  0  0  0  0
M  END
>  <MODEL>
5

>  <REMARK>
 VINA RESULT:      -7.4      2.009      2.961
  Name = 
  5 active torsions:
  status: ('A' for Active; 'I' for Inactive)
    1  A    between atoms: C_6  and  N_18
    2  A    between atoms: C_9  and  C_12
    3  A    between atoms: C_10  and  C_24
    4  A    between atoms: C_16  and  N_23
    5  A    between atoms: C_24  and  C_26
                            x       y       z     vdW  Elec       q    Type
                         _______ _______ _______ _____ _____    ______ ____

>  <TORSDO>
F 5

$$$$
=
 OpenBabel11062416593D

 26 28  0  0  1  0  0  0  0  0999 V2000
  187.6900  177.2790  144.0240 C   0  0  0  0  0  0  0  0  0  0  0  0
  188.1950  176.5020  142.8450 C   0  0  0  0  0  2  0  0  0  0  0  0
  189.8420  177.0940  145.2010 C   0  0  0  0  0  0  0  0  0  0  0  0
  186.4680  178.3050  145.5700 C   0  0  0  0  0  0  0  0  0  0  0  0
  190.4050  176.5250  144.0130 N   0  0  0  0  0  2  0  0  0  0  0  0
  190.5230  177.1830  146.2550 O   0  0  0  0  0  0  0  0  0  0  0  0
  186.4220  177.7460  144.2940 C   0  0  0  0  0  0  0  0  0  0  0  0
  187.7130  178.1580  146.0830 N   0  0  0  0  0  0  0  0  0  0  0  0
  188.4420  177.5170  145.1440 C   0  0  0  0  0  0  0  0  0  0  0  0
  189.7240  176.6640  142.7180 C   0  0  0  0  0  2  0  0  0  0  0  0
  185.8570  179.6570  142.1450 O   0  0  0  0  0  0  0  0  0  0  0  0
  185.3290  177.7300  143.3670 N   0  0  0  0  0  2  0  0  0  0  0  0
  185.1850  178.5950  142.2380 C   0  0  0  0  0  0  0  0  0  0  0  0
  184.2020  178.2530  141.1730 C   0  0  0  0  0  2  0  0  0  0  0  0
  186.6150  178.6270  139.1790 O   0  0  0  0  0  0  0  0  0  0  0  0
  184.9430  177.5670  137.9650 N   0  0  0  0  0  2  0  0  0  0  0  0
  185.3810  178.4630  138.9960 C   0  0  0  0  0  0  0  0  0  0  0  0
  181.8020  179.5010  140.2350 O   0  0  0  0  0  0  0  0  0  0  0  0
  184.4120  179.1250  139.9390 C   0  0  1  0  0  3  0  0  0  0  0  0
  182.5260  177.8660  138.3190 C   0  0  0  0  0  2  0  0  0  0  0  0
  183.6370  177.6280  137.3150 C   0  0  0  0  0  2  0  0  0  0  0  0
  182.8340  179.4450  139.1150 S   0  0  1  0  0  0  0  0  0  0  0  0
  188.1680  178.6020  147.3950 C   0  0  0  0  0  2  0  0  0  0  0  0
  187.9300  177.5120  148.4220 C   0  0  0  0  0  1  0  0  0  0  0  0
  185.3890  179.1010  146.2290 C   0  0  0  0  0  2  0  0  0  0  0  0
  184.5650  178.2520  146.9680 O   0  0  0  0  0  1  0  0  0  0  0  0
  1  7  1  0  0  0  0
  1  9  2  0  0  0  0
  2  1  1  0  0  0  0
  3  6  2  0  0  0  0
  4  8  1  0  0  0  0
  4 25  1  0  0  0  0
  5  3  1  0  0  0  0
  7  4  2  0  0  0  0
  8 23  1  0  0  0  0
  9  3  1  0  0  0  0
  9  8  1  0  0  0  0
 10  2  1  0  0  0  0
 10  5  1  0  0  0  0
 11 13  2  0  0  0  0
 12  7  1  0  0  0  0
 13 12  1  0  0  0  0
 14 13  1  0  0  0  0
 16 17  1  0  0  0  0
 17 15  2  0  0  0  0
 17 19  1  0  0  0  0
 19 14  1  1  0  0  0
 20 22  1  0  0  0  0
 21 16  1  0  0  0  0
 21 20  1  0  0  0  0
 22 19  1  0  0  0  0
 22 18  2  1  0  0  0
 23 24  1  0  0  0  0
 25 26  1  0  0  0  0
M  END
>  <MODEL>
6

>  <REMARK>
 VINA RESULT:      -7.4      3.516      4.903
  Name = 
  5 active torsions:
  status: ('A' for Active; 'I' for Inactive)
    1  A    between atoms: C_6  and  N_18
    2  A    between atoms: C_9  and  C_12
    3  A    between atoms: C_10  and  C_24
    4  A    between atoms: C_16  and  N_23
    5  A    between atoms: C_24  and  C_26
                            x       y       z     vdW  Elec       q    Type
                         _______ _______ _______ _____ _____    ______ ____

>  <TORSDO>
F 5

$$$$
=
 OpenBabel11062416593D

 26 28  0  0  1  0  0  0  0  0999 V2000
  188.2310  177.2910  144.3990 C   0  0  0  0  0  0  0  0  0  0  0  0
  189.5640  176.7370  143.9940 C   0  0  0  0  0  2  0  0  0  0  0  0
  188.8290  177.2680  146.7850 C   0  0  0  0  0  0  0  0  0  0  0  0
  186.1110  177.9480  144.5180 C   0  0  0  0  0  0  0  0  0  0  0  0
  190.1690  176.9270  146.4120 N   0  0  0  0  0  2  0  0  0  0  0  0
  188.4950  177.3250  147.9970 O   0  0  0  0  0  0  0  0  0  0  0  0
  187.1120  177.5430  143.6350 C   0  0  0  0  0  0  0  0  0  0  0  0
  186.5870  177.9160  145.7860 N   0  0  0  0  0  0  0  0  0  0  0  0
  187.8680  177.4970  145.7040 C   0  0  0  0  0  0  0  0  0  0  0  0
  190.6370  177.1220  145.0320 C   0  0  0  0  0  2  0  0  0  0  0  0
  188.5300  179.2490  141.7210 O   0  0  0  0  0  0  0  0  0  0  0  0
  187.0670  177.4850  142.2040 N   0  0  0  0  0  2  0  0  0  0  0  0
  187.9000  178.2360  141.3170 C   0  0  0  0  0  0  0  0  0  0  0  0
  187.9960  177.8340  139.8860 C   0  0  0  0  0  2  0  0  0  0  0  0
  190.8960  176.9480  140.7440 O   0  0  0  0  0  0  0  0  0  0  0  0
  190.4750  175.8820  138.7240 N   0  0  0  0  0  2  0  0  0  0  0  0
  190.3160  176.9850  139.6280 C   0  0  0  0  0  0  0  0  0  0  0  0
  187.9540  179.1140  137.3250 O   0  0  0  0  0  0  0  0  0  0  0  0
  189.3850  178.1300  139.3300 C   0  0  1  0  0  3  0  0  0  0  0  0
  189.0700  176.7800  136.9130 C   0  0  0  0  0  2  0  0  0  0  0  0
  190.2970  175.9670  137.2760 C   0  0  0  0  0  2  0  0  0  0  0  0
  189.3020  178.4410  137.5500 S   0  0  1  0  0  0  0  0  0  0  0  0
  185.8520  178.2600  146.9970 C   0  0  0  0  0  2  0  0  0  0  0  0
  186.1000  179.7120  147.3580 C   0  0  0  0  0  1  0  0  0  0  0  0
  184.7750  178.5030  144.1480 C   0  0  0  0  0  2  0  0  0  0  0  0
  184.9340  179.7600  143.5650 O   0  0  0  0  0  1  0  0  0  0  0  0
  1  9  2  0  0  0  0
  2  1  1  0  0  0  0
  2 10  1  0  0  0  0
  3  6  2  0  0  0  0
  4  8  1  0  0  0  0
  5  3  1  0  0  0  0
  7  1  1  0  0  0  0
  7  4  2  0  0  0  0
  8 23  1  0  0  0  0
  9  8  1  0  0  0  0
  9  3  1  0  0  0  0
 10  5  1  0  0  0  0
 12  7  1  0  0  0  0
 13 11  2  0  0  0  0
 13 12  1  0  0  0  0
 14 13  1  0  0  0  0
 16 17  1  0  0  0  0
 17 15  2  0  0  0  0
 19 17  1  0  0  0  0
 19 14  1  6  0  0  0
 20 21  1  0  0  0  0
 20 22  1  0  0  0  0
 21 16  1  0  0  0  0
 22 18  2  1  0  0  0
 22 19  1  0  0  0  0
 23 24  1  0  0  0  0
 25  4  1  0  0  0  0
 26 25  1  0  0  0  0
M  END
>  <MODEL>
7

>  <REMARK>
 VINA RESULT:      -7.3      1.343      3.371
  Name = 
  5 active torsions:
  status: ('A' for Active; 'I' for Inactive)
    1  A    between atoms: C_6  and  N_18
    2  A    between atoms: C_9  and  C_12
    3  A    between atoms: C_10  and  C_24
    4  A    between atoms: C_16  and  N_23
    5  A    between atoms: C_24  and  C_26
                            x       y       z     vdW  Elec       q    Type
                         _______ _______ _______ _____ _____    ______ ____

>  <TORSDO>
F 5

$$$$
=
 OpenBabel11062416593D

 26 28  0  0  1  0  0  0  0  0999 V2000
  186.8130  177.8830  144.9900 C   0  0  0  0  0  0  0  0  0  0  0  0
  185.7170  178.2220  145.9560 C   0  0  0  0  0  2  0  0  0  0  0  0
  188.5360  178.0050  146.7420 C   0  0  0  0  0  0  0  0  0  0  0  0
  188.0790  177.5260  143.1990 C   0  0  0  0  0  0  0  0  0  0  0  0
  187.4920  178.1350  147.7140 N   0  0  0  0  0  2  0  0  0  0  0  0
  189.7440  178.0840  147.0840 O   0  0  0  0  0  0  0  0  0  0  0  0
  186.7650  177.7260  143.6220 C   0  0  0  0  0  0  0  0  0  0  0  0
  188.9110  177.5890  144.2660 N   0  0  0  0  0  0  0  0  0  0  0  0
  188.1350  177.8260  145.3450 C   0  0  0  0  0  0  0  0  0  0  0  0
  186.1060  177.7760  147.3790 C   0  0  0  0  0  2  0  0  0  0  0  0
  185.7490  179.7530  141.7670 O   0  0  0  0  0  0  0  0  0  0  0  0
  185.5630  177.6820  142.8440 N   0  0  0  0  0  2  0  0  0  0  0  0
  185.1920  178.6250  141.8350 C   0  0  0  0  0  0  0  0  0  0  0  0
  184.1090  178.2820  140.8730 C   0  0  0  0  0  2  0  0  0  0  0  0
  186.3730  178.6170  138.7050 O   0  0  0  0  0  0  0  0  0  0  0  0
  184.6310  177.5090  137.6420 N   0  0  0  0  0  2  0  0  0  0  0  0
  185.1310  178.4380  138.6140 C   0  0  0  0  0  0  0  0  0  0  0  0
  181.6370  179.4840  140.0700 O   0  0  0  0  0  0  0  0  0  0  0  0
  184.2240  179.1200  139.6030 C   0  0  1  0  0  3  0  0  0  0  0  0
  182.2410  177.8010  138.1550 C   0  0  0  0  0  2  0  0  0  0  0  0
  183.2820  177.5420  137.0830 C   0  0  0  0  0  2  0  0  0  0  0  0
  182.5890  179.4040  138.8830 S   0  0  1  0  0  0  0  0  0  0  0  0
  190.3610  177.4380  144.2450 C   0  0  0  0  0  2  0  0  0  0  0  0
  191.0180  178.7760  143.9660 C   0  0  0  0  0  1  0  0  0  0  0  0
  188.5180  177.1280  141.8280 C   0  0  0  0  0  2  0  0  0  0  0  0
  188.7140  178.2680  141.0490 O   0  0  0  0  0  1  0  0  0  0  0  0
  1  9  2  0  0  0  0
  1  2  1  0  0  0  0
  2 10  1  0  0  0  0
  3  6  2  0  0  0  0
  3  5  1  0  0  0  0
  4  7  2  0  0  0  0
  4  8  1  0  0  0  0
  7  1  1  0  0  0  0
  8  9  1  0  0  0  0
  9  3  1  0  0  0  0
 10  5  1  0  0  0  0
 11 13  2  0  0  0  0
 12  7  1  0  0  0  0
 13 12  1  0  0  0  0
 14 13  1  0  0  0  0
 16 17  1  0  0  0  0
 17 15  2  0  0  0  0
 17 19  1  0  0  0  0
 19 14  1  1  0  0  0
 20 22  1  0  0  0  0
 21 16  1  0  0  0  0
 21 20  1  0  0  0  0
 22 19  1  0  0  0  0
 22 18  2  1  0  0  0
 23  8  1  0  0  0  0
 24 23  1  0  0  0  0
 25  4  1  0  0  0  0
 26 25  1  0  0  0  0
M  END
>  <MODEL>
8

>  <REMARK>
 VINA RESULT:      -7.0      3.473      4.303
  Name = 
  5 active torsions:
  status: ('A' for Active; 'I' for Inactive)
    1  A    between atoms: C_6  and  N_18
    2  A    between atoms: C_9  and  C_12
    3  A    between atoms: C_10  and  C_24
    4  A    between atoms: C_16  and  N_23
    5  A    between atoms: C_24  and  C_26
                            x       y       z     vdW  Elec       q    Type
                         _______ _______ _______ _____ _____    ______ ____

>  <TORSDO>
F 5

$$$$
=
 OpenBabel11062416593D

 26 28  0  0  1  0  0  0  0  0999 V2000
  186.5770  177.9940  144.8140 C   0  0  0  0  0  0  0  0  0  0  0  0
  185.3830  178.5640  145.5180 C   0  0  0  0  0  2  0  0  0  0  0  0
  187.9240  178.0000  146.8720 C   0  0  0  0  0  0  0  0  0  0  0  0
  188.0950  177.3160  143.3390 C   0  0  0  0  0  0  0  0  0  0  0  0
  186.7450  178.3570  147.6030 N   0  0  0  0  0  2  0  0  0  0  0  0
  189.0400  177.9280  147.4500 O   0  0  0  0  0  0  0  0  0  0  0  0
  186.7730  177.7380  143.4740 C   0  0  0  0  0  0  0  0  0  0  0  0
  188.7030  177.3400  144.5490 N   0  0  0  0  0  0  0  0  0  0  0  0
  187.7790  177.7720  145.4340 C   0  0  0  0  0  0  0  0  0  0  0  0
  185.4110  178.1790  147.0100 C   0  0  0  0  0  2  0  0  0  0  0  0
  185.7240  180.1280  142.1430 O   0  0  0  0  0  0  0  0  0  0  0  0
  185.7530  177.8090  142.4690 N   0  0  0  0  0  2  0  0  0  0  0  0
  185.3890  178.9830  141.7380 C   0  0  0  0  0  0  0  0  0  0  0  0
  184.5740  178.8520  140.4990 C   0  0  0  0  0  2  0  0  0  0  0  0
  182.2430  178.7470  142.6180 O   0  0  0  0  0  0  0  0  0  0  0  0
  181.2410  179.2830  140.5940 N   0  0  0  0  0  2  0  0  0  0  0  0
  182.2570  178.6280  141.3660 C   0  0  0  0  0  0  0  0  0  0  0  0
  184.1640  177.0290  138.3290 O   0  0  0  0  0  0  0  0  0  0  0  0
  183.4030  177.8990  140.7170 C   0  0  1  0  0  3  0  0  0  0  0  0
  182.0200  178.5340  138.3820 C   0  0  0  0  0  2  0  0  0  0  0  0
  180.8270  178.8730  139.2540 C   0  0  0  0  0  2  0  0  0  0  0  0
  182.8870  177.1610  139.1480 S   0  0  1  0  0  0  0  0  0  0  0  0
  190.0870  176.9780  144.8310 C   0  0  0  0  0  2  0  0  0  0  0  0
  190.9990  178.1560  144.5470 C   0  0  0  0  0  1  0  0  0  0  0  0
  188.7230  176.7520  142.1060 C   0  0  0  0  0  2  0  0  0  0  0  0
  189.0010  177.7820  141.2080 O   0  0  0  0  0  1  0  0  0  0  0  0
  1  9  2  0  0  0  0
  1  2  1  0  0  0  0
  2 10  1  0  0  0  0
  3  6  2  0  0  0  0
  3  5  1  0  0  0  0
  4  7  2  0  0  0  0
  4  8  1  0  0  0  0
  7  1  1  0  0  0  0
  8 23  1  0  0  0  0
  8  9  1  0  0  0  0
  9  3  1  0  0  0  0
 10  5  1  0  0  0  0
 12  7  1  0  0  0  0
 13 11  2  0  0  0  0
 13 12  1  0  0  0  0
 14 13  1  0  0  0  0
 16 17  1  0  0  0  0
 17 15  2  0  0  0  0
 19 14  1  6  0  0  0
 19 17  1  0  0  0  0
 20 22  1  0  0  0  0
 20 21  1  0  0  0  0
 21 16  1  0  0  0  0
 22 18  2  6  0  0  0
 22 19  1  0  0  0  0
 24 23  1  0  0  0  0
 25  4  1  0  0  0  0
 26 25  1  0  0  0  0
M  END
>  <MODEL>
9

>  <REMARK>
 VINA RESULT:      -6.9      3.934      5.124
  Name = 
  5 active torsions:
  status: ('A' for Active; 'I' for Inactive)
    1  A    between atoms: C_6  and  N_18
    2  A    between atoms: C_9  and  C_12
    3  A    between atoms: C_10  and  C_24
    4  A    between atoms: C_16  and  N_23
    5  A    between atoms: C_24  and  C_26
                            x       y       z     vdW  Elec       q    Type
                         _______ _______ _______ _____ _____    ______ ____

>  <TORSDO>
F 5

$$$$
