=
 OpenBabel11062414383D

 38 44  0  0  1  0  0  0  0  0999 V2000
  187.9340  176.6210  138.1080 C   0  0  2  0  0  3  0  0  0  0  0  0
  186.2300  177.9370  135.5120 C   0  0  2  0  0  3  0  0  0  0  0  0
  186.5690  176.8090  134.6400 O   0  0  0  0  0  0  0  0  0  0  0  0
  186.5170  178.3700  137.9670 N   0  0  0  0  0  0  0  0  0  0  0  0
  187.6130  177.9370  138.2910 C   0  0  0  0  0  0  0  0  0  0  0  0
  184.4090  177.6540  137.2170 C   0  0  2  0  0  3  0  0  0  0  0  0
  187.6310  177.3940  135.3800 C   0  0  2  0  0  3  0  0  0  0  0  0
  185.7280  177.7700  136.9120 C   0  0  1  0  0  3  0  0  0  0  0  0
  189.2070  176.5220  139.0310 C   0  0  0  0  0  2  0  0  0  0  0  0
  189.2770  177.8960  139.8920 C   0  0  1  0  0  3  0  0  0  0  0  0
  188.1260  176.3570  136.5000 C   0  0  0  0  0  2  0  0  0  0  0  0
  183.5330  177.4340  136.1590 O   0  0  0  0  0  1  0  0  0  0  0  0
  188.4130  178.7370  139.1270 N   0  0  0  0  0  2  0  0  0  0  0  0
  183.4260  176.3110  139.0620 C   0  0  0  0  0  2  0  0  0  0  0  0
  181.1920  177.1210  140.2900 C   0  0  1  0  0  3  0  0  0  0  0  0
  180.5260  179.3580  139.6880 O   0  0  0  0  0  0  0  0  0  0  0  0
  183.7180  177.7580  138.5980 C   0  0  1  0  0  0  0  0  0  0  0  0
  181.9120  176.0110  139.4370 C   0  0  0  0  0  2  0  0  0  0  0  0
  184.6790  178.2830  139.6600 C   0  0  0  0  0  1  0  0  0  0  0  0
  181.1460  180.4700  139.0740 C   0  0  0  0  0  2  0  0  0  0  0  0
  182.3430  178.5110  138.5850 C   0  0  1  0  0  3  0  0  0  0  0  0
  181.6370  178.5200  139.9140 C   0  0  2  0  0  3  0  0  0  0  0  0
  179.7020  176.8350  140.3680 C   0  0  0  0  0  1  0  0  0  0  0  0
  182.3760  179.9660  138.3040 C   0  0  0  0  0  2  0  0  0  0  0  0
  188.7980  178.0540  141.3140 C   0  0  0  0  0  2  0  0  0  0  0  0
  189.7720  178.3360  142.4810 C   0  0  2  0  0  3  0  0  0  0  0  0
  189.3000  176.1780  143.3900 C   0  0  0  0  0  2  0  0  0  0  0  0
  190.5130  175.9840  142.4400 C   0  0  0  0  0  2  0  0  0  0  0  0
  190.9140  177.4590  142.0720 C   0  0  0  0  0  2  0  0  0  0  0  0
  189.1010  177.6630  143.6780 C   0  0  1  0  0  0  0  0  0  0  0  0
  191.1020  177.1660  145.3710 C   0  0  0  0  0  2  0  0  0  0  0  0
  188.5300  177.1650  147.1270 C   0  0  0  0  0  2  0  0  0  0  0  0
  188.8090  178.2820  146.1470 C   0  0  0  0  0  2  0  0  0  0  0  0
  191.1640  176.8700  146.8670 C   0  0  0  0  0  2  0  0  0  0  0  0
  189.8270  177.9750  145.0430 C   0  0  0  0  0  3  0  0  0  0  0  0
  189.8020  176.3270  147.4020 C   0  0  0  0  0  2  0  0  0  0  0  0
  186.6990  177.1310  143.7950 C   0  0  0  0  0  1  0  0  0  0  0  0
  187.6780  178.0810  143.8220 O   0  0  0  0  0  0  0  0  0  0  0  0
  1 11  1  6  0  0  0
  1  5  1  0  0  0  0
  1  9  1  0  0  0  0
  2  3  1  6  0  0  0
  2  8  1  0  0  0  0
  3  7  1  0  0  0  0
  4  5  2  0  0  0  0
  5 13  1  0  0  0  0
  6 12  1  6  0  0  0
  6 17  1  0  0  0  0
  7  2  1  0  0  0  0
  7 11  1  1  0  0  0
  8  6  1  6  0  0  0
  8  4  1  0  0  0  0
  9 10  1  0  0  0  0
 10 25  1  1  0  0  0
 13 10  1  0  0  0  0
 14 18  1  0  0  0  0
 15 23  1  6  0  0  0
 17 14  1  0  0  0  0
 17 19  1  1  0  0  0
 18 15  1  0  0  0  0
 20 16  1  0  0  0  0
 21 24  1  1  0  0  0
 21 17  1  0  0  0  0
 21 22  1  0  0  0  0
 22 16  1  6  0  0  0
 22 15  1  0  0  0  0
 24 20  1  0  0  0  0
 26 25  1  6  0  0  0
 26 30  1  0  0  0  0
 27 30  1  0  0  0  0
 28 27  1  0  0  0  0
 29 28  1  0  0  0  0
 29 26  1  0  0  0  0
 30 38  1  1  0  0  0
 30 35  1  0  0  0  0
 31 34  1  0  0  0  0
 32 36  1  0  0  0  0
 33 32  1  0  0  0  0
 34 36  1  0  0  0  0
 35 31  1  0  0  0  0
 35 33  1  0  0  0  0
 37 38  1  0  0  0  0
M  END
>  <MODEL>
1

>  <REMARK>
 VINA RESULT:      -8.6      0.000      0.000
  Name = 
  5 active torsions:
  status: ('A' for Active; 'I' for Inactive)
    1  A    between atoms: C_1  and  C_27
    2  A    between atoms: C_11  and  C_21
    3  A    between atoms: C_27  and  C_30
    4  A    between atoms: C_32  and  C_34
    5  A    between atoms: C_34  and  O_38
                            x       y       z     vdW  Elec       q    Type
                         _______ _______ _______ _____ _____    ______ ____

>  <TORSDO>
F 5

$$$$
=
 OpenBabel11062414383D

 38 44  0  0  1  0  0  0  0  0999 V2000
  183.2960  177.2160  139.9110 C   0  0  2  0  0  3  0  0  0  0  0  0
  181.2310  178.8870  141.9870 C   0  0  2  0  0  3  0  0  0  0  0  0
  180.3120  177.7510  142.0860 O   0  0  0  0  0  0  0  0  0  0  0  0
  183.5180  179.1800  140.9960 N   0  0  0  0  0  0  0  0  0  0  0  0
  183.5440  178.5590  139.9430 C   0  0  0  0  0  0  0  0  0  0  0  0
  183.3610  178.8520  143.3170 C   0  0  2  0  0  3  0  0  0  0  0  0
  180.7380  178.1240  140.7840 C   0  0  2  0  0  3  0  0  0  0  0  0
  182.7160  178.7570  142.1250 C   0  0  1  0  0  3  0  0  0  0  0  0
  183.8500  176.8730  138.4760 C   0  0  0  0  0  2  0  0  0  0  0  0
  184.6480  178.1840  137.9490 C   0  0  1  0  0  3  0  0  0  0  0  0
  181.6970  176.9800  140.1960 C   0  0  0  0  0  2  0  0  0  0  0  0
  182.5740  178.8190  144.4640 O   0  0  0  0  0  1  0  0  0  0  0  0
  184.1300  179.1840  138.8280 N   0  0  0  0  0  2  0  0  0  0  0  0
  185.6110  178.6430  142.2850 C   0  0  0  0  0  2  0  0  0  0  0  0
  187.6630  177.6560  143.6890 C   0  0  1  0  0  3  0  0  0  0  0  0
  187.1760  177.3850  146.0350 O   0  0  0  0  0  0  0  0  0  0  0  0
  184.8730  179.0210  143.5920 C   0  0  1  0  0  0  0  0  0  0  0  0
  186.7230  177.5190  142.4330 C   0  0  0  0  0  2  0  0  0  0  0  0
  185.2390  180.4890  143.7930 C   0  0  0  0  0  1  0  0  0  0  0  0
  186.1930  177.8680  146.9280 C   0  0  0  0  0  2  0  0  0  0  0  0
  185.4430  178.0860  144.7150 C   0  0  1  0  0  3  0  0  0  0  0  0
  186.9320  178.1920  144.9040 C   0  0  2  0  0  3  0  0  0  0  0  0
  188.5050  176.4020  143.8500 C   0  0  0  0  0  1  0  0  0  0  0  0
  184.9910  178.3480  146.1010 C   0  0  0  0  0  2  0  0  0  0  0  0
  186.1440  178.3700  138.0040 C   0  0  0  0  0  2  0  0  0  0  0  0
  187.1220  177.1770  137.9050 C   0  0  2  0  0  3  0  0  0  0  0  0
  188.7510  178.6020  136.8940 C   0  0  0  0  0  2  0  0  0  0  0  0
  189.0120  178.6750  138.4240 C   0  0  0  0  0  2  0  0  0  0  0  0
  188.0790  177.5470  138.9960 C   0  0  0  0  0  2  0  0  0  0  0  0
  187.8450  177.4150  136.5800 C   0  0  1  0  0  0  0  0  0  0  0  0
  188.5650  174.8650  136.8880 C   0  0  0  0  0  2  0  0  0  0  0  0
  191.2300  176.4760  136.9430 C   0  0  0  0  0  2  0  0  0  0  0  0
  190.1990  176.7030  135.8610 C   0  0  0  0  0  2  0  0  0  0  0  0
  189.9060  174.1710  137.1090 C   0  0  0  0  0  2  0  0  0  0  0  0
  188.7790  176.2140  136.1650 C   0  0  0  0  0  3  0  0  0  0  0  0
  190.9700  175.1500  137.6970 C   0  0  0  0  0  2  0  0  0  0  0  0
  186.4590  176.5830  134.7220 C   0  0  0  0  0  1  0  0  0  0  0  0
  186.8890  177.6460  135.4610 O   0  0  0  0  0  0  0  0  0  0  0  0
  1  9  1  6  0  0  0
  1  5  1  0  0  0  0
  1 11  1  0  0  0  0
  2  3  1  1  0  0  0
  2  8  1  0  0  0  0
  4  8  1  0  0  0  0
  5  4  2  0  0  0  0
  6 17  1  0  0  0  0
  6 12  1  6  0  0  0
  7 11  1  1  0  0  0
  7  2  1  0  0  0  0
  7  3  1  0  0  0  0
  8  6  1  1  0  0  0
 10 25  1  1  0  0  0
 10  9  1  0  0  0  0
 10 13  1  0  0  0  0
 13  5  1  0  0  0  0
 14 18  1  0  0  0  0
 14 17  1  0  0  0  0
 15 23  1  1  0  0  0
 15 22  1  0  0  0  0
 16 20  1  0  0  0  0
 17 19  1  1  0  0  0
 17 21  1  0  0  0  0
 18 15  1  0  0  0  0
 21 22  1  0  0  0  0
 21 24  1  1  0  0  0
 22 16  1  1  0  0  0
 24 20  1  0  0  0  0
 26 25  1  6  0  0  0
 26 29  1  0  0  0  0
 27 28  1  0  0  0  0
 28 29  1  0  0  0  0
 30 38  1  6  0  0  0
 30 27  1  0  0  0  0
 30 26  1  0  0  0  0
 31 34  1  0  0  0  0
 32 36  1  0  0  0  0
 33 35  1  0  0  0  0
 33 32  1  0  0  0  0
 34 36  1  0  0  0  0
 35 30  1  0  0  0  0
 35 31  1  0  0  0  0
 37 38  1  0  0  0  0
M  END
>  <MODEL>
2

>  <REMARK>
 VINA RESULT:      -8.5      2.274      7.464
  Name = 
  5 active torsions:
  status: ('A' for Active; 'I' for Inactive)
    1  A    between atoms: C_1  and  C_27
    2  A    between atoms: C_11  and  C_21
    3  A    between atoms: C_27  and  C_30
    4  A    between atoms: C_32  and  C_34
    5  A    between atoms: C_34  and  O_38
                            x       y       z     vdW  Elec       q    Type
                         _______ _______ _______ _____ _____    ______ ____

>  <TORSDO>
F 5

$$$$
=
 OpenBabel11062414383D

 38 44  0  0  1  0  0  0  0  0999 V2000
  184.2060  177.9200  141.3740 C   0  0  2  0  0  3  0  0  0  0  0  0
  184.8370  179.4580  144.3080 C   0  0  2  0  0  3  0  0  0  0  0  0
  183.7500  178.7470  144.9840 O   0  0  0  0  0  0  0  0  0  0  0  0
  185.9120  179.2300  142.0510 N   0  0  0  0  0  0  0  0  0  0  0  0
  185.0230  179.0070  141.2420 C   0  0  0  0  0  0  0  0  0  0  0  0
  187.0040  178.2600  143.8910 C   0  0  2  0  0  3  0  0  0  0  0  0
  183.4500  179.3390  143.7290 C   0  0  2  0  0  3  0  0  0  0  0  0
  185.8380  178.7800  143.4250 C   0  0  1  0  0  3  0  0  0  0  0  0
  183.5750  177.8780  139.9310 C   0  0  0  0  0  2  0  0  0  0  0  0
  184.4150  178.9220  139.0150 C   0  0  1  0  0  3  0  0  0  0  0  0
  183.2020  178.1810  142.6460 C   0  0  0  0  0  2  0  0  0  0  0  0
  187.1360  178.1430  145.2710 O   0  0  0  0  0  1  0  0  0  0  0  0
  185.0570  179.7060  140.0220 N   0  0  0  0  0  2  0  0  0  0  0  0
  188.0950  176.2670  142.8880 C   0  0  0  0  0  2  0  0  0  0  0  0
  190.7470  175.9500  143.0360 C   0  0  1  0  0  3  0  0  0  0  0  0
  191.8990  177.9010  143.8590 O   0  0  0  0  0  0  0  0  0  0  0  0
  188.2460  177.7930  143.0960 C   0  0  1  0  0  0  0  0  0  0  0  0
  189.3200  175.3880  143.3890 C   0  0  0  0  0  2  0  0  0  0  0  0
  188.2340  178.3460  141.6740 C   0  0  0  0  0  1  0  0  0  0  0  0
  191.5860  179.2700  144.0240 C   0  0  0  0  0  2  0  0  0  0  0  0
  189.6140  178.0110  143.8300 C   0  0  1  0  0  3  0  0  0  0  0  0
  190.8030  177.4640  143.0880 C   0  0  2  0  0  3  0  0  0  0  0  0
  191.8160  175.1640  143.7750 C   0  0  0  0  0  1  0  0  0  0  0  0
  190.0570  179.4120  144.0220 C   0  0  0  0  0  2  0  0  0  0  0  0
  185.5250  178.5440  138.0650 C   0  0  0  0  0  2  0  0  0  0  0  0
  186.0040  177.0830  137.9040 C   0  0  2  0  0  3  0  0  0  0  0  0
  186.8410  177.6040  135.7280 C   0  0  0  0  0  2  0  0  0  0  0  0
  188.0150  177.8680  136.7100 C   0  0  0  0  0  2  0  0  0  0  0  0
  187.4790  177.2850  138.0680 C   0  0  0  0  0  2  0  0  0  0  0  0
  185.7580  176.7860  136.4250 C   0  0  1  0  0  0  0  0  0  0  0  0
  185.8720  174.2320  137.1880 C   0  0  0  0  0  2  0  0  0  0  0  0
  188.4720  174.7080  135.5410 C   0  0  0  0  0  2  0  0  0  0  0  0
  187.1220  175.1390  135.0160 C   0  0  0  0  0  2  0  0  0  0  0  0
  186.9070  173.1270  137.0050 C   0  0  0  0  0  2  0  0  0  0  0  0
  186.0030  175.2740  136.0530 C   0  0  0  0  0  3  0  0  0  0  0  0
  188.3260  173.7100  136.7150 C   0  0  0  0  0  2  0  0  0  0  0  0
  184.0430  177.1380  134.6920 C   0  0  0  0  0  1  0  0  0  0  0  0
  184.3660  177.1280  136.0170 O   0  0  0  0  0  0  0  0  0  0  0  0
  1  9  1  6  0  0  0
  1 11  1  0  0  0  0
  2  3  1  1  0  0  0
  4  8  1  0  0  0  0
  5  1  1  0  0  0  0
  5  4  2  0  0  0  0
  6 12  1  1  0  0  0
  7 11  1  6  0  0  0
  7  2  1  0  0  0  0
  7  3  1  0  0  0  0
  8  6  1  1  0  0  0
  8  2  1  0  0  0  0
 10 25  1  6  0  0  0
 10  9  1  0  0  0  0
 10 13  1  0  0  0  0
 13  5  1  0  0  0  0
 14 17  1  0  0  0  0
 14 18  1  0  0  0  0
 15 22  1  0  0  0  0
 15 18  1  0  0  0  0
 15 23  1  1  0  0  0
 16 20  1  0  0  0  0
 17 19  1  6  0  0  0
 17 21  1  0  0  0  0
 17  6  1  0  0  0  0
 21 24  1  6  0  0  0
 22 21  1  0  0  0  0
 22 16  1  1  0  0  0
 24 20  1  0  0  0  0
 26 25  1  6  0  0  0
 26 29  1  0  0  0  0
 27 30  1  0  0  0  0
 27 28  1  0  0  0  0
 28 29  1  0  0  0  0
 30 38  1  6  0  0  0
 30 26  1  0  0  0  0
 32 36  1  0  0  0  0
 33 32  1  0  0  0  0
 33 35  1  0  0  0  0
 34 31  1  0  0  0  0
 35 30  1  0  0  0  0
 35 31  1  0  0  0  0
 36 34  1  0  0  0  0
 37 38  1  0  0  0  0
M  END
>  <MODEL>
3

>  <REMARK>
 VINA RESULT:      -8.3      2.320      8.611
  Name = 
  5 active torsions:
  status: ('A' for Active; 'I' for Inactive)
    1  A    between atoms: C_1  and  C_27
    2  A    between atoms: C_11  and  C_21
    3  A    between atoms: C_27  and  C_30
    4  A    between atoms: C_32  and  C_34
    5  A    between atoms: C_34  and  O_38
                            x       y       z     vdW  Elec       q    Type
                         _______ _______ _______ _____ _____    ______ ____

>  <TORSDO>
F 5

$$$$
=
 OpenBabel11062414383D

 38 44  0  0  1  0  0  0  0  0999 V2000
  184.4500  177.7520  141.0890 C   0  0  2  0  0  3  0  0  0  0  0  0
  184.8820  179.4330  143.9800 C   0  0  2  0  0  3  0  0  0  0  0  0
  183.7960  178.7030  144.6370 O   0  0  0  0  0  0  0  0  0  0  0  0
  186.0680  179.1620  141.7850 N   0  0  0  0  0  0  0  0  0  0  0  0
  185.2270  178.8680  140.9470 C   0  0  0  0  0  0  0  0  0  0  0  0
  187.1140  178.3150  143.7100 C   0  0  2  0  0  3  0  0  0  0  0  0
  183.5290  179.2300  143.3460 C   0  0  2  0  0  3  0  0  0  0  0  0
  185.9500  178.7650  143.1720 C   0  0  1  0  0  3  0  0  0  0  0  0
  183.8890  177.6260  139.6220 C   0  0  0  0  0  2  0  0  0  0  0  0
  184.7260  178.6670  138.7010 C   0  0  1  0  0  3  0  0  0  0  0  0
  183.3800  178.0200  142.3030 C   0  0  0  0  0  2  0  0  0  0  0  0
  187.1880  178.2590  145.0980 O   0  0  0  0  0  1  0  0  0  0  0  0
  185.2870  179.5180  139.7020 N   0  0  0  0  0  2  0  0  0  0  0  0
  188.2620  176.3590  142.6980 C   0  0  0  0  0  2  0  0  0  0  0  0
  190.8920  176.0030  143.0330 C   0  0  1  0  0  3  0  0  0  0  0  0
  191.9940  177.8990  144.0360 O   0  0  0  0  0  0  0  0  0  0  0  0
  188.4100  177.8710  142.9900 C   0  0  1  0  0  0  0  0  0  0  0  0
  189.4370  175.4420  143.2480 C   0  0  0  0  0  2  0  0  0  0  0  0
  188.5120  178.4910  141.6000 C   0  0  0  0  0  1  0  0  0  0  0  0
  191.6810  179.2620  144.2420 C   0  0  0  0  0  2  0  0  0  0  0  0
  189.7190  178.0380  143.8370 C   0  0  1  0  0  3  0  0  0  0  0  0
  190.9560  177.5120  143.1620 C   0  0  2  0  0  3  0  0  0  0  0  0
  191.8940  175.1700  143.8130 C   0  0  0  0  0  1  0  0  0  0  0  0
  190.1570  179.4230  144.1300 C   0  0  0  0  0  2  0  0  0  0  0  0
  185.8930  178.3000  137.8180 C   0  0  0  0  0  2  0  0  0  0  0  0
  187.2610  177.8790  138.4000 C   0  0  2  0  0  3  0  0  0  0  0  0
  187.9750  177.2070  136.2220 C   0  0  0  0  0  2  0  0  0  0  0  0
  188.3870  178.6980  136.3640 C   0  0  0  0  0  2  0  0  0  0  0  0
  188.1090  178.9990  137.8810 C   0  0  0  0  0  2  0  0  0  0  0  0
  187.6260  176.6340  137.5920 C   0  0  1  0  0  0  0  0  0  0  0  0
  189.7010  176.6030  139.2690 C   0  0  0  0  0  2  0  0  0  0  0  0
  190.8990  175.9140  136.4780 C   0  0  0  0  0  2  0  0  0  0  0  0
  189.6690  175.2060  136.9990 C   0  0  0  0  0  2  0  0  0  0  0  0
  191.1990  176.3770  139.0830 C   0  0  0  0  0  2  0  0  0  0  0  0
  188.9160  175.9060  138.1350 C   0  0  0  0  0  3  0  0  0  0  0  0
  191.6440  176.6560  137.6130 C   0  0  0  0  0  2  0  0  0  0  0  0
  186.2030  175.0030  136.4160 C   0  0  0  0  0  1  0  0  0  0  0  0
  186.5190  175.6370  137.5820 O   0  0  0  0  0  0  0  0  0  0  0  0
  1  9  1  6  0  0  0
  1 11  1  0  0  0  0
  2  3  1  1  0  0  0
  4  8  1  0  0  0  0
  5  1  1  0  0  0  0
  5  4  2  0  0  0  0
  6 12  1  1  0  0  0
  7 11  1  6  0  0  0
  7  2  1  0  0  0  0
  7  3  1  0  0  0  0
  8  6  1  1  0  0  0
  8  2  1  0  0  0  0
 10 25  1  1  0  0  0
 10  9  1  0  0  0  0
 10 13  1  0  0  0  0
 13  5  1  0  0  0  0
 14 17  1  0  0  0  0
 14 18  1  0  0  0  0
 15 22  1  0  0  0  0
 15 18  1  0  0  0  0
 15 23  1  1  0  0  0
 16 20  1  0  0  0  0
 17 19  1  6  0  0  0
 17  6  1  0  0  0  0
 17 21  1  0  0  0  0
 21 24  1  6  0  0  0
 22 21  1  0  0  0  0
 22 16  1  1  0  0  0
 24 20  1  0  0  0  0
 26 25  1  6  0  0  0
 27 28  1  0  0  0  0
 27 30  1  0  0  0  0
 28 29  1  0  0  0  0
 29 26  1  0  0  0  0
 30 38  1  6  0  0  0
 30 35  1  0  0  0  0
 30 26  1  0  0  0  0
 32 33  1  0  0  0  0
 32 36  1  0  0  0  0
 33 35  1  0  0  0  0
 34 31  1  0  0  0  0
 35 31  1  0  0  0  0
 36 34  1  0  0  0  0
 37 38  1  0  0  0  0
M  END
>  <MODEL>
4

>  <REMARK>
 VINA RESULT:      -7.9      2.422      7.975
  Name = 
  5 active torsions:
  status: ('A' for Active; 'I' for Inactive)
    1  A    between atoms: C_1  and  C_27
    2  A    between atoms: C_11  and  C_21
    3  A    between atoms: C_27  and  C_30
    4  A    between atoms: C_32  and  C_34
    5  A    between atoms: C_34  and  O_38
                            x       y       z     vdW  Elec       q    Type
                         _______ _______ _______ _____ _____    ______ ____

>  <TORSDO>
F 5

$$$$
=
 OpenBabel11062414383D

 38 44  0  0  1  0  0  0  0  0999 V2000
  182.7150  178.8380  138.3230 C   0  0  2  0  0  3  0  0  0  0  0  0
  182.2950  176.4280  136.0030 C   0  0  2  0  0  3  0  0  0  0  0  0
  181.4450  177.2880  135.1750 O   0  0  0  0  0  0  0  0  0  0  0  0
  183.7120  176.8360  138.0330 N   0  0  0  0  0  0  0  0  0  0  0  0
  183.0980  177.6020  138.7620 C   0  0  0  0  0  0  0  0  0  0  0  0
  184.7840  176.7540  135.9450 C   0  0  2  0  0  3  0  0  0  0  0  0
  181.1500  177.2320  136.5630 C   0  0  2  0  0  3  0  0  0  0  0  0
  183.5950  176.8790  136.5910 C   0  0  1  0  0  3  0  0  0  0  0  0
  182.3710  179.5190  139.7010 C   0  0  0  0  0  2  0  0  0  0  0  0
  182.9100  178.5300  140.8690 C   0  0  1  0  0  3  0  0  0  0  0  0
  181.5030  178.6460  137.2340 C   0  0  0  0  0  2  0  0  0  0  0  0
  184.7360  176.4230  134.5940 O   0  0  0  0  0  1  0  0  0  0  0  0
  183.0650  177.3120  140.1380 N   0  0  0  0  0  2  0  0  0  0  0  0
  186.8780  178.0740  135.7440 C   0  0  0  0  0  2  0  0  0  0  0  0
  189.2630  176.8720  135.8950 C   0  0  1  0  0  3  0  0  0  0  0  0
  189.1310  174.5690  136.5960 O   0  0  0  0  0  0  0  0  0  0  0  0
  186.2170  176.9020  136.5080 C   0  0  1  0  0  0  0  0  0  0  0  0
  188.2600  177.7330  135.0400 C   0  0  0  0  0  2  0  0  0  0  0  0
  186.1960  177.3890  137.9530 C   0  0  0  0  0  1  0  0  0  0  0  0
  188.1600  173.7540  137.2220 C   0  0  0  0  0  2  0  0  0  0  0  0
  187.1380  175.6510  136.2930 C   0  0  1  0  0  3  0  0  0  0  0  0
  188.5550  175.8460  136.7580 C   0  0  2  0  0  3  0  0  0  0  0  0
  190.4230  176.4090  135.0310 C   0  0  0  0  0  1  0  0  0  0  0  0
  186.7890  174.4240  137.0450 C   0  0  0  0  0  2  0  0  0  0  0  0
  184.2130  178.6940  141.6120 C   0  0  0  0  0  2  0  0  0  0  0  0
  184.5400  177.8790  142.8840 C   0  0  2  0  0  3  0  0  0  0  0  0
  185.9590  179.6440  143.6430 C   0  0  0  0  0  2  0  0  0  0  0  0
  184.5500  179.9550  144.2180 C   0  0  0  0  0  2  0  0  0  0  0  0
  183.7380  178.6500  143.8870 C   0  0  0  0  0  2  0  0  0  0  0  0
  186.0100  178.2010  143.1490 C   0  0  1  0  0  0  0  0  0  0  0  0
  186.8080  178.0090  145.6870 C   0  0  0  0  0  2  0  0  0  0  0  0
  189.1450  176.8210  144.0070 C   0  0  0  0  0  2  0  0  0  0  0  0
  187.7140  176.3930  143.7710 C   0  0  0  0  0  2  0  0  0  0  0  0
  188.0890  177.5150  146.3510 C   0  0  0  0  0  2  0  0  0  0  0  0
  186.6300  177.3320  144.3090 C   0  0  0  0  0  3  0  0  0  0  0  0
  189.2980  177.5490  145.3640 C   0  0  0  0  0  2  0  0  0  0  0  0
  187.6480  179.0060  141.4940 C   0  0  0  0  0  1  0  0  0  0  0  0
  186.8490  177.9920  141.9350 O   0  0  0  0  0  0  0  0  0  0  0  0
  1 11  1  6  0  0  0
  1  5  1  0  0  0  0
  1  9  1  0  0  0  0
  2  3  1  6  0  0  0
  2  7  1  0  0  0  0
  2  8  1  0  0  0  0
  3  7  1  0  0  0  0
  4  5  2  0  0  0  0
  5 13  1  0  0  0  0
  6 12  1  1  0  0  0
  6 17  1  0  0  0  0
  7 11  1  1  0  0  0
  8  6  1  6  0  0  0
  8  4  1  0  0  0  0
  9 10  1  0  0  0  0
 10 25  1  6  0  0  0
 13 10  1  0  0  0  0
 14 17  1  0  0  0  0
 15 23  1  6  0  0  0
 15 22  1  0  0  0  0
 16 20  1  0  0  0  0
 17 19  1  1  0  0  0
 18 14  1  0  0  0  0
 18 15  1  0  0  0  0
 21 17  1  0  0  0  0
 21 22  1  0  0  0  0
 21 24  1  1  0  0  0
 22 16  1  6  0  0  0
 24 20  1  0  0  0  0
 26 25  1  6  0  0  0
 26 30  1  0  0  0  0
 26 29  1  0  0  0  0
 27 28  1  0  0  0  0
 29 28  1  0  0  0  0
 30 38  1  6  0  0  0
 30 27  1  0  0  0  0
 30 35  1  0  0  0  0
 31 34  1  0  0  0  0
 32 36  1  0  0  0  0
 33 32  1  0  0  0  0
 33 35  1  0  0  0  0
 35 31  1  0  0  0  0
 36 34  1  0  0  0  0
 37 38  1  0  0  0  0
M  END
>  <MODEL>
5

>  <REMARK>
 VINA RESULT:      -7.8      2.127      5.871
  Name = 
  5 active torsions:
  status: ('A' for Active; 'I' for Inactive)
    1  A    between atoms: C_1  and  C_27
    2  A    between atoms: C_11  and  C_21
    3  A    between atoms: C_27  and  C_30
    4  A    between atoms: C_32  and  C_34
    5  A    between atoms: C_34  and  O_38
                            x       y       z     vdW  Elec       q    Type
                         _______ _______ _______ _____ _____    ______ ____

>  <TORSDO>
F 5

$$$$
=
 OpenBabel11062414383D

 38 44  0  0  1  0  0  0  0  0999 V2000
  187.4400  177.1340  142.2410 C   0  0  2  0  0  3  0  0  0  0  0  0
  190.7590  177.5050  141.7760 C   0  0  2  0  0  3  0  0  0  0  0  0
  191.0670  176.3350  142.6020 O   0  0  0  0  0  0  0  0  0  0  0  0
  188.6280  178.4590  140.8560 N   0  0  0  0  0  0  0  0  0  0  0  0
  187.7740  178.3540  141.7240 C   0  0  0  0  0  0  0  0  0  0  0  0
  189.9570  177.1570  139.4220 C   0  0  2  0  0  3  0  0  0  0  0  0
  190.1450  177.2750  143.1330 C   0  0  2  0  0  3  0  0  0  0  0  0
  189.7070  177.5040  140.7120 C   0  0  1  0  0  3  0  0  0  0  0  0
  186.0840  177.5030  142.9520 C   0  0  0  0  0  2  0  0  0  0  0  0
  185.6830  178.9970  142.4640 C   0  0  1  0  0  3  0  0  0  0  0  0
  188.6840  176.6120  143.1760 C   0  0  0  0  0  2  0  0  0  0  0  0
  191.1800  176.5460  139.1590 O   0  0  0  0  0  1  0  0  0  0  0  0
  186.9350  179.4590  141.9560 N   0  0  0  0  0  2  0  0  0  0  0  0
  187.6130  177.1020  138.6020 C   0  0  0  0  0  2  0  0  0  0  0  0
  187.0430  176.1130  136.1820 C   0  0  1  0  0  3  0  0  0  0  0  0
  188.9980  175.6810  134.8400 O   0  0  0  0  0  0  0  0  0  0  0  0
  189.0750  177.3700  138.1690 C   0  0  1  0  0  0  0  0  0  0  0  0
  186.8380  176.0160  137.7400 C   0  0  0  0  0  2  0  0  0  0  0  0
  189.0550  178.8350  137.7480 C   0  0  0  0  0  1  0  0  0  0  0  0
  190.3570  176.0690  134.8740 C   0  0  0  0  0  2  0  0  0  0  0  0
  189.3770  176.3910  136.9820 C   0  0  1  0  0  3  0  0  0  0  0  0
  188.4470  176.5450  135.8090 C   0  0  2  0  0  3  0  0  0  0  0  0
  186.4610  174.8870  135.5010 C   0  0  0  0  0  1  0  0  0  0  0  0
  190.6810  176.5500  136.2960 C   0  0  0  0  0  2  0  0  0  0  0  0
  184.6910  179.3160  141.3720 C   0  0  0  0  0  2  0  0  0  0  0  0
  184.3140  178.2890  140.2810 C   0  0  2  0  0  3  0  0  0  0  0  0
  182.5500  179.7230  139.5470 C   0  0  0  0  0  2  0  0  0  0  0  0
  183.8000  180.1280  138.7190 C   0  0  0  0  0  2  0  0  0  0  0  0
  184.8390  179.0030  139.0740 C   0  0  0  0  0  2  0  0  0  0  0  0
  182.7890  178.3740  140.2190 C   0  0  1  0  0  0  0  0  0  0  0  0
  182.9450  175.9600  139.0930 C   0  0  0  0  0  2  0  0  0  0  0  0
  182.1440  177.8880  136.7820 C   0  0  0  0  0  2  0  0  0  0  0  0
  181.4170  177.9090  138.1070 C   0  0  0  0  0  2  0  0  0  0  0  0
  182.7720  175.4540  137.6640 C   0  0  0  0  0  2  0  0  0  0  0  0
  182.1500  177.2710  139.2910 C   0  0  0  0  0  3  0  0  0  0  0  0
  182.9820  176.5970  136.6210 C   0  0  0  0  0  2  0  0  0  0  0  0
  180.9370  178.7680  141.7940 C   0  0  0  0  0  1  0  0  0  0  0  0
  182.1730  178.2370  141.5690 O   0  0  0  0  0  0  0  0  0  0  0  0
  1  9  1  1  0  0  0
  1 11  1  0  0  0  0
  2  3  1  6  0  0  0
  2  7  1  0  0  0  0
  3  7  1  0  0  0  0
  4  5  2  0  0  0  0
  5 13  1  0  0  0  0
  5  1  1  0  0  0  0
  6 12  1  6  0  0  0
  7 11  1  6  0  0  0
  8  6  1  6  0  0  0
  8  4  1  0  0  0  0
  8  2  1  0  0  0  0
 10 25  1  6  0  0  0
 10  9  1  0  0  0  0
 13 10  1  0  0  0  0
 15 23  1  6  0  0  0
 15 18  1  0  0  0  0
 16 20  1  0  0  0  0
 17 19  1  6  0  0  0
 17 14  1  0  0  0  0
 17  6  1  0  0  0  0
 18 14  1  0  0  0  0
 20 24  1  0  0  0  0
 21 24  1  6  0  0  0
 21 17  1  0  0  0  0
 22 16  1  6  0  0  0
 22 15  1  0  0  0  0
 22 21  1  0  0  0  0
 26 25  1  1  0  0  0
 27 30  1  0  0  0  0
 28 29  1  0  0  0  0
 28 27  1  0  0  0  0
 29 26  1  0  0  0  0
 30 26  1  0  0  0  0
 30 38  1  1  0  0  0
 31 35  1  0  0  0  0
 32 33  1  0  0  0  0
 33 35  1  0  0  0  0
 34 31  1  0  0  0  0
 35 30  1  0  0  0  0
 36 32  1  0  0  0  0
 36 34  1  0  0  0  0
 38 37  1  0  0  0  0
M  END
>  <MODEL>
6

>  <REMARK>
 VINA RESULT:      -7.4      2.291      7.809
  Name = 
  5 active torsions:
  status: ('A' for Active; 'I' for Inactive)
    1  A    between atoms: C_1  and  C_27
    2  A    between atoms: C_11  and  C_21
    3  A    between atoms: C_27  and  C_30
    4  A    between atoms: C_32  and  C_34
    5  A    between atoms: C_34  and  O_38
                            x       y       z     vdW  Elec       q    Type
                         _______ _______ _______ _____ _____    ______ ____

>  <TORSDO>
F 5

$$$$
=
 OpenBabel11062414383D

 38 44  0  0  1  0  0  0  0  0999 V2000
  187.6980  177.3080  141.8290 C   0  0  2  0  0  3  0  0  0  0  0  0
  190.9860  177.7520  141.2310 C   0  0  2  0  0  3  0  0  0  0  0  0
  191.3670  176.7950  142.2730 O   0  0  0  0  0  0  0  0  0  0  0  0
  188.7970  178.3820  140.1780 N   0  0  0  0  0  0  0  0  0  0  0  0
  187.9580  178.4120  141.0670 C   0  0  0  0  0  0  0  0  0  0  0  0
  190.1850  176.8850  139.0150 C   0  0  2  0  0  3  0  0  0  0  0  0
  190.3980  177.7740  142.6180 C   0  0  2  0  0  3  0  0  0  0  0  0
  189.9260  177.4760  140.2110 C   0  0  1  0  0  3  0  0  0  0  0  0
  186.3290  177.7430  142.4770 C   0  0  0  0  0  2  0  0  0  0  0  0
  185.8400  179.0810  141.7000 C   0  0  1  0  0  3  0  0  0  0  0  0
  188.9770  177.0570  142.8260 C   0  0  0  0  0  2  0  0  0  0  0  0
  191.4370  176.2990  138.8580 O   0  0  0  0  0  1  0  0  0  0  0  0
  187.0600  179.4940  141.0830 N   0  0  0  0  0  2  0  0  0  0  0  0
  188.1470  177.8240  137.9500 C   0  0  0  0  0  2  0  0  0  0  0  0
  186.4310  176.2300  136.6570 C   0  0  1  0  0  3  0  0  0  0  0  0
  187.2610  173.9890  136.3400 O   0  0  0  0  0  0  0  0  0  0  0  0
  189.2810  176.7880  137.7630 C   0  0  1  0  0  0  0  0  0  0  0  0
  186.6720  177.2460  137.8360 C   0  0  0  0  0  2  0  0  0  0  0  0
  190.0070  177.2810  136.5160 C   0  0  0  0  0  1  0  0  0  0  0  0
  188.5240  173.3570  136.4030 C   0  0  0  0  0  2  0  0  0  0  0  0
  188.5870  175.3960  137.5630 C   0  0  1  0  0  3  0  0  0  0  0  0
  187.6360  175.3470  136.3980 C   0  0  2  0  0  3  0  0  0  0  0  0
  185.0720  175.5690  136.8060 C   0  0  0  0  0  1  0  0  0  0  0  0
  189.4640  174.2510  137.2240 C   0  0  0  0  0  2  0  0  0  0  0  0
  184.8220  179.1160  140.5870 C   0  0  0  0  0  2  0  0  0  0  0  0
  183.3060  178.9880  140.8580 C   0  0  2  0  0  3  0  0  0  0  0  0
  182.9900  178.1170  138.6560 C   0  0  0  0  0  2  0  0  0  0  0  0
  183.2450  176.8860  139.5690 C   0  0  0  0  0  2  0  0  0  0  0  0
  183.2040  177.5020  141.0140 C   0  0  0  0  0  2  0  0  0  0  0  0
  182.6700  179.3390  139.5130 C   0  0  1  0  0  0  0  0  0  0  0  0
  180.4680  179.6630  140.9840 C   0  0  0  0  0  2  0  0  0  0  0  0
  179.8590  177.2370  139.1290 C   0  0  0  0  0  2  0  0  0  0  0  0
  180.4310  178.5220  138.5760 C   0  0  0  0  0  2  0  0  0  0  0  0
  179.1460  178.9070  141.0770 C   0  0  0  0  0  2  0  0  0  0  0  0
  181.0990  179.4560  139.5880 C   0  0  0  0  0  3  0  0  0  0  0  0
  179.2820  177.4440  140.5500 C   0  0  0  0  0  2  0  0  0  0  0  0
  182.3100  181.5810  138.5610 C   0  0  0  0  0  1  0  0  0  0  0  0
  183.1910  180.6260  138.9740 O   0  0  0  0  0  0  0  0  0  0  0  0
  1  9  1  1  0  0  0
  1 11  1  0  0  0  0
  2  3  1  1  0  0  0
  2  7  1  0  0  0  0
  3  7  1  0  0  0  0
  4  8  1  0  0  0  0
  4  5  2  0  0  0  0
  5 13  1  0  0  0  0
  5  1  1  0  0  0  0
  6 12  1  6  0  0  0
  7 11  1  6  0  0  0
  8  6  1  6  0  0  0
  8  2  1  0  0  0  0
 10 25  1  6  0  0  0
 10  9  1  0  0  0  0
 13 10  1  0  0  0  0
 15 23  1  1  0  0  0
 15 18  1  0  0  0  0
 16 20  1  0  0  0  0
 17 19  1  6  0  0  0
 17 14  1  0  0  0  0
 17  6  1  0  0  0  0
 18 14  1  0  0  0  0
 20 24  1  0  0  0  0
 21 24  1  6  0  0  0
 21 17  1  0  0  0  0
 22 16  1  1  0  0  0
 22 15  1  0  0  0  0
 22 21  1  0  0  0  0
 26 25  1  6  0  0  0
 26 29  1  0  0  0  0
 27 30  1  0  0  0  0
 27 28  1  0  0  0  0
 28 29  1  0  0  0  0
 30 38  1  6  0  0  0
 30 35  1  0  0  0  0
 30 26  1  0  0  0  0
 31 34  1  0  0  0  0
 32 36  1  0  0  0  0
 33 32  1  0  0  0  0
 33 35  1  0  0  0  0
 35 31  1  0  0  0  0
 36 34  1  0  0  0  0
 37 38  1  0  0  0  0
M  END
>  <MODEL>
7

>  <REMARK>
 VINA RESULT:      -7.3      2.293      7.837
  Name = 
  5 active torsions:
  status: ('A' for Active; 'I' for Inactive)
    1  A    between atoms: C_1  and  C_27
    2  A    between atoms: C_11  and  C_21
    3  A    between atoms: C_27  and  C_30
    4  A    between atoms: C_32  and  C_34
    5  A    between atoms: C_34  and  O_38
                            x       y       z     vdW  Elec       q    Type
                         _______ _______ _______ _____ _____    ______ ____

>  <TORSDO>
F 5

$$$$
=
 OpenBabel11062414383D

 38 44  0  0  1  0  0  0  0  0999 V2000
  189.9330  175.9850  138.4390 C   0  0  2  0  0  3  0  0  0  0  0  0
  189.5890  176.0520  135.0850 C   0  0  2  0  0  3  0  0  0  0  0  0
  190.7770  175.2190  134.8860 O   0  0  0  0  0  0  0  0  0  0  0  0
  188.2650  176.7190  137.1100 N   0  0  0  0  0  0  0  0  0  0  0  0
  189.0610  176.9450  138.0100 C   0  0  0  0  0  0  0  0  0  0  0  0
  187.4400  174.9600  135.7900 C   0  0  2  0  0  3  0  0  0  0  0  0
  190.9010  176.3160  135.7780 C   0  0  2  0  0  3  0  0  0  0  0  0
  188.5200  175.7320  136.0830 C   0  0  1  0  0  3  0  0  0  0  0  0
  190.3900  176.6240  139.8050 C   0  0  0  0  0  2  0  0  0  0  0  0
  189.4040  177.8790  140.0950 C   0  0  1  0  0  3  0  0  0  0  0  0
  191.0680  175.7630  137.2740 C   0  0  0  0  0  2  0  0  0  0  0  0
  187.4770  174.2500  134.5940 O   0  0  0  0  0  1  0  0  0  0  0  0
  188.8540  178.0950  138.7950 N   0  0  0  0  0  2  0  0  0  0  0  0
  186.4010  173.6440  137.6220 C   0  0  0  0  0  2  0  0  0  0  0  0
  183.8610  172.8250  137.4370 C   0  0  1  0  0  3  0  0  0  0  0  0
  182.6760  173.7980  135.5770 O   0  0  0  0  0  0  0  0  0  0  0  0
  186.1340  174.7710  136.5970 C   0  0  1  0  0  0  0  0  0  0  0  0
  185.3780  172.4290  137.5800 C   0  0  0  0  0  2  0  0  0  0  0  0
  185.8430  175.9850  137.4730 C   0  0  0  0  0  1  0  0  0  0  0  0
  182.8710  174.9020  134.7150 C   0  0  0  0  0  2  0  0  0  0  0  0
  184.8980  174.3170  135.7440 C   0  0  1  0  0  3  0  0  0  0  0  0
  183.6610  174.0420  136.5560 C   0  0  2  0  0  3  0  0  0  0  0  0
  183.0220  171.5900  137.1600 C   0  0  0  0  0  1  0  0  0  0  0  0
  184.3550  175.2960  134.7740 C   0  0  0  0  0  2  0  0  0  0  0  0
  188.2060  177.8490  141.0130 C   0  0  0  0  0  2  0  0  0  0  0  0
  188.1790  178.6210  142.3510 C   0  0  2  0  0  3  0  0  0  0  0  0
  187.5870  176.6090  143.4940 C   0  0  0  0  0  2  0  0  0  0  0  0
  189.1390  176.6650  143.5070 C   0  0  0  0  0  2  0  0  0  0  0  0
  189.4460  178.1070  142.9620 C   0  0  0  0  0  2  0  0  0  0  0  0
  187.0230  177.9750  143.1140 C   0  0  1  0  0  0  0  0  0  0  0  0
  187.1430  178.0730  145.7780 C   0  0  0  0  0  2  0  0  0  0  0  0
  184.1690  178.6690  145.0740 C   0  0  0  0  0  2  0  0  0  0  0  0
  185.2990  179.3890  144.3740 C   0  0  0  0  0  2  0  0  0  0  0  0
  186.1010  178.2980  146.8690 C   0  0  0  0  0  2  0  0  0  0  0  0
  186.6780  178.7270  144.4570 C   0  0  0  0  0  3  0  0  0  0  0  0
  184.6600  177.9710  146.3640 C   0  0  0  0  0  2  0  0  0  0  0  0
  185.5120  178.9420  141.4260 C   0  0  0  0  0  1  0  0  0  0  0  0
  185.7790  177.9250  142.2960 O   0  0  0  0  0  0  0  0  0  0  0  0
  1 11  1  6  0  0  0
  1  9  1  0  0  0  0
  2  3  1  6  0  0  0
  2  7  1  0  0  0  0
  2  8  1  0  0  0  0
  3  7  1  0  0  0  0
  4  5  2  0  0  0  0
  5  1  1  0  0  0  0
  5 13  1  0  0  0  0
  6 12  1  6  0  0  0
  6 17  1  0  0  0  0
  7 11  1  1  0  0  0
  8  6  1  6  0  0  0
  8  4  1  0  0  0  0
  9 10  1  0  0  0  0
 10 25  1  1  0  0  0
 13 10  1  0  0  0  0
 15 23  1  6  0  0  0
 15 18  1  0  0  0  0
 17 19  1  1  0  0  0
 17 14  1  0  0  0  0
 18 14  1  0  0  0  0
 20 24  1  0  0  0  0
 20 16  1  0  0  0  0
 21 24  1  6  0  0  0
 21 22  1  0  0  0  0
 21 17  1  0  0  0  0
 22 16  1  6  0  0  0
 22 15  1  0  0  0  0
 26 25  1  6  0  0  0
 26 29  1  0  0  0  0
 26 30  1  0  0  0  0
 27 28  1  0  0  0  0
 29 28  1  0  0  0  0
 30 38  1  6  0  0  0
 30 27  1  0  0  0  0
 30 35  1  0  0  0  0
 31 34  1  0  0  0  0
 32 36  1  0  0  0  0
 33 35  1  0  0  0  0
 33 32  1  0  0  0  0
 35 31  1  0  0  0  0
 36 34  1  0  0  0  0
 37 38  1  0  0  0  0
M  END
>  <MODEL>
8

>  <REMARK>
 VINA RESULT:      -7.2      2.978      4.184
  Name = 
  5 active torsions:
  status: ('A' for Active; 'I' for Inactive)
    1  A    between atoms: C_1  and  C_27
    2  A    between atoms: C_11  and  C_21
    3  A    between atoms: C_27  and  C_30
    4  A    between atoms: C_32  and  C_34
    5  A    between atoms: C_34  and  O_38
                            x       y       z     vdW  Elec       q    Type
                         _______ _______ _______ _____ _____    ______ ____

>  <TORSDO>
F 5

$$$$
=
 OpenBabel11062414383D

 38 44  0  0  1  0  0  0  0  0999 V2000
  188.5760  176.8170  138.3080 C   0  0  2  0  0  3  0  0  0  0  0  0
  187.5530  178.0620  135.3470 C   0  0  2  0  0  3  0  0  0  0  0  0
  188.3940  177.1270  134.5940 O   0  0  0  0  0  0  0  0  0  0  0  0
  186.9320  178.2640  137.7700 N   0  0  0  0  0  0  0  0  0  0  0  0
  187.9330  178.0170  138.4270 C   0  0  0  0  0  0  0  0  0  0  0  0
  185.3890  177.2430  136.3220 C   0  0  2  0  0  3  0  0  0  0  0  0
  189.0040  177.8180  135.6740 C   0  0  2  0  0  3  0  0  0  0  0  0
  186.6770  177.6450  136.4860 C   0  0  1  0  0  3  0  0  0  0  0  0
  189.4730  176.8620  139.6030 C   0  0  0  0  0  2  0  0  0  0  0  0
  188.9590  178.1170  140.4940 C   0  0  1  0  0  3  0  0  0  0  0  0
  189.3280  176.7770  136.8500 C   0  0  0  0  0  2  0  0  0  0  0  0
  184.9710  176.9790  135.0210 O   0  0  0  0  0  1  0  0  0  0  0  0
  188.2250  178.8560  139.5170 N   0  0  0  0  0  2  0  0  0  0  0  0
  184.5210  175.6700  138.0370 C   0  0  0  0  0  2  0  0  0  0  0  0
  181.8870  175.3420  138.3710 C   0  0  1  0  0  3  0  0  0  0  0  0
  180.5610  176.9460  137.1550 O   0  0  0  0  0  0  0  0  0  0  0  0
  184.2860  177.0560  137.3900 C   0  0  1  0  0  0  0  0  0  0  0  0
  183.2730  174.6870  138.0120 C   0  0  0  0  0  2  0  0  0  0  0  0
  184.4710  178.0250  138.5530 C   0  0  0  0  0  1  0  0  0  0  0  0
  180.7980  178.1930  136.5320 C   0  0  0  0  0  2  0  0  0  0  0  0
  182.8230  177.0440  136.8250 C   0  0  1  0  0  3  0  0  0  0  0  0
  181.7680  176.7640  137.8610 C   0  0  2  0  0  3  0  0  0  0  0  0
  180.7580  174.3720  138.0710 C   0  0  0  0  0  1  0  0  0  0  0  0
  182.3070  178.3180  136.2730 C   0  0  0  0  0  2  0  0  0  0  0  0
  188.0260  178.0180  141.6750 C   0  0  0  0  0  2  0  0  0  0  0  0
  188.1710  176.9120  142.7450 C   0  0  2  0  0  3  0  0  0  0  0  0
  187.9240  178.5510  144.4650 C   0  0  0  0  0  2  0  0  0  0  0  0
  186.4890  178.0430  144.1520 C   0  0  0  0  0  2  0  0  0  0  0  0
  186.7480  176.8170  143.2010 C   0  0  0  0  0  2  0  0  0  0  0  0
  188.9530  177.5970  143.8650 C   0  0  1  0  0  0  0  0  0  0  0  0
  189.1910  177.0660  146.4690 C   0  0  0  0  0  2  0  0  0  0  0  0
  191.9470  176.3150  145.2290 C   0  0  0  0  0  2  0  0  0  0  0  0
  190.6530  175.8340  144.6120 C   0  0  0  0  0  2  0  0  0  0  0  0
  190.3390  176.5620  147.3380 C   0  0  0  0  0  2  0  0  0  0  0  0
  189.3880  176.6020  145.0080 C   0  0  0  0  0  3  0  0  0  0  0  0
  191.7250  176.8310  146.6710 C   0  0  0  0  0  2  0  0  0  0  0  0
  190.6560  179.3730  143.9870 C   0  0  0  0  0  1  0  0  0  0  0  0
  190.1860  178.2600  143.3540 O   0  0  0  0  0  0  0  0  0  0  0  0
  1 11  1  6  0  0  0
  1  5  1  0  0  0  0
  1  9  1  0  0  0  0
  2  3  1  6  0  0  0
  2  7  1  0  0  0  0
  2  8  1  0  0  0  0
  3  7  1  0  0  0  0
  4  5  2  0  0  0  0
  5 13  1  0  0  0  0
  6 12  1  6  0  0  0
  6 17  1  0  0  0  0
  7 11  1  1  0  0  0
  8  6  1  6  0  0  0
  8  4  1  0  0  0  0
  9 10  1  0  0  0  0
 10 25  1  1  0  0  0
 13 10  1  0  0  0  0
 15 23  1  6  0  0  0
 17 14  1  0  0  0  0
 17 19  1  1  0  0  0
 18 14  1  0  0  0  0
 18 15  1  0  0  0  0
 20 16  1  0  0  0  0
 21 24  1  1  0  0  0
 21 17  1  0  0  0  0
 21 22  1  0  0  0  0
 22 16  1  6  0  0  0
 22 15  1  0  0  0  0
 24 20  1  0  0  0  0
 26 25  1  6  0  0  0
 26 29  1  0  0  0  0
 26 30  1  0  0  0  0
 28 27  1  0  0  0  0
 29 28  1  0  0  0  0
 30 38  1  6  0  0  0
 30 27  1  0  0  0  0
 30 35  1  0  0  0  0
 31 34  1  0  0  0  0
 32 36  1  0  0  0  0
 33 35  1  0  0  0  0
 33 32  1  0  0  0  0
 35 31  1  0  0  0  0
 36 34  1  0  0  0  0
 38 37  1  0  0  0  0
M  END
>  <MODEL>
9

>  <REMARK>
 VINA RESULT:      -7.1      1.699      2.390
  Name = 
  5 active torsions:
  status: ('A' for Active; 'I' for Inactive)
    1  A    between atoms: C_1  and  C_27
    2  A    between atoms: C_11  and  C_21
    3  A    between atoms: C_27  and  C_30
    4  A    between atoms: C_32  and  C_34
    5  A    between atoms: C_34  and  O_38
                            x       y       z     vdW  Elec       q    Type
                         _______ _______ _______ _____ _____    ______ ____

>  <TORSDO>
F 5

$$$$
