=
 OpenBabel11062414423D

 27 30  0  0  1  0  0  0  0  0999 V2000
  190.8220  177.5680  142.9070 N   0  0  0  0  0  0  0  0  0  0  0  0
  191.9780  176.6140  145.1710 N   0  0  0  0  0  0  0  0  0  0  0  0
  191.1300  176.4990  146.2720 C   0  0  0  0  0  0  0  0  0  0  0  0
  189.6940  176.8680  146.2300 C   0  0  0  0  0  0  0  0  0  0  0  0
  191.7000  175.9810  147.5460 C   0  0  0  0  0  1  0  0  0  0  0  0
  188.9570  176.7160  147.3600 F   0  0  0  0  0  0  0  0  0  0  0  0
  189.9770  177.4490  144.0230 C   0  0  0  0  0  0  0  0  0  0  0  0
  191.2940  177.0910  144.1370 C   0  0  0  0  0  0  0  0  0  0  0  0
  189.0580  177.3790  145.0250 C   0  0  0  0  0  0  0  0  0  0  0  0
  185.6850  178.1550  143.4680 C   0  0  0  0  0  0  0  0  0  0  0  0
  182.9700  178.9520  143.1190 N   0  0  0  0  0  0  0  0  0  0  0  0
  187.6380  177.7680  144.8720 C   0  0  0  0  0  0  0  0  0  0  0  0
  186.8830  178.1310  145.9990 C   0  0  0  0  0  3  0  0  0  0  0  0
  184.9400  178.5160  144.6030 C   0  0  0  0  0  0  0  0  0  0  0  0
  185.0670  178.1360  142.0970 C   0  0  0  0  0  2  0  0  0  0  0  0
  185.5430  178.5030  145.8670 C   0  0  0  0  0  3  0  0  0  0  0  0
  183.5360  178.9110  144.4320 C   0  0  0  0  0  0  0  0  0  0  0  0
  182.8280  179.2230  145.4260 O   0  0  0  0  0  0  0  0  0  0  0  0
  183.6380  178.6180  142.0560 C   0  0  0  0  0  3  0  0  0  0  0  0
  187.0240  177.7820  143.6110 C   0  0  0  0  0  3  0  0  0  0  0  0
  192.3040  177.4300  141.1280 O   0  0  0  0  0  1  0  0  0  0  0  0
  191.0250  177.8540  141.4970 C   0  0  1  0  0  3  0  0  0  0  0  0
  189.9640  177.1450  140.6450 C   0  0  1  0  0  3  0  0  0  0  0  0
  188.4090  178.6520  139.6860 O   0  0  0  0  0  0  0  0  0  0  0  0
  188.6740  177.9090  140.6170 C   0  0  0  0  0  3  0  0  0  0  0  0
  190.4530  176.9160  139.2170 C   0  0  0  0  0  2  0  0  0  0  0  0
  190.5670  175.5520  138.9370 O   0  0  0  0  0  1  0  0  0  0  0  0
  1  7  1  0  0  0  0
  1  8  1  0  0  0  0
  2  3  1  0  0  0  0
  3  5  1  0  0  0  0
  4  3  2  0  0  0  0
  4  6  1  0  0  0  0
  7  8  1  0  0  0  0
  7  9  2  0  0  0  0
  8  2  2  0  0  0  0
  9  4  1  0  0  0  0
 10 20  2  0  0  0  0
 10 14  1  0  0  0  0
 11 17  1  0  0  0  0
 12  9  1  0  0  0  0
 12 13  2  0  0  0  0
 14 16  2  0  0  0  0
 15 10  1  0  0  0  0
 16 13  1  0  0  0  0
 17 14  1  0  0  0  0
 17 18  2  0  0  0  0
 19 15  1  0  0  0  0
 19 11  2  0  0  0  0
 20 12  1  0  0  0  0
 22 21  1  6  0  0  0
 22  1  1  0  0  0  0
 23 26  1  6  0  0  0
 23 22  1  0  0  0  0
 24 25  2  0  0  0  0
 25 23  1  0  0  0  0
 27 26  1  0  0  0  0
M  END
>  <MODEL>
1

>  <REMARK>
 VINA RESULT:      -9.6      0.000      0.000
  Name = 
  5 active torsions:
  status: ('A' for Active; 'I' for Inactive)
    1  A    between atoms: N_1  and  C_19
    2  A    between atoms: C_3  and  C_14
    3  A    between atoms: C_3  and  C_19
    4  A    between atoms: C_3  and  C_24
    5  A    between atoms: C_7  and  C_27
                            x       y       z     vdW  Elec       q    Type
                         _______ _______ _______ _____ _____    ______ ____

>  <TORSDO>
F 5

$$$$
=
 OpenBabel11062414423D

 27 30  0  0  1  0  0  0  0  0999 V2000
  188.8700  176.8240  144.2280 N   0  0  0  0  0  0  0  0  0  0  0  0
  189.2080  177.2900  146.8820 N   0  0  0  0  0  0  0  0  0  0  0  0
  188.1140  177.8600  147.5330 C   0  0  0  0  0  0  0  0  0  0  0  0
  186.8450  178.1950  146.8410 C   0  0  0  0  0  0  0  0  0  0  0  0
  188.2320  178.1400  148.9900 C   0  0  0  0  0  1  0  0  0  0  0  0
  185.8410  178.7460  147.5700 F   0  0  0  0  0  0  0  0  0  0  0  0
  187.7740  177.3980  144.8940 C   0  0  0  0  0  0  0  0  0  0  0  0
  188.9150  177.1180  145.5980 C   0  0  0  0  0  0  0  0  0  0  0  0
  186.6460  177.9500  145.4200 C   0  0  0  0  0  0  0  0  0  0  0  0
  184.2580  178.3770  142.5030 C   0  0  0  0  0  0  0  0  0  0  0  0
  181.9450  178.9760  140.9470 N   0  0  0  0  0  0  0  0  0  0  0  0
  185.4240  178.2390  144.6370 C   0  0  0  0  0  0  0  0  0  0  0  0
  184.2550  178.6600  145.2880 C   0  0  0  0  0  3  0  0  0  0  0  0
  183.0930  178.7980  143.1660 C   0  0  0  0  0  0  0  0  0  0  0  0
  184.2880  178.1930  141.0100 C   0  0  0  0  0  2  0  0  0  0  0  0
  183.0960  178.9390  144.5590 C   0  0  0  0  0  3  0  0  0  0  0  0
  181.8930  179.0920  142.3720 C   0  0  0  0  0  0  0  0  0  0  0  0
  180.8230  179.4540  142.9290 O   0  0  0  0  0  0  0  0  0  0  0  0
  183.0080  178.5830  140.3120 C   0  0  0  0  0  3  0  0  0  0  0  0
  185.4110  178.0980  143.2410 C   0  0  0  0  0  3  0  0  0  0  0  0
  188.8230  176.7620  141.9100 O   0  0  0  0  0  1  0  0  0  0  0  0
  189.4660  176.2450  143.0370 C   0  0  1  0  0  3  0  0  0  0  0  0
  190.9680  176.5550  142.9810 C   0  0  1  0  0  3  0  0  0  0  0  0
  191.7410  178.6600  143.7420 O   0  0  0  0  0  0  0  0  0  0  0  0
  191.2250  178.0250  142.8370 C   0  0  0  0  0  3  0  0  0  0  0  0
  191.6950  176.0280  144.2160 C   0  0  0  0  0  2  0  0  0  0  0  0
  192.1120  174.7070  144.0280 O   0  0  0  0  0  1  0  0  0  0  0  0
  1  7  1  0  0  0  0
  1  8  1  0  0  0  0
  2  3  1  0  0  0  0
  3  5  1  0  0  0  0
  4  3  2  0  0  0  0
  4  6  1  0  0  0  0
  7  9  2  0  0  0  0
  7  8  1  0  0  0  0
  8  2  2  0  0  0  0
  9  4  1  0  0  0  0
 10 14  2  0  0  0  0
 10 20  1  0  0  0  0
 11 17  1  0  0  0  0
 12 13  1  0  0  0  0
 12  9  1  0  0  0  0
 14 16  1  0  0  0  0
 15 10  1  0  0  0  0
 16 13  2  0  0  0  0
 17 18  2  0  0  0  0
 17 14  1  0  0  0  0
 19 11  2  0  0  0  0
 19 15  1  0  0  0  0
 20 12  2  0  0  0  0
 22 21  1  6  0  0  0
 22  1  1  0  0  0  0
 23 25  1  1  0  0  0
 23 22  1  0  0  0  0
 23 26  1  0  0  0  0
 25 24  2  0  0  0  0
 27 26  1  0  0  0  0
M  END
>  <MODEL>
2

>  <REMARK>
 VINA RESULT:      -9.6      2.259      3.194
  Name = 
  5 active torsions:
  status: ('A' for Active; 'I' for Inactive)
    1  A    between atoms: N_1  and  C_19
    2  A    between atoms: C_3  and  C_14
    3  A    between atoms: C_3  and  C_19
    4  A    between atoms: C_3  and  C_24
    5  A    between atoms: C_7  and  C_27
                            x       y       z     vdW  Elec       q    Type
                         _______ _______ _______ _____ _____    ______ ____

>  <TORSDO>
F 5

$$$$
=
 OpenBabel11062414423D

 27 30  0  0  1  0  0  0  0  0999 V2000
  188.7380  177.1690  143.8800 N   0  0  0  0  0  0  0  0  0  0  0  0
  189.1690  177.4160  146.5500 N   0  0  0  0  0  0  0  0  0  0  0  0
  188.0750  177.8570  147.2940 C   0  0  0  0  0  0  0  0  0  0  0  0
  186.7590  178.1740  146.6870 C   0  0  0  0  0  0  0  0  0  0  0  0
  188.2430  178.0130  148.7650 C   0  0  0  0  0  1  0  0  0  0  0  0
  185.7590  178.5950  147.5040 F   0  0  0  0  0  0  0  0  0  0  0  0
  187.6420  177.6130  144.6390 C   0  0  0  0  0  0  0  0  0  0  0  0
  188.8280  177.3410  145.2680 C   0  0  0  0  0  0  0  0  0  0  0  0
  186.5100  178.0460  145.2590 C   0  0  0  0  0  0  0  0  0  0  0  0
  183.9350  178.4500  142.5010 C   0  0  0  0  0  0  0  0  0  0  0  0
  181.5240  179.0360  141.0960 N   0  0  0  0  0  0  0  0  0  0  0  0
  185.2390  178.3270  144.5560 C   0  0  0  0  0  0  0  0  0  0  0  0
  184.1130  178.7500  145.2790 C   0  0  0  0  0  3  0  0  0  0  0  0
  182.8150  178.8730  143.2360 C   0  0  0  0  0  0  0  0  0  0  0  0
  183.8690  178.2570  141.0110 C   0  0  0  0  0  2  0  0  0  0  0  0
  182.9090  179.0220  144.6250 C   0  0  0  0  0  3  0  0  0  0  0  0
  181.5660  179.1600  142.5210 C   0  0  0  0  0  0  0  0  0  0  0  0
  180.5330  179.5230  143.1450 O   0  0  0  0  0  0  0  0  0  0  0  0
  182.5450  178.6410  140.3960 C   0  0  0  0  0  3  0  0  0  0  0  0
  185.1350  178.1780  143.1640 C   0  0  0  0  0  3  0  0  0  0  0  0
  188.4190  177.0360  141.5870 O   0  0  0  0  0  1  0  0  0  0  0  0
  189.3110  176.7360  142.6180 C   0  0  1  0  0  3  0  0  0  0  0  0
  190.6580  177.4280  142.3730 C   0  0  1  0  0  3  0  0  0  0  0  0
  191.6400  175.7000  143.6600 O   0  0  0  0  0  0  0  0  0  0  0  0
  191.7510  176.8260  143.2060 C   0  0  0  0  0  3  0  0  0  0  0  0
  191.0540  177.3780  140.8980 C   0  0  0  0  0  2  0  0  0  0  0  0
  192.4400  177.4680  140.7470 O   0  0  0  0  0  1  0  0  0  0  0  0
  1  7  1  0  0  0  0
  1  8  1  0  0  0  0
  2  3  1  0  0  0  0
  3  5  1  0  0  0  0
  4  3  2  0  0  0  0
  4  6  1  0  0  0  0
  7  9  2  0  0  0  0
  7  8  1  0  0  0  0
  8  2  2  0  0  0  0
  9  4  1  0  0  0  0
 10 20  2  0  0  0  0
 10 14  1  0  0  0  0
 11 17  1  0  0  0  0
 12  9  1  0  0  0  0
 12 13  2  0  0  0  0
 14 16  2  0  0  0  0
 15 10  1  0  0  0  0
 16 13  1  0  0  0  0
 17 18  2  0  0  0  0
 17 14  1  0  0  0  0
 19 15  1  0  0  0  0
 19 11  2  0  0  0  0
 20 12  1  0  0  0  0
 22 21  1  6  0  0  0
 22  1  1  0  0  0  0
 23 26  1  6  0  0  0
 23 22  1  0  0  0  0
 23 25  1  0  0  0  0
 25 24  2  0  0  0  0
 27 26  1  0  0  0  0
M  END
>  <MODEL>
3

>  <REMARK>
 VINA RESULT:      -9.5      2.006      3.041
  Name = 
  5 active torsions:
  status: ('A' for Active; 'I' for Inactive)
    1  A    between atoms: N_1  and  C_19
    2  A    between atoms: C_3  and  C_14
    3  A    between atoms: C_3  and  C_19
    4  A    between atoms: C_3  and  C_24
    5  A    between atoms: C_7  and  C_27
                            x       y       z     vdW  Elec       q    Type
                         _______ _______ _______ _____ _____    ______ ____

>  <TORSDO>
F 5

$$$$
=
 OpenBabel11062414423D

 27 30  0  0  1  0  0  0  0  0999 V2000
  189.7650  176.9800  144.3160 N   0  0  0  0  0  0  0  0  0  0  0  0
  189.6230  177.3120  147.0070 N   0  0  0  0  0  0  0  0  0  0  0  0
  188.3880  177.7420  147.4920 C   0  0  0  0  0  0  0  0  0  0  0  0
  187.2210  178.0050  146.6140 C   0  0  0  0  0  0  0  0  0  0  0  0
  188.2400  177.9430  148.9590 C   0  0  0  0  0  1  0  0  0  0  0  0
  186.0640  178.4200  147.1890 F   0  0  0  0  0  0  0  0  0  0  0  0
  188.5260  177.4130  144.8150 C   0  0  0  0  0  0  0  0  0  0  0  0
  189.5600  177.1920  145.6860 C   0  0  0  0  0  0  0  0  0  0  0  0
  187.2800  177.8310  145.1700 C   0  0  0  0  0  0  0  0  0  0  0  0
  183.8420  178.5680  143.7410 C   0  0  0  0  0  0  0  0  0  0  0  0
  181.6780  178.9550  141.9260 N   0  0  0  0  0  0  0  0  0  0  0  0
  186.1780  178.0570  144.2080 C   0  0  0  0  0  0  0  0  0  0  0  0
  186.4210  177.9700  142.8280 C   0  0  0  0  0  3  0  0  0  0  0  0
  184.0970  178.4770  142.3630 C   0  0  0  0  0  0  0  0  0  0  0  0
  182.4750  178.9090  144.2660 C   0  0  0  0  0  2  0  0  0  0  0  0
  185.3880  178.1780  141.9100 C   0  0  0  0  0  3  0  0  0  0  0  0
  182.9900  178.6920  141.4220 C   0  0  0  0  0  0  0  0  0  0  0  0
  183.1810  178.6390  140.1780 O   0  0  0  0  0  0  0  0  0  0  0  0
  181.4190  179.0480  143.1960 C   0  0  0  0  0  3  0  0  0  0  0  0
  184.8820  178.3610  144.6520 C   0  0  0  0  0  3  0  0  0  0  0  0
  190.1660  175.2670  142.8050 O   0  0  0  0  0  1  0  0  0  0  0  0
  190.6000  176.5290  143.2160 C   0  0  1  0  0  3  0  0  0  0  0  0
  190.5340  177.5210  142.0470 C   0  0  1  0  0  3  0  0  0  0  0  0
  191.9430  177.2200  140.1680 O   0  0  0  0  0  0  0  0  0  0  0  0
  191.8420  177.6090  141.3200 C   0  0  0  0  0  3  0  0  0  0  0  0
  189.4260  177.1530  141.0630 C   0  0  0  0  0  2  0  0  0  0  0  0
  188.8810  178.2940  140.4690 O   0  0  0  0  0  1  0  0  0  0  0  0
  1  7  1  0  0  0  0
  1  8  1  0  0  0  0
  2  3  1  0  0  0  0
  3  5  1  0  0  0  0
  4  6  1  0  0  0  0
  4  3  2  0  0  0  0
  7  9  2  0  0  0  0
  7  8  1  0  0  0  0
  8  2  2  0  0  0  0
  9  4  1  0  0  0  0
 10 15  1  0  0  0  0
 10 20  1  0  0  0  0
 11 19  2  0  0  0  0
 12 20  2  0  0  0  0
 12  9  1  0  0  0  0
 13 12  1  0  0  0  0
 14 10  2  0  0  0  0
 16 14  1  0  0  0  0
 16 13  2  0  0  0  0
 17 11  1  0  0  0  0
 17 14  1  0  0  0  0
 18 17  2  0  0  0  0
 19 15  1  0  0  0  0
 22 21  1  6  0  0  0
 22  1  1  0  0  0  0
 23 26  1  6  0  0  0
 23 22  1  0  0  0  0
 24 25  2  0  0  0  0
 25 23  1  0  0  0  0
 27 26  1  0  0  0  0
M  END
>  <MODEL>
4

>  <REMARK>
 VINA RESULT:      -9.4      1.921      2.961
  Name = 
  5 active torsions:
  status: ('A' for Active; 'I' for Inactive)
    1  A    between atoms: N_1  and  C_19
    2  A    between atoms: C_3  and  C_14
    3  A    between atoms: C_3  and  C_19
    4  A    between atoms: C_3  and  C_24
    5  A    between atoms: C_7  and  C_27
                            x       y       z     vdW  Elec       q    Type
                         _______ _______ _______ _____ _____    ______ ____

>  <TORSDO>
F 5

$$$$
=
 OpenBabel11062414423D

 27 30  0  0  1  0  0  0  0  0999 V2000
  190.9360  177.4500  142.7980 N   0  0  0  0  0  0  0  0  0  0  0  0
  191.1200  177.1510  140.1050 N   0  0  0  0  0  0  0  0  0  0  0  0
  189.9270  177.3160  139.4030 C   0  0  0  0  0  0  0  0  0  0  0  0
  188.6360  177.6320  140.0630 C   0  0  0  0  0  0  0  0  0  0  0  0
  189.9570  177.1660  137.9220 C   0  0  0  0  0  1  0  0  0  0  0  0
  187.5330  177.7730  139.2830 F   0  0  0  0  0  0  0  0  0  0  0  0
  189.7400  177.6140  142.0800 C   0  0  0  0  0  0  0  0  0  0  0  0
  190.8930  177.3200  141.4030 C   0  0  0  0  0  0  0  0  0  0  0  0
  188.5200  177.7980  141.5040 C   0  0  0  0  0  0  0  0  0  0  0  0
  186.0530  178.2150  144.3560 C   0  0  0  0  0  0  0  0  0  0  0  0
  183.6840  178.7670  145.8440 N   0  0  0  0  0  0  0  0  0  0  0  0
  187.2890  178.1200  142.2590 C   0  0  0  0  0  0  0  0  0  0  0  0
  186.1690  178.6380  141.5910 C   0  0  0  0  0  3  0  0  0  0  0  0
  184.9380  178.7330  143.6760 C   0  0  0  0  0  0  0  0  0  0  0  0
  186.0320  177.9970  145.8440 C   0  0  0  0  0  2  0  0  0  0  0  0
  185.0000  178.9430  142.2930 C   0  0  0  0  0  3  0  0  0  0  0  0
  183.7200  179.0350  144.4390 C   0  0  0  0  0  0  0  0  0  0  0  0
  182.7050  179.5190  143.8710 O   0  0  0  0  0  0  0  0  0  0  0  0
  184.7040  178.2940  146.4950 C   0  0  0  0  0  3  0  0  0  0  0  0
  187.2180  177.9160  143.6460 C   0  0  0  0  0  3  0  0  0  0  0  0
  191.8730  178.8370  144.4030 O   0  0  0  0  0  1  0  0  0  0  0  0
  191.6830  177.5020  144.0420 C   0  0  1  0  0  3  0  0  0  0  0  0
  190.9330  176.7530  145.1520 C   0  0  1  0  0  3  0  0  0  0  0  0
  192.0670  176.7520  147.2320 O   0  0  0  0  0  0  0  0  0  0  0  0
  191.8750  176.1830  146.1700 C   0  0  0  0  0  3  0  0  0  0  0  0
  189.9160  177.6550  145.8470 C   0  0  0  0  0  2  0  0  0  0  0  0
  189.0350  176.9070  146.6320 O   0  0  0  0  0  1  0  0  0  0  0  0
  1 22  1  0  0  0  0
  2  8  1  0  0  0  0
  3  4  1  0  0  0  0
  3  2  2  0  0  0  0
  4  9  2  0  0  0  0
  5  3  1  0  0  0  0
  6  4  1  0  0  0  0
  7  1  1  0  0  0  0
  8  7  2  0  0  0  0
  8  1  1  0  0  0  0
  9  7  1  0  0  0  0
  9 12  1  0  0  0  0
 10 15  1  0  0  0  0
 11 19  2  0  0  0  0
 12 20  1  0  0  0  0
 13 12  2  0  0  0  0
 13 16  1  0  0  0  0
 14 10  1  0  0  0  0
 14 17  1  0  0  0  0
 15 19  1  0  0  0  0
 16 14  2  0  0  0  0
 17 11  1  0  0  0  0
 18 17  2  0  0  0  0
 20 10  2  0  0  0  0
 22 21  1  1  0  0  0
 22 23  1  0  0  0  0
 23 26  1  1  0  0  0
 23 25  1  0  0  0  0
 25 24  2  0  0  0  0
 26 27  1  0  0  0  0
M  END
>  <MODEL>
5

>  <REMARK>
 VINA RESULT:      -9.3      2.695      4.952
  Name = 
  5 active torsions:
  status: ('A' for Active; 'I' for Inactive)
    1  A    between atoms: N_1  and  C_19
    2  A    between atoms: C_3  and  C_14
    3  A    between atoms: C_3  and  C_19
    4  A    between atoms: C_3  and  C_24
    5  A    between atoms: C_7  and  C_27
                            x       y       z     vdW  Elec       q    Type
                         _______ _______ _______ _____ _____    ______ ____

>  <TORSDO>
F 5

$$$$
=
 OpenBabel11062414423D

 27 30  0  0  1  0  0  0  0  0999 V2000
  186.6420  178.7260  140.8250 N   0  0  0  0  0  0  0  0  0  0  0  0
  188.3170  177.8920  138.8560 N   0  0  0  0  0  0  0  0  0  0  0  0
  189.5180  177.3340  139.2910 C   0  0  0  0  0  0  0  0  0  0  0  0
  189.8750  177.1970  140.7240 C   0  0  0  0  0  0  0  0  0  0  0  0
  190.4820  176.8550  138.2630 C   0  0  0  0  0  1  0  0  0  0  0  0
  191.0720  176.6370  141.0380 F   0  0  0  0  0  0  0  0  0  0  0  0
  187.8550  178.1620  141.2510 C   0  0  0  0  0  0  0  0  0  0  0  0
  187.5950  178.2580  139.9100 C   0  0  0  0  0  0  0  0  0  0  0  0
  188.9890  177.6360  141.7920 C   0  0  0  0  0  0  0  0  0  0  0  0
  188.4540  177.6560  145.5480 C   0  0  0  0  0  0  0  0  0  0  0  0
  188.9080  177.5370  148.3610 N   0  0  0  0  0  0  0  0  0  0  0  0
  189.2430  177.5400  143.2470 C   0  0  0  0  0  0  0  0  0  0  0  0
  190.5310  177.2430  143.7180 C   0  0  0  0  0  3  0  0  0  0  0  0
  189.7480  177.3580  146.0080 C   0  0  0  0  0  0  0  0  0  0  0  0
  187.3100  177.8610  146.5030 C   0  0  0  0  0  2  0  0  0  0  0  0
  190.7840  177.1530  145.0890 C   0  0  0  0  0  3  0  0  0  0  0  0
  189.9840  177.2790  147.4550 C   0  0  0  0  0  0  0  0  0  0  0  0
  191.1250  176.9950  147.9070 O   0  0  0  0  0  0  0  0  0  0  0  0
  187.7020  177.8090  147.9590 C   0  0  0  0  0  3  0  0  0  0  0  0
  188.2100  177.7410  144.1750 C   0  0  0  0  0  3  0  0  0  0  0  0
  184.7450  179.7110  139.9250 O   0  0  0  0  0  1  0  0  0  0  0  0
  185.3270  179.2710  141.1160 C   0  0  1  0  0  3  0  0  0  0  0  0
  184.4390  178.2100  141.7810 C   0  0  1  0  0  3  0  0  0  0  0  0
  184.9510  179.3240  143.8070 O   0  0  0  0  0  0  0  0  0  0  0  0
  184.3830  178.3890  143.2690 C   0  0  0  0  0  3  0  0  0  0  0  0
  183.0230  178.2270  141.2100 C   0  0  0  0  0  2  0  0  0  0  0  0
  182.1320  178.8400  142.0950 O   0  0  0  0  0  1  0  0  0  0  0  0
  1 22  1  0  0  0  0
  1  7  1  0  0  0  0
  2  3  2  0  0  0  0
  2  8  1  0  0  0  0
  3  4  1  0  0  0  0
  4  6  1  0  0  0  0
  4  9  2  0  0  0  0
  5  3  1  0  0  0  0
  7  9  1  0  0  0  0
  8  1  1  0  0  0  0
  8  7  2  0  0  0  0
  9 12  1  0  0  0  0
 10 14  1  0  0  0  0
 10 15  1  0  0  0  0
 12 13  2  0  0  0  0
 12 20  1  0  0  0  0
 13 16  1  0  0  0  0
 14 17  1  0  0  0  0
 15 19  1  0  0  0  0
 16 14  2  0  0  0  0
 17 18  2  0  0  0  0
 17 11  1  0  0  0  0
 19 11  2  0  0  0  0
 20 10  2  0  0  0  0
 22 21  1  6  0  0  0
 22 23  1  0  0  0  0
 23 26  1  6  0  0  0
 23 25  1  0  0  0  0
 25 24  2  0  0  0  0
 26 27  1  0  0  0  0
M  END
>  <MODEL>
6

>  <REMARK>
 VINA RESULT:      -9.2      3.078      6.261
  Name = 
  5 active torsions:
  status: ('A' for Active; 'I' for Inactive)
    1  A    between atoms: N_1  and  C_19
    2  A    between atoms: C_3  and  C_14
    3  A    between atoms: C_3  and  C_19
    4  A    between atoms: C_3  and  C_24
    5  A    between atoms: C_7  and  C_27
                            x       y       z     vdW  Elec       q    Type
                         _______ _______ _______ _____ _____    ______ ____

>  <TORSDO>
F 5

$$$$
=
 OpenBabel11062414423D

 27 30  0  0  1  0  0  0  0  0999 V2000
  187.4580  178.3700  140.3580 N   0  0  0  0  0  0  0  0  0  0  0  0
  184.7740  178.6290  140.0310 N   0  0  0  0  0  0  0  0  0  0  0  0
  184.0190  178.5470  141.2010 C   0  0  0  0  0  0  0  0  0  0  0  0
  184.6220  178.3320  142.5390 C   0  0  0  0  0  0  0  0  0  0  0  0
  182.5410  178.6820  141.0940 C   0  0  0  0  0  1  0  0  0  0  0  0
  183.7950  178.2680  143.6140 F   0  0  0  0  0  0  0  0  0  0  0  0
  186.6870  178.2880  141.5290 C   0  0  0  0  0  0  0  0  0  0  0  0
  186.0610  178.4860  140.3270 C   0  0  0  0  0  0  0  0  0  0  0  0
  186.0580  178.1930  142.7330 C   0  0  0  0  0  0  0  0  0  0  0  0
  188.7800  177.4440  145.2670 C   0  0  0  0  0  0  0  0  0  0  0  0
  190.1600  176.9760  147.7180 N   0  0  0  0  0  0  0  0  0  0  0  0
  186.7600  177.9850  144.0190 C   0  0  0  0  0  0  0  0  0  0  0  0
  186.0650  178.1260  145.2300 C   0  0  0  0  0  3  0  0  0  0  0  0
  188.0740  177.5870  146.4730 C   0  0  0  0  0  0  0  0  0  0  0  0
  190.2440  177.1000  145.2510 C   0  0  0  0  0  2  0  0  0  0  0  0
  186.7160  177.9280  146.4500 C   0  0  0  0  0  3  0  0  0  0  0  0
  188.7830  177.3640  147.7400 C   0  0  0  0  0  0  0  0  0  0  0  0
  188.1920  177.5020  148.8430 O   0  0  0  0  0  0  0  0  0  0  0  0
  190.8340  176.8430  146.6160 C   0  0  0  0  0  3  0  0  0  0  0  0
  188.1210  177.6460  144.0520 C   0  0  0  0  0  3  0  0  0  0  0  0
  189.7170  177.8780  140.5350 O   0  0  0  0  0  1  0  0  0  0  0  0
  188.7470  178.4220  139.6910 C   0  0  1  0  0  3  0  0  0  0  0  0
  188.7010  177.6480  138.3670 C   0  0  1  0  0  3  0  0  0  0  0  0
  189.0550  179.7530  137.3410 O   0  0  0  0  0  0  0  0  0  0  0  0
  188.9220  178.5500  137.1890 C   0  0  0  0  0  3  0  0  0  0  0  0
  189.7250  176.5160  138.3430 C   0  0  0  0  0  2  0  0  0  0  0  0
  190.7470  176.7820  137.4280 O   0  0  0  0  0  1  0  0  0  0  0  0
  1  7  1  0  0  0  0
  2  8  2  0  0  0  0
  2  3  1  0  0  0  0
  3  4  2  0  0  0  0
  4  9  1  0  0  0  0
  4  6  1  0  0  0  0
  5  3  1  0  0  0  0
  7  9  2  0  0  0  0
  8  1  1  0  0  0  0
  8  7  1  0  0  0  0
  9 12  1  0  0  0  0
 10 14  1  0  0  0  0
 11 17  1  0  0  0  0
 12 20  1  0  0  0  0
 12 13  2  0  0  0  0
 13 16  1  0  0  0  0
 14 17  1  0  0  0  0
 15 10  1  0  0  0  0
 15 19  1  0  0  0  0
 16 14  2  0  0  0  0
 17 18  2  0  0  0  0
 19 11  2  0  0  0  0
 20 10  2  0  0  0  0
 22  1  1  0  0  0  0
 22 21  1  1  0  0  0
 23 25  1  6  0  0  0
 23 22  1  0  0  0  0
 25 24  2  0  0  0  0
 26 23  1  0  0  0  0
 27 26  1  0  0  0  0
M  END
>  <MODEL>
7

>  <REMARK>
 VINA RESULT:      -9.1      2.571      5.549
  Name = 
  5 active torsions:
  status: ('A' for Active; 'I' for Inactive)
    1  A    between atoms: N_1  and  C_19
    2  A    between atoms: C_3  and  C_14
    3  A    between atoms: C_3  and  C_19
    4  A    between atoms: C_3  and  C_24
    5  A    between atoms: C_7  and  C_27
                            x       y       z     vdW  Elec       q    Type
                         _______ _______ _______ _____ _____    ______ ____

>  <TORSDO>
F 5

$$$$
=
 OpenBabel11062414423D

 27 30  0  0  1  0  0  0  0  0999 V2000
  185.5610  178.1850  144.6650 N   0  0  0  0  0  0  0  0  0  0  0  0
  186.4050  178.1150  147.2460 N   0  0  0  0  0  0  0  0  0  0  0  0
  187.7750  177.9190  147.4210 C   0  0  0  0  0  0  0  0  0  0  0  0
  188.7200  177.7570  146.2900 C   0  0  0  0  0  0  0  0  0  0  0  0
  188.3050  177.8720  148.8120 C   0  0  0  0  0  1  0  0  0  0  0  0
  190.0360  177.5720  146.5740 F   0  0  0  0  0  0  0  0  0  0  0  0
  186.9390  177.9870  144.8540 C   0  0  0  0  0  0  0  0  0  0  0  0
  186.1250  178.1270  145.9470 C   0  0  0  0  0  0  0  0  0  0  0  0
  188.2860  177.7930  144.9020 C   0  0  0  0  0  0  0  0  0  0  0  0
  189.3990  177.4940  141.2860 C   0  0  0  0  0  0  0  0  0  0  0  0
  191.0040  177.1630  138.9540 N   0  0  0  0  0  0  0  0  0  0  0  0
  189.1430  177.6510  143.7040 C   0  0  0  0  0  0  0  0  0  0  0  0
  190.5340  177.5280  143.8450 C   0  0  0  0  0  3  0  0  0  0  0  0
  190.7900  177.3720  141.4410 C   0  0  0  0  0  0  0  0  0  0  0  0
  188.7570  177.5020  139.9260 C   0  0  0  0  0  2  0  0  0  0  0  0
  191.3530  177.3890  142.7220 C   0  0  0  0  0  3  0  0  0  0  0  0
  191.6240  177.2180  140.2420 C   0  0  0  0  0  0  0  0  0  0  0  0
  192.8770  177.1260  140.3350 O   0  0  0  0  0  0  0  0  0  0  0  0
  189.7210  177.2790  138.7870 C   0  0  0  0  0  3  0  0  0  0  0  0
  188.5880  177.6350  142.4160 C   0  0  0  0  0  3  0  0  0  0  0  0
  183.9620  179.7140  143.9710 O   0  0  0  0  0  1  0  0  0  0  0  0
  184.4220  178.4080  143.7920 C   0  0  1  0  0  3  0  0  0  0  0  0
  184.8130  178.1780  142.3270 C   0  0  1  0  0  3  0  0  0  0  0  0
  182.6530  178.6270  141.4660 O   0  0  0  0  0  0  0  0  0  0  0  0
  183.6170  177.8780  141.4740 C   0  0  0  0  0  3  0  0  0  0  0  0
  185.5620  179.3780  141.7520 C   0  0  0  0  0  2  0  0  0  0  0  0
  185.5570  179.3520  140.3550 O   0  0  0  0  0  1  0  0  0  0  0  0
  1  7  1  0  0  0  0
  1  8  1  0  0  0  0
  2  3  1  0  0  0  0
  3  5  1  0  0  0  0
  4  6  1  0  0  0  0
  4  3  2  0  0  0  0
  7  9  2  0  0  0  0
  7  8  1  0  0  0  0
  8  2  2  0  0  0  0
  9  4  1  0  0  0  0
 10 14  2  0  0  0  0
 10 20  1  0  0  0  0
 11 17  1  0  0  0  0
 12 13  1  0  0  0  0
 12  9  1  0  0  0  0
 14 16  1  0  0  0  0
 15 10  1  0  0  0  0
 16 13  2  0  0  0  0
 17 18  2  0  0  0  0
 17 14  1  0  0  0  0
 19 11  2  0  0  0  0
 19 15  1  0  0  0  0
 20 12  2  0  0  0  0
 22 21  1  6  0  0  0
 22  1  1  0  0  0  0
 23 25  1  6  0  0  0
 23 22  1  0  0  0  0
 24 25  2  0  0  0  0
 26 23  1  0  0  0  0
 27 26  1  0  0  0  0
M  END
>  <MODEL>
8

>  <REMARK>
 VINA RESULT:      -8.9      2.149      5.948
  Name = 
  5 active torsions:
  status: ('A' for Active; 'I' for Inactive)
    1  A    between atoms: N_1  and  C_19
    2  A    between atoms: C_3  and  C_14
    3  A    between atoms: C_3  and  C_19
    4  A    between atoms: C_3  and  C_24
    5  A    between atoms: C_7  and  C_27
                            x       y       z     vdW  Elec       q    Type
                         _______ _______ _______ _____ _____    ______ ____

>  <TORSDO>
F 5

$$$$
=
 OpenBabel11062414423D

 27 30  0  0  1  0  0  0  0  0999 V2000
  185.6750  178.2120  141.0750 N   0  0  0  0  0  0  0  0  0  0  0  0
  183.0510  178.8570  141.3510 N   0  0  0  0  0  0  0  0  0  0  0  0
  182.6060  179.0030  142.6640 C   0  0  0  0  0  0  0  0  0  0  0  0
  183.4900  178.8230  143.8420 C   0  0  0  0  0  0  0  0  0  0  0  0
  181.1780  179.3570  142.8870 C   0  0  0  0  0  1  0  0  0  0  0  0
  182.9540  178.9900  145.0790 F   0  0  0  0  0  0  0  0  0  0  0  0
  185.2160  178.3610  142.3940 C   0  0  0  0  0  0  0  0  0  0  0  0
  184.3410  178.5410  141.3560 C   0  0  0  0  0  0  0  0  0  0  0  0
  184.8980  178.4790  143.7130 C   0  0  0  0  0  0  0  0  0  0  0  0
  188.0530  177.5740  145.6170 C   0  0  0  0  0  0  0  0  0  0  0  0
  189.9270  177.1280  147.7190 N   0  0  0  0  0  0  0  0  0  0  0  0
  185.8640  178.2840  144.8170 C   0  0  0  0  0  0  0  0  0  0  0  0
  185.5080  178.6220  146.1320 C   0  0  0  0  0  3  0  0  0  0  0  0
  187.6850  177.9160  146.9290 C   0  0  0  0  0  0  0  0  0  0  0  0
  189.4190  177.0300  145.3020 C   0  0  0  0  0  2  0  0  0  0  0  0
  186.4110  178.4390  147.1820 C   0  0  0  0  0  3  0  0  0  0  0  0
  188.6510  177.7040  148.0140 C   0  0  0  0  0  0  0  0  0  0  0  0
  188.3680  178.0160  149.2010 O   0  0  0  0  0  0  0  0  0  0  0  0
  190.2920  176.8090  146.5130 C   0  0  0  0  0  3  0  0  0  0  0  0
  187.1440  177.7630  144.5730 C   0  0  0  0  0  3  0  0  0  0  0  0
  186.4300  178.6280  138.9220 O   0  0  0  0  0  1  0  0  0  0  0  0
  186.7530  177.9990  140.1260 C   0  0  1  0  0  3  0  0  0  0  0  0
  188.0730  178.5540  140.6780 C   0  0  1  0  0  3  0  0  0  0  0  0
  189.7670  177.8780  142.1880 O   0  0  0  0  0  0  0  0  0  0  0  0
  188.7520  177.5720  141.5860 C   0  0  0  0  0  3  0  0  0  0  0  0
  189.0270  178.9530  139.5530 C   0  0  0  0  0  2  0  0  0  0  0  0
  189.6110  177.8270  138.9670 O   0  0  0  0  0  1  0  0  0  0  0  0
  1  8  1  0  0  0  0
  1  7  1  0  0  0  0
  2  8  2  0  0  0  0
  2  3  1  0  0  0  0
  3  5  1  0  0  0  0
  3  4  2  0  0  0  0
  4  6  1  0  0  0  0
  7  9  2  0  0  0  0
  8  7  1  0  0  0  0
  9  4  1  0  0  0  0
  9 12  1  0  0  0  0
 10 14  1  0  0  0  0
 11 17  1  0  0  0  0
 12 13  2  0  0  0  0
 13 16  1  0  0  0  0
 14 16  2  0  0  0  0
 14 17  1  0  0  0  0
 15 10  1  0  0  0  0
 15 19  1  0  0  0  0
 17 18  2  0  0  0  0
 19 11  2  0  0  0  0
 20 12  1  0  0  0  0
 20 10  2  0  0  0  0
 22 21  1  6  0  0  0
 22 23  1  0  0  0  0
 22  1  1  0  0  0  0
 23 26  1  6  0  0  0
 23 25  1  0  0  0  0
 25 24  2  0  0  0  0
 27 26  1  0  0  0  0
M  END
>  <MODEL>
9

>  <REMARK>
 VINA RESULT:      -8.6      2.588      5.911
  Name = 
  5 active torsions:
  status: ('A' for Active; 'I' for Inactive)
    1  A    between atoms: N_1  and  C_19
    2  A    between atoms: C_3  and  C_14
    3  A    between atoms: C_3  and  C_19
    4  A    between atoms: C_3  and  C_24
    5  A    between atoms: C_7  and  C_27
                            x       y       z     vdW  Elec       q    Type
                         _______ _______ _______ _____ _____    ______ ____

>  <TORSDO>
F 5

$$$$
