=
 OpenBabel11062415263D

 48 52  0  0  1  0  0  0  0  0999 V2000
  185.0760  178.1880  142.7190 C   0  0  1  0  0  3  0  0  0  0  0  0
  181.3840  179.2050  143.0640 C   0  0  0  0  0  3  0  0  0  0  0  0
  183.7350  179.0060  144.6980 C   0  0  0  0  0  2  0  0  0  0  0  0
  185.0540  179.7220  140.6670 N   0  0  0  0  0  2  0  0  0  0  0  0
  186.1530  177.6720  143.6970 C   0  0  2  0  0  3  0  0  0  0  0  0
  182.5170  178.6190  142.4830 C   0  0  0  0  0  0  0  0  0  0  0  0
  183.6830  178.2130  143.3880 C   0  0  1  0  0  3  0  0  0  0  0  0
  180.2400  179.2570  140.9240 C   0  0  0  0  0  0  0  0  0  0  0  0
  184.5090  178.7370  139.7210 C   0  0  2  0  0  3  0  0  0  0  0  0
  181.3520  178.6580  140.3430 C   0  0  0  0  0  3  0  0  0  0  0  0
  184.7790  178.4200  145.6410 C   0  0  0  0  0  2  0  0  0  0  0  0
  182.4760  178.3250  141.1000 C   0  0  0  0  0  0  0  0  0  0  0  0
  185.9270  180.4330  142.7030 O   0  0  0  0  0  0  0  0  0  0  0  0
  183.6170  177.6860  140.3860 C   0  0  0  0  0  2  0  0  0  0  0  0
  185.4080  179.4940  142.0430 C   0  0  0  0  0  0  0  0  0  0  0  0
  186.1580  178.4770  144.9990 C   0  0  0  0  0  2  0  0  0  0  0  0
  180.2550  179.5410  142.3100 C   0  0  0  0  0  0  0  0  0  0  0  0
  187.5260  177.5550  143.0920 C   0  0  0  0  0  0  0  0  0  0  0  0
  188.6740  177.9380  143.8510 N   0  0  0  0  0  2  0  0  0  0  0  0
  187.6780  177.0210  141.9610 O   0  0  0  0  0  0  0  0  0  0  0  0
  189.9370  178.0000  143.2600 N   0  0  0  0  0  2  0  0  0  0  0  0
  190.7280  176.9190  143.8270 C   0  0  0  0  0  2  0  0  0  0  0  0
  191.6470  176.5240  146.0720 C   0  0  0  0  0  2  0  0  0  0  0  0
  191.4240  177.3760  145.0700 C   0  0  0  0  0  3  0  0  0  0  0  0
  185.5920  178.0720  138.9100 C   0  0  0  0  0  0  0  0  0  0  0  0
  185.2800  177.2810  137.9800 O   0  0  0  0  0  0  0  0  0  0  0  0
  186.9500  178.3760  139.0980 O   0  0  0  0  0  0  0  0  0  0  0  0
  188.1620  178.6010  136.9270 C   0  0  0  0  0  2  0  0  0  0  0  0
  188.8420  177.6800  135.9100 C   0  0  0  0  0  2  0  0  0  0  0  0
  188.0050  177.9540  138.2760 C   0  0  0  0  0  0  0  0  0  0  0  0
  189.9990  176.9320  136.5160 C   0  0  0  0  0  3  0  0  0  0  0  0
  189.9810  176.5850  137.8030 C   0  0  0  0  0  0  0  0  0  0  0  0
  190.9920  175.8460  138.3140 F   0  0  0  0  0  0  0  0  0  0  0  0
  188.8820  177.0270  138.6790 C   0  0  0  0  0  3  0  0  0  0  0  0
  178.9310  179.9860  144.2570 O   0  0  0  0  0  0  0  0  0  0  0  0
  179.1490  180.1880  143.0340 C   0  0  0  0  0  3  0  0  0  0  0  0
  179.0470  179.5060  140.0520 C   0  0  0  0  0  2  0  0  0  0  0  0
  179.4610  179.7120  138.5980 C   0  0  1  0  0  3  0  0  0  0  0  0
  178.9310  178.6180  137.8050 N   0  0  0  0  0  1  0  0  0  0  0  0
  179.3990  181.2050  136.6150 C   0  0  0  0  0  3  0  0  0  0  0  0
  179.6270  182.1690  138.6970 N   0  0  0  0  0  0  0  0  0  0  0  0
  180.2060  182.2520  136.5950 C   0  0  0  0  0  0  0  0  0  0  0  0
  180.3330  182.8310  137.8780 N   0  0  0  0  0  0  0  0  0  0  0  0
  178.9580  181.0470  138.0420 C   0  0  2  0  0  3  0  0  0  0  0  0
  180.8490  182.8040  135.3640 C   0  0  0  0  0  2  0  0  0  0  0  0
  180.5040  184.2440  135.2000 C   0  0  0  0  0  0  0  0  0  0  0  0
  181.2920  185.1300  135.6020 O   0  0  0  0  0  1  0  0  0  0  0  0
  179.3140  184.6090  134.5950 O   0  0  0  0  0  0  0  0  0  0  0  0
  1 15  1  1  0  0  0
  1  7  1  0  0  0  0
  1  5  1  0  0  0  0
  3 11  1  0  0  0  0
  4 15  1  0  0  0  0
  5 18  1  6  0  0  0
  5 16  1  0  0  0  0
  6  2  1  0  0  0  0
  6  7  1  0  0  0  0
  7  3  1  1  0  0  0
  8 17  1  0  0  0  0
  9 25  1  1  0  0  0
  9 14  1  0  0  0  0
  9  4  1  0  0  0  0
 10  8  2  0  0  0  0
 10 12  1  0  0  0  0
 12  6  2  0  0  0  0
 14 12  1  0  0  0  0
 15 13  2  0  0  0  0
 16 11  1  0  0  0  0
 17 36  1  0  0  0  0
 17  2  2  0  0  0  0
 18 19  1  0  0  0  0
 20 18  2  0  0  0  0
 21 22  1  0  0  0  0
 21 19  1  0  0  0  0
 22 24  1  0  0  0  0
 24 23  2  0  0  0  0
 25 27  1  0  0  0  0
 26 25  2  0  0  0  0
 28 30  1  0  0  0  0
 29 31  1  0  0  0  0
 29 28  1  0  0  0  0
 30 34  2  0  0  0  0
 30 27  1  0  0  0  0
 31 32  2  0  0  0  0
 32 33  1  0  0  0  0
 32 34  1  0  0  0  0
 36 35  2  0  0  0  0
 37  8  1  0  0  0  0
 38 39  1  6  0  0  0
 38 37  1  0  0  0  0
 40 44  1  0  0  0  0
 42 40  2  0  0  0  0
 42 43  1  0  0  0  0
 43 41  2  0  0  0  0
 44 38  1  1  0  0  0
 44 41  1  0  0  0  0
 45 42  1  0  0  0  0
 46 45  1  0  0  0  0
 46 47  1  0  0  0  0
 48 46  2  0  0  0  0
M  END
>  <MODEL>
1

>  <REMARK>
 VINA RESULT:      -8.1      0.000      0.000
  Name = 
  13 active torsions:
  status: ('A' for Active; 'I' for Inactive)
    1  A    between atoms: C_2  and  C_10
    2  A    between atoms: C_6  and  C_22
    3  A    between atoms: C_6  and  O_35
    4  A    between atoms: C_8  and  C_26
    5  A    between atoms: C_8  and  N_37
    6  A    between atoms: C_14  and  C_18
    7  A    between atoms: C_14  and  C_47
    8  A    between atoms: C_16  and  O_35
    9  A    between atoms: C_17  and  C_40
   10  A    between atoms: C_18  and  C_21
   11  A    between atoms: N_24  and  N_37
   12  A    between atoms: C_33  and  C_48
   13  A    between atoms: C_38  and  C_40
                            x       y       z     vdW  Elec       q    Type
                         _______ _______ _______ _____ _____    ______ ____

>  <TORSDO>
F 13

$$$$
=
 OpenBabel11062415263D

 48 52  0  0  1  0  0  0  0  0999 V2000
  189.3700  177.9410  142.5890 C   0  0  1  0  0  3  0  0  0  0  0  0
  188.7020  177.4870  138.8290 C   0  0  0  0  0  3  0  0  0  0  0  0
  190.8340  177.0960  140.7120 C   0  0  0  0  0  2  0  0  0  0  0  0
  187.1420  176.7100  142.8850 N   0  0  0  0  0  2  0  0  0  0  0  0
  190.6370  178.1480  143.4470 C   0  0  2  0  0  3  0  0  0  0  0  0
  188.4960  177.9570  140.1350 C   0  0  0  0  0  0  0  0  0  0  0  0
  189.6940  178.0510  141.0820 C   0  0  1  0  0  3  0  0  0  0  0  0
  186.3810  177.8970  138.2510 C   0  0  0  0  0  0  0  0  0  0  0  0
  186.2720  177.8840  142.7160 C   0  0  2  0  0  3  0  0  0  0  0  0
  186.1720  178.3820  139.5370 C   0  0  0  0  0  3  0  0  0  0  0  0
  192.0700  177.3820  141.5550 C   0  0  0  0  0  2  0  0  0  0  0  0
  187.2060  178.4310  140.4720 C   0  0  0  0  0  0  0  0  0  0  0  0
  189.1770  175.6110  143.1340 O   0  0  0  0  0  0  0  0  0  0  0  0
  186.8830  178.9680  141.8230 C   0  0  0  0  0  2  0  0  0  0  0  0
  188.5810  176.6980  142.9140 C   0  0  0  0  0  0  0  0  0  0  0  0
  191.7550  177.1900  143.0320 C   0  0  0  0  0  2  0  0  0  0  0  0
  187.6690  177.4360  137.8890 C   0  0  0  0  0  0  0  0  0  0  0  0
  190.3840  178.1230  144.9300 C   0  0  0  0  0  0  0  0  0  0  0  0
  191.0560  177.1660  145.7510 N   0  0  0  0  0  2  0  0  0  0  0  0
  189.6670  179.0090  145.4670 O   0  0  0  0  0  0  0  0  0  0  0  0
  190.7150  177.0090  147.0960 N   0  0  0  0  0  2  0  0  0  0  0  0
  189.4390  176.3120  147.1350 C   0  0  0  0  0  2  0  0  0  0  0  0
  188.8180  178.1630  148.6290 C   0  0  0  0  0  2  0  0  0  0  0  0
  188.4370  177.0990  147.9190 C   0  0  0  0  0  3  0  0  0  0  0  0
  185.8470  178.4680  144.0390 C   0  0  0  0  0  0  0  0  0  0  0  0
  186.5730  178.3050  145.0560 O   0  0  0  0  0  0  0  0  0  0  0  0
  184.7010  179.2710  144.1590 O   0  0  0  0  0  0  0  0  0  0  0  0
  183.3280  178.6100  142.1810 C   0  0  0  0  0  2  0  0  0  0  0  0
  181.9600  178.9560  141.5880 C   0  0  0  0  0  2  0  0  0  0  0  0
  183.4340  178.9740  143.6380 C   0  0  0  0  0  0  0  0  0  0  0  0
  180.8360  178.6030  142.5270 C   0  0  0  0  0  3  0  0  0  0  0  0
  181.0120  178.6680  143.8470 C   0  0  0  0  0  0  0  0  0  0  0  0
  179.9710  178.4240  144.6760 F   0  0  0  0  0  0  0  0  0  0  0  0
  182.3400  178.9730  144.4090 C   0  0  0  0  0  3  0  0  0  0  0  0
  188.1670  175.6520  136.3690 O   0  0  0  0  0  0  0  0  0  0  0  0
  188.0080  176.8850  136.5670 C   0  0  0  0  0  3  0  0  0  0  0  0
  185.2340  177.9560  137.2890 C   0  0  0  0  0  2  0  0  0  0  0  0
  183.9780  177.3330  137.8910 C   0  0  1  0  0  3  0  0  0  0  0  0
  182.9480  178.3540  137.9740 N   0  0  0  0  0  1  0  0  0  0  0  0
  183.5880  174.8810  137.8550 C   0  0  0  0  0  3  0  0  0  0  0  0
  184.3540  175.8910  135.9290 N   0  0  0  0  0  0  0  0  0  0  0  0
  184.4500  174.1210  137.2020 C   0  0  0  0  0  0  0  0  0  0  0  0
  184.9080  174.7540  136.0230 N   0  0  0  0  0  0  0  0  0  0  0  0
  183.4690  176.1510  137.0620 C   0  0  2  0  0  3  0  0  0  0  0  0
  184.8400  172.7370  137.6100 C   0  0  0  0  0  2  0  0  0  0  0  0
  184.0730  171.7290  136.8260 C   0  0  0  0  0  0  0  0  0  0  0  0
  182.9850  171.2880  137.2610 O   0  0  0  0  0  1  0  0  0  0  0  0
  184.5550  171.2820  135.6090 O   0  0  0  0  0  0  0  0  0  0  0  0
  1 15  1  6  0  0  0
  1  5  1  0  0  0  0
  2  6  1  0  0  0  0
  3 11  1  0  0  0  0
  4 15  1  0  0  0  0
  5 18  1  1  0  0  0
  6 12  2  0  0  0  0
  6  7  1  0  0  0  0
  7  3  1  6  0  0  0
  7  1  1  0  0  0  0
  8 10  2  0  0  0  0
  9  4  1  0  0  0  0
  9 25  1  1  0  0  0
 10 12  1  0  0  0  0
 11 16  1  0  0  0  0
 12 14  1  0  0  0  0
 14  9  1  0  0  0  0
 15 13  2  0  0  0  0
 16  5  1  0  0  0  0
 17  8  1  0  0  0  0
 17  2  2  0  0  0  0
 18 20  2  0  0  0  0
 18 19  1  0  0  0  0
 19 21  1  0  0  0  0
 21 22  1  0  0  0  0
 22 24  1  0  0  0  0
 24 23  2  0  0  0  0
 25 27  1  0  0  0  0
 25 26  2  0  0  0  0
 28 30  1  0  0  0  0
 29 28  1  0  0  0  0
 29 31  1  0  0  0  0
 30 27  1  0  0  0  0
 30 34  2  0  0  0  0
 31 32  2  0  0  0  0
 32 34  1  0  0  0  0
 32 33  1  0  0  0  0
 35 36  2  0  0  0  0
 36 17  1  0  0  0  0
 37 38  1  0  0  0  0
 37  8  1  0  0  0  0
 38 39  1  6  0  0  0
 41 43  2  0  0  0  0
 41 44  1  0  0  0  0
 42 45  1  0  0  0  0
 42 40  2  0  0  0  0
 43 42  1  0  0  0  0
 44 40  1  0  0  0  0
 44 38  1  1  0  0  0
 46 47  1  0  0  0  0
 46 45  1  0  0  0  0
 48 46  2  0  0  0  0
M  END
>  <MODEL>
2

>  <REMARK>
 VINA RESULT:      -8.1      4.339      7.867
  Name = 
  13 active torsions:
  status: ('A' for Active; 'I' for Inactive)
    1  A    between atoms: C_2  and  C_10
    2  A    between atoms: C_6  and  C_22
    3  A    between atoms: C_6  and  O_35
    4  A    between atoms: C_8  and  C_26
    5  A    between atoms: C_8  and  N_37
    6  A    between atoms: C_14  and  C_18
    7  A    between atoms: C_14  and  C_47
    8  A    between atoms: C_16  and  O_35
    9  A    between atoms: C_17  and  C_40
   10  A    between atoms: C_18  and  C_21
   11  A    between atoms: N_24  and  N_37
   12  A    between atoms: C_33  and  C_48
   13  A    between atoms: C_38  and  C_40
                            x       y       z     vdW  Elec       q    Type
                         _______ _______ _______ _____ _____    ______ ____

>  <TORSDO>
F 13

$$$$
=
 OpenBabel11062415263D

 48 52  0  0  1  0  0  0  0  0999 V2000
  189.3780  177.9520  142.4050 C   0  0  1  0  0  3  0  0  0  0  0  0
  188.6030  177.4750  138.6690 C   0  0  0  0  0  3  0  0  0  0  0  0
  190.7980  177.1280  140.4860 C   0  0  0  0  0  2  0  0  0  0  0  0
  187.1830  176.6810  142.7730 N   0  0  0  0  0  2  0  0  0  0  0  0
  190.6660  178.1830  143.2240 C   0  0  2  0  0  3  0  0  0  0  0  0
  188.4290  177.9450  139.9790 C   0  0  0  0  0  0  0  0  0  0  0  0
  189.6530  178.0630  140.8890 C   0  0  1  0  0  3  0  0  0  0  0  0
  186.2580  177.8420  138.1620 C   0  0  0  0  0  0  0  0  0  0  0  0
  186.2870  177.8400  142.6280 C   0  0  2  0  0  3  0  0  0  0  0  0
  186.0800  178.3270  139.4530 C   0  0  0  0  0  3  0  0  0  0  0  0
  192.0550  177.4370  141.2900 C   0  0  0  0  0  2  0  0  0  0  0  0
  187.1420  178.3970  140.3550 C   0  0  0  0  0  0  0  0  0  0  0  0
  189.2440  175.6200  142.9620 O   0  0  0  0  0  0  0  0  0  0  0  0
  186.8500  178.9310  141.7150 C   0  0  0  0  0  2  0  0  0  0  0  0
  188.6210  176.6950  142.7570 C   0  0  0  0  0  0  0  0  0  0  0  0
  191.7890  177.2440  142.7760 C   0  0  0  0  0  2  0  0  0  0  0  0
  187.5420  177.4030  137.7610 C   0  0  0  0  0  0  0  0  0  0  0  0
  190.4590  178.1580  144.7140 C   0  0  0  0  0  0  0  0  0  0  0  0
  191.1360  177.1840  145.5100 N   0  0  0  0  0  2  0  0  0  0  0  0
  189.7780  179.0560  145.2760 O   0  0  0  0  0  0  0  0  0  0  0  0
  190.8350  177.0290  146.8650 N   0  0  0  0  0  2  0  0  0  0  0  0
  189.5320  176.3870  146.9420 C   0  0  0  0  0  2  0  0  0  0  0  0
  189.0560  178.2540  148.4690 C   0  0  0  0  0  2  0  0  0  0  0  0
  188.6380  177.1290  147.8860 C   0  0  0  0  0  3  0  0  0  0  0  0
  185.8920  178.4190  143.9620 C   0  0  0  0  0  0  0  0  0  0  0  0
  186.6300  178.2340  144.9660 O   0  0  0  0  0  0  0  0  0  0  0  0
  184.7630  179.2420  144.1070 O   0  0  0  0  0  0  0  0  0  0  0  0
  183.3370  178.6270  142.1510 C   0  0  0  0  0  2  0  0  0  0  0  0
  181.9600  178.9980  141.5950 C   0  0  0  0  0  2  0  0  0  0  0  0
  183.4810  178.9680  143.6100 C   0  0  0  0  0  0  0  0  0  0  0  0
  180.8540  178.6450  142.5540 C   0  0  0  0  0  3  0  0  0  0  0  0
  181.0610  178.6880  143.8700 C   0  0  0  0  0  0  0  0  0  0  0  0
  180.0360  178.4450  144.7180 F   0  0  0  0  0  0  0  0  0  0  0  0
  182.4040  178.9690  144.4050 C   0  0  0  0  0  3  0  0  0  0  0  0
  188.0010  175.6220  136.2260 O   0  0  0  0  0  0  0  0  0  0  0  0
  187.8510  176.8540  136.4310 C   0  0  0  0  0  3  0  0  0  0  0  0
  185.0810  177.8780  137.2350 C   0  0  0  0  0  2  0  0  0  0  0  0
  184.1580  176.6860  137.4720 C   0  0  1  0  0  3  0  0  0  0  0  0
  184.9720  175.4990  137.6630 N   0  0  0  0  0  1  0  0  0  0  0  0
  182.5030  175.6280  138.9920 C   0  0  0  0  0  3  0  0  0  0  0  0
  182.1680  177.8250  138.3760 N   0  0  0  0  0  0  0  0  0  0  0  0
  181.2240  175.9070  138.8140 C   0  0  0  0  0  0  0  0  0  0  0  0
  181.0360  177.2570  138.4390 N   0  0  0  0  0  0  0  0  0  0  0  0
  183.2510  176.8940  138.6880 C   0  0  2  0  0  3  0  0  0  0  0  0
  180.1050  174.9440  139.0490 C   0  0  0  0  0  2  0  0  0  0  0  0
  179.7250  174.9330  140.4890 C   0  0  0  0  0  0  0  0  0  0  0  0
  179.8960  173.9000  141.1770 O   0  0  0  0  0  1  0  0  0  0  0  0
  179.1880  176.0650  141.0760 O   0  0  0  0  0  0  0  0  0  0  0  0
  1 15  1  6  0  0  0
  1  5  1  0  0  0  0
  2  6  1  0  0  0  0
  3 11  1  0  0  0  0
  5 18  1  1  0  0  0
  6 12  2  0  0  0  0
  6  7  1  0  0  0  0
  7  3  1  6  0  0  0
  7  1  1  0  0  0  0
  8 10  2  0  0  0  0
  9  4  1  0  0  0  0
  9 25  1  1  0  0  0
 10 12  1  0  0  0  0
 11 16  1  0  0  0  0
 12 14  1  0  0  0  0
 14  9  1  0  0  0  0
 15  4  1  0  0  0  0
 15 13  2  0  0  0  0
 16  5  1  0  0  0  0
 17  8  1  0  0  0  0
 17  2  2  0  0  0  0
 18 20  2  0  0  0  0
 18 19  1  0  0  0  0
 19 21  1  0  0  0  0
 21 22  1  0  0  0  0
 22 24  1  0  0  0  0
 24 23  2  0  0  0  0
 25 27  1  0  0  0  0
 25 26  2  0  0  0  0
 28 30  1  0  0  0  0
 29 28  1  0  0  0  0
 29 31  1  0  0  0  0
 30 27  1  0  0  0  0
 30 34  2  0  0  0  0
 31 32  2  0  0  0  0
 32 34  1  0  0  0  0
 32 33  1  0  0  0  0
 35 36  2  0  0  0  0
 36 17  1  0  0  0  0
 37 38  1  0  0  0  0
 37  8  1  0  0  0  0
 38 39  1  1  0  0  0
 41 43  2  0  0  0  0
 41 44  1  0  0  0  0
 42 40  2  0  0  0  0
 42 45  1  0  0  0  0
 43 42  1  0  0  0  0
 44 38  1  6  0  0  0
 44 40  1  0  0  0  0
 45 46  1  0  0  0  0
 46 48  2  0  0  0  0
 46 47  1  0  0  0  0
M  END
>  <MODEL>
3

>  <REMARK>
 VINA RESULT:      -7.7      4.211      7.357
  Name = 
  13 active torsions:
  status: ('A' for Active; 'I' for Inactive)
    1  A    between atoms: C_2  and  C_10
    2  A    between atoms: C_6  and  C_22
    3  A    between atoms: C_6  and  O_35
    4  A    between atoms: C_8  and  C_26
    5  A    between atoms: C_8  and  N_37
    6  A    between atoms: C_14  and  C_18
    7  A    between atoms: C_14  and  C_47
    8  A    between atoms: C_16  and  O_35
    9  A    between atoms: C_17  and  C_40
   10  A    between atoms: C_18  and  C_21
   11  A    between atoms: N_24  and  N_37
   12  A    between atoms: C_33  and  C_48
   13  A    between atoms: C_38  and  C_40
                            x       y       z     vdW  Elec       q    Type
                         _______ _______ _______ _____ _____    ______ ____

>  <TORSDO>
F 13

$$$$
=
 OpenBabel11062415263D

 48 52  0  0  1  0  0  0  0  0999 V2000
  181.6240  177.9890  138.9360 C   0  0  1  0  0  3  0  0  0  0  0  0
  183.6340  178.6030  142.1550 C   0  0  0  0  0  3  0  0  0  0  0  0
  180.9170  178.1340  141.3560 C   0  0  0  0  0  2  0  0  0  0  0  0
  183.4390  176.2550  138.4230 N   0  0  0  0  0  2  0  0  0  0  0  0
  180.1510  178.1960  138.5220 C   0  0  2  0  0  3  0  0  0  0  0  0
  183.3680  178.5780  140.7780 C   0  0  0  0  0  0  0  0  0  0  0  0
  181.9140  178.6380  140.3070 C   0  0  1  0  0  3  0  0  0  0  0  0
  186.0270  178.6360  141.7530 C   0  0  0  0  0  0  0  0  0  0  0  0
  184.4160  177.1930  137.8460 C   0  0  2  0  0  3  0  0  0  0  0  0
  185.7730  178.6310  140.3860 C   0  0  0  0  0  3  0  0  0  0  0  0
  179.4850  178.4120  140.9160 C   0  0  0  0  0  2  0  0  0  0  0  0
  184.4690  178.6160  139.8900 C   0  0  0  0  0  0  0  0  0  0  0  0
  181.3700  175.6260  139.2770 O   0  0  0  0  0  0  0  0  0  0  0  0
  184.3000  178.6110  138.4110 C   0  0  0  0  0  2  0  0  0  0  0  0
  182.1060  176.5610  138.8660 C   0  0  0  0  0  0  0  0  0  0  0  0
  179.1910  177.6990  139.6040 C   0  0  0  0  0  2  0  0  0  0  0  0
  184.9390  178.6180  142.6570 C   0  0  0  0  0  0  0  0  0  0  0  0
  179.8130  177.6480  137.1620 C   0  0  0  0  0  0  0  0  0  0  0  0
  179.1080  176.4110  137.0470 N   0  0  0  0  0  2  0  0  0  0  0  0
  180.0510  178.3260  136.1270 O   0  0  0  0  0  0  0  0  0  0  0  0
  178.9310  175.7980  135.8060 N   0  0  0  0  0  2  0  0  0  0  0  0
  179.7910  174.6250  135.7820 C   0  0  0  0  0  2  0  0  0  0  0  0
  179.4320  172.7520  137.3340 C   0  0  0  0  0  2  0  0  0  0  0  0
  179.0400  173.4160  136.2450 C   0  0  0  0  0  3  0  0  0  0  0  0
  184.3550  177.2170  136.3400 C   0  0  0  0  0  0  0  0  0  0  0  0
  183.2410  177.1270  135.7590 O   0  0  0  0  0  0  0  0  0  0  0  0
  185.5010  177.4280  135.5570 O   0  0  0  0  0  0  0  0  0  0  0  0
  187.6530  176.2260  135.9560 C   0  0  0  0  0  2  0  0  0  0  0  0
  188.7390  176.1770  137.0350 C   0  0  0  0  0  2  0  0  0  0  0  0
  186.8200  177.4770  136.0320 C   0  0  0  0  0  0  0  0  0  0  0  0
  189.4140  177.5110  137.2120 C   0  0  0  0  0  3  0  0  0  0  0  0
  188.7370  178.6430  137.0150 C   0  0  0  0  0  0  0  0  0  0  0  0
  189.3350  179.8330  137.2550 F   0  0  0  0  0  0  0  0  0  0  0  0
  187.3530  178.6070  136.5110 C   0  0  0  0  0  3  0  0  0  0  0  0
  184.5470  179.4710  144.8620 O   0  0  0  0  0  0  0  0  0  0  0  0
  185.0800  178.6040  144.1220 C   0  0  0  0  0  3  0  0  0  0  0  0
  187.4560  178.7340  142.1960 C   0  0  0  0  0  2  0  0  0  0  0  0
  188.2360  177.4790  141.8160 C   0  0  1  0  0  3  0  0  0  0  0  0
  189.1480  177.8090  140.7340 N   0  0  0  0  0  1  0  0  0  0  0  0
  188.1320  176.8090  144.2060 C   0  0  0  0  0  3  0  0  0  0  0  0
  190.0410  177.8590  143.4500 N   0  0  0  0  0  0  0  0  0  0  0  0
  188.6400  177.6310  145.1070 C   0  0  0  0  0  0  0  0  0  0  0  0
  189.8100  178.2640  144.6290 N   0  0  0  0  0  0  0  0  0  0  0  0
  189.0230  176.9120  143.0010 C   0  0  2  0  0  3  0  0  0  0  0  0
  188.0960  177.8170  146.4870 C   0  0  0  0  0  2  0  0  0  0  0  0
  189.1020  177.3990  147.5020 C   0  0  0  0  0  0  0  0  0  0  0  0
  189.6500  176.2760  147.4200 O   0  0  0  0  0  0  0  0  0  0  0  0
  189.4420  178.2520  148.5370 O   0  0  0  0  0  1  0  0  0  0  0  0
  1 15  1  1  0  0  0
  1  7  1  0  0  0  0
  2 17  1  0  0  0  0
  4 15  1  0  0  0  0
  5 18  1  6  0  0  0
  5  1  1  0  0  0  0
  5 16  1  0  0  0  0
  6  2  2  0  0  0  0
  7  6  1  0  0  0  0
  7  3  1  1  0  0  0
  8 37  1  0  0  0  0
  8 17  2  0  0  0  0
  9 25  1  6  0  0  0
  9 14  1  0  0  0  0
  9  4  1  0  0  0  0
 10  8  1  0  0  0  0
 11  3  1  0  0  0  0
 12 10  2  0  0  0  0
 12  6  1  0  0  0  0
 14 12  1  0  0  0  0
 15 13  2  0  0  0  0
 16 11  1  0  0  0  0
 17 36  1  0  0  0  0
 19 18  1  0  0  0  0
 20 18  2  0  0  0  0
 21 19  1  0  0  0  0
 22 21  1  0  0  0  0
 22 24  1  0  0  0  0
 24 23  2  0  0  0  0
 26 25  2  0  0  0  0
 27 30  1  0  0  0  0
 27 25  1  0  0  0  0
 28 30  1  0  0  0  0
 28 29  1  0  0  0  0
 29 31  1  0  0  0  0
 30 34  2  0  0  0  0
 32 31  2  0  0  0  0
 32 33  1  0  0  0  0
 34 32  1  0  0  0  0
 36 35  2  0  0  0  0
 38 39  1  6  0  0  0
 38 37  1  0  0  0  0
 40 42  2  0  0  0  0
 41 43  2  0  0  0  0
 42 45  1  0  0  0  0
 43 42  1  0  0  0  0
 44 38  1  6  0  0  0
 44 41  1  0  0  0  0
 44 40  1  0  0  0  0
 45 46  1  0  0  0  0
 46 48  1  0  0  0  0
 47 46  2  0  0  0  0
M  END
>  <MODEL>
4

>  <REMARK>
 VINA RESULT:      -7.7      3.217      9.073
  Name = 
  13 active torsions:
  status: ('A' for Active; 'I' for Inactive)
    1  A    between atoms: C_2  and  C_10
    2  A    between atoms: C_6  and  C_22
    3  A    between atoms: C_6  and  O_35
    4  A    between atoms: C_8  and  C_26
    5  A    between atoms: C_8  and  N_37
    6  A    between atoms: C_14  and  C_18
    7  A    between atoms: C_14  and  C_47
    8  A    between atoms: C_16  and  O_35
    9  A    between atoms: C_17  and  C_40
   10  A    between atoms: C_18  and  C_21
   11  A    between atoms: N_24  and  N_37
   12  A    between atoms: C_33  and  C_48
   13  A    between atoms: C_38  and  C_40
                            x       y       z     vdW  Elec       q    Type
                         _______ _______ _______ _____ _____    ______ ____

>  <TORSDO>
F 13

$$$$
=
 OpenBabel11062415263D

 48 52  0  0  1  0  0  0  0  0999 V2000
  187.4690  177.0190  137.1540 C   0  0  1  0  0  3  0  0  0  0  0  0
  191.0560  176.6450  138.4880 C   0  0  0  0  0  3  0  0  0  0  0  0
  189.6450  176.4700  135.9940 C   0  0  0  0  0  2  0  0  0  0  0  0
  187.4590  179.2030  138.4940 N   0  0  0  0  0  2  0  0  0  0  0  0
  186.7090  176.4790  135.9240 C   0  0  2  0  0  3  0  0  0  0  0  0
  189.6570  176.7300  138.5380 C   0  0  0  0  0  0  0  0  0  0  0  0
  188.8500  176.3410  137.2980 C   0  0  1  0  0  3  0  0  0  0  0  0
  191.2380  177.2690  140.8260 C   0  0  0  0  0  0  0  0  0  0  0  0
  187.1050  178.6080  139.7920 C   0  0  2  0  0  3  0  0  0  0  0  0
  189.8510  177.3370  140.8900 C   0  0  0  0  0  3  0  0  0  0  0  0
  188.8660  175.8750  134.8280 C   0  0  0  0  0  2  0  0  0  0  0  0
  189.0580  177.0610  139.7760 C   0  0  0  0  0  0  0  0  0  0  0  0
  187.8120  179.1940  136.1950 O   0  0  0  0  0  0  0  0  0  0  0  0
  187.5810  177.1610  139.9450 C   0  0  0  0  0  2  0  0  0  0  0  0
  187.5610  178.5230  137.2310 C   0  0  0  0  0  0  0  0  0  0  0  0
  187.5440  176.6080  134.6490 C   0  0  0  0  0  2  0  0  0  0  0  0
  191.8560  176.9210  139.6010 C   0  0  0  0  0  0  0  0  0  0  0  0
  185.3240  177.0460  135.7600 C   0  0  0  0  0  0  0  0  0  0  0  0
  184.3590  176.8790  136.8000 N   0  0  0  0  0  2  0  0  0  0  0  0
  185.0440  177.7590  134.7600 O   0  0  0  0  0  0  0  0  0  0  0  0
  183.0250  177.2440  136.6060 N   0  0  0  0  0  2  0  0  0  0  0  0
  182.2220  176.4080  137.4850 C   0  0  0  0  0  2  0  0  0  0  0  0
  181.8900  177.1450  139.8060 C   0  0  0  0  0  2  0  0  0  0  0  0
  182.6750  176.5530  138.9030 C   0  0  0  0  0  3  0  0  0  0  0  0
  185.6280  178.7100  140.0770 C   0  0  0  0  0  0  0  0  0  0  0  0
  184.9160  179.5020  139.4040 O   0  0  0  0  0  0  0  0  0  0  0  0
  184.9970  177.8800  141.0180 O   0  0  0  0  0  0  0  0  0  0  0  0
  183.4950  178.7840  142.7960 C   0  0  0  0  0  2  0  0  0  0  0  0
  183.6250  179.6450  144.0560 C   0  0  0  0  0  2  0  0  0  0  0  0
  184.8060  178.1770  142.3750 C   0  0  0  0  0  0  0  0  0  0  0  0
  184.5120  178.9980  145.0880 C   0  0  0  0  0  3  0  0  0  0  0  0
  185.5330  178.2270  144.7140 C   0  0  0  0  0  0  0  0  0  0  0  0
  186.3670  177.7180  145.6490 F   0  0  0  0  0  0  0  0  0  0  0  0
  185.7420  177.9020  143.2920 C   0  0  0  0  0  3  0  0  0  0  0  0
  193.8330  176.7050  138.2670 O   0  0  0  0  0  0  0  0  0  0  0  0
  193.3110  176.8330  139.4040 C   0  0  0  0  0  3  0  0  0  0  0  0
  192.0070  177.5020  142.0910 C   0  0  0  0  0  2  0  0  0  0  0  0
  191.3550  176.7880  143.2710 C   0  0  1  0  0  3  0  0  0  0  0  0
  192.1240  175.5920  143.5710 N   0  0  0  0  0  1  0  0  0  0  0  0
  190.9530  176.8500  145.7210 C   0  0  0  0  0  3  0  0  0  0  0  0
  190.1320  178.5800  144.4380 N   0  0  0  0  0  0  0  0  0  0  0  0
  189.7780  177.2760  146.1500 C   0  0  0  0  0  0  0  0  0  0  0  0
  189.2900  178.3370  145.3540 N   0  0  0  0  0  0  0  0  0  0  0  0
  191.2800  177.6800  144.5130 C   0  0  2  0  0  3  0  0  0  0  0  0
  189.0800  176.7570  147.3660 C   0  0  0  0  0  2  0  0  0  0  0  0
  188.7710  177.8740  148.3020 C   0  0  0  0  0  0  0  0  0  0  0  0
  187.5830  178.1260  148.6100 O   0  0  0  0  0  0  0  0  0  0  0  0
  189.7940  178.6320  148.8430 O   0  0  0  0  0  1  0  0  0  0  0  0
  1 15  1  6  0  0  0
  1  7  1  0  0  0  0
  2  6  2  0  0  0  0
  2 17  1  0  0  0  0
  4  9  1  0  0  0  0
  5 18  1  6  0  0  0
  5  1  1  0  0  0  0
  6 12  1  0  0  0  0
  7  3  1  6  0  0  0
  7  6  1  0  0  0  0
  8 10  1  0  0  0  0
  8 37  1  0  0  0  0
  9 14  1  0  0  0  0
  9 25  1  6  0  0  0
 11  3  1  0  0  0  0
 12 14  1  0  0  0  0
 12 10  2  0  0  0  0
 13 15  2  0  0  0  0
 15  4  1  0  0  0  0
 16 11  1  0  0  0  0
 16  5  1  0  0  0  0
 17  8  2  0  0  0  0
 18 19  1  0  0  0  0
 20 18  2  0  0  0  0
 21 19  1  0  0  0  0
 21 22  1  0  0  0  0
 22 24  1  0  0  0  0
 24 23  2  0  0  0  0
 25 27  1  0  0  0  0
 26 25  2  0  0  0  0
 27 30  1  0  0  0  0
 28 29  1  0  0  0  0
 29 31  1  0  0  0  0
 30 28  1  0  0  0  0
 30 34  2  0  0  0  0
 32 31  2  0  0  0  0
 32 33  1  0  0  0  0
 34 32  1  0  0  0  0
 35 36  2  0  0  0  0
 36 17  1  0  0  0  0
 37 38  1  0  0  0  0
 38 39  1  1  0  0  0
 40 42  2  0  0  0  0
 41 44  1  0  0  0  0
 41 43  2  0  0  0  0
 42 45  1  0  0  0  0
 43 42  1  0  0  0  0
 44 38  1  6  0  0  0
 44 40  1  0  0  0  0
 45 46  1  0  0  0  0
 46 47  2  0  0  0  0
 46 48  1  0  0  0  0
M  END
>  <MODEL>
5

>  <REMARK>
 VINA RESULT:      -7.6      3.914     10.720
  Name = 
  13 active torsions:
  status: ('A' for Active; 'I' for Inactive)
    1  A    between atoms: C_2  and  C_10
    2  A    between atoms: C_6  and  C_22
    3  A    between atoms: C_6  and  O_35
    4  A    between atoms: C_8  and  C_26
    5  A    between atoms: C_8  and  N_37
    6  A    between atoms: C_14  and  C_18
    7  A    between atoms: C_14  and  C_47
    8  A    between atoms: C_16  and  O_35
    9  A    between atoms: C_17  and  C_40
   10  A    between atoms: C_18  and  C_21
   11  A    between atoms: N_24  and  N_37
   12  A    between atoms: C_33  and  C_48
   13  A    between atoms: C_38  and  C_40
                            x       y       z     vdW  Elec       q    Type
                         _______ _______ _______ _____ _____    ______ ____

>  <TORSDO>
F 13

$$$$
=
 OpenBabel11062415263D

 48 52  0  0  1  0  0  0  0  0999 V2000
  181.5190  178.4300  139.9130 C   0  0  1  0  0  3  0  0  0  0  0  0
  183.7540  178.7240  143.0280 C   0  0  0  0  0  3  0  0  0  0  0  0
  180.9630  178.5820  142.3720 C   0  0  0  0  0  2  0  0  0  0  0  0
  183.1000  176.5220  139.2590 N   0  0  0  0  0  2  0  0  0  0  0  0
  180.0590  178.8110  139.5870 C   0  0  2  0  0  3  0  0  0  0  0  0
  183.4140  178.7690  141.6680 C   0  0  0  0  0  0  0  0  0  0  0  0
  181.9520  179.0030  141.2810 C   0  0  1  0  0  3  0  0  0  0  0  0
  186.1100  178.5040  142.4940 C   0  0  0  0  0  0  0  0  0  0  0  0
  184.1430  177.3620  138.6510 C   0  0  2  0  0  3  0  0  0  0  0  0
  185.7850  178.5670  141.1430 C   0  0  0  0  0  3  0  0  0  0  0  0
  179.5500  179.0290  142.0190 C   0  0  0  0  0  2  0  0  0  0  0  0
  184.4630  178.7100  140.7210 C   0  0  0  0  0  0  0  0  0  0  0  0
  181.0210  176.1000  140.2130 O   0  0  0  0  0  0  0  0  0  0  0  0
  184.2160  178.7680  139.2530 C   0  0  0  0  0  2  0  0  0  0  0  0
  181.8340  176.9600  139.7840 C   0  0  0  0  0  0  0  0  0  0  0  0
  179.1080  178.3910  140.7090 C   0  0  0  0  0  2  0  0  0  0  0  0
  185.0770  178.5800  143.4570 C   0  0  0  0  0  0  0  0  0  0  0  0
  179.5900  178.3440  138.2360 C   0  0  0  0  0  0  0  0  0  0  0  0
  179.9950  179.0450  137.0590 N   0  0  0  0  0  2  0  0  0  0  0  0
  178.9310  177.2750  138.1260 O   0  0  0  0  0  0  0  0  0  0  0  0
  179.4420  178.7390  135.8140 N   0  0  0  0  0  2  0  0  0  0  0  0
  180.1700  179.5140  134.8210 C   0  0  0  0  0  2  0  0  0  0  0  0
  180.6690  181.6280  135.9720 C   0  0  0  0  0  2  0  0  0  0  0  0
  179.9610  180.9790  135.0450 C   0  0  0  0  0  3  0  0  0  0  0  0
  184.0060  177.4370  137.1510 C   0  0  0  0  0  0  0  0  0  0  0  0
  182.8640  177.5690  136.6350 O   0  0  0  0  0  0  0  0  0  0  0  0
  185.1270  177.4540  136.3060 O   0  0  0  0  0  0  0  0  0  0  0  0
  187.1270  176.1160  136.9710 C   0  0  0  0  0  2  0  0  0  0  0  0
  188.2580  176.2070  137.9990 C   0  0  0  0  0  2  0  0  0  0  0  0
  186.4660  177.4450  136.7210 C   0  0  0  0  0  0  0  0  0  0  0  0
  189.1070  177.4340  137.7920 C   0  0  0  0  0  3  0  0  0  0  0  0
  188.5690  178.5540  137.3090 C   0  0  0  0  0  0  0  0  0  0  0  0
  189.3270  179.6700  137.2030 F   0  0  0  0  0  0  0  0  0  0  0  0
  187.1650  178.5770  136.8640 C   0  0  0  0  0  3  0  0  0  0  0  0
  184.3720  178.7120  145.7430 O   0  0  0  0  0  0  0  0  0  0  0  0
  185.2930  178.5070  144.9100 C   0  0  0  0  0  3  0  0  0  0  0  0
  187.5630  178.4300  142.8580 C   0  0  0  0  0  2  0  0  0  0  0  0
  188.3370  177.5730  141.8620 C   0  0  1  0  0  3  0  0  0  0  0  0
  188.9970  178.4500  140.9100 N   0  0  0  0  0  1  0  0  0  0  0  0
  189.0770  176.5980  144.0230 C   0  0  0  0  0  3  0  0  0  0  0  0
  190.6910  177.3180  142.5420 N   0  0  0  0  0  0  0  0  0  0  0  0
  190.1070  177.1520  144.6370 C   0  0  0  0  0  0  0  0  0  0  0  0
  191.0880  177.5860  143.7160 N   0  0  0  0  0  0  0  0  0  0  0  0
  189.3750  176.6840  142.5530 C   0  0  2  0  0  3  0  0  0  0  0  0
  190.2590  177.2470  146.1220 C   0  0  0  0  0  2  0  0  0  0  0  0
  191.4900  176.5330  146.5630 C   0  0  0  0  0  0  0  0  0  0  0  0
  192.0320  176.8300  147.6530 O   0  0  0  0  0  1  0  0  0  0  0  0
  192.0350  175.5340  145.7770 O   0  0  0  0  0  0  0  0  0  0  0  0
  1 15  1  1  0  0  0
  1  7  1  0  0  0  0
  2 17  1  0  0  0  0
  4 15  1  0  0  0  0
  5 18  1  6  0  0  0
  5  1  1  0  0  0  0
  5 16  1  0  0  0  0
  6  2  2  0  0  0  0
  7  6  1  0  0  0  0
  7  3  1  1  0  0  0
  8 37  1  0  0  0  0
  8 17  2  0  0  0  0
  9 25  1  6  0  0  0
  9 14  1  0  0  0  0
  9  4  1  0  0  0  0
 10  8  1  0  0  0  0
 11  3  1  0  0  0  0
 12 10  2  0  0  0  0
 12  6  1  0  0  0  0
 14 12  1  0  0  0  0
 15 13  2  0  0  0  0
 16 11  1  0  0  0  0
 17 36  1  0  0  0  0
 19 18  1  0  0  0  0
 20 18  2  0  0  0  0
 21 19  1  0  0  0  0
 22 24  1  0  0  0  0
 22 21  1  0  0  0  0
 24 23  2  0  0  0  0
 26 25  2  0  0  0  0
 27 30  1  0  0  0  0
 27 25  1  0  0  0  0
 28 29  1  0  0  0  0
 30 34  2  0  0  0  0
 30 28  1  0  0  0  0
 31 29  1  0  0  0  0
 32 31  2  0  0  0  0
 33 32  1  0  0  0  0
 34 32  1  0  0  0  0
 36 35  2  0  0  0  0
 38 39  1  6  0  0  0
 38 37  1  0  0  0  0
 40 42  2  0  0  0  0
 41 44  1  0  0  0  0
 41 43  2  0  0  0  0
 42 45  1  0  0  0  0
 43 42  1  0  0  0  0
 44 38  1  6  0  0  0
 44 40  1  0  0  0  0
 45 46  1  0  0  0  0
 46 47  1  0  0  0  0
 48 46  2  0  0  0  0
M  END
>  <MODEL>
6

>  <REMARK>
 VINA RESULT:      -7.5      2.700      9.230
  Name = 
  13 active torsions:
  status: ('A' for Active; 'I' for Inactive)
    1  A    between atoms: C_2  and  C_10
    2  A    between atoms: C_6  and  C_22
    3  A    between atoms: C_6  and  O_35
    4  A    between atoms: C_8  and  C_26
    5  A    between atoms: C_8  and  N_37
    6  A    between atoms: C_14  and  C_18
    7  A    between atoms: C_14  and  C_47
    8  A    between atoms: C_16  and  O_35
    9  A    between atoms: C_17  and  C_40
   10  A    between atoms: C_18  and  C_21
   11  A    between atoms: N_24  and  N_37
   12  A    between atoms: C_33  and  C_48
   13  A    between atoms: C_38  and  C_40
                            x       y       z     vdW  Elec       q    Type
                         _______ _______ _______ _____ _____    ______ ____

>  <TORSDO>
F 13

$$$$
=
 OpenBabel11062415263D

 48 52  0  0  1  0  0  0  0  0999 V2000
  184.9850  178.2210  142.6840 C   0  0  1  0  0  3  0  0  0  0  0  0
  181.2660  179.1590  142.9570 C   0  0  0  0  0  3  0  0  0  0  0  0
  183.5900  179.0150  144.6350 C   0  0  0  0  0  2  0  0  0  0  0  0
  184.9680  179.7500  140.6280 N   0  0  0  0  0  2  0  0  0  0  0  0
  186.0550  177.7320  143.6830 C   0  0  2  0  0  3  0  0  0  0  0  0
  182.4230  178.5960  142.3990 C   0  0  0  0  0  0  0  0  0  0  0  0
  183.5800  178.2180  143.3260 C   0  0  1  0  0  3  0  0  0  0  0  0
  180.1620  179.1800  140.7960 C   0  0  0  0  0  0  0  0  0  0  0  0
  184.4630  178.7510  139.6740 C   0  0  2  0  0  3  0  0  0  0  0  0
  181.2970  178.6040  140.2370 C   0  0  0  0  0  3  0  0  0  0  0  0
  184.6290  178.4540  145.5990 C   0  0  0  0  0  2  0  0  0  0  0  0
  182.4140  178.2980  141.0160 C   0  0  0  0  0  0  0  0  0  0  0  0
  185.7870  180.4850  142.6770 O   0  0  0  0  0  0  0  0  0  0  0  0
  183.5810  177.6820  140.3250 C   0  0  0  0  0  2  0  0  0  0  0  0
  185.3010  179.5330  142.0100 C   0  0  0  0  0  0  0  0  0  0  0  0
  186.0180  178.5400  144.9820 C   0  0  0  0  0  2  0  0  0  0  0  0
  180.1440  179.4680  142.1810 C   0  0  0  0  0  0  0  0  0  0  0  0
  187.4410  177.6440  143.1040 C   0  0  0  0  0  0  0  0  0  0  0  0
  188.4500  176.8940  143.7830 N   0  0  0  0  0  2  0  0  0  0  0  0
  187.6890  178.1360  141.9710 O   0  0  0  0  0  0  0  0  0  0  0  0
  189.7800  176.9350  143.3610 N   0  0  0  0  0  2  0  0  0  0  0  0
  190.4390  177.9830  144.1250 C   0  0  0  0  0  2  0  0  0  0  0  0
  191.6740  176.4200  145.5660 C   0  0  0  0  0  2  0  0  0  0  0  0
  190.8550  177.4690  145.4670 C   0  0  0  0  0  3  0  0  0  0  0  0
  185.5750  178.1080  138.8850 C   0  0  0  0  0  0  0  0  0  0  0  0
  185.3010  177.2490  138.0050 O   0  0  0  0  0  0  0  0  0  0  0  0
  186.9140  178.5030  139.0370 O   0  0  0  0  0  0  0  0  0  0  0  0
  188.3450  178.6780  136.9980 C   0  0  0  0  0  2  0  0  0  0  0  0
  189.0350  177.7280  136.0150 C   0  0  0  0  0  2  0  0  0  0  0  0
  188.0020  178.0100  138.3020 C   0  0  0  0  0  0  0  0  0  0  0  0
  190.0570  176.8590  136.6990 C   0  0  0  0  0  3  0  0  0  0  0  0
  189.8840  176.4790  137.9640 C   0  0  0  0  0  0  0  0  0  0  0  0
  190.7720  175.6350  138.5390 F   0  0  0  0  0  0  0  0  0  0  0  0
  188.7500  176.9940  138.7500 C   0  0  0  0  0  3  0  0  0  0  0  0
  178.9310  180.1310  144.1370 O   0  0  0  0  0  0  0  0  0  0  0  0
  179.0110  180.0920  142.8820 C   0  0  0  0  0  3  0  0  0  0  0  0
  178.9800  179.4010  139.9010 C   0  0  0  0  0  2  0  0  0  0  0  0
  179.0840  180.7360  139.1710 C   0  0  1  0  0  3  0  0  0  0  0  0
  180.2160  181.4710  139.7080 N   0  0  0  0  0  1  0  0  0  0  0  0
  179.0490  179.1120  137.2920 C   0  0  0  0  0  3  0  0  0  0  0  0
  180.6440  180.7770  137.2640 N   0  0  0  0  0  0  0  0  0  0  0  0
  180.2050  178.6890  136.8110 C   0  0  0  0  0  0  0  0  0  0  0  0
  181.1700  179.7210  136.7990 N   0  0  0  0  0  0  0  0  0  0  0  0
  179.2560  180.5540  137.6600 C   0  0  2  0  0  3  0  0  0  0  0  0
  180.4490  177.3140  136.2770 C   0  0  0  0  0  2  0  0  0  0  0  0
  180.9020  176.4060  137.3680 C   0  0  0  0  0  0  0  0  0  0  0  0
  180.0890  176.0080  138.2340 O   0  0  0  0  0  1  0  0  0  0  0  0
  182.2210  175.9920  137.4260 O   0  0  0  0  0  0  0  0  0  0  0  0
  1 15  1  1  0  0  0
  1  7  1  0  0  0  0
  1  5  1  0  0  0  0
  3 11  1  0  0  0  0
  4 15  1  0  0  0  0
  5 18  1  6  0  0  0
  5 16  1  0  0  0  0
  6  2  1  0  0  0  0
  6  7  1  0  0  0  0
  7  3  1  1  0  0  0
  8 17  1  0  0  0  0
  9 25  1  1  0  0  0
  9 14  1  0  0  0  0
  9  4  1  0  0  0  0
 10  8  2  0  0  0  0
 10 12  1  0  0  0  0
 12  6  2  0  0  0  0
 14 12  1  0  0  0  0
 15 13  2  0  0  0  0
 16 11  1  0  0  0  0
 17 36  1  0  0  0  0
 17  2  2  0  0  0  0
 18 19  1  0  0  0  0
 20 18  2  0  0  0  0
 21 19  1  0  0  0  0
 21 22  1  0  0  0  0
 22 24  1  0  0  0  0
 24 23  2  0  0  0  0
 25 27  1  0  0  0  0
 26 25  2  0  0  0  0
 28 30  1  0  0  0  0
 29 31  1  0  0  0  0
 29 28  1  0  0  0  0
 30 34  2  0  0  0  0
 30 27  1  0  0  0  0
 31 32  2  0  0  0  0
 32 33  1  0  0  0  0
 32 34  1  0  0  0  0
 36 35  2  0  0  0  0
 37  8  1  0  0  0  0
 38 39  1  1  0  0  0
 38 37  1  0  0  0  0
 40 44  1  0  0  0  0
 41 44  1  0  0  0  0
 42 40  2  0  0  0  0
 43 42  1  0  0  0  0
 43 41  2  0  0  0  0
 44 38  1  1  0  0  0
 45 42  1  0  0  0  0
 45 46  1  0  0  0  0
 46 48  2  0  0  0  0
 46 47  1  0  0  0  0
M  END
>  <MODEL>
7

>  <REMARK>
 VINA RESULT:      -7.4      2.211      2.645
  Name = 
  13 active torsions:
  status: ('A' for Active; 'I' for Inactive)
    1  A    between atoms: C_2  and  C_10
    2  A    between atoms: C_6  and  C_22
    3  A    between atoms: C_6  and  O_35
    4  A    between atoms: C_8  and  C_26
    5  A    between atoms: C_8  and  N_37
    6  A    between atoms: C_14  and  C_18
    7  A    between atoms: C_14  and  C_47
    8  A    between atoms: C_16  and  O_35
    9  A    between atoms: C_17  and  C_40
   10  A    between atoms: C_18  and  C_21
   11  A    between atoms: N_24  and  N_37
   12  A    between atoms: C_33  and  C_48
   13  A    between atoms: C_38  and  C_40
                            x       y       z     vdW  Elec       q    Type
                         _______ _______ _______ _____ _____    ______ ____

>  <TORSDO>
F 13

$$$$
=
 OpenBabel11062415263D

 48 52  0  0  1  0  0  0  0  0999 V2000
  182.0150  179.1440  141.1170 C   0  0  1  0  0  3  0  0  0  0  0  0
  183.7740  178.6070  144.4940 C   0  0  0  0  0  3  0  0  0  0  0  0
  181.1100  178.8750  143.4600 C   0  0  0  0  0  2  0  0  0  0  0  0
  183.5340  177.2470  140.3020 N   0  0  0  0  0  2  0  0  0  0  0  0
  180.6520  179.7250  140.6860 C   0  0  2  0  0  3  0  0  0  0  0  0
  183.6450  178.9460  143.1400 C   0  0  0  0  0  0  0  0  0  0  0  0
  182.2790  179.3960  142.6190 C   0  0  1  0  0  3  0  0  0  0  0  0
  186.1620  178.2580  144.2430 C   0  0  0  0  0  0  0  0  0  0  0  0
  184.7140  178.0800  140.0220 C   0  0  2  0  0  3  0  0  0  0  0  0
  186.0480  178.6110  142.9030 C   0  0  0  0  0  3  0  0  0  0  0  0
  179.8010  179.5210  143.0230 C   0  0  0  0  0  2  0  0  0  0  0  0
  184.8180  178.9660  142.3480 C   0  0  0  0  0  0  0  0  0  0  0  0
  181.3100  176.8620  140.8660 O   0  0  0  0  0  0  0  0  0  0  0  0
  184.7980  179.3280  140.9040 C   0  0  0  0  0  2  0  0  0  0  0  0
  182.2390  177.7020  140.7330 C   0  0  0  0  0  0  0  0  0  0  0  0
  179.5150  179.1950  141.5630 C   0  0  0  0  0  2  0  0  0  0  0  0
  185.0040  178.2510  145.0560 C   0  0  0  0  0  0  0  0  0  0  0  0
  180.3580  179.5760  139.2180 C   0  0  0  0  0  0  0  0  0  0  0  0
  181.0750  180.3610  138.2650 N   0  0  0  0  0  2  0  0  0  0  0  0
  179.5600  178.6870  138.8170 O   0  0  0  0  0  0  0  0  0  0  0  0
  180.7080  180.3670  136.9180 N   0  0  0  0  0  2  0  0  0  0  0  0
  179.9400  181.5820  136.6900 C   0  0  0  0  0  2  0  0  0  0  0  0
  180.8100  183.7760  136.0030 C   0  0  0  0  0  2  0  0  0  0  0  0
  180.7970  182.7900  136.9020 C   0  0  0  0  0  3  0  0  0  0  0  0
  184.8090  178.4550  138.5650 C   0  0  0  0  0  0  0  0  0  0  0  0
  183.7690  178.4630  137.8540 O   0  0  0  0  0  0  0  0  0  0  0  0
  186.0140  178.8860  137.9890 O   0  0  0  0  0  0  0  0  0  0  0  0
  188.2260  178.6990  136.8440 C   0  0  0  0  0  2  0  0  0  0  0  0
  188.8470  177.8780  135.7100 C   0  0  0  0  0  2  0  0  0  0  0  0
  186.9870  178.0580  137.4080 C   0  0  0  0  0  0  0  0  0  0  0  0
  188.8460  176.4040  136.0210 C   0  0  0  0  0  3  0  0  0  0  0  0
  187.8750  175.8690  136.7600 C   0  0  0  0  0  0  0  0  0  0  0  0
  187.8450  174.5320  136.9640 F   0  0  0  0  0  0  0  0  0  0  0  0
  186.8500  176.7270  137.3800 C   0  0  0  0  0  3  0  0  0  0  0  0
  184.9310  178.7320  147.4020 O   0  0  0  0  0  0  0  0  0  0  0  0
  184.9940  177.8790  146.4790 C   0  0  0  0  0  3  0  0  0  0  0  0
  187.5340  177.9690  144.7730 C   0  0  0  0  0  2  0  0  0  0  0  0
  188.1950  176.8330  143.9990 C   0  0  1  0  0  3  0  0  0  0  0  0
  187.3060  176.4230  142.9270 N   0  0  0  0  0  1  0  0  0  0  0  0
  189.3550  177.9050  142.0820 C   0  0  0  0  0  3  0  0  0  0  0  0
  190.3460  176.0720  143.0690 N   0  0  0  0  0  0  0  0  0  0  0  0
  189.9540  177.1240  141.1990 C   0  0  0  0  0  0  0  0  0  0  0  0
  190.5570  176.0070  141.8210 N   0  0  0  0  0  0  0  0  0  0  0  0
  189.5500  177.2460  143.4180 C   0  0  2  0  0  3  0  0  0  0  0  0
  190.0490  177.4160  139.7360 C   0  0  0  0  0  2  0  0  0  0  0  0
  191.0600  176.5300  139.0950 C   0  0  0  0  0  0  0  0  0  0  0  0
  192.2320  176.9350  138.9230 O   0  0  0  0  0  1  0  0  0  0  0  0
  190.7110  175.2530  138.6950 O   0  0  0  0  0  0  0  0  0  0  0  0
  1 15  1  1  0  0  0
  1  7  1  0  0  0  0
  2 17  1  0  0  0  0
  4 15  1  0  0  0  0
  5 18  1  6  0  0  0
  5  1  1  0  0  0  0
  5 16  1  0  0  0  0
  6  2  2  0  0  0  0
  7  6  1  0  0  0  0
  7  3  1  1  0  0  0
  8 37  1  0  0  0  0
  8 17  2  0  0  0  0
  9 25  1  6  0  0  0
  9  4  1  0  0  0  0
  9 14  1  0  0  0  0
 10  8  1  0  0  0  0
 11  3  1  0  0  0  0
 12 10  2  0  0  0  0
 12  6  1  0  0  0  0
 14 12  1  0  0  0  0
 15 13  2  0  0  0  0
 16 11  1  0  0  0  0
 17 36  1  0  0  0  0
 19 18  1  0  0  0  0
 20 18  2  0  0  0  0
 21 19  1  0  0  0  0
 22 24  1  0  0  0  0
 22 21  1  0  0  0  0
 23 24  2  0  0  0  0
 26 25  2  0  0  0  0
 27 25  1  0  0  0  0
 28 30  1  0  0  0  0
 29 31  1  0  0  0  0
 29 28  1  0  0  0  0
 30 27  1  0  0  0  0
 31 32  2  0  0  0  0
 32 33  1  0  0  0  0
 32 34  1  0  0  0  0
 34 30  2  0  0  0  0
 36 35  2  0  0  0  0
 38 39  1  6  0  0  0
 38 37  1  0  0  0  0
 40 44  1  0  0  0  0
 41 44  1  0  0  0  0
 42 43  1  0  0  0  0
 42 40  2  0  0  0  0
 43 41  2  0  0  0  0
 44 38  1  6  0  0  0
 45 42  1  0  0  0  0
 46 45  1  0  0  0  0
 47 46  1  0  0  0  0
 48 46  2  0  0  0  0
M  END
>  <MODEL>
8

>  <REMARK>
 VINA RESULT:      -7.3      2.458      8.375
  Name = 
  13 active torsions:
  status: ('A' for Active; 'I' for Inactive)
    1  A    between atoms: C_2  and  C_10
    2  A    between atoms: C_6  and  C_22
    3  A    between atoms: C_6  and  O_35
    4  A    between atoms: C_8  and  C_26
    5  A    between atoms: C_8  and  N_37
    6  A    between atoms: C_14  and  C_18
    7  A    between atoms: C_14  and  C_47
    8  A    between atoms: C_16  and  O_35
    9  A    between atoms: C_17  and  C_40
   10  A    between atoms: C_18  and  C_21
   11  A    between atoms: N_24  and  N_37
   12  A    between atoms: C_33  and  C_48
   13  A    between atoms: C_38  and  C_40
                            x       y       z     vdW  Elec       q    Type
                         _______ _______ _______ _____ _____    ______ ____

>  <TORSDO>
F 13

$$$$
=
 OpenBabel11062415263D

 48 52  0  0  1  0  0  0  0  0999 V2000
  188.9470  177.8000  143.4480 C   0  0  1  0  0  3  0  0  0  0  0  0
  190.9200  176.7960  140.3050 C   0  0  0  0  0  3  0  0  0  0  0  0
  191.0290  176.4030  143.1460 C   0  0  0  0  0  2  0  0  0  0  0  0
  186.9000  177.0250  142.1140 N   0  0  0  0  0  2  0  0  0  0  0  0
  189.2940  177.9450  144.9460 C   0  0  2  0  0  3  0  0  0  0  0  0
  190.0070  177.5190  141.0860 C   0  0  0  0  0  0  0  0  0  0  0  0
  190.2190  177.5830  142.5990 C   0  0  1  0  0  3  0  0  0  0  0  0
  189.8010  177.4710  138.2610 C   0  0  0  0  0  0  0  0  0  0  0  0
  186.6960  178.2770  141.3690 C   0  0  2  0  0  3  0  0  0  0  0  0
  188.9020  178.2070  139.0250 C   0  0  0  0  0  3  0  0  0  0  0  0
  191.3860  176.6270  144.6110 C   0  0  0  0  0  2  0  0  0  0  0  0
  188.9980  178.2510  140.4170 C   0  0  0  0  0  0  0  0  0  0  0  0
  187.8770  175.6690  143.7320 O   0  0  0  0  0  0  0  0  0  0  0  0
  187.9880  179.0670  141.1460 C   0  0  0  0  0  2  0  0  0  0  0  0
  187.8760  176.7820  143.1430 C   0  0  0  0  0  0  0  0  0  0  0  0
  190.1190  176.7580  145.4460 C   0  0  0  0  0  2  0  0  0  0  0  0
  190.8280  176.7470  138.9110 C   0  0  0  0  0  0  0  0  0  0  0  0
  188.1080  178.2280  145.8260 C   0  0  0  0  0  0  0  0  0  0  0  0
  186.8520  178.5760  145.2400 N   0  0  0  0  0  2  0  0  0  0  0  0
  188.1850  178.0560  147.0720 O   0  0  0  0  0  0  0  0  0  0  0  0
  185.7850  179.0070  146.0310 N   0  0  0  0  0  2  0  0  0  0  0  0
  184.6200  178.2310  145.6360 C   0  0  0  0  0  2  0  0  0  0  0  0
  182.5540  178.6280  144.3650 C   0  0  0  0  0  2  0  0  0  0  0  0
  183.5530  179.1290  145.0940 C   0  0  0  0  0  3  0  0  0  0  0  0
  185.6460  179.1500  142.0070 C   0  0  0  0  0  0  0  0  0  0  0  0
  185.9970  180.1270  142.7210 O   0  0  0  0  0  0  0  0  0  0  0  0
  184.2770  178.9640  141.7570 O   0  0  0  0  0  0  0  0  0  0  0  0
  183.8240  179.3390  139.3310 C   0  0  0  0  0  2  0  0  0  0  0  0
  182.6860  179.0810  138.3390 C   0  0  0  0  0  2  0  0  0  0  0  0
  183.7200  178.4820  140.5630 C   0  0  0  0  0  0  0  0  0  0  0  0
  182.3840  177.6120  138.2020 C   0  0  0  0  0  3  0  0  0  0  0  0
  182.5500  176.7880  139.2360 C   0  0  0  0  0  0  0  0  0  0  0  0
  182.2010  175.4860  139.1200 F   0  0  0  0  0  0  0  0  0  0  0  0
  183.1390  177.2780  140.4940 C   0  0  0  0  0  3  0  0  0  0  0  0
  191.6450  174.6970  137.9780 O   0  0  0  0  0  0  0  0  0  0  0  0
  191.8250  175.9200  138.2130 C   0  0  0  0  0  3  0  0  0  0  0  0
  189.6710  177.5450  136.7690 C   0  0  0  0  0  2  0  0  0  0  0  0
  188.2880  177.0890  136.3140 C   0  0  1  0  0  3  0  0  0  0  0  0
  187.7660  178.0620  135.3700 N   0  0  0  0  0  1  0  0  0  0  0  0
  186.9660  175.3510  135.1310 C   0  0  0  0  0  3  0  0  0  0  0  0
  188.5440  174.6630  136.6650 N   0  0  0  0  0  0  0  0  0  0  0  0
  186.5680  174.2940  135.8180 C   0  0  0  0  0  0  0  0  0  0  0  0
  187.5480  173.8850  136.7520 N   0  0  0  0  0  0  0  0  0  0  0  0
  188.3260  175.7040  135.6620 C   0  0  2  0  0  3  0  0  0  0  0  0
  185.2790  173.5710  135.5920 C   0  0  0  0  0  2  0  0  0  0  0  0
  184.2810  173.9550  136.6280 C   0  0  0  0  0  0  0  0  0  0  0  0
  183.1850  174.4580  136.2900 O   0  0  0  0  0  0  0  0  0  0  0  0
  184.5560  173.7510  137.9690 O   0  0  0  0  0  1  0  0  0  0  0  0
  1 15  1  1  0  0  0
  1  5  1  0  0  0  0
  2  6  1  0  0  0  0
  3 11  1  0  0  0  0
  4 15  1  0  0  0  0
  5 16  1  0  0  0  0
  5 18  1  1  0  0  0
  6  7  1  0  0  0  0
  7  3  1  1  0  0  0
  7  1  1  0  0  0  0
  8 17  1  0  0  0  0
  8 10  2  0  0  0  0
  9 25  1  1  0  0  0
  9  4  1  0  0  0  0
 10 12  1  0  0  0  0
 11 16  1  0  0  0  0
 12  6  2  0  0  0  0
 12 14  1  0  0  0  0
 14  9  1  0  0  0  0
 15 13  2  0  0  0  0
 17  2  2  0  0  0  0
 18 20  2  0  0  0  0
 19 18  1  0  0  0  0
 19 21  1  0  0  0  0
 22 21  1  0  0  0  0
 23 24  2  0  0  0  0
 24 22  1  0  0  0  0
 25 26  2  0  0  0  0
 27 25  1  0  0  0  0
 28 30  1  0  0  0  0
 29 28  1  0  0  0  0
 30 27  1  0  0  0  0
 31 29  1  0  0  0  0
 31 32  2  0  0  0  0
 32 34  1  0  0  0  0
 33 32  1  0  0  0  0
 34 30  2  0  0  0  0
 35 36  2  0  0  0  0
 36 17  1  0  0  0  0
 37  8  1  0  0  0  0
 38 39  1  6  0  0  0
 38 37  1  0  0  0  0
 40 44  1  0  0  0  0
 40 42  2  0  0  0  0
 41 43  2  0  0  0  0
 42 43  1  0  0  0  0
 44 38  1  1  0  0  0
 44 41  1  0  0  0  0
 45 42  1  0  0  0  0
 45 46  1  0  0  0  0
 46 48  1  0  0  0  0
 47 46  2  0  0  0  0
M  END
>  <MODEL>
9

>  <REMARK>
 VINA RESULT:      -7.3      4.236      8.241
  Name = 
  13 active torsions:
  status: ('A' for Active; 'I' for Inactive)
    1  A    between atoms: C_2  and  C_10
    2  A    between atoms: C_6  and  C_22
    3  A    between atoms: C_6  and  O_35
    4  A    between atoms: C_8  and  C_26
    5  A    between atoms: C_8  and  N_37
    6  A    between atoms: C_14  and  C_18
    7  A    between atoms: C_14  and  C_47
    8  A    between atoms: C_16  and  O_35
    9  A    between atoms: C_17  and  C_40
   10  A    between atoms: C_18  and  C_21
   11  A    between atoms: N_24  and  N_37
   12  A    between atoms: C_33  and  C_48
   13  A    between atoms: C_38  and  C_40
                            x       y       z     vdW  Elec       q    Type
                         _______ _______ _______ _____ _____    ______ ____

>  <TORSDO>
F 13

$$$$
