=
 OpenBabel11062414283D

 50 56  0  0  1  0  0  0  0  0999 V2000
  187.8580  177.5330  148.4310 C   0  0  0  0  0  1  0  0  0  0  0  0
  190.2960  176.4210  147.3650 O   0  0  0  0  0  1  0  0  0  0  0  0
  188.1200  177.4290  146.9660 C   0  0  0  0  0  0  0  0  0  0  0  0
  188.6030  177.2760  144.1720 C   0  0  0  0  0  0  0  0  0  0  0  0
  189.3220  176.8790  146.4810 C   0  0  0  0  0  0  0  0  0  0  0  0
  187.4130  177.8210  144.6630 C   0  0  0  0  0  0  0  0  0  0  0  0
  185.6890  178.5980  146.3080 S   0  0  0  0  0  0  0  0  0  0  0  0
  185.3150  178.7920  144.6660 C   0  0  0  0  0  0  0  0  0  0  0  0
  187.1830  177.8870  146.0310 C   0  0  0  0  0  0  0  0  0  0  0  0
  189.5540  176.7970  145.0960 C   0  0  0  0  0  3  0  0  0  0  0  0
  186.3710  178.3360  143.8830 C   0  0  0  0  0  3  0  0  0  0  0  0
  188.8330  177.2340  142.7940 O   0  0  0  0  0  0  0  0  0  0  0  0
  190.6640  177.3980  141.2260 C   0  0  2  0  0  3  0  0  0  0  0  0
  191.3980  176.4800  141.9560 F   0  0  0  0  0  0  0  0  0  0  0  0
  188.2150  178.3930  140.1070 C   0  0  0  0  0  3  0  0  0  0  0  0
  188.7510  177.2830  139.5750 C   0  0  0  0  0  0  0  0  0  0  0  0
  189.6910  178.1540  142.1280 C   0  0  1  0  0  3  0  0  0  0  0  0
  188.8650  179.1100  141.2630 C   0  0  0  0  0  2  0  0  0  0  0  0
  189.9330  176.7180  140.1570 N   0  0  0  0  0  2  0  0  0  0  0  0
  187.2560  177.4370  137.6900 O   0  0  0  0  0  0  0  0  0  0  0  0
  188.1080  176.5790  138.4200 C   0  0  1  0  0  3  0  0  0  0  0  0
  187.3950  176.0440  135.7300 C   0  0  0  0  0  2  0  0  0  0  0  0
  189.1800  175.9940  137.4950 C   0  0  0  0  0  2  0  0  0  0  0  0
  188.5090  175.2100  136.3660 C   0  0  1  0  0  3  0  0  0  0  0  0
  186.4990  176.6250  136.8260 C   0  0  0  0  0  2  0  0  0  0  0  0
  187.9740  174.0170  136.8710 O   0  0  0  0  0  0  0  0  0  0  0  0
  187.6130  173.2750  135.7440 C   0  0  2  0  0  3  0  0  0  0  0  0
  186.9030  172.0120  136.1950 C   0  0  1  0  0  3  0  0  0  0  0  0
  186.0920  171.5470  135.1600 O   0  0  0  0  0  1  0  0  0  0  0  0
  188.3510  171.9500  135.7630 C   0  0  0  0  0  2  0  0  0  0  0  0
  184.0890  179.4440  144.1060 C   0  0  0  0  0  2  0  0  0  0  0  0
  183.3030  178.4980  143.2090 C   0  0  1  0  0  3  0  0  0  0  0  0
  184.7210  179.4460  141.4250 O   0  0  0  0  0  1  0  0  0  0  0  0
  182.4750  179.3060  142.2720 N   0  0  0  0  0  0  0  0  0  0  0  0
  183.4630  177.4560  141.0130 O   0  0  0  0  0  1  0  0  0  0  0  0
  183.6850  178.5860  141.8070 C   0  0  0  0  0  0  0  0  0  0  0  0
  180.7790  178.7130  140.6070 C   0  0  0  0  0  0  0  0  0  0  0  0
  181.3970  179.6320  139.6990 N   0  0  0  0  0  2  0  0  0  0  0  0
  181.3010  178.5790  141.9570 N   0  0  0  0  0  0  0  0  0  0  0  0
  179.8160  178.0010  140.2070 O   0  0  0  0  0  0  0  0  0  0  0  0
  180.5370  178.0200  143.0980 C   0  0  0  0  0  3  0  0  0  0  0  0
  180.2810  179.0170  144.2160 C   0  0  0  0  0  2  0  0  0  0  0  0
  179.1730  178.6660  143.2380 C   0  0  0  0  0  2  0  0  0  0  0  0
  181.0120  179.7440  138.3000 C   0  0  2  0  0  3  0  0  0  0  0  0
  181.8550  178.7850  137.4660 C   0  0  0  0  0  2  0  0  0  0  0  0
  183.1250  178.6500  138.0260 O   0  0  0  0  0  1  0  0  0  0  0  0
  181.2330  181.1810  137.8410 C   0  0  0  0  0  2  0  0  0  0  0  0
  179.0430  181.5750  136.9900 O   0  0  0  0  0  0  0  0  0  0  0  0
  180.2780  181.5480  136.7590 C   0  0  0  0  0  0  0  0  0  0  0  0
  180.7660  181.8920  135.4670 N   0  0  0  0  0  1  0  0  0  0  0  0
  3  1  1  0  0  0  0
  4  6  2  0  0  0  0
  4 10  1  0  0  0  0
  5  3  1  0  0  0  0
  5  2  1  0  0  0  0
  6  9  1  0  0  0  0
  8  7  1  0  0  0  0
  9  7  1  0  0  0  0
  9  3  2  0  0  0  0
 10  5  2  0  0  0  0
 11  6  1  0  0  0  0
 11  8  2  0  0  0  0
 12  4  1  0  0  0  0
 13 14  1  1  0  0  0
 13 17  1  0  0  0  0
 15 18  1  0  0  0  0
 16 15  2  0  0  0  0
 16 19  1  0  0  0  0
 17 12  1  6  0  0  0
 18 17  1  0  0  0  0
 19 13  1  0  0  0  0
 20 21  1  0  0  0  0
 21 16  1  1  0  0  0
 22 24  1  0  0  0  0
 22 25  1  0  0  0  0
 23 21  1  0  0  0  0
 24 26  1  1  0  0  0
 24 23  1  0  0  0  0
 25 20  1  0  0  0  0
 27 30  1  0  0  0  0
 27 28  1  0  0  0  0
 27 26  1  1  0  0  0
 28 29  1  6  0  0  0
 30 28  1  0  0  0  0
 31  8  1  0  0  0  0
 32 31  1  1  0  0  0
 33 36  1  0  0  0  0
 34 32  1  0  0  0  0
 35 36  1  0  0  0  0
 36 34  1  0  0  0  0
 36 32  1  0  0  0  0
 37 39  1  0  0  0  0
 38 37  1  0  0  0  0
 39 34  1  0  0  0  0
 39 41  1  0  0  0  0
 40 37  2  0  0  0  0
 41 43  1  0  0  0  0
 41 42  1  0  0  0  0
 43 42  1  0  0  0  0
 44 45  1  6  0  0  0
 44 38  1  0  0  0  0
 45 46  1  0  0  0  0
 47 44  1  0  0  0  0
 49 48  2  0  0  0  0
 49 47  1  0  0  0  0
 50 49  1  0  0  0  0
M  END
>  <MODEL>
1

>  <REMARK>
 VINA RESULT:      -7.8      0.000      0.000
  Name = 
  13 active torsions:
  status: ('A' for Active; 'I' for Inactive)
    1  A    between atoms: O_2  and  C_25
    2  A    between atoms: O_2  and  C_41
    3  A    between atoms: C_3  and  C_37
    4  A    between atoms: C_7  and  N_27
    5  A    between atoms: O_9  and  C_15
    6  A    between atoms: O_9  and  C_18
    7  A    between atoms: CA_14  and  N_19
    8  A    between atoms: CA_14  and  C_22
    9  A    between atoms: CA_14  and  CB_48
   10  A    between atoms: C_17  and  C_29
   11  A    between atoms: CG_24  and  CB_48
   12  A    between atoms: N_27  and  N_32
   13  A    between atoms: C_29  and  C_43
                            x       y       z     vdW  Elec       q    Type
                         _______ _______ _______ _____ _____    ______ ____

>  <TORSDO>
F 13

$$$$
=
 OpenBabel11062414283D

 50 56  0  0  1  0  0  0  0  0999 V2000
  186.9350  177.7590  145.6780 C   0  0  0  0  0  1  0  0  0  0  0  0
  184.5780  178.5770  147.1260 O   0  0  0  0  0  1  0  0  0  0  0  0
  185.7110  178.2720  144.9960 C   0  0  0  0  0  0  0  0  0  0  0  0
  183.3840  179.2120  143.6670 C   0  0  0  0  0  0  0  0  0  0  0  0
  184.5790  178.6640  145.7350 C   0  0  0  0  0  0  0  0  0  0  0  0
  184.5130  178.8200  142.9420 C   0  0  0  0  0  0  0  0  0  0  0  0
  186.8200  177.9600  142.4690 S   0  0  0  0  0  0  0  0  0  0  0  0
  185.8830  178.3990  141.1270 C   0  0  0  0  0  0  0  0  0  0  0  0
  185.6480  178.3660  143.6000 C   0  0  0  0  0  0  0  0  0  0  0  0
  183.4310  179.1370  145.0740 C   0  0  0  0  0  3  0  0  0  0  0  0
  184.6290  178.8360  141.5460 C   0  0  0  0  0  3  0  0  0  0  0  0
  182.2400  179.6460  142.9930 O   0  0  0  0  0  0  0  0  0  0  0  0
  179.8400  179.7800  142.7430 C   0  0  2  0  0  3  0  0  0  0  0  0
  179.7620  180.6850  143.7870 F   0  0  0  0  0  0  0  0  0  0  0  0
  181.0930  178.6920  140.4010 C   0  0  0  0  0  3  0  0  0  0  0  0
  180.4880  179.8870  140.3010 C   0  0  0  0  0  0  0  0  0  0  0  0
  181.0520  178.8660  142.9090 C   0  0  1  0  0  3  0  0  0  0  0  0
  181.1260  177.9280  141.7010 C   0  0  0  0  0  2  0  0  0  0  0  0
  179.9180  180.4920  141.4680 N   0  0  0  0  0  2  0  0  0  0  0  0
  180.6630  179.7870  137.8980 O   0  0  0  0  0  0  0  0  0  0  0  0
  180.4490  180.6380  139.0050 C   0  0  1  0  0  3  0  0  0  0  0  0
  179.5990  181.3400  136.3950 C   0  0  0  0  0  2  0  0  0  0  0  0
  179.1090  181.3630  138.8570 C   0  0  0  0  0  2  0  0  0  0  0  0
  179.1140  182.1910  137.5700 C   0  0  1  0  0  3  0  0  0  0  0  0
  180.8900  180.6150  136.7830 C   0  0  0  0  0  2  0  0  0  0  0  0
  179.9550  183.3020  137.7250 O   0  0  0  0  0  0  0  0  0  0  0  0
  179.7200  184.0950  136.6000 C   0  0  2  0  0  3  0  0  0  0  0  0
  181.0290  184.7220  136.1590 C   0  0  1  0  0  3  0  0  0  0  0  0
  180.9460  185.0540  134.8070 O   0  0  0  0  0  1  0  0  0  0  0  0
  180.0250  185.5420  136.9380 C   0  0  0  0  0  2  0  0  0  0  0  0
  186.2720  178.2600  139.6880 C   0  0  0  0  0  2  0  0  0  0  0  0
  187.7500  178.5520  139.4690 C   0  0  1  0  0  3  0  0  0  0  0  0
  187.1900  178.1940  137.0920 O   0  0  0  0  0  1  0  0  0  0  0  0
  188.4120  177.3160  138.9670 N   0  0  0  0  0  0  0  0  0  0  0  0
  189.2680  179.2140  137.6830 O   0  0  0  0  0  1  0  0  0  0  0  0
  188.1500  178.4690  138.0720 C   0  0  0  0  0  0  0  0  0  0  0  0
  190.7310  176.6440  138.5520 C   0  0  0  0  0  0  0  0  0  0  0  0
  190.2840  175.9470  137.3840 N   0  0  0  0  0  2  0  0  0  0  0  0
  189.7600  177.3110  139.4030 N   0  0  0  0  0  0  0  0  0  0  0  0
  191.9670  176.7060  138.8020 O   0  0  0  0  0  0  0  0  0  0  0  0
  190.0030  177.6850  140.8170 C   0  0  0  0  0  3  0  0  0  0  0  0
  190.3030  176.5040  141.7260 C   0  0  0  0  0  2  0  0  0  0  0  0
  191.4300  177.4010  141.2420 C   0  0  0  0  0  2  0  0  0  0  0  0
  191.1970  175.3510  136.4180 C   0  0  2  0  0  3  0  0  0  0  0  0
  190.6220  175.5130  135.0160 C   0  0  0  0  0  2  0  0  0  0  0  0
  189.5620  176.4190  135.0310 O   0  0  0  0  0  1  0  0  0  0  0  0
  191.3740  173.8750  136.7520 C   0  0  0  0  0  2  0  0  0  0  0  0
  193.5810  173.9650  137.6440 O   0  0  0  0  0  0  0  0  0  0  0  0
  192.8150  173.5000  136.7630 C   0  0  0  0  0  0  0  0  0  0  0  0
  193.3220  172.5950  135.7880 N   0  0  0  0  0  1  0  0  0  0  0  0
  3  1  1  0  0  0  0
  3  5  1  0  0  0  0
  4 10  1  0  0  0  0
  5  2  1  0  0  0  0
  6  9  1  0  0  0  0
  6  4  2  0  0  0  0
  7  9  1  0  0  0  0
  8 11  2  0  0  0  0
  8  7  1  0  0  0  0
  9  3  2  0  0  0  0
 10  5  2  0  0  0  0
 11  6  1  0  0  0  0
 12  4  1  0  0  0  0
 13 17  1  0  0  0  0
 13 14  1  1  0  0  0
 15 18  1  0  0  0  0
 16 15  2  0  0  0  0
 16 19  1  0  0  0  0
 17 12  1  6  0  0  0
 18 17  1  0  0  0  0
 19 13  1  0  0  0  0
 20 21  1  0  0  0  0
 21 16  1  1  0  0  0
 22 25  1  0  0  0  0
 22 24  1  0  0  0  0
 23 21  1  0  0  0  0
 24 26  1  1  0  0  0
 24 23  1  0  0  0  0
 25 20  1  0  0  0  0
 27 30  1  0  0  0  0
 27 26  1  1  0  0  0
 28 29  1  6  0  0  0
 28 27  1  0  0  0  0
 28 30  1  0  0  0  0
 31  8  1  0  0  0  0
 32 31  1  6  0  0  0
 33 36  1  0  0  0  0
 34 39  1  0  0  0  0
 34 32  1  0  0  0  0
 35 36  1  0  0  0  0
 36 34  1  0  0  0  0
 36 32  1  0  0  0  0
 37 40  2  0  0  0  0
 37 39  1  0  0  0  0
 38 37  1  0  0  0  0
 39 41  1  0  0  0  0
 41 43  1  0  0  0  0
 41 42  1  0  0  0  0
 43 42  1  0  0  0  0
 44 45  1  6  0  0  0
 44 47  1  0  0  0  0
 44 38  1  0  0  0  0
 45 46  1  0  0  0  0
 47 49  1  0  0  0  0
 49 48  2  0  0  0  0
 50 49  1  0  0  0  0
M  END
>  <MODEL>
2

>  <REMARK>
 VINA RESULT:      -7.7      3.257      9.630
  Name = 
  13 active torsions:
  status: ('A' for Active; 'I' for Inactive)
    1  A    between atoms: O_2  and  C_25
    2  A    between atoms: O_2  and  C_41
    3  A    between atoms: C_3  and  C_37
    4  A    between atoms: C_7  and  N_27
    5  A    between atoms: O_9  and  C_15
    6  A    between atoms: O_9  and  C_18
    7  A    between atoms: CA_14  and  N_19
    8  A    between atoms: CA_14  and  C_22
    9  A    between atoms: CA_14  and  CB_48
   10  A    between atoms: C_17  and  C_29
   11  A    between atoms: CG_24  and  CB_48
   12  A    between atoms: N_27  and  N_32
   13  A    between atoms: C_29  and  C_43
                            x       y       z     vdW  Elec       q    Type
                         _______ _______ _______ _____ _____    ______ ____

>  <TORSDO>
F 13

$$$$
=
 OpenBabel11062414283D

 50 56  0  0  1  0  0  0  0  0999 V2000
  192.0920  176.1500  137.7510 C   0  0  0  0  0  1  0  0  0  0  0  0
  190.9900  175.1000  135.3000 O   0  0  0  0  0  1  0  0  0  0  0  0
  190.6480  176.2790  137.3990 C   0  0  0  0  0  0  0  0  0  0  0  0
  187.9000  176.5710  136.7430 C   0  0  0  0  0  0  0  0  0  0  0  0
  190.1450  175.7530  136.1950 C   0  0  0  0  0  0  0  0  0  0  0  0
  188.4100  177.0910  137.9370 C   0  0  0  0  0  0  0  0  0  0  0  0
  190.0640  177.6750  139.7280 S   0  0  0  0  0  0  0  0  0  0  0  0
  188.4610  178.1620  139.9850 C   0  0  0  0  0  0  0  0  0  0  0  0
  189.7540  176.9390  138.2520 C   0  0  0  0  0  0  0  0  0  0  0  0
  188.7810  175.8920  135.8760 C   0  0  0  0  0  3  0  0  0  0  0  0
  187.6720  177.7860  138.9020 C   0  0  0  0  0  3  0  0  0  0  0  0
  186.5510  176.7490  136.4270 O   0  0  0  0  0  0  0  0  0  0  0  0
  185.1580  174.8040  136.7710 C   0  0  2  0  0  3  0  0  0  0  0  0
  186.1360  174.2190  137.5570 F   0  0  0  0  0  0  0  0  0  0  0  0
  183.6310  177.0570  135.8600 C   0  0  0  0  0  3  0  0  0  0  0  0
  183.4050  176.5970  137.1020 C   0  0  0  0  0  0  0  0  0  0  0  0
  185.7810  175.7580  135.7540 C   0  0  1  0  0  3  0  0  0  0  0  0
  184.6560  176.4220  134.9550 C   0  0  0  0  0  2  0  0  0  0  0  0
  184.2030  175.5220  137.6140 N   0  0  0  0  0  2  0  0  0  0  0  0
  182.0040  176.3640  139.0500 O   0  0  0  0  0  0  0  0  0  0  0  0
  182.3780  177.2240  137.9940 C   0  0  1  0  0  3  0  0  0  0  0  0
  181.2190  178.2090  140.3840 C   0  0  0  0  0  2  0  0  0  0  0  0
  182.9080  178.5460  138.5580 C   0  0  0  0  0  2  0  0  0  0  0  0
  181.8200  179.2150  139.4010 C   0  0  1  0  0  3  0  0  0  0  0  0
  180.8560  176.9200  139.6430 C   0  0  0  0  0  2  0  0  0  0  0  0
  180.8140  179.7150  138.5640 O   0  0  0  0  0  0  0  0  0  0  0  0
  181.4040  180.7830  137.8830 C   0  0  2  0  0  3  0  0  0  0  0  0
  180.3380  181.8160  137.5710 C   0  0  1  0  0  3  0  0  0  0  0  0
  180.9430  183.0610  137.3960 O   0  0  0  0  0  1  0  0  0  0  0  0
  180.8150  180.8720  136.4890 C   0  0  0  0  0  2  0  0  0  0  0  0
  187.9520  178.9660  141.1410 C   0  0  0  0  0  2  0  0  0  0  0  0
  186.8490  178.2380  141.8960 C   0  0  1  0  0  3  0  0  0  0  0  0
  185.3560  179.6750  140.5560 O   0  0  0  0  0  1  0  0  0  0  0  0
  186.1490  179.2140  142.7780 N   0  0  0  0  0  0  0  0  0  0  0  0
  184.4610  177.7930  141.7240 O   0  0  0  0  0  1  0  0  0  0  0  0
  185.5130  178.6960  141.5430 C   0  0  0  0  0  0  0  0  0  0  0  0
  186.6370  177.8040  144.7210 C   0  0  0  0  0  0  0  0  0  0  0  0
  187.9970  177.7230  144.2780 N   0  0  0  0  0  2  0  0  0  0  0  0
  185.6660  178.5310  143.9210 N   0  0  0  0  0  0  0  0  0  0  0  0
  186.3120  177.2790  145.8220 O   0  0  0  0  0  0  0  0  0  0  0  0
  184.1980  178.3440  144.0130 C   0  0  0  0  0  3  0  0  0  0  0  0
  183.6110  178.7260  145.3620 C   0  0  0  0  0  2  0  0  0  0  0  0
  183.4670  179.6630  144.1740 C   0  0  0  0  0  2  0  0  0  0  0  0
  189.0550  177.1150  145.0720 C   0  0  2  0  0  3  0  0  0  0  0  0
  189.0810  177.7590  146.4540 C   0  0  0  0  0  2  0  0  0  0  0  0
  189.2240  176.7830  147.4380 O   0  0  0  0  0  1  0  0  0  0  0  0
  190.3870  177.3250  144.3630 C   0  0  0  0  0  2  0  0  0  0  0  0
  191.9340  175.5410  144.0510 O   0  0  0  0  0  0  0  0  0  0  0  0
  190.8470  176.0690  143.7080 C   0  0  0  0  0  0  0  0  0  0  0  0
  190.0420  175.4530  142.7090 N   0  0  0  0  0  1  0  0  0  0  0  0
  2  5  1  0  0  0  0
  3  1  1  0  0  0  0
  3  9  1  0  0  0  0
  4  6  1  0  0  0  0
  5  3  2  0  0  0  0
  6  9  2  0  0  0  0
  6 11  1  0  0  0  0
  7  8  1  0  0  0  0
  8 31  1  0  0  0  0
  9  7  1  0  0  0  0
 10  5  1  0  0  0  0
 10  4  2  0  0  0  0
 11  8  2  0  0  0  0
 12  4  1  0  0  0  0
 13 14  1  1  0  0  0
 13 19  1  0  0  0  0
 15 16  2  0  0  0  0
 16 19  1  0  0  0  0
 17 12  1  1  0  0  0
 17 13  1  0  0  0  0
 18 17  1  0  0  0  0
 18 15  1  0  0  0  0
 20 25  1  0  0  0  0
 21 16  1  1  0  0  0
 21 23  1  0  0  0  0
 21 20  1  0  0  0  0
 23 24  1  0  0  0  0
 24 26  1  6  0  0  0
 24 22  1  0  0  0  0
 25 22  1  0  0  0  0
 27 26  1  1  0  0  0
 28 29  1  6  0  0  0
 28 27  1  0  0  0  0
 30 28  1  0  0  0  0
 30 27  1  0  0  0  0
 32 31  1  6  0  0  0
 32 34  1  0  0  0  0
 33 36  1  0  0  0  0
 34 39  1  0  0  0  0
 36 35  1  0  0  0  0
 36 32  1  0  0  0  0
 36 34  1  0  0  0  0
 37 40  2  0  0  0  0
 38 37  1  0  0  0  0
 38 44  1  0  0  0  0
 39 41  1  0  0  0  0
 39 37  1  0  0  0  0
 41 43  1  0  0  0  0
 41 42  1  0  0  0  0
 43 42  1  0  0  0  0
 44 47  1  6  0  0  0
 44 45  1  0  0  0  0
 45 46  1  0  0  0  0
 49 48  2  0  0  0  0
 49 47  1  0  0  0  0
 50 49  1  0  0  0  0
M  END
>  <MODEL>
3

>  <REMARK>
 VINA RESULT:      -7.4      2.954      8.541
  Name = 
  13 active torsions:
  status: ('A' for Active; 'I' for Inactive)
    1  A    between atoms: O_2  and  C_25
    2  A    between atoms: O_2  and  C_41
    3  A    between atoms: C_3  and  C_37
    4  A    between atoms: C_7  and  N_27
    5  A    between atoms: O_9  and  C_15
    6  A    between atoms: O_9  and  C_18
    7  A    between atoms: CA_14  and  N_19
    8  A    between atoms: CA_14  and  C_22
    9  A    between atoms: CA_14  and  CB_48
   10  A    between atoms: C_17  and  C_29
   11  A    between atoms: CG_24  and  CB_48
   12  A    between atoms: N_27  and  N_32
   13  A    between atoms: C_29  and  C_43
                            x       y       z     vdW  Elec       q    Type
                         _______ _______ _______ _____ _____    ______ ____

>  <TORSDO>
F 13

$$$$
=
 OpenBabel11062414283D

 50 56  0  0  1  0  0  0  0  0999 V2000
  183.9190  178.5710  145.9090 C   0  0  0  0  0  1  0  0  0  0  0  0
  186.3440  178.2000  147.4260 O   0  0  0  0  0  1  0  0  0  0  0  0
  185.2550  178.4130  145.2630 C   0  0  0  0  0  0  0  0  0  0  0  0
  187.7870  178.1490  144.0040 C   0  0  0  0  0  0  0  0  0  0  0  0
  186.4180  178.2320  146.0350 C   0  0  0  0  0  0  0  0  0  0  0  0
  186.6270  178.3300  143.2460 C   0  0  0  0  0  0  0  0  0  0  0  0
  184.2030  178.6720  142.7060 S   0  0  0  0  0  0  0  0  0  0  0  0
  185.2680  178.5740  141.3910 C   0  0  0  0  0  0  0  0  0  0  0  0
  185.3920  178.4540  143.8700 C   0  0  0  0  0  0  0  0  0  0  0  0
  187.6700  178.0930  145.4080 C   0  0  0  0  0  3  0  0  0  0  0  0
  186.5720  178.4050  141.8490 C   0  0  0  0  0  3  0  0  0  0  0  0
  189.0270  178.0480  143.3670 O   0  0  0  0  0  0  0  0  0  0  0  0
  189.9380  175.8270  143.0870 C   0  0  2  0  0  3  0  0  0  0  0  0
  188.6870  175.2680  143.2830 F   0  0  0  0  0  0  0  0  0  0  0  0
  191.6940  177.8370  142.0310 C   0  0  0  0  0  2  0  0  0  0  0  0
  191.1250  176.9760  141.1710 C   0  0  0  0  0  0  0  0  0  0  0  0
  190.0520  177.1660  143.8120 C   0  0  1  0  0  3  0  0  0  0  0  0
  191.4270  177.7680  143.5140 C   0  0  0  0  0  2  0  0  0  0  0  0
  190.1860  176.0080  141.6570 N   0  0  0  0  0  0  0  0  0  0  0  0
  192.7490  176.7460  139.4050 O   0  0  0  0  0  0  0  0  0  0  0  0
  191.4000  177.0420  139.7000 C   0  0  1  0  0  3  0  0  0  0  0  0
  192.2080  176.1580  137.1330 C   0  0  0  0  0  2  0  0  0  0  0  0
  190.4760  176.0800  138.9480 C   0  0  0  0  0  2  0  0  0  0  0  0
  190.7110  176.2170  137.4420 C   0  0  1  0  0  3  0  0  0  0  0  0
  192.9640  177.1090  138.0630 C   0  0  0  0  0  2  0  0  0  0  0  0
  190.1840  177.4340  136.9900 O   0  0  0  0  0  0  0  0  0  0  0  0
  188.8470  177.1630  136.6920 C   0  0  2  0  0  3  0  0  0  0  0  0
  188.1850  178.4370  136.2000 C   0  0  1  0  0  3  0  0  0  0  0  0
  187.0770  178.1060  135.4200 O   0  0  0  0  0  1  0  0  0  0  0  0
  187.9560  177.9670  137.6200 C   0  0  0  0  0  2  0  0  0  0  0  0
  184.9130  178.7410  139.9460 C   0  0  0  0  0  2  0  0  0  0  0  0
  183.5210  178.2060  139.6390 C   0  0  1  0  0  3  0  0  0  0  0  0
  184.3780  178.0760  137.3280 O   0  0  0  0  0  1  0  0  0  0  0  0
  182.8120  179.1890  138.7730 N   0  0  0  0  0  0  0  0  0  0  0  0
  182.3550  176.9460  137.9110 O   0  0  0  0  0  1  0  0  0  0  0  0
  183.3200  177.9070  138.2280 C   0  0  0  0  0  0  0  0  0  0  0  0
  180.5470  179.9510  138.2380 C   0  0  0  0  0  0  0  0  0  0  0  0
  181.1150  180.8780  137.3060 N   0  0  0  0  0  2  0  0  0  0  0  0
  181.4230  179.1110  139.0370 N   0  0  0  0  0  0  0  0  0  0  0  0
  179.2910  179.8470  138.3200 O   0  0  0  0  0  0  0  0  0  0  0  0
  181.0210  178.4460  140.3000 C   0  0  0  0  0  3  0  0  0  0  0  0
  180.8320  179.4000  141.4680 C   0  0  0  0  0  2  0  0  0  0  0  0
  179.6240  178.8440  140.7320 C   0  0  0  0  0  2  0  0  0  0  0  0
  180.3120  181.6730  136.3880 C   0  0  2  0  0  3  0  0  0  0  0  0
  180.4420  181.1000  134.9810 C   0  0  0  0  0  2  0  0  0  0  0  0
  179.5960  180.0020  134.8280 O   0  0  0  0  0  1  0  0  0  0  0  0
  180.8060  183.1150  136.4220 C   0  0  0  0  0  2  0  0  0  0  0  0
  179.1670  183.4640  138.1150 O   0  0  0  0  0  0  0  0  0  0  0  0
  179.8880  183.9740  137.2200 C   0  0  0  0  0  0  0  0  0  0  0  0
  179.8450  185.3770  136.9870 N   0  0  0  0  0  1  0  0  0  0  0  0
  3  1  1  0  0  0  0
  3  5  1  0  0  0  0
  4 10  1  0  0  0  0
  5  2  1  0  0  0  0
  6  9  1  0  0  0  0
  6  4  2  0  0  0  0
  7  9  1  0  0  0  0
  8 11  2  0  0  0  0
  8  7  1  0  0  0  0
  9  3  2  0  0  0  0
 10  5  2  0  0  0  0
 11  6  1  0  0  0  0
 12  4  1  0  0  0  0
 13 14  1  6  0  0  0
 13 17  1  0  0  0  0
 15 18  1  0  0  0  0
 16 19  2  0  0  0  0
 16 15  1  0  0  0  0
 17 12  1  6  0  0  0
 18 17  1  0  0  0  0
 19 13  1  0  0  0  0
 20 21  1  0  0  0  0
 21 16  1  1  0  0  0
 22 24  1  0  0  0  0
 22 25  1  0  0  0  0
 23 21  1  0  0  0  0
 24 26  1  1  0  0  0
 24 23  1  0  0  0  0
 25 20  1  0  0  0  0
 27 26  1  1  0  0  0
 27 30  1  0  0  0  0
 28 29  1  6  0  0  0
 28 27  1  0  0  0  0
 28 30  1  0  0  0  0
 31  8  1  0  0  0  0
 32 31  1  6  0  0  0
 33 36  1  0  0  0  0
 34 39  1  0  0  0  0
 34 32  1  0  0  0  0
 35 36  1  0  0  0  0
 36 34  1  0  0  0  0
 36 32  1  0  0  0  0
 37 40  2  0  0  0  0
 37 39  1  0  0  0  0
 38 37  1  0  0  0  0
 39 41  1  0  0  0  0
 41 43  1  0  0  0  0
 41 42  1  0  0  0  0
 43 42  1  0  0  0  0
 44 45  1  6  0  0  0
 44 47  1  0  0  0  0
 44 38  1  0  0  0  0
 46 45  1  0  0  0  0
 47 49  1  0  0  0  0
 49 48  2  0  0  0  0
 50 49  1  0  0  0  0
M  END
>  <MODEL>
4

>  <REMARK>
 VINA RESULT:      -7.3      2.669      3.689
  Name = 
  13 active torsions:
  status: ('A' for Active; 'I' for Inactive)
    1  A    between atoms: O_2  and  C_25
    2  A    between atoms: O_2  and  C_41
    3  A    between atoms: C_3  and  C_37
    4  A    between atoms: C_7  and  N_27
    5  A    between atoms: O_9  and  C_15
    6  A    between atoms: O_9  and  C_18
    7  A    between atoms: CA_14  and  N_19
    8  A    between atoms: CA_14  and  C_22
    9  A    between atoms: CA_14  and  CB_48
   10  A    between atoms: C_17  and  C_29
   11  A    between atoms: CG_24  and  CB_48
   12  A    between atoms: N_27  and  N_32
   13  A    between atoms: C_29  and  C_43
                            x       y       z     vdW  Elec       q    Type
                         _______ _______ _______ _____ _____    ______ ____

>  <TORSDO>
F 13

$$$$
=
 OpenBabel11062414283D

 50 56  0  0  1  0  0  0  0  0999 V2000
  187.0100  177.8760  146.8580 C   0  0  0  0  0  1  0  0  0  0  0  0
  189.6280  176.8190  146.2710 O   0  0  0  0  0  1  0  0  0  0  0  0
  187.4800  177.6210  145.4650 C   0  0  0  0  0  0  0  0  0  0  0  0
  188.3560  177.1780  142.8010 C   0  0  0  0  0  0  0  0  0  0  0  0
  188.7640  177.1030  145.2170 C   0  0  0  0  0  0  0  0  0  0  0  0
  187.0820  177.6930  143.0590 C   0  0  0  0  0  0  0  0  0  0  0  0
  185.1060  178.5360  144.3510 S   0  0  0  0  0  0  0  0  0  0  0  0
  184.9560  178.5120  142.6630 C   0  0  0  0  0  0  0  0  0  0  0  0
  186.6600  177.9020  144.3650 C   0  0  0  0  0  0  0  0  0  0  0  0
  189.1920  176.8760  143.8950 C   0  0  0  0  0  3  0  0  0  0  0  0
  186.1340  178.0410  142.0890 C   0  0  0  0  0  3  0  0  0  0  0  0
  188.7780  176.9920  141.4820 O   0  0  0  0  0  0  0  0  0  0  0  0
  190.9090  177.3770  140.4100 C   0  0  2  0  0  3  0  0  0  0  0  0
  191.5790  176.9470  141.5420 F   0  0  0  0  0  0  0  0  0  0  0  0
  188.7720  177.2230  138.5000 C   0  0  0  0  0  3  0  0  0  0  0  0
  189.7060  176.2580  138.4860 C   0  0  0  0  0  0  0  0  0  0  0  0
  189.5460  177.9600  140.7750 C   0  0  1  0  0  3  0  0  0  0  0  0
  188.8260  178.3630  139.4860 C   0  0  0  0  0  2  0  0  0  0  0  0
  190.7450  176.2650  139.4740 N   0  0  0  0  0  2  0  0  0  0  0  0
  188.3890  175.0330  136.8820 O   0  0  0  0  0  0  0  0  0  0  0  0
  189.6550  175.1330  137.4990 C   0  0  1  0  0  3  0  0  0  0  0  0
  189.3060  173.8360  135.0050 C   0  0  0  0  0  2  0  0  0  0  0  0
  190.7430  175.3150  136.4350 C   0  0  0  0  0  2  0  0  0  0  0  0
  190.7320  174.1190  135.4820 C   0  0  1  0  0  3  0  0  0  0  0  0
  188.3580  173.8000  136.2050 C   0  0  0  0  0  2  0  0  0  0  0  0
  191.2430  172.9890  136.1350 O   0  0  0  0  0  0  0  0  0  0  0  0
  192.1160  172.4020  135.2160 C   0  0  2  0  0  3  0  0  0  0  0  0
  193.2510  171.7380  135.9720 C   0  0  1  0  0  3  0  0  0  0  0  0
  193.8070  170.7360  135.1770 O   0  0  0  0  0  1  0  0  0  0  0  0
  193.4690  173.0810  135.3100 C   0  0  0  0  0  2  0  0  0  0  0  0
  183.7880  179.0080  141.8680 C   0  0  0  0  0  2  0  0  0  0  0  0
  183.5490  178.1630  140.6240 C   0  0  1  0  0  3  0  0  0  0  0  0
  184.4360  180.1400  139.4420 O   0  0  0  0  0  1  0  0  0  0  0  0
  182.4740  178.8010  139.8140 N   0  0  0  0  0  0  0  0  0  0  0  0
  184.2360  178.0560  138.2900 O   0  0  0  0  0  1  0  0  0  0  0  0
  183.8930  178.8510  139.3880 C   0  0  0  0  0  0  0  0  0  0  0  0
  180.8920  178.2180  138.0370 C   0  0  0  0  0  0  0  0  0  0  0  0
  180.6970  179.6170  137.7980 N   0  0  0  0  0  2  0  0  0  0  0  0
  181.7710  177.7910  139.1130 N   0  0  0  0  0  0  0  0  0  0  0  0
  180.3320  177.3770  137.2810 O   0  0  0  0  0  0  0  0  0  0  0  0
  181.7360  176.4470  139.7380 C   0  0  0  0  0  3  0  0  0  0  0  0
  180.9270  175.4240  138.9580 C   0  0  0  0  0  2  0  0  0  0  0  0
  182.4460  175.4090  138.8920 C   0  0  0  0  0  2  0  0  0  0  0  0
  179.9270  180.1300  136.6740 C   0  0  2  0  0  3  0  0  0  0  0  0
  180.8820  180.5750  135.5720 C   0  0  0  0  0  2  0  0  0  0  0  0
  180.2410  181.4630  134.7090 O   0  0  0  0  0  1  0  0  0  0  0  0
  179.0810  181.3050  137.1500 C   0  0  0  0  0  2  0  0  0  0  0  0
  180.7870  182.7680  137.9430 O   0  0  0  0  0  0  0  0  0  0  0  0
  179.7820  182.0660  138.2220 C   0  0  0  0  0  0  0  0  0  0  0  0
  179.3000  182.0180  139.5600 N   0  0  0  0  0  1  0  0  0  0  0  0
  3  1  1  0  0  0  0
  4  6  2  0  0  0  0
  4 10  1  0  0  0  0
  5  3  1  0  0  0  0
  5  2  1  0  0  0  0
  6  9  1  0  0  0  0
  7  9  1  0  0  0  0
  8  7  1  0  0  0  0
  9  3  2  0  0  0  0
 10  5  2  0  0  0  0
 11  8  2  0  0  0  0
 11  6  1  0  0  0  0
 12  4  1  0  0  0  0
 13 17  1  0  0  0  0
 13 14  1  1  0  0  0
 15 18  1  0  0  0  0
 16 15  2  0  0  0  0
 16 19  1  0  0  0  0
 17 12  1  6  0  0  0
 18 17  1  0  0  0  0
 19 13  1  0  0  0  0
 20 21  1  0  0  0  0
 21 16  1  1  0  0  0
 22 24  1  0  0  0  0
 22 25  1  0  0  0  0
 23 21  1  0  0  0  0
 24 26  1  1  0  0  0
 24 23  1  0  0  0  0
 25 20  1  0  0  0  0
 27 30  1  0  0  0  0
 27 28  1  0  0  0  0
 27 26  1  1  0  0  0
 28 29  1  6  0  0  0
 30 28  1  0  0  0  0
 31  8  1  0  0  0  0
 32 31  1  1  0  0  0
 34 32  1  0  0  0  0
 35 36  1  0  0  0  0
 36 33  1  0  0  0  0
 36 34  1  0  0  0  0
 36 32  1  0  0  0  0
 37 39  1  0  0  0  0
 38 37  1  0  0  0  0
 39 41  1  0  0  0  0
 39 34  1  0  0  0  0
 40 37  2  0  0  0  0
 42 41  1  0  0  0  0
 43 42  1  0  0  0  0
 43 41  1  0  0  0  0
 44 45  1  6  0  0  0
 44 47  1  0  0  0  0
 44 38  1  0  0  0  0
 46 45  1  0  0  0  0
 47 49  1  0  0  0  0
 48 49  2  0  0  0  0
 49 50  1  0  0  0  0
M  END
>  <MODEL>
5

>  <REMARK>
 VINA RESULT:      -7.3      2.330      3.126
  Name = 
  13 active torsions:
  status: ('A' for Active; 'I' for Inactive)
    1  A    between atoms: O_2  and  C_25
    2  A    between atoms: O_2  and  C_41
    3  A    between atoms: C_3  and  C_37
    4  A    between atoms: C_7  and  N_27
    5  A    between atoms: O_9  and  C_15
    6  A    between atoms: O_9  and  C_18
    7  A    between atoms: CA_14  and  N_19
    8  A    between atoms: CA_14  and  C_22
    9  A    between atoms: CA_14  and  CB_48
   10  A    between atoms: C_17  and  C_29
   11  A    between atoms: CG_24  and  CB_48
   12  A    between atoms: N_27  and  N_32
   13  A    between atoms: C_29  and  C_43
                            x       y       z     vdW  Elec       q    Type
                         _______ _______ _______ _____ _____    ______ ____

>  <TORSDO>
F 13

$$$$
=
 OpenBabel11062414283D

 50 56  0  0  1  0  0  0  0  0999 V2000
  187.9160  177.3300  148.3240 C   0  0  0  0  0  1  0  0  0  0  0  0
  190.3660  176.2630  147.2370 O   0  0  0  0  0  1  0  0  0  0  0  0
  188.2020  177.3040  146.8590 C   0  0  0  0  0  0  0  0  0  0  0  0
  188.7290  177.2990  144.0690 C   0  0  0  0  0  0  0  0  0  0  0  0
  189.4080  176.7740  146.3650 C   0  0  0  0  0  0  0  0  0  0  0  0
  187.5340  177.8230  144.5700 C   0  0  0  0  0  0  0  0  0  0  0  0
  185.7870  178.5210  146.2270 S   0  0  0  0  0  0  0  0  0  0  0  0
  185.4410  178.8060  144.5930 C   0  0  0  0  0  0  0  0  0  0  0  0
  187.2830  177.8180  145.9360 C   0  0  0  0  0  0  0  0  0  0  0  0
  189.6630  176.7650  144.9810 C   0  0  0  0  0  3  0  0  0  0  0  0
  186.5070  178.3860  143.8020 C   0  0  0  0  0  3  0  0  0  0  0  0
  188.9810  177.3300  142.6950 O   0  0  0  0  0  0  0  0  0  0  0  0
  190.9170  178.3850  141.7070 C   0  0  2  0  0  3  0  0  0  0  0  0
  191.6460  178.1760  142.8650 F   0  0  0  0  0  0  0  0  0  0  0  0
  189.0110  177.5870  139.7160 C   0  0  0  0  0  3  0  0  0  0  0  0
  190.2030  176.9690  139.7370 C   0  0  0  0  0  0  0  0  0  0  0  0
  189.4270  178.5010  142.0200 C   0  0  1  0  0  3  0  0  0  0  0  0
  188.6640  178.6710  140.7040 C   0  0  0  0  0  2  0  0  0  0  0  0
  191.1490  177.2910  140.7650 N   0  0  0  0  0  2  0  0  0  0  0  0
  189.4490  175.5700  137.9250 O   0  0  0  0  0  0  0  0  0  0  0  0
  190.5490  175.8990  138.7470 C   0  0  1  0  0  3  0  0  0  0  0  0
  190.8890  174.6630  136.2210 C   0  0  0  0  0  2  0  0  0  0  0  0
  191.7340  176.3420  137.8840 C   0  0  0  0  0  2  0  0  0  0  0  0
  192.1270  175.2090  136.9340 C   0  0  1  0  0  3  0  0  0  0  0  0
  189.7860  174.3860  137.2440 C   0  0  0  0  0  2  0  0  0  0  0  0
  192.7470  174.1800  137.6560 O   0  0  0  0  0  0  0  0  0  0  0  0
  194.0830  174.2060  137.2490 C   0  0  2  0  0  3  0  0  0  0  0  0
  194.8790  173.2480  138.1160 C   0  0  1  0  0  3  0  0  0  0  0  0
  196.0280  172.8550  137.4310 O   0  0  0  0  0  1  0  0  0  0  0  0
  194.9390  174.7360  138.3840 C   0  0  0  0  0  2  0  0  0  0  0  0
  184.2280  179.4940  144.0490 C   0  0  0  0  0  2  0  0  0  0  0  0
  183.3820  178.5610  143.1930 C   0  0  1  0  0  3  0  0  0  0  0  0
  184.7160  179.4970  141.3380 O   0  0  0  0  0  1  0  0  0  0  0  0
  182.5160  179.3840  142.3030 N   0  0  0  0  0  0  0  0  0  0  0  0
  183.4120  177.5260  140.9880 O   0  0  0  0  0  1  0  0  0  0  0  0
  183.6900  178.6500  141.7730 C   0  0  0  0  0  0  0  0  0  0  0  0
  180.6790  178.8880  140.7610 C   0  0  0  0  0  0  0  0  0  0  0  0
  181.2170  179.8630  139.8600 N   0  0  0  0  0  2  0  0  0  0  0  0
  181.3180  178.6730  142.0480 N   0  0  0  0  0  0  0  0  0  0  0  0
  179.6830  178.1990  140.4050 O   0  0  0  0  0  0  0  0  0  0  0  0
  180.6560  178.0440  143.2160 C   0  0  0  0  0  3  0  0  0  0  0  0
  180.2970  179.0210  144.3230 C   0  0  0  0  0  2  0  0  0  0  0  0
  179.2230  178.5100  143.3760 C   0  0  0  0  0  2  0  0  0  0  0  0
  180.7100  180.0600  138.5090 C   0  0  2  0  0  3  0  0  0  0  0  0
  181.4060  179.0880  137.5630 C   0  0  0  0  0  2  0  0  0  0  0  0
  182.6450  178.7140  138.0830 O   0  0  0  0  0  1  0  0  0  0  0  0
  180.9810  181.4990  138.0850 C   0  0  0  0  0  2  0  0  0  0  0  0
  179.5050  183.2710  137.4890 O   0  0  0  0  0  0  0  0  0  0  0  0
  179.7810  182.3530  138.3020 C   0  0  0  0  0  0  0  0  0  0  0  0
  178.9310  182.1150  139.4190 N   0  0  0  0  0  1  0  0  0  0  0  0
  3  1  1  0  0  0  0
  4  6  2  0  0  0  0
  4 10  1  0  0  0  0
  5  3  1  0  0  0  0
  5  2  1  0  0  0  0
  6  9  1  0  0  0  0
  8  7  1  0  0  0  0
  9  7  1  0  0  0  0
  9  3  2  0  0  0  0
 10  5  2  0  0  0  0
 11  6  1  0  0  0  0
 11  8  2  0  0  0  0
 12  4  1  0  0  0  0
 13 17  1  0  0  0  0
 13 14  1  1  0  0  0
 15 16  2  0  0  0  0
 15 18  1  0  0  0  0
 16 19  1  0  0  0  0
 17 12  1  6  0  0  0
 18 17  1  0  0  0  0
 19 13  1  0  0  0  0
 20 21  1  0  0  0  0
 21 16  1  1  0  0  0
 22 24  1  0  0  0  0
 22 25  1  0  0  0  0
 23 21  1  0  0  0  0
 24 26  1  1  0  0  0
 24 23  1  0  0  0  0
 25 20  1  0  0  0  0
 27 26  1  1  0  0  0
 27 28  1  0  0  0  0
 27 30  1  0  0  0  0
 28 29  1  6  0  0  0
 28 30  1  0  0  0  0
 31  8  1  0  0  0  0
 32 31  1  1  0  0  0
 33 36  1  0  0  0  0
 34 32  1  0  0  0  0
 35 36  1  0  0  0  0
 36 34  1  0  0  0  0
 36 32  1  0  0  0  0
 37 39  1  0  0  0  0
 38 37  1  0  0  0  0
 39 34  1  0  0  0  0
 39 41  1  0  0  0  0
 40 37  2  0  0  0  0
 41 43  1  0  0  0  0
 41 42  1  0  0  0  0
 43 42  1  0  0  0  0
 44 45  1  6  0  0  0
 44 38  1  0  0  0  0
 45 46  1  0  0  0  0
 47 49  1  0  0  0  0
 47 44  1  0  0  0  0
 48 49  2  0  0  0  0
 49 50  1  0  0  0  0
M  END
>  <MODEL>
6

>  <REMARK>
 VINA RESULT:      -7.3      2.266      2.847
  Name = 
  13 active torsions:
  status: ('A' for Active; 'I' for Inactive)
    1  A    between atoms: O_2  and  C_25
    2  A    between atoms: O_2  and  C_41
    3  A    between atoms: C_3  and  C_37
    4  A    between atoms: C_7  and  N_27
    5  A    between atoms: O_9  and  C_15
    6  A    between atoms: O_9  and  C_18
    7  A    between atoms: CA_14  and  N_19
    8  A    between atoms: CA_14  and  C_22
    9  A    between atoms: CA_14  and  CB_48
   10  A    between atoms: C_17  and  C_29
   11  A    between atoms: CG_24  and  CB_48
   12  A    between atoms: N_27  and  N_32
   13  A    between atoms: C_29  and  C_43
                            x       y       z     vdW  Elec       q    Type
                         _______ _______ _______ _____ _____    ______ ____

>  <TORSDO>
F 13

$$$$
=
 OpenBabel11062414283D

 50 56  0  0  1  0  0  0  0  0999 V2000
  188.8560  177.2060  146.5460 C   0  0  0  0  0  1  0  0  0  0  0  0
  191.0300  176.0770  145.0230 O   0  0  0  0  0  1  0  0  0  0  0  0
  188.8430  177.1390  145.0550 C   0  0  0  0  0  0  0  0  0  0  0  0
  188.8040  177.0580  142.2170 C   0  0  0  0  0  0  0  0  0  0  0  0
  189.9220  176.5800  144.3450 C   0  0  0  0  0  0  0  0  0  0  0  0
  187.7380  177.6120  142.9320 C   0  0  0  0  0  0  0  0  0  0  0  0
  186.3630  178.3760  144.8840 S   0  0  0  0  0  0  0  0  0  0  0  0
  185.7000  178.6250  143.3440 C   0  0  0  0  0  0  0  0  0  0  0  0
  187.7630  177.6430  144.3200 C   0  0  0  0  0  0  0  0  0  0  0  0
  189.8950  176.5330  142.9390 C   0  0  0  0  0  3  0  0  0  0  0  0
  186.5840  178.1700  142.3690 C   0  0  0  0  0  3  0  0  0  0  0  0
  188.7770  177.0510  140.8200 O   0  0  0  0  0  0  0  0  0  0  0  0
  190.5050  177.1140  139.1330 C   0  0  2  0  0  3  0  0  0  0  0  0
  191.3000  176.2690  139.8880 F   0  0  0  0  0  0  0  0  0  0  0  0
  187.9730  177.9770  138.0920 C   0  0  0  0  0  3  0  0  0  0  0  0
  188.4980  176.8360  137.6180 C   0  0  0  0  0  0  0  0  0  0  0  0
  189.5740  177.9260  140.0300 C   0  0  1  0  0  3  0  0  0  0  0  0
  188.6780  178.7960  139.1440 C   0  0  0  0  0  2  0  0  0  0  0  0
  189.7240  176.3380  138.1700 N   0  0  0  0  0  2  0  0  0  0  0  0
  188.7130  175.4010  135.6930 O   0  0  0  0  0  0  0  0  0  0  0  0
  187.7990  176.0300  136.5660 C   0  0  1  0  0  3  0  0  0  0  0  0
  187.0820  173.7550  135.0380 C   0  0  0  0  0  2  0  0  0  0  0  0
  186.8940  174.9820  137.2200 C   0  0  0  0  0  2  0  0  0  0  0  0
  186.1250  174.2230  136.1370 C   0  0  1  0  0  3  0  0  0  0  0  0
  187.9710  174.9210  134.5990 C   0  0  0  0  0  2  0  0  0  0  0  0
  185.1430  175.0550  135.5820 O   0  0  0  0  0  0  0  0  0  0  0  0
  184.2930  175.3710  136.6450 C   0  0  2  0  0  3  0  0  0  0  0  0
  182.8810  175.5340  136.1130 C   0  0  1  0  0  3  0  0  0  0  0  0
  181.9730  175.3180  137.1490 O   0  0  0  0  0  1  0  0  0  0  0  0
  183.7160  176.7560  136.4270 C   0  0  0  0  0  2  0  0  0  0  0  0
  184.4090  179.3170  143.0340 C   0  0  0  0  0  2  0  0  0  0  0  0
  183.4600  178.4220  142.2490 C   0  0  1  0  0  3  0  0  0  0  0  0
  184.4560  179.5450  140.2900 O   0  0  0  0  0  1  0  0  0  0  0  0
  182.4430  179.2780  141.5770 N   0  0  0  0  0  0  0  0  0  0  0  0
  183.1600  177.5600  139.9910 O   0  0  0  0  0  1  0  0  0  0  0  0
  183.5340  178.6300  140.8100 C   0  0  0  0  0  0  0  0  0  0  0  0
  180.4030  178.8240  140.3010 C   0  0  0  0  0  0  0  0  0  0  0  0
  180.7730  179.8730  139.3990 N   0  0  0  0  0  2  0  0  0  0  0  0
  181.2370  178.5460  141.4580 N   0  0  0  0  0  0  0  0  0  0  0  0
  179.3800  178.1260  140.0530 O   0  0  0  0  0  0  0  0  0  0  0  0
  180.7770  177.8190  142.6660 C   0  0  0  0  0  3  0  0  0  0  0  0
  180.8800  178.6270  143.9490 C   0  0  0  0  0  2  0  0  0  0  0  0
  179.5350  178.4450  143.2660 C   0  0  0  0  0  2  0  0  0  0  0  0
  180.0600  180.1420  138.1590 C   0  0  2  0  0  3  0  0  0  0  0  0
  180.9510  179.7770  136.9770 C   0  0  0  0  0  2  0  0  0  0  0  0
  180.6970  178.4690  136.5680 O   0  0  0  0  0  1  0  0  0  0  0  0
  179.6930  181.6210  138.1110 C   0  0  0  0  0  2  0  0  0  0  0  0
  181.8680  182.5670  138.3360 O   0  0  0  0  0  0  0  0  0  0  0  0
  180.8400  182.4380  137.6250 C   0  0  0  0  0  0  0  0  0  0  0  0
  180.7810  183.0550  136.3440 N   0  0  0  0  0  1  0  0  0  0  0  0
  3  1  1  0  0  0  0
  4  6  2  0  0  0  0
  4 10  1  0  0  0  0
  5  2  1  0  0  0  0
  5  3  1  0  0  0  0
  6  9  1  0  0  0  0
  8  7  1  0  0  0  0
  9  7  1  0  0  0  0
  9  3  2  0  0  0  0
 10  5  2  0  0  0  0
 11  6  1  0  0  0  0
 11  8  2  0  0  0  0
 12  4  1  0  0  0  0
 13 14  1  1  0  0  0
 13 17  1  0  0  0  0
 15 18  1  0  0  0  0
 16 15  2  0  0  0  0
 16 19  1  0  0  0  0
 17 12  1  6  0  0  0
 18 17  1  0  0  0  0
 19 13  1  0  0  0  0
 20 21  1  0  0  0  0
 21 23  1  0  0  0  0
 21 16  1  1  0  0  0
 22 24  1  0  0  0  0
 24 26  1  6  0  0  0
 24 23  1  0  0  0  0
 25 22  1  0  0  0  0
 25 20  1  0  0  0  0
 27 26  1  6  0  0  0
 28 30  1  0  0  0  0
 28 27  1  0  0  0  0
 28 29  1  1  0  0  0
 30 27  1  0  0  0  0
 31  8  1  0  0  0  0
 32 31  1  1  0  0  0
 33 36  1  0  0  0  0
 34 32  1  0  0  0  0
 35 36  1  0  0  0  0
 36 34  1  0  0  0  0
 36 32  1  0  0  0  0
 37 39  1  0  0  0  0
 38 37  1  0  0  0  0
 39 34  1  0  0  0  0
 39 41  1  0  0  0  0
 40 37  2  0  0  0  0
 41 43  1  0  0  0  0
 41 42  1  0  0  0  0
 43 42  1  0  0  0  0
 44 45  1  6  0  0  0
 44 38  1  0  0  0  0
 46 45  1  0  0  0  0
 47 44  1  0  0  0  0
 49 47  1  0  0  0  0
 49 48  2  0  0  0  0
 50 49  1  0  0  0  0
M  END
>  <MODEL>
7

>  <REMARK>
 VINA RESULT:      -7.0      1.703      2.418
  Name = 
  13 active torsions:
  status: ('A' for Active; 'I' for Inactive)
    1  A    between atoms: O_2  and  C_25
    2  A    between atoms: O_2  and  C_41
    3  A    between atoms: C_3  and  C_37
    4  A    between atoms: C_7  and  N_27
    5  A    between atoms: O_9  and  C_15
    6  A    between atoms: O_9  and  C_18
    7  A    between atoms: CA_14  and  N_19
    8  A    between atoms: CA_14  and  C_22
    9  A    between atoms: CA_14  and  CB_48
   10  A    between atoms: C_17  and  C_29
   11  A    between atoms: CG_24  and  CB_48
   12  A    between atoms: N_27  and  N_32
   13  A    between atoms: C_29  and  C_43
                            x       y       z     vdW  Elec       q    Type
                         _______ _______ _______ _____ _____    ______ ____

>  <TORSDO>
F 13

$$$$
=
 OpenBabel11062414283D

 50 56  0  0  1  0  0  0  0  0999 V2000
  181.0240  178.8240  143.9180 C   0  0  0  0  0  1  0  0  0  0  0  0
  179.0740  178.1100  141.9150 O   0  0  0  0  0  1  0  0  0  0  0  0
  181.3910  178.5680  142.4940 C   0  0  0  0  0  0  0  0  0  0  0  0
  182.1270  178.0540  139.8000 C   0  0  0  0  0  0  0  0  0  0  0  0
  180.4120  178.2230  141.5430 C   0  0  0  0  0  0  0  0  0  0  0  0
  183.0910  178.3970  140.7520 C   0  0  0  0  0  0  0  0  0  0  0  0
  184.0900  179.0190  142.9660 S   0  0  0  0  0  0  0  0  0  0  0  0
  185.1610  178.8870  141.6590 C   0  0  0  0  0  0  0  0  0  0  0  0
  182.7220  178.6510  142.0670 C   0  0  0  0  0  0  0  0  0  0  0  0
  180.7790  177.9780  140.2070 C   0  0  0  0  0  3  0  0  0  0  0  0
  184.4650  178.5180  140.5110 C   0  0  0  0  0  3  0  0  0  0  0  0
  182.5130  177.7800  138.4860 O   0  0  0  0  0  0  0  0  0  0  0  0
  182.3340  176.9680  136.2170 C   0  0  2  0  0  3  0  0  0  0  0  0
  182.2520  178.2650  135.7390 F   0  0  0  0  0  0  0  0  0  0  0  0
  183.3840  174.9630  137.9820 C   0  0  0  0  0  2  0  0  0  0  0  0
  184.1890  175.4500  137.0230 C   0  0  0  0  0  0  0  0  0  0  0  0
  181.7960  176.8830  137.6440 C   0  0  1  0  0  3  0  0  0  0  0  0
  181.9650  175.4460  138.1440 C   0  0  0  0  0  2  0  0  0  0  0  0
  183.7200  176.5050  136.1730 N   0  0  0  0  0  0  0  0  0  0  0  0
  185.6370  173.6090  136.4530 O   0  0  0  0  0  0  0  0  0  0  0  0
  185.5950  174.9610  136.8590 C   0  0  1  0  0  3  0  0  0  0  0  0
  187.8630  173.8580  135.5690 C   0  0  0  0  0  2  0  0  0  0  0  0
  186.3430  175.8350  135.8470 C   0  0  0  0  0  2  0  0  0  0  0  0
  187.7990  175.3750  135.7510 C   0  0  1  0  0  3  0  0  0  0  0  0
  186.9670  173.1760  136.6050 C   0  0  0  0  0  2  0  0  0  0  0  0
  188.4880  175.7400  136.9150 O   0  0  0  0  0  0  0  0  0  0  0  0
  189.8230  175.4150  136.6630 C   0  0  2  0  0  3  0  0  0  0  0  0
  190.5460  175.2480  137.9870 C   0  0  1  0  0  3  0  0  0  0  0  0
  191.6650  174.4370  137.7990 O   0  0  0  0  0  1  0  0  0  0  0  0
  190.7130  176.5240  137.1910 C   0  0  0  0  0  2  0  0  0  0  0  0
  186.6500  179.0360  141.7130 C   0  0  0  0  0  2  0  0  0  0  0  0
  187.3310  177.7640  142.1970 C   0  0  1  0  0  3  0  0  0  0  0  0
  186.7030  178.6030  144.4320 O   0  0  0  0  0  1  0  0  0  0  0  0
  188.5510  178.1390  142.9650 N   0  0  0  0  0  0  0  0  0  0  0  0
  187.4170  176.3370  144.1690 O   0  0  0  0  0  1  0  0  0  0  0  0
  187.3360  177.6320  143.6470 C   0  0  0  0  0  0  0  0  0  0  0  0
  190.2970  176.7640  143.9950 C   0  0  0  0  0  0  0  0  0  0  0  0
  190.1380  177.5230  145.1990 N   0  0  0  0  0  2  0  0  0  0  0  0
  189.5150  177.1120  142.8200 N   0  0  0  0  0  0  0  0  0  0  0  0
  191.0830  175.7760  143.9850 O   0  0  0  0  0  0  0  0  0  0  0  0
  189.8680  176.7200  141.4340 C   0  0  0  0  0  3  0  0  0  0  0  0
  189.9240  177.8840  140.4590 C   0  0  0  0  0  2  0  0  0  0  0  0
  191.2080  177.2840  141.0080 C   0  0  0  0  0  2  0  0  0  0  0  0
  190.7950  177.1730  146.4500 C   0  0  2  0  0  3  0  0  0  0  0  0
  191.9920  176.2760  146.1560 C   0  0  0  0  0  2  0  0  0  0  0  0
  192.4320  175.6610  147.3280 O   0  0  0  0  0  1  0  0  0  0  0  0
  189.7960  176.4480  147.3450 C   0  0  0  0  0  2  0  0  0  0  0  0
  187.5660  177.1040  147.8680 O   0  0  0  0  0  0  0  0  0  0  0  0
  188.7880  177.3970  147.8950 C   0  0  0  0  0  0  0  0  0  0  0  0
  189.2110  178.6270  148.4740 N   0  0  0  0  0  1  0  0  0  0  0  0
  3  1  1  0  0  0  0
  4 10  2  0  0  0  0
  4  6  1  0  0  0  0
  5  2  1  0  0  0  0
  5  3  2  0  0  0  0
  6  9  2  0  0  0  0
  8 31  1  0  0  0  0
  8  7  1  0  0  0  0
  9  3  1  0  0  0  0
  9  7  1  0  0  0  0
 10  5  1  0  0  0  0
 11  6  1  0  0  0  0
 11  8  2  0  0  0  0
 12  4  1  0  0  0  0
 13 14  1  1  0  0  0
 13 17  1  0  0  0  0
 15 18  1  0  0  0  0
 16 15  1  0  0  0  0
 17 18  1  0  0  0  0
 17 12  1  1  0  0  0
 19 13  1  0  0  0  0
 19 16  2  0  0  0  0
 20 25  1  0  0  0  0
 20 21  1  0  0  0  0
 21 16  1  6  0  0  0
 22 24  1  0  0  0  0
 22 25  1  0  0  0  0
 23 21  1  0  0  0  0
 24 23  1  0  0  0  0
 24 26  1  1  0  0  0
 27 26  1  1  0  0  0
 27 30  1  0  0  0  0
 27 28  1  0  0  0  0
 28 29  1  6  0  0  0
 30 28  1  0  0  0  0
 32 31  1  1  0  0  0
 32 34  1  0  0  0  0
 32 36  1  0  0  0  0
 34 36  1  0  0  0  0
 36 35  1  0  0  0  0
 36 33  1  0  0  0  0
 37 38  1  0  0  0  0
 38 44  1  0  0  0  0
 39 34  1  0  0  0  0
 39 37  1  0  0  0  0
 40 37  2  0  0  0  0
 41 39  1  0  0  0  0
 42 43  1  0  0  0  0
 42 41  1  0  0  0  0
 43 41  1  0  0  0  0
 44 45  1  6  0  0  0
 44 47  1  0  0  0  0
 45 46  1  0  0  0  0
 47 49  1  0  0  0  0
 48 49  2  0  0  0  0
 49 50  1  0  0  0  0
M  END
>  <MODEL>
8

>  <REMARK>
 VINA RESULT:      -6.8      3.134      8.619
  Name = 
  13 active torsions:
  status: ('A' for Active; 'I' for Inactive)
    1  A    between atoms: O_2  and  C_25
    2  A    between atoms: O_2  and  C_41
    3  A    between atoms: C_3  and  C_37
    4  A    between atoms: C_7  and  N_27
    5  A    between atoms: O_9  and  C_15
    6  A    between atoms: O_9  and  C_18
    7  A    between atoms: CA_14  and  N_19
    8  A    between atoms: CA_14  and  C_22
    9  A    between atoms: CA_14  and  CB_48
   10  A    between atoms: C_17  and  C_29
   11  A    between atoms: CG_24  and  CB_48
   12  A    between atoms: N_27  and  N_32
   13  A    between atoms: C_29  and  C_43
                            x       y       z     vdW  Elec       q    Type
                         _______ _______ _______ _____ _____    ______ ____

>  <TORSDO>
F 13

$$$$
=
 OpenBabel11062414283D

 50 56  0  0  1  0  0  0  0  0999 V2000
  186.9580  177.7400  145.6890 C   0  0  0  0  0  1  0  0  0  0  0  0
  184.5670  178.4840  147.1200 O   0  0  0  0  0  1  0  0  0  0  0  0
  185.7250  178.2200  144.9990 C   0  0  0  0  0  0  0  0  0  0  0  0
  183.3830  179.0990  143.6540 C   0  0  0  0  0  0  0  0  0  0  0  0
  184.5770  178.5770  145.7300 C   0  0  0  0  0  0  0  0  0  0  0  0
  184.5290  178.7420  142.9370 C   0  0  0  0  0  0  0  0  0  0  0  0
  186.8630  177.9500  142.4800 S   0  0  0  0  0  0  0  0  0  0  0  0
  185.9250  178.3680  141.1320 C   0  0  0  0  0  0  0  0  0  0  0  0
  185.6710  178.3180  143.6030 C   0  0  0  0  0  0  0  0  0  0  0  0
  183.4210  179.0200  145.0620 C   0  0  0  0  0  3  0  0  0  0  0  0
  184.6560  178.7670  141.5430 C   0  0  0  0  0  3  0  0  0  0  0  0
  182.2330  179.5040  142.9730 O   0  0  0  0  0  0  0  0  0  0  0  0
  179.8650  179.9120  142.7150 C   0  0  2  0  0  3  0  0  0  0  0  0
  180.0060  181.1810  143.2480 F   0  0  0  0  0  0  0  0  0  0  0  0
  180.7470  177.7170  141.0900 C   0  0  0  0  0  3  0  0  0  0  0  0
  180.3150  178.8290  140.4740 C   0  0  0  0  0  0  0  0  0  0  0  0
  180.9420  178.9750  143.2580 C   0  0  1  0  0  3  0  0  0  0  0  0
  180.7780  177.6050  142.5940 C   0  0  0  0  0  2  0  0  0  0  0  0
  179.9380  179.9700  141.2560 N   0  0  0  0  0  2  0  0  0  0  0  0
  179.7340  180.1640  138.5530 O   0  0  0  0  0  0  0  0  0  0  0  0
  180.2760  178.9320  138.9800 C   0  0  1  0  0  3  0  0  0  0  0  0
  180.8010  179.9800  136.4010 C   0  0  0  0  0  2  0  0  0  0  0  0
  181.6840  178.7500  138.4030 C   0  0  0  0  0  2  0  0  0  0  0  0
  181.6170  178.7760  136.8750 C   0  0  1  0  0  3  0  0  0  0  0  0
  179.4820  180.0440  137.1740 C   0  0  0  0  0  2  0  0  0  0  0  0
  181.0280  177.5940  136.4070 O   0  0  0  0  0  0  0  0  0  0  0  0
  182.0380  176.6310  136.4800 C   0  0  2  0  0  3  0  0  0  0  0  0
  181.7610  175.5500  135.4530 C   0  0  1  0  0  3  0  0  0  0  0  0
  182.9550  174.9040  135.1340 O   0  0  0  0  0  1  0  0  0  0  0  0
  181.4350  175.3080  136.9100 C   0  0  0  0  0  2  0  0  0  0  0  0
  186.3300  178.2460  139.6960 C   0  0  0  0  0  2  0  0  0  0  0  0
  187.8010  178.5810  139.4900 C   0  0  1  0  0  3  0  0  0  0  0  0
  187.2320  178.3790  137.0970 O   0  0  0  0  0  1  0  0  0  0  0  0
  188.4830  177.3960  138.8990 N   0  0  0  0  0  0  0  0  0  0  0  0
  189.2950  179.3950  137.7470 O   0  0  0  0  0  1  0  0  0  0  0  0
  188.1930  178.6030  138.0890 C   0  0  0  0  0  0  0  0  0  0  0  0
  190.7960  176.7130  138.4720 C   0  0  0  0  0  0  0  0  0  0  0  0
  190.3390  176.0150  137.3070 N   0  0  0  0  0  2  0  0  0  0  0  0
  189.8330  177.3850  139.3280 N   0  0  0  0  0  0  0  0  0  0  0  0
  192.0330  176.7690  138.7140 O   0  0  0  0  0  0  0  0  0  0  0  0
  190.0860  177.7610  140.7390 C   0  0  0  0  0  3  0  0  0  0  0  0
  190.1490  176.5780  141.6910 C   0  0  0  0  0  2  0  0  0  0  0  0
  191.4280  177.2550  141.2290 C   0  0  0  0  0  2  0  0  0  0  0  0
  191.2430  175.4140  136.3370 C   0  0  2  0  0  3  0  0  0  0  0  0
  190.5800  175.4140  134.9640 C   0  0  0  0  0  2  0  0  0  0  0  0
  189.3550  176.0760  135.0210 O   0  0  0  0  0  1  0  0  0  0  0  0
  191.5580  173.9880  136.7740 C   0  0  0  0  0  2  0  0  0  0  0  0
  193.3940  173.1820  135.4880 O   0  0  0  0  0  0  0  0  0  0  0  0
  193.0010  173.6760  136.5740 C   0  0  0  0  0  0  0  0  0  0  0  0
  193.9390  173.9600  137.6060 N   0  0  0  0  0  1  0  0  0  0  0  0
  3  1  1  0  0  0  0
  3  5  1  0  0  0  0
  4 10  1  0  0  0  0
  5  2  1  0  0  0  0
  6  9  1  0  0  0  0
  6  4  2  0  0  0  0
  7  9  1  0  0  0  0
  8 11  2  0  0  0  0
  8  7  1  0  0  0  0
  9  3  2  0  0  0  0
 10  5  2  0  0  0  0
 11  6  1  0  0  0  0
 12  4  1  0  0  0  0
 13 14  1  1  0  0  0
 13 17  1  0  0  0  0
 15 18  1  0  0  0  0
 16 15  2  0  0  0  0
 16 19  1  0  0  0  0
 17 12  1  6  0  0  0
 18 17  1  0  0  0  0
 19 13  1  0  0  0  0
 20 21  1  0  0  0  0
 21 16  1  1  0  0  0
 22 24  1  0  0  0  0
 22 25  1  0  0  0  0
 23 21  1  0  0  0  0
 24 26  1  1  0  0  0
 24 23  1  0  0  0  0
 25 20  1  0  0  0  0
 27 26  1  6  0  0  0
 27 30  1  0  0  0  0
 28 29  1  1  0  0  0
 28 27  1  0  0  0  0
 28 30  1  0  0  0  0
 31  8  1  0  0  0  0
 32 31  1  6  0  0  0
 33 36  1  0  0  0  0
 34 39  1  0  0  0  0
 34 32  1  0  0  0  0
 35 36  1  0  0  0  0
 36 34  1  0  0  0  0
 36 32  1  0  0  0  0
 37 40  2  0  0  0  0
 37 39  1  0  0  0  0
 38 37  1  0  0  0  0
 39 41  1  0  0  0  0
 41 43  1  0  0  0  0
 41 42  1  0  0  0  0
 43 42  1  0  0  0  0
 44 45  1  6  0  0  0
 44 47  1  0  0  0  0
 44 38  1  0  0  0  0
 45 46  1  0  0  0  0
 48 49  2  0  0  0  0
 49 47  1  0  0  0  0
 49 50  1  0  0  0  0
M  END
>  <MODEL>
9

>  <REMARK>
 VINA RESULT:      -6.7      3.191      8.646
  Name = 
  13 active torsions:
  status: ('A' for Active; 'I' for Inactive)
    1  A    between atoms: O_2  and  C_25
    2  A    between atoms: O_2  and  C_41
    3  A    between atoms: C_3  and  C_37
    4  A    between atoms: C_7  and  N_27
    5  A    between atoms: O_9  and  C_15
    6  A    between atoms: O_9  and  C_18
    7  A    between atoms: CA_14  and  N_19
    8  A    between atoms: CA_14  and  C_22
    9  A    between atoms: CA_14  and  CB_48
   10  A    between atoms: C_17  and  C_29
   11  A    between atoms: CG_24  and  CB_48
   12  A    between atoms: N_27  and  N_32
   13  A    between atoms: C_29  and  C_43
                            x       y       z     vdW  Elec       q    Type
                         _______ _______ _______ _____ _____    ______ ____

>  <TORSDO>
F 13

$$$$
