=
 OpenBabel11062412593D

 38 42  0  0  1  0  0  0  0  0999 V2000
  186.2620  178.3420  142.1970 C   0  0  0  0  0  0  0  0  0  0  0  0
  183.8540  179.7170  144.1770 N   0  0  0  0  0  1  0  0  0  0  0  0
  185.6930  177.8250  145.6970 N   0  0  0  0  0  0  0  0  0  0  0  0
  186.8790  177.5090  146.2260 N   0  0  0  0  0  0  0  0  0  0  0  0
  184.7910  178.6390  142.1980 C   0  0  2  0  0  3  0  0  0  0  0  0
  186.6710  177.9690  143.5440 C   0  0  0  0  0  0  0  0  0  0  0  0
  187.0790  178.8740  141.2960 C   0  0  0  0  0  2  0  0  0  0  0  0
  187.9990  177.4000  145.4540 C   0  0  0  0  0  3  0  0  0  0  0  0
  184.3350  178.4500  143.6550 C   0  0  1  0  0  3  0  0  0  0  0  0
  185.5810  178.0520  144.3660 C   0  0  0  0  0  0  0  0  0  0  0  0
  187.9290  177.6210  144.0680 C   0  0  0  0  0  0  0  0  0  0  0  0
  192.2530  176.9260  139.3020 C   0  0  0  0  0  0  0  0  0  0  0  0
  188.9950  176.9040  141.9990 C   0  0  0  0  0  3  0  0  0  0  0  0
  192.3650  177.5380  140.4460 N   0  0  0  0  0  0  0  0  0  0  0  0
  190.4480  178.0350  143.6860 C   0  0  0  0  0  2  0  0  0  0  0  0
  191.2310  177.7490  141.3420 C   0  0  1  0  0  3  0  0  0  0  0  0
  190.9410  176.2640  138.9030 C   0  0  0  0  0  2  0  0  0  0  0  0
  190.1760  176.6840  141.1050 C   0  0  2  0  0  3  0  0  0  0  0  0
  191.6490  177.6820  142.8000 C   0  0  0  0  0  2  0  0  0  0  0  0
  189.1290  177.4320  143.2290 C   0  0  0  0  0  0  0  0  0  0  0  0
  189.7970  176.7240  139.6990 N   0  0  0  0  0  2  0  0  0  0  0  0
  193.3830  176.8290  138.4860 O   0  0  0  0  0  0  0  0  0  0  0  0
  193.5380  175.6730  137.2210 P   0  0  0  0  0  0  0  0  0  0  0  0
  193.2170  174.1260  137.8240 O   0  0  0  0  0  1  0  0  0  0  0  0
  192.4460  176.0360  135.9830 O   0  0  0  0  0  0  0  0  0  0  0  0
  194.9470  175.7150  136.6750 O   0  0  0  0  0  1  0  0  0  0  0  0
  182.9080  175.8760  139.6900 O   0  0  0  0  0  1  0  0  0  0  0  0
  182.3110  177.0950  139.9160 N   0  0  0  0  0  0  0  0  0  0  0  0
  182.8580  177.9770  140.6900 C   0  0  0  0  0  0  0  0  0  0  0  0
  184.0980  177.6860  141.3450 N   0  0  0  0  0  2  0  0  0  0  0  0
  182.1510  179.2790  140.9060 C   0  0  0  0  0  2  0  0  0  0  0  0
  180.8040  179.3340  140.1790 C   0  0  1  0  0  3  0  0  0  0  0  0
  180.3620  179.2050  142.7710 S   0  0  0  0  0  0  0  0  0  0  0  0
  179.7300  180.8450  142.7680 N   0  0  0  0  0  2  0  0  0  0  0  0
  179.6930  179.3040  141.1370 N   0  0  0  0  0  0  0  0  0  0  0  0
  179.2650  180.6760  141.3990 C   0  0  0  0  0  2  0  0  0  0  0  0
  180.7630  180.6280  139.3720 C   0  0  0  0  0  2  0  0  0  0  0  0
  181.8570  180.6340  138.3210 C   0  0  0  0  0  1  0  0  0  0  0  0
  1  5  1  0  0  0  0
  1  6  1  0  0  0  0
  3  4  1  0  0  0  0
  5 30  1  6  0  0  0
  5  9  1  0  0  0  0
  6 11  2  0  0  0  0
  6 10  1  0  0  0  0
  7  1  2  0  0  0  0
  8  4  2  0  0  0  0
  9  2  1  1  0  0  0
  9 10  1  0  0  0  0
 10  3  2  0  0  0  0
 11  8  1  0  0  0  0
 12 14  2  0  0  0  0
 13 20  2  0  0  0  0
 14 16  1  0  0  0  0
 16 19  1  1  0  0  0
 17 12  1  0  0  0  0
 17 21  1  0  0  0  0
 18 16  1  0  0  0  0
 18 13  1  1  0  0  0
 19 15  1  0  0  0  0
 20 15  1  0  0  0  0
 20 11  1  0  0  0  0
 21 18  1  0  0  0  0
 22 12  1  0  0  0  0
 23 24  1  0  0  0  0
 23 22  1  0  0  0  0
 25 23  2  0  0  0  0
 26 23  1  0  0  0  0
 27 28  1  0  0  0  0
 28 29  2  0  0  0  0
 29 31  1  0  0  0  0
 29 30  1  0  0  0  0
 32 37  1  1  0  0  0
 32 31  1  0  0  0  0
 32 35  1  0  0  0  0
 34 33  1  0  0  0  0
 35 36  1  0  0  0  0
 35 33  1  0  0  0  0
 36 34  1  0  0  0  0
 38 37  1  0  0  0  0
M  END
>  <MODEL>
1

>  <REMARK>
 VINA RESULT:      -8.6      0.000      0.000
  Name = 
  8 active torsions:
  status: ('A' for Active; 'I' for Inactive)
    1  A    between atoms: P_1  and  O_13
    2  A    between atoms: C_2  and  O_13
    3  A    between atoms: C_12  and  C_27
    4  A    between atoms: C_14  and  N_35
    5  A    between atoms: C_22  and  C_27
    6  A    between atoms: C_22  and  C_30
    7  A    between atoms: N_23  and  C_27
    8  A    between atoms: C_33  and  C_38
                            x       y       z     vdW  Elec       q    Type
                         _______ _______ _______ _____ _____    ______ ____

>  <TORSDO>
F 8

$$$$
=
 OpenBabel11062412593D

 38 42  0  0  1  0  0  0  0  0999 V2000
  184.4680  178.6540  140.5070 C   0  0  0  0  0  0  0  0  0  0  0  0
  182.3170  180.4460  138.5640 N   0  0  0  0  0  1  0  0  0  0  0  0
  181.0110  179.3910  141.1040 N   0  0  0  0  0  0  0  0  0  0  0  0
  180.8530  179.3870  142.4310 N   0  0  0  0  0  0  0  0  0  0  0  0
  184.0540  178.8080  139.0720 C   0  0  2  0  0  3  0  0  0  0  0  0
  183.2990  178.8280  141.3590 C   0  0  0  0  0  0  0  0  0  0  0  0
  185.7120  178.8910  140.9020 C   0  0  0  0  0  2  0  0  0  0  0  0
  181.8870  179.1000  143.2740 C   0  0  0  0  0  3  0  0  0  0  0  0
  182.5480  179.1210  139.1110 C   0  0  1  0  0  3  0  0  0  0  0  0
  182.2220  179.1110  140.5640 C   0  0  0  0  0  0  0  0  0  0  0  0
  183.1590  178.7990  142.7580 C   0  0  0  0  0  0  0  0  0  0  0  0
  188.7660  177.1910  145.5650 C   0  0  0  0  0  0  0  0  0  0  0  0
  185.3130  177.7460  143.1850 C   0  0  0  0  0  3  0  0  0  0  0  0
  187.7950  177.9390  146.0090 N   0  0  0  0  0  0  0  0  0  0  0  0
  184.2640  178.9850  145.0830 C   0  0  0  0  0  2  0  0  0  0  0  0
  186.6660  178.3420  145.1750 C   0  0  1  0  0  3  0  0  0  0  0  0
  188.6940  176.5750  144.1750 C   0  0  0  0  0  2  0  0  0  0  0  0
  186.4520  177.3310  144.0640 C   0  0  2  0  0  3  0  0  0  0  0  0
  185.3820  178.4370  145.9790 C   0  0  0  0  0  2  0  0  0  0  0  0
  184.2550  178.4200  143.6710 C   0  0  0  0  0  0  0  0  0  0  0  0
  187.6930  177.2130  143.3110 N   0  0  0  0  0  2  0  0  0  0  0  0
  189.8340  176.9120  146.4210 O   0  0  0  0  0  0  0  0  0  0  0  0
  191.4700  176.8350  145.8930 P   0  0  0  0  0  0  0  0  0  0  0  0
  192.4870  176.6060  147.2250 O   0  0  0  0  0  1  0  0  0  0  0  0
  191.6570  175.5510  144.8090 O   0  0  0  0  0  0  0  0  0  0  0  0
  191.8340  178.1300  145.2030 O   0  0  0  0  0  1  0  0  0  0  0  0
  184.6470  175.1520  137.1360 O   0  0  0  0  0  1  0  0  0  0  0  0
  185.5880  176.1460  136.9980 N   0  0  0  0  0  0  0  0  0  0  0  0
  185.4400  177.2960  137.5760 C   0  0  0  0  0  0  0  0  0  0  0  0
  184.2720  177.5570  138.3630 N   0  0  0  0  0  2  0  0  0  0  0  0
  186.4930  178.3410  137.3760 C   0  0  0  0  0  2  0  0  0  0  0  0
  187.9070  177.7590  137.4490 C   0  0  1  0  0  3  0  0  0  0  0  0
  189.8610  176.8120  135.9600 S   0  0  0  0  0  0  0  0  0  0  0  0
  188.7430  176.5260  134.6350 N   0  0  0  0  0  2  0  0  0  0  0  0
  188.6720  178.0910  136.2410 N   0  0  0  0  0  0  0  0  0  0  0  0
  187.9180  177.6420  135.0730 C   0  0  0  0  0  2  0  0  0  0  0  0
  188.5910  178.3510  138.6790 C   0  0  0  0  0  2  0  0  0  0  0  0
  188.9740  177.2540  139.6540 C   0  0  0  0  0  1  0  0  0  0  0  0
  1  7  2  0  0  0  0
  1  6  1  0  0  0  0
  3  4  1  0  0  0  0
  4  8  2  0  0  0  0
  5 30  1  6  0  0  0
  5  9  1  0  0  0  0
  5  1  1  0  0  0  0
  6 11  2  0  0  0  0
  9  2  1  1  0  0  0
  9 10  1  0  0  0  0
 10  3  2  0  0  0  0
 10  6  1  0  0  0  0
 11  8  1  0  0  0  0
 11 20  1  0  0  0  0
 12 14  2  0  0  0  0
 12 22  1  0  0  0  0
 13 20  2  0  0  0  0
 15 19  1  0  0  0  0
 16 19  1  1  0  0  0
 16 14  1  0  0  0  0
 17 12  1  0  0  0  0
 18 13  1  6  0  0  0
 18 16  1  0  0  0  0
 20 15  1  0  0  0  0
 21 18  1  0  0  0  0
 21 17  1  0  0  0  0
 23 22  1  0  0  0  0
 23 24  1  0  0  0  0
 25 23  2  0  0  0  0
 26 23  1  0  0  0  0
 28 27  1  0  0  0  0
 28 29  2  0  0  0  0
 29 30  1  0  0  0  0
 31 29  1  0  0  0  0
 32 31  1  6  0  0  0
 32 37  1  0  0  0  0
 33 35  1  0  0  0  0
 34 36  1  0  0  0  0
 34 33  1  0  0  0  0
 35 32  1  0  0  0  0
 36 35  1  0  0  0  0
 37 38  1  0  0  0  0
M  END
>  <MODEL>
2

>  <REMARK>
 VINA RESULT:      -8.4      4.280      7.020
  Name = 
  8 active torsions:
  status: ('A' for Active; 'I' for Inactive)
    1  A    between atoms: P_1  and  O_13
    2  A    between atoms: C_2  and  O_13
    3  A    between atoms: C_12  and  C_27
    4  A    between atoms: C_14  and  N_35
    5  A    between atoms: C_22  and  C_27
    6  A    between atoms: C_22  and  C_30
    7  A    between atoms: N_23  and  C_27
    8  A    between atoms: C_33  and  C_38
                            x       y       z     vdW  Elec       q    Type
                         _______ _______ _______ _____ _____    ______ ____

>  <TORSDO>
F 8

$$$$
=
 OpenBabel11062412593D

 38 42  0  0  1  0  0  0  0  0999 V2000
  184.7440  178.5410  140.8470 C   0  0  0  0  0  0  0  0  0  0  0  0
  182.0260  179.9870  139.3860 N   0  0  0  0  0  1  0  0  0  0  0  0
  181.4210  178.8660  142.1510 N   0  0  0  0  0  0  0  0  0  0  0  0
  181.5430  178.8890  143.4820 N   0  0  0  0  0  0  0  0  0  0  0  0
  184.0250  178.5930  139.5300 C   0  0  2  0  0  3  0  0  0  0  0  0
  183.7640  178.5990  141.9240 C   0  0  0  0  0  0  0  0  0  0  0  0
  186.0020  178.9420  140.9700 C   0  0  0  0  0  2  0  0  0  0  0  0
  182.7570  178.7600  144.0910 C   0  0  0  0  0  3  0  0  0  0  0  0
  182.5320  178.7190  139.8820 C   0  0  1  0  0  3  0  0  0  0  0  0
  182.5190  178.7200  141.3710 C   0  0  0  0  0  0  0  0  0  0  0  0
  183.9220  178.6000  143.3220 C   0  0  0  0  0  0  0  0  0  0  0  0
  188.8310  177.6780  147.4400 C   0  0  0  0  0  0  0  0  0  0  0  0
  185.3860  178.8040  145.2570 C   0  0  0  0  0  3  0  0  0  0  0  0
  188.6340  177.1810  146.2520 N   0  0  0  0  0  0  0  0  0  0  0  0
  186.2690  177.5260  143.3010 C   0  0  0  0  0  2  0  0  0  0  0  0
  187.3830  177.3580  145.5190 C   0  0  1  0  0  3  0  0  0  0  0  0
  187.8000  178.6040  148.0720 C   0  0  0  0  0  2  0  0  0  0  0  0
  186.6850  178.6240  145.9820 C   0  0  2  0  0  3  0  0  0  0  0  0
  187.6200  177.4700  144.0240 C   0  0  0  0  0  2  0  0  0  0  0  0
  185.2230  178.3910  143.9880 C   0  0  0  0  0  0  0  0  0  0  0  0
  186.4860  178.5330  147.4220 N   0  0  0  0  0  2  0  0  0  0  0  0
  190.0380  177.4000  148.0860 O   0  0  0  0  0  0  0  0  0  0  0  0
  191.3490  176.5850  147.3250 P   0  0  0  0  0  0  0  0  0  0  0  0
  191.7020  177.3310  145.8490 O   0  0  0  0  0  0  0  0  0  0  0  0
  192.7090  176.6410  148.3280 O   0  0  0  0  0  1  0  0  0  0  0  0
  190.9670  175.1440  147.0800 O   0  0  0  0  0  1  0  0  0  0  0  0
  184.6740  174.9750  137.5410 O   0  0  0  0  0  1  0  0  0  0  0  0
  185.3690  176.0940  137.1450 N   0  0  0  0  0  0  0  0  0  0  0  0
  185.1930  177.2360  137.7310 C   0  0  0  0  0  0  0  0  0  0  0  0
  184.2490  177.3550  138.8010 N   0  0  0  0  0  2  0  0  0  0  0  0
  185.9700  178.4200  137.2430 C   0  0  0  0  0  2  0  0  0  0  0  0
  187.4800  178.2290  137.4100 C   0  0  1  0  0  3  0  0  0  0  0  0
  189.0080  176.0900  137.5420 S   0  0  0  0  0  0  0  0  0  0  0  0
  189.9160  176.7920  138.8720 N   0  0  0  0  0  2  0  0  0  0  0  0
  187.7680  177.0990  138.3000 N   0  0  0  0  0  0  0  0  0  0  0  0
  188.7380  177.5300  139.3040 C   0  0  0  0  0  2  0  0  0  0  0  0
  188.0720  177.9700  136.0280 C   0  0  0  0  0  2  0  0  0  0  0  0
  187.0430  178.2460  134.9480 C   0  0  0  0  0  1  0  0  0  0  0  0
  1  7  2  0  0  0  0
  1  6  1  0  0  0  0
  3  4  1  0  0  0  0
  4  8  2  0  0  0  0
  5 30  1  1  0  0  0
  5  9  1  0  0  0  0
  5  1  1  0  0  0  0
  6 11  2  0  0  0  0
  9  2  1  1  0  0  0
  9 10  1  0  0  0  0
 10  6  1  0  0  0  0
 10  3  2  0  0  0  0
 11 20  1  0  0  0  0
 11  8  1  0  0  0  0
 12 17  1  0  0  0  0
 12 22  1  0  0  0  0
 14 12  2  0  0  0  0
 15 20  1  0  0  0  0
 15 19  1  0  0  0  0
 16 19  1  6  0  0  0
 16 18  1  0  0  0  0
 16 14  1  0  0  0  0
 18 13  1  6  0  0  0
 18 21  1  0  0  0  0
 20 13  2  0  0  0  0
 21 17  1  0  0  0  0
 23 22  1  0  0  0  0
 23 25  1  0  0  0  0
 24 23  2  0  0  0  0
 26 23  1  0  0  0  0
 28 27  1  0  0  0  0
 28 29  2  0  0  0  0
 29 30  1  0  0  0  0
 31 32  1  0  0  0  0
 31 29  1  0  0  0  0
 32 37  1  6  0  0  0
 32 35  1  0  0  0  0
 33 35  1  0  0  0  0
 33 34  1  0  0  0  0
 34 36  1  0  0  0  0
 35 36  1  0  0  0  0
 38 37  1  0  0  0  0
M  END
>  <MODEL>
3

>  <REMARK>
 VINA RESULT:      -8.1      4.485      7.067
  Name = 
  8 active torsions:
  status: ('A' for Active; 'I' for Inactive)
    1  A    between atoms: P_1  and  O_13
    2  A    between atoms: C_2  and  O_13
    3  A    between atoms: C_12  and  C_27
    4  A    between atoms: C_14  and  N_35
    5  A    between atoms: C_22  and  C_27
    6  A    between atoms: C_22  and  C_30
    7  A    between atoms: N_23  and  C_27
    8  A    between atoms: C_33  and  C_38
                            x       y       z     vdW  Elec       q    Type
                         _______ _______ _______ _____ _____    ______ ____

>  <TORSDO>
F 8

$$$$
=
 OpenBabel11062412593D

 38 42  0  0  1  0  0  0  0  0999 V2000
  187.6810  177.4590  144.2140 C   0  0  0  0  0  0  0  0  0  0  0  0
  188.2970  176.4260  147.4020 N   0  0  0  0  0  1  0  0  0  0  0  0
  186.0930  178.5220  147.2470 N   0  0  0  0  0  0  0  0  0  0  0  0
  184.8600  178.9090  146.9060 N   0  0  0  0  0  0  0  0  0  0  0  0
  188.8270  177.1750  145.1400 C   0  0  2  0  0  3  0  0  0  0  0  0
  186.5840  178.0360  144.9800 C   0  0  0  0  0  0  0  0  0  0  0  0
  187.5190  176.7880  143.0810 C   0  0  0  0  0  2  0  0  0  0  0  0
  184.4370  178.8890  145.6090 C   0  0  0  0  0  3  0  0  0  0  0  0
  188.3390  177.5930  146.5380 C   0  0  1  0  0  3  0  0  0  0  0  0
  186.9560  178.0900  146.2950 C   0  0  0  0  0  0  0  0  0  0  0  0
  185.3000  178.4540  144.5890 C   0  0  0  0  0  0  0  0  0  0  0  0
  182.0880  178.9590  138.9920 C   0  0  0  0  0  0  0  0  0  0  0  0
  183.5790  178.2240  142.8820 C   0  0  0  0  0  3  0  0  0  0  0  0
  183.2970  179.3360  139.2960 N   0  0  0  0  0  0  0  0  0  0  0  0
  185.8060  179.0710  142.1350 C   0  0  0  0  0  2  0  0  0  0  0  0
  183.8140  179.3020  140.6620 C   0  0  1  0  0  3  0  0  0  0  0  0
  181.1880  178.3210  140.0420 C   0  0  0  0  0  2  0  0  0  0  0  0
  183.0760  178.2510  141.4710 C   0  0  2  0  0  3  0  0  0  0  0  0
  185.2940  178.9670  140.6920 C   0  0  0  0  0  2  0  0  0  0  0  0
  184.8600  178.5020  143.1800 C   0  0  0  0  0  0  0  0  0  0  0  0
  181.6520  178.5500  141.4150 N   0  0  0  0  0  2  0  0  0  0  0  0
  181.6650  179.0890  137.6670 O   0  0  0  0  0  0  0  0  0  0  0  0
  180.7560  180.4330  137.0940 P   0  0  0  0  0  0  0  0  0  0  0  0
  181.3040  181.8490  137.8390 O   0  0  0  0  0  1  0  0  0  0  0  0
  180.9380  180.5690  135.4180 O   0  0  0  0  0  0  0  0  0  0  0  0
  179.2960  180.2260  137.4240 O   0  0  0  0  0  1  0  0  0  0  0  0
  192.0610  179.6100  144.0970 O   0  0  0  0  0  1  0  0  0  0  0  0
  191.6490  178.6280  143.2260 N   0  0  0  0  0  0  0  0  0  0  0  0
  190.6560  177.8480  143.5120 C   0  0  0  0  0  0  0  0  0  0  0  0
  189.9740  177.9870  144.7640 N   0  0  0  0  0  2  0  0  0  0  0  0
  190.2660  176.7900  142.5270 C   0  0  0  0  0  2  0  0  0  0  0  0
  190.5200  177.2240  141.0810 C   0  0  1  0  0  3  0  0  0  0  0  0
  190.9110  176.0250  138.7710 S   0  0  0  0  0  0  0  0  0  0  0  0
  192.3340  177.0120  138.4730 N   0  0  0  0  0  2  0  0  0  0  0  0
  191.4680  176.3180  140.4230 N   0  0  0  0  0  0  0  0  0  0  0  0
  192.5840  177.1060  139.9040 C   0  0  0  0  0  2  0  0  0  0  0  0
  189.1830  177.2030  140.3470 C   0  0  0  0  0  2  0  0  0  0  0  0
  188.7630  178.6100  139.9650 C   0  0  0  0  0  1  0  0  0  0  0  0
  1  6  1  0  0  0  0
  1  5  1  0  0  0  0
  4  3  1  0  0  0  0
  5 30  1  6  0  0  0
  5  9  1  0  0  0  0
  6 10  1  0  0  0  0
  7  1  2  0  0  0  0
  8  4  2  0  0  0  0
  9  2  1  1  0  0  0
 10  9  1  0  0  0  0
 10  3  2  0  0  0  0
 11  6  2  0  0  0  0
 11  8  1  0  0  0  0
 12 14  2  0  0  0  0
 12 17  1  0  0  0  0
 13 20  2  0  0  0  0
 14 16  1  0  0  0  0
 15 20  1  0  0  0  0
 16 19  1  6  0  0  0
 16 18  1  0  0  0  0
 17 21  1  0  0  0  0
 18 13  1  1  0  0  0
 19 15  1  0  0  0  0
 20 11  1  0  0  0  0
 21 18  1  0  0  0  0
 22 12  1  0  0  0  0
 23 26  1  0  0  0  0
 23 22  1  0  0  0  0
 23 24  1  0  0  0  0
 25 23  2  0  0  0  0
 28 29  2  0  0  0  0
 28 27  1  0  0  0  0
 29 30  1  0  0  0  0
 31 29  1  0  0  0  0
 32 37  1  6  0  0  0
 32 31  1  0  0  0  0
 33 35  1  0  0  0  0
 34 33  1  0  0  0  0
 34 36  1  0  0  0  0
 35 32  1  0  0  0  0
 36 35  1  0  0  0  0
 38 37  1  0  0  0  0
M  END
>  <MODEL>
4

>  <REMARK>
 VINA RESULT:      -8.0      4.288      8.906
  Name = 
  8 active torsions:
  status: ('A' for Active; 'I' for Inactive)
    1  A    between atoms: P_1  and  O_13
    2  A    between atoms: C_2  and  O_13
    3  A    between atoms: C_12  and  C_27
    4  A    between atoms: C_14  and  N_35
    5  A    between atoms: C_22  and  C_27
    6  A    between atoms: C_22  and  C_30
    7  A    between atoms: N_23  and  C_27
    8  A    between atoms: C_33  and  C_38
                            x       y       z     vdW  Elec       q    Type
                         _______ _______ _______ _____ _____    ______ ____

>  <TORSDO>
F 8

$$$$
=
 OpenBabel11062412593D

 38 42  0  0  1  0  0  0  0  0999 V2000
  183.5640  178.3610  141.6800 C   0  0  0  0  0  0  0  0  0  0  0  0
  181.1620  180.3590  143.0390 N   0  0  0  0  0  1  0  0  0  0  0  0
  182.9880  179.1180  145.1360 N   0  0  0  0  0  0  0  0  0  0  0  0
  184.1720  179.0030  145.7450 N   0  0  0  0  0  0  0  0  0  0  0  0
  182.0950  178.6470  141.5710 C   0  0  2  0  0  3  0  0  0  0  0  0
  183.9700  178.4870  143.0740 C   0  0  0  0  0  0  0  0  0  0  0  0
  184.3850  178.5360  140.6520 C   0  0  0  0  0  2  0  0  0  0  0  0
  185.2930  178.6230  145.0660 C   0  0  0  0  0  3  0  0  0  0  0  0
  181.6360  178.9870  143.0000 C   0  0  1  0  0  3  0  0  0  0  0  0
  182.8790  178.8600  143.8100 C   0  0  0  0  0  0  0  0  0  0  0  0
  185.2250  178.3400  143.6910 C   0  0  0  0  0  0  0  0  0  0  0  0
  190.4440  177.5410  139.9450 C   0  0  0  0  0  0  0  0  0  0  0  0
  186.7160  178.3690  141.7660 C   0  0  0  0  0  3  0  0  0  0  0  0
  190.2210  177.1340  141.1620 N   0  0  0  0  0  0  0  0  0  0  0  0
  187.4130  176.9710  143.7140 C   0  0  0  0  0  2  0  0  0  0  0  0
  189.0490  177.5470  141.9300 C   0  0  1  0  0  3  0  0  0  0  0  0
  189.4020  178.3670  139.2020 C   0  0  0  0  0  2  0  0  0  0  0  0
  187.9160  177.9180  140.9910 C   0  0  2  0  0  3  0  0  0  0  0  0
  188.5590  176.4390  142.8450 C   0  0  0  0  0  2  0  0  0  0  0  0
  186.4250  177.8610  142.9760 C   0  0  0  0  0  0  0  0  0  0  0  0
  188.3930  178.9570  140.0900 N   0  0  0  0  0  2  0  0  0  0  0  0
  191.6250  177.1410  139.3160 O   0  0  0  0  0  0  0  0  0  0  0  0
  191.6710  175.9860  138.0420 P   0  0  0  0  0  0  0  0  0  0  0  0
  191.2420  176.7290  136.5850 O   0  0  0  0  0  0  0  0  0  0  0  0
  193.2310  175.3450  137.9130 O   0  0  0  0  0  1  0  0  0  0  0  0
  190.6960  174.8710  138.3420 O   0  0  0  0  0  1  0  0  0  0  0  0
  180.1980  175.1640  140.2500 O   0  0  0  0  0  1  0  0  0  0  0  0
  179.9550  176.3510  139.5980 N   0  0  0  0  0  0  0  0  0  0  0  0
  180.5180  177.4540  139.9790 C   0  0  0  0  0  0  0  0  0  0  0  0
  181.3980  177.4570  141.1080 N   0  0  0  0  0  2  0  0  0  0  0  0
  180.2010  178.7150  139.2350 C   0  0  0  0  0  2  0  0  0  0  0  0
  181.0950  178.9020  138.0070 C   0  0  1  0  0  3  0  0  0  0  0  0
  180.6670  179.8520  135.5900 S   0  0  0  0  0  0  0  0  0  0  0  0
  181.5670  178.5190  134.8810 N   0  0  0  0  0  2  0  0  0  0  0  0
  180.3660  178.5750  136.7760 N   0  0  0  0  0  0  0  0  0  0  0  0
  181.1770  177.6530  135.9840 C   0  0  0  0  0  2  0  0  0  0  0  0
  181.5440  180.3600  137.9760 C   0  0  0  0  0  2  0  0  0  0  0  0
  180.9180  181.1340  139.1210 C   0  0  0  0  0  1  0  0  0  0  0  0
  1  6  1  0  0  0  0
  3  4  1  0  0  0  0
  5 30  1  1  0  0  0
  5  1  1  0  0  0  0
  5  9  1  0  0  0  0
  6 11  2  0  0  0  0
  6 10  1  0  0  0  0
  7  1  2  0  0  0  0
  8  4  2  0  0  0  0
  9  2  1  6  0  0  0
  9 10  1  0  0  0  0
 10  3  2  0  0  0  0
 11  8  1  0  0  0  0
 12 14  2  0  0  0  0
 13 20  2  0  0  0  0
 14 16  1  0  0  0  0
 16 19  1  1  0  0  0
 17 12  1  0  0  0  0
 17 21  1  0  0  0  0
 18 13  1  1  0  0  0
 18 16  1  0  0  0  0
 19 15  1  0  0  0  0
 20 11  1  0  0  0  0
 20 15  1  0  0  0  0
 21 18  1  0  0  0  0
 22 12  1  0  0  0  0
 23 26  1  0  0  0  0
 23 22  1  0  0  0  0
 24 23  2  0  0  0  0
 25 23  1  0  0  0  0
 28 29  2  0  0  0  0
 28 27  1  0  0  0  0
 29 30  1  0  0  0  0
 31 29  1  0  0  0  0
 32 37  1  6  0  0  0
 32 31  1  0  0  0  0
 33 35  1  0  0  0  0
 34 33  1  0  0  0  0
 34 36  1  0  0  0  0
 35 32  1  0  0  0  0
 36 35  1  0  0  0  0
 37 38  1  0  0  0  0
M  END
>  <MODEL>
5

>  <REMARK>
 VINA RESULT:      -8.0      2.301      3.402
  Name = 
  8 active torsions:
  status: ('A' for Active; 'I' for Inactive)
    1  A    between atoms: P_1  and  O_13
    2  A    between atoms: C_2  and  O_13
    3  A    between atoms: C_12  and  C_27
    4  A    between atoms: C_14  and  N_35
    5  A    between atoms: C_22  and  C_27
    6  A    between atoms: C_22  and  C_30
    7  A    between atoms: N_23  and  C_27
    8  A    between atoms: C_33  and  C_38
                            x       y       z     vdW  Elec       q    Type
                         _______ _______ _______ _____ _____    ______ ____

>  <TORSDO>
F 8

$$$$
=
 OpenBabel11062412593D

 38 42  0  0  1  0  0  0  0  0999 V2000
  187.6810  177.4390  144.2470 C   0  0  0  0  0  0  0  0  0  0  0  0
  188.3170  176.4040  147.4310 N   0  0  0  0  0  1  0  0  0  0  0  0
  186.1500  178.5390  147.2960 N   0  0  0  0  0  0  0  0  0  0  0  0
  184.9200  178.9490  146.9690 N   0  0  0  0  0  0  0  0  0  0  0  0
  188.8330  177.1360  145.1610 C   0  0  2  0  0  3  0  0  0  0  0  0
  186.6050  178.0380  145.0250 C   0  0  0  0  0  0  0  0  0  0  0  0
  187.4930  176.7670  143.1180 C   0  0  0  0  0  2  0  0  0  0  0  0
  184.4810  178.9330  145.6770 C   0  0  0  0  0  3  0  0  0  0  0  0
  188.3690  177.5680  146.5630 C   0  0  1  0  0  3  0  0  0  0  0  0
  186.9930  178.0890  146.3350 C   0  0  0  0  0  0  0  0  0  0  0  0
  185.3230  178.4790  144.6480 C   0  0  0  0  0  0  0  0  0  0  0  0
  182.0470  178.9990  139.0890 C   0  0  0  0  0  0  0  0  0  0  0  0
  183.5830  178.2530  142.9600 C   0  0  0  0  0  3  0  0  0  0  0  0
  183.2600  179.3750  139.3810 N   0  0  0  0  0  0  0  0  0  0  0  0
  185.8010  179.1030  142.1900 C   0  0  0  0  0  2  0  0  0  0  0  0
  183.7920  179.3370  140.7410 C   0  0  1  0  0  3  0  0  0  0  0  0
  181.1600  178.3580  140.1480 C   0  0  0  0  0  2  0  0  0  0  0  0
  183.0640  178.2840  141.5550 C   0  0  2  0  0  3  0  0  0  0  0  0
  185.2730  179.0030  140.7530 C   0  0  0  0  0  2  0  0  0  0  0  0
  184.8670  178.5300  143.2440 C   0  0  0  0  0  0  0  0  0  0  0  0
  181.6400  178.5840  141.5170 N   0  0  0  0  0  2  0  0  0  0  0  0
  181.6090  179.1320  137.7700 O   0  0  0  0  0  0  0  0  0  0  0  0
  181.8210  177.9100  136.5770 P   0  0  0  0  0  0  0  0  0  0  0  0
  183.4330  177.4020  136.5650 O   0  0  0  0  0  1  0  0  0  0  0  0
  180.8150  176.5970  136.9250 O   0  0  0  0  0  1  0  0  0  0  0  0
  181.4620  178.4690  135.2190 O   0  0  0  0  0  0  0  0  0  0  0  0
  192.1000  179.5070  144.0740 O   0  0  0  0  0  1  0  0  0  0  0  0
  191.6320  178.5610  143.1920 N   0  0  0  0  0  0  0  0  0  0  0  0
  190.6260  177.8020  143.4910 C   0  0  0  0  0  0  0  0  0  0  0  0
  189.9900  177.9260  144.7680 N   0  0  0  0  0  2  0  0  0  0  0  0
  190.1740  176.7830  142.4910 C   0  0  0  0  0  2  0  0  0  0  0  0
  190.4280  177.2330  141.0500 C   0  0  1  0  0  3  0  0  0  0  0  0
  190.8110  176.0500  138.7300 S   0  0  0  0  0  0  0  0  0  0  0  0
  192.2300  177.0420  138.4320 N   0  0  0  0  0  2  0  0  0  0  0  0
  191.3760  176.3340  140.3820 N   0  0  0  0  0  0  0  0  0  0  0  0
  192.4860  177.1280  139.8620 C   0  0  0  0  0  2  0  0  0  0  0  0
  189.0900  177.2210  140.3160 C   0  0  0  0  0  2  0  0  0  0  0  0
  188.6930  178.6270  139.9100 C   0  0  0  0  0  1  0  0  0  0  0  0
  1  6  1  0  0  0  0
  1  5  1  0  0  0  0
  4  3  1  0  0  0  0
  5 30  1  6  0  0  0
  5  9  1  0  0  0  0
  6 10  1  0  0  0  0
  7  1  2  0  0  0  0
  8  4  2  0  0  0  0
  9  2  1  1  0  0  0
 10  9  1  0  0  0  0
 10  3  2  0  0  0  0
 11  6  2  0  0  0  0
 11  8  1  0  0  0  0
 12 14  2  0  0  0  0
 12 17  1  0  0  0  0
 13 20  2  0  0  0  0
 14 16  1  0  0  0  0
 15 20  1  0  0  0  0
 16 19  1  6  0  0  0
 16 18  1  0  0  0  0
 17 21  1  0  0  0  0
 18 13  1  1  0  0  0
 19 15  1  0  0  0  0
 20 11  1  0  0  0  0
 21 18  1  0  0  0  0
 22 12  1  0  0  0  0
 23 25  1  0  0  0  0
 23 22  1  0  0  0  0
 24 23  1  0  0  0  0
 26 23  2  0  0  0  0
 28 29  2  0  0  0  0
 28 27  1  0  0  0  0
 29 30  1  0  0  0  0
 31 29  1  0  0  0  0
 32 37  1  6  0  0  0
 32 31  1  0  0  0  0
 33 35  1  0  0  0  0
 34 33  1  0  0  0  0
 34 36  1  0  0  0  0
 35 32  1  0  0  0  0
 36 35  1  0  0  0  0
 38 37  1  0  0  0  0
M  END
>  <MODEL>
6

>  <REMARK>
 VINA RESULT:      -7.8      4.118      8.548
  Name = 
  8 active torsions:
  status: ('A' for Active; 'I' for Inactive)
    1  A    between atoms: P_1  and  O_13
    2  A    between atoms: C_2  and  O_13
    3  A    between atoms: C_12  and  C_27
    4  A    between atoms: C_14  and  N_35
    5  A    between atoms: C_22  and  C_27
    6  A    between atoms: C_22  and  C_30
    7  A    between atoms: N_23  and  C_27
    8  A    between atoms: C_33  and  C_38
                            x       y       z     vdW  Elec       q    Type
                         _______ _______ _______ _____ _____    ______ ____

>  <TORSDO>
F 8

$$$$
=
 OpenBabel11062412593D

 38 42  0  0  1  0  0  0  0  0999 V2000
  186.2940  178.2730  142.0280 C   0  0  0  0  0  0  0  0  0  0  0  0
  183.9780  179.6790  144.0940 N   0  0  0  0  0  1  0  0  0  0  0  0
  185.8970  177.8250  145.5620 N   0  0  0  0  0  0  0  0  0  0  0  0
  187.1090  177.5240  146.0390 N   0  0  0  0  0  0  0  0  0  0  0  0
  184.8230  178.5650  142.0940 C   0  0  2  0  0  3  0  0  0  0  0  0
  186.7690  177.9290  143.3620 C   0  0  0  0  0  0  0  0  0  0  0  0
  187.0650  178.7890  141.0790 C   0  0  0  0  0  2  0  0  0  0  0  0
  188.1910  177.4030  145.2160 C   0  0  0  0  0  3  0  0  0  0  0  0
  184.4390  178.4030  143.5750 C   0  0  1  0  0  3  0  0  0  0  0  0
  185.7200  178.0250  144.2330 C   0  0  0  0  0  0  0  0  0  0  0  0
  188.0530  177.5960  143.8310 C   0  0  0  0  0  0  0  0  0  0  0  0
  192.1440  176.8020  138.8780 C   0  0  0  0  0  0  0  0  0  0  0  0
  189.0230  176.8290  141.7340 C   0  0  0  0  0  3  0  0  0  0  0  0
  192.3050  177.4500  139.9970 N   0  0  0  0  0  0  0  0  0  0  0  0
  190.5450  178.0230  143.3130 C   0  0  0  0  0  2  0  0  0  0  0  0
  191.2140  177.6760  140.9420 C   0  0  1  0  0  3  0  0  0  0  0  0
  190.8210  176.1170  138.5640 C   0  0  0  0  0  2  0  0  0  0  0  0
  190.1610  176.5940  140.7880 C   0  0  2  0  0  3  0  0  0  0  0  0
  191.7040  177.6550  142.3780 C   0  0  0  0  0  2  0  0  0  0  0  0
  189.2120  177.3940  142.9390 C   0  0  0  0  0  0  0  0  0  0  0  0
  189.7130  176.5890  139.4020 N   0  0  0  0  0  2  0  0  0  0  0  0
  193.2330  176.6930  138.0100 O   0  0  0  0  0  0  0  0  0  0  0  0
  194.3540  175.3880  138.0620 P   0  0  0  0  0  0  0  0  0  0  0  0
  193.5300  173.9240  137.8730 O   0  0  0  0  0  1  0  0  0  0  0  0
  195.4880  175.5650  136.8200 O   0  0  0  0  0  0  0  0  0  0  0  0
  195.0660  175.3940  139.3950 O   0  0  0  0  0  1  0  0  0  0  0  0
  182.8370  175.7100  139.7760 O   0  0  0  0  0  1  0  0  0  0  0  0
  182.5410  177.0420  139.6020 N   0  0  0  0  0  0  0  0  0  0  0  0
  183.1290  177.9590  140.3030 C   0  0  0  0  0  0  0  0  0  0  0  0
  184.0950  177.5920  141.2950 N   0  0  0  0  0  2  0  0  0  0  0  0
  182.7520  179.3900  140.0750 C   0  0  0  0  0  2  0  0  0  0  0  0
  181.2400  179.6110  140.1620 C   0  0  1  0  0  3  0  0  0  0  0  0
  178.9320  179.8920  138.9280 S   0  0  0  0  0  0  0  0  0  0  0  0
  179.6630  180.9800  137.7580 N   0  0  0  0  0  2  0  0  0  0  0  0
  180.5900  179.2780  138.8890 N   0  0  0  0  0  0  0  0  0  0  0  0
  180.9410  180.2980  137.9040 C   0  0  0  0  0  2  0  0  0  0  0  0
  180.7020  178.7140  141.2730 C   0  0  0  0  0  2  0  0  0  0  0  0
  180.8020  179.4130  142.6160 C   0  0  0  0  0  1  0  0  0  0  0  0
  1  5  1  0  0  0  0
  1  6  1  0  0  0  0
  3  4  1  0  0  0  0
  5 30  1  6  0  0  0
  5  9  1  0  0  0  0
  6 11  2  0  0  0  0
  6 10  1  0  0  0  0
  7  1  2  0  0  0  0
  8  4  2  0  0  0  0
  9  2  1  1  0  0  0
  9 10  1  0  0  0  0
 10  3  2  0  0  0  0
 11  8  1  0  0  0  0
 12 14  2  0  0  0  0
 13 20  2  0  0  0  0
 14 16  1  0  0  0  0
 16 19  1  1  0  0  0
 17 12  1  0  0  0  0
 17 21  1  0  0  0  0
 18 16  1  0  0  0  0
 18 13  1  1  0  0  0
 19 15  1  0  0  0  0
 20 15  1  0  0  0  0
 20 11  1  0  0  0  0
 21 18  1  0  0  0  0
 22 23  1  0  0  0  0
 22 12  1  0  0  0  0
 23 26  1  0  0  0  0
 24 23  1  0  0  0  0
 25 23  2  0  0  0  0
 28 27  1  0  0  0  0
 28 29  2  0  0  0  0
 29 30  1  0  0  0  0
 31 29  1  0  0  0  0
 32 31  1  6  0  0  0
 32 37  1  0  0  0  0
 34 36  1  0  0  0  0
 34 33  1  0  0  0  0
 35 33  1  0  0  0  0
 35 32  1  0  0  0  0
 36 35  1  0  0  0  0
 37 38  1  0  0  0  0
M  END
>  <MODEL>
7

>  <REMARK>
 VINA RESULT:      -7.4      1.267      1.740
  Name = 
  8 active torsions:
  status: ('A' for Active; 'I' for Inactive)
    1  A    between atoms: P_1  and  O_13
    2  A    between atoms: C_2  and  O_13
    3  A    between atoms: C_12  and  C_27
    4  A    between atoms: C_14  and  N_35
    5  A    between atoms: C_22  and  C_27
    6  A    between atoms: C_22  and  C_30
    7  A    between atoms: N_23  and  C_27
    8  A    between atoms: C_33  and  C_38
                            x       y       z     vdW  Elec       q    Type
                         _______ _______ _______ _____ _____    ______ ____

>  <TORSDO>
F 8

$$$$
=
 OpenBabel11062412593D

 38 42  0  0  1  0  0  0  0  0999 V2000
  188.3110  177.1650  139.0330 C   0  0  0  0  0  0  0  0  0  0  0  0
  187.2090  178.9090  136.3210 N   0  0  0  0  0  1  0  0  0  0  0  0
  185.2770  179.0400  138.6710 N   0  0  0  0  0  0  0  0  0  0  0  0
  184.9440  179.4510  139.8990 N   0  0  0  0  0  0  0  0  0  0  0  0
  188.1800  177.0340  137.5430 C   0  0  2  0  0  3  0  0  0  0  0  0
  187.1680  177.9110  139.5440 C   0  0  0  0  0  0  0  0  0  0  0  0
  189.4920  177.1170  139.6350 C   0  0  0  0  0  2  0  0  0  0  0  0
  185.6860  179.1120  140.9930 C   0  0  0  0  0  3  0  0  0  0  0  0
  186.8860  177.7810  137.1770 C   0  0  1  0  0  3  0  0  0  0  0  0
  186.3790  178.2720  138.4880 C   0  0  0  0  0  0  0  0  0  0  0  0
  186.8330  178.3130  140.8500 C   0  0  0  0  0  0  0  0  0  0  0  0
  190.9950  177.5860  145.7550 C   0  0  0  0  0  0  0  0  0  0  0  0
  188.9040  178.1760  142.1250 C   0  0  0  0  0  3  0  0  0  0  0  0
  189.7050  177.4100  145.7230 N   0  0  0  0  0  0  0  0  0  0  0  0
  186.8320  177.3390  143.2400 C   0  0  0  0  0  2  0  0  0  0  0  0
  188.8850  177.7840  144.5730 C   0  0  1  0  0  3  0  0  0  0  0  0
  191.7420  178.0660  144.5170 C   0  0  0  0  0  2  0  0  0  0  0  0
  189.7260  177.7690  143.3090 C   0  0  2  0  0  3  0  0  0  0  0  0
  187.7240  176.8260  144.3780 C   0  0  0  0  0  2  0  0  0  0  0  0
  187.5920  177.8900  142.0450 C   0  0  0  0  0  0  0  0  0  0  0  0
  190.8600  178.6610  143.5060 N   0  0  0  0  0  2  0  0  0  0  0  0
  191.6830  177.2550  146.9250 O   0  0  0  0  0  0  0  0  0  0  0  0
  192.1220  175.6430  147.3380 P   0  0  0  0  0  0  0  0  0  0  0  0
  193.4420  175.6670  148.3940 O   0  0  0  0  0  1  0  0  0  0  0  0
  190.8150  174.8720  148.0830 O   0  0  0  0  0  1  0  0  0  0  0  0
  192.4980  174.8910  146.0830 O   0  0  0  0  0  0  0  0  0  0  0  0
  187.7390  172.9800  136.6230 O   0  0  0  0  0  1  0  0  0  0  0  0
  188.9520  173.5910  136.4060 N   0  0  0  0  0  0  0  0  0  0  0  0
  189.1300  174.8460  136.6720 C   0  0  0  0  0  0  0  0  0  0  0  0
  188.0470  175.6300  137.1860 N   0  0  0  0  0  2  0  0  0  0  0  0
  190.4710  175.4550  136.3990 C   0  0  0  0  0  2  0  0  0  0  0  0
  191.6090  174.6570  137.0410 C   0  0  1  0  0  3  0  0  0  0  0  0
  193.9060  173.3860  136.8460 S   0  0  0  0  0  0  0  0  0  0  0  0
  193.1650  172.1550  135.8350 N   0  0  0  0  0  2  0  0  0  0  0  0
  192.6380  174.3250  136.0480 N   0  0  0  0  0  0  0  0  0  0  0  0
  192.2160  173.1310  135.3200 C   0  0  0  0  0  2  0  0  0  0  0  0
  192.2110  175.5160  138.1490 C   0  0  0  0  0  2  0  0  0  0  0  0
  192.9550  176.7000  137.5610 C   0  0  0  0  0  1  0  0  0  0  0  0
  1  6  1  0  0  0  0
  1  7  2  0  0  0  0
  3  4  1  0  0  0  0
  4  8  2  0  0  0  0
  5 30  1  1  0  0  0
  5  1  1  0  0  0  0
  6 11  2  0  0  0  0
  9  2  1  6  0  0  0
  9  5  1  0  0  0  0
  9 10  1  0  0  0  0
 10  3  2  0  0  0  0
 10  6  1  0  0  0  0
 11  8  1  0  0  0  0
 11 20  1  0  0  0  0
 12 22  1  0  0  0  0
 14 12  2  0  0  0  0
 15 19  1  0  0  0  0
 16 19  1  6  0  0  0
 16 14  1  0  0  0  0
 17 12  1  0  0  0  0
 18 13  1  6  0  0  0
 18 21  1  0  0  0  0
 18 16  1  0  0  0  0
 20 13  2  0  0  0  0
 20 15  1  0  0  0  0
 21 17  1  0  0  0  0
 22 23  1  0  0  0  0
 23 25  1  0  0  0  0
 23 24  1  0  0  0  0
 26 23  2  0  0  0  0
 28 27  1  0  0  0  0
 28 29  2  0  0  0  0
 29 30  1  0  0  0  0
 31 29  1  0  0  0  0
 32 31  1  6  0  0  0
 32 37  1  0  0  0  0
 34 33  1  0  0  0  0
 35 33  1  0  0  0  0
 35 32  1  0  0  0  0
 36 34  1  0  0  0  0
 36 35  1  0  0  0  0
 38 37  1  0  0  0  0
M  END
>  <MODEL>
8

>  <REMARK>
 VINA RESULT:      -7.4      5.171      8.746
  Name = 
  8 active torsions:
  status: ('A' for Active; 'I' for Inactive)
    1  A    between atoms: P_1  and  O_13
    2  A    between atoms: C_2  and  O_13
    3  A    between atoms: C_12  and  C_27
    4  A    between atoms: C_14  and  N_35
    5  A    between atoms: C_22  and  C_27
    6  A    between atoms: C_22  and  C_30
    7  A    between atoms: N_23  and  C_27
    8  A    between atoms: C_33  and  C_38
                            x       y       z     vdW  Elec       q    Type
                         _______ _______ _______ _____ _____    ______ ____

>  <TORSDO>
F 8

$$$$
=
 OpenBabel11062412593D

 38 42  0  0  1  0  0  0  0  0999 V2000
  187.5870  177.5780  144.4180 C   0  0  0  0  0  0  0  0  0  0  0  0
  188.8790  176.1430  147.2250 N   0  0  0  0  0  1  0  0  0  0  0  0
  186.7720  178.2530  147.8420 N   0  0  0  0  0  0  0  0  0  0  0  0
  185.5080  178.6870  147.8470 N   0  0  0  0  0  0  0  0  0  0  0  0
  188.9040  177.1720  145.0120 C   0  0  2  0  0  3  0  0  0  0  0  0
  186.7150  178.0590  145.4820 C   0  0  0  0  0  0  0  0  0  0  0  0
  187.1470  177.0580  143.2790 C   0  0  0  0  0  2  0  0  0  0  0  0
  184.7990  178.8360  146.6900 C   0  0  0  0  0  3  0  0  0  0  0  0
  188.7630  177.4110  146.5250 C   0  0  1  0  0  3  0  0  0  0  0  0
  187.3790  177.9420  146.6720 C   0  0  0  0  0  0  0  0  0  0  0  0
  185.3900  178.5300  145.4530 C   0  0  0  0  0  0  0  0  0  0  0  0
  183.2840  178.9730  139.3480 C   0  0  0  0  0  0  0  0  0  0  0  0
  185.3210  178.9540  143.0560 C   0  0  0  0  0  3  0  0  0  0  0  0
  182.6320  178.6750  140.4350 N   0  0  0  0  0  0  0  0  0  0  0  0
  183.1350  178.5570  144.1980 C   0  0  0  0  0  2  0  0  0  0  0  0
  183.2960  178.4500  141.7170 C   0  0  1  0  0  3  0  0  0  0  0  0
  184.7820  179.2470  139.3940 C   0  0  0  0  0  2  0  0  0  0  0  0
  184.6170  179.1970  141.7560 C   0  0  2  0  0  3  0  0  0  0  0  0
  182.4470  178.9330  142.8790 C   0  0  0  0  0  2  0  0  0  0  0  0
  184.6420  178.7600  144.2010 C   0  0  0  0  0  0  0  0  0  0  0  0
  185.4200  178.7600  140.6230 N   0  0  0  0  0  2  0  0  0  0  0  0
  182.5660  179.1060  138.1570 O   0  0  0  0  0  0  0  0  0  0  0  0
  181.3560  180.3050  137.9140 P   0  0  0  0  0  0  0  0  0  0  0  0
  179.9620  179.8880  138.7760 O   0  0  0  0  0  1  0  0  0  0  0  0
  181.9260  181.8040  138.4490 O   0  0  0  0  0  1  0  0  0  0  0  0
  181.0270  180.3910  136.4420 O   0  0  0  0  0  0  0  0  0  0  0  0
  191.8820  179.7070  143.5350 O   0  0  0  0  0  1  0  0  0  0  0  0
  191.4210  178.6790  142.7460 N   0  0  0  0  0  0  0  0  0  0  0  0
  190.5030  177.8670  143.1670 C   0  0  0  0  0  0  0  0  0  0  0  0
  189.9620  178.0200  144.4840 N   0  0  0  0  0  2  0  0  0  0  0  0
  190.0550  176.7610  142.2630 C   0  0  0  0  0  2  0  0  0  0  0  0
  190.2130  177.1210  140.7840 C   0  0  1  0  0  3  0  0  0  0  0  0
  190.3820  175.9420  138.4360 S   0  0  0  0  0  0  0  0  0  0  0  0
  191.9260  176.7220  138.1300 N   0  0  0  0  0  2  0  0  0  0  0  0
  191.0080  176.1060  140.0820 N   0  0  0  0  0  0  0  0  0  0  0  0
  192.2150  176.7390  139.5560 C   0  0  0  0  0  2  0  0  0  0  0  0
  188.8180  177.2050  140.1730 C   0  0  0  0  0  2  0  0  0  0  0  0
  188.5300  178.6160  139.6960 C   0  0  0  0  0  1  0  0  0  0  0  0
  1  5  1  0  0  0  0
  1  6  1  0  0  0  0
  3  4  1  0  0  0  0
  5 30  1  6  0  0  0
  5  9  1  0  0  0  0
  6 10  1  0  0  0  0
  7  1  2  0  0  0  0
  8  4  2  0  0  0  0
  9 10  1  0  0  0  0
  9  2  1  1  0  0  0
 10  3  2  0  0  0  0
 11  6  2  0  0  0  0
 11  8  1  0  0  0  0
 12 17  1  0  0  0  0
 12 14  2  0  0  0  0
 13 20  2  0  0  0  0
 14 16  1  0  0  0  0
 15 20  1  0  0  0  0
 16 18  1  0  0  0  0
 16 19  1  1  0  0  0
 17 21  1  0  0  0  0
 18 13  1  1  0  0  0
 19 15  1  0  0  0  0
 20 11  1  0  0  0  0
 21 18  1  0  0  0  0
 22 12  1  0  0  0  0
 23 22  1  0  0  0  0
 23 25  1  0  0  0  0
 23 24  1  0  0  0  0
 26 23  2  0  0  0  0
 28 29  2  0  0  0  0
 28 27  1  0  0  0  0
 29 30  1  0  0  0  0
 31 29  1  0  0  0  0
 32 37  1  6  0  0  0
 32 31  1  0  0  0  0
 33 35  1  0  0  0  0
 34 33  1  0  0  0  0
 34 36  1  0  0  0  0
 35 32  1  0  0  0  0
 36 35  1  0  0  0  0
 38 37  1  0  0  0  0
M  END
>  <MODEL>
9

>  <REMARK>
 VINA RESULT:      -7.1      4.247      8.608
  Name = 
  8 active torsions:
  status: ('A' for Active; 'I' for Inactive)
    1  A    between atoms: P_1  and  O_13
    2  A    between atoms: C_2  and  O_13
    3  A    between atoms: C_12  and  C_27
    4  A    between atoms: C_14  and  N_35
    5  A    between atoms: C_22  and  C_27
    6  A    between atoms: C_22  and  C_30
    7  A    between atoms: N_23  and  C_27
    8  A    between atoms: C_33  and  C_38
                            x       y       z     vdW  Elec       q    Type
                         _______ _______ _______ _____ _____    ______ ____

>  <TORSDO>
F 8

$$$$
