=
 OpenBabel11062413173D

 30 31  0  0  1  0  0  0  0  0999 V2000
  190.2780  177.0620  142.4950 C   0  0  2  0  0  3  0  0  0  0  0  0
  187.9090  177.4320  146.5570 C   0  0  0  0  0  0  0  0  0  0  0  0
  190.3010  177.4710  145.8520 C   0  0  0  0  0  0  0  0  0  0  0  0
  188.6570  177.9670  144.2220 C   0  0  0  0  0  2  0  0  0  0  0  0
  190.0880  178.0430  143.6610 C   0  0  1  0  0  3  0  0  0  0  0  0
  188.8730  177.6060  145.6480 C   0  0  0  0  0  0  0  0  0  0  0  0
  190.9710  177.6990  144.7770 N   0  0  0  0  0  0  0  0  0  0  0  0
  185.6810  178.7120  146.5240 C   0  0  0  0  0  1  0  0  0  0  0  0
  186.5410  177.6020  146.1500 N   0  0  0  0  0  2  0  0  0  0  0  0
  190.8990  177.1300  147.0660 O   0  0  0  0  0  0  0  0  0  0  0  0
  191.7570  176.0060  147.1900 C   0  0  0  0  0  1  0  0  0  0  0  0
  188.2700  177.0960  147.8720 O   0  0  0  0  0  0  0  0  0  0  0  0
  188.2640  178.0050  148.9630 C   0  0  0  0  0  1  0  0  0  0  0  0
  188.4200  178.5740  139.5970 N   0  0  0  0  0  0  0  0  0  0  0  0
  189.4880  178.1540  139.0500 N   0  0  0  0  0  0  0  0  0  0  0  0
  188.4130  178.2950  141.0300 C   0  0  0  0  0  2  0  0  0  0  0  0
  190.3140  177.5570  140.0320 C   0  0  0  0  0  0  0  0  0  0  0  0
  189.7350  177.6260  141.2160 C   0  0  0  0  0  0  0  0  0  0  0  0
  191.6380  176.9340  139.7350 C   0  0  0  0  0  2  0  0  0  0  0  0
  191.2740  175.0500  138.2340 N   0  0  0  0  0  1  0  0  0  0  0  0
  191.6850  176.4430  138.2960 C   0  0  2  0  0  3  0  0  0  0  0  0
  193.0690  176.6200  137.6700 C   0  0  0  0  0  2  0  0  0  0  0  0
  193.8790  175.3200  137.6670 C   0  0  2  0  0  3  0  0  0  0  0  0
  194.7660  175.3130  138.7480 O   0  0  0  0  0  1  0  0  0  0  0  0
  196.0470  175.2990  136.5370 N   0  0  0  0  0  1  0  0  0  0  0  0
  194.3940  173.6840  135.8150 C   0  0  0  0  0  1  0  0  0  0  0  0
  194.1300  176.0840  135.3050 C   0  0  0  0  0  1  0  0  0  0  0  0
  194.6210  175.0910  136.3430 C   0  0  0  0  0  0  0  0  0  0  0  0
  190.5410  174.7820  143.1740 O   0  0  0  0  0  1  0  0  0  0  0  0
  189.5970  175.7290  142.7760 C   0  0  0  0  0  2  0  0  0  0  0  0
  1 30  1  1  0  0  0
  2 12  1  0  0  0  0
  3 10  1  0  0  0  0
  4  6  1  0  0  0  0
  5  1  1  6  0  0  0
  5  4  1  0  0  0  0
  5  7  1  0  0  0  0
  6  3  1  0  0  0  0
  6  2  2  0  0  0  0
  7  3  2  0  0  0  0
  9  8  1  0  0  0  0
  9  2  1  0  0  0  0
 10 11  1  0  0  0  0
 12 13  1  0  0  0  0
 14 16  1  0  0  0  0
 15 14  2  0  0  0  0
 15 17  1  0  0  0  0
 16 18  1  0  0  0  0
 17 18  2  0  0  0  0
 18  1  1  0  0  0  0
 19 17  1  0  0  0  0
 21 20  1  1  0  0  0
 21 19  1  0  0  0  0
 22 21  1  0  0  0  0
 23 22  1  0  0  0  0
 23 24  1  1  0  0  0
 26 28  1  0  0  0  0
 27 28  1  0  0  0  0
 28 25  1  0  0  0  0
 28 23  1  0  0  0  0
 30 29  1  0  0  0  0
M  END
>  <MODEL>
1

>  <REMARK>
 VINA RESULT:      -7.2      0.000      0.000
  Name = 
  11 active torsions:
  status: ('A' for Active; 'I' for Inactive)
    1  A    between atoms: C_1  and  C_8
    2  A    between atoms: C_1  and  C_27
    3  A    between atoms: C_3  and  N_7
    4  A    between atoms: C_3  and  O_18
    5  A    between atoms: C_6  and  C_14
    6  A    between atoms: C_6  and  C_26
    7  A    between atoms: C_6  and  C_30
    8  A    between atoms: C_8  and  C_24
    9  A    between atoms: C_10  and  O_17
   10  A    between atoms: C_27  and  C_29
   11  A    between atoms: C_28  and  C_29
                            x       y       z     vdW  Elec       q    Type
                         _______ _______ _______ _____ _____    ______ ____

>  <TORSDO>
F 11

$$$$
=
 OpenBabel11062413173D

 30 31  0  0  1  0  0  0  0  0999 V2000
  188.8230  177.5340  143.1340 C   0  0  2  0  0  3  0  0  0  0  0  0
  188.4620  177.0030  138.4610 C   0  0  0  0  0  0  0  0  0  0  0  0
  187.3560  178.3930  140.2110 C   0  0  0  0  0  0  0  0  0  0  0  0
  189.4980  177.5080  140.6910 C   0  0  0  0  0  2  0  0  0  0  0  0
  188.9370  178.3580  141.8440 C   0  0  1  0  0  3  0  0  0  0  0  0
  188.4270  177.5870  139.6630 C   0  0  0  0  0  0  0  0  0  0  0  0
  187.6200  178.8130  141.3990 N   0  0  0  0  0  0  0  0  0  0  0  0
  190.8020  176.7380  137.4340 C   0  0  0  0  0  1  0  0  0  0  0  0
  189.6200  176.2280  138.1060 N   0  0  0  0  0  2  0  0  0  0  0  0
  186.1660  178.6910  139.5440 O   0  0  0  0  0  0  0  0  0  0  0  0
  184.9650  178.9750  140.2440 C   0  0  0  0  0  1  0  0  0  0  0  0
  187.3720  177.1740  137.5920 O   0  0  0  0  0  0  0  0  0  0  0  0
  187.4390  177.8460  136.3430 C   0  0  0  0  0  1  0  0  0  0  0  0
  192.0270  178.3140  144.9390 N   0  0  0  0  0  0  0  0  0  0  0  0
  191.2940  177.8500  145.8680 N   0  0  0  0  0  2  0  0  0  0  0  0
  191.3170  178.3360  143.6640 C   0  0  0  0  0  3  0  0  0  0  0  0
  190.0250  177.5130  145.3400 C   0  0  0  0  0  0  0  0  0  0  0  0
  189.9810  177.7920  144.0510 C   0  0  0  0  0  0  0  0  0  0  0  0
  188.9220  176.9150  146.1490 C   0  0  0  0  0  2  0  0  0  0  0  0
  187.7960  178.1910  147.8920 N   0  0  0  0  0  1  0  0  0  0  0  0
  187.8600  177.9590  146.4590 C   0  0  2  0  0  3  0  0  0  0  0  0
  186.4850  177.5630  145.9200 C   0  0  0  0  0  2  0  0  0  0  0  0
  185.5170  178.7480  145.8630 C   0  0  2  0  0  3  0  0  0  0  0  0
  184.5980  178.6570  146.9130 O   0  0  0  0  0  1  0  0  0  0  0  0
  185.2420  177.7900  143.6310 N   0  0  0  0  0  1  0  0  0  0  0  0
  183.2910  178.7750  144.6720 C   0  0  0  0  0  1  0  0  0  0  0  0
  185.1450  180.1870  143.8600 C   0  0  0  0  0  1  0  0  0  0  0  0
  184.8000  178.8600  144.5100 C   0  0  0  0  0  0  0  0  0  0  0  0
  190.0150  175.4630  142.9810 O   0  0  0  0  0  1  0  0  0  0  0  0
  188.7540  176.0420  142.8340 C   0  0  0  0  0  2  0  0  0  0  0  0
  1 30  1  6  0  0  0
  1 18  1  0  0  0  0
  2  6  2  0  0  0  0
  3  7  2  0  0  0  0
  4  5  1  0  0  0  0
  5  1  1  1  0  0  0
  6  3  1  0  0  0  0
  6  4  1  0  0  0  0
  7  5  1  0  0  0  0
  8  9  1  0  0  0  0
  9  2  1  0  0  0  0
 10  3  1  0  0  0  0
 10 11  1  0  0  0  0
 12  2  1  0  0  0  0
 13 12  1  0  0  0  0
 14 15  1  0  0  0  0
 16 18  1  0  0  0  0
 16 14  2  0  0  0  0
 17 15  1  0  0  0  0
 17 19  1  0  0  0  0
 18 17  2  0  0  0  0
 19 21  1  0  0  0  0
 21 20  1  1  0  0  0
 22 21  1  0  0  0  0
 23 22  1  0  0  0  0
 23 24  1  1  0  0  0
 25 28  1  0  0  0  0
 27 28  1  0  0  0  0
 28 26  1  0  0  0  0
 28 23  1  0  0  0  0
 30 29  1  0  0  0  0
M  END
>  <MODEL>
2

>  <REMARK>
 VINA RESULT:      -7.0      2.887      8.966
  Name = 
  11 active torsions:
  status: ('A' for Active; 'I' for Inactive)
    1  A    between atoms: C_1  and  C_8
    2  A    between atoms: C_1  and  C_27
    3  A    between atoms: C_3  and  N_7
    4  A    between atoms: C_3  and  O_18
    5  A    between atoms: C_6  and  C_14
    6  A    between atoms: C_6  and  C_26
    7  A    between atoms: C_6  and  C_30
    8  A    between atoms: C_8  and  C_24
    9  A    between atoms: C_10  and  O_17
   10  A    between atoms: C_27  and  C_29
   11  A    between atoms: C_28  and  C_29
                            x       y       z     vdW  Elec       q    Type
                         _______ _______ _______ _____ _____    ______ ____

>  <TORSDO>
F 11

$$$$
=
 OpenBabel11062413173D

 30 31  0  0  1  0  0  0  0  0999 V2000
  188.9660  178.3190  142.5740 C   0  0  2  0  0  3  0  0  0  0  0  0
  188.9050  176.7970  147.0390 C   0  0  0  0  0  0  0  0  0  0  0  0
  187.2370  177.6840  145.4100 C   0  0  0  0  0  0  0  0  0  0  0  0
  189.2380  176.7550  144.5510 C   0  0  0  0  0  2  0  0  0  0  0  0
  188.2910  177.2480  143.4430 C   0  0  1  0  0  3  0  0  0  0  0  0
  188.4840  177.0560  145.7960 C   0  0  0  0  0  0  0  0  0  0  0  0
  187.1240  177.7990  144.1330 N   0  0  0  0  0  0  0  0  0  0  0  0
  191.4390  176.8760  147.4550 C   0  0  0  0  0  1  0  0  0  0  0  0
  190.1890  176.1750  147.2130 N   0  0  0  0  0  2  0  0  0  0  0  0
  186.2590  178.1210  146.3050 O   0  0  0  0  0  0  0  0  0  0  0  0
  185.2040  178.9810  145.9020 C   0  0  0  0  0  1  0  0  0  0  0  0
  188.0760  177.1360  148.1200 O   0  0  0  0  0  0  0  0  0  0  0  0
  188.3270  178.2060  149.0190 C   0  0  0  0  0  1  0  0  0  0  0  0
  188.8230  177.6350  138.8800 N   0  0  0  0  0  0  0  0  0  0  0  0
  187.6640  178.0990  139.1190 N   0  0  0  0  0  0  0  0  0  0  0  0
  189.6320  177.5770  140.0940 C   0  0  0  0  0  2  0  0  0  0  0  0
  187.5550  178.4010  140.4980 C   0  0  0  0  0  0  0  0  0  0  0  0
  188.6800  178.0990  141.1190 C   0  0  0  0  0  0  0  0  0  0  0  0
  186.3340  178.9890  141.1240 C   0  0  0  0  0  2  0  0  0  0  0  0
  184.6160  179.8760  139.6400 N   0  0  0  0  0  1  0  0  0  0  0  0
  185.1010  178.6700  140.2910 C   0  0  2  0  0  3  0  0  0  0  0  0
  183.9910  178.0310  141.1260 C   0  0  0  0  0  2  0  0  0  0  0  0
  182.6000  178.5310  140.7270 C   0  0  2  0  0  3  0  0  0  0  0  0
  181.8720  178.8670  141.8720 O   0  0  0  0  0  1  0  0  0  0  0  0
  182.5950  176.2840  139.7630 N   0  0  0  0  0  1  0  0  0  0  0  0
  180.4660  177.2080  140.4520 C   0  0  0  0  0  1  0  0  0  0  0  0
  181.6450  178.0790  138.4660 C   0  0  0  0  0  1  0  0  0  0  0  0
  181.8330  177.5180  139.8640 C   0  0  0  0  0  0  0  0  0  0  0  0
  190.8300  179.3690  143.6470 O   0  0  0  0  0  1  0  0  0  0  0  0
  190.4750  178.3320  142.7840 C   0  0  0  0  0  2  0  0  0  0  0  0
  1 30  1  6  0  0  0
  2  9  1  0  0  0  0
  2 12  1  0  0  0  0
  3  6  1  0  0  0  0
  3 10  1  0  0  0  0
  4  6  1  0  0  0  0
  5  1  1  1  0  0  0
  5  7  1  0  0  0  0
  5  4  1  0  0  0  0
  6  2  2  0  0  0  0
  7  3  2  0  0  0  0
  9  8  1  0  0  0  0
 11 10  1  0  0  0  0
 12 13  1  0  0  0  0
 14 15  2  0  0  0  0
 14 16  1  0  0  0  0
 15 17  1  0  0  0  0
 16 18  1  0  0  0  0
 17 18  2  0  0  0  0
 17 19  1  0  0  0  0
 18  1  1  0  0  0  0
 21 20  1  1  0  0  0
 21 19  1  0  0  0  0
 21 22  1  0  0  0  0
 23 22  1  0  0  0  0
 23 24  1  1  0  0  0
 25 28  1  0  0  0  0
 27 28  1  0  0  0  0
 28 26  1  0  0  0  0
 28 23  1  0  0  0  0
 30 29  1  0  0  0  0
M  END
>  <MODEL>
3

>  <REMARK>
 VINA RESULT:      -6.9      3.747      7.241
  Name = 
  11 active torsions:
  status: ('A' for Active; 'I' for Inactive)
    1  A    between atoms: C_1  and  C_8
    2  A    between atoms: C_1  and  C_27
    3  A    between atoms: C_3  and  N_7
    4  A    between atoms: C_3  and  O_18
    5  A    between atoms: C_6  and  C_14
    6  A    between atoms: C_6  and  C_26
    7  A    between atoms: C_6  and  C_30
    8  A    between atoms: C_8  and  C_24
    9  A    between atoms: C_10  and  O_17
   10  A    between atoms: C_27  and  C_29
   11  A    between atoms: C_28  and  C_29
                            x       y       z     vdW  Elec       q    Type
                         _______ _______ _______ _____ _____    ______ ____

>  <TORSDO>
F 11

$$$$
=
 OpenBabel11062413173D

 30 31  0  0  1  0  0  0  0  0999 V2000
  189.8080  177.8250  142.2860 C   0  0  2  0  0  3  0  0  0  0  0  0
  187.3850  177.4820  146.3180 C   0  0  0  0  0  0  0  0  0  0  0  0
  186.8440  177.5220  143.8840 C   0  0  0  0  0  0  0  0  0  0  0  0
  189.0390  176.9070  144.5200 C   0  0  0  0  0  2  0  0  0  0  0  0
  188.8340  176.8740  142.9950 C   0  0  1  0  0  3  0  0  0  0  0  0
  187.7060  177.3200  145.0300 C   0  0  0  0  0  0  0  0  0  0  0  0
  187.4480  177.2880  142.7720 N   0  0  0  0  0  0  0  0  0  0  0  0
  188.7790  178.1690  148.3640 C   0  0  0  0  0  1  0  0  0  0  0  0
  188.3940  177.2420  147.3130 N   0  0  0  0  0  2  0  0  0  0  0  0
  185.5090  177.9240  143.9560 O   0  0  0  0  0  0  0  0  0  0  0  0
  185.0500  179.1150  143.3350 C   0  0  0  0  0  1  0  0  0  0  0  0
  186.0770  177.8730  146.6470 O   0  0  0  0  0  0  0  0  0  0  0  0
  185.7080  179.1850  147.0450 C   0  0  0  0  0  1  0  0  0  0  0  0
  190.9960  176.4080  139.0120 N   0  0  0  0  0  0  0  0  0  0  0  0
  190.0440  177.1690  138.6530 N   0  0  0  0  0  0  0  0  0  0  0  0
  191.1750  176.4290  140.4610 C   0  0  0  0  0  2  0  0  0  0  0  0
  189.4740  177.7790  139.7960 C   0  0  0  0  0  0  0  0  0  0  0  0
  190.0940  177.3670  140.8870 C   0  0  0  0  0  0  0  0  0  0  0  0
  188.3470  178.7560  139.7400 C   0  0  0  0  0  2  0  0  0  0  0  0
  187.0790  178.6010  137.6650 N   0  0  0  0  0  1  0  0  0  0  0  0
  187.1430  178.1410  139.0430 C   0  0  2  0  0  3  0  0  0  0  0  0
  185.8340  178.4510  139.7700 C   0  0  0  0  0  2  0  0  0  0  0  0
  184.7310  178.9140  138.8140 C   0  0  2  0  0  3  0  0  0  0  0  0
  184.3540  180.2240  139.1260 O   0  0  0  0  0  1  0  0  0  0  0  0
  183.3170  177.4330  140.1500 N   0  0  0  0  0  1  0  0  0  0  0  0
  182.2520  178.7010  138.3850 C   0  0  0  0  0  1  0  0  0  0  0  0
  183.7620  176.8210  137.8620 C   0  0  0  0  0  1  0  0  0  0  0  0
  183.5150  177.9750  138.8160 C   0  0  0  0  0  0  0  0  0  0  0  0
  191.2450  179.2110  143.6070 O   0  0  0  0  0  1  0  0  0  0  0  0
  191.1230  177.9390  143.0460 C   0  0  0  0  0  2  0  0  0  0  0  0
  1 30  1  1  0  0  0
  2 12  1  0  0  0  0
  2  9  1  0  0  0  0
  3 10  1  0  0  0  0
  3  6  1  0  0  0  0
  4  6  1  0  0  0  0
  5  1  1  6  0  0  0
  5  4  1  0  0  0  0
  6  2  2  0  0  0  0
  7  5  1  0  0  0  0
  7  3  2  0  0  0  0
  9  8  1  0  0  0  0
 11 10  1  0  0  0  0
 12 13  1  0  0  0  0
 14 16  1  0  0  0  0
 15 14  2  0  0  0  0
 15 17  1  0  0  0  0
 16 18  1  0  0  0  0
 17 18  2  0  0  0  0
 18  1  1  0  0  0  0
 19 17  1  0  0  0  0
 21 20  1  6  0  0  0
 21 19  1  0  0  0  0
 21 22  1  0  0  0  0
 23 28  1  0  0  0  0
 23 24  1  1  0  0  0
 23 22  1  0  0  0  0
 26 28  1  0  0  0  0
 27 28  1  0  0  0  0
 28 25  1  0  0  0  0
 30 29  1  0  0  0  0
M  END
>  <MODEL>
4

>  <REMARK>
 VINA RESULT:      -6.7      3.433      6.350
  Name = 
  11 active torsions:
  status: ('A' for Active; 'I' for Inactive)
    1  A    between atoms: C_1  and  C_8
    2  A    between atoms: C_1  and  C_27
    3  A    between atoms: C_3  and  N_7
    4  A    between atoms: C_3  and  O_18
    5  A    between atoms: C_6  and  C_14
    6  A    between atoms: C_6  and  C_26
    7  A    between atoms: C_6  and  C_30
    8  A    between atoms: C_8  and  C_24
    9  A    between atoms: C_10  and  O_17
   10  A    between atoms: C_27  and  C_29
   11  A    between atoms: C_28  and  C_29
                            x       y       z     vdW  Elec       q    Type
                         _______ _______ _______ _____ _____    ______ ____

>  <TORSDO>
F 11

$$$$
=
 OpenBabel11062413173D

 30 31  0  0  1  0  0  0  0  0999 V2000
  186.5430  178.3660  143.6000 C   0  0  2  0  0  3  0  0  0  0  0  0
  190.7480  176.7580  145.0100 C   0  0  0  0  0  0  0  0  0  0  0  0
  188.6340  177.4960  146.1110 C   0  0  0  0  0  0  0  0  0  0  0  0
  188.5220  176.8010  143.8500 C   0  0  0  0  0  2  0  0  0  0  0  0
  187.1490  177.2130  144.4120 C   0  0  1  0  0  3  0  0  0  0  0  0
  189.4320  176.9960  145.0100 C   0  0  0  0  0  0  0  0  0  0  0  0
  187.3930  177.6230  145.7960 N   0  0  0  0  0  0  0  0  0  0  0  0
  191.8550  177.1020  142.7170 C   0  0  0  0  0  1  0  0  0  0  0  0
  191.3590  176.2730  143.8030 N   0  0  0  0  0  2  0  0  0  0  0  0
  189.1360  177.8090  147.3750 O   0  0  0  0  0  0  0  0  0  0  0  0
  188.2970  177.8850  148.5180 C   0  0  0  0  0  1  0  0  0  0  0  0
  191.4770  176.9860  146.1890 O   0  0  0  0  0  0  0  0  0  0  0  0
  192.0620  175.9640  146.9810 C   0  0  0  0  0  1  0  0  0  0  0  0
  183.2170  179.1110  145.1860 N   0  0  0  0  0  0  0  0  0  0  0  0
  182.8910  178.7970  143.9990 N   0  0  0  0  0  0  0  0  0  0  0  0
  184.6630  179.0470  145.3740 C   0  0  0  0  0  2  0  0  0  0  0  0
  184.0580  178.4940  143.2560 C   0  0  0  0  0  0  0  0  0  0  0  0
  185.1280  178.6390  144.0150 C   0  0  0  0  0  0  0  0  0  0  0  0
  184.0430  178.0600  141.8280 C   0  0  0  0  0  2  0  0  0  0  0  0
  181.7850  178.0350  140.9130 N   0  0  0  0  0  1  0  0  0  0  0  0
  182.9910  178.8340  141.0470 C   0  0  2  0  0  3  0  0  0  0  0  0
  183.4980  179.2700  139.6710 C   0  0  0  0  0  2  0  0  0  0  0  0
  184.4630  178.2520  139.0560 C   0  0  2  0  0  3  0  0  0  0  0  0
  185.6150  178.9040  138.6080 O   0  0  0  0  0  1  0  0  0  0  0  0
  183.4280  176.1270  138.4300 N   0  0  0  0  0  1  0  0  0  0  0  0
  182.5900  178.1340  137.3670 C   0  0  0  0  0  1  0  0  0  0  0  0
  184.8190  177.2360  136.8050 C   0  0  0  0  0  1  0  0  0  0  0  0
  183.8170  177.4340  137.9280 C   0  0  0  0  0  0  0  0  0  0  0  0
  187.5130  178.8770  141.4720 O   0  0  0  0  0  1  0  0  0  0  0  0
  186.5710  178.0660  142.1070 C   0  0  0  0  0  2  0  0  0  0  0  0
  1 30  1  6  0  0  0
  1 18  1  0  0  0  0
  2  6  2  0  0  0  0
  2 12  1  0  0  0  0
  3 10  1  0  0  0  0
  4  5  1  0  0  0  0
  4  6  1  0  0  0  0
  5  1  1  6  0  0  0
  5  7  1  0  0  0  0
  6  3  1  0  0  0  0
  7  3  2  0  0  0  0
  8  9  1  0  0  0  0
  9  2  1  0  0  0  0
 10 11  1  0  0  0  0
 12 13  1  0  0  0  0
 14 16  1  0  0  0  0
 15 14  2  0  0  0  0
 17 15  1  0  0  0  0
 17 18  2  0  0  0  0
 18 16  1  0  0  0  0
 19 17  1  0  0  0  0
 21 20  1  6  0  0  0
 21 19  1  0  0  0  0
 22 21  1  0  0  0  0
 23 24  1  6  0  0  0
 23 22  1  0  0  0  0
 26 28  1  0  0  0  0
 27 28  1  0  0  0  0
 28 25  1  0  0  0  0
 28 23  1  0  0  0  0
 29 30  1  0  0  0  0
M  END
>  <MODEL>
5

>  <REMARK>
 VINA RESULT:      -6.6      4.342      7.259
  Name = 
  11 active torsions:
  status: ('A' for Active; 'I' for Inactive)
    1  A    between atoms: C_1  and  C_8
    2  A    between atoms: C_1  and  C_27
    3  A    between atoms: C_3  and  N_7
    4  A    between atoms: C_3  and  O_18
    5  A    between atoms: C_6  and  C_14
    6  A    between atoms: C_6  and  C_26
    7  A    between atoms: C_6  and  C_30
    8  A    between atoms: C_8  and  C_24
    9  A    between atoms: C_10  and  O_17
   10  A    between atoms: C_27  and  C_29
   11  A    between atoms: C_28  and  C_29
                            x       y       z     vdW  Elec       q    Type
                         _______ _______ _______ _____ _____    ______ ____

>  <TORSDO>
F 11

$$$$
=
 OpenBabel11062413173D

 30 31  0  0  1  0  0  0  0  0999 V2000
  184.7010  178.2120  142.0160 C   0  0  2  0  0  3  0  0  0  0  0  0
  182.0440  179.4960  138.3360 C   0  0  0  0  0  0  0  0  0  0  0  0
  182.6600  177.3560  139.4590 C   0  0  0  0  0  0  0  0  0  0  0  0
  182.8580  179.3590  140.7060 C   0  0  0  0  0  2  0  0  0  0  0  0
  183.2510  178.1130  141.5200 C   0  0  1  0  0  3  0  0  0  0  0  0
  182.4720  178.7910  139.3880 C   0  0  0  0  0  0  0  0  0  0  0  0
  183.0890  176.9770  140.6120 N   0  0  0  0  0  0  0  0  0  0  0  0
  180.7190  181.6540  138.7700 C   0  0  0  0  0  1  0  0  0  0  0  0
  181.9370  180.9240  138.4630 N   0  0  0  0  0  2  0  0  0  0  0  0
  182.4100  176.4710  138.4100 O   0  0  0  0  0  0  0  0  0  0  0  0
  183.4590  175.9240  137.6240 C   0  0  0  0  0  1  0  0  0  0  0  0
  181.7100  178.8150  137.1530 O   0  0  0  0  0  0  0  0  0  0  0  0
  180.4860  178.9750  136.4540 C   0  0  0  0  0  1  0  0  0  0  0  0
  184.4070  179.0570  145.6670 N   0  0  0  0  0  0  0  0  0  0  0  0
  185.4340  178.3090  145.6400 N   0  0  0  0  0  2  0  0  0  0  0  0
  183.8390  179.2270  144.3330 C   0  0  0  0  0  3  0  0  0  0  0  0
  185.6750  177.8910  144.3090 C   0  0  0  0  0  0  0  0  0  0  0  0
  184.7570  178.3910  143.5030 C   0  0  0  0  0  0  0  0  0  0  0  0
  186.8200  177.0210  143.9070 C   0  0  0  0  0  2  0  0  0  0  0  0
  188.6600  177.1920  142.3190 N   0  0  0  0  0  1  0  0  0  0  0  0
  187.9850  177.8670  143.4160 C   0  0  2  0  0  3  0  0  0  0  0  0
  188.9760  178.1900  144.5350 C   0  0  0  0  0  2  0  0  0  0  0  0
  189.6620  176.9380  145.0870 C   0  0  2  0  0  3  0  0  0  0  0  0
  189.3170  176.7640  146.4310 O   0  0  0  0  0  1  0  0  0  0  0  0
  191.8350  176.8210  146.2000 N   0  0  0  0  0  1  0  0  0  0  0  0
  191.6620  175.8650  143.9820 C   0  0  0  0  0  1  0  0  0  0  0  0
  191.5990  178.3090  144.3190 C   0  0  0  0  0  1  0  0  0  0  0  0
  191.1860  176.9720  144.9080 C   0  0  0  0  0  0  0  0  0  0  0  0
  186.2230  178.8970  140.3000 O   0  0  0  0  0  1  0  0  0  0  0  0
  185.4360  179.3690  141.3510 C   0  0  0  0  0  2  0  0  0  0  0  0
  1 30  1  6  0  0  0
  1 18  1  0  0  0  0
  2  9  1  0  0  0  0
  2  6  2  0  0  0  0
  3  7  2  0  0  0  0
  4  5  1  0  0  0  0
  5  1  1  6  0  0  0
  6  3  1  0  0  0  0
  6  4  1  0  0  0  0
  7  5  1  0  0  0  0
  9  8  1  0  0  0  0
 10  3  1  0  0  0  0
 11 10  1  0  0  0  0
 12  2  1  0  0  0  0
 13 12  1  0  0  0  0
 15 14  1  0  0  0  0
 16 14  2  0  0  0  0
 17 15  1  0  0  0  0
 18 17  2  0  0  0  0
 18 16  1  0  0  0  0
 19 17  1  0  0  0  0
 21 20  1  6  0  0  0
 21 19  1  0  0  0  0
 21 22  1  0  0  0  0
 22 23  1  0  0  0  0
 23 24  1  1  0  0  0
 26 28  1  0  0  0  0
 27 28  1  0  0  0  0
 28 23  1  0  0  0  0
 28 25  1  0  0  0  0
 29 30  1  0  0  0  0
M  END
>  <MODEL>
6

>  <REMARK>
 VINA RESULT:      -6.5      5.236      8.907
  Name = 
  11 active torsions:
  status: ('A' for Active; 'I' for Inactive)
    1  A    between atoms: C_1  and  C_8
    2  A    between atoms: C_1  and  C_27
    3  A    between atoms: C_3  and  N_7
    4  A    between atoms: C_3  and  O_18
    5  A    between atoms: C_6  and  C_14
    6  A    between atoms: C_6  and  C_26
    7  A    between atoms: C_6  and  C_30
    8  A    between atoms: C_8  and  C_24
    9  A    between atoms: C_10  and  O_17
   10  A    between atoms: C_27  and  C_29
   11  A    between atoms: C_28  and  C_29
                            x       y       z     vdW  Elec       q    Type
                         _______ _______ _______ _____ _____    ______ ____

>  <TORSDO>
F 11

$$$$
=
 OpenBabel11062413173D

 30 31  0  0  1  0  0  0  0  0999 V2000
  189.1040  176.7200  142.9020 C   0  0  2  0  0  3  0  0  0  0  0  0
  190.5930  177.2200  138.4540 C   0  0  0  0  0  0  0  0  0  0  0  0
  188.8150  178.2230  139.8870 C   0  0  0  0  0  0  0  0  0  0  0  0
  190.6630  177.2070  140.9630 C   0  0  0  0  0  2  0  0  0  0  0  0
  189.6500  177.8010  141.9590 C   0  0  1  0  0  3  0  0  0  0  0  0
  190.0640  177.5310  139.6410 C   0  0  0  0  0  0  0  0  0  0  0  0
  188.5770  178.3700  141.1430 N   0  0  0  0  0  0  0  0  0  0  0  0
  192.3180  175.6840  137.3280 C   0  0  0  0  0  1  0  0  0  0  0  0
  191.8450  176.5140  138.4230 N   0  0  0  0  0  2  0  0  0  0  0  0
  187.9550  178.6840  138.8890 O   0  0  0  0  0  0  0  0  0  0  0  0
  186.7850  177.9710  138.5180 C   0  0  0  0  0  1  0  0  0  0  0  0
  189.9100  177.5990  137.2870 O   0  0  0  0  0  0  0  0  0  0  0  0
  189.4770  176.6940  136.2810 C   0  0  0  0  0  1  0  0  0  0  0  0
  189.1410  178.0200  146.4290 N   0  0  0  0  0  0  0  0  0  0  0  0
  187.8980  177.9300  146.1820 N   0  0  0  0  0  2  0  0  0  0  0  0
  189.9410  177.6030  145.2810 C   0  0  0  0  0  3  0  0  0  0  0  0
  187.7150  177.4560  144.8610 C   0  0  0  0  0  0  0  0  0  0  0  0
  188.8850  177.2610  144.2830 C   0  0  0  0  0  0  0  0  0  0  0  0
  186.3770  177.2070  144.2470 C   0  0  0  0  0  2  0  0  0  0  0  0
  185.2960  179.1170  145.3050 N   0  0  0  0  0  1  0  0  0  0  0  0
  185.6390  178.5190  144.0250 C   0  0  2  0  0  3  0  0  0  0  0  0
  184.3870  178.3390  143.1660 C   0  0  0  0  0  2  0  0  0  0  0  0
  184.6890  178.4400  141.6680 C   0  0  2  0  0  3  0  0  0  0  0  0
  185.4290  179.5980  141.4120 O   0  0  0  0  0  1  0  0  0  0  0  0
  183.2620  177.0690  140.2320 N   0  0  0  0  0  1  0  0  0  0  0  0
  182.1810  178.7310  141.6220 C   0  0  0  0  0  1  0  0  0  0  0  0
  183.5380  179.3960  139.6720 C   0  0  0  0  0  1  0  0  0  0  0  0
  183.4190  178.3950  140.8060 C   0  0  0  0  0  0  0  0  0  0  0  0
  191.2650  175.9140  143.5430 O   0  0  0  0  0  1  0  0  0  0  0  0
  190.0470  175.5260  142.9820 C   0  0  0  0  0  2  0  0  0  0  0  0
  1 30  1  1  0  0  0
  1 18  1  0  0  0  0
  2  6  2  0  0  0  0
  3  7  2  0  0  0  0
  4  5  1  0  0  0  0
  5  1  1  1  0  0  0
  6  3  1  0  0  0  0
  6  4  1  0  0  0  0
  7  5  1  0  0  0  0
  8  9  1  0  0  0  0
  9  2  1  0  0  0  0
 10  3  1  0  0  0  0
 11 10  1  0  0  0  0
 12  2  1  0  0  0  0
 13 12  1  0  0  0  0
 15 14  1  0  0  0  0
 16 14  2  0  0  0  0
 17 15  1  0  0  0  0
 18 17  2  0  0  0  0
 18 16  1  0  0  0  0
 19 17  1  0  0  0  0
 21 19  1  0  0  0  0
 21 20  1  1  0  0  0
 22 21  1  0  0  0  0
 23 24  1  1  0  0  0
 23 22  1  0  0  0  0
 25 28  1  0  0  0  0
 27 28  1  0  0  0  0
 28 26  1  0  0  0  0
 28 23  1  0  0  0  0
 30 29  1  0  0  0  0
M  END
>  <MODEL>
7

>  <REMARK>
 VINA RESULT:      -6.5      3.312      8.723
  Name = 
  11 active torsions:
  status: ('A' for Active; 'I' for Inactive)
    1  A    between atoms: C_1  and  C_8
    2  A    between atoms: C_1  and  C_27
    3  A    between atoms: C_3  and  N_7
    4  A    between atoms: C_3  and  O_18
    5  A    between atoms: C_6  and  C_14
    6  A    between atoms: C_6  and  C_26
    7  A    between atoms: C_6  and  C_30
    8  A    between atoms: C_8  and  C_24
    9  A    between atoms: C_10  and  O_17
   10  A    between atoms: C_27  and  C_29
   11  A    between atoms: C_28  and  C_29
                            x       y       z     vdW  Elec       q    Type
                         _______ _______ _______ _____ _____    ______ ____

>  <TORSDO>
F 11

$$$$
=
 OpenBabel11062413173D

 30 31  0  0  1  0  0  0  0  0999 V2000
  190.4330  178.0660  142.3150 C   0  0  2  0  0  3  0  0  0  0  0  0
  187.7290  177.2120  146.0860 C   0  0  0  0  0  0  0  0  0  0  0  0
  187.3770  177.4520  143.6280 C   0  0  0  0  0  0  0  0  0  0  0  0
  189.5510  176.9000  144.3870 C   0  0  0  0  0  2  0  0  0  0  0  0
  189.4670  177.0010  142.8540 C   0  0  1  0  0  3  0  0  0  0  0  0
  188.1580  177.1900  144.8200 C   0  0  0  0  0  0  0  0  0  0  0  0
  188.0800  177.3580  142.5540 N   0  0  0  0  0  0  0  0  0  0  0  0
  189.2140  177.9160  148.0600 C   0  0  0  0  0  1  0  0  0  0  0  0
  188.6710  176.9360  147.1360 N   0  0  0  0  0  2  0  0  0  0  0  0
  186.0190  177.7720  143.6250 O   0  0  0  0  0  0  0  0  0  0  0  0
  185.4460  178.6020  142.6260 C   0  0  0  0  0  1  0  0  0  0  0  0
  186.3780  177.4990  146.3390 O   0  0  0  0  0  0  0  0  0  0  0  0
  185.9110  178.6900  146.9540 C   0  0  0  0  0  1  0  0  0  0  0  0
  192.9110  176.9380  139.7230 N   0  0  0  0  0  0  0  0  0  0  0  0
  191.7980  176.7480  139.1410 N   0  0  0  0  0  0  0  0  0  0  0  0
  192.7210  177.4740  141.0680 C   0  0  0  0  0  2  0  0  0  0  0  0
  190.7440  177.1210  140.0090 C   0  0  0  0  0  0  0  0  0  0  0  0
  191.2320  177.5420  141.1600 C   0  0  0  0  0  0  0  0  0  0  0  0
  189.2990  177.0520  139.6370 C   0  0  0  0  0  2  0  0  0  0  0  0
  187.4630  178.6200  139.3100 N   0  0  0  0  0  1  0  0  0  0  0  0
  188.8540  178.3520  138.9840 C   0  0  2  0  0  3  0  0  0  0  0  0
  189.0530  178.3340  137.4680 C   0  0  0  0  0  2  0  0  0  0  0  0
  188.9970  176.9180  136.8890 C   0  0  2  0  0  3  0  0  0  0  0  0
  190.1150  176.6930  136.0800 O   0  0  0  0  0  1  0  0  0  0  0  0
  187.9840  175.8590  134.9320 N   0  0  0  0  0  1  0  0  0  0  0  0
  186.6900  175.8950  136.9780 C   0  0  0  0  0  1  0  0  0  0  0  0
  187.0780  177.9610  135.6840 C   0  0  0  0  0  1  0  0  0  0  0  0
  187.6960  176.6450  136.1200 C   0  0  0  0  0  0  0  0  0  0  0  0
  190.9190  179.7340  143.9610 O   0  0  0  0  0  1  0  0  0  0  0  0
  191.3880  178.5460  143.4010 C   0  0  0  0  0  2  0  0  0  0  0  0
  1 30  1  1  0  0  0
  2 12  1  0  0  0  0
  2  9  1  0  0  0  0
  3  6  1  0  0  0  0
  4  6  1  0  0  0  0
  5  1  1  1  0  0  0
  5  4  1  0  0  0  0
  6  2  2  0  0  0  0
  7  5  1  0  0  0  0
  7  3  2  0  0  0  0
  9  8  1  0  0  0  0
 10  3  1  0  0  0  0
 11 10  1  0  0  0  0
 12 13  1  0  0  0  0
 14 16  1  0  0  0  0
 15 14  2  0  0  0  0
 15 17  1  0  0  0  0
 16 18  1  0  0  0  0
 17 18  2  0  0  0  0
 18  1  1  0  0  0  0
 19 17  1  0  0  0  0
 21 20  1  6  0  0  0
 21 19  1  0  0  0  0
 22 21  1  0  0  0  0
 23 24  1  6  0  0  0
 23 22  1  0  0  0  0
 25 28  1  0  0  0  0
 27 28  1  0  0  0  0
 28 23  1  0  0  0  0
 28 26  1  0  0  0  0
 30 29  1  0  0  0  0
M  END
>  <MODEL>
8

>  <REMARK>
 VINA RESULT:      -6.4      3.127      4.560
  Name = 
  11 active torsions:
  status: ('A' for Active; 'I' for Inactive)
    1  A    between atoms: C_1  and  C_8
    2  A    between atoms: C_1  and  C_27
    3  A    between atoms: C_3  and  N_7
    4  A    between atoms: C_3  and  O_18
    5  A    between atoms: C_6  and  C_14
    6  A    between atoms: C_6  and  C_26
    7  A    between atoms: C_6  and  C_30
    8  A    between atoms: C_8  and  C_24
    9  A    between atoms: C_10  and  O_17
   10  A    between atoms: C_27  and  C_29
   11  A    between atoms: C_28  and  C_29
                            x       y       z     vdW  Elec       q    Type
                         _______ _______ _______ _____ _____    ______ ____

>  <TORSDO>
F 11

$$$$
=
 OpenBabel11062413173D

 30 31  0  0  1  0  0  0  0  0999 V2000
  190.0370  178.2350  142.4970 C   0  0  2  0  0  3  0  0  0  0  0  0
  189.1120  176.8560  146.9130 C   0  0  0  0  0  0  0  0  0  0  0  0
  187.8110  177.7990  145.0050 C   0  0  0  0  0  0  0  0  0  0  0  0
  189.8600  176.7180  144.5210 C   0  0  0  0  0  2  0  0  0  0  0  0
  189.1510  177.2370  143.2570 C   0  0  1  0  0  3  0  0  0  0  0  0
  188.9280  177.1040  145.6120 C   0  0  0  0  0  0  0  0  0  0  0  0
  187.9250  177.8820  143.7260 N   0  0  0  0  0  0  0  0  0  0  0  0
  191.5640  176.7830  147.6750 C   0  0  0  0  0  1  0  0  0  0  0  0
  190.3020  176.1580  147.3170 N   0  0  0  0  0  2  0  0  0  0  0  0
  186.7270  178.3250  145.7100 O   0  0  0  0  0  0  0  0  0  0  0  0
  185.4280  178.4030  145.1420 C   0  0  0  0  0  1  0  0  0  0  0  0
  188.1360  177.2800  147.8290 O   0  0  0  0  0  0  0  0  0  0  0  0
  188.3540  178.2510  148.8410 C   0  0  0  0  0  1  0  0  0  0  0  0
  191.7710  176.7690  139.5020 N   0  0  0  0  0  0  0  0  0  0  0  0
  190.6140  177.0330  139.0480 N   0  0  0  0  0  0  0  0  0  0  0  0
  191.8840  177.1330  140.9110 C   0  0  0  0  0  2  0  0  0  0  0  0
  189.8210  177.5920  140.0790 C   0  0  0  0  0  0  0  0  0  0  0  0
  190.5160  177.6600  141.1990 C   0  0  0  0  0  0  0  0  0  0  0  0
  188.4110  178.0440  139.8890 C   0  0  0  0  0  2  0  0  0  0  0  0
  188.6970  179.3560  137.8560 N   0  0  0  0  0  1  0  0  0  0  0  0
  188.0830  178.1590  138.4080 C   0  0  2  0  0  3  0  0  0  0  0  0
  186.5760  178.1650  138.1490 C   0  0  0  0  0  2  0  0  0  0  0  0
  186.1400  177.0310  137.2160 C   0  0  2  0  0  3  0  0  0  0  0  0
  186.6680  177.2420  135.9390 O   0  0  0  0  0  1  0  0  0  0  0  0
  184.1380  177.1480  135.8190 N   0  0  0  0  0  1  0  0  0  0  0  0
  184.1970  175.4540  137.5480 C   0  0  0  0  0  1  0  0  0  0  0  0
  183.9620  177.8440  138.1200 C   0  0  0  0  0  1  0  0  0  0  0  0
  184.6150  176.8640  137.1620 C   0  0  0  0  0  0  0  0  0  0  0  0
  190.9910  179.8660  143.9680 O   0  0  0  0  0  1  0  0  0  0  0  0
  191.2430  178.6510  143.3300 C   0  0  0  0  0  2  0  0  0  0  0  0
  1 30  1  1  0  0  0
  2  9  1  0  0  0  0
  2 12  1  0  0  0  0
  3  6  1  0  0  0  0
  3 10  1  0  0  0  0
  4  6  1  0  0  0  0
  5  1  1  1  0  0  0
  5  7  1  0  0  0  0
  5  4  1  0  0  0  0
  6  2  2  0  0  0  0
  7  3  2  0  0  0  0
  9  8  1  0  0  0  0
 11 10  1  0  0  0  0
 12 13  1  0  0  0  0
 14 16  1  0  0  0  0
 15 14  2  0  0  0  0
 15 17  1  0  0  0  0
 16 18  1  0  0  0  0
 17 18  2  0  0  0  0
 18  1  1  0  0  0  0
 19 17  1  0  0  0  0
 21 20  1  1  0  0  0
 21 19  1  0  0  0  0
 22 21  1  0  0  0  0
 23 24  1  6  0  0  0
 23 22  1  0  0  0  0
 25 28  1  0  0  0  0
 28 23  1  0  0  0  0
 28 26  1  0  0  0  0
 28 27  1  0  0  0  0
 30 29  1  0  0  0  0
M  END
>  <MODEL>
9

>  <REMARK>
 VINA RESULT:      -6.3      3.287      5.584
  Name = 
  11 active torsions:
  status: ('A' for Active; 'I' for Inactive)
    1  A    between atoms: C_1  and  C_8
    2  A    between atoms: C_1  and  C_27
    3  A    between atoms: C_3  and  N_7
    4  A    between atoms: C_3  and  O_18
    5  A    between atoms: C_6  and  C_14
    6  A    between atoms: C_6  and  C_26
    7  A    between atoms: C_6  and  C_30
    8  A    between atoms: C_8  and  C_24
    9  A    between atoms: C_10  and  O_17
   10  A    between atoms: C_27  and  C_29
   11  A    between atoms: C_28  and  C_29
                            x       y       z     vdW  Elec       q    Type
                         _______ _______ _______ _____ _____    ______ ____

>  <TORSDO>
F 11

$$$$
