=
 OpenBabel11062414053D

 53 59  0  0  1  0  0  0  0  0999 V2000
  184.1010  178.8620  144.4940 C   0  0  0  0  0  0  0  0  0  0  0  0
  186.0380  177.8370  143.5300 N   0  0  0  0  0  0  0  0  0  0  0  0
  185.8660  177.9800  145.9070 C   0  0  0  0  0  3  0  0  0  0  0  0
  186.5620  177.5870  144.7630 C   0  0  0  0  0  0  0  0  0  0  0  0
  184.6300  178.6220  145.7660 C   0  0  0  0  0  3  0  0  0  0  0  0
  184.8360  178.4530  143.3770 C   0  0  0  0  0  3  0  0  0  0  0  0
  187.8670  176.8760  144.8770 C   0  0  0  0  0  2  0  0  0  0  0  0
  188.5900  176.8080  143.5310 C   0  0  0  0  0  2  0  0  0  0  0  0
  191.0230  177.7330  141.5020 C   0  0  2  0  0  3  0  0  0  0  0  0
  191.1030  176.3510  143.3030 C   0  0  1  0  0  0  0  0  0  0  0  0
  191.8210  176.7710  142.1610 O   0  0  0  0  0  0  0  0  0  0  0  0
  190.0050  177.3870  143.6100 C   0  0  1  0  0  3  0  0  0  0  0  0
  190.2100  178.4440  142.5600 C   0  0  0  0  0  2  0  0  0  0  0  0
  190.5640  175.0850  143.0450 O   0  0  0  0  0  1  0  0  0  0  0  0
  191.9610  176.2600  144.3810 F   0  0  0  0  0  0  0  0  0  0  0  0
  190.0660  177.1120  140.4560 C   0  0  2  0  0  3  0  0  0  0  0  0
  189.8970  175.9290  138.2700 C   0  0  2  0  0  3  0  0  0  0  0  0
  192.5210  176.0850  137.3220 S   0  0  0  0  0  0  0  0  0  0  0  0
  190.8050  176.1950  139.4650 C   0  0  1  0  0  3  0  0  0  0  0  0
  190.2390  174.6760  137.6180 N   0  0  0  0  0  2  0  0  0  0  0  0
  191.4990  174.6790  136.9730 C   0  0  0  0  0  0  0  0  0  0  0  0
  191.0870  176.8820  138.1370 C   0  0  2  0  0  3  0  0  0  0  0  0
  191.9950  173.5810  136.4200 C   0  0  0  0  0  2  0  0  0  0  0  0
  189.3960  178.1700  139.7630 O   0  0  0  0  0  0  0  0  0  0  0  0
  187.3850  177.7930  138.6810 O   0  0  0  0  0  0  0  0  0  0  0  0
  188.0030  178.2570  139.6740 C   0  0  0  0  0  0  0  0  0  0  0  0
  187.2700  178.9130  140.7040 N   0  0  0  0  0  1  0  0  0  0  0  0
  182.7490  179.4660  144.2900 C   0  0  0  0  0  2  0  0  0  0  0  0
  181.5250  179.4690  142.2860 C   0  0  2  0  0  3  0  0  0  0  0  0
  181.9190  178.6270  143.4290 N   0  0  0  0  0  0  0  0  0  0  0  0
  180.5770  179.2290  143.3780 C   0  0  0  0  0  2  0  0  0  0  0  0
  179.7910  178.1130  137.9880 O   0  0  0  0  0  0  0  0  0  0  0  0
  182.8450  178.0310  140.3030 S   0  0  0  0  0  0  0  0  0  0  0  0
  181.9280  177.6610  138.8380 N   0  0  0  0  0  0  0  0  0  0  0  0
  180.3870  179.0330  140.0650 N   0  0  0  0  0  0  0  0  0  0  0  0
  180.6520  178.2700  138.8940 C   0  0  0  0  0  0  0  0  0  0  0  0
  181.2840  178.5350  141.1060 C   0  0  2  0  0  3  0  0  0  0  0  0
  182.1790  176.4640  138.0560 C   0  0  0  0  0  2  0  0  0  0  0  0
  184.5850  175.5840  135.3140 O   0  0  0  0  0  1  0  0  0  0  0  0
  183.2600  176.7410  137.0230 C   0  0  1  0  0  3  0  0  0  0  0  0
  184.5100  176.3400  137.5450 O   0  0  0  0  0  0  0  0  0  0  0  0
  183.9430  175.5100  136.5630 C   0  0  2  0  0  0  0  0  0  0  0  0
  183.4800  174.2580  137.0330 O   0  0  0  0  0  0  0  0  0  0  0  0
  184.3490  173.2030  136.6570 C   0  0  1  0  0  3  0  0  0  0  0  0
  185.4390  172.9700  137.7040 C   0  0  0  0  0  1  0  0  0  0  0  0
  183.6700  172.0090  136.3590 O   0  0  0  0  0  0  0  0  0  0  0  0
  182.3180  172.3600  136.3560 C   0  0  0  0  0  2  0  0  0  0  0  0
  181.4890  171.1280  136.0230 C   0  0  0  0  0  1  0  0  0  0  0  0
  180.0710  180.4650  139.9410 C   0  0  0  0  0  2  0  0  0  0  0  0
  180.8840  181.1370  138.8410 C   0  0  0  0  0  2  0  0  0  0  0  0
  180.0060  182.1610  138.1380 C   0  0  0  0  0  2  0  0  0  0  0  0
  180.7720  182.8840  137.0790 C   0  0  0  0  0  3  0  0  0  0  0  0
  181.2680  184.2190  137.2910 S   0  0  0  0  0  0  0  0  0  0  0  0
  1  5  1  0  0  0  0
  2  4  2  0  0  0  0
  4  7  1  0  0  0  0
  4  3  1  0  0  0  0
  5  3  2  0  0  0  0
  6  2  1  0  0  0  0
  6  1  2  0  0  0  0
  8  7  1  0  0  0  0
  9 16  1  6  0  0  0
  9 11  1  0  0  0  0
  9 13  1  0  0  0  0
 10 14  1  6  0  0  0
 10 12  1  0  0  0  0
 10 15  1  0  0  0  0
 11 10  1  0  0  0  0
 12  8  1  6  0  0  0
 13 12  1  0  0  0  0
 16 24  1  6  0  0  0
 17 20  1  6  0  0  0
 17 19  1  0  0  0  0
 19 16  1  1  0  0  0
 21 18  1  0  0  0  0
 21 20  1  0  0  0  0
 22 18  1  6  0  0  0
 22 17  1  0  0  0  0
 22 19  1  0  0  0  0
 23 21  2  0  0  0  0
 25 26  2  0  0  0  0
 26 24  1  0  0  0  0
 26 27  1  0  0  0  0
 28  1  1  0  0  0  0
 29 31  1  1  0  0  0
 29 30  1  0  0  0  0
 30 28  1  0  0  0  0
 31 30  1  0  0  0  0
 32 36  2  0  0  0  0
 34 36  1  0  0  0  0
 34 33  1  0  0  0  0
 35 37  1  0  0  0  0
 36 35  1  0  0  0  0
 37 33  1  6  0  0  0
 37 29  1  0  0  0  0
 38 34  1  0  0  0  0
 40 41  1  0  0  0  0
 40 38  1  1  0  0  0
 42 39  1  6  0  0  0
 42 40  1  0  0  0  0
 42 43  1  0  0  0  0
 42 41  1  0  0  0  0
 44 43  1  0  0  0  0
 44 45  1  1  0  0  0
 46 44  1  0  0  0  0
 47 46  1  0  0  0  0
 48 47  1  0  0  0  0
 49 35  1  0  0  0  0
 50 49  1  0  0  0  0
 51 50  1  0  0  0  0
 52 53  2  0  0  0  0
 52 51  1  0  0  0  0
M  END
>  <MODEL>
1

>  <REMARK>
 VINA RESULT:      -7.0      0.000      0.000
  Name = 
  20 active torsions:
  status: ('A' for Active; 'I' for Inactive)
    1  A    between atoms: C_1  and  C_14
    2  A    between atoms: C_1  and  C_15
    3  A    between atoms: C_2  and  O_18
    4  A    between atoms: C_2  and  O_21
    5  A    between atoms: C_3  and  C_20
    6  A    between atoms: C_4  and  C_14
    7  A    between atoms: C_4  and  N_29
    8  A    between atoms: C_6  and  C_43
    9  A    between atoms: C_9  and  O_18
   10  A    between atoms: C_12  and  C_43
   11  A    between atoms: C_19  and  C_50
   12  A    between atoms: C_20  and  N_40
   13  A    between atoms: O_21  and  C_52
   14  A    between atoms: N_23  and  C_51
   15  A    between atoms: C_25  and  C_39
   16  A    between atoms: O_28  and  C_36
   17  A    between atoms: O_28  and  C_43
   18  A    between atoms: C_33  and  C_48
   19  A    between atoms: C_42  and  C_51
   20  A    between atoms: C_48  and  C_50
                            x       y       z     vdW  Elec       q    Type
                         _______ _______ _______ _____ _____    ______ ____

>  <TORSDO>
F 20

$$$$
=
 OpenBabel11062414053D

 53 59  0  0  1  0  0  0  0  0999 V2000
  182.9170  178.7340  144.1020 C   0  0  0  0  0  0  0  0  0  0  0  0
  180.6910  178.9500  143.2460 N   0  0  0  0  0  0  0  0  0  0  0  0
  182.4980  178.6500  141.7130 C   0  0  0  0  0  3  0  0  0  0  0  0
  181.1350  178.8190  141.9640 C   0  0  0  0  0  0  0  0  0  0  0  0
  183.3890  178.6090  142.7920 C   0  0  0  0  0  3  0  0  0  0  0  0
  181.5440  178.9050  144.3040 C   0  0  0  0  0  3  0  0  0  0  0  0
  180.1550  178.8390  140.8420 C   0  0  0  0  0  2  0  0  0  0  0  0
  180.7440  178.2280  139.5690 C   0  0  0  0  0  2  0  0  0  0  0  0
  180.9090  177.9130  136.2880 C   0  0  2  0  0  3  0  0  0  0  0  0
  181.4380  179.7000  137.5880 C   0  0  1  0  0  0  0  0  0  0  0  0
  181.5740  179.1600  136.2890 O   0  0  0  0  0  0  0  0  0  0  0  0
  180.2890  178.9730  138.3110 C   0  0  1  0  0  3  0  0  0  0  0  0
  179.7700  178.0110  137.2780 C   0  0  0  0  0  2  0  0  0  0  0  0
  182.6560  179.5450  138.2610 O   0  0  0  0  0  1  0  0  0  0  0  0
  181.1450  181.0470  137.4990 F   0  0  0  0  0  0  0  0  0  0  0  0
  181.8300  176.7350  136.6860 C   0  0  2  0  0  3  0  0  0  0  0  0
  184.2720  176.7870  137.1800 C   0  0  2  0  0  3  0  0  0  0  0  0
  185.3450  175.5150  134.9360 S   0  0  0  0  0  0  0  0  0  0  0  0
  183.2330  176.8610  136.0660 C   0  0  1  0  0  3  0  0  0  0  0  0
  185.5020  177.4600  136.7990 N   0  0  0  0  0  2  0  0  0  0  0  0
  186.2160  176.8230  135.7560 C   0  0  0  0  0  0  0  0  0  0  0  0
  184.0630  175.5970  136.2410 C   0  0  2  0  0  3  0  0  0  0  0  0
  187.3030  177.3700  135.2290 C   0  0  0  0  0  2  0  0  0  0  0  0
  181.2070  175.5110  136.2820 O   0  0  0  0  0  0  0  0  0  0  0  0
  179.9800  173.6200  136.8110 O   0  0  0  0  0  0  0  0  0  0  0  0
  180.6880  174.5870  137.1960 C   0  0  0  0  0  0  0  0  0  0  0  0
  180.9290  174.7620  138.5890 N   0  0  0  0  0  1  0  0  0  0  0  0
  183.8140  178.6120  145.2910 C   0  0  0  0  0  2  0  0  0  0  0  0
  186.0810  178.0050  145.3700 C   0  0  2  0  0  3  0  0  0  0  0  0
  185.1610  179.0900  144.9890 N   0  0  0  0  0  0  0  0  0  0  0  0
  185.9060  179.1600  146.2560 C   0  0  0  0  0  2  0  0  0  0  0  0
  190.7830  178.5000  144.3880 O   0  0  0  0  0  0  0  0  0  0  0  0
  187.5480  176.6970  143.4000 S   0  0  0  0  0  0  0  0  0  0  0  0
  189.2600  177.1130  143.2690 N   0  0  0  0  0  0  0  0  0  0  0  0
  188.5820  178.3730  145.1960 N   0  0  0  0  0  0  0  0  0  0  0  0
  189.6240  178.0140  144.2970 C   0  0  0  0  0  0  0  0  0  0  0  0
  187.3200  178.1420  144.4940 C   0  0  2  0  0  3  0  0  0  0  0  0
  189.9690  177.0590  142.0030 C   0  0  0  0  0  2  0  0  0  0  0  0
  188.4240  176.7660  138.5960 O   0  0  0  0  0  1  0  0  0  0  0  0
  189.0320  177.4510  140.8710 C   0  0  1  0  0  3  0  0  0  0  0  0
  189.7540  178.1980  139.9130 O   0  0  0  0  0  0  0  0  0  0  0  0
  189.4340  176.8740  139.5680 C   0  0  2  0  0  0  0  0  0  0  0  0
  190.5340  175.9850  139.5270 O   0  0  0  0  0  0  0  0  0  0  0  0
  190.9410  175.7140  138.1960 C   0  0  1  0  0  3  0  0  0  0  0  0
  192.2430  176.4370  137.8460 C   0  0  0  0  0  1  0  0  0  0  0  0
  191.0320  174.3410  137.9150 O   0  0  0  0  0  0  0  0  0  0  0  0
  190.1640  174.1380  136.8400 C   0  0  0  0  0  2  0  0  0  0  0  0
  190.9830  173.8440  135.5930 C   0  0  0  0  0  1  0  0  0  0  0  0
  188.7290  178.0830  146.6310 C   0  0  0  0  0  2  0  0  0  0  0  0
  189.3860  176.7300  146.8760 C   0  0  0  0  0  2  0  0  0  0  0  0
  190.6360  176.9370  147.7170 C   0  0  0  0  0  2  0  0  0  0  0  0
  191.8110  176.2440  147.1080 C   0  0  0  0  0  3  0  0  0  0  0  0
  192.7660  175.5340  147.9180 S   0  0  0  0  0  0  0  0  0  0  0  0
  1  6  1  0  0  0  0
  1 28  1  0  0  0  0
  2  6  2  0  0  0  0
  3  4  2  0  0  0  0
  3  5  1  0  0  0  0
  4  2  1  0  0  0  0
  5  1  2  0  0  0  0
  7  4  1  0  0  0  0
  8  7  1  0  0  0  0
  9 11  1  0  0  0  0
  9 16  1  1  0  0  0
  9 13  1  0  0  0  0
 10 15  1  6  0  0  0
 10 14  1  0  0  0  0
 10 12  1  0  0  0  0
 11 10  1  0  0  0  0
 12  8  1  1  0  0  0
 13 12  1  0  0  0  0
 16 24  1  6  0  0  0
 17 20  1  6  0  0  0
 18 21  1  0  0  0  0
 19 22  1  0  0  0  0
 19 16  1  1  0  0  0
 19 17  1  0  0  0  0
 21 20  1  0  0  0  0
 22 18  1  6  0  0  0
 22 17  1  0  0  0  0
 23 21  2  0  0  0  0
 24 26  1  0  0  0  0
 25 26  2  0  0  0  0
 26 27  1  0  0  0  0
 29 31  1  1  0  0  0
 30 28  1  0  0  0  0
 30 29  1  0  0  0  0
 30 31  1  0  0  0  0
 34 33  1  0  0  0  0
 34 36  1  0  0  0  0
 35 49  1  0  0  0  0
 36 32  2  0  0  0  0
 36 35  1  0  0  0  0
 37 33  1  1  0  0  0
 37 35  1  0  0  0  0
 37 29  1  0  0  0  0
 38 34  1  0  0  0  0
 40 38  1  1  0  0  0
 41 40  1  0  0  0  0
 42 39  1  6  0  0  0
 42 41  1  0  0  0  0
 42 40  1  0  0  0  0
 43 42  1  0  0  0  0
 44 45  1  1  0  0  0
 44 43  1  0  0  0  0
 46 44  1  0  0  0  0
 47 46  1  0  0  0  0
 48 47  1  0  0  0  0
 49 50  1  0  0  0  0
 50 51  1  0  0  0  0
 52 51  1  0  0  0  0
 52 53  2  0  0  0  0
M  END
>  <MODEL>
2

>  <REMARK>
 VINA RESULT:      -6.7      3.455      8.981
  Name = 
  20 active torsions:
  status: ('A' for Active; 'I' for Inactive)
    1  A    between atoms: C_1  and  C_14
    2  A    between atoms: C_1  and  C_15
    3  A    between atoms: C_2  and  O_18
    4  A    between atoms: C_2  and  O_21
    5  A    between atoms: C_3  and  C_20
    6  A    between atoms: C_4  and  C_14
    7  A    between atoms: C_4  and  N_29
    8  A    between atoms: C_6  and  C_43
    9  A    between atoms: C_9  and  O_18
   10  A    between atoms: C_12  and  C_43
   11  A    between atoms: C_19  and  C_50
   12  A    between atoms: C_20  and  N_40
   13  A    between atoms: O_21  and  C_52
   14  A    between atoms: N_23  and  C_51
   15  A    between atoms: C_25  and  C_39
   16  A    between atoms: O_28  and  C_36
   17  A    between atoms: O_28  and  C_43
   18  A    between atoms: C_33  and  C_48
   19  A    between atoms: C_42  and  C_51
   20  A    between atoms: C_48  and  C_50
                            x       y       z     vdW  Elec       q    Type
                         _______ _______ _______ _____ _____    ______ ____

>  <TORSDO>
F 20

$$$$
=
 OpenBabel11062414053D

 53 59  0  0  1  0  0  0  0  0999 V2000
  185.1680  178.3220  144.9250 C   0  0  0  0  0  0  0  0  0  0  0  0
  182.9190  179.1080  145.1700 N   0  0  0  0  0  0  0  0  0  0  0  0
  183.7620  178.6710  142.9780 C   0  0  0  0  0  3  0  0  0  0  0  0
  182.7260  179.0770  143.8210 C   0  0  0  0  0  0  0  0  0  0  0  0
  184.9880  178.2940  143.5390 C   0  0  0  0  0  3  0  0  0  0  0  0
  184.1020  178.7380  145.7290 C   0  0  0  0  0  3  0  0  0  0  0  0
  181.3990  179.4580  143.2610 C   0  0  0  0  0  2  0  0  0  0  0  0
  181.2180  178.9330  141.8360 C   0  0  0  0  0  2  0  0  0  0  0  0
  179.1580  178.4780  139.2970 C   0  0  2  0  0  3  0  0  0  0  0  0
  180.5920  180.1950  139.6930 C   0  0  1  0  0  0  0  0  0  0  0  0
  179.7860  179.5940  138.7000 O   0  0  0  0  0  0  0  0  0  0  0  0
  180.1310  179.6980  141.0760 C   0  0  1  0  0  3  0  0  0  0  0  0
  178.9650  178.8020  140.7620 C   0  0  0  0  0  2  0  0  0  0  0  0
  181.9280  179.8620  139.4410 O   0  0  0  0  0  1  0  0  0  0  0  0
  180.4550  181.5680  139.6290 F   0  0  0  0  0  0  0  0  0  0  0  0
  179.9850  177.1760  139.1670 C   0  0  2  0  0  3  0  0  0  0  0  0
  182.1830  176.7800  138.0640 C   0  0  2  0  0  3  0  0  0  0  0  0
  181.4290  175.4380  135.7330 S   0  0  0  0  0  0  0  0  0  0  0  0
  180.7100  177.0820  137.8130 C   0  0  1  0  0  3  0  0  0  0  0  0
  183.0110  177.2440  136.9630 N   0  0  0  0  0  2  0  0  0  0  0  0
  182.8180  176.5380  135.7510 C   0  0  0  0  0  0  0  0  0  0  0  0
  181.2510  175.6860  137.5390 C   0  0  2  0  0  3  0  0  0  0  0  0
  183.4250  176.9080  134.6320 C   0  0  0  0  0  2  0  0  0  0  0  0
  179.1100  176.0580  139.3520 O   0  0  0  0  0  0  0  0  0  0  0  0
  179.1390  175.5980  141.6200 O   0  0  0  0  0  0  0  0  0  0  0  0
  179.2190  175.1810  140.4360 C   0  0  0  0  0  0  0  0  0  0  0  0
  179.4630  173.7970  140.2020 N   0  0  0  0  0  1  0  0  0  0  0  0
  186.4260  177.8490  145.5780 C   0  0  0  0  0  2  0  0  0  0  0  0
  188.3960  177.2260  144.4610 C   0  0  2  0  0  3  0  0  0  0  0  0
  187.6060  178.3880  144.9060 N   0  0  0  0  0  0  0  0  0  0  0  0
  188.7900  177.9590  145.6680 C   0  0  0  0  0  2  0  0  0  0  0  0
  192.1640  177.3880  141.4450 O   0  0  0  0  0  0  0  0  0  0  0  0
  188.3400  177.2530  141.6790 S   0  0  0  0  0  0  0  0  0  0  0  0
  189.8970  177.3430  140.8480 N   0  0  0  0  0  0  0  0  0  0  0  0
  190.5620  177.1680  143.1480 N   0  0  0  0  0  0  0  0  0  0  0  0
  190.9550  177.2900  141.7860 C   0  0  0  0  0  0  0  0  0  0  0  0
  189.1920  177.6700  143.2400 C   0  0  2  0  0  3  0  0  0  0  0  0
  190.0430  177.9880  139.5560 C   0  0  0  0  0  2  0  0  0  0  0  0
  187.0240  178.0300  137.3270 O   0  0  0  0  0  1  0  0  0  0  0  0
  188.6880  178.4810  139.0720 C   0  0  1  0  0  3  0  0  0  0  0  0
  188.8790  179.3380  137.9640 O   0  0  0  0  0  0  0  0  0  0  0  0
  188.3830  178.0520  137.6870 C   0  0  2  0  0  0  0  0  0  0  0  0
  189.2910  177.1920  137.0250 O   0  0  0  0  0  0  0  0  0  0  0  0
  188.7370  176.6630  135.8320 C   0  0  1  0  0  3  0  0  0  0  0  0
  189.2760  177.3820  134.5940 C   0  0  0  0  0  1  0  0  0  0  0  0
  188.8950  175.2720  135.7190 O   0  0  0  0  0  0  0  0  0  0  0  0
  187.6610  174.7410  136.1040 C   0  0  0  0  0  2  0  0  0  0  0  0
  186.6800  174.8910  134.9510 C   0  0  0  0  0  1  0  0  0  0  0  0
  191.0090  176.0050  143.9300 C   0  0  0  0  0  2  0  0  0  0  0  0
  192.0120  176.3940  145.0110 C   0  0  0  0  0  2  0  0  0  0  0  0
  191.4460  176.0040  146.3680 C   0  0  0  0  0  2  0  0  0  0  0  0
  192.5140  175.4460  147.2510 C   0  0  0  0  0  3  0  0  0  0  0  0
  192.7400  175.9650  148.5750 S   0  0  0  0  0  0  0  0  0  0  0  0
  1 28  1  0  0  0  0
  1  6  1  0  0  0  0
  2  6  2  0  0  0  0
  3  5  1  0  0  0  0
  3  4  2  0  0  0  0
  4  2  1  0  0  0  0
  5  1  2  0  0  0  0
  7  4  1  0  0  0  0
  8  7  1  0  0  0  0
  9 16  1  1  0  0  0
  9 13  1  0  0  0  0
 10 14  1  6  0  0  0
 10 12  1  0  0  0  0
 11  9  1  0  0  0  0
 11 10  1  0  0  0  0
 12  8  1  6  0  0  0
 13 12  1  0  0  0  0
 15 10  1  0  0  0  0
 16 24  1  6  0  0  0
 17 20  1  6  0  0  0
 18 21  1  0  0  0  0
 19 17  1  0  0  0  0
 19 16  1  1  0  0  0
 21 20  1  0  0  0  0
 22 18  1  6  0  0  0
 22 19  1  0  0  0  0
 22 17  1  0  0  0  0
 23 21  2  0  0  0  0
 24 26  1  0  0  0  0
 26 25  2  0  0  0  0
 27 26  1  0  0  0  0
 29 30  1  0  0  0  0
 29 31  1  1  0  0  0
 30 28  1  0  0  0  0
 30 31  1  0  0  0  0
 32 36  2  0  0  0  0
 34 33  1  0  0  0  0
 34 36  1  0  0  0  0
 35 37  1  0  0  0  0
 35 49  1  0  0  0  0
 36 35  1  0  0  0  0
 37 33  1  6  0  0  0
 37 29  1  0  0  0  0
 38 34  1  0  0  0  0
 40 38  1  6  0  0  0
 41 40  1  0  0  0  0
 42 39  1  6  0  0  0
 42 41  1  0  0  0  0
 42 40  1  0  0  0  0
 43 42  1  0  0  0  0
 44 45  1  6  0  0  0
 44 43  1  0  0  0  0
 46 44  1  0  0  0  0
 46 47  1  0  0  0  0
 48 47  1  0  0  0  0
 49 50  1  0  0  0  0
 50 51  1  0  0  0  0
 51 52  1  0  0  0  0
 52 53  2  0  0  0  0
M  END
>  <MODEL>
3

>  <REMARK>
 VINA RESULT:      -6.7      3.504      9.314
  Name = 
  20 active torsions:
  status: ('A' for Active; 'I' for Inactive)
    1  A    between atoms: C_1  and  C_14
    2  A    between atoms: C_1  and  C_15
    3  A    between atoms: C_2  and  O_18
    4  A    between atoms: C_2  and  O_21
    5  A    between atoms: C_3  and  C_20
    6  A    between atoms: C_4  and  C_14
    7  A    between atoms: C_4  and  N_29
    8  A    between atoms: C_6  and  C_43
    9  A    between atoms: C_9  and  O_18
   10  A    between atoms: C_12  and  C_43
   11  A    between atoms: C_19  and  C_50
   12  A    between atoms: C_20  and  N_40
   13  A    between atoms: O_21  and  C_52
   14  A    between atoms: N_23  and  C_51
   15  A    between atoms: C_25  and  C_39
   16  A    between atoms: O_28  and  C_36
   17  A    between atoms: O_28  and  C_43
   18  A    between atoms: C_33  and  C_48
   19  A    between atoms: C_42  and  C_51
   20  A    between atoms: C_48  and  C_50
                            x       y       z     vdW  Elec       q    Type
                         _______ _______ _______ _____ _____    ______ ____

>  <TORSDO>
F 20

$$$$
=
 OpenBabel11062414053D

 53 59  0  0  1  0  0  0  0  0999 V2000
  182.8060  178.6700  144.1610 C   0  0  0  0  0  0  0  0  0  0  0  0
  182.6860  178.9470  141.7860 N   0  0  0  0  0  0  0  0  0  0  0  0
  180.6590  178.8390  143.0430 C   0  0  0  0  0  3  0  0  0  0  0  0
  181.3240  178.9740  141.8230 C   0  0  0  0  0  0  0  0  0  0  0  0
  181.4090  178.6850  144.2150 C   0  0  0  0  0  3  0  0  0  0  0  0
  183.4280  178.8060  142.9170 C   0  0  0  0  0  3  0  0  0  0  0  0
  180.5580  179.1680  140.5600 C   0  0  0  0  0  2  0  0  0  0  0  0
  181.1490  178.3470  139.4120 C   0  0  0  0  0  2  0  0  0  0  0  0
  182.2880  175.3580  138.6000 C   0  0  2  0  0  3  0  0  0  0  0  0
  180.2990  176.3260  138.0830 C   0  0  1  0  0  0  0  0  0  0  0  0
  181.1570  175.2510  137.7600 O   0  0  0  0  0  0  0  0  0  0  0  0
  180.6990  176.8850  139.4610 C   0  0  1  0  0  3  0  0  0  0  0  0
  181.8280  175.9910  139.8940 C   0  0  0  0  0  2  0  0  0  0  0  0
  180.4070  177.2960  137.0790 O   0  0  0  0  0  1  0  0  0  0  0  0
  178.9940  175.8770  138.1310 F   0  0  0  0  0  0  0  0  0  0  0  0
  183.4200  176.2180  137.9860 C   0  0  2  0  0  3  0  0  0  0  0  0
  184.3040  173.9010  137.7520 C   0  0  2  0  0  3  0  0  0  0  0  0
  185.2870  173.9170  135.1370 S   0  0  0  0  0  0  0  0  0  0  0  0
  184.5230  175.3550  137.3490 C   0  0  1  0  0  3  0  0  0  0  0  0
  185.5480  173.1500  137.7110 N   0  0  0  0  0  2  0  0  0  0  0  0
  186.0750  172.9680  136.4100 C   0  0  0  0  0  0  0  0  0  0  0  0
  183.9740  174.3650  136.3320 C   0  0  2  0  0  3  0  0  0  0  0  0
  187.2540  172.3910  136.2170 C   0  0  0  0  0  2  0  0  0  0  0  0
  183.9620  177.0580  139.0100 O   0  0  0  0  0  0  0  0  0  0  0  0
  184.5710  178.7920  137.6020 O   0  0  0  0  0  0  0  0  0  0  0  0
  184.6490  178.2440  138.7330 C   0  0  0  0  0  0  0  0  0  0  0  0
  185.4840  178.8250  139.7300 N   0  0  0  0  0  1  0  0  0  0  0  0
  183.6530  178.5940  145.3900 C   0  0  0  0  0  2  0  0  0  0  0  0
  185.9460  178.0890  145.4100 C   0  0  2  0  0  3  0  0  0  0  0  0
  184.9760  179.1680  145.1580 N   0  0  0  0  0  0  0  0  0  0  0  0
  185.7160  179.1180  146.4290 C   0  0  0  0  0  2  0  0  0  0  0  0
  190.6190  177.9910  144.1940 O   0  0  0  0  0  0  0  0  0  0  0  0
  187.0300  177.7140  142.8750 S   0  0  0  0  0  0  0  0  0  0  0  0
  188.7920  177.7550  142.7440 N   0  0  0  0  0  0  0  0  0  0  0  0
  188.4580  177.9430  145.1140 N   0  0  0  0  0  0  0  0  0  0  0  0
  189.3740  177.8870  144.0270 C   0  0  0  0  0  0  0  0  0  0  0  0
  187.1790  178.3890  144.5660 C   0  0  2  0  0  3  0  0  0  0  0  0
  189.4620  178.2150  141.5420 C   0  0  0  0  0  2  0  0  0  0  0  0
  191.9980  176.6380  139.2690 O   0  0  0  0  0  1  0  0  0  0  0  0
  190.5780  177.2500  141.1730 C   0  0  1  0  0  3  0  0  0  0  0  0
  190.0270  176.1560  140.4690 O   0  0  0  0  0  0  0  0  0  0  0  0
  190.7440  177.0960  139.7090 C   0  0  2  0  0  0  0  0  0  0  0  0
  189.9550  177.8940  138.8470 O   0  0  0  0  0  0  0  0  0  0  0  0
  189.0950  177.1050  138.0430 C   0  0  1  0  0  3  0  0  0  0  0  0
  188.0520  177.9620  137.3240 C   0  0  0  0  0  1  0  0  0  0  0  0
  189.7860  176.2830  137.1380 O   0  0  0  0  0  0  0  0  0  0  0  0
  189.5280  176.8390  135.8820 C   0  0  0  0  0  2  0  0  0  0  0  0
  188.8750  175.7840  135.0010 C   0  0  0  0  0  1  0  0  0  0  0  0
  188.5290  176.9260  146.1750 C   0  0  0  0  0  2  0  0  0  0  0  0
  188.9360  177.5260  147.5160 C   0  0  0  0  0  2  0  0  0  0  0  0
  190.4540  177.5840  147.5860 C   0  0  0  0  0  2  0  0  0  0  0  0
  191.0420  176.2110  147.5700 C   0  0  0  0  0  3  0  0  0  0  0  0
  192.0810  175.8510  146.6390 S   0  0  0  0  0  0  0  0  0  0  0  0
  1  5  1  0  0  0  0
  1 28  1  0  0  0  0
  2  4  2  0  0  0  0
  2  6  1  0  0  0  0
  3  5  2  0  0  0  0
  4  3  1  0  0  0  0
  6  1  2  0  0  0  0
  7  4  1  0  0  0  0
  8  7  1  0  0  0  0
  9 16  1  6  0  0  0
  9 13  1  0  0  0  0
 10 14  1  6  0  0  0
 10 15  1  0  0  0  0
 10 12  1  0  0  0  0
 11 10  1  0  0  0  0
 11  9  1  0  0  0  0
 12  8  1  6  0  0  0
 12 13  1  0  0  0  0
 16 24  1  1  0  0  0
 17 20  1  6  0  0  0
 18 21  1  0  0  0  0
 19 17  1  0  0  0  0
 19 16  1  1  0  0  0
 21 20  1  0  0  0  0
 22 18  1  6  0  0  0
 22 19  1  0  0  0  0
 22 17  1  0  0  0  0
 23 21  2  0  0  0  0
 25 26  2  0  0  0  0
 26 24  1  0  0  0  0
 26 27  1  0  0  0  0
 29 31  1  1  0  0  0
 30 28  1  0  0  0  0
 30 29  1  0  0  0  0
 30 31  1  0  0  0  0
 34 33  1  0  0  0  0
 34 36  1  0  0  0  0
 35 49  1  0  0  0  0
 36 32  2  0  0  0  0
 36 35  1  0  0  0  0
 37 33  1  6  0  0  0
 37 35  1  0  0  0  0
 37 29  1  0  0  0  0
 38 34  1  0  0  0  0
 40 38  1  6  0  0  0
 41 40  1  0  0  0  0
 42 39  1  6  0  0  0
 42 41  1  0  0  0  0
 42 40  1  0  0  0  0
 43 42  1  0  0  0  0
 44 45  1  6  0  0  0
 44 43  1  0  0  0  0
 46 44  1  0  0  0  0
 47 46  1  0  0  0  0
 48 47  1  0  0  0  0
 49 50  1  0  0  0  0
 50 51  1  0  0  0  0
 52 51  1  0  0  0  0
 53 52  2  0  0  0  0
M  END
>  <MODEL>
4

>  <REMARK>
 VINA RESULT:      -6.5      3.544      8.466
  Name = 
  20 active torsions:
  status: ('A' for Active; 'I' for Inactive)
    1  A    between atoms: C_1  and  C_14
    2  A    between atoms: C_1  and  C_15
    3  A    between atoms: C_2  and  O_18
    4  A    between atoms: C_2  and  O_21
    5  A    between atoms: C_3  and  C_20
    6  A    between atoms: C_4  and  C_14
    7  A    between atoms: C_4  and  N_29
    8  A    between atoms: C_6  and  C_43
    9  A    between atoms: C_9  and  O_18
   10  A    between atoms: C_12  and  C_43
   11  A    between atoms: C_19  and  C_50
   12  A    between atoms: C_20  and  N_40
   13  A    between atoms: O_21  and  C_52
   14  A    between atoms: N_23  and  C_51
   15  A    between atoms: C_25  and  C_39
   16  A    between atoms: O_28  and  C_36
   17  A    between atoms: O_28  and  C_43
   18  A    between atoms: C_33  and  C_48
   19  A    between atoms: C_42  and  C_51
   20  A    between atoms: C_48  and  C_50
                            x       y       z     vdW  Elec       q    Type
                         _______ _______ _______ _____ _____    ______ ____

>  <TORSDO>
F 20

$$$$
=
 OpenBabel11062414053D

 53 59  0  0  1  0  0  0  0  0999 V2000
  185.2730  178.2530  145.1680 C   0  0  0  0  0  0  0  0  0  0  0  0
  182.9980  178.9910  145.2690 N   0  0  0  0  0  0  0  0  0  0  0  0
  183.9940  178.5970  143.1340 C   0  0  0  0  0  3  0  0  0  0  0  0
  182.8960  178.9720  143.9100 C   0  0  0  0  0  0  0  0  0  0  0  0
  185.1870  178.2380  143.7720 C   0  0  0  0  0  3  0  0  0  0  0  0
  184.1480  178.6380  145.9030 C   0  0  0  0  0  3  0  0  0  0  0  0
  181.6020  179.3330  143.2650 C   0  0  0  0  0  2  0  0  0  0  0  0
  181.4480  178.6650  141.8980 C   0  0  0  0  0  2  0  0  0  0  0  0
  179.7280  178.2220  139.1160 C   0  0  2  0  0  3  0  0  0  0  0  0
  181.1880  179.8780  139.6530 C   0  0  1  0  0  0  0  0  0  0  0  0
  180.4920  179.2810  138.5780 O   0  0  0  0  0  0  0  0  0  0  0  0
  180.5180  179.4560  140.9750 C   0  0  1  0  0  3  0  0  0  0  0  0
  179.3570  178.6080  140.5300 C   0  0  0  0  0  2  0  0  0  0  0  0
  182.5260  179.4680  139.5960 O   0  0  0  0  0  1  0  0  0  0  0  0
  181.1370  181.2520  139.5310 F   0  0  0  0  0  0  0  0  0  0  0  0
  180.4930  176.8750  139.1400 C   0  0  2  0  0  3  0  0  0  0  0  0
  182.8320  176.2690  138.5340 C   0  0  2  0  0  3  0  0  0  0  0  0
  182.5010  175.1430  135.9990 S   0  0  0  0  0  0  0  0  0  0  0  0
  181.4980  176.7600  137.9800 C   0  0  1  0  0  3  0  0  0  0  0  0
  183.9370  176.6820  137.6860 N   0  0  0  0  0  2  0  0  0  0  0  0
  183.9580  176.0640  136.4130 C   0  0  0  0  0  0  0  0  0  0  0  0
  181.9360  175.3230  137.7310 C   0  0  2  0  0  3  0  0  0  0  0  0
  184.8450  176.4110  135.4900 C   0  0  0  0  0  2  0  0  0  0  0  0
  179.5400  175.8080  139.0920 O   0  0  0  0  0  0  0  0  0  0  0  0
  179.7170  173.6440  139.8940 O   0  0  0  0  0  0  0  0  0  0  0  0
  179.4240  174.8500  140.1040 C   0  0  0  0  0  0  0  0  0  0  0  0
  178.9310  175.2320  141.3840 N   0  0  0  0  0  1  0  0  0  0  0  0
  186.4950  177.7980  145.8990 C   0  0  0  0  0  2  0  0  0  0  0  0
  188.5100  177.1690  144.8690 C   0  0  2  0  0  3  0  0  0  0  0  0
  187.7080  178.3330  145.2880 N   0  0  0  0  0  0  0  0  0  0  0  0
  188.8520  177.8890  146.1000 C   0  0  0  0  0  2  0  0  0  0  0  0
  192.5750  178.2780  142.5110 O   0  0  0  0  0  0  0  0  0  0  0  0
  189.1870  176.5040  142.2540 S   0  0  0  0  0  0  0  0  0  0  0  0
  190.7480  177.0810  141.6600 N   0  0  0  0  0  0  0  0  0  0  0  0
  190.7940  177.7760  143.9570 N   0  0  0  0  0  0  0  0  0  0  0  0
  191.4540  177.7330  142.6980 C   0  0  0  0  0  0  0  0  0  0  0  0
  189.3650  177.6170  143.6910 C   0  0  2  0  0  3  0  0  0  0  0  0
  190.9700  177.3940  140.2600 C   0  0  0  0  0  2  0  0  0  0  0  0
  190.9420  174.6300  137.7230 O   0  0  0  0  0  1  0  0  0  0  0  0
  190.3320  176.3250  139.3870 C   0  0  1  0  0  3  0  0  0  0  0  0
  190.1790  176.8310  138.0760 O   0  0  0  0  0  0  0  0  0  0  0  0
  191.2090  175.8950  138.2730 C   0  0  2  0  0  0  0  0  0  0  0  0
  192.5190  176.4240  138.1950 O   0  0  0  0  0  0  0  0  0  0  0  0
  193.4380  175.4740  137.6820 C   0  0  1  0  0  3  0  0  0  0  0  0
  193.6510  175.6520  136.1780 C   0  0  0  0  0  1  0  0  0  0  0  0
  194.6630  175.4650  138.3690 O   0  0  0  0  0  0  0  0  0  0  0  0
  195.0030  174.1140  138.4740 C   0  0  0  0  0  2  0  0  0  0  0  0
  196.1420  173.8160  137.5110 C   0  0  0  0  0  1  0  0  0  0  0  0
  191.4310  177.1620  145.1320 C   0  0  0  0  0  2  0  0  0  0  0  0
  191.8940  175.7370  144.8510 C   0  0  0  0  0  2  0  0  0  0  0  0
  192.0580  175.0050  146.1740 C   0  0  0  0  0  2  0  0  0  0  0  0
  191.8860  175.9400  147.3270 C   0  0  0  0  0  3  0  0  0  0  0  0
  192.8190  175.9580  148.4240 S   0  0  0  0  0  0  0  0  0  0  0  0
  1 28  1  0  0  0  0
  1  6  1  0  0  0  0
  2  6  2  0  0  0  0
  3  5  1  0  0  0  0
  3  4  2  0  0  0  0
  4  2  1  0  0  0  0
  5  1  2  0  0  0  0
  7  4  1  0  0  0  0
  8  7  1  0  0  0  0
  9 16  1  1  0  0  0
  9 13  1  0  0  0  0
 10 15  1  6  0  0  0
 10 12  1  0  0  0  0
 11  9  1  0  0  0  0
 11 10  1  0  0  0  0
 12  8  1  1  0  0  0
 13 12  1  0  0  0  0
 14 10  1  0  0  0  0
 16 24  1  6  0  0  0
 17 20  1  6  0  0  0
 18 21  1  0  0  0  0
 19 17  1  0  0  0  0
 19 16  1  1  0  0  0
 21 20  1  0  0  0  0
 22 18  1  6  0  0  0
 22 19  1  0  0  0  0
 22 17  1  0  0  0  0
 23 21  2  0  0  0  0
 24 26  1  0  0  0  0
 25 26  2  0  0  0  0
 26 27  1  0  0  0  0
 29 30  1  0  0  0  0
 29 31  1  1  0  0  0
 30 28  1  0  0  0  0
 30 31  1  0  0  0  0
 32 36  2  0  0  0  0
 34 33  1  0  0  0  0
 34 36  1  0  0  0  0
 35 49  1  0  0  0  0
 36 35  1  0  0  0  0
 37 33  1  6  0  0  0
 37 35  1  0  0  0  0
 37 29  1  0  0  0  0
 38 34  1  0  0  0  0
 40 38  1  1  0  0  0
 41 42  1  0  0  0  0
 41 40  1  0  0  0  0
 42 39  1  6  0  0  0
 42 40  1  0  0  0  0
 43 42  1  0  0  0  0
 44 45  1  6  0  0  0
 44 43  1  0  0  0  0
 44 46  1  0  0  0  0
 46 47  1  0  0  0  0
 48 47  1  0  0  0  0
 50 49  1  0  0  0  0
 50 51  1  0  0  0  0
 51 52  1  0  0  0  0
 52 53  2  0  0  0  0
M  END
>  <MODEL>
5

>  <REMARK>
 VINA RESULT:      -6.4      3.524      9.808
  Name = 
  20 active torsions:
  status: ('A' for Active; 'I' for Inactive)
    1  A    between atoms: C_1  and  C_14
    2  A    between atoms: C_1  and  C_15
    3  A    between atoms: C_2  and  O_18
    4  A    between atoms: C_2  and  O_21
    5  A    between atoms: C_3  and  C_20
    6  A    between atoms: C_4  and  C_14
    7  A    between atoms: C_4  and  N_29
    8  A    between atoms: C_6  and  C_43
    9  A    between atoms: C_9  and  O_18
   10  A    between atoms: C_12  and  C_43
   11  A    between atoms: C_19  and  C_50
   12  A    between atoms: C_20  and  N_40
   13  A    between atoms: O_21  and  C_52
   14  A    between atoms: N_23  and  C_51
   15  A    between atoms: C_25  and  C_39
   16  A    between atoms: O_28  and  C_36
   17  A    between atoms: O_28  and  C_43
   18  A    between atoms: C_33  and  C_48
   19  A    between atoms: C_42  and  C_51
   20  A    between atoms: C_48  and  C_50
                            x       y       z     vdW  Elec       q    Type
                         _______ _______ _______ _____ _____    ______ ____

>  <TORSDO>
F 20

$$$$
=
 OpenBabel11062414053D

 53 59  0  0  1  0  0  0  0  0999 V2000
  190.5940  176.9790  142.1560 C   0  0  0  0  0  0  0  0  0  0  0  0
  192.3330  177.2880  140.5390 N   0  0  0  0  0  0  0  0  0  0  0  0
  190.2340  176.3990  139.8260 C   0  0  0  0  0  3  0  0  0  0  0  0
  191.5360  176.8160  139.5400 C   0  0  0  0  0  0  0  0  0  0  0  0
  189.7670  176.4820  141.1430 C   0  0  0  0  0  3  0  0  0  0  0  0
  191.8910  177.3820  141.8210 C   0  0  0  0  0  3  0  0  0  0  0  0
  192.0560  176.7680  138.1450 C   0  0  0  0  0  2  0  0  0  0  0  0
  192.3810  175.3370  137.7140 C   0  0  0  0  0  2  0  0  0  0  0  0
  190.8100  175.3550  134.8110 C   0  0  2  0  0  3  0  0  0  0  0  0
  192.3490  173.8830  135.6020 C   0  0  1  0  0  0  0  0  0  0  0  0
  191.3790  174.0800  134.5940 O   0  0  0  0  0  0  0  0  0  0  0  0
  192.7080  175.2470  136.2210 C   0  0  1  0  0  3  0  0  0  0  0  0
  191.8810  176.2240  135.4320 C   0  0  0  0  0  2  0  0  0  0  0  0
  191.8240  173.0020  136.5550 O   0  0  0  0  0  1  0  0  0  0  0  0
  193.4820  173.3180  135.0480 F   0  0  0  0  0  0  0  0  0  0  0  0
  189.5780  175.3170  135.7470 C   0  0  2  0  0  3  0  0  0  0  0  0
  188.2170  173.4660  136.7100 C   0  0  2  0  0  3  0  0  0  0  0  0
  186.0250  173.3960  134.9800 S   0  0  0  0  0  0  0  0  0  0  0  0
  188.6310  174.1510  135.4120 C   0  0  1  0  0  3  0  0  0  0  0  0
  187.8430  172.0810  136.4770 N   0  0  0  0  0  2  0  0  0  0  0  0
  186.6560  171.9170  135.7240 C   0  0  0  0  0  0  0  0  0  0  0  0
  187.2280  174.3640  135.9640 C   0  0  2  0  0  3  0  0  0  0  0  0
  186.2400  170.7170  135.3440 C   0  0  0  0  0  2  0  0  0  0  0  0
  188.8920  176.5700  135.6510 O   0  0  0  0  0  0  0  0  0  0  0  0
  187.9270  176.9320  137.7230 O   0  0  0  0  0  0  0  0  0  0  0  0
  188.6140  177.3700  136.7640 C   0  0  0  0  0  0  0  0  0  0  0  0
  189.0800  178.7150  136.8000 N   0  0  0  0  0  1  0  0  0  0  0  0
  190.1160  177.1680  143.5590 C   0  0  0  0  0  2  0  0  0  0  0  0
  187.9740  178.0160  144.0120 C   0  0  2  0  0  3  0  0  0  0  0  0
  188.7150  176.7820  143.6970 N   0  0  0  0  0  0  0  0  0  0  0  0
  188.3050  177.0680  145.0810 C   0  0  0  0  0  2  0  0  0  0  0  0
  183.1600  178.3900  144.0620 O   0  0  0  0  0  0  0  0  0  0  0  0
  186.2970  178.6030  141.8710 S   0  0  0  0  0  0  0  0  0  0  0  0
  184.5620  178.6450  142.2010 N   0  0  0  0  0  0  0  0  0  0  0  0
  185.4830  178.2860  144.3880 N   0  0  0  0  0  0  0  0  0  0  0  0
  184.3230  178.4520  143.5820 C   0  0  0  0  0  0  0  0  0  0  0  0
  186.5500  177.8240  143.5030 C   0  0  2  0  0  3  0  0  0  0  0  0
  183.5790  178.2940  141.1920 C   0  0  0  0  0  2  0  0  0  0  0  0
  182.3050  179.9670  138.0830 O   0  0  0  0  0  1  0  0  0  0  0  0
  183.5380  179.3700  140.1180 C   0  0  1  0  0  3  0  0  0  0  0  0
  184.2120  178.9000  138.9680 O   0  0  0  0  0  0  0  0  0  0  0  0
  182.8080  178.9410  138.9030 C   0  0  2  0  0  0  0  0  0  0  0  0
  182.1720  177.6760  138.9010 O   0  0  0  0  0  0  0  0  0  0  0  0
  181.0240  177.6680  138.0700 C   0  0  1  0  0  3  0  0  0  0  0  0
  181.3670  177.2490  136.6390 C   0  0  0  0  0  1  0  0  0  0  0  0
  179.9750  176.8900  138.5880 O   0  0  0  0  0  0  0  0  0  0  0  0
  180.2160  176.8370  139.9630 C   0  0  0  0  0  2  0  0  0  0  0  0
  179.1880  175.9190  140.6080 C   0  0  0  0  0  1  0  0  0  0  0  0
  185.7470  179.2320  145.4840 C   0  0  0  0  0  2  0  0  0  0  0  0
  185.4660  178.6170  146.8500 C   0  0  0  0  0  2  0  0  0  0  0  0
  186.4490  179.1920  147.8580 C   0  0  0  0  0  2  0  0  0  0  0  0
  187.3160  178.1190  148.4310 C   0  0  0  0  0  3  0  0  0  0  0  0
  188.7490  178.2510  148.4680 S   0  0  0  0  0  0  0  0  0  0  0  0
  1 28  1  0  0  0  0
  2  6  2  0  0  0  0
  3  5  1  0  0  0  0
  4  3  2  0  0  0  0
  4  2  1  0  0  0  0
  5  1  2  0  0  0  0
  6  1  1  0  0  0  0
  7  4  1  0  0  0  0
  8  7  1  0  0  0  0
  9 13  1  0  0  0  0
  9 16  1  1  0  0  0
 10 15  1  6  0  0  0
 10 12  1  0  0  0  0
 10 14  1  0  0  0  0
 11  9  1  0  0  0  0
 11 10  1  0  0  0  0
 12  8  1  1  0  0  0
 13 12  1  0  0  0  0
 16 24  1  6  0  0  0
 17 20  1  6  0  0  0
 18 21  1  0  0  0  0
 19 16  1  1  0  0  0
 19 22  1  0  0  0  0
 19 17  1  0  0  0  0
 21 20  1  0  0  0  0
 22 18  1  6  0  0  0
 22 17  1  0  0  0  0
 23 21  2  0  0  0  0
 24 26  1  0  0  0  0
 26 27  1  0  0  0  0
 26 25  2  0  0  0  0
 28 30  1  0  0  0  0
 29 31  1  1  0  0  0
 30 29  1  0  0  0  0
 30 31  1  0  0  0  0
 33 34  1  0  0  0  0
 34 36  1  0  0  0  0
 35 49  1  0  0  0  0
 36 32  2  0  0  0  0
 36 35  1  0  0  0  0
 37 33  1  6  0  0  0
 37 29  1  0  0  0  0
 37 35  1  0  0  0  0
 38 34  1  0  0  0  0
 40 38  1  1  0  0  0
 41 40  1  0  0  0  0
 42 39  1  6  0  0  0
 42 41  1  0  0  0  0
 42 40  1  0  0  0  0
 43 42  1  0  0  0  0
 44 45  1  6  0  0  0
 44 46  1  0  0  0  0
 44 43  1  0  0  0  0
 46 47  1  0  0  0  0
 47 48  1  0  0  0  0
 49 50  1  0  0  0  0
 50 51  1  0  0  0  0
 51 52  1  0  0  0  0
 52 53  2  0  0  0  0
M  END
>  <MODEL>
6

>  <REMARK>
 VINA RESULT:      -5.8      3.599      7.009
  Name = 
  20 active torsions:
  status: ('A' for Active; 'I' for Inactive)
    1  A    between atoms: C_1  and  C_14
    2  A    between atoms: C_1  and  C_15
    3  A    between atoms: C_2  and  O_18
    4  A    between atoms: C_2  and  O_21
    5  A    between atoms: C_3  and  C_20
    6  A    between atoms: C_4  and  C_14
    7  A    between atoms: C_4  and  N_29
    8  A    between atoms: C_6  and  C_43
    9  A    between atoms: C_9  and  O_18
   10  A    between atoms: C_12  and  C_43
   11  A    between atoms: C_19  and  C_50
   12  A    between atoms: C_20  and  N_40
   13  A    between atoms: O_21  and  C_52
   14  A    between atoms: N_23  and  C_51
   15  A    between atoms: C_25  and  C_39
   16  A    between atoms: O_28  and  C_36
   17  A    between atoms: O_28  and  C_43
   18  A    between atoms: C_33  and  C_48
   19  A    between atoms: C_42  and  C_51
   20  A    between atoms: C_48  and  C_50
                            x       y       z     vdW  Elec       q    Type
                         _______ _______ _______ _____ _____    ______ ____

>  <TORSDO>
F 20

$$$$
=
 OpenBabel11062414053D

 53 59  0  0  1  0  0  0  0  0999 V2000
  190.1350  177.3180  140.6210 C   0  0  0  0  0  0  0  0  0  0  0  0
  189.5450  177.0090  138.3210 N   0  0  0  0  0  0  0  0  0  0  0  0
  191.8260  176.7460  138.9770 C   0  0  0  0  0  3  0  0  0  0  0  0
  190.8380  176.7300  137.9920 C   0  0  0  0  0  0  0  0  0  0  0  0
  191.4670  177.0440  140.2960 C   0  0  0  0  0  3  0  0  0  0  0  0
  189.1800  177.2930  139.6000 C   0  0  0  0  0  3  0  0  0  0  0  0
  191.1790  176.3890  136.5820 C   0  0  0  0  0  2  0  0  0  0  0  0
  192.3900  175.4580  136.5050 C   0  0  0  0  0  2  0  0  0  0  0  0
  194.9980  174.1560  134.9570 C   0  0  2  0  0  3  0  0  0  0  0  0
  194.5490  176.3320  135.4320 C   0  0  1  0  0  0  0  0  0  0  0  0
  195.5700  175.4470  135.0210 O   0  0  0  0  0  0  0  0  0  0  0  0
  193.1830  175.6540  135.2110 C   0  0  1  0  0  3  0  0  0  0  0  0
  193.5400  174.3290  134.5950 C   0  0  0  0  0  2  0  0  0  0  0  0
  194.7570  176.6530  136.7790 O   0  0  0  0  0  1  0  0  0  0  0  0
  194.6120  177.4910  134.6830 F   0  0  0  0  0  0  0  0  0  0  0  0
  195.1040  173.3810  136.2930 C   0  0  2  0  0  3  0  0  0  0  0  0
  195.5450  173.6570  138.7290 C   0  0  2  0  0  3  0  0  0  0  0  0
  198.2900  174.1780  138.7650 S   0  0  0  0  0  0  0  0  0  0  0  0
  195.9430  174.1370  137.3370 C   0  0  1  0  0  3  0  0  0  0  0  0
  195.8200  174.6700  139.7340 N   0  0  0  0  0  0  0  0  0  0  0  0
  197.1970  174.9220  139.9460 C   0  0  0  0  0  0  0  0  0  0  0  0
  196.8750  173.2160  138.1120 C   0  0  2  0  0  3  0  0  0  0  0  0
  197.6050  175.8880  140.7570 C   0  0  0  0  0  1  0  0  0  0  0  0
  195.6660  172.0910  136.0290 O   0  0  0  0  0  0  0  0  0  0  0  0
  195.3200  170.0090  135.0770 O   0  0  0  0  0  0  0  0  0  0  0  0
  194.8830  170.9600  135.7770 C   0  0  0  0  0  0  0  0  0  0  0  0
  193.5540  170.8940  136.2860 N   0  0  0  0  0  1  0  0  0  0  0  0
  189.6860  177.5580  142.0260 C   0  0  0  0  0  2  0  0  0  0  0  0
  187.6750  178.0120  143.1510 C   0  0  2  0  0  3  0  0  0  0  0  0
  188.3320  177.0560  142.2430 N   0  0  0  0  0  0  0  0  0  0  0  0
  188.1940  176.7440  143.6740 C   0  0  0  0  0  2  0  0  0  0  0  0
  182.9610  178.5020  144.0740 O   0  0  0  0  0  0  0  0  0  0  0  0
  185.7060  178.9790  141.4410 S   0  0  0  0  0  0  0  0  0  0  0  0
  184.0520  179.0130  142.0630 N   0  0  0  0  0  0  0  0  0  0  0  0
  185.2970  178.2850  143.9810 N   0  0  0  0  0  0  0  0  0  0  0  0
  184.0320  178.6090  143.4180 C   0  0  0  0  0  0  0  0  0  0  0  0
  186.1800  177.9420  142.8670 C   0  0  2  0  0  3  0  0  0  0  0  0
  182.9000  178.8560  141.1930 C   0  0  0  0  0  2  0  0  0  0  0  0
  183.6070  177.9310  137.6260 O   0  0  0  0  0  1  0  0  0  0  0  0
  183.2430  177.9120  140.0510 C   0  0  1  0  0  3  0  0  0  0  0  0
  182.0570  177.5690  139.3640 O   0  0  0  0  0  0  0  0  0  0  0  0
  182.9160  178.4780  138.7220 C   0  0  2  0  0  0  0  0  0  0  0  0
  182.4340  179.8060  138.6460 O   0  0  0  0  0  0  0  0  0  0  0  0
  181.3930  179.9320  137.6930 C   0  0  1  0  0  3  0  0  0  0  0  0
  180.9540  178.5700  137.1530 C   0  0  0  0  0  1  0  0  0  0  0  0
  180.2940  180.6660  138.1710 O   0  0  0  0  0  0  0  0  0  0  0  0
  180.7500  181.9840  138.2430 C   0  0  0  0  0  2  0  0  0  0  0  0
  180.8050  182.5650  136.8380 C   0  0  0  0  0  1  0  0  0  0  0  0
  185.7860  179.0360  145.1480 C   0  0  0  0  0  2  0  0  0  0  0  0
  185.4520  178.3350  146.4600 C   0  0  0  0  0  2  0  0  0  0  0  0
  186.5800  178.5830  147.4490 C   0  0  0  0  0  2  0  0  0  0  0  0
  187.8130  177.8390  147.0520 C   0  0  0  0  0  3  0  0  0  0  0  0
  188.6420  177.1840  148.0300 S   0  0  0  0  0  0  0  0  0  0  0  0
  1 28  1  0  0  0  0
  2  6  1  0  0  0  0
  3  5  2  0  0  0  0
  4  2  2  0  0  0  0
  4  3  1  0  0  0  0
  5  1  1  0  0  0  0
  6  1  2  0  0  0  0
  7  4  1  0  0  0  0
  8  7  1  0  0  0  0
  9 11  1  0  0  0  0
  9 16  1  1  0  0  0
 10 15  1  6  0  0  0
 10 14  1  0  0  0  0
 11 10  1  0  0  0  0
 12 10  1  0  0  0  0
 12  8  1  1  0  0  0
 13  9  1  0  0  0  0
 13 12  1  0  0  0  0
 16 24  1  6  0  0  0
 17 20  1  1  0  0  0
 18 21  1  0  0  0  0
 19 16  1  6  0  0  0
 19 22  1  0  0  0  0
 19 17  1  0  0  0  0
 20 21  2  0  0  0  0
 21 23  1  0  0  0  0
 22 17  1  0  0  0  0
 22 18  1  1  0  0  0
 25 26  2  0  0  0  0
 26 24  1  0  0  0  0
 26 27  1  0  0  0  0
 28 30  1  0  0  0  0
 29 31  1  1  0  0  0
 30 29  1  0  0  0  0
 30 31  1  0  0  0  0
 33 34  1  0  0  0  0
 34 36  1  0  0  0  0
 35 49  1  0  0  0  0
 36 35  1  0  0  0  0
 36 32  2  0  0  0  0
 37 33  1  6  0  0  0
 37 29  1  0  0  0  0
 37 35  1  0  0  0  0
 38 34  1  0  0  0  0
 40 38  1  1  0  0  0
 41 40  1  0  0  0  0
 42 39  1  6  0  0  0
 42 41  1  0  0  0  0
 42 40  1  0  0  0  0
 43 42  1  0  0  0  0
 44 45  1  1  0  0  0
 44 46  1  0  0  0  0
 44 43  1  0  0  0  0
 46 47  1  0  0  0  0
 48 47  1  0  0  0  0
 49 50  1  0  0  0  0
 50 51  1  0  0  0  0
 52 51  1  0  0  0  0
 52 53  2  0  0  0  0
M  END
>  <MODEL>
7

>  <REMARK>
 VINA RESULT:      -5.5      4.240      8.076
  Name = 
  20 active torsions:
  status: ('A' for Active; 'I' for Inactive)
    1  A    between atoms: C_1  and  C_14
    2  A    between atoms: C_1  and  C_15
    3  A    between atoms: C_2  and  O_18
    4  A    between atoms: C_2  and  O_21
    5  A    between atoms: C_3  and  C_20
    6  A    between atoms: C_4  and  C_14
    7  A    between atoms: C_4  and  N_29
    8  A    between atoms: C_6  and  C_43
    9  A    between atoms: C_9  and  O_18
   10  A    between atoms: C_12  and  C_43
   11  A    between atoms: C_19  and  C_50
   12  A    between atoms: C_20  and  N_40
   13  A    between atoms: O_21  and  C_52
   14  A    between atoms: N_23  and  C_51
   15  A    between atoms: C_25  and  C_39
   16  A    between atoms: O_28  and  C_36
   17  A    between atoms: O_28  and  C_43
   18  A    between atoms: C_33  and  C_48
   19  A    between atoms: C_42  and  C_51
   20  A    between atoms: C_48  and  C_50
                            x       y       z     vdW  Elec       q    Type
                         _______ _______ _______ _____ _____    ______ ____

>  <TORSDO>
F 20

$$$$
=
 OpenBabel11062414053D

 53 59  0  0  1  0  0  0  0  0999 V2000
  190.6210  176.6060  137.0690 C   0  0  0  0  0  0  0  0  0  0  0  0
  190.7400  177.4810  139.2940 N   0  0  0  0  0  0  0  0  0  0  0  0
  192.5550  176.1670  138.4690 C   0  0  0  0  0  3  0  0  0  0  0  0
  191.9660  176.9180  139.4880 C   0  0  0  0  0  0  0  0  0  0  0  0
  191.8740  176.0130  137.2560 C   0  0  0  0  0  3  0  0  0  0  0  0
  190.0700  177.3460  138.1190 C   0  0  0  0  0  3  0  0  0  0  0  0
  192.6740  177.1260  140.7820 C   0  0  0  0  0  2  0  0  0  0  0  0
  191.7380  177.6910  141.8510 C   0  0  0  0  0  2  0  0  0  0  0  0
  189.1020  176.6880  143.5650 C   0  0  2  0  0  3  0  0  0  0  0  0
  191.1750  177.2420  144.3120 C   0  0  1  0  0  0  0  0  0  0  0  0
  189.8450  177.0030  144.7250 O   0  0  0  0  0  0  0  0  0  0  0  0
  191.3750  176.6440  142.9070 C   0  0  1  0  0  3  0  0  0  0  0  0
  190.0460  176.0110  142.5970 C   0  0  0  0  0  2  0  0  0  0  0  0
  191.4010  178.6240  144.3250 O   0  0  0  0  0  1  0  0  0  0  0  0
  192.0480  176.6390  145.1960 F   0  0  0  0  0  0  0  0  0  0  0  0
  188.4830  177.9340  142.8850 C   0  0  2  0  0  3  0  0  0  0  0  0
  186.0590  177.5220  143.2850 C   0  0  2  0  0  3  0  0  0  0  0  0
  185.7660  178.3190  145.9470 S   0  0  0  0  0  0  0  0  0  0  0  0
  187.2310  178.4360  143.6250 C   0  0  1  0  0  3  0  0  0  0  0  0
  184.7900  178.2160  143.4330 N   0  0  0  0  0  0  0  0  0  0  0  0
  184.4610  178.5490  144.7690 C   0  0  0  0  0  0  0  0  0  0  0  0
  186.7270  177.4400  144.6590 C   0  0  2  0  0  3  0  0  0  0  0  0
  183.3870  179.2710  145.0570 C   0  0  0  0  0  1  0  0  0  0  0  0
  188.1710  177.6050  141.5270 O   0  0  0  0  0  0  0  0  0  0  0  0
  188.6090  179.3580  140.0790 O   0  0  0  0  0  0  0  0  0  0  0  0
  187.7750  178.5630  140.5870 C   0  0  0  0  0  0  0  0  0  0  0  0
  186.4020  178.6700  140.2240 N   0  0  0  0  0  1  0  0  0  0  0  0
  189.8930  176.5430  135.7660 C   0  0  0  0  0  2  0  0  0  0  0  0
  187.7060  176.3210  134.9390 C   0  0  2  0  0  3  0  0  0  0  0  0
  188.5390  177.0770  135.8900 N   0  0  0  0  0  0  0  0  0  0  0  0
  188.1700  177.6680  134.5940 C   0  0  0  0  0  2  0  0  0  0  0  0
  183.2640  174.6180  135.7690 O   0  0  0  0  0  0  0  0  0  0  0  0
  186.2510  176.4640  137.3060 S   0  0  0  0  0  0  0  0  0  0  0  0
  184.6280  175.7660  137.2910 N   0  0  0  0  0  0  0  0  0  0  0  0
  185.4410  175.1980  135.1060 N   0  0  0  0  0  0  0  0  0  0  0  0
  184.3750  175.1460  136.0450 C   0  0  0  0  0  0  0  0  0  0  0  0
  186.2840  176.3310  135.4850 C   0  0  2  0  0  3  0  0  0  0  0  0
  183.5600  176.2870  138.1250 C   0  0  0  0  0  2  0  0  0  0  0  0
  182.6830  179.7150  139.3750 O   0  0  0  0  0  1  0  0  0  0  0  0
  183.6260  177.8060  138.1570 C   0  0  1  0  0  3  0  0  0  0  0  0
  182.5040  178.3300  137.4760 O   0  0  0  0  0  0  0  0  0  0  0  0
  182.4840  178.4150  138.8790 C   0  0  2  0  0  0  0  0  0  0  0  0
  181.5490  177.5640  139.5150 O   0  0  0  0  0  0  0  0  0  0  0  0
  180.7050  178.2810  140.4010 C   0  0  1  0  0  3  0  0  0  0  0  0
  179.2640  177.7720  140.3430 C   0  0  0  0  0  1  0  0  0  0  0  0
  181.1830  178.3020  141.7210 O   0  0  0  0  0  0  0  0  0  0  0  0
  180.6340  179.4590  142.2800 C   0  0  0  0  0  2  0  0  0  0  0  0
  180.0420  179.1170  143.6390 C   0  0  0  0  0  1  0  0  0  0  0  0
  186.0200  173.9460  134.5940 C   0  0  0  0  0  2  0  0  0  0  0  0
  187.1260  173.4150  135.4990 C   0  0  0  0  0  2  0  0  0  0  0  0
  188.0910  172.5900  134.6620 C   0  0  0  0  0  2  0  0  0  0  0  0
  189.4710  173.1580  134.7230 C   0  0  0  0  0  3  0  0  0  0  0  0
  190.3810  172.8050  135.7830 S   0  0  0  0  0  0  0  0  0  0  0  0
  1  5  2  0  0  0  0
  1  6  1  0  0  0  0
  2  4  1  0  0  0  0
  3  4  2  0  0  0  0
  4  7  1  0  0  0  0
  5  3  1  0  0  0  0
  6  2  2  0  0  0  0
  7  8  1  0  0  0  0
  9 16  1  6  0  0  0
  9 11  1  0  0  0  0
 10 14  1  6  0  0  0
 10 11  1  0  0  0  0
 10 15  1  0  0  0  0
 12  8  1  6  0  0  0
 12 10  1  0  0  0  0
 13 12  1  0  0  0  0
 13  9  1  0  0  0  0
 16 24  1  6  0  0  0
 17 20  1  1  0  0  0
 17 19  1  0  0  0  0
 17 22  1  0  0  0  0
 19 16  1  6  0  0  0
 19 22  1  0  0  0  0
 20 21  2  0  0  0  0
 21 23  1  0  0  0  0
 21 18  1  0  0  0  0
 22 18  1  1  0  0  0
 25 26  2  0  0  0  0
 26 24  1  0  0  0  0
 27 26  1  0  0  0  0
 28 30  1  0  0  0  0
 28  1  1  0  0  0  0
 29 31  1  6  0  0  0
 29 37  1  0  0  0  0
 29 30  1  0  0  0  0
 31 30  1  0  0  0  0
 32 36  2  0  0  0  0
 34 33  1  0  0  0  0
 34 38  1  0  0  0  0
 35 37  1  0  0  0  0
 35 36  1  0  0  0  0
 36 34  1  0  0  0  0
 37 33  1  1  0  0  0
 40 38  1  1  0  0  0
 40 42  1  0  0  0  0
 41 40  1  0  0  0  0
 41 42  1  0  0  0  0
 42 39  1  1  0  0  0
 42 43  1  0  0  0  0
 43 44  1  0  0  0  0
 44 45  1  1  0  0  0
 44 46  1  0  0  0  0
 46 47  1  0  0  0  0
 47 48  1  0  0  0  0
 49 35  1  0  0  0  0
 49 50  1  0  0  0  0
 51 52  1  0  0  0  0
 51 50  1  0  0  0  0
 52 53  2  0  0  0  0
M  END
>  <MODEL>
8

>  <REMARK>
 VINA RESULT:      -5.4      2.731      7.806
  Name = 
  20 active torsions:
  status: ('A' for Active; 'I' for Inactive)
    1  A    between atoms: C_1  and  C_14
    2  A    between atoms: C_1  and  C_15
    3  A    between atoms: C_2  and  O_18
    4  A    between atoms: C_2  and  O_21
    5  A    between atoms: C_3  and  C_20
    6  A    between atoms: C_4  and  C_14
    7  A    between atoms: C_4  and  N_29
    8  A    between atoms: C_6  and  C_43
    9  A    between atoms: C_9  and  O_18
   10  A    between atoms: C_12  and  C_43
   11  A    between atoms: C_19  and  C_50
   12  A    between atoms: C_20  and  N_40
   13  A    between atoms: O_21  and  C_52
   14  A    between atoms: N_23  and  C_51
   15  A    between atoms: C_25  and  C_39
   16  A    between atoms: O_28  and  C_36
   17  A    between atoms: O_28  and  C_43
   18  A    between atoms: C_33  and  C_48
   19  A    between atoms: C_42  and  C_51
   20  A    between atoms: C_48  and  C_50
                            x       y       z     vdW  Elec       q    Type
                         _______ _______ _______ _____ _____    ______ ____

>  <TORSDO>
F 20

$$$$
=
 OpenBabel11062414053D

 53 59  0  0  1  0  0  0  0  0999 V2000
  184.9480  179.0040  145.5130 C   0  0  0  0  0  0  0  0  0  0  0  0
  186.4410  177.2100  146.0510 N   0  0  0  0  0  0  0  0  0  0  0  0
  186.5690  179.2390  147.3050 C   0  0  0  0  0  3  0  0  0  0  0  0
  187.0120  177.9400  147.0500 C   0  0  0  0  0  0  0  0  0  0  0  0
  185.5320  179.7690  146.5270 C   0  0  0  0  0  3  0  0  0  0  0  0
  185.4280  177.7090  145.2930 C   0  0  0  0  0  3  0  0  0  0  0  0
  188.0950  177.3340  147.8760 C   0  0  0  0  0  2  0  0  0  0  0  0
  189.1150  176.5930  147.0100 C   0  0  0  0  0  2  0  0  0  0  0  0
  191.3280  177.6220  144.7880 C   0  0  2  0  0  3  0  0  0  0  0  0
  191.6460  176.3760  146.6610 C   0  0  1  0  0  0  0  0  0  0  0  0
  192.2550  176.7910  145.4550 O   0  0  0  0  0  0  0  0  0  0  0  0
  190.4650  177.3150  146.9700 C   0  0  1  0  0  3  0  0  0  0  0  0
  190.5030  178.3160  145.8480 C   0  0  0  0  0  2  0  0  0  0  0  0
  191.2290  175.0480  146.5130 O   0  0  0  0  0  1  0  0  0  0  0  0
  192.5660  176.4430  147.6900 F   0  0  0  0  0  0  0  0  0  0  0  0
  190.3860  176.8400  143.8400 C   0  0  2  0  0  3  0  0  0  0  0  0
  190.2970  177.5140  141.4440 C   0  0  2  0  0  3  0  0  0  0  0  0
  192.9890  177.3900  140.7060 S   0  0  0  0  0  0  0  0  0  0  0  0
  191.0120  176.6210  142.4520 C   0  0  1  0  0  3  0  0  0  0  0  0
  190.3930  176.9730  140.0990 N   0  0  0  0  0  2  0  0  0  0  0  0
  191.7010  176.9880  139.5570 C   0  0  0  0  0  0  0  0  0  0  0  0
  191.7070  177.8670  141.9240 C   0  0  2  0  0  3  0  0  0  0  0  0
  191.9680  176.4370  138.3800 C   0  0  0  0  0  2  0  0  0  0  0  0
  189.1510  177.5550  143.7320 O   0  0  0  0  0  0  0  0  0  0  0  0
  187.1950  177.7480  142.5090 O   0  0  0  0  0  0  0  0  0  0  0  0
  188.0130  177.0150  143.1220 C   0  0  0  0  0  0  0  0  0  0  0  0
  187.7530  175.6190  143.2270 N   0  0  0  0  0  1  0  0  0  0  0  0
  183.7840  179.4900  144.7130 C   0  0  0  0  0  2  0  0  0  0  0  0
  182.8650  179.3020  142.5600 C   0  0  2  0  0  3  0  0  0  0  0  0
  183.4040  178.5220  143.6880 N   0  0  0  0  0  0  0  0  0  0  0  0
  181.9500  178.6290  143.4880 C   0  0  0  0  0  2  0  0  0  0  0  0
  181.9430  177.6290  138.1250 O   0  0  0  0  0  0  0  0  0  0  0  0
  184.6770  178.9160  140.4840 S   0  0  0  0  0  0  0  0  0  0  0  0
  184.0350  178.2590  138.9740 N   0  0  0  0  0  0  0  0  0  0  0  0
  182.0460  178.5410  140.2860 N   0  0  0  0  0  0  0  0  0  0  0  0
  182.6300  178.1240  139.0580 C   0  0  0  0  0  0  0  0  0  0  0  0
  183.1000  178.4820  141.2980 C   0  0  2  0  0  3  0  0  0  0  0  0
  184.8390  177.4300  138.0940 C   0  0  0  0  0  2  0  0  0  0  0  0
  187.9890  177.9920  136.1330 O   0  0  0  0  0  1  0  0  0  0  0  0
  185.9690  178.2570  137.4980 C   0  0  1  0  0  3  0  0  0  0  0  0
  187.1130  178.1300  138.3170 O   0  0  0  0  0  0  0  0  0  0  0  0
  187.1320  177.4320  137.0970 C   0  0  2  0  0  0  0  0  0  0  0  0
  187.0420  176.0250  137.2120 O   0  0  0  0  0  0  0  0  0  0  0  0
  187.7640  175.3670  136.1840 C   0  0  1  0  0  3  0  0  0  0  0  0
  189.1700  174.9780  136.6430 C   0  0  0  0  0  1  0  0  0  0  0  0
  187.0810  174.2620  135.6510 O   0  0  0  0  0  0  0  0  0  0  0  0
  185.7280  174.5870  135.7720 C   0  0  0  0  0  2  0  0  0  0  0  0
  185.0490  173.5520  136.6560 C   0  0  0  0  0  1  0  0  0  0  0  0
  181.0400  179.6150  140.2840 C   0  0  0  0  0  2  0  0  0  0  0  0
  181.4530  180.7830  139.3960 C   0  0  0  0  0  2  0  0  0  0  0  0
  180.2150  181.5940  139.0450 C   0  0  0  0  0  2  0  0  0  0  0  0
  180.1450  181.8520  137.5760 C   0  0  0  0  0  3  0  0  0  0  0  0
  180.4400  180.8180  136.6170 S   0  0  0  0  0  0  0  0  0  0  0  0
  1  5  1  0  0  0  0
  2  4  2  0  0  0  0
  4  3  1  0  0  0  0
  4  7  1  0  0  0  0
  5  3  2  0  0  0  0
  6  1  2  0  0  0  0
  6  2  1  0  0  0  0
  8  7  1  0  0  0  0
  9 16  1  6  0  0  0
  9 11  1  0  0  0  0
  9 13  1  0  0  0  0
 10 14  1  6  0  0  0
 10 12  1  0  0  0  0
 10 15  1  0  0  0  0
 11 10  1  0  0  0  0
 12  8  1  6  0  0  0
 13 12  1  0  0  0  0
 16 24  1  6  0  0  0
 17 20  1  6  0  0  0
 17 22  1  0  0  0  0
 17 19  1  0  0  0  0
 19 16  1  1  0  0  0
 21 20  1  0  0  0  0
 21 18  1  0  0  0  0
 22 18  1  6  0  0  0
 22 19  1  0  0  0  0
 23 21  2  0  0  0  0
 25 26  2  0  0  0  0
 26 27  1  0  0  0  0
 26 24  1  0  0  0  0
 28  1  1  0  0  0  0
 29 31  1  1  0  0  0
 29 30  1  0  0  0  0
 30 28  1  0  0  0  0
 31 30  1  0  0  0  0
 32 36  2  0  0  0  0
 34 36  1  0  0  0  0
 34 33  1  0  0  0  0
 35 37  1  0  0  0  0
 36 35  1  0  0  0  0
 37 33  1  6  0  0  0
 37 29  1  0  0  0  0
 38 34  1  0  0  0  0
 40 38  1  1  0  0  0
 40 41  1  0  0  0  0
 42 39  1  6  0  0  0
 42 43  1  0  0  0  0
 42 40  1  0  0  0  0
 42 41  1  0  0  0  0
 44 45  1  1  0  0  0
 44 43  1  0  0  0  0
 46 47  1  0  0  0  0
 46 44  1  0  0  0  0
 47 48  1  0  0  0  0
 49 35  1  0  0  0  0
 50 49  1  0  0  0  0
 51 50  1  0  0  0  0
 52 51  1  0  0  0  0
 53 52  2  0  0  0  0
M  END
>  <MODEL>
9

>  <REMARK>
 VINA RESULT:      -5.4      2.243      3.078
  Name = 
  20 active torsions:
  status: ('A' for Active; 'I' for Inactive)
    1  A    between atoms: C_1  and  C_14
    2  A    between atoms: C_1  and  C_15
    3  A    between atoms: C_2  and  O_18
    4  A    between atoms: C_2  and  O_21
    5  A    between atoms: C_3  and  C_20
    6  A    between atoms: C_4  and  C_14
    7  A    between atoms: C_4  and  N_29
    8  A    between atoms: C_6  and  C_43
    9  A    between atoms: C_9  and  O_18
   10  A    between atoms: C_12  and  C_43
   11  A    between atoms: C_19  and  C_50
   12  A    between atoms: C_20  and  N_40
   13  A    between atoms: O_21  and  C_52
   14  A    between atoms: N_23  and  C_51
   15  A    between atoms: C_25  and  C_39
   16  A    between atoms: O_28  and  C_36
   17  A    between atoms: O_28  and  C_43
   18  A    between atoms: C_33  and  C_48
   19  A    between atoms: C_42  and  C_51
   20  A    between atoms: C_48  and  C_50
                            x       y       z     vdW  Elec       q    Type
                         _______ _______ _______ _____ _____    ______ ____

>  <TORSDO>
F 20

$$$$
