=
 OpenBabel11062414453D

 27 28  0  0  1  0  0  0  0  0999 V2000
  184.8290  178.5690  147.0380 O   0  0  0  0  0  0  0  0  0  0  0  0
  186.7610  178.3540  145.7300 N   0  0  0  0  0  2  0  0  0  0  0  0
  187.2230  177.7310  147.9390 O   0  0  0  0  0  0  0  0  0  0  0  0
  185.3750  178.6640  145.9050 C   0  0  0  0  0  0  0  0  0  0  0  0
  187.6460  177.8950  146.7610 C   0  0  0  0  0  0  0  0  0  0  0  0
  189.0580  177.6150  146.4490 C   0  0  0  0  0  0  0  0  0  0  0  0
  189.4900  177.6440  145.1740 C   0  0  0  0  0  3  0  0  0  0  0  0
  191.2000  176.5480  143.6950 C   0  0  0  0  0  0  0  0  0  0  0  0
  191.8700  175.4980  144.0440 N   0  0  0  0  0  0  0  0  0  0  0  0
  192.0710  175.5190  145.4280 N   0  0  0  0  0  0  0  0  0  0  0  0
  191.5740  176.6090  145.9050 C   0  0  0  0  0  0  0  0  0  0  0  0
  190.9460  177.4520  144.8490 C   0  0  2  0  0  3  0  0  0  0  0  0
  191.1730  176.7310  147.2700 N   0  0  0  0  0  0  0  0  0  0  0  0
  189.9980  177.2240  147.5390 C   0  0  0  0  0  3  0  0  0  0  0  0
  190.8080  176.8170  142.3830 O   0  0  0  0  0  0  0  0  0  0  0  0
  191.6840  177.4330  141.4520 C   0  0  0  0  0  1  0  0  0  0  0  0
  184.5830  179.1440  144.7250 C   0  0  2  0  0  3  0  0  0  0  0  0
  183.2240  179.3920  145.0330 O   0  0  0  0  0  0  0  0  0  0  0  0
  182.4120  178.7810  144.0630 C   0  0  0  0  0  1  0  0  0  0  0  0
  184.7440  178.2720  143.5620 N   0  0  0  0  0  2  0  0  0  0  0  0
  185.4720  179.0210  142.5470 C   0  0  0  0  0  2  0  0  0  0  0  0
  186.7580  178.3000  142.1730 C   0  0  0  0  0  2  0  0  0  0  0  0
  186.9760  178.3520  140.6730 C   0  0  0  0  0  2  0  0  0  0  0  0
  188.4590  178.4530  140.3830 C   0  0  0  0  0  2  0  0  0  0  0  0
  188.9770  179.4310  138.1510 O   0  0  0  0  0  0  0  0  0  0  0  0
  188.6760  177.1720  138.3890 O   0  0  0  0  0  1  0  0  0  0  0  0
  188.6980  178.3110  138.9220 C   0  0  0  0  0  0  0  0  0  0  0  0
  2  4  1  0  0  0  0
  2  5  1  0  0  0  0
  4  1  2  0  0  0  0
  5  3  2  0  0  0  0
  6  5  1  0  0  0  0
  6 14  1  0  0  0  0
  7  6  2  0  0  0  0
  8  9  2  0  0  0  0
  8 12  1  0  0  0  0
  9 10  1  0  0  0  0
 10 11  2  0  0  0  0
 11 13  1  0  0  0  0
 12  7  1  1  0  0  0
 12 11  1  0  0  0  0
 13 14  2  0  0  0  0
 15  8  1  0  0  0  0
 16 15  1  0  0  0  0
 17 20  1  6  0  0  0
 17 18  1  0  0  0  0
 17  4  1  0  0  0  0
 19 18  1  0  0  0  0
 21 20  1  0  0  0  0
 22 21  1  0  0  0  0
 23 22  1  0  0  0  0
 24 23  1  0  0  0  0
 25 27  2  0  0  0  0
 26 27  1  0  0  0  0
 27 24  1  0  0  0  0
M  END
>  <MODEL>
1

>  <REMARK>
 VINA RESULT:      -7.6      0.000      0.000
  Name = 
  10 active torsions:
  status: ('A' for Active; 'I' for Inactive)
    1  A    between atoms: C_2  and  C_15
    2  A    between atoms: C_4  and  C_6
    3  A    between atoms: C_4  and  C_16
    4  A    between atoms: C_6  and  C_14
    5  A    between atoms: O_10  and  C_11
    6  A    between atoms: C_13  and  C_23
    7  A    between atoms: C_14  and  C_27
    8  A    between atoms: O_17  and  C_23
    9  A    between atoms: N_18  and  C_23
   10  A    between atoms: N_18  and  C_27
                            x       y       z     vdW  Elec       q    Type
                         _______ _______ _______ _____ _____    ______ ____

>  <TORSDO>
F 10

$$$$
=
 OpenBabel11062414453D

 27 28  0  0  1  0  0  0  0  0999 V2000
  185.5230  178.7950  147.2760 O   0  0  0  0  0  0  0  0  0  0  0  0
  185.6520  178.2000  145.0120 N   0  0  0  0  0  2  0  0  0  0  0  0
  183.6240  179.2920  145.4330 O   0  0  0  0  0  0  0  0  0  0  0  0
  186.1840  178.2700  146.3390 C   0  0  0  0  0  0  0  0  0  0  0  0
  184.3780  178.7170  144.6010 C   0  0  0  0  0  0  0  0  0  0  0  0
  183.9440  178.5760  143.2000 C   0  0  0  0  0  0  0  0  0  0  0  0
  184.8500  178.3660  142.2270 C   0  0  0  0  0  3  0  0  0  0  0  0
  185.2110  178.8670  139.7920 C   0  0  0  0  0  0  0  0  0  0  0  0
  184.4850  179.7040  139.1250 N   0  0  0  0  0  0  0  0  0  0  0  0
  183.1840  179.6950  139.6390 N   0  0  0  0  0  0  0  0  0  0  0  0
  183.1120  178.8110  140.5760 C   0  0  0  0  0  0  0  0  0  0  0  0
  184.4150  178.1270  140.8070 C   0  0  2  0  0  3  0  0  0  0  0  0
  182.1270  178.8730  141.6080 N   0  0  0  0  0  0  0  0  0  0  0  0
  182.5050  178.7410  142.8480 C   0  0  0  0  0  3  0  0  0  0  0  0
  186.5690  178.6540  139.5490 O   0  0  0  0  0  0  0  0  0  0  0  0
  187.0260  178.0020  138.3740 C   0  0  0  0  0  1  0  0  0  0  0  0
  187.5330  177.6720  146.6130 C   0  0  2  0  0  3  0  0  0  0  0  0
  188.2980  178.4270  147.5330 O   0  0  0  0  0  0  0  0  0  0  0  0
  188.1850  177.8500  148.8090 C   0  0  0  0  0  1  0  0  0  0  0  0
  188.2650  177.3780  145.3820 N   0  0  0  0  0  2  0  0  0  0  0  0
  189.6790  177.6120  145.6430 C   0  0  0  0  0  2  0  0  0  0  0  0
  190.2920  178.4540  144.5350 C   0  0  0  0  0  2  0  0  0  0  0  0
  191.5020  177.7540  143.9480 C   0  0  0  0  0  2  0  0  0  0  0  0
  191.3030  177.5690  142.4580 C   0  0  0  0  0  2  0  0  0  0  0  0
  190.3120  175.3050  142.7860 O   0  0  0  0  0  1  0  0  0  0  0  0
  189.2320  176.8740  141.5110 O   0  0  0  0  0  0  0  0  0  0  0  0
  190.2300  176.5680  142.2130 C   0  0  0  0  0  0  0  0  0  0  0  0
  2  4  1  0  0  0  0
  4 17  1  0  0  0  0
  4  1  2  0  0  0  0
  5  2  1  0  0  0  0
  5  3  2  0  0  0  0
  6  5  1  0  0  0  0
  7  6  2  0  0  0  0
  8 12  1  0  0  0  0
  9 10  1  0  0  0  0
  9  8  2  0  0  0  0
 10 11  2  0  0  0  0
 11 12  1  0  0  0  0
 11 13  1  0  0  0  0
 12  7  1  1  0  0  0
 13 14  2  0  0  0  0
 14  6  1  0  0  0  0
 15  8  1  0  0  0  0
 16 15  1  0  0  0  0
 17 20  1  6  0  0  0
 17 18  1  0  0  0  0
 18 19  1  0  0  0  0
 20 21  1  0  0  0  0
 22 21  1  0  0  0  0
 23 22  1  0  0  0  0
 24 23  1  0  0  0  0
 26 27  2  0  0  0  0
 27 24  1  0  0  0  0
 27 25  1  0  0  0  0
M  END
>  <MODEL>
2

>  <REMARK>
 VINA RESULT:      -7.4      2.061      6.370
  Name = 
  10 active torsions:
  status: ('A' for Active; 'I' for Inactive)
    1  A    between atoms: C_2  and  C_15
    2  A    between atoms: C_4  and  C_6
    3  A    between atoms: C_4  and  C_16
    4  A    between atoms: C_6  and  C_14
    5  A    between atoms: O_10  and  C_11
    6  A    between atoms: C_13  and  C_23
    7  A    between atoms: C_14  and  C_27
    8  A    between atoms: O_17  and  C_23
    9  A    between atoms: N_18  and  C_23
   10  A    between atoms: N_18  and  C_27
                            x       y       z     vdW  Elec       q    Type
                         _______ _______ _______ _____ _____    ______ ____

>  <TORSDO>
F 10

$$$$
=
 OpenBabel11062414453D

 27 28  0  0  1  0  0  0  0  0999 V2000
  185.4410  178.7630  147.2540 O   0  0  0  0  0  0  0  0  0  0  0  0
  185.5520  178.1250  145.0020 N   0  0  0  0  0  2  0  0  0  0  0  0
  183.5990  179.3590  145.3830 O   0  0  0  0  0  0  0  0  0  0  0  0
  186.0740  178.1800  146.3330 C   0  0  0  0  0  0  0  0  0  0  0  0
  184.3210  178.7210  144.5680 C   0  0  0  0  0  0  0  0  0  0  0  0
  183.8940  178.5890  143.1650 C   0  0  0  0  0  0  0  0  0  0  0  0
  184.8000  178.3460  142.1990 C   0  0  0  0  0  3  0  0  0  0  0  0
  185.1940  178.8260  139.7650 C   0  0  0  0  0  0  0  0  0  0  0  0
  184.4990  179.6830  139.0900 N   0  0  0  0  0  0  0  0  0  0  0  0
  183.1940  179.7160  139.5940 N   0  0  0  0  0  0  0  0  0  0  0  0
  183.0880  178.8390  140.5340 C   0  0  0  0  0  0  0  0  0  0  0  0
  184.3680  178.1150  140.7770 C   0  0  2  0  0  3  0  0  0  0  0  0
  182.0980  178.9350  141.5580 N   0  0  0  0  0  0  0  0  0  0  0  0
  182.4620  178.7970  142.8010 C   0  0  0  0  0  3  0  0  0  0  0  0
  186.5460  178.5710  139.5330 O   0  0  0  0  0  0  0  0  0  0  0  0
  187.0120  178.0800  138.2850 C   0  0  0  0  0  1  0  0  0  0  0  0
  187.3760  177.4950  146.6320 C   0  0  2  0  0  3  0  0  0  0  0  0
  187.6560  177.4160  148.0160 O   0  0  0  0  0  0  0  0  0  0  0  0
  188.6810  178.3240  148.3320 C   0  0  0  0  0  1  0  0  0  0  0  0
  188.4850  178.0630  145.8660 N   0  0  0  0  0  2  0  0  0  0  0  0
  188.7420  177.1770  144.7380 C   0  0  0  0  0  2  0  0  0  0  0  0
  190.0140  177.5900  144.0150 C   0  0  0  0  0  2  0  0  0  0  0  0
  191.1770  177.6490  144.9860 C   0  0  0  0  0  2  0  0  0  0  0  0
  191.6760  176.2460  145.2590 C   0  0  0  0  0  2  0  0  0  0  0  0
  191.7400  177.1300  147.5880 O   0  0  0  0  0  1  0  0  0  0  0  0
  192.6100  175.0660  147.1040 O   0  0  0  0  0  0  0  0  0  0  0  0
  192.0460  176.1130  146.6940 C   0  0  0  0  0  0  0  0  0  0  0  0
  2  4  1  0  0  0  0
  4 17  1  0  0  0  0
  4  1  2  0  0  0  0
  5  2  1  0  0  0  0
  5  3  2  0  0  0  0
  6  5  1  0  0  0  0
  7  6  2  0  0  0  0
  8 12  1  0  0  0  0
  9 10  1  0  0  0  0
  9  8  2  0  0  0  0
 10 11  2  0  0  0  0
 11 12  1  0  0  0  0
 11 13  1  0  0  0  0
 12  7  1  1  0  0  0
 13 14  2  0  0  0  0
 14  6  1  0  0  0  0
 15  8  1  0  0  0  0
 16 15  1  0  0  0  0
 17 20  1  6  0  0  0
 17 18  1  0  0  0  0
 18 19  1  0  0  0  0
 21 20  1  0  0  0  0
 22 21  1  0  0  0  0
 22 23  1  0  0  0  0
 23 24  1  0  0  0  0
 24 27  1  0  0  0  0
 27 26  2  0  0  0  0
 27 25  1  0  0  0  0
M  END
>  <MODEL>
3

>  <REMARK>
 VINA RESULT:      -7.4      2.393      7.024
  Name = 
  10 active torsions:
  status: ('A' for Active; 'I' for Inactive)
    1  A    between atoms: C_2  and  C_15
    2  A    between atoms: C_4  and  C_6
    3  A    between atoms: C_4  and  C_16
    4  A    between atoms: C_6  and  C_14
    5  A    between atoms: O_10  and  C_11
    6  A    between atoms: C_13  and  C_23
    7  A    between atoms: C_14  and  C_27
    8  A    between atoms: O_17  and  C_23
    9  A    between atoms: N_18  and  C_23
   10  A    between atoms: N_18  and  C_27
                            x       y       z     vdW  Elec       q    Type
                         _______ _______ _______ _____ _____    ______ ____

>  <TORSDO>
F 10

$$$$
=
 OpenBabel11062414453D

 27 28  0  0  1  0  0  0  0  0999 V2000
  191.5590  177.4560  141.5080 O   0  0  0  0  0  0  0  0  0  0  0  0
  189.4530  177.3440  142.5300 N   0  0  0  0  0  2  0  0  0  0  0  0
  191.1150  177.5900  144.1600 O   0  0  0  0  0  0  0  0  0  0  0  0
  190.3080  177.3590  141.3830 C   0  0  0  0  0  0  0  0  0  0  0  0
  189.8890  177.4600  143.8920 C   0  0  0  0  0  0  0  0  0  0  0  0
  188.9040  177.4260  144.9860 C   0  0  0  0  0  0  0  0  0  0  0  0
  187.5900  177.5570  144.7210 C   0  0  0  0  0  3  0  0  0  0  0  0
  185.4950  178.4610  145.7710 C   0  0  0  0  0  0  0  0  0  0  0  0
  185.4970  179.2050  146.8300 N   0  0  0  0  0  0  0  0  0  0  0  0
  186.5720  178.8390  147.6460 N   0  0  0  0  0  0  0  0  0  0  0  0
  187.1830  177.8390  147.1080 C   0  0  0  0  0  0  0  0  0  0  0  0
  186.5660  177.4300  145.8150 C   0  0  2  0  0  3  0  0  0  0  0  0
  188.5510  177.5380  147.3920 N   0  0  0  0  0  0  0  0  0  0  0  0
  189.3660  177.3200  146.4000 C   0  0  0  0  0  3  0  0  0  0  0  0
  184.5660  178.5870  144.7380 O   0  0  0  0  0  0  0  0  0  0  0  0
  184.5570  179.7120  143.8720 C   0  0  0  0  0  1  0  0  0  0  0  0
  189.6970  177.2170  140.0190 C   0  0  2  0  0  3  0  0  0  0  0  0
  190.6490  177.2900  138.9750 O   0  0  0  0  0  0  0  0  0  0  0  0
  190.8860  175.9980  138.4750 C   0  0  0  0  0  1  0  0  0  0  0  0
  188.5750  178.1330  139.8210 N   0  0  0  0  0  2  0  0  0  0  0  0
  188.3740  178.2800  138.3860 C   0  0  0  0  0  2  0  0  0  0  0  0
  187.2190  177.4080  137.9180 C   0  0  0  0  0  2  0  0  0  0  0  0
  186.0460  178.2690  137.4910 C   0  0  0  0  0  2  0  0  0  0  0  0
  184.9120  178.1010  138.4800 C   0  0  0  0  0  2  0  0  0  0  0  0
  184.0430  180.3810  138.9840 O   0  0  0  0  0  0  0  0  0  0  0  0
  185.4430  179.3190  140.4550 O   0  0  0  0  0  1  0  0  0  0  0  0
  184.8270  179.2990  139.3590 C   0  0  0  0  0  0  0  0  0  0  0  0
  2  5  1  0  0  0  0
  4  1  2  0  0  0  0
  4  2  1  0  0  0  0
  5  3  2  0  0  0  0
  5  6  1  0  0  0  0
  6 14  1  0  0  0  0
  7  6  2  0  0  0  0
  8 12  1  0  0  0  0
  8  9  2  0  0  0  0
  9 10  1  0  0  0  0
 11 13  1  0  0  0  0
 11 10  2  0  0  0  0
 12  7  1  6  0  0  0
 12 11  1  0  0  0  0
 14 13  2  0  0  0  0
 15  8  1  0  0  0  0
 16 15  1  0  0  0  0
 17 18  1  6  0  0  0
 17  4  1  0  0  0  0
 19 18  1  0  0  0  0
 20 17  1  0  0  0  0
 21 20  1  0  0  0  0
 22 21  1  0  0  0  0
 23 22  1  0  0  0  0
 23 24  1  0  0  0  0
 24 27  1  0  0  0  0
 25 27  2  0  0  0  0
 27 26  1  0  0  0  0
M  END
>  <MODEL>
4

>  <REMARK>
 VINA RESULT:      -7.3      2.478      5.846
  Name = 
  10 active torsions:
  status: ('A' for Active; 'I' for Inactive)
    1  A    between atoms: C_2  and  C_15
    2  A    between atoms: C_4  and  C_6
    3  A    between atoms: C_4  and  C_16
    4  A    between atoms: C_6  and  C_14
    5  A    between atoms: O_10  and  C_11
    6  A    between atoms: C_13  and  C_23
    7  A    between atoms: C_14  and  C_27
    8  A    between atoms: O_17  and  C_23
    9  A    between atoms: N_18  and  C_23
   10  A    between atoms: N_18  and  C_27
                            x       y       z     vdW  Elec       q    Type
                         _______ _______ _______ _____ _____    ______ ____

>  <TORSDO>
F 10

$$$$
=
 OpenBabel11062414453D

 27 28  0  0  1  0  0  0  0  0999 V2000
  184.5630  178.8060  146.4800 O   0  0  0  0  0  0  0  0  0  0  0  0
  186.5850  178.5120  145.3310 N   0  0  0  0  0  2  0  0  0  0  0  0
  186.8770  178.0030  147.5980 O   0  0  0  0  0  0  0  0  0  0  0  0
  185.1930  178.8380  145.3880 C   0  0  0  0  0  0  0  0  0  0  0  0
  187.3870  178.1030  146.4480 C   0  0  0  0  0  0  0  0  0  0  0  0
  188.8160  177.7980  146.2560 C   0  0  0  0  0  0  0  0  0  0  0  0
  189.3930  177.9820  145.0540 C   0  0  0  0  0  3  0  0  0  0  0  0
  191.2260  177.0180  143.6310 C   0  0  0  0  0  0  0  0  0  0  0  0
  191.8140  175.8970  143.8970 N   0  0  0  0  0  0  0  0  0  0  0  0
  191.8540  175.7170  145.2830 N   0  0  0  0  0  0  0  0  0  0  0  0
  191.3420  176.7540  145.8540 C   0  0  0  0  0  0  0  0  0  0  0  0
  190.8700  177.7650  144.8670 C   0  0  2  0  0  3  0  0  0  0  0  0
  190.7900  176.7050  147.1700 N   0  0  0  0  0  0  0  0  0  0  0  0
  189.6090  177.2150  147.3760 C   0  0  0  0  0  3  0  0  0  0  0  0
  190.9980  177.4850  142.3360 O   0  0  0  0  0  0  0  0  0  0  0  0
  190.1330  176.8070  141.4370 C   0  0  0  0  0  1  0  0  0  0  0  0
  184.4940  179.2590  144.1280 C   0  0  2  0  0  3  0  0  0  0  0  0
  183.1820  179.7380  144.3560 O   0  0  0  0  0  0  0  0  0  0  0  0
  182.2590  178.7400  144.0040 C   0  0  0  0  0  1  0  0  0  0  0  0
  184.5420  178.2230  143.0980 N   0  0  0  0  0  2  0  0  0  0  0  0
  184.9740  178.8530  141.8580 C   0  0  0  0  0  2  0  0  0  0  0  0
  184.0420  178.4760  140.7170 C   0  0  0  0  0  2  0  0  0  0  0  0
  184.4430  179.1990  139.4460 C   0  0  0  0  0  2  0  0  0  0  0  0
  184.7360  178.1840  138.3600 C   0  0  0  0  0  2  0  0  0  0  0  0
  186.6050  178.0010  136.7220 O   0  0  0  0  0  0  0  0  0  0  0  0
  187.0340  178.4310  138.9320 O   0  0  0  0  0  1  0  0  0  0  0  0
  186.1860  178.2030  138.0300 C   0  0  0  0  0  0  0  0  0  0  0  0
  2  4  1  0  0  0  0
  2  5  1  0  0  0  0
  4  1  2  0  0  0  0
  5  3  2  0  0  0  0
  6  5  1  0  0  0  0
  6 14  1  0  0  0  0
  7  6  2  0  0  0  0
  8  9  2  0  0  0  0
  8 12  1  0  0  0  0
  9 10  1  0  0  0  0
 10 11  2  0  0  0  0
 11 13  1  0  0  0  0
 12  7  1  6  0  0  0
 12 11  1  0  0  0  0
 13 14  2  0  0  0  0
 15  8  1  0  0  0  0
 16 15  1  0  0  0  0
 17 20  1  6  0  0  0
 17 18  1  0  0  0  0
 17  4  1  0  0  0  0
 19 18  1  0  0  0  0
 21 20  1  0  0  0  0
 22 21  1  0  0  0  0
 23 22  1  0  0  0  0
 24 23  1  0  0  0  0
 25 27  2  0  0  0  0
 27 24  1  0  0  0  0
 27 26  1  0  0  0  0
M  END
>  <MODEL>
5

>  <REMARK>
 VINA RESULT:      -7.3      1.391      1.560
  Name = 
  10 active torsions:
  status: ('A' for Active; 'I' for Inactive)
    1  A    between atoms: C_2  and  C_15
    2  A    between atoms: C_4  and  C_6
    3  A    between atoms: C_4  and  C_16
    4  A    between atoms: C_6  and  C_14
    5  A    between atoms: O_10  and  C_11
    6  A    between atoms: C_13  and  C_23
    7  A    between atoms: C_14  and  C_27
    8  A    between atoms: O_17  and  C_23
    9  A    between atoms: N_18  and  C_23
   10  A    between atoms: N_18  and  C_27
                            x       y       z     vdW  Elec       q    Type
                         _______ _______ _______ _____ _____    ______ ____

>  <TORSDO>
F 10

$$$$
=
 OpenBabel11062414453D

 27 28  0  0  1  0  0  0  0  0999 V2000
  192.0030  177.2750  141.8390 O   0  0  0  0  0  0  0  0  0  0  0  0
  189.7790  177.3110  142.5800 N   0  0  0  0  0  2  0  0  0  0  0  0
  191.2300  177.3340  144.4170 O   0  0  0  0  0  0  0  0  0  0  0  0
  190.7750  177.2980  141.5520 C   0  0  0  0  0  0  0  0  0  0  0  0
  190.0420  177.3270  143.9900 C   0  0  0  0  0  0  0  0  0  0  0  0
  188.9240  177.3360  144.9480 C   0  0  0  0  0  0  0  0  0  0  0  0
  187.6590  177.4870  144.5120 C   0  0  0  0  0  3  0  0  0  0  0  0
  185.4650  178.4540  145.2650 C   0  0  0  0  0  0  0  0  0  0  0  0
  185.3470  179.2200  146.3010 N   0  0  0  0  0  0  0  0  0  0  0  0
  186.3000  178.8510  147.2570 N   0  0  0  0  0  0  0  0  0  0  0  0
  186.9530  177.8280  146.8210 C   0  0  0  0  0  0  0  0  0  0  0  0
  186.4990  177.4040  145.4670 C   0  0  2  0  0  3  0  0  0  0  0  0
  188.2650  177.5070  147.2850 N   0  0  0  0  0  0  0  0  0  0  0  0
  189.1970  177.2510  146.4110 C   0  0  0  0  0  3  0  0  0  0  0  0
  184.6800  178.5760  144.1180 O   0  0  0  0  0  0  0  0  0  0  0  0
  183.4710  179.3180  144.1140 C   0  0  0  0  0  1  0  0  0  0  0  0
  190.3370  177.2710  140.1170 C   0  0  2  0  0  3  0  0  0  0  0  0
  188.9560  177.5280  139.9540 O   0  0  0  0  0  0  0  0  0  0  0  0
  188.7820  178.5010  138.9550 C   0  0  0  0  0  1  0  0  0  0  0  0
  190.7650  176.0510  139.4330 N   0  0  0  0  0  2  0  0  0  0  0  0
  191.6360  176.4450  138.3330 C   0  0  0  0  0  2  0  0  0  0  0  0
  192.4230  175.2470  137.8230 C   0  0  0  0  0  2  0  0  0  0  0  0
  193.8030  175.6780  137.3670 C   0  0  0  0  0  2  0  0  0  0  0  0
  194.6890  174.4580  137.2240 C   0  0  0  0  0  2  0  0  0  0  0  0
  195.3000  172.7670  138.9500 O   0  0  0  0  0  0  0  0  0  0  0  0
  195.7490  174.9890  139.2890 O   0  0  0  0  0  1  0  0  0  0  0  0
  195.2650  174.0950  138.5470 C   0  0  0  0  0  0  0  0  0  0  0  0
  2  5  1  0  0  0  0
  4  1  2  0  0  0  0
  4  2  1  0  0  0  0
  5  3  2  0  0  0  0
  5  6  1  0  0  0  0
  6 14  1  0  0  0  0
  7  6  2  0  0  0  0
  8 12  1  0  0  0  0
  8  9  2  0  0  0  0
  9 10  1  0  0  0  0
 11 10  2  0  0  0  0
 11 13  1  0  0  0  0
 12  7  1  6  0  0  0
 12 11  1  0  0  0  0
 14 13  2  0  0  0  0
 15  8  1  0  0  0  0
 16 15  1  0  0  0  0
 17 20  1  1  0  0  0
 17  4  1  0  0  0  0
 18 17  1  0  0  0  0
 19 18  1  0  0  0  0
 21 20  1  0  0  0  0
 22 21  1  0  0  0  0
 23 22  1  0  0  0  0
 24 23  1  0  0  0  0
 24 27  1  0  0  0  0
 27 25  2  0  0  0  0
 27 26  1  0  0  0  0
M  END
>  <MODEL>
6

>  <REMARK>
 VINA RESULT:      -7.3      3.220      6.729
  Name = 
  10 active torsions:
  status: ('A' for Active; 'I' for Inactive)
    1  A    between atoms: C_2  and  C_15
    2  A    between atoms: C_4  and  C_6
    3  A    between atoms: C_4  and  C_16
    4  A    between atoms: C_6  and  C_14
    5  A    between atoms: O_10  and  C_11
    6  A    between atoms: C_13  and  C_23
    7  A    between atoms: C_14  and  C_27
    8  A    between atoms: O_17  and  C_23
    9  A    between atoms: N_18  and  C_23
   10  A    between atoms: N_18  and  C_27
                            x       y       z     vdW  Elec       q    Type
                         _______ _______ _______ _____ _____    ______ ____

>  <TORSDO>
F 10

$$$$
=
 OpenBabel11062414453D

 27 28  0  0  1  0  0  0  0  0999 V2000
  184.7090  178.6800  146.8580 O   0  0  0  0  0  0  0  0  0  0  0  0
  186.6040  178.2740  145.5400 N   0  0  0  0  0  2  0  0  0  0  0  0
  187.1600  178.0990  147.8080 O   0  0  0  0  0  0  0  0  0  0  0  0
  185.2150  178.5710  145.7080 C   0  0  0  0  0  0  0  0  0  0  0  0
  187.5390  178.0460  146.6050 C   0  0  0  0  0  0  0  0  0  0  0  0
  188.9480  177.7510  146.2970 C   0  0  0  0  0  0  0  0  0  0  0  0
  189.4220  177.9290  145.0500 C   0  0  0  0  0  3  0  0  0  0  0  0
  191.1380  176.9670  143.4870 C   0  0  0  0  0  0  0  0  0  0  0  0
  191.7560  175.8530  143.7110 N   0  0  0  0  0  0  0  0  0  0  0  0
  191.9130  175.6850  145.0910 N   0  0  0  0  0  0  0  0  0  0  0  0
  191.4410  176.7230  145.6940 C   0  0  0  0  0  0  0  0  0  0  0  0
  190.8800  177.7220  144.7420 C   0  0  2  0  0  3  0  0  0  0  0  0
  191.0010  176.6810  147.0520 N   0  0  0  0  0  0  0  0  0  0  0  0
  189.8370  177.1830  147.3520 C   0  0  0  0  0  3  0  0  0  0  0  0
  190.7990  177.4210  142.2110 O   0  0  0  0  0  0  0  0  0  0  0  0
  191.7450  177.4570  141.1540 C   0  0  0  0  0  1  0  0  0  0  0  0
  184.3680  178.7930  144.4890 C   0  0  2  0  0  3  0  0  0  0  0  0
  184.8980  179.7720  143.6160 O   0  0  0  0  0  0  0  0  0  0  0  0
  185.3600  179.1450  142.4460 C   0  0  0  0  0  1  0  0  0  0  0  0
  182.9680  179.0450  144.8290 N   0  0  0  0  0  2  0  0  0  0  0  0
  182.1910  178.9470  143.6020 C   0  0  0  0  0  2  0  0  0  0  0  0
  180.7600  178.5320  143.9090 C   0  0  0  0  0  2  0  0  0  0  0  0
  179.9180  178.5660  142.6490 C   0  0  0  0  0  2  0  0  0  0  0  0
  180.7950  178.9210  141.4660 C   0  0  0  0  0  2  0  0  0  0  0  0
  179.6600  181.1400  141.5190 O   0  0  0  0  0  1  0  0  0  0  0  0
  180.3570  180.2370  139.5310 O   0  0  0  0  0  0  0  0  0  0  0  0
  180.2530  180.1250  140.7800 C   0  0  0  0  0  0  0  0  0  0  0  0
  2  4  1  0  0  0  0
  2  5  1  0  0  0  0
  4  1  2  0  0  0  0
  5  3  2  0  0  0  0
  6  5  1  0  0  0  0
  6 14  1  0  0  0  0
  7  6  2  0  0  0  0
  8  9  2  0  0  0  0
  8 12  1  0  0  0  0
  9 10  1  0  0  0  0
 10 11  2  0  0  0  0
 11 13  1  0  0  0  0
 12  7  1  1  0  0  0
 12 11  1  0  0  0  0
 13 14  2  0  0  0  0
 15  8  1  0  0  0  0
 16 15  1  0  0  0  0
 17 18  1  1  0  0  0
 17 20  1  0  0  0  0
 17  4  1  0  0  0  0
 19 18  1  0  0  0  0
 21 22  1  0  0  0  0
 21 20  1  0  0  0  0
 23 22  1  0  0  0  0
 24 23  1  0  0  0  0
 26 27  2  0  0  0  0
 27 24  1  0  0  0  0
 27 25  1  0  0  0  0
M  END
>  <MODEL>
7

>  <REMARK>
 VINA RESULT:      -7.1      2.090      4.073
  Name = 
  10 active torsions:
  status: ('A' for Active; 'I' for Inactive)
    1  A    between atoms: C_2  and  C_15
    2  A    between atoms: C_4  and  C_6
    3  A    between atoms: C_4  and  C_16
    4  A    between atoms: C_6  and  C_14
    5  A    between atoms: O_10  and  C_11
    6  A    between atoms: C_13  and  C_23
    7  A    between atoms: C_14  and  C_27
    8  A    between atoms: O_17  and  C_23
    9  A    between atoms: N_18  and  C_23
   10  A    between atoms: N_18  and  C_27
                            x       y       z     vdW  Elec       q    Type
                         _______ _______ _______ _____ _____    ______ ____

>  <TORSDO>
F 10

$$$$
=
 OpenBabel11062414453D

 27 28  0  0  1  0  0  0  0  0999 V2000
  184.6240  178.5920  146.4180 O   0  0  0  0  0  0  0  0  0  0  0  0
  186.6950  178.4420  145.3320 N   0  0  0  0  0  2  0  0  0  0  0  0
  186.9130  177.7470  147.5570 O   0  0  0  0  0  0  0  0  0  0  0  0
  185.2940  178.7310  145.3590 C   0  0  0  0  0  0  0  0  0  0  0  0
  187.4640  177.9570  146.4410 C   0  0  0  0  0  0  0  0  0  0  0  0
  188.9060  177.7010  146.2820 C   0  0  0  0  0  0  0  0  0  0  0  0
  189.4500  177.6250  145.0530 C   0  0  0  0  0  3  0  0  0  0  0  0
  191.3180  176.4590  143.8440 C   0  0  0  0  0  0  0  0  0  0  0  0
  191.9840  175.4730  144.3500 N   0  0  0  0  0  0  0  0  0  0  0  0
  192.0590  175.6330  145.7380 N   0  0  0  0  0  0  0  0  0  0  0  0
  191.4890  176.7450  146.0610 C   0  0  0  0  0  0  0  0  0  0  0  0
  190.9350  177.4590  144.8760 C   0  0  2  0  0  3  0  0  0  0  0  0
  190.9630  176.9800  147.3680 N   0  0  0  0  0  0  0  0  0  0  0  0
  189.7540  177.4520  147.4830 C   0  0  0  0  0  3  0  0  0  0  0  0
  191.0390  176.5870  142.4830 O   0  0  0  0  0  0  0  0  0  0  0  0
  191.7420  177.5030  141.6570 C   0  0  0  0  0  1  0  0  0  0  0  0
  184.6340  179.2440  144.1130 C   0  0  2  0  0  3  0  0  0  0  0  0
  183.3530  179.7950  144.3510 O   0  0  0  0  0  0  0  0  0  0  0  0
  182.3720  178.8790  143.9370 C   0  0  0  0  0  1  0  0  0  0  0  0
  184.6260  178.2470  143.0430 N   0  0  0  0  0  2  0  0  0  0  0  0
  185.6680  178.6100  142.0930 C   0  0  0  0  0  2  0  0  0  0  0  0
  185.0570  179.0110  140.7600 C   0  0  0  0  0  2  0  0  0  0  0  0
  183.7440  178.2850  140.5410 C   0  0  0  0  0  2  0  0  0  0  0  0
  182.8280  179.1450  139.6970 C   0  0  0  0  0  2  0  0  0  0  0  0
  181.0600  177.8790  140.9140 O   0  0  0  0  0  1  0  0  0  0  0  0
  180.5650  179.8630  139.8780 O   0  0  0  0  0  0  0  0  0  0  0  0
  181.4210  178.9840  140.1540 C   0  0  0  0  0  0  0  0  0  0  0  0
  2  4  1  0  0  0  0
  2  5  1  0  0  0  0
  4  1  2  0  0  0  0
  5  3  2  0  0  0  0
  6  5  1  0  0  0  0
  6 14  1  0  0  0  0
  7  6  2  0  0  0  0
  8  9  2  0  0  0  0
  8 12  1  0  0  0  0
  9 10  1  0  0  0  0
 10 11  2  0  0  0  0
 11 13  1  0  0  0  0
 12  7  1  1  0  0  0
 12 11  1  0  0  0  0
 13 14  2  0  0  0  0
 15  8  1  0  0  0  0
 16 15  1  0  0  0  0
 17 20  1  6  0  0  0
 17 18  1  0  0  0  0
 17  4  1  0  0  0  0
 19 18  1  0  0  0  0
 21 20  1  0  0  0  0
 22 21  1  0  0  0  0
 23 22  1  0  0  0  0
 24 27  1  0  0  0  0
 24 23  1  0  0  0  0
 26 27  2  0  0  0  0
 27 25  1  0  0  0  0
M  END
>  <MODEL>
8

>  <REMARK>
 VINA RESULT:      -6.9      1.962      3.075
  Name = 
  10 active torsions:
  status: ('A' for Active; 'I' for Inactive)
    1  A    between atoms: C_2  and  C_15
    2  A    between atoms: C_4  and  C_6
    3  A    between atoms: C_4  and  C_16
    4  A    between atoms: C_6  and  C_14
    5  A    between atoms: O_10  and  C_11
    6  A    between atoms: C_13  and  C_23
    7  A    between atoms: C_14  and  C_27
    8  A    between atoms: O_17  and  C_23
    9  A    between atoms: N_18  and  C_23
   10  A    between atoms: N_18  and  C_27
                            x       y       z     vdW  Elec       q    Type
                         _______ _______ _______ _____ _____    ______ ____

>  <TORSDO>
F 10

$$$$
=
 OpenBabel11062414453D

 27 28  0  0  1  0  0  0  0  0999 V2000
  189.7950  176.5300  139.3360 O   0  0  0  0  0  0  0  0  0  0  0  0
  188.7000  177.6400  141.0860 N   0  0  0  0  0  2  0  0  0  0  0  0
  190.3100  176.1780  141.9550 O   0  0  0  0  0  0  0  0  0  0  0  0
  188.9330  177.3760  139.6990 C   0  0  0  0  0  0  0  0  0  0  0  0
  189.4020  177.0260  142.1770 C   0  0  0  0  0  0  0  0  0  0  0  0
  189.0620  177.3830  143.5650 C   0  0  0  0  0  0  0  0  0  0  0  0
  190.0210  177.4210  144.5090 C   0  0  0  0  0  3  0  0  0  0  0  0
  190.3110  177.0320  146.9740 C   0  0  0  0  0  0  0  0  0  0  0  0
  189.4120  176.4690  147.7140 N   0  0  0  0  0  0  0  0  0  0  0  0
  188.1440  176.7810  147.2130 N   0  0  0  0  0  0  0  0  0  0  0  0
  188.2770  177.5780  146.2070 C   0  0  0  0  0  0  0  0  0  0  0  0
  189.7060  177.8750  145.9090 C   0  0  2  0  0  3  0  0  0  0  0  0
  187.2790  177.6980  145.1920 N   0  0  0  0  0  0  0  0  0  0  0  0
  187.6410  177.6300  143.9430 C   0  0  0  0  0  3  0  0  0  0  0  0
  191.6840  176.8970  147.1870 O   0  0  0  0  0  0  0  0  0  0  0  0
  192.2940  175.6270  147.3570 C   0  0  0  0  0  1  0  0  0  0  0  0
  188.1060  178.0960  138.6740 C   0  0  2  0  0  3  0  0  0  0  0  0
  188.8380  179.0720  137.9580 O   0  0  0  0  0  0  0  0  0  0  0  0
  188.9440  178.6750  136.6140 C   0  0  0  0  0  1  0  0  0  0  0  0
  186.8670  178.6260  139.2410 N   0  0  0  0  0  2  0  0  0  0  0  0
  185.7610  177.8720  138.6670 C   0  0  0  0  0  2  0  0  0  0  0  0
  184.5570  178.7740  138.4480 C   0  0  0  0  0  2  0  0  0  0  0  0
  184.1010  179.3740  139.7640 C   0  0  0  0  0  2  0  0  0  0  0  0
  184.0750  178.2960  140.8270 C   0  0  0  0  0  2  0  0  0  0  0  0
  185.6450  179.7540  142.1010 O   0  0  0  0  0  0  0  0  0  0  0  0
  184.0770  178.4940  143.1990 O   0  0  0  0  0  1  0  0  0  0  0  0
  184.6000  178.8400  142.1090 C   0  0  0  0  0  0  0  0  0  0  0  0
  1  4  2  0  0  0  0
  2  5  1  0  0  0  0
  3  5  2  0  0  0  0
  4  2  1  0  0  0  0
  5  6  1  0  0  0  0
  6 14  1  0  0  0  0
  6  7  2  0  0  0  0
  8 15  1  0  0  0  0
  8  9  2  0  0  0  0
 10  9  1  0  0  0  0
 11 10  2  0  0  0  0
 12  7  1  6  0  0  0
 12 11  1  0  0  0  0
 12  8  1  0  0  0  0
 13 11  1  0  0  0  0
 14 13  2  0  0  0  0
 15 16  1  0  0  0  0
 17 18  1  1  0  0  0
 17 20  1  0  0  0  0
 17  4  1  0  0  0  0
 19 18  1  0  0  0  0
 21 20  1  0  0  0  0
 22 21  1  0  0  0  0
 22 23  1  0  0  0  0
 23 24  1  0  0  0  0
 24 27  1  0  0  0  0
 25 27  2  0  0  0  0
 27 26  1  0  0  0  0
M  END
>  <MODEL>
9

>  <REMARK>
 VINA RESULT:      -6.8      2.435      5.563
  Name = 
  10 active torsions:
  status: ('A' for Active; 'I' for Inactive)
    1  A    between atoms: C_2  and  C_15
    2  A    between atoms: C_4  and  C_6
    3  A    between atoms: C_4  and  C_16
    4  A    between atoms: C_6  and  C_14
    5  A    between atoms: O_10  and  C_11
    6  A    between atoms: C_13  and  C_23
    7  A    between atoms: C_14  and  C_27
    8  A    between atoms: O_17  and  C_23
    9  A    between atoms: N_18  and  C_23
   10  A    between atoms: N_18  and  C_27
                            x       y       z     vdW  Elec       q    Type
                         _______ _______ _______ _____ _____    ______ ____

>  <TORSDO>
F 10

$$$$
