=
 OpenBabel11062412353D

 51 54  0  0  1  0  0  0  0  0999 V2000
  190.9620  178.7910  144.0460 C   0  0  1  0  0  3  0  0  0  0  0  0
  185.4550  178.0890  143.5740 C   0  0  0  0  0  3  0  0  0  0  0  0
  189.1660  177.3140  144.0390 C   0  0  2  0  0  3  0  0  0  0  0  0
  191.3700  177.4280  140.4580 C   0  0  0  0  0  2  0  0  0  0  0  0
  186.8120  176.6440  137.5130 C   0  0  2  0  0  3  0  0  0  0  0  0
  187.2210  177.8140  141.9510 C   0  0  0  0  0  3  0  0  0  0  0  0
  189.9950  176.2150  144.7180 C   0  0  0  0  0  2  0  0  0  0  0  0
  191.0560  176.2160  139.8240 O   0  0  0  0  0  0  0  0  0  0  0  0
  184.7490  178.7890  137.8340 C   0  0  0  0  0  0  0  0  0  0  0  0
  191.3270  175.8930  144.0510 C   0  0  0  0  0  0  0  0  0  0  0  0
  186.7790  177.7210  143.2850 C   0  0  0  0  0  0  0  0  0  0  0  0
  184.6150  178.5910  142.5750 C   0  0  0  0  0  3  0  0  0  0  0  0
  183.7410  178.0480  137.6900 O   0  0  0  0  0  0  0  0  0  0  0  0
  184.8830  179.6010  138.9940 N   0  0  0  0  0  2  0  0  0  0  0  0
  185.8130  178.8350  136.7850 C   0  0  0  0  0  2  0  0  0  0  0  0
  190.9880  177.3780  141.9250 C   0  0  1  0  0  3  0  0  0  0  0  0
  192.1420  175.2790  144.7170 O   0  0  0  0  0  0  0  0  0  0  0  0
  185.0770  178.7170  141.2700 C   0  0  0  0  0  0  0  0  0  0  0  0
  189.5840  178.6370  144.3330 O   0  0  0  0  0  0  0  0  0  0  0  0
  186.2260  177.4330  136.3480 C   0  0  0  0  0  2  0  0  0  0  0  0
  188.9990  176.5140  138.6330 C   0  0  0  0  0  3  0  0  0  0  0  0
  191.7170  176.2160  142.6180 C   0  0  0  0  0  2  0  0  0  0  0  0
  188.3040  176.7700  137.5300 C   0  0  0  0  0  3  0  0  0  0  0  0
  186.3820  178.3090  140.9560 C   0  0  0  0  0  3  0  0  0  0  0  0
  187.6770  177.1340  144.3540 C   0  0  2  0  0  3  0  0  0  0  0  0
  184.1560  179.3000  140.2250 C   0  0  0  0  0  2  0  0  0  0  0  0
  191.2890  178.7450  142.5580 C   0  0  0  0  0  2  0  0  0  0  0  0
  191.4570  180.0870  144.6390 C   0  0  0  0  0  1  0  0  0  0  0  0
  190.4350  176.5570  138.6650 N   0  0  0  0  0  0  0  0  0  0  0  0
  186.8260  172.8620  137.0160 C   0  0  0  0  0  0  0  0  0  0  0  0
  185.4690  172.5720  137.2100 C   0  0  0  0  0  3  0  0  0  0  0  0
  186.3640  175.2100  137.4360 C   0  0  0  0  0  0  0  0  0  0  0  0
  187.2700  174.1820  137.1210 C   0  0  0  0  0  3  0  0  0  0  0  0
  185.0110  174.9110  137.6200 C   0  0  0  0  0  3  0  0  0  0  0  0
  184.5640  173.5960  137.5080 C   0  0  0  0  0  3  0  0  0  0  0  0
  187.7530  171.8600  136.7270 O   0  0  0  0  0  0  0  0  0  0  0  0
  187.5470  170.9730  135.6880 N   0  0  0  0  0  1  0  0  0  0  0  0
  187.3460  177.6110  145.7490 C   0  0  0  0  0  0  0  0  0  0  0  0
  187.7730  176.8860  146.8590 O   0  0  0  0  0  1  0  0  0  0  0  0
  186.6360  178.6380  145.9080 O   0  0  0  0  0  0  0  0  0  0  0  0
  191.2370  176.6420  137.4480 C   0  0  0  0  0  2  0  0  0  0  0  0
  192.2060  175.4640  137.3510 C   0  0  1  0  0  3  0  0  0  0  0  0
  191.4780  174.1610  137.0650 C   0  0  0  0  0  1  0  0  0  0  0  0
  193.2990  175.6940  136.4850 O   0  0  0  0  0  0  0  0  0  0  0  0
  194.3770  174.8660  136.8660 C   0  0  0  0  0  2  0  0  0  0  0  0
  194.7400  175.1470  138.2400 N   0  0  0  0  0  2  0  0  0  0  0  0
  195.7570  174.1820  138.6270 C   0  0  0  0  0  2  0  0  0  0  0  0
  197.4160  175.1080  140.1350 C   0  0  0  0  0  0  0  0  0  0  0  0
  196.2770  174.5160  139.9440 N   0  0  0  0  0  0  0  0  0  0  0  0
  198.2260  175.5130  139.0370 N   0  0  0  0  0  1  0  0  0  0  0  0
  197.8230  175.4260  141.4550 N   0  0  0  0  0  1  0  0  0  0  0  0
  1 19  1  0  0  0  0
  1 28  1  6  0  0  0
  3 19  1  0  0  0  0
  3 25  1  0  0  0  0
  3  7  1  1  0  0  0
  5 32  1  6  0  0  0
  5 23  1  0  0  0  0
  6 11  2  0  0  0  0
  8  4  1  0  0  0  0
  9 14  1  0  0  0  0
 10 17  2  0  0  0  0
 10  7  1  0  0  0  0
 11  2  1  0  0  0  0
 11 25  1  0  0  0  0
 12  2  2  0  0  0  0
 13  9  2  0  0  0  0
 14 26  1  0  0  0  0
 15  9  1  0  0  0  0
 16  4  1  6  0  0  0
 16 27  1  0  0  0  0
 16 22  1  0  0  0  0
 18 12  1  0  0  0  0
 20 15  1  0  0  0  0
 20  5  1  0  0  0  0
 21 29  1  0  0  0  0
 22 10  1  0  0  0  0
 23 21  2  0  0  0  0
 24 18  2  0  0  0  0
 24  6  1  0  0  0  0
 25 38  1  1  0  0  0
 26 18  1  0  0  0  0
 27  1  1  0  0  0  0
 29  8  1  0  0  0  0
 30 33  2  0  0  0  0
 30 31  1  0  0  0  0
 31 35  2  0  0  0  0
 32 34  2  0  0  0  0
 33 32  1  0  0  0  0
 35 34  1  0  0  0  0
 36 30  1  0  0  0  0
 37 36  1  0  0  0  0
 38 40  2  0  0  0  0
 38 39  1  0  0  0  0
 41 29  1  0  0  0  0
 42 43  1  6  0  0  0
 42 41  1  0  0  0  0
 44 45  1  0  0  0  0
 44 42  1  0  0  0  0
 45 46  1  0  0  0  0
 46 47  1  0  0  0  0
 47 49  1  0  0  0  0
 48 51  1  0  0  0  0
 49 48  2  0  0  0  0
 50 48  1  0  0  0  0
M  END
>  <MODEL>
1

>  <REMARK>
 VINA RESULT:      -7.8      0.000      0.000
  Name = 
  10 active torsions:
  status: ('A' for Active; 'I' for Inactive)
    1  A    between atoms: C_5  and  O_11
    2  A    between atoms: C_7  and  C_33
    3  A    between atoms: C_10  and  N_23
    4  A    between atoms: C_10  and  O_25
    5  A    between atoms: C_13  and  C_44
    6  A    between atoms: C_14  and  N_15
    7  A    between atoms: C_14  and  N_23
    8  A    between atoms: C_20  and  C_34
    9  A    between atoms: C_20  and  N_51
   10  A    between atoms: O_25  and  C_34
                            x       y       z     vdW  Elec       q    Type
                         _______ _______ _______ _____ _____    ______ ____

>  <TORSDO>
F 10

$$$$
=
 OpenBabel11062412353D

 51 54  0  0  1  0  0  0  0  0999 V2000
  180.7570  174.4880  135.8500 C   0  0  1  0  0  3  0  0  0  0  0  0
  185.9030  172.3570  135.6910 C   0  0  0  0  0  3  0  0  0  0  0  0
  182.4850  173.4440  137.0040 C   0  0  2  0  0  3  0  0  0  0  0  0
  182.1750  177.5870  137.6610 C   0  0  0  0  0  2  0  0  0  0  0  0
  187.6270  178.0380  138.0200 C   0  0  2  0  0  3  0  0  0  0  0  0
  185.1150  174.5150  136.4340 C   0  0  0  0  0  3  0  0  0  0  0  0
  181.5440  173.0180  138.1400 C   0  0  0  0  0  2  0  0  0  0  0  0
  182.8570  177.7940  138.8690 O   0  0  0  0  0  0  0  0  0  0  0  0
  189.1000  177.2250  135.5440 C   0  0  0  0  0  0  0  0  0  0  0  0
  180.7050  174.1340  138.7490 C   0  0  0  0  0  0  0  0  0  0  0  0
  184.9010  173.1300  136.3010 C   0  0  0  0  0  0  0  0  0  0  0  0
  187.0570  172.9560  135.1760 C   0  0  0  0  0  3  0  0  0  0  0  0
  190.1250  176.7780  136.1210 O   0  0  0  0  0  0  0  0  0  0  0  0
  188.3720  176.4050  134.6380 N   0  0  0  0  0  2  0  0  0  0  0  0
  188.6390  178.6250  135.7930 C   0  0  0  0  0  2  0  0  0  0  0  0
  181.8420  176.1180  137.4810 C   0  0  1  0  0  3  0  0  0  0  0  0
  179.7370  173.7980  139.4080 O   0  0  0  0  0  0  0  0  0  0  0  0
  187.2370  174.3300  135.2770 C   0  0  0  0  0  0  0  0  0  0  0  0
  181.8560  173.6010  135.7430 O   0  0  0  0  0  0  0  0  0  0  0  0
  188.6070  178.9450  137.2830 C   0  0  0  0  0  2  0  0  0  0  0  0
  185.1930  177.9900  138.3780 C   0  0  0  0  0  3  0  0  0  0  0  0
  180.9890  175.6240  138.6600 C   0  0  0  0  0  2  0  0  0  0  0  0
  186.2910  178.7020  138.1380 C   0  0  0  0  0  3  0  0  0  0  0  0
  186.2680  175.1100  135.9250 C   0  0  0  0  0  3  0  0  0  0  0  0
  183.6720  172.4790  136.9010 C   0  0  2  0  0  3  0  0  0  0  0  0
  188.4760  174.9480  134.6730 C   0  0  0  0  0  2  0  0  0  0  0  0
  181.1570  175.9340  136.1180 C   0  0  0  0  0  2  0  0  0  0  0  0
  179.9260  174.4120  134.5940 C   0  0  0  0  0  1  0  0  0  0  0  0
  183.9070  178.6020  138.5660 N   0  0  0  0  0  0  0  0  0  0  0  0
  188.0690  177.6300  141.7870 C   0  0  0  0  0  0  0  0  0  0  0  0
  189.3250  177.0130  141.8330 C   0  0  0  0  0  3  0  0  0  0  0  0
  188.1930  177.6560  139.3600 C   0  0  0  0  0  0  0  0  0  0  0  0
  187.5080  177.9590  140.5500 C   0  0  0  0  0  3  0  0  0  0  0  0
  189.4500  177.0480  139.4180 C   0  0  0  0  0  3  0  0  0  0  0  0
  190.0150  176.7270  140.6510 C   0  0  0  0  0  3  0  0  0  0  0  0
  187.3540  177.9200  142.9490 O   0  0  0  0  0  0  0  0  0  0  0  0
  187.5190  177.1680  144.0970 N   0  0  0  0  0  1  0  0  0  0  0  0
  183.2770  171.1900  136.2210 C   0  0  0  0  0  0  0  0  0  0  0  0
  182.9670  171.1780  134.8630 O   0  0  0  0  0  0  0  0  0  0  0  0
  183.1760  170.1310  136.8960 O   0  0  0  0  0  1  0  0  0  0  0  0
  183.7500  180.0410  138.7530 C   0  0  0  0  0  2  0  0  0  0  0  0
  182.3850  180.3660  139.3590 C   0  0  1  0  0  3  0  0  0  0  0  0
  181.3590  180.6940  138.2870 C   0  0  0  0  0  1  0  0  0  0  0  0
  181.9310  179.4050  140.2910 O   0  0  0  0  0  0  0  0  0  0  0  0
  180.8460  179.9410  141.0200 C   0  0  0  0  0  2  0  0  0  0  0  0
  180.8460  179.3920  142.3590 N   0  0  0  0  0  2  0  0  0  0  0  0
  182.1070  178.6890  142.5420 C   0  0  0  0  0  2  0  0  0  0  0  0
  183.5920  179.1030  144.4140 C   0  0  0  0  0  0  0  0  0  0  0  0
  182.4600  178.6680  143.9530 N   0  0  0  0  0  0  0  0  0  0  0  0
  184.5640  179.6820  143.5490 N   0  0  0  0  0  1  0  0  0  0  0  0
  183.8310  179.0760  145.8110 N   0  0  0  0  0  1  0  0  0  0  0  0
  1 28  1  6  0  0  0
  1 27  1  0  0  0  0
  2 11  1  0  0  0  0
  3  7  1  1  0  0  0
  4  8  1  0  0  0  0
  5 23  1  0  0  0  0
  5 32  1  1  0  0  0
  7 10  1  0  0  0  0
  9 15  1  0  0  0  0
  9 13  2  0  0  0  0
 10 17  2  0  0  0  0
 11  6  2  0  0  0  0
 11 25  1  0  0  0  0
 12 18  1  0  0  0  0
 12  2  2  0  0  0  0
 14 26  1  0  0  0  0
 14  9  1  0  0  0  0
 15 20  1  0  0  0  0
 16 27  1  6  0  0  0
 16  4  1  0  0  0  0
 16 22  1  0  0  0  0
 18 24  2  0  0  0  0
 19  1  1  0  0  0  0
 19  3  1  0  0  0  0
 20  5  1  0  0  0  0
 21 29  1  0  0  0  0
 22 10  1  0  0  0  0
 23 21  2  0  0  0  0
 24  6  1  0  0  0  0
 25 38  1  6  0  0  0
 25  3  1  0  0  0  0
 26 18  1  0  0  0  0
 29 41  1  0  0  0  0
 29  8  1  0  0  0  0
 30 31  1  0  0  0  0
 30 36  1  0  0  0  0
 32 34  2  0  0  0  0
 32 33  1  0  0  0  0
 33 30  2  0  0  0  0
 34 35  1  0  0  0  0
 35 31  2  0  0  0  0
 36 37  1  0  0  0  0
 38 40  1  0  0  0  0
 39 38  2  0  0  0  0
 41 42  1  0  0  0  0
 42 43  1  6  0  0  0
 42 44  1  0  0  0  0
 44 45  1  0  0  0  0
 45 46  1  0  0  0  0
 46 47  1  0  0  0  0
 47 49  1  0  0  0  0
 48 51  1  0  0  0  0
 49 48  2  0  0  0  0
 50 48  1  0  0  0  0
M  END
>  <MODEL>
2

>  <REMARK>
 VINA RESULT:      -5.2      4.160     10.376
  Name = 
  10 active torsions:
  status: ('A' for Active; 'I' for Inactive)
    1  A    between atoms: C_5  and  O_11
    2  A    between atoms: C_7  and  C_33
    3  A    between atoms: C_10  and  N_23
    4  A    between atoms: C_10  and  O_25
    5  A    between atoms: C_13  and  C_44
    6  A    between atoms: C_14  and  N_15
    7  A    between atoms: C_14  and  N_23
    8  A    between atoms: C_20  and  C_34
    9  A    between atoms: C_20  and  N_51
   10  A    between atoms: O_25  and  C_34
                            x       y       z     vdW  Elec       q    Type
                         _______ _______ _______ _____ _____    ______ ____

>  <TORSDO>
F 10

$$$$
=
 OpenBabel11062412353D

 51 54  0  0  1  0  0  0  0  0999 V2000
  180.0980  174.1800  135.8520 C   0  0  1  0  0  3  0  0  0  0  0  0
  185.3630  172.3600  135.8240 C   0  0  0  0  0  3  0  0  0  0  0  0
  181.8750  173.2980  137.0650 C   0  0  2  0  0  3  0  0  0  0  0  0
  181.3100  177.4420  137.5230 C   0  0  0  0  0  2  0  0  0  0  0  0
  186.7220  178.2380  137.8910 C   0  0  2  0  0  3  0  0  0  0  0  0
  184.4410  174.4990  136.4590 C   0  0  0  0  0  3  0  0  0  0  0  0
  180.9520  172.8700  138.2130 C   0  0  0  0  0  2  0  0  0  0  0  0
  181.9680  177.7460  138.7240 O   0  0  0  0  0  0  0  0  0  0  0  0
  188.2620  177.4010  135.4650 C   0  0  0  0  0  0  0  0  0  0  0  0
  180.0410  173.9610  138.7650 C   0  0  0  0  0  0  0  0  0  0  0  0
  184.3120  173.0980  136.3910 C   0  0  0  0  0  0  0  0  0  0  0  0
  186.4840  173.0030  135.2870 C   0  0  0  0  0  3  0  0  0  0  0  0
  189.3080  177.0440  136.0690 O   0  0  0  0  0  0  0  0  0  0  0  0
  187.5930  176.4970  134.5950 N   0  0  0  0  0  2  0  0  0  0  0  0
  187.7150  178.7800  135.6440 C   0  0  0  0  0  2  0  0  0  0  0  0
  181.0680  175.9480  137.4100 C   0  0  1  0  0  3  0  0  0  0  0  0
  179.0900  173.5980  139.4330 O   0  0  0  0  0  0  0  0  0  0  0  0
  186.5800  174.3890  135.3240 C   0  0  0  0  0  0  0  0  0  0  0  0
  181.2490  173.3580  135.7930 O   0  0  0  0  0  0  0  0  0  0  0  0
  187.6510  179.1680  137.1180 C   0  0  0  0  0  2  0  0  0  0  0  0
  184.2920  178.0600  138.2370 C   0  0  0  0  0  3  0  0  0  0  0  0
  180.2360  175.4590  138.6060 C   0  0  0  0  0  2  0  0  0  0  0  0
  185.3470  178.8240  137.9700 C   0  0  0  0  0  3  0  0  0  0  0  0
  185.5590  175.1380  135.9300 C   0  0  0  0  0  3  0  0  0  0  0  0
  183.1190  172.4040  137.0140 C   0  0  2  0  0  3  0  0  0  0  0  0
  187.7850  175.0520  134.6990 C   0  0  0  0  0  2  0  0  0  0  0  0
  180.4070  175.6590  136.0540 C   0  0  0  0  0  2  0  0  0  0  0  0
  179.2830  173.9950  134.5960 C   0  0  0  0  0  1  0  0  0  0  0  0
  182.9700  178.6010  138.3890 N   0  0  0  0  0  0  0  0  0  0  0  0
  187.1960  178.1120  141.6740 C   0  0  0  0  0  0  0  0  0  0  0  0
  188.4500  177.4930  141.7550 C   0  0  0  0  0  3  0  0  0  0  0  0
  187.2980  177.9550  139.2510 C   0  0  0  0  0  0  0  0  0  0  0  0
  186.6260  178.3500  140.4210 C   0  0  0  0  0  3  0  0  0  0  0  0
  188.5530  177.3450  139.3430 C   0  0  0  0  0  3  0  0  0  0  0  0
  189.1270  177.1140  140.5920 C   0  0  0  0  0  3  0  0  0  0  0  0
  186.4940  178.4920  142.8180 O   0  0  0  0  0  0  0  0  0  0  0  0
  185.3130  179.2040  142.7280 N   0  0  0  0  0  1  0  0  0  0  0  0
  182.8080  171.0620  136.3930 C   0  0  0  0  0  0  0  0  0  0  0  0
  183.5320  169.9320  136.7650 O   0  0  0  0  0  1  0  0  0  0  0  0
  181.9290  170.9750  135.4960 O   0  0  0  0  0  0  0  0  0  0  0  0
  182.7250  180.0350  138.5060 C   0  0  0  0  0  2  0  0  0  0  0  0
  181.3020  180.3820  138.0690 C   0  0  1  0  0  3  0  0  0  0  0  0
  180.7110  181.4970  138.9170 C   0  0  0  0  0  1  0  0  0  0  0  0
  181.1710  180.6090  136.6800 O   0  0  0  0  0  0  0  0  0  0  0  0
  179.9480  181.2670  136.4300 C   0  0  0  0  0  2  0  0  0  0  0  0
  179.9830  181.8700  135.1140 N   0  0  0  0  0  2  0  0  0  0  0  0
  180.0150  183.3130  135.2970 C   0  0  0  0  0  2  0  0  0  0  0  0
  181.1570  184.6360  136.9800 C   0  0  0  0  0  0  0  0  0  0  0  0
  181.1710  183.6820  136.1000 N   0  0  0  0  0  0  0  0  0  0  0  0
  179.9660  185.3680  137.2500 N   0  0  0  0  0  1  0  0  0  0  0  0
  182.3230  184.8980  137.7410 N   0  0  0  0  0  1  0  0  0  0  0  0
  1 28  1  6  0  0  0
  1 27  1  0  0  0  0
  2 11  1  0  0  0  0
  3  7  1  1  0  0  0
  4  8  1  0  0  0  0
  5 23  1  0  0  0  0
  5 32  1  1  0  0  0
  7 10  1  0  0  0  0
  9 15  1  0  0  0  0
  9 13  2  0  0  0  0
 10 17  2  0  0  0  0
 11  6  2  0  0  0  0
 11 25  1  0  0  0  0
 12 18  1  0  0  0  0
 12  2  2  0  0  0  0
 14 26  1  0  0  0  0
 14  9  1  0  0  0  0
 15 20  1  0  0  0  0
 16 27  1  6  0  0  0
 16  4  1  0  0  0  0
 16 22  1  0  0  0  0
 18 24  2  0  0  0  0
 19  1  1  0  0  0  0
 19  3  1  0  0  0  0
 20  5  1  0  0  0  0
 21 29  1  0  0  0  0
 22 10  1  0  0  0  0
 23 21  2  0  0  0  0
 24  6  1  0  0  0  0
 25 38  1  6  0  0  0
 25  3  1  0  0  0  0
 26 18  1  0  0  0  0
 29 41  1  0  0  0  0
 29  8  1  0  0  0  0
 30 31  1  0  0  0  0
 30 36  1  0  0  0  0
 32 34  2  0  0  0  0
 32 33  1  0  0  0  0
 33 30  2  0  0  0  0
 34 35  1  0  0  0  0
 35 31  2  0  0  0  0
 37 36  1  0  0  0  0
 38 39  1  0  0  0  0
 40 38  2  0  0  0  0
 42 41  1  0  0  0  0
 42 43  1  1  0  0  0
 44 42  1  0  0  0  0
 45 44  1  0  0  0  0
 46 47  1  0  0  0  0
 46 45  1  0  0  0  0
 47 49  1  0  0  0  0
 48 50  1  0  0  0  0
 48 51  1  0  0  0  0
 49 48  2  0  0  0  0
M  END
>  <MODEL>
3

>  <REMARK>
 VINA RESULT:      -5.1      4.607     11.287
  Name = 
  10 active torsions:
  status: ('A' for Active; 'I' for Inactive)
    1  A    between atoms: C_5  and  O_11
    2  A    between atoms: C_7  and  C_33
    3  A    between atoms: C_10  and  N_23
    4  A    between atoms: C_10  and  O_25
    5  A    between atoms: C_13  and  C_44
    6  A    between atoms: C_14  and  N_15
    7  A    between atoms: C_14  and  N_23
    8  A    between atoms: C_20  and  C_34
    9  A    between atoms: C_20  and  N_51
   10  A    between atoms: O_25  and  C_34
                            x       y       z     vdW  Elec       q    Type
                         _______ _______ _______ _____ _____    ______ ____

>  <TORSDO>
F 10

$$$$
=
 OpenBabel11062412353D

 51 54  0  0  1  0  0  0  0  0999 V2000
  180.3910  173.9090  135.8500 C   0  0  1  0  0  3  0  0  0  0  0  0
  185.7320  172.3240  135.8150 C   0  0  0  0  0  3  0  0  0  0  0  0
  182.2060  173.1040  137.0590 C   0  0  2  0  0  3  0  0  0  0  0  0
  181.4590  177.2170  137.5270 C   0  0  0  0  0  2  0  0  0  0  0  0
  186.8300  178.2520  137.8940 C   0  0  2  0  0  3  0  0  0  0  0  0
  184.7160  174.4180  136.4550 C   0  0  0  0  0  3  0  0  0  0  0  0
  181.3030  172.6330  138.2080 C   0  0  0  0  0  2  0  0  0  0  0  0
  182.1040  177.5480  138.7280 O   0  0  0  0  0  0  0  0  0  0  0  0
  188.4050  177.4880  135.4660 C   0  0  0  0  0  0  0  0  0  0  0  0
  180.3460  173.6810  138.7620 C   0  0  0  0  0  0  0  0  0  0  0  0
  184.6490  173.0140  136.3840 C   0  0  0  0  0  0  0  0  0  0  0  0
  186.8230  173.0170  135.2790 C   0  0  0  0  0  3  0  0  0  0  0  0
  189.4660  177.1770  136.0680 O   0  0  0  0  0  0  0  0  0  0  0  0
  187.7760  176.5570  134.5940 N   0  0  0  0  0  2  0  0  0  0  0  0
  187.7980  178.8420  135.6480 C   0  0  0  0  0  2  0  0  0  0  0  0
  181.2830  175.7150  137.4110 C   0  0  1  0  0  3  0  0  0  0  0  0
  179.4120  173.2750  139.4300 O   0  0  0  0  0  0  0  0  0  0  0  0
  186.8570  174.4060  135.3190 C   0  0  0  0  0  0  0  0  0  0  0  0
  181.5770  173.1390  135.7880 O   0  0  0  0  0  0  0  0  0  0  0  0
  187.7170  179.2230  137.1230 C   0  0  0  0  0  2  0  0  0  0  0  0
  184.4110  177.9650  138.2410 C   0  0  0  0  0  3  0  0  0  0  0  0
  180.4740  175.1870  138.6070 C   0  0  0  0  0  2  0  0  0  0  0  0
  185.4310  178.7760  137.9750 C   0  0  0  0  0  3  0  0  0  0  0  0
  185.8050  175.1070  135.9270 C   0  0  0  0  0  3  0  0  0  0  0  0
  183.4880  172.2660  137.0060 C   0  0  2  0  0  3  0  0  0  0  0  0
  188.0310  175.1230  134.6950 C   0  0  0  0  0  2  0  0  0  0  0  0
  180.6350  175.3990  136.0550 C   0  0  0  0  0  2  0  0  0  0  0  0
  179.5850  173.6910  134.5940 C   0  0  0  0  0  1  0  0  0  0  0  0
  183.0660  178.4470  138.3950 N   0  0  0  0  0  0  0  0  0  0  0  0
  189.1200  176.9920  140.6730 C   0  0  0  0  0  0  0  0  0  0  0  0
  188.4290  177.4480  141.8030 C   0  0  0  0  0  3  0  0  0  0  0  0
  187.4200  177.9910  139.2530 C   0  0  0  0  0  0  0  0  0  0  0  0
  188.6100  177.2570  139.4000 C   0  0  0  0  0  3  0  0  0  0  0  0
  186.7330  178.4350  140.3880 C   0  0  0  0  0  3  0  0  0  0  0  0
  187.2360  178.1650  141.6590 C   0  0  0  0  0  3  0  0  0  0  0  0
  190.3170  176.2840  140.7860 O   0  0  0  0  0  0  0  0  0  0  0  0
  191.5230  176.8540  140.4250 N   0  0  0  0  0  1  0  0  0  0  0  0
  183.2370  170.9120  136.3830 C   0  0  0  0  0  0  0  0  0  0  0  0
  182.4010  170.7930  135.2760 O   0  0  0  0  0  0  0  0  0  0  0  0
  183.7430  169.8810  136.8990 O   0  0  0  0  0  1  0  0  0  0  0  0
  182.7580  179.8680  138.5150 C   0  0  0  0  0  2  0  0  0  0  0  0
  181.8650  180.1310  139.7270 C   0  0  1  0  0  3  0  0  0  0  0  0
  180.3940  180.1610  139.3450 C   0  0  0  0  0  1  0  0  0  0  0  0
  182.1380  179.2900  140.8310 O   0  0  0  0  0  0  0  0  0  0  0  0
  180.9430  179.0630  141.5480 C   0  0  0  0  0  2  0  0  0  0  0  0
  181.2570  178.7940  142.9360 N   0  0  0  0  0  2  0  0  0  0  0  0
  182.7060  178.7700  143.0570 C   0  0  0  0  0  2  0  0  0  0  0  0
  184.2390  178.6990  144.9360 C   0  0  0  0  0  0  0  0  0  0  0  0
  183.0890  179.0330  144.4360 N   0  0  0  0  0  0  0  0  0  0  0  0
  185.2360  178.0770  144.1320 N   0  0  0  0  0  1  0  0  0  0  0  0
  184.5360  179.0300  146.2820 N   0  0  0  0  0  1  0  0  0  0  0  0
  1 28  1  6  0  0  0
  1 27  1  0  0  0  0
  2 11  1  0  0  0  0
  3  7  1  1  0  0  0
  4  8  1  0  0  0  0
  5 23  1  0  0  0  0
  5 32  1  1  0  0  0
  7 10  1  0  0  0  0
  9 15  1  0  0  0  0
  9 13  2  0  0  0  0
 10 17  2  0  0  0  0
 11  6  2  0  0  0  0
 11 25  1  0  0  0  0
 12 18  1  0  0  0  0
 12  2  2  0  0  0  0
 14 26  1  0  0  0  0
 14  9  1  0  0  0  0
 15 20  1  0  0  0  0
 16 27  1  6  0  0  0
 16  4  1  0  0  0  0
 16 22  1  0  0  0  0
 18 24  2  0  0  0  0
 19  1  1  0  0  0  0
 19  3  1  0  0  0  0
 20  5  1  0  0  0  0
 21 29  1  0  0  0  0
 22 10  1  0  0  0  0
 23 21  2  0  0  0  0
 24  6  1  0  0  0  0
 25 38  1  6  0  0  0
 25  3  1  0  0  0  0
 26 18  1  0  0  0  0
 29 41  1  0  0  0  0
 29  8  1  0  0  0  0
 30 36  1  0  0  0  0
 30 31  1  0  0  0  0
 32 33  1  0  0  0  0
 32 34  2  0  0  0  0
 33 30  2  0  0  0  0
 34 35  1  0  0  0  0
 35 31  2  0  0  0  0
 37 36  1  0  0  0  0
 38 40  1  0  0  0  0
 39 38  2  0  0  0  0
 41 42  1  0  0  0  0
 42 43  1  6  0  0  0
 42 44  1  0  0  0  0
 44 45  1  0  0  0  0
 45 46  1  0  0  0  0
 46 47  1  0  0  0  0
 47 49  1  0  0  0  0
 48 51  1  0  0  0  0
 49 48  2  0  0  0  0
 50 48  1  0  0  0  0
M  END
>  <MODEL>
4

>  <REMARK>
 VINA RESULT:      -5.0      3.815     10.350
  Name = 
  10 active torsions:
  status: ('A' for Active; 'I' for Inactive)
    1  A    between atoms: C_5  and  O_11
    2  A    between atoms: C_7  and  C_33
    3  A    between atoms: C_10  and  N_23
    4  A    between atoms: C_10  and  O_25
    5  A    between atoms: C_13  and  C_44
    6  A    between atoms: C_14  and  N_15
    7  A    between atoms: C_14  and  N_23
    8  A    between atoms: C_20  and  C_34
    9  A    between atoms: C_20  and  N_51
   10  A    between atoms: O_25  and  C_34
                            x       y       z     vdW  Elec       q    Type
                         _______ _______ _______ _____ _____    ______ ____

>  <TORSDO>
F 10

$$$$
