=
 OpenBabel11062416413D

 57 60  0  0  1  0  0  0  0  0999 V2000
  183.1250  178.7330  141.8690 O   0  0  0  0  0  0  0  0  0  0  0  0
  185.5510  179.4060  144.4610 C   0  0  0  0  0  2  0  0  0  0  0  0
  184.1450  178.7060  142.8290 C   0  0  0  0  0  0  0  0  0  0  0  0
  184.4470  179.7140  143.5730 N   0  0  0  0  0  0  0  0  0  0  0  0
  184.9740  177.5020  143.0560 C   0  0  0  0  0  2  0  0  0  0  0  0
  185.9280  177.9570  144.1560 C   0  0  1  0  0  3  0  0  0  0  0  0
  187.3200  177.8530  143.7200 N   0  0  0  0  0  2  0  0  0  0  0  0
  186.9450  178.1210  141.4190 O   0  0  0  0  0  0  0  0  0  0  0  0
  187.7690  177.9490  142.3590 C   0  0  0  0  0  0  0  0  0  0  0  0
  189.2200  177.8110  142.0360 C   0  0  2  0  0  3  0  0  0  0  0  0
  190.0560  178.5580  143.0590 C   0  0  0  0  0  2  0  0  0  0  0  0
  191.3470  177.9090  143.2050 N   0  0  0  0  0  2  0  0  0  0  0  0
  191.7280  178.0300  144.6030 C   0  0  0  0  0  2  0  0  0  0  0  0
  190.2270  177.5610  146.5470 C   0  0  1  0  0  3  0  0  0  0  0  0
  191.4250  175.7480  147.4300 C   0  0  0  0  0  2  0  0  0  0  0  0
  192.0720  176.1060  146.1140 C   0  0  0  0  0  2  0  0  0  0  0  0
  190.4890  176.8110  147.7720 N   0  0  0  0  0  2  0  0  0  0  0  0
  191.0430  176.9510  145.4220 C   0  0  2  0  0  3  0  0  0  0  0  0
  188.8680  177.4950  146.2340 O   0  0  0  0  0  0  0  0  0  0  0  0
  188.2210  177.4320  147.4700 C   0  0  0  0  0  2  0  0  0  0  0  0
  186.9810  178.0650  147.3790 O   0  0  0  0  0  1  0  0  0  0  0  0
  189.4950  178.3150  140.6970 N   0  0  0  0  0  2  0  0  0  0  0  0
  189.7070  177.1690  139.8240 C   0  0  0  0  0  2  0  0  0  0  0  0
  188.8610  177.2860  138.5580 C   0  0  0  0  0  2  0  0  0  0  0  0
  188.7960  175.9630  137.8040 C   0  0  0  0  0  2  0  0  0  0  0  0
  187.9440  176.1460  136.2460 S   0  0  0  0  0  0  0  0  0  0  0  0
  186.5820  175.5140  136.3290 O   0  0  0  0  0  0  0  0  0  0  0  0
  188.8880  175.3440  134.9700 C   0  0  0  0  0  1  0  0  0  0  0  0
  187.8000  177.6050  135.9080 O   0  0  0  0  0  0  0  0  0  0  0  0
  183.2690  179.1870  140.5510 C   0  0  0  0  0  0  0  0  0  0  0  0
  184.3790  179.5960  140.1130 O   0  0  0  0  0  0  0  0  0  0  0  0
  182.0800  179.2060  139.6480 C   0  0  2  0  0  3  0  0  0  0  0  0
  182.4710  179.7190  138.2680 C   0  0  0  0  0  2  0  0  0  0  0  0
  180.5800  179.3520  134.7280 O   0  0  0  0  0  0  0  0  0  0  0  0
  180.8610  180.7780  136.5760 N   0  0  0  0  0  0  0  0  0  0  0  0
  181.5630  180.8310  137.8430 C   0  0  0  0  0  0  0  0  0  0  0  0
  180.3230  178.3570  136.8130 N   0  0  0  0  0  2  0  0  0  0  0  0
  181.4610  181.8320  138.6030 O   0  0  0  0  0  0  0  0  0  0  0  0
  180.5920  179.4890  135.9810 C   0  0  0  0  0  0  0  0  0  0  0  0
  180.4310  181.9850  135.8940 C   0  0  0  0  0  0  0  0  0  0  0  0
  180.1010  181.9390  134.6750 O   0  0  0  0  0  0  0  0  0  0  0  0
  180.3070  183.3000  136.6140 C   0  0  1  0  0  3  0  0  0  0  0  0
  181.3470  184.2160  136.1730 N   0  0  0  0  0  1  0  0  0  0  0  0
  178.9330  184.6520  135.1120 N   0  0  0  0  0  1  0  0  0  0  0  0
  178.9370  183.9200  136.3710 C   0  0  0  0  0  2  0  0  0  0  0  0
  180.0820  177.1310  136.2870 O   0  0  0  0  0  0  0  0  0  0  0  0
  182.0700  176.3280  137.3280 C   0  0  0  0  0  2  0  0  0  0  0  0
  180.2780  174.8110  136.8000 C   0  0  0  0  0  2  0  0  0  0  0  0
  181.4480  173.9620  137.2860 C   0  0  1  0  0  3  0  0  0  0  0  0
  180.5650  176.2280  137.2370 C   0  0  2  0  0  3  0  0  0  0  0  0
  182.6860  174.0170  136.3890 C   0  0  2  0  0  3  0  0  0  0  0  0
  182.5820  174.9220  137.6190 C   0  0  1  0  0  3  0  0  0  0  0  0
  182.4540  174.7050  135.1900 O   0  0  0  0  0  1  0  0  0  0  0  0
  181.0910  180.0280  140.1910 O   0  0  0  0  0  0  0  0  0  0  0  0
  180.0350  179.1630  140.4980 C   0  0  0  0  0  2  0  0  0  0  0  0
  180.4150  179.8040  143.0220 C   0  0  0  0  0  1  0  0  0  0  0  0
  179.0360  179.8700  141.8400 S   0  0  0  0  0  0  0  0  0  0  0  0
  1  3  1  0  0  0  0
  3  5  1  0  0  0  0
  3  4  2  0  0  0  0
  4  2  1  0  0  0  0
  5  6  1  0  0  0  0
  6  7  1  6  0  0  0
  6  2  1  0  0  0  0
  8  9  2  0  0  0  0
  9  7  1  0  0  0  0
 10  9  1  0  0  0  0
 10 11  1  1  0  0  0
 11 12  1  0  0  0  0
 12 13  1  0  0  0  0
 14 19  1  6  0  0  0
 14 17  1  0  0  0  0
 15 17  1  0  0  0  0
 16 15  1  0  0  0  0
 18 13  1  1  0  0  0
 18 16  1  0  0  0  0
 18 14  1  0  0  0  0
 19 20  1  0  0  0  0
 21 20  1  0  0  0  0
 22 10  1  0  0  0  0
 23 22  1  0  0  0  0
 24 23  1  0  0  0  0
 25 24  1  0  0  0  0
 26 27  2  0  0  0  0
 26 25  1  0  0  0  0
 28 26  1  0  0  0  0
 29 26  2  0  0  0  0
 30  1  1  0  0  0  0
 31 30  2  0  0  0  0
 32 33  1  6  0  0  0
 32 54  1  0  0  0  0
 32 30  1  0  0  0  0
 34 39  2  0  0  0  0
 35 36  1  0  0  0  0
 36 33  1  0  0  0  0
 36 38  2  0  0  0  0
 39 35  1  0  0  0  0
 39 37  1  0  0  0  0
 40 35  1  0  0  0  0
 40 42  1  0  0  0  0
 41 40  2  0  0  0  0
 42 43  1  6  0  0  0
 44 45  1  0  0  0  0
 45 42  1  0  0  0  0
 46 37  1  0  0  0  0
 48 50  1  0  0  0  0
 49 48  1  6  0  0  0
 49 52  1  0  0  0  0
 50 46  1  6  0  0  0
 50 47  1  0  0  0  0
 51 53  1  6  0  0  0
 51 49  1  0  0  0  0
 51 52  1  0  0  0  0
 52 47  1  6  0  0  0
 54 55  1  0  0  0  0
 55 57  1  0  0  0  0
 57 56  1  0  0  0  0
M  END
>  <MODEL>
1

>  <REMARK>
 VINA RESULT:      -5.4      0.000      0.000
  Name = 
  25 active torsions:
  status: ('A' for Active; 'I' for Inactive)
    1  A    between atoms: C_1  and  C_26
    2  A    between atoms: C_1  and  O_54
    3  A    between atoms: O_2  and  C_26
    4  A    between atoms: O_2  and  C_44
    5  A    between atoms: C_3  and  O_42
    6  A    between atoms: C_4  and  O_42
    7  A    between atoms: N_5  and  C_49
    8  A    between atoms: C_7  and  S_28
    9  A    between atoms: C_7  and  C_39
   10  A    between atoms: N_10  and  C_23
   11  A    between atoms: N_10  and  C_51
   12  A    between atoms: C_11  and  C_41
   13  A    between atoms: N_14  and  O_40
   14  A    between atoms: C_16  and  C_39
   15  A    between atoms: C_16  and  N_57
   16  A    between atoms: S_17  and  C_44
   17  A    between atoms: C_23  and  C_34
   18  A    between atoms: C_24  and  O_54
   19  A    between atoms: C_26  and  C_41
   20  A    between atoms: C_30  and  C_31
   21  A    between atoms: C_31  and  C_50
   22  A    between atoms: C_32  and  O_40
   23  A    between atoms: C_34  and  C_53
   24  A    between atoms: C_34  and  N_57
   25  A    between atoms: C_48  and  C_51
                            x       y       z     vdW  Elec       q    Type
                         _______ _______ _______ _____ _____    ______ ____

>  <TORSDO>
F 25

$$$$
=
 OpenBabel11062416413D

 57 60  0  0  1  0  0  0  0  0999 V2000
  183.4050  178.5970  141.5790 O   0  0  0  0  0  0  0  0  0  0  0  0
  180.8320  177.1790  139.4750 C   0  0  0  0  0  2  0  0  0  0  0  0
  182.3580  178.3350  140.6860 C   0  0  0  0  0  0  0  0  0  0  0  0
  181.9010  177.1530  140.4540 N   0  0  0  0  0  0  0  0  0  0  0  0
  181.6950  179.4130  139.9200 C   0  0  0  0  0  2  0  0  0  0  0  0
  180.6610  178.6500  139.0980 C   0  0  1  0  0  3  0  0  0  0  0  0
  180.8720  178.8560  137.6660 N   0  0  0  0  0  2  0  0  0  0  0  0
  178.9750  177.7050  136.9030 O   0  0  0  0  0  0  0  0  0  0  0  0
  180.0060  178.3760  136.6250 C   0  0  0  0  0  0  0  0  0  0  0  0
  180.3370  178.6390  135.1930 C   0  0  2  0  0  3  0  0  0  0  0  0
  181.7720  179.1190  135.0680 C   0  0  0  0  0  2  0  0  0  0  0  0
  182.6120  178.0330  134.5940 N   0  0  0  0  0  2  0  0  0  0  0  0
  181.8740  176.8000  134.8110 C   0  0  0  0  0  2  0  0  0  0  0  0
  182.0330  174.4560  135.6690 C   0  0  1  0  0  3  0  0  0  0  0  0
  183.1760  174.9350  137.6610 C   0  0  0  0  0  2  0  0  0  0  0  0
  183.1100  176.2180  136.8700 C   0  0  0  0  0  2  0  0  0  0  0  0
  182.2900  173.9700  137.0210 N   0  0  0  0  0  2  0  0  0  0  0  0
  182.7680  175.7710  135.4790 C   0  0  2  0  0  3  0  0  0  0  0  0
  182.4870  173.5220  134.7370 O   0  0  0  0  0  0  0  0  0  0  0  0
  181.5730  172.4700  134.8120 C   0  0  0  0  0  2  0  0  0  0  0  0
  180.2760  172.9700  134.6900 O   0  0  0  0  0  1  0  0  0  0  0  0
  179.4260  179.6280  134.6330 N   0  0  0  0  0  2  0  0  0  0  0  0
  180.0130  180.9440  134.8430 C   0  0  0  0  0  2  0  0  0  0  0  0
  179.1870  181.7560  135.8390 C   0  0  0  0  0  2  0  0  0  0  0  0
  180.0550  182.3160  136.9600 C   0  0  0  0  0  2  0  0  0  0  0  0
  180.4550  184.0320  136.6730 S   0  0  0  0  0  0  0  0  0  0  0  0
  181.9150  184.2700  136.9440 O   0  0  0  0  0  0  0  0  0  0  0  0
  179.4820  185.0450  137.7640 C   0  0  0  0  0  1  0  0  0  0  0  0
  180.1410  184.4010  135.2490 O   0  0  0  0  0  0  0  0  0  0  0  0
  184.7250  178.8890  141.2120 C   0  0  0  0  0  0  0  0  0  0  0  0
  185.0060  179.3320  140.0650 O   0  0  0  0  0  0  0  0  0  0  0  0
  185.8280  178.6560  142.1920 C   0  0  2  0  0  3  0  0  0  0  0  0
  186.9560  177.8680  141.5400 C   0  0  0  0  0  2  0  0  0  0  0  0
  190.3320  176.2930  139.9990 O   0  0  0  0  0  0  0  0  0  0  0  0
  189.4600  177.4190  141.8710 N   0  0  0  0  0  0  0  0  0  0  0  0
  188.2100  177.9750  142.3510 C   0  0  0  0  0  0  0  0  0  0  0  0
  189.0670  178.1870  139.5330 N   0  0  0  0  0  2  0  0  0  0  0  0
  188.1350  178.5290  143.4810 O   0  0  0  0  0  0  0  0  0  0  0  0
  189.6480  177.2530  140.4480 C   0  0  0  0  0  0  0  0  0  0  0  0
  190.5160  177.0220  142.7830 C   0  0  0  0  0  0  0  0  0  0  0  0
  191.4520  176.2750  142.3810 O   0  0  0  0  0  0  0  0  0  0  0  0
  190.5690  177.5260  144.2000 C   0  0  1  0  0  3  0  0  0  0  0  0
  191.5170  176.7420  144.9780 N   0  0  0  0  0  1  0  0  0  0  0  0
  192.3990  179.1260  144.4440 N   0  0  0  0  0  1  0  0  0  0  0  0
  190.9630  178.9960  144.2350 C   0  0  0  0  0  2  0  0  0  0  0  0
  189.2120  178.0500  138.1920 O   0  0  0  0  0  0  0  0  0  0  0  0
  187.5890  176.4930  137.4020 C   0  0  0  0  0  2  0  0  0  0  0  0
  187.7950  178.6600  136.3740 C   0  0  0  0  0  2  0  0  0  0  0  0
  186.8060  177.8630  135.5320 C   0  0  1  0  0  3  0  0  0  0  0  0
  187.9110  177.9400  137.6970 C   0  0  2  0  0  3  0  0  0  0  0  0
  187.4040  176.6340  134.8440 C   0  0  2  0  0  3  0  0  0  0  0  0
  186.6760  176.4920  136.1810 C   0  0  1  0  0  3  0  0  0  0  0  0
  188.7980  176.5670  134.9760 O   0  0  0  0  0  1  0  0  0  0  0  0
  185.3360  177.9500  143.2920 O   0  0  0  0  0  0  0  0  0  0  0  0
  185.3160  178.8820  144.3340 C   0  0  0  0  0  2  0  0  0  0  0  0
  182.7990  179.6520  144.3570 C   0  0  0  0  0  1  0  0  0  0  0  0
  183.8610  178.5930  145.3830 S   0  0  0  0  0  0  0  0  0  0  0  0
  2  4  1  0  0  0  0
  3  1  1  0  0  0  0
  4  3  2  0  0  0  0
  5  3  1  0  0  0  0
  6  7  1  6  0  0  0
  6  2  1  0  0  0  0
  6  5  1  0  0  0  0
  9  8  2  0  0  0  0
  9  7  1  0  0  0  0
 10 11  1  1  0  0  0
 10  9  1  0  0  0  0
 12 13  1  0  0  0  0
 12 11  1  0  0  0  0
 14 19  1  6  0  0  0
 14 17  1  0  0  0  0
 16 15  1  0  0  0  0
 17 15  1  0  0  0  0
 18 13  1  1  0  0  0
 18 14  1  0  0  0  0
 18 16  1  0  0  0  0
 19 20  1  0  0  0  0
 21 20  1  0  0  0  0
 22 23  1  0  0  0  0
 22 10  1  0  0  0  0
 23 24  1  0  0  0  0
 24 25  1  0  0  0  0
 26 27  2  0  0  0  0
 26 25  1  0  0  0  0
 26 28  1  0  0  0  0
 29 26  2  0  0  0  0
 30  1  1  0  0  0  0
 30 32  1  0  0  0  0
 31 30  2  0  0  0  0
 32 33  1  6  0  0  0
 32 54  1  0  0  0  0
 33 36  1  0  0  0  0
 34 39  2  0  0  0  0
 35 36  1  0  0  0  0
 35 40  1  0  0  0  0
 36 38  2  0  0  0  0
 37 39  1  0  0  0  0
 39 35  1  0  0  0  0
 40 42  1  0  0  0  0
 41 40  2  0  0  0  0
 42 45  1  0  0  0  0
 42 43  1  1  0  0  0
 45 44  1  0  0  0  0
 46 37  1  0  0  0  0
 47 50  1  0  0  0  0
 48 50  1  0  0  0  0
 49 52  1  0  0  0  0
 49 48  1  1  0  0  0
 50 46  1  6  0  0  0
 51 53  1  1  0  0  0
 51 49  1  0  0  0  0
 51 52  1  0  0  0  0
 52 47  1  1  0  0  0
 54 55  1  0  0  0  0
 55 57  1  0  0  0  0
 56 57  1  0  0  0  0
M  END
>  <MODEL>
2

>  <REMARK>
 VINA RESULT:      -5.0      2.780     10.340
  Name = 
  25 active torsions:
  status: ('A' for Active; 'I' for Inactive)
    1  A    between atoms: C_1  and  C_26
    2  A    between atoms: C_1  and  O_54
    3  A    between atoms: O_2  and  C_26
    4  A    between atoms: O_2  and  C_44
    5  A    between atoms: C_3  and  O_42
    6  A    between atoms: C_4  and  O_42
    7  A    between atoms: N_5  and  C_49
    8  A    between atoms: C_7  and  S_28
    9  A    between atoms: C_7  and  C_39
   10  A    between atoms: N_10  and  C_23
   11  A    between atoms: N_10  and  C_51
   12  A    between atoms: C_11  and  C_41
   13  A    between atoms: N_14  and  O_40
   14  A    between atoms: C_16  and  C_39
   15  A    between atoms: C_16  and  N_57
   16  A    between atoms: S_17  and  C_44
   17  A    between atoms: C_23  and  C_34
   18  A    between atoms: C_24  and  O_54
   19  A    between atoms: C_26  and  C_41
   20  A    between atoms: C_30  and  C_31
   21  A    between atoms: C_31  and  C_50
   22  A    between atoms: C_32  and  O_40
   23  A    between atoms: C_34  and  C_53
   24  A    between atoms: C_34  and  N_57
   25  A    between atoms: C_48  and  C_51
                            x       y       z     vdW  Elec       q    Type
                         _______ _______ _______ _____ _____    ______ ____

>  <TORSDO>
F 25

$$$$
=
 OpenBabel11062416413D

 57 60  0  0  1  0  0  0  0  0999 V2000
  185.4750  178.7260  139.8630 O   0  0  0  0  0  0  0  0  0  0  0  0
  182.1180  177.5330  139.2630 C   0  0  0  0  0  2  0  0  0  0  0  0
  184.1320  178.5390  139.5130 C   0  0  0  0  0  0  0  0  0  0  0  0
  183.4820  177.4510  139.7480 N   0  0  0  0  0  0  0  0  0  0  0  0
  183.3490  179.5880  138.8260 C   0  0  0  0  0  2  0  0  0  0  0  0
  181.9850  178.9260  138.6500 C   0  0  1  0  0  3  0  0  0  0  0  0
  181.6170  178.8500  137.2380 N   0  0  0  0  0  2  0  0  0  0  0  0
  179.3650  178.2600  137.5360 O   0  0  0  0  0  0  0  0  0  0  0  0
  180.3080  178.5250  136.7410 C   0  0  0  0  0  0  0  0  0  0  0  0
  180.0570  178.4640  135.2710 C   0  0  2  0  0  3  0  0  0  0  0  0
  178.9470  179.4280  134.8900 C   0  0  0  0  0  2  0  0  0  0  0  0
  179.4850  180.7720  134.7710 N   0  0  0  0  0  2  0  0  0  0  0  0
  179.2230  181.4470  136.0300 C   0  0  0  0  0  2  0  0  0  0  0  0
  179.3280  183.8150  136.8280 C   0  0  1  0  0  3  0  0  0  0  0  0
  180.4160  184.7210  134.9570 C   0  0  0  0  0  2  0  0  0  0  0  0
  180.3900  183.2240  134.7710 C   0  0  0  0  0  2  0  0  0  0  0  0
  179.5380  185.0480  136.0740 N   0  0  0  0  0  2  0  0  0  0  0  0
  180.0840  182.6920  136.1400 C   0  0  2  0  0  3  0  0  0  0  0  0
  179.7990  183.9720  138.1320 O   0  0  0  0  0  0  0  0  0  0  0  0
  178.9810  184.9570  138.6900 C   0  0  0  0  0  2  0  0  0  0  0  0
  179.7520  186.0720  139.0170 O   0  0  0  0  0  1  0  0  0  0  0  0
  179.7050  177.1090  134.8700 N   0  0  0  0  0  2  0  0  0  0  0  0
  180.9420  176.3900  134.5940 C   0  0  0  0  0  2  0  0  0  0  0  0
  181.0110  175.0960  135.4010 C   0  0  0  0  0  2  0  0  0  0  0  0
  182.3160  174.3490  135.1500 C   0  0  0  0  0  2  0  0  0  0  0  0
  182.6950  173.2370  136.4940 S   0  0  0  0  0  0  0  0  0  0  0  0
  183.4860  172.0650  135.9830 O   0  0  0  0  0  0  0  0  0  0  0  0
  181.1760  172.6540  137.2110 C   0  0  0  0  0  1  0  0  0  0  0  0
  183.4910  173.9580  137.5480 O   0  0  0  0  0  0  0  0  0  0  0  0
  186.5600  178.6230  138.9820 C   0  0  0  0  0  0  0  0  0  0  0  0
  186.3900  178.5120  137.7380 O   0  0  0  0  0  0  0  0  0  0  0  0
  187.9500  178.6250  139.5290 C   0  0  2  0  0  3  0  0  0  0  0  0
  188.3470  177.2220  139.9710 C   0  0  0  0  0  2  0  0  0  0  0  0
  192.3690  177.4810  139.9550 O   0  0  0  0  0  0  0  0  0  0  0  0
  190.5340  176.5770  138.7960 N   0  0  0  0  0  0  0  0  0  0  0  0
  189.0870  176.5160  138.8780 C   0  0  0  0  0  0  0  0  0  0  0  0
  190.8240  176.3350  141.2590 N   0  0  0  0  0  2  0  0  0  0  0  0
  188.4110  175.9010  138.0090 O   0  0  0  0  0  0  0  0  0  0  0  0
  191.2900  176.8310  140.0010 C   0  0  0  0  0  0  0  0  0  0  0  0
  191.2330  176.3940  137.5380 C   0  0  0  0  0  0  0  0  0  0  0  0
  192.4420  176.7440  137.4290 O   0  0  0  0  0  0  0  0  0  0  0  0
  190.5750  175.7370  136.3550 C   0  0  1  0  0  3  0  0  0  0  0  0
  190.2920  176.7240  135.3240 N   0  0  0  0  0  1  0  0  0  0  0  0
  192.2180  175.1420  134.6480 N   0  0  0  0  0  1  0  0  0  0  0  0
  191.4620  174.6380  135.7860 C   0  0  0  0  0  2  0  0  0  0  0  0
  191.5020  176.5700  142.4090 O   0  0  0  0  0  0  0  0  0  0  0  0
  191.2810  178.2160  144.1180 C   0  0  0  0  0  2  0  0  0  0  0  0
  189.9840  176.1910  144.2080 C   0  0  0  0  0  2  0  0  0  0  0  0
  189.7390  176.9310  145.5180 C   0  0  1  0  0  3  0  0  0  0  0  0
  190.5800  177.1960  143.2520 C   0  0  2  0  0  3  0  0  0  0  0  0
  190.9780  177.0800  146.4030 C   0  0  2  0  0  3  0  0  0  0  0  0
  190.5600  178.2120  145.4620 C   0  0  1  0  0  3  0  0  0  0  0  0
  192.0760  176.3540  145.9220 O   0  0  0  0  0  1  0  0  0  0  0  0
  188.0260  179.4990  140.6150 O   0  0  0  0  0  0  0  0  0  0  0  0
  188.0950  178.6680  141.7380 C   0  0  0  0  0  2  0  0  0  0  0  0
  186.6280  177.0910  143.2520 C   0  0  0  0  0  1  0  0  0  0  0  0
  186.5670  178.8240  142.7080 S   0  0  0  0  0  0  0  0  0  0  0  0
  2  4  1  0  0  0  0
  3  4  2  0  0  0  0
  3  1  1  0  0  0  0
  5  3  1  0  0  0  0
  6  7  1  6  0  0  0
  6  5  1  0  0  0  0
  6  2  1  0  0  0  0
  9  7  1  0  0  0  0
  9  8  2  0  0  0  0
 10 11  1  1  0  0  0
 10  9  1  0  0  0  0
 12 11  1  0  0  0  0
 12 13  1  0  0  0  0
 14 19  1  1  0  0  0
 15 17  1  0  0  0  0
 16 15  1  0  0  0  0
 16 18  1  0  0  0  0
 17 14  1  0  0  0  0
 18 13  1  6  0  0  0
 18 14  1  0  0  0  0
 19 20  1  0  0  0  0
 20 21  1  0  0  0  0
 22 10  1  0  0  0  0
 23 22  1  0  0  0  0
 23 24  1  0  0  0  0
 25 24  1  0  0  0  0
 25 26  1  0  0  0  0
 26 28  1  0  0  0  0
 26 29  2  0  0  0  0
 27 26  2  0  0  0  0
 30 32  1  0  0  0  0
 30  1  1  0  0  0  0
 31 30  2  0  0  0  0
 32 33  1  1  0  0  0
 32 54  1  0  0  0  0
 34 39  2  0  0  0  0
 35 36  1  0  0  0  0
 35 39  1  0  0  0  0
 36 33  1  0  0  0  0
 37 46  1  0  0  0  0
 38 36  2  0  0  0  0
 39 37  1  0  0  0  0
 40 35  1  0  0  0  0
 41 40  2  0  0  0  0
 42 43  1  6  0  0  0
 42 40  1  0  0  0  0
 44 45  1  0  0  0  0
 45 42  1  0  0  0  0
 49 48  1  6  0  0  0
 49 51  1  0  0  0  0
 50 46  1  6  0  0  0
 50 47  1  0  0  0  0
 50 48  1  0  0  0  0
 51 53  1  6  0  0  0
 52 47  1  6  0  0  0
 52 49  1  0  0  0  0
 52 51  1  0  0  0  0
 54 55  1  0  0  0  0
 55 57  1  0  0  0  0
 57 56  1  0  0  0  0
M  END
>  <MODEL>
3

>  <REMARK>
 VINA RESULT:      -4.5      2.872     11.267
  Name = 
  25 active torsions:
  status: ('A' for Active; 'I' for Inactive)
    1  A    between atoms: C_1  and  C_26
    2  A    between atoms: C_1  and  O_54
    3  A    between atoms: O_2  and  C_26
    4  A    between atoms: O_2  and  C_44
    5  A    between atoms: C_3  and  O_42
    6  A    between atoms: C_4  and  O_42
    7  A    between atoms: N_5  and  C_49
    8  A    between atoms: C_7  and  S_28
    9  A    between atoms: C_7  and  C_39
   10  A    between atoms: N_10  and  C_23
   11  A    between atoms: N_10  and  C_51
   12  A    between atoms: C_11  and  C_41
   13  A    between atoms: N_14  and  O_40
   14  A    between atoms: C_16  and  C_39
   15  A    between atoms: C_16  and  N_57
   16  A    between atoms: S_17  and  C_44
   17  A    between atoms: C_23  and  C_34
   18  A    between atoms: C_24  and  O_54
   19  A    between atoms: C_26  and  C_41
   20  A    between atoms: C_30  and  C_31
   21  A    between atoms: C_31  and  C_50
   22  A    between atoms: C_32  and  O_40
   23  A    between atoms: C_34  and  C_53
   24  A    between atoms: C_34  and  N_57
   25  A    between atoms: C_48  and  C_51
                            x       y       z     vdW  Elec       q    Type
                         _______ _______ _______ _____ _____    ______ ____

>  <TORSDO>
F 25

$$$$
=
 OpenBabel11062416413D

 57 60  0  0  1  0  0  0  0  0999 V2000
  184.9970  177.8880  141.5400 O   0  0  0  0  0  0  0  0  0  0  0  0
  181.9170  179.1740  140.1570 C   0  0  0  0  0  2  0  0  0  0  0  0
  183.9810  178.4750  140.7760 C   0  0  0  0  0  0  0  0  0  0  0  0
  182.7500  178.5260  141.1520 N   0  0  0  0  0  0  0  0  0  0  0  0
  184.2470  179.0800  139.4530 C   0  0  0  0  0  2  0  0  0  0  0  0
  182.8640  179.5580  139.0210 C   0  0  1  0  0  3  0  0  0  0  0  0
  182.4610  178.9330  137.7620 N   0  0  0  0  0  2  0  0  0  0  0  0
  183.3290  176.7940  138.1870 O   0  0  0  0  0  0  0  0  0  0  0  0
  182.7080  177.5640  137.4040 C   0  0  0  0  0  0  0  0  0  0  0  0
  182.2600  177.0420  136.0780 C   0  0  2  0  0  3  0  0  0  0  0  0
  181.9510  175.5590  136.1780 C   0  0  0  0  0  2  0  0  0  0  0  0
  182.4360  174.8770  134.9900 N   0  0  0  0  0  2  0  0  0  0  0  0
  181.5910  173.7120  134.7950 C   0  0  0  0  0  2  0  0  0  0  0  0
  182.0340  171.6940  136.2040 C   0  0  1  0  0  3  0  0  0  0  0  0
  184.3750  171.7300  136.0650 C   0  0  0  0  0  2  0  0  0  0  0  0
  183.8600  172.7930  135.1260 C   0  0  0  0  0  2  0  0  0  0  0  0
  183.2570  171.2770  136.8830 N   0  0  0  0  0  2  0  0  0  0  0  0
  182.4130  172.4440  134.9400 C   0  0  2  0  0  3  0  0  0  0  0  0
  181.2700  170.5730  135.8770 O   0  0  0  0  0  0  0  0  0  0  0  0
  179.9490  170.9630  136.1050 C   0  0  0  0  0  2  0  0  0  0  0  0
  179.7980  171.3400  137.4390 O   0  0  0  0  0  1  0  0  0  0  0  0
  183.2810  177.2770  135.0670 N   0  0  0  0  0  2  0  0  0  0  0  0
  184.5530  176.8130  135.6030 C   0  0  0  0  0  2  0  0  0  0  0  0
  185.7210  177.5300  134.9280 C   0  0  0  0  0  2  0  0  0  0  0  0
  187.0630  177.0060  135.4280 C   0  0  0  0  0  2  0  0  0  0  0  0
  187.6800  177.9960  136.7790 S   0  0  0  0  0  0  0  0  0  0  0  0
  187.2140  179.4170  136.6280 O   0  0  0  0  0  0  0  0  0  0  0  0
  189.4580  177.9560  136.7640 C   0  0  0  0  0  1  0  0  0  0  0  0
  187.1870  177.4430  138.0890 O   0  0  0  0  0  0  0  0  0  0  0  0
  186.2360  178.4780  141.8260 C   0  0  0  0  0  0  0  0  0  0  0  0
  186.9740  178.9350  140.9110 O   0  0  0  0  0  0  0  0  0  0  0  0
  186.7030  178.5540  143.2420 C   0  0  2  0  0  3  0  0  0  0  0  0
  187.2630  177.2090  143.6870 C   0  0  0  0  0  2  0  0  0  0  0  0
  190.4450  179.3740  144.8830 O   0  0  0  0  0  0  0  0  0  0  0  0
  189.7640  177.6910  143.3890 N   0  0  0  0  0  0  0  0  0  0  0  0
  188.5780  176.9410  143.0230 C   0  0  0  0  0  0  0  0  0  0  0  0
  189.2260  177.6310  145.8210 N   0  0  0  0  0  2  0  0  0  0  0  0
  188.6120  176.0730  142.1100 O   0  0  0  0  0  0  0  0  0  0  0  0
  189.8360  178.2840  144.7040 C   0  0  0  0  0  0  0  0  0  0  0  0
  190.8700  177.8620  142.4650 C   0  0  0  0  0  0  0  0  0  0  0  0
  191.7420  178.7510  142.6790 O   0  0  0  0  0  0  0  0  0  0  0  0
  191.0510  176.9640  141.2710 C   0  0  1  0  0  3  0  0  0  0  0  0
  190.4280  177.5550  140.0970 N   0  0  0  0  0  1  0  0  0  0  0  0
  192.9640  177.4860  139.8430 N   0  0  0  0  0  1  0  0  0  0  0  0
  192.5290  176.7170  141.0020 C   0  0  0  0  0  2  0  0  0  0  0  0
  189.2620  178.1700  147.0640 O   0  0  0  0  0  0  0  0  0  0  0  0
  191.3820  177.5490  147.9580 C   0  0  0  0  0  2  0  0  0  0  0  0
  189.8480  175.8610  147.1890 C   0  0  0  0  0  2  0  0  0  0  0  0
  191.1530  175.1500  147.5270 C   0  0  1  0  0  3  0  0  0  0  0  0
  189.9120  177.2170  147.8530 C   0  0  2  0  0  3  0  0  0  0  0  0
  192.3410  175.5550  146.6520 C   0  0  2  0  0  3  0  0  0  0  0  0
  192.1250  176.2180  148.0140 C   0  0  1  0  0  3  0  0  0  0  0  0
  191.9670  176.3800  145.5830 O   0  0  0  0  0  1  0  0  0  0  0  0
  185.6370  178.9150  144.0690 O   0  0  0  0  0  0  0  0  0  0  0  0
  185.5280  177.8680  144.9900 C   0  0  0  0  0  2  0  0  0  0  0  0
  186.1280  178.9560  147.3110 C   0  0  0  0  0  1  0  0  0  0  0  0
  184.6130  178.4350  146.4530 S   0  0  0  0  0  0  0  0  0  0  0  0
  1 30  1  0  0  0  0
  2  4  1  0  0  0  0
  3  4  2  0  0  0  0
  3  1  1  0  0  0  0
  5  3  1  0  0  0  0
  6  7  1  6  0  0  0
  6  5  1  0  0  0  0
  6  2  1  0  0  0  0
  9  7  1  0  0  0  0
  9  8  2  0  0  0  0
 10 11  1  1  0  0  0
 10  9  1  0  0  0  0
 12 11  1  0  0  0  0
 13 12  1  0  0  0  0
 14 19  1  6  0  0  0
 14 17  1  0  0  0  0
 15 17  1  0  0  0  0
 16 15  1  0  0  0  0
 18 13  1  1  0  0  0
 18 16  1  0  0  0  0
 18 14  1  0  0  0  0
 19 20  1  0  0  0  0
 20 21  1  0  0  0  0
 22 23  1  0  0  0  0
 22 10  1  0  0  0  0
 24 25  1  0  0  0  0
 24 23  1  0  0  0  0
 25 26  1  0  0  0  0
 26 29  2  0  0  0  0
 27 26  2  0  0  0  0
 28 26  1  0  0  0  0
 30 32  1  0  0  0  0
 31 30  2  0  0  0  0
 32 33  1  1  0  0  0
 32 54  1  0  0  0  0
 35 39  1  0  0  0  0
 36 35  1  0  0  0  0
 36 33  1  0  0  0  0
 37 46  1  0  0  0  0
 38 36  2  0  0  0  0
 39 34  2  0  0  0  0
 39 37  1  0  0  0  0
 40 41  2  0  0  0  0
 40 35  1  0  0  0  0
 42 43  1  6  0  0  0
 42 40  1  0  0  0  0
 44 45  1  0  0  0  0
 45 42  1  0  0  0  0
 48 50  1  0  0  0  0
 49 48  1  6  0  0  0
 49 52  1  0  0  0  0
 50 46  1  6  0  0  0
 50 47  1  0  0  0  0
 51 53  1  6  0  0  0
 51 49  1  0  0  0  0
 51 52  1  0  0  0  0
 52 47  1  6  0  0  0
 54 55  1  0  0  0  0
 55 57  1  0  0  0  0
 57 56  1  0  0  0  0
M  END
>  <MODEL>
4

>  <REMARK>
 VINA RESULT:      -4.4      3.112     10.802
  Name = 
  25 active torsions:
  status: ('A' for Active; 'I' for Inactive)
    1  A    between atoms: C_1  and  C_26
    2  A    between atoms: C_1  and  O_54
    3  A    between atoms: O_2  and  C_26
    4  A    between atoms: O_2  and  C_44
    5  A    between atoms: C_3  and  O_42
    6  A    between atoms: C_4  and  O_42
    7  A    between atoms: N_5  and  C_49
    8  A    between atoms: C_7  and  S_28
    9  A    between atoms: C_7  and  C_39
   10  A    between atoms: N_10  and  C_23
   11  A    between atoms: N_10  and  C_51
   12  A    between atoms: C_11  and  C_41
   13  A    between atoms: N_14  and  O_40
   14  A    between atoms: C_16  and  C_39
   15  A    between atoms: C_16  and  N_57
   16  A    between atoms: S_17  and  C_44
   17  A    between atoms: C_23  and  C_34
   18  A    between atoms: C_24  and  O_54
   19  A    between atoms: C_26  and  C_41
   20  A    between atoms: C_30  and  C_31
   21  A    between atoms: C_31  and  C_50
   22  A    between atoms: C_32  and  O_40
   23  A    between atoms: C_34  and  C_53
   24  A    between atoms: C_34  and  N_57
   25  A    between atoms: C_48  and  C_51
                            x       y       z     vdW  Elec       q    Type
                         _______ _______ _______ _____ _____    ______ ____

>  <TORSDO>
F 25

$$$$
=
 OpenBabel11062416413D

 57 60  0  0  1  0  0  0  0  0999 V2000
  187.4320  178.1490  138.7860 O   0  0  0  0  0  0  0  0  0  0  0  0
  188.7950  176.7920  141.8440 C   0  0  0  0  0  2  0  0  0  0  0  0
  188.0170  177.9130  140.0360 C   0  0  0  0  0  0  0  0  0  0  0  0
  188.1810  176.7350  140.5320 N   0  0  0  0  0  0  0  0  0  0  0  0
  188.4860  179.0170  140.9010 C   0  0  0  0  0  2  0  0  0  0  0  0
  189.0160  178.2780  142.1260 C   0  0  1  0  0  3  0  0  0  0  0  0
  188.3120  178.6970  143.3370 N   0  0  0  0  0  2  0  0  0  0  0  0
  186.5660  177.1330  143.2380 O   0  0  0  0  0  0  0  0  0  0  0  0
  187.1120  178.0930  143.8460 C   0  0  0  0  0  0  0  0  0  0  0  0
  186.4760  178.6210  145.0900 C   0  0  2  0  0  3  0  0  0  0  0  0
  187.3010  178.2330  146.3040 C   0  0  0  0  0  2  0  0  0  0  0  0
  188.2260  177.1720  145.9490 N   0  0  0  0  0  2  0  0  0  0  0  0
  188.9050  176.7740  147.1700 C   0  0  0  0  0  2  0  0  0  0  0  0
  190.8350  176.7810  145.5800 C   0  0  1  0  0  3  0  0  0  0  0  0
  192.3680  175.6540  146.9520 C   0  0  0  0  0  2  0  0  0  0  0  0
  191.1400  175.9210  147.7880 C   0  0  0  0  0  2  0  0  0  0  0  0
  192.0380  175.9540  145.5640 N   0  0  0  0  0  2  0  0  0  0  0  0
  190.4020  176.9790  147.0220 C   0  0  2  0  0  3  0  0  0  0  0  0
  191.1050  178.0190  144.9940 O   0  0  0  0  0  0  0  0  0  0  0  0
  191.8600  177.7180  143.8590 C   0  0  0  0  0  2  0  0  0  0  0  0
  191.5840  176.4150  143.4470 O   0  0  0  0  0  1  0  0  0  0  0  0
  185.1170  178.1130  145.2220 N   0  0  0  0  0  2  0  0  0  0  0  0
  184.2030  179.1890  144.8640 C   0  0  0  0  0  2  0  0  0  0  0  0
  182.8940  178.6290  144.3110 C   0  0  0  0  0  2  0  0  0  0  0  0
  182.5020  179.3090  143.0040 C   0  0  0  0  0  2  0  0  0  0  0  0
  180.7380  179.2400  142.7420 S   0  0  0  0  0  0  0  0  0  0  0  0
  180.1460  180.6160  142.8720 O   0  0  0  0  0  0  0  0  0  0  0  0
  180.0110  178.1690  143.9610 C   0  0  0  0  0  1  0  0  0  0  0  0
  180.4430  178.6950  141.3700 O   0  0  0  0  0  0  0  0  0  0  0  0
  188.0410  177.8980  137.5490 C   0  0  0  0  0  0  0  0  0  0  0  0
  189.1950  178.3310  137.2840 O   0  0  0  0  0  0  0  0  0  0  0  0
  187.3030  177.1150  136.5130 C   0  0  2  0  0  3  0  0  0  0  0  0
  188.1000  175.8800  136.1150 C   0  0  0  0  0  2  0  0  0  0  0  0
  189.8680  172.3050  135.5310 O   0  0  0  0  0  0  0  0  0  0  0  0
  187.7980  173.3380  135.9490 N   0  0  0  0  0  0  0  0  0  0  0  0
  187.2370  174.6570  136.1660 C   0  0  0  0  0  0  0  0  0  0  0  0
  189.8440  173.8340  137.2810 N   0  0  0  0  0  2  0  0  0  0  0  0
  186.0010  174.8160  136.3630 O   0  0  0  0  0  0  0  0  0  0  0  0
  189.2010  173.1240  136.2190 C   0  0  0  0  0  0  0  0  0  0  0  0
  186.9860  172.2370  135.4650 C   0  0  0  0  0  0  0  0  0  0  0  0
  187.5390  171.2000  135.0010 O   0  0  0  0  0  0  0  0  0  0  0  0
  185.4840  172.2620  135.5510 C   0  0  1  0  0  3  0  0  0  0  0  0
  184.9120  171.2600  134.6660 N   0  0  0  0  0  1  0  0  0  0  0  0
  183.6560  171.5070  136.9850 N   0  0  0  0  0  1  0  0  0  0  0  0
  185.0220  172.0120  136.9800 C   0  0  0  0  0  2  0  0  0  0  0  0
  191.1630  173.6680  137.5490 O   0  0  0  0  0  0  0  0  0  0  0  0
  193.2310  173.5780  136.3700 C   0  0  0  0  0  2  0  0  0  0  0  0
  191.9780  175.6300  136.4680 C   0  0  0  0  0  2  0  0  0  0  0  0
  193.3100  175.9570  135.8010 C   0  0  1  0  0  3  0  0  0  0  0  0
  191.8250  174.1290  136.4090 C   0  0  2  0  0  3  0  0  0  0  0  0
  194.5320  175.7680  136.7020 C   0  0  2  0  0  3  0  0  0  0  0  0
  194.1030  174.6580  135.7390 C   0  0  1  0  0  3  0  0  0  0  0  0
  194.1860  175.4950  138.0320 O   0  0  0  0  0  1  0  0  0  0  0  0
  187.0830  177.9140  135.3890 O   0  0  0  0  0  0  0  0  0  0  0  0
  185.7400  178.2950  135.4790 C   0  0  0  0  0  2  0  0  0  0  0  0
  183.3510  177.2350  135.7990 C   0  0  0  0  0  1  0  0  0  0  0  0
  184.7050  177.0920  134.5940 S   0  0  0  0  0  0  0  0  0  0  0  0
  1  3  1  0  0  0  0
  2  6  1  0  0  0  0
  3  4  2  0  0  0  0
  3  5  1  0  0  0  0
  4  2  1  0  0  0  0
  5  6  1  0  0  0  0
  6  7  1  1  0  0  0
  7  9  1  0  0  0  0
  8  9  2  0  0  0  0
  9 10  1  0  0  0  0
 10 22  1  0  0  0  0
 10 11  1  1  0  0  0
 12 11  1  0  0  0  0
 12 13  1  0  0  0  0
 14 19  1  1  0  0  0
 14 18  1  0  0  0  0
 15 16  1  0  0  0  0
 17 14  1  0  0  0  0
 17 15  1  0  0  0  0
 18 13  1  6  0  0  0
 18 16  1  0  0  0  0
 20 19  1  0  0  0  0
 21 20  1  0  0  0  0
 23 22  1  0  0  0  0
 24 23  1  0  0  0  0
 25 24  1  0  0  0  0
 26 27  2  0  0  0  0
 26 25  1  0  0  0  0
 26 28  1  0  0  0  0
 29 26  2  0  0  0  0
 30  1  1  0  0  0  0
 31 30  2  0  0  0  0
 32 33  1  6  0  0  0
 32 30  1  0  0  0  0
 33 36  1  0  0  0  0
 34 39  2  0  0  0  0
 35 36  1  0  0  0  0
 35 39  1  0  0  0  0
 36 38  2  0  0  0  0
 37 46  1  0  0  0  0
 39 37  1  0  0  0  0
 40 42  1  0  0  0  0
 40 35  1  0  0  0  0
 41 40  2  0  0  0  0
 42 43  1  6  0  0  0
 42 45  1  0  0  0  0
 45 44  1  0  0  0  0
 47 50  1  0  0  0  0
 49 48  1  1  0  0  0
 49 51  1  0  0  0  0
 50 48  1  0  0  0  0
 50 46  1  1  0  0  0
 51 53  1  1  0  0  0
 52 49  1  0  0  0  0
 52 47  1  1  0  0  0
 52 51  1  0  0  0  0
 54 55  1  0  0  0  0
 54 32  1  0  0  0  0
 57 55  1  0  0  0  0
 57 56  1  0  0  0  0
M  END
>  <MODEL>
5

>  <REMARK>
 VINA RESULT:      -4.2      4.247      8.595
  Name = 
  25 active torsions:
  status: ('A' for Active; 'I' for Inactive)
    1  A    between atoms: C_1  and  C_26
    2  A    between atoms: C_1  and  O_54
    3  A    between atoms: O_2  and  C_26
    4  A    between atoms: O_2  and  C_44
    5  A    between atoms: C_3  and  O_42
    6  A    between atoms: C_4  and  O_42
    7  A    between atoms: N_5  and  C_49
    8  A    between atoms: C_7  and  S_28
    9  A    between atoms: C_7  and  C_39
   10  A    between atoms: N_10  and  C_23
   11  A    between atoms: N_10  and  C_51
   12  A    between atoms: C_11  and  C_41
   13  A    between atoms: N_14  and  O_40
   14  A    between atoms: C_16  and  C_39
   15  A    between atoms: C_16  and  N_57
   16  A    between atoms: S_17  and  C_44
   17  A    between atoms: C_23  and  C_34
   18  A    between atoms: C_24  and  O_54
   19  A    between atoms: C_26  and  C_41
   20  A    between atoms: C_30  and  C_31
   21  A    between atoms: C_31  and  C_50
   22  A    between atoms: C_32  and  O_40
   23  A    between atoms: C_34  and  C_53
   24  A    between atoms: C_34  and  N_57
   25  A    between atoms: C_48  and  C_51
                            x       y       z     vdW  Elec       q    Type
                         _______ _______ _______ _____ _____    ______ ____

>  <TORSDO>
F 25

$$$$
=
 OpenBabel11062416413D

 57 60  0  0  1  0  0  0  0  0999 V2000
  185.5410  178.0080  138.1160 O   0  0  0  0  0  0  0  0  0  0  0  0
  187.3600  178.1870  141.2320 C   0  0  0  0  0  2  0  0  0  0  0  0
  186.1120  178.3470  139.3490 C   0  0  0  0  0  0  0  0  0  0  0  0
  186.9480  177.5930  139.9760 N   0  0  0  0  0  0  0  0  0  0  0  0
  185.7840  179.6120  140.0420 C   0  0  0  0  0  2  0  0  0  0  0  0
  186.6190  179.5200  141.3150 C   0  0  1  0  0  3  0  0  0  0  0  0
  185.7720  179.5810  142.5050 N   0  0  0  0  0  2  0  0  0  0  0  0
  183.9300  178.4170  141.6340 O   0  0  0  0  0  0  0  0  0  0  0  0
  184.4570  179.0140  142.6130 C   0  0  0  0  0  0  0  0  0  0  0  0
  183.6800  179.1550  143.8800 C   0  0  2  0  0  3  0  0  0  0  0  0
  184.5740  178.8760  145.0750 C   0  0  0  0  0  2  0  0  0  0  0  0
  185.6980  178.0540  144.6630 N   0  0  0  0  0  2  0  0  0  0  0  0
  186.1810  177.3690  145.8510 C   0  0  0  0  0  2  0  0  0  0  0  0
  188.6650  177.3900  145.5700 C   0  0  1  0  0  3  0  0  0  0  0  0
  189.2310  177.5030  147.8440 C   0  0  0  0  0  2  0  0  0  0  0  0
  187.7320  177.6500  147.7540 C   0  0  0  0  0  2  0  0  0  0  0  0
  189.7190  177.0870  146.5350 N   0  0  0  0  0  2  0  0  0  0  0  0
  187.4860  177.9910  146.3140 C   0  0  2  0  0  3  0  0  0  0  0  0
  189.1390  178.2980  144.6220 O   0  0  0  0  0  0  0  0  0  0  0  0
  189.7850  177.5110  143.6670 C   0  0  0  0  0  2  0  0  0  0  0  0
  189.3230  176.1980  143.7540 O   0  0  0  0  0  1  0  0  0  0  0  0
  182.5400  178.2480  143.8830 N   0  0  0  0  0  2  0  0  0  0  0  0
  181.3700  179.0020  143.4530 C   0  0  0  0  0  2  0  0  0  0  0  0
  180.8000  178.4290  142.1570 C   0  0  0  0  0  2  0  0  0  0  0  0
  179.7550  179.3570  141.5470 C   0  0  0  0  0  2  0  0  0  0  0  0
  180.1750  179.7880  139.8660 S   0  0  0  0  0  0  0  0  0  0  0  0
  181.6680  179.8960  139.7230 O   0  0  0  0  0  0  0  0  0  0  0  0
  179.4320  181.3530  139.4650 C   0  0  0  0  0  1  0  0  0  0  0  0
  179.6540  178.7390  138.9220 O   0  0  0  0  0  0  0  0  0  0  0  0
  186.2480  177.8410  136.9170 C   0  0  0  0  0  0  0  0  0  0  0  0
  187.2360  178.5700  136.6290 O   0  0  0  0  0  0  0  0  0  0  0  0
  185.8130  176.7900  135.9490 C   0  0  2  0  0  3  0  0  0  0  0  0
  186.8070  175.6360  135.9400 C   0  0  0  0  0  2  0  0  0  0  0  0
  189.0050  172.2650  135.7170 O   0  0  0  0  0  0  0  0  0  0  0  0
  186.8170  173.0730  136.0160 N   0  0  0  0  0  0  0  0  0  0  0  0
  186.0960  174.3280  136.1000 C   0  0  0  0  0  0  0  0  0  0  0  0
  188.7600  173.9380  137.3130 N   0  0  0  0  0  2  0  0  0  0  0  0
  184.8470  174.3530  136.2690 O   0  0  0  0  0  0  0  0  0  0  0  0
  188.2290  173.0580  136.3180 C   0  0  0  0  0  0  0  0  0  0  0  0
  186.1540  171.8400  135.6330 C   0  0  0  0  0  0  0  0  0  0  0  0
  186.8370  170.8390  135.2760 O   0  0  0  0  0  0  0  0  0  0  0  0
  184.6580  171.6900  135.7020 C   0  0  1  0  0  3  0  0  0  0  0  0
  184.2530  170.4100  135.1420 N   0  0  0  0  0  1  0  0  0  0  0  0
  182.7450  171.5170  137.2130 N   0  0  0  0  0  1  0  0  0  0  0  0
  184.1720  171.8000  137.1420 C   0  0  0  0  0  2  0  0  0  0  0  0
  190.0840  173.9590  137.6070 O   0  0  0  0  0  0  0  0  0  0  0  0
  191.7240  175.5870  138.1910 C   0  0  0  0  0  2  0  0  0  0  0  0
  189.4250  176.2340  137.8890 C   0  0  0  0  0  2  0  0  0  0  0  0
  190.1630  177.4580  138.4210 C   0  0  1  0  0  3  0  0  0  0  0  0
  190.4820  175.2800  137.3860 C   0  0  2  0  0  3  0  0  0  0  0  0
  190.7280  177.2930  139.8330 C   0  0  2  0  0  3  0  0  0  0  0  0
  191.6170  177.0490  138.6120 C   0  0  1  0  0  3  0  0  0  0  0  0
  190.3110  176.1040  140.4460 O   0  0  0  0  0  1  0  0  0  0  0  0
  185.7200  177.3410  134.6700 O   0  0  0  0  0  0  0  0  0  0  0  0
  184.4210  177.8550  134.5960 C   0  0  0  0  0  2  0  0  0  0  0  0
  181.9810  177.7120  135.5730 C   0  0  0  0  0  1  0  0  0  0  0  0
  183.2220  176.5370  134.9530 S   0  0  0  0  0  0  0  0  0  0  0  0
  1  3  1  0  0  0  0
  2  6  1  0  0  0  0
  3  4  2  0  0  0  0
  3  5  1  0  0  0  0
  4  2  1  0  0  0  0
  5  6  1  0  0  0  0
  6  7  1  1  0  0  0
  7  9  1  0  0  0  0
  8  9  2  0  0  0  0
  9 10  1  0  0  0  0
 10 22  1  0  0  0  0
 10 11  1  1  0  0  0
 12 11  1  0  0  0  0
 12 13  1  0  0  0  0
 14 19  1  6  0  0  0
 14 18  1  0  0  0  0
 14 17  1  0  0  0  0
 16 15  1  0  0  0  0
 17 15  1  0  0  0  0
 18 13  1  6  0  0  0
 18 16  1  0  0  0  0
 20 21  1  0  0  0  0
 20 19  1  0  0  0  0
 23 22  1  0  0  0  0
 24 23  1  0  0  0  0
 25 24  1  0  0  0  0
 26 25  1  0  0  0  0
 27 26  2  0  0  0  0
 28 26  1  0  0  0  0
 29 26  2  0  0  0  0
 30  1  1  0  0  0  0
 31 30  2  0  0  0  0
 32 33  1  6  0  0  0
 32 30  1  0  0  0  0
 33 36  1  0  0  0  0
 34 39  2  0  0  0  0
 35 36  1  0  0  0  0
 35 39  1  0  0  0  0
 36 38  2  0  0  0  0
 37 46  1  0  0  0  0
 39 37  1  0  0  0  0
 40 42  1  0  0  0  0
 40 35  1  0  0  0  0
 41 40  2  0  0  0  0
 42 43  1  1  0  0  0
 42 45  1  0  0  0  0
 45 44  1  0  0  0  0
 49 48  1  6  0  0  0
 49 52  1  0  0  0  0
 49 51  1  0  0  0  0
 50 46  1  1  0  0  0
 50 48  1  0  0  0  0
 50 47  1  0  0  0  0
 51 53  1  6  0  0  0
 52 47  1  6  0  0  0
 52 51  1  0  0  0  0
 54 32  1  0  0  0  0
 55 54  1  0  0  0  0
 55 57  1  0  0  0  0
 57 56  1  0  0  0  0
M  END
>  <MODEL>
6

>  <REMARK>
 VINA RESULT:      -4.1      3.462      8.109
  Name = 
  25 active torsions:
  status: ('A' for Active; 'I' for Inactive)
    1  A    between atoms: C_1  and  C_26
    2  A    between atoms: C_1  and  O_54
    3  A    between atoms: O_2  and  C_26
    4  A    between atoms: O_2  and  C_44
    5  A    between atoms: C_3  and  O_42
    6  A    between atoms: C_4  and  O_42
    7  A    between atoms: N_5  and  C_49
    8  A    between atoms: C_7  and  S_28
    9  A    between atoms: C_7  and  C_39
   10  A    between atoms: N_10  and  C_23
   11  A    between atoms: N_10  and  C_51
   12  A    between atoms: C_11  and  C_41
   13  A    between atoms: N_14  and  O_40
   14  A    between atoms: C_16  and  C_39
   15  A    between atoms: C_16  and  N_57
   16  A    between atoms: S_17  and  C_44
   17  A    between atoms: C_23  and  C_34
   18  A    between atoms: C_24  and  O_54
   19  A    between atoms: C_26  and  C_41
   20  A    between atoms: C_30  and  C_31
   21  A    between atoms: C_31  and  C_50
   22  A    between atoms: C_32  and  O_40
   23  A    between atoms: C_34  and  C_53
   24  A    between atoms: C_34  and  N_57
   25  A    between atoms: C_48  and  C_51
                            x       y       z     vdW  Elec       q    Type
                         _______ _______ _______ _____ _____    ______ ____

>  <TORSDO>
F 25

$$$$
=
 OpenBabel11062416413D

 57 60  0  0  1  0  0  0  0  0999 V2000
  189.9530  177.8490  143.4310 O   0  0  0  0  0  0  0  0  0  0  0  0
  186.9480  178.9260  141.7380 C   0  0  0  0  0  2  0  0  0  0  0  0
  188.6740  178.0100  142.8850 C   0  0  0  0  0  0  0  0  0  0  0  0
  188.3360  179.0120  142.1480 N   0  0  0  0  0  0  0  0  0  0  0  0
  187.5910  177.0310  143.1270 C   0  0  0  0  0  2  0  0  0  0  0  0
  186.4190  177.6340  142.3580 C   0  0  1  0  0  3  0  0  0  0  0  0
  185.2880  177.8980  143.2470 N   0  0  0  0  0  2  0  0  0  0  0  0
  183.7790  178.6470  141.6140 O   0  0  0  0  0  0  0  0  0  0  0  0
  184.0050  178.3900  142.8280 C   0  0  0  0  0  0  0  0  0  0  0  0
  182.9310  178.6360  143.8350 C   0  0  2  0  0  3  0  0  0  0  0  0
  181.7820  179.3980  143.1980 C   0  0  0  0  0  2  0  0  0  0  0  0
  180.8810  178.4660  142.5410 N   0  0  0  0  0  2  0  0  0  0  0  0
  179.7070  179.2230  142.1410 C   0  0  0  0  0  2  0  0  0  0  0  0
  180.2320  177.9630  140.0450 C   0  0  1  0  0  3  0  0  0  0  0  0
  180.8260  179.8060  138.7200 C   0  0  0  0  0  2  0  0  0  0  0  0
  180.2960  180.3510  140.0230 C   0  0  0  0  0  2  0  0  0  0  0  0
  181.0140  178.3690  138.8810 N   0  0  0  0  0  2  0  0  0  0  0  0
  179.5600  179.1930  140.6300 C   0  0  2  0  0  3  0  0  0  0  0  0
  179.2650  177.0330  139.6640 O   0  0  0  0  0  0  0  0  0  0  0  0
  179.5560  175.8900  140.4120 C   0  0  0  0  0  2  0  0  0  0  0  0
  180.5100  175.1250  139.7410 O   0  0  0  0  0  1  0  0  0  0  0  0
  183.4570  179.3790  144.9710 N   0  0  0  0  0  2  0  0  0  0  0  0
  183.8810  178.4140  145.9770 C   0  0  0  0  0  2  0  0  0  0  0  0
  185.2770  178.7480  146.4980 C   0  0  0  0  0  2  0  0  0  0  0  0
  186.2070  177.5430  146.4170 C   0  0  0  0  0  2  0  0  0  0  0  0
  187.7540  177.8630  147.2490 S   0  0  0  0  0  0  0  0  0  0  0  0
  188.8000  178.2700  146.2470 O   0  0  0  0  0  0  0  0  0  0  0  0
  188.2820  176.3840  148.0830 C   0  0  0  0  0  1  0  0  0  0  0  0
  187.5750  178.9620  148.2610 O   0  0  0  0  0  0  0  0  0  0  0  0
  191.1560  178.0370  142.7370 C   0  0  0  0  0  0  0  0  0  0  0  0
  191.7450  179.1520  142.7290 O   0  0  0  0  0  0  0  0  0  0  0  0
  191.7470  176.8970  141.9740 C   0  0  2  0  0  3  0  0  0  0  0  0
  192.0000  177.3030  140.5280 C   0  0  0  0  0  2  0  0  0  0  0  0
  192.8450  176.7630  136.6240 O   0  0  0  0  0  0  0  0  0  0  0  0
  191.1290  176.5920  138.2220 N   0  0  0  0  0  0  0  0  0  0  0  0
  190.9050  176.7960  139.6400 C   0  0  0  0  0  0  0  0  0  0  0  0
  193.3980  175.6260  138.5740 N   0  0  0  0  0  2  0  0  0  0  0  0
  189.7740  176.5910  140.1580 O   0  0  0  0  0  0  0  0  0  0  0  0
  192.4750  176.3500  137.7560 C   0  0  0  0  0  0  0  0  0  0  0  0
  190.0370  176.6320  137.2670 C   0  0  0  0  0  0  0  0  0  0  0  0
  190.2800  176.7550  136.0330 O   0  0  0  0  0  0  0  0  0  0  0  0
  188.6040  176.4710  137.6960 C   0  0  1  0  0  3  0  0  0  0  0  0
  187.8450  177.6710  137.3790 N   0  0  0  0  0  1  0  0  0  0  0  0
  188.9100  174.1530  136.9840 N   0  0  0  0  0  1  0  0  0  0  0  0
  187.9700  175.2660  137.0140 C   0  0  0  0  0  2  0  0  0  0  0  0
  194.6730  175.3960  138.1720 O   0  0  0  0  0  0  0  0  0  0  0  0
  196.3410  173.7070  138.3790 C   0  0  0  0  0  2  0  0  0  0  0  0
  194.3160  173.2700  137.1530 C   0  0  0  0  0  2  0  0  0  0  0  0
  195.2280  172.0660  136.9450 C   0  0  1  0  0  3  0  0  0  0  0  0
  194.8640  174.0230  138.3430 C   0  0  2  0  0  3  0  0  0  0  0  0
  196.5230  172.3740  136.1900 C   0  0  2  0  0  3  0  0  0  0  0  0
  196.5100  172.3420  137.7200 C   0  0  1  0  0  3  0  0  0  0  0  0
  196.5500  173.6770  135.6760 O   0  0  0  0  0  1  0  0  0  0  0  0
  190.8760  175.8060  142.0100 O   0  0  0  0  0  0  0  0  0  0  0  0
  190.5840  175.6270  143.3670 C   0  0  0  0  0  2  0  0  0  0  0  0
  191.6920  175.9890  145.7270 C   0  0  0  0  0  1  0  0  0  0  0  0
  192.0610  175.0210  144.2340 S   0  0  0  0  0  0  0  0  0  0  0  0
  2  4  1  0  0  0  0
  2  6  1  0  0  0  0
  3  5  1  0  0  0  0
  3  1  1  0  0  0  0
  4  3  2  0  0  0  0
  6  5  1  0  0  0  0
  6  7  1  1  0  0  0
  8  9  2  0  0  0  0
  9  7  1  0  0  0  0
  9 10  1  0  0  0  0
 10 11  1  6  0  0  0
 10 22  1  0  0  0  0
 12 11  1  0  0  0  0
 13 12  1  0  0  0  0
 14 19  1  6  0  0  0
 14 18  1  0  0  0  0
 15 17  1  0  0  0  0
 15 16  1  0  0  0  0
 16 18  1  0  0  0  0
 17 14  1  0  0  0  0
 18 13  1  1  0  0  0
 19 20  1  0  0  0  0
 21 20  1  0  0  0  0
 22 23  1  0  0  0  0
 23 24  1  0  0  0  0
 25 24  1  0  0  0  0
 25 26  1  0  0  0  0
 26 28  1  0  0  0  0
 26 29  2  0  0  0  0
 27 26  2  0  0  0  0
 30  1  1  0  0  0  0
 31 30  2  0  0  0  0
 32 33  1  6  0  0  0
 32 54  1  0  0  0  0
 32 30  1  0  0  0  0
 34 39  2  0  0  0  0
 35 36  1  0  0  0  0
 36 38  2  0  0  0  0
 36 33  1  0  0  0  0
 39 35  1  0  0  0  0
 39 37  1  0  0  0  0
 40 42  1  0  0  0  0
 40 35  1  0  0  0  0
 41 40  2  0  0  0  0
 42 43  1  6  0  0  0
 44 45  1  0  0  0  0
 45 42  1  0  0  0  0
 46 37  1  0  0  0  0
 48 50  1  0  0  0  0
 49 48  1  1  0  0  0
 49 52  1  0  0  0  0
 50 46  1  6  0  0  0
 50 47  1  0  0  0  0
 51 53  1  1  0  0  0
 51 49  1  0  0  0  0
 51 52  1  0  0  0  0
 52 47  1  1  0  0  0
 54 55  1  0  0  0  0
 55 57  1  0  0  0  0
 57 56  1  0  0  0  0
M  END
>  <MODEL>
7

>  <REMARK>
 VINA RESULT:      -4.1      4.197     10.945
  Name = 
  25 active torsions:
  status: ('A' for Active; 'I' for Inactive)
    1  A    between atoms: C_1  and  C_26
    2  A    between atoms: C_1  and  O_54
    3  A    between atoms: O_2  and  C_26
    4  A    between atoms: O_2  and  C_44
    5  A    between atoms: C_3  and  O_42
    6  A    between atoms: C_4  and  O_42
    7  A    between atoms: N_5  and  C_49
    8  A    between atoms: C_7  and  S_28
    9  A    between atoms: C_7  and  C_39
   10  A    between atoms: N_10  and  C_23
   11  A    between atoms: N_10  and  C_51
   12  A    between atoms: C_11  and  C_41
   13  A    between atoms: N_14  and  O_40
   14  A    between atoms: C_16  and  C_39
   15  A    between atoms: C_16  and  N_57
   16  A    between atoms: S_17  and  C_44
   17  A    between atoms: C_23  and  C_34
   18  A    between atoms: C_24  and  O_54
   19  A    between atoms: C_26  and  C_41
   20  A    between atoms: C_30  and  C_31
   21  A    between atoms: C_31  and  C_50
   22  A    between atoms: C_32  and  O_40
   23  A    between atoms: C_34  and  C_53
   24  A    between atoms: C_34  and  N_57
   25  A    between atoms: C_48  and  C_51
                            x       y       z     vdW  Elec       q    Type
                         _______ _______ _______ _____ _____    ______ ____

>  <TORSDO>
F 25

$$$$
=
 OpenBabel11062416413D

 57 60  0  0  1  0  0  0  0  0999 V2000
  184.3130  179.8830  138.8980 O   0  0  0  0  0  0  0  0  0  0  0  0
  186.1240  179.0430  141.9100 C   0  0  0  0  0  2  0  0  0  0  0  0
  185.0730  179.2990  139.9200 C   0  0  0  0  0  0  0  0  0  0  0  0
  185.2950  179.8690  141.0540 N   0  0  0  0  0  0  0  0  0  0  0  0
  185.6980  177.9670  139.7670 C   0  0  0  0  0  2  0  0  0  0  0  0
  186.4110  177.7780  141.1020 C   0  0  1  0  0  3  0  0  0  0  0  0
  187.8480  177.5890  140.9080 N   0  0  0  0  0  2  0  0  0  0  0  0
  188.2160  176.1380  142.7150 O   0  0  0  0  0  0  0  0  0  0  0  0
  188.6900  176.7620  141.7270 C   0  0  0  0  0  0  0  0  0  0  0  0
  190.1510  176.6600  141.4370 C   0  0  2  0  0  3  0  0  0  0  0  0
  190.9560  177.0200  142.6740 C   0  0  0  0  0  2  0  0  0  0  0  0
  190.6360  178.3740  143.0890 N   0  0  0  0  0  2  0  0  0  0  0  0
  191.1160  178.5250  144.4520 C   0  0  0  0  0  2  0  0  0  0  0  0
  189.5340  177.7260  146.2160 C   0  0  1  0  0  3  0  0  0  0  0  0
  191.0720  176.4640  147.4600 C   0  0  0  0  0  2  0  0  0  0  0  0
  191.7840  176.9240  146.2110 C   0  0  0  0  0  2  0  0  0  0  0  0
  189.8090  177.1860  147.5450 N   0  0  0  0  0  2  0  0  0  0  0  0
  190.6740  177.3390  145.2920 C   0  0  2  0  0  3  0  0  0  0  0  0
  188.3350  177.2010  145.7330 O   0  0  0  0  0  0  0  0  0  0  0  0
  187.7120  178.2710  145.0870 C   0  0  0  0  0  2  0  0  0  0  0  0
  186.4280  178.4430  145.6050 O   0  0  0  0  0  1  0  0  0  0  0  0
  190.5130  177.5340  140.3300 N   0  0  0  0  0  2  0  0  0  0  0  0
  191.7690  177.0500  139.7730 C   0  0  0  0  0  2  0  0  0  0  0  0
  191.5180  176.1600  138.5570 C   0  0  0  0  0  2  0  0  0  0  0  0
  192.5710  176.3790  137.4770 C   0  0  0  0  0  2  0  0  0  0  0  0
  192.6410  174.9940  136.3520 S   0  0  0  0  0  0  0  0  0  0  0  0
  193.9710  174.3030  136.4740 O   0  0  0  0  0  0  0  0  0  0  0  0
  192.4360  175.5860  134.6880 C   0  0  0  0  0  1  0  0  0  0  0  0
  191.5380  174.0200  136.6680 O   0  0  0  0  0  0  0  0  0  0  0  0
  182.9170  179.8190  138.7930 C   0  0  0  0  0  0  0  0  0  0  0  0
  182.2230  180.8530  138.5950 O   0  0  0  0  0  0  0  0  0  0  0  0
  182.2320  178.4990  138.9360 C   0  0  2  0  0  3  0  0  0  0  0  0
  182.0090  177.8680  137.5680 C   0  0  0  0  0  2  0  0  0  0  0  0
  182.8800  173.9730  138.1340 O   0  0  0  0  0  0  0  0  0  0  0  0
  183.6900  175.9670  137.1880 N   0  0  0  0  0  0  0  0  0  0  0  0
  183.3000  177.3530  137.0100 C   0  0  0  0  0  0  0  0  0  0  0  0
  181.3850  175.1180  136.7720 N   0  0  0  0  0  2  0  0  0  0  0  0
  184.0540  178.1710  136.4180 O   0  0  0  0  0  0  0  0  0  0  0  0
  182.6610  174.9760  137.4020 C   0  0  0  0  0  0  0  0  0  0  0  0
  185.0820  175.5600  137.1610 C   0  0  0  0  0  0  0  0  0  0  0  0
  185.4190  174.4280  137.6100 O   0  0  0  0  0  0  0  0  0  0  0  0
  186.1500  176.4290  136.5530 C   0  0  1  0  0  3  0  0  0  0  0  0
  187.0060  176.9770  137.5940 N   0  0  0  0  0  1  0  0  0  0  0  0
  186.1310  174.7910  134.7390 N   0  0  0  0  0  1  0  0  0  0  0  0
  186.9890  175.6360  135.5600 C   0  0  0  0  0  2  0  0  0  0  0  0
  180.3930  174.2130  136.9650 O   0  0  0  0  0  0  0  0  0  0  0  0
  181.4080  172.7320  135.3980 C   0  0  0  0  0  2  0  0  0  0  0  0
  180.0340  171.8650  137.1740 C   0  0  0  0  0  2  0  0  0  0  0  0
  180.3750  170.6900  136.2650 C   0  0  1  0  0  3  0  0  0  0  0  0
  181.0110  172.9670  136.8370 C   0  0  2  0  0  3  0  0  0  0  0  0
  179.8080  170.7980  134.8480 C   0  0  2  0  0  3  0  0  0  0  0  0
  181.2440  171.2380  135.1410 C   0  0  1  0  0  3  0  0  0  0  0  0
  178.9310  171.8810  134.7000 O   0  0  0  0  0  1  0  0  0  0  0  0
  181.0040  178.6760  139.5770 O   0  0  0  0  0  0  0  0  0  0  0  0
  181.1950  178.1590  140.8630 C   0  0  0  0  0  2  0  0  0  0  0  0
  180.0870  175.9320  140.0020 C   0  0  0  0  0  1  0  0  0  0  0  0
  179.7680  177.1350  141.3270 S   0  0  0  0  0  0  0  0  0  0  0  0
  1  3  1  0  0  0  0
  3  4  2  0  0  0  0
  4  2  1  0  0  0  0
  5  3  1  0  0  0  0
  5  6  1  0  0  0  0
  6  7  1  6  0  0  0
  6  2  1  0  0  0  0
  7  9  1  0  0  0  0
  9  8  2  0  0  0  0
 10  9  1  0  0  0  0
 10 11  1  1  0  0  0
 11 12  1  0  0  0  0
 12 13  1  0  0  0  0
 14 19  1  6  0  0  0
 14 17  1  0  0  0  0
 15 17  1  0  0  0  0
 16 15  1  0  0  0  0
 18 13  1  1  0  0  0
 18 16  1  0  0  0  0
 18 14  1  0  0  0  0
 20 21  1  0  0  0  0
 20 19  1  0  0  0  0
 22 10  1  0  0  0  0
 23 22  1  0  0  0  0
 24 23  1  0  0  0  0
 25 24  1  0  0  0  0
 26 27  2  0  0  0  0
 26 29  2  0  0  0  0
 26 25  1  0  0  0  0
 28 26  1  0  0  0  0
 30  1  1  0  0  0  0
 30 32  1  0  0  0  0
 31 30  2  0  0  0  0
 32 33  1  6  0  0  0
 32 54  1  0  0  0  0
 35 39  1  0  0  0  0
 36 35  1  0  0  0  0
 36 33  1  0  0  0  0
 37 46  1  0  0  0  0
 37 39  1  0  0  0  0
 38 36  2  0  0  0  0
 39 34  2  0  0  0  0
 40 35  1  0  0  0  0
 40 41  2  0  0  0  0
 42 40  1  0  0  0  0
 42 43  1  1  0  0  0
 44 45  1  0  0  0  0
 45 42  1  0  0  0  0
 47 50  1  0  0  0  0
 49 48  1  1  0  0  0
 50 46  1  6  0  0  0
 50 48  1  0  0  0  0
 51 53  1  1  0  0  0
 51 52  1  0  0  0  0
 51 49  1  0  0  0  0
 52 47  1  1  0  0  0
 52 49  1  0  0  0  0
 54 55  1  0  0  0  0
 55 57  1  0  0  0  0
 56 57  1  0  0  0  0
M  END
>  <MODEL>
8

>  <REMARK>
 VINA RESULT:      -4.0      3.048      4.562
  Name = 
  25 active torsions:
  status: ('A' for Active; 'I' for Inactive)
    1  A    between atoms: C_1  and  C_26
    2  A    between atoms: C_1  and  O_54
    3  A    between atoms: O_2  and  C_26
    4  A    between atoms: O_2  and  C_44
    5  A    between atoms: C_3  and  O_42
    6  A    between atoms: C_4  and  O_42
    7  A    between atoms: N_5  and  C_49
    8  A    between atoms: C_7  and  S_28
    9  A    between atoms: C_7  and  C_39
   10  A    between atoms: N_10  and  C_23
   11  A    between atoms: N_10  and  C_51
   12  A    between atoms: C_11  and  C_41
   13  A    between atoms: N_14  and  O_40
   14  A    between atoms: C_16  and  C_39
   15  A    between atoms: C_16  and  N_57
   16  A    between atoms: S_17  and  C_44
   17  A    between atoms: C_23  and  C_34
   18  A    between atoms: C_24  and  O_54
   19  A    between atoms: C_26  and  C_41
   20  A    between atoms: C_30  and  C_31
   21  A    between atoms: C_31  and  C_50
   22  A    between atoms: C_32  and  O_40
   23  A    between atoms: C_34  and  C_53
   24  A    between atoms: C_34  and  N_57
   25  A    between atoms: C_48  and  C_51
                            x       y       z     vdW  Elec       q    Type
                         _______ _______ _______ _____ _____    ______ ____

>  <TORSDO>
F 25

$$$$
=
 OpenBabel11062416413D

 57 60  0  0  1  0  0  0  0  0999 V2000
  184.6450  179.5460  140.2150 O   0  0  0  0  0  0  0  0  0  0  0  0
  188.0600  178.4890  140.7370 C   0  0  0  0  0  2  0  0  0  0  0  0
  185.8800  178.8890  140.2680 C   0  0  0  0  0  0  0  0  0  0  0  0
  186.9190  179.3760  140.8550 N   0  0  0  0  0  0  0  0  0  0  0  0
  186.0940  177.5720  139.6310 C   0  0  0  0  0  2  0  0  0  0  0  0
  187.5610  177.2860  139.9390 C   0  0  1  0  0  3  0  0  0  0  0  0
  188.3310  177.1100  138.7090 N   0  0  0  0  0  2  0  0  0  0  0  0
  188.6790  179.3810  138.2330 O   0  0  0  0  0  0  0  0  0  0  0  0
  188.8670  178.1760  137.9100 C   0  0  0  0  0  0  0  0  0  0  0  0
  189.6270  177.8690  136.6620 C   0  0  2  0  0  3  0  0  0  0  0  0
  188.6850  177.8400  135.4700 C   0  0  0  0  0  2  0  0  0  0  0  0
  187.3630  177.4230  135.9020 N   0  0  0  0  0  2  0  0  0  0  0  0
  187.0970  176.1400  135.2750 C   0  0  0  0  0  2  0  0  0  0  0  0
  187.3860  173.6880  135.6750 C   0  0  1  0  0  3  0  0  0  0  0  0
  185.6400  173.4200  137.2180 C   0  0  0  0  0  2  0  0  0  0  0  0
  185.7690  174.8990  136.9490 C   0  0  0  0  0  2  0  0  0  0  0  0
  186.4530  172.7150  136.2360 N   0  0  0  0  0  2  0  0  0  0  0  0
  187.1230  175.0370  136.3190 C   0  0  2  0  0  3  0  0  0  0  0  0
  188.6980  173.2890  135.9340 O   0  0  0  0  0  0  0  0  0  0  0  0
  189.4410  173.7880  134.8630 C   0  0  0  0  0  2  0  0  0  0  0  0
  190.5810  173.0050  134.6820 O   0  0  0  0  0  1  0  0  0  0  0  0
  190.3180  176.5930  136.7860 N   0  0  0  0  0  2  0  0  0  0  0  0
  191.2360  176.6930  137.9130 C   0  0  0  0  0  2  0  0  0  0  0  0
  192.1740  175.4880  137.9590 C   0  0  0  0  0  2  0  0  0  0  0  0
  193.6240  175.9140  138.1590 C   0  0  0  0  0  2  0  0  0  0  0  0
  194.6160  175.5270  136.7260 S   0  0  0  0  0  0  0  0  0  0  0  0
  194.8960  176.7790  135.9430 O   0  0  0  0  0  0  0  0  0  0  0  0
  193.7300  174.3760  135.7000 C   0  0  0  0  0  1  0  0  0  0  0  0
  195.9160  174.9030  137.1560 O   0  0  0  0  0  0  0  0  0  0  0  0
  183.4430  179.0470  140.7350 C   0  0  0  0  0  0  0  0  0  0  0  0
  183.3330  178.7290  141.9500 O   0  0  0  0  0  0  0  0  0  0  0  0
  182.2690  178.8700  139.8280 C   0  0  2  0  0  3  0  0  0  0  0  0
  182.6180  179.3230  138.4170 C   0  0  0  0  0  2  0  0  0  0  0  0
  180.2860  179.0720  135.1390 O   0  0  0  0  0  0  0  0  0  0  0  0
  180.9660  180.5200  136.8630 N   0  0  0  0  0  0  0  0  0  0  0  0
  181.8150  180.5290  138.0380 C   0  0  0  0  0  0  0  0  0  0  0  0
  180.1560  178.2030  137.2910 N   0  0  0  0  0  2  0  0  0  0  0  0
  181.9330  181.5630  138.7490 O   0  0  0  0  0  0  0  0  0  0  0  0
  180.4650  179.2560  136.3740 C   0  0  0  0  0  0  0  0  0  0  0  0
  180.6150  181.7460  136.1690 C   0  0  0  0  0  0  0  0  0  0  0  0
  180.1380  181.6970  135.0000 O   0  0  0  0  0  0  0  0  0  0  0  0
  180.7460  183.0930  136.8270 C   0  0  1  0  0  3  0  0  0  0  0  0
  181.1640  184.0900  135.8530 N   0  0  0  0  0  1  0  0  0  0  0  0
  179.5040  184.8980  137.9070 N   0  0  0  0  0  1  0  0  0  0  0  0
  179.4270  183.5130  137.4610 C   0  0  0  0  0  2  0  0  0  0  0  0
  179.7000  177.0010  136.8630 O   0  0  0  0  0  0  0  0  0  0  0  0
  181.6960  175.7020  136.9530 C   0  0  0  0  0  2  0  0  0  0  0  0
  179.6060  174.7690  137.6990 C   0  0  0  0  0  2  0  0  0  0  0  0
  180.6290  173.6390  137.7250 C   0  0  1  0  0  3  0  0  0  0  0  0
  180.3910  176.0580  137.6280 C   0  0  2  0  0  3  0  0  0  0  0  0
  181.1850  173.2570  136.3520 C   0  0  2  0  0  3  0  0  0  0  0  0
  181.9510  174.2280  137.2520 C   0  0  1  0  0  3  0  0  0  0  0  0
  180.5200  173.9020  135.3010 O   0  0  0  0  0  1  0  0  0  0  0  0
  181.1890  179.6140  140.3070 O   0  0  0  0  0  0  0  0  0  0  0  0
  180.2420  178.6610  140.6950 C   0  0  0  0  0  2  0  0  0  0  0  0
  180.0820  179.1410  143.2790 C   0  0  0  0  0  1  0  0  0  0  0  0
  179.0350  179.4220  141.8200 S   0  0  0  0  0  0  0  0  0  0  0  0
  1  3  1  0  0  0  0
  1 30  1  0  0  0  0
  2  4  1  0  0  0  0
  3  4  2  0  0  0  0
  5  6  1  0  0  0  0
  5  3  1  0  0  0  0
  6  7  1  6  0  0  0
  6  2  1  0  0  0  0
  9  8  2  0  0  0  0
  9  7  1  0  0  0  0
 10 11  1  6  0  0  0
 10 22  1  0  0  0  0
 10  9  1  0  0  0  0
 11 12  1  0  0  0  0
 13 12  1  0  0  0  0
 14 19  1  1  0  0  0
 14 17  1  0  0  0  0
 14 18  1  0  0  0  0
 16 15  1  0  0  0  0
 17 15  1  0  0  0  0
 18 13  1  6  0  0  0
 18 16  1  0  0  0  0
 20 19  1  0  0  0  0
 21 20  1  0  0  0  0
 22 23  1  0  0  0  0
 23 24  1  0  0  0  0
 24 25  1  0  0  0  0
 26 29  2  0  0  0  0
 26 25  1  0  0  0  0
 27 26  2  0  0  0  0
 28 26  1  0  0  0  0
 30 31  2  0  0  0  0
 32 33  1  6  0  0  0
 32 54  1  0  0  0  0
 32 30  1  0  0  0  0
 34 39  2  0  0  0  0
 35 36  1  0  0  0  0
 36 33  1  0  0  0  0
 36 38  2  0  0  0  0
 39 35  1  0  0  0  0
 39 37  1  0  0  0  0
 40 42  1  0  0  0  0
 40 35  1  0  0  0  0
 41 40  2  0  0  0  0
 42 43  1  6  0  0  0
 42 45  1  0  0  0  0
 45 44  1  0  0  0  0
 46 37  1  0  0  0  0
 47 50  1  0  0  0  0
 49 48  1  6  0  0  0
 50 46  1  6  0  0  0
 50 48  1  0  0  0  0
 51 53  1  6  0  0  0
 51 52  1  0  0  0  0
 51 49  1  0  0  0  0
 52 47  1  6  0  0  0
 52 49  1  0  0  0  0
 54 55  1  0  0  0  0
 55 57  1  0  0  0  0
 57 56  1  0  0  0  0
M  END
>  <MODEL>
9

>  <REMARK>
 VINA RESULT:      -4.0      3.387      5.776
  Name = 
  25 active torsions:
  status: ('A' for Active; 'I' for Inactive)
    1  A    between atoms: C_1  and  C_26
    2  A    between atoms: C_1  and  O_54
    3  A    between atoms: O_2  and  C_26
    4  A    between atoms: O_2  and  C_44
    5  A    between atoms: C_3  and  O_42
    6  A    between atoms: C_4  and  O_42
    7  A    between atoms: N_5  and  C_49
    8  A    between atoms: C_7  and  S_28
    9  A    between atoms: C_7  and  C_39
   10  A    between atoms: N_10  and  C_23
   11  A    between atoms: N_10  and  C_51
   12  A    between atoms: C_11  and  C_41
   13  A    between atoms: N_14  and  O_40
   14  A    between atoms: C_16  and  C_39
   15  A    between atoms: C_16  and  N_57
   16  A    between atoms: S_17  and  C_44
   17  A    between atoms: C_23  and  C_34
   18  A    between atoms: C_24  and  O_54
   19  A    between atoms: C_26  and  C_41
   20  A    between atoms: C_30  and  C_31
   21  A    between atoms: C_31  and  C_50
   22  A    between atoms: C_32  and  O_40
   23  A    between atoms: C_34  and  C_53
   24  A    between atoms: C_34  and  N_57
   25  A    between atoms: C_48  and  C_51
                            x       y       z     vdW  Elec       q    Type
                         _______ _______ _______ _____ _____    ______ ____

>  <TORSDO>
F 25

$$$$
