=
 OpenBabel11062417203D

 60 63  0  0  1  0  0  0  0  0999 V2000
  186.8200  178.3790  145.0250 O   0  0  0  0  0  0  0  0  0  0  0  0
  186.9110  177.9250  143.5960 S   0  0  0  0  0  0  0  0  0  0  0  0
  186.6530  176.4450  143.5500 O   0  0  0  0  0  0  0  0  0  0  0  0
  191.1830  176.9750  144.9580 C   0  0  0  0  0  0  0  0  0  0  0  0
  189.7040  177.1020  144.8690 C   0  0  2  0  0  3  0  0  0  0  0  0
  189.5910  177.9050  143.6140 C   0  0  0  0  0  0  0  0  0  0  0  0
  188.5000  178.2690  143.0270 N   0  0  0  0  0  0  0  0  0  0  0  0
  190.9430  178.0980  143.0010 C   0  0  1  0  0  3  0  0  0  0  0  0
  189.6700  176.9970  147.3490 C   0  0  0  0  0  2  0  0  0  0  0  0
  189.2600  177.8350  146.1300 C   0  0  0  0  0  2  0  0  0  0  0  0
  191.1410  176.6430  147.3090 C   0  0  0  0  0  3  0  0  0  0  0  0
  191.8410  177.5170  143.9870 N   0  0  0  0  0  0  0  0  0  0  0  0
  191.8160  176.6290  146.1940 N   0  0  0  0  0  0  0  0  0  0  0  0
  191.0680  177.3300  141.6920 C   0  0  0  0  0  2  0  0  0  0  0  0
  189.9490  177.5620  140.8900 O   0  0  0  0  0  0  0  0  0  0  0  0
  190.3930  177.3230  139.5890 C   0  0  0  0  0  2  0  0  0  0  0  0
  189.3120  177.6770  138.5770 C   0  0  1  0  0  3  0  0  0  0  0  0
  188.7610  178.9190  138.8950 O   0  0  0  0  0  1  0  0  0  0  0  0
  189.8550  177.7110  137.1470 C   0  0  0  0  0  2  0  0  0  0  0  0
  189.5660  176.4290  136.3540 C   0  0  2  0  0  3  0  0  0  0  0  0
  188.4460  175.7760  136.8810 O   0  0  0  0  0  0  0  0  0  0  0  0
  187.4460  175.9420  135.9190 C   0  0  0  0  0  2  0  0  0  0  0  0
  186.7060  174.6340  135.7140 C   0  0  0  0  0  2  0  0  0  0  0  0
  186.9790  173.7650  136.7720 O   0  0  0  0  0  1  0  0  0  0  0  0
  190.7750  175.4890  136.3140 C   0  0  2  0  0  3  0  0  0  0  0  0
  190.2790  173.1530  136.2220 O   0  0  0  0  0  1  0  0  0  0  0  0
  190.4790  174.2190  137.1000 C   0  0  0  0  0  2  0  0  0  0  0  0
  191.8960  176.1230  136.8630 O   0  0  0  0  0  0  0  0  0  0  0  0
  192.4990  175.1520  137.6670 C   0  0  0  0  0  2  0  0  0  0  0  0
  194.1680  175.2220  135.9620 O   0  0  0  0  0  1  0  0  0  0  0  0
  194.4930  173.6910  137.7500 C   0  0  0  0  0  1  0  0  0  0  0  0
  193.9760  175.0520  137.3340 C   0  0  2  0  0  3  0  0  0  0  0  0
  183.4070  178.8390  140.7580 C   0  0  2  0  0  3  0  0  0  0  0  0
  184.8090  179.3190  140.3710 C   0  0  0  0  0  2  0  0  0  0  0  0
  183.2580  178.6610  142.2450 C   0  0  0  0  0  0  0  0  0  0  0  0
  184.3820  178.4850  143.0600 O   0  0  0  0  0  0  0  0  0  0  0  0
  185.7010  178.8250  142.6310 C   0  0  2  0  0  3  0  0  0  0  0  0
  182.1070  178.6000  142.7530 O   0  0  0  0  0  0  0  0  0  0  0  0
  185.8830  178.5620  141.1400 C   0  0  0  0  0  2  0  0  0  0  0  0
  182.7710  177.6350  138.7810 C   0  0  0  0  0  3  0  0  0  0  0  0
  183.0420  177.6340  140.0410 N   0  0  0  0  0  0  0  0  0  0  0  0
  183.4130  174.3500  137.5110 C   0  0  0  0  0  0  0  0  0  0  0  0
  182.7430  176.3340  136.5350 C   0  0  2  0  0  0  0  0  0  0  0  0
  183.8550  173.1740  137.5760 O   0  0  0  0  0  0  0  0  0  0  0  0
  183.1300  175.1910  138.6900 C   0  0  0  0  0  2  0  0  0  0  0  0
  183.1560  174.9900  136.3190 O   0  0  0  0  0  0  0  0  0  0  0  0
  181.0120  176.1470  138.2670 O   0  0  0  0  0  1  0  0  0  0  0  0
  182.3800  176.3710  138.0700 C   0  0  1  0  0  0  0  0  0  0  0  0
  180.9960  175.7290  134.9900 O   0  0  0  0  0  0  0  0  0  0  0  0
  181.1200  178.0060  135.5000 N   0  0  0  0  0  2  0  0  0  0  0  0
  181.5640  176.6520  135.6410 C   0  0  0  0  0  0  0  0  0  0  0  0
  180.0510  178.3960  134.5940 C   0  0  0  0  0  2  0  0  0  0  0  0
  180.4750  180.6330  135.4870 C   0  0  0  0  0  3  0  0  0  0  0  0
  179.6390  179.8020  134.8670 C   0  0  0  0  0  3  0  0  0  0  0  0
  180.0800  182.0480  135.7710 C   0  0  0  0  0  2  0  0  0  0  0  0
  180.5430  184.3970  135.2920 N   0  0  0  0  0  1  0  0  0  0  0  0
  180.9720  183.0330  135.0260 C   0  0  0  0  0  2  0  0  0  0  0  0
  184.7600  177.7220  137.1770 O   0  0  0  0  0  1  0  0  0  0  0  0
  184.1540  177.5220  134.9820 O   0  0  0  0  0  0  0  0  0  0  0  0
  183.9080  177.2420  136.1860 C   0  0  0  0  0  0  0  0  0  0  0  0
  2  1  2  0  0  0  0
  3  2  2  0  0  0  0
  4 13  1  0  0  0  0
  5  4  1  0  0  0  0
  5 10  1  1  0  0  0
  6  5  1  0  0  0  0
  7  2  1  0  0  0  0
  7  6  2  0  0  0  0
  8 14  1  6  0  0  0
  8  6  1  0  0  0  0
  8 12  1  0  0  0  0
 10  9  1  0  0  0  0
 11  9  1  0  0  0  0
 12  4  2  0  0  0  0
 13 11  2  0  0  0  0
 15 14  1  0  0  0  0
 16 15  1  0  0  0  0
 17 18  1  1  0  0  0
 17 16  1  0  0  0  0
 19 17  1  0  0  0  0
 20 21  1  0  0  0  0
 20 19  1  1  0  0  0
 22 21  1  0  0  0  0
 23 22  1  0  0  0  0
 23 24  1  0  0  0  0
 25 20  1  0  0  0  0
 25 28  1  0  0  0  0
 25 27  1  1  0  0  0
 26 27  1  0  0  0  0
 28 29  1  0  0  0  0
 30 32  1  0  0  0  0
 32 29  1  0  0  0  0
 32 31  1  6  0  0  0
 33 41  1  6  0  0  0
 33 35  1  0  0  0  0
 34 33  1  0  0  0  0
 34 39  1  0  0  0  0
 35 38  2  0  0  0  0
 35 36  1  0  0  0  0
 37 36  1  0  0  0  0
 37  2  1  1  0  0  0
 39 37  1  0  0  0  0
 40 41  2  0  0  0  0
 42 44  2  0  0  0  0
 42 45  1  0  0  0  0
 43 51  1  6  0  0  0
 43 48  1  0  0  0  0
 46 43  1  0  0  0  0
 46 42  1  0  0  0  0
 48 47  1  1  0  0  0
 48 45  1  0  0  0  0
 48 40  1  0  0  0  0
 49 51  2  0  0  0  0
 50 51  1  0  0  0  0
 52 54  1  0  0  0  0
 52 50  1  0  0  0  0
 53 55  1  0  0  0  0
 54 53  2  0  0  0  0
 57 56  1  0  0  0  0
 57 55  1  0  0  0  0
 59 60  2  0  0  0  0
 60 43  1  0  0  0  0
 60 58  1  0  0  0  0
M  END
>  <MODEL>
1

>  <REMARK>
 VINA RESULT:      -6.2      0.000      0.000
  Name = 
  24 active torsions:
  status: ('A' for Active; 'I' for Inactive)
    1  A    between atoms: C_3  and  C_26
    2  A    between atoms: C_3  and  C_56
    3  A    between atoms: C_4  and  N_19
    4  A    between atoms: C_5  and  C_48
    5  A    between atoms: C_6  and  C_22
    6  A    between atoms: C_6  and  C_44
    7  A    between atoms: C_7  and  O_50
    8  A    between atoms: C_7  and  C_51
    9  A    between atoms: C_11  and  C_39
   10  A    between atoms: N_17  and  S_46
   11  A    between atoms: C_18  and  C_47
   12  A    between atoms: C_18  and  C_59
   13  A    between atoms: C_24  and  C_53
   14  A    between atoms: C_26  and  O_43
   15  A    between atoms: C_31  and  S_46
   16  A    between atoms: N_32  and  C_53
   17  A    between atoms: C_35  and  C_41
   18  A    between atoms: C_41  and  O_43
   19  A    between atoms: O_45  and  C_48
   20  A    between atoms: O_45  and  C_49
   21  A    between atoms: C_49  and  C_55
   22  A    between atoms: C_49  and  C_56
   23  A    between atoms: O_50  and  C_55
   24  A    between atoms: C_55  and  C_58
                            x       y       z     vdW  Elec       q    Type
                         _______ _______ _______ _____ _____    ______ ____

>  <TORSDO>
F 24

$$$$
=
 OpenBabel11062417203D

 60 63  0  0  1  0  0  0  0  0999 V2000
  186.8950  178.5010  144.9000 O   0  0  0  0  0  0  0  0  0  0  0  0
  186.8350  177.9160  143.5170 S   0  0  0  0  0  0  0  0  0  0  0  0
  186.4880  176.4570  143.6340 O   0  0  0  0  0  0  0  0  0  0  0  0
  191.1300  176.6890  144.5460 C   0  0  0  0  0  0  0  0  0  0  0  0
  189.6630  176.9310  144.5810 C   0  0  2  0  0  3  0  0  0  0  0  0
  189.4950  177.6790  143.2990 C   0  0  0  0  0  0  0  0  0  0  0  0
  188.3850  178.1010  142.7910 N   0  0  0  0  0  0  0  0  0  0  0  0
  190.7960  177.7320  142.5590 C   0  0  1  0  0  3  0  0  0  0  0  0
  189.8510  176.9490  147.0560 C   0  0  0  0  0  2  0  0  0  0  0  0
  189.3950  177.7570  145.8340 C   0  0  0  0  0  2  0  0  0  0  0  0
  191.2810  176.4750  146.9050 C   0  0  0  0  0  3  0  0  0  0  0  0
  191.7340  177.1290  143.4920 N   0  0  0  0  0  0  0  0  0  0  0  0
  191.8460  176.3530  145.7380 N   0  0  0  0  0  0  0  0  0  0  0  0
  190.7400  176.8950  141.2880 C   0  0  0  0  0  2  0  0  0  0  0  0
  191.3820  177.5620  140.2440 O   0  0  0  0  0  0  0  0  0  0  0  0
  191.4150  176.6340  139.2020 C   0  0  0  0  0  2  0  0  0  0  0  0
  192.7180  176.7460  138.4210 C   0  0  1  0  0  3  0  0  0  0  0  0
  193.6720  177.4110  139.1930 O   0  0  0  0  0  1  0  0  0  0  0  0
  193.2590  175.3760  138.0090 C   0  0  0  0  0  2  0  0  0  0  0  0
  193.9090  175.3690  136.6180 C   0  0  2  0  0  3  0  0  0  0  0  0
  194.1170  176.6790  136.1740 O   0  0  0  0  0  0  0  0  0  0  0  0
  194.6960  176.5450  134.9100 C   0  0  0  0  0  2  0  0  0  0  0  0
  195.9670  177.3700  134.8360 C   0  0  0  0  0  2  0  0  0  0  0  0
  195.7670  178.6040  135.4560 O   0  0  0  0  0  1  0  0  0  0  0  0
  193.0860  174.5730  135.6000 C   0  0  2  0  0  3  0  0  0  0  0  0
  190.7160  174.8800  135.6210 O   0  0  0  0  0  1  0  0  0  0  0  0
  191.7550  174.1580  136.2110 C   0  0  0  0  0  2  0  0  0  0  0  0
  193.7890  173.4300  135.2000 O   0  0  0  0  0  0  0  0  0  0  0  0
  193.6510  172.5350  136.2640 C   0  0  0  0  0  2  0  0  0  0  0  0
  195.9360  171.8600  136.4130 O   0  0  0  0  0  1  0  0  0  0  0  0
  194.6140  170.8830  134.6960 C   0  0  0  0  0  1  0  0  0  0  0  0
  194.6510  171.4020  136.1170 C   0  0  2  0  0  3  0  0  0  0  0  0
  183.2660  178.7920  140.7490 C   0  0  2  0  0  3  0  0  0  0  0  0
  184.6570  179.2760  140.3290 C   0  0  0  0  0  2  0  0  0  0  0  0
  183.1500  178.6240  142.2410 C   0  0  0  0  0  0  0  0  0  0  0  0
  184.2920  178.4590  143.0320 O   0  0  0  0  0  0  0  0  0  0  0  0
  185.6000  178.8020  142.5730 C   0  0  2  0  0  3  0  0  0  0  0  0
  182.0110  178.5610  142.7730 O   0  0  0  0  0  0  0  0  0  0  0  0
  185.7510  178.5290  141.0800 C   0  0  0  0  0  2  0  0  0  0  0  0
  182.8450  177.5120  138.7620 C   0  0  0  0  0  3  0  0  0  0  0  0
  182.8910  177.5810  140.0480 N   0  0  0  0  0  0  0  0  0  0  0  0
  183.4760  174.2520  137.4260 C   0  0  0  0  0  0  0  0  0  0  0  0
  182.7030  176.2270  136.5120 C   0  0  2  0  0  0  0  0  0  0  0  0
  183.9470  173.0850  137.4510 O   0  0  0  0  0  0  0  0  0  0  0  0
  183.2500  175.0780  138.6280 C   0  0  0  0  0  2  0  0  0  0  0  0
  183.1300  174.8940  136.2580 O   0  0  0  0  0  0  0  0  0  0  0  0
  181.0890  175.9890  138.3480 O   0  0  0  0  0  1  0  0  0  0  0  0
  182.4370  176.2450  138.0660 C   0  0  1  0  0  0  0  0  0  0  0  0
  180.8660  175.5930  135.0870 O   0  0  0  0  0  0  0  0  0  0  0  0
  180.9900  177.8730  135.5830 N   0  0  0  0  0  2  0  0  0  0  0  0
  181.4620  176.5250  135.6970 C   0  0  0  0  0  0  0  0  0  0  0  0
  179.8580  178.2440  134.7490 C   0  0  0  0  0  2  0  0  0  0  0  0
  180.5910  180.5020  135.3370 C   0  0  0  0  0  3  0  0  0  0  0  0
  179.8020  179.7270  134.5970 C   0  0  0  0  0  3  0  0  0  0  0  0
  180.5500  181.9920  135.2000 C   0  0  0  0  0  2  0  0  0  0  0  0
  181.0960  183.9870  136.4980 N   0  0  0  0  0  1  0  0  0  0  0  0
  180.4780  182.6720  136.5610 C   0  0  0  0  0  2  0  0  0  0  0  0
  184.6610  177.7380  137.0490 O   0  0  0  0  0  1  0  0  0  0  0  0
  184.0450  177.3830  134.8770 O   0  0  0  0  0  0  0  0  0  0  0  0
  183.8230  177.1640  136.0970 C   0  0  0  0  0  0  0  0  0  0  0  0
  2  3  2  0  0  0  0
  2  1  2  0  0  0  0
  4  5  1  0  0  0  0
  4 13  1  0  0  0  0
  5 10  1  1  0  0  0
  6  5  1  0  0  0  0
  7  6  2  0  0  0  0
  7  2  1  0  0  0  0
  8 14  1  6  0  0  0
  8  6  1  0  0  0  0
  8 12  1  0  0  0  0
 10  9  1  0  0  0  0
 11  9  1  0  0  0  0
 12  4  2  0  0  0  0
 13 11  2  0  0  0  0
 15 14  1  0  0  0  0
 16 15  1  0  0  0  0
 17 18  1  1  0  0  0
 17 16  1  0  0  0  0
 19 17  1  0  0  0  0
 20 19  1  1  0  0  0
 21 20  1  0  0  0  0
 22 21  1  0  0  0  0
 23 22  1  0  0  0  0
 23 24  1  0  0  0  0
 25 27  1  1  0  0  0
 25 20  1  0  0  0  0
 26 27  1  0  0  0  0
 28 25  1  0  0  0  0
 28 29  1  0  0  0  0
 32 31  1  6  0  0  0
 32 29  1  0  0  0  0
 32 30  1  0  0  0  0
 33 41  1  6  0  0  0
 33 35  1  0  0  0  0
 34 33  1  0  0  0  0
 34 39  1  0  0  0  0
 35 38  2  0  0  0  0
 35 36  1  0  0  0  0
 37 36  1  0  0  0  0
 37  2  1  1  0  0  0
 39 37  1  0  0  0  0
 40 41  2  0  0  0  0
 42 44  2  0  0  0  0
 42 45  1  0  0  0  0
 43 51  1  6  0  0  0
 43 48  1  0  0  0  0
 46 43  1  0  0  0  0
 46 42  1  0  0  0  0
 48 47  1  1  0  0  0
 48 45  1  0  0  0  0
 48 40  1  0  0  0  0
 49 51  2  0  0  0  0
 50 51  1  0  0  0  0
 52 50  1  0  0  0  0
 54 52  1  0  0  0  0
 54 53  2  0  0  0  0
 55 53  1  0  0  0  0
 55 57  1  0  0  0  0
 56 57  1  0  0  0  0
 59 60  2  0  0  0  0
 60 43  1  0  0  0  0
 60 58  1  0  0  0  0
M  END
>  <MODEL>
2

>  <REMARK>
 VINA RESULT:      -5.7      1.441      2.760
  Name = 
  24 active torsions:
  status: ('A' for Active; 'I' for Inactive)
    1  A    between atoms: C_3  and  C_26
    2  A    between atoms: C_3  and  C_56
    3  A    between atoms: C_4  and  N_19
    4  A    between atoms: C_5  and  C_48
    5  A    between atoms: C_6  and  C_22
    6  A    between atoms: C_6  and  C_44
    7  A    between atoms: C_7  and  O_50
    8  A    between atoms: C_7  and  C_51
    9  A    between atoms: C_11  and  C_39
   10  A    between atoms: N_17  and  S_46
   11  A    between atoms: C_18  and  C_47
   12  A    between atoms: C_18  and  C_59
   13  A    between atoms: C_24  and  C_53
   14  A    between atoms: C_26  and  O_43
   15  A    between atoms: C_31  and  S_46
   16  A    between atoms: N_32  and  C_53
   17  A    between atoms: C_35  and  C_41
   18  A    between atoms: C_41  and  O_43
   19  A    between atoms: O_45  and  C_48
   20  A    between atoms: O_45  and  C_49
   21  A    between atoms: C_49  and  C_55
   22  A    between atoms: C_49  and  C_56
   23  A    between atoms: O_50  and  C_55
   24  A    between atoms: C_55  and  C_58
                            x       y       z     vdW  Elec       q    Type
                         _______ _______ _______ _____ _____    ______ ____

>  <TORSDO>
F 24

$$$$
=
 OpenBabel11062417203D

 60 63  0  0  1  0  0  0  0  0999 V2000
  187.0040  177.6220  144.8450 O   0  0  0  0  0  0  0  0  0  0  0  0
  187.2450  177.6100  143.3620 S   0  0  0  0  0  0  0  0  0  0  0  0
  187.1470  176.1910  142.8770 O   0  0  0  0  0  0  0  0  0  0  0  0
  191.3670  177.1790  145.3200 C   0  0  0  0  0  0  0  0  0  0  0  0
  189.9160  177.0960  145.0060 C   0  0  2  0  0  3  0  0  0  0  0  0
  189.8630  177.9790  143.8020 C   0  0  0  0  0  0  0  0  0  0  0  0
  188.8260  178.2290  143.0740 N   0  0  0  0  0  0  0  0  0  0  0  0
  191.2430  178.4190  143.4240 C   0  0  1  0  0  3  0  0  0  0  0  0
  189.5350  176.7740  147.4380 C   0  0  0  0  0  2  0  0  0  0  0  0
  189.1820  177.6450  146.2250 C   0  0  0  0  0  2  0  0  0  0  0  0
  191.0330  176.6430  147.6090 C   0  0  0  0  0  3  0  0  0  0  0  0
  192.0670  177.8920  144.5010 N   0  0  0  0  0  0  0  0  0  0  0  0
  191.8580  176.8230  146.6160 N   0  0  0  0  0  0  0  0  0  0  0  0
  191.6780  177.7930  142.1050 C   0  0  0  0  0  2  0  0  0  0  0  0
  190.5630  177.3360  141.4000 O   0  0  0  0  0  0  0  0  0  0  0  0
  190.8760  177.5710  140.0600 C   0  0  0  0  0  2  0  0  0  0  0  0
  189.6180  177.5410  139.2010 C   0  0  1  0  0  3  0  0  0  0  0  0
  189.1140  178.8350  139.0630 O   0  0  0  0  0  1  0  0  0  0  0  0
  189.8850  176.9470  137.8160 C   0  0  0  0  0  2  0  0  0  0  0  0
  189.3720  175.5090  137.6610 C   0  0  2  0  0  3  0  0  0  0  0  0
  190.4450  174.6280  137.4870 O   0  0  0  0  0  0  0  0  0  0  0  0
  190.6790  174.6110  136.1100 C   0  0  0  0  0  2  0  0  0  0  0  0
  192.1720  174.6270  135.8410 C   0  0  0  0  0  2  0  0  0  0  0  0
  192.6490  175.9370  135.8940 O   0  0  0  0  0  1  0  0  0  0  0  0
  188.3670  175.3750  136.5130 C   0  0  2  0  0  3  0  0  0  0  0  0
  188.3520  176.9350  134.7030 O   0  0  0  0  0  1  0  0  0  0  0  0
  187.9420  176.7530  136.0240 C   0  0  0  0  0  2  0  0  0  0  0  0
  187.2370  174.6670  136.9410 O   0  0  0  0  0  0  0  0  0  0  0  0
  186.8120  173.9570  135.8150 C   0  0  0  0  0  2  0  0  0  0  0  0
  186.3630  172.4600  137.6190 O   0  0  0  0  0  1  0  0  0  0  0  0
  187.1620  171.5190  135.5880 C   0  0  0  0  0  1  0  0  0  0  0  0
  186.3040  172.5880  136.2310 C   0  0  2  0  0  3  0  0  0  0  0  0
  183.5670  178.9430  140.9400 C   0  0  2  0  0  3  0  0  0  0  0  0
  184.9590  179.3480  140.4440 C   0  0  0  0  0  2  0  0  0  0  0  0
  183.5470  178.6830  142.4230 C   0  0  0  0  0  0  0  0  0  0  0  0
  184.7270  178.3780  143.1120 O   0  0  0  0  0  0  0  0  0  0  0  0
  186.0210  178.6510  142.5740 C   0  0  2  0  0  3  0  0  0  0  0  0
  182.4480  178.6700  143.0370 O   0  0  0  0  0  0  0  0  0  0  0  0
  186.0410  178.4700  141.0600 C   0  0  0  0  0  2  0  0  0  0  0  0
  182.8480  177.8580  138.9240 C   0  0  0  0  0  3  0  0  0  0  0  0
  183.0460  177.8150  140.1960 N   0  0  0  0  0  0  0  0  0  0  0  0
  183.0260  174.5310  137.6150 C   0  0  0  0  0  0  0  0  0  0  0  0
  182.6800  176.6050  136.6570 C   0  0  2  0  0  0  0  0  0  0  0  0
  183.2880  173.3020  137.6700 O   0  0  0  0  0  0  0  0  0  0  0  0
  182.8430  175.3900  138.8010 C   0  0  0  0  0  2  0  0  0  0  0  0
  182.8940  175.2170  136.4280 O   0  0  0  0  0  0  0  0  0  0  0  0
  180.9000  176.6540  138.3480 O   0  0  0  0  0  1  0  0  0  0  0  0
  182.2900  176.6750  138.1840 C   0  0  1  0  0  0  0  0  0  0  0  0
  180.8670  176.2830  135.1030 O   0  0  0  0  0  0  0  0  0  0  0  0
  181.3820  178.5130  135.5720 N   0  0  0  0  0  2  0  0  0  0  0  0
  181.5820  177.1050  135.7430 C   0  0  0  0  0  0  0  0  0  0  0  0
  180.4060  179.0650  134.6460 C   0  0  0  0  0  2  0  0  0  0  0  0
  180.2940  181.4020  135.3580 C   0  0  0  0  0  3  0  0  0  0  0  0
  179.6980  180.2140  135.2790 C   0  0  0  0  0  3  0  0  0  0  0  0
  179.6000  182.5680  135.9890 C   0  0  0  0  0  2  0  0  0  0  0  0
  181.2960  184.3090  135.7520 N   0  0  0  0  0  1  0  0  0  0  0  0
  179.9800  183.8760  135.3080 C   0  0  0  0  0  2  0  0  0  0  0  0
  184.6320  178.0680  137.3310 O   0  0  0  0  0  1  0  0  0  0  0  0
  184.5020  177.2320  135.2080 O   0  0  0  0  0  0  0  0  0  0  0  0
  183.9740  177.3340  136.3480 C   0  0  0  0  0  0  0  0  0  0  0  0
  2  1  2  0  0  0  0
  3  2  2  0  0  0  0
  4 13  1  0  0  0  0
  5  4  1  0  0  0  0
  5 10  1  1  0  0  0
  6  5  1  0  0  0  0
  7  2  1  0  0  0  0
  7  6  2  0  0  0  0
  8 14  1  6  0  0  0
  8  6  1  0  0  0  0
  8 12  1  0  0  0  0
  9 11  1  0  0  0  0
 10  9  1  0  0  0  0
 12  4  2  0  0  0  0
 13 11  2  0  0  0  0
 15 14  1  0  0  0  0
 16 15  1  0  0  0  0
 17 18  1  6  0  0  0
 17 16  1  0  0  0  0
 19 17  1  0  0  0  0
 20 19  1  6  0  0  0
 21 20  1  0  0  0  0
 22 21  1  0  0  0  0
 23 24  1  0  0  0  0
 23 22  1  0  0  0  0
 25 27  1  1  0  0  0
 25 28  1  0  0  0  0
 25 20  1  0  0  0  0
 26 27  1  0  0  0  0
 29 32  1  0  0  0  0
 29 28  1  0  0  0  0
 32 31  1  6  0  0  0
 32 30  1  0  0  0  0
 33 41  1  6  0  0  0
 33 35  1  0  0  0  0
 34 33  1  0  0  0  0
 34 39  1  0  0  0  0
 35 38  2  0  0  0  0
 35 36  1  0  0  0  0
 37 36  1  0  0  0  0
 37  2  1  1  0  0  0
 39 37  1  0  0  0  0
 40 41  2  0  0  0  0
 42 44  2  0  0  0  0
 42 45  1  0  0  0  0
 43 51  1  6  0  0  0
 43 48  1  0  0  0  0
 46 43  1  0  0  0  0
 46 42  1  0  0  0  0
 48 47  1  1  0  0  0
 48 45  1  0  0  0  0
 48 40  1  0  0  0  0
 49 51  2  0  0  0  0
 50 51  1  0  0  0  0
 52 54  1  0  0  0  0
 52 50  1  0  0  0  0
 53 55  1  0  0  0  0
 54 53  2  0  0  0  0
 57 56  1  0  0  0  0
 57 55  1  0  0  0  0
 59 60  2  0  0  0  0
 60 43  1  0  0  0  0
 60 58  1  0  0  0  0
M  END
>  <MODEL>
3

>  <REMARK>
 VINA RESULT:      -5.5      0.950      2.598
  Name = 
  24 active torsions:
  status: ('A' for Active; 'I' for Inactive)
    1  A    between atoms: C_3  and  C_26
    2  A    between atoms: C_3  and  C_56
    3  A    between atoms: C_4  and  N_19
    4  A    between atoms: C_5  and  C_48
    5  A    between atoms: C_6  and  C_22
    6  A    between atoms: C_6  and  C_44
    7  A    between atoms: C_7  and  O_50
    8  A    between atoms: C_7  and  C_51
    9  A    between atoms: C_11  and  C_39
   10  A    between atoms: N_17  and  S_46
   11  A    between atoms: C_18  and  C_47
   12  A    between atoms: C_18  and  C_59
   13  A    between atoms: C_24  and  C_53
   14  A    between atoms: C_26  and  O_43
   15  A    between atoms: C_31  and  S_46
   16  A    between atoms: N_32  and  C_53
   17  A    between atoms: C_35  and  C_41
   18  A    between atoms: C_41  and  O_43
   19  A    between atoms: O_45  and  C_48
   20  A    between atoms: O_45  and  C_49
   21  A    between atoms: C_49  and  C_55
   22  A    between atoms: C_49  and  C_56
   23  A    between atoms: O_50  and  C_55
   24  A    between atoms: C_55  and  C_58
                            x       y       z     vdW  Elec       q    Type
                         _______ _______ _______ _____ _____    ______ ____

>  <TORSDO>
F 24

$$$$
=
 OpenBabel11062417203D

 60 63  0  0  1  0  0  0  0  0999 V2000
  188.1710  179.2210  137.0080 O   0  0  0  0  0  0  0  0  0  0  0  0
  187.3200  178.1460  137.6220 S   0  0  0  0  0  0  0  0  0  0  0  0
  186.2570  178.8030  138.4580 O   0  0  0  0  0  0  0  0  0  0  0  0
  191.4990  176.2990  137.2630 C   0  0  0  0  0  0  0  0  0  0  0  0
  190.2190  177.0060  136.9940 C   0  0  2  0  0  3  0  0  0  0  0  0
  189.5000  176.7310  138.2740 C   0  0  0  0  0  0  0  0  0  0  0  0
  188.3320  177.1650  138.6120 N   0  0  0  0  0  0  0  0  0  0  0  0
  190.4020  176.0080  139.2270 C   0  0  1  0  0  3  0  0  0  0  0  0
  190.5810  176.4890  134.5940 C   0  0  0  0  0  2  0  0  0  0  0  0
  189.6070  176.3350  135.7700 C   0  0  0  0  0  2  0  0  0  0  0  0
  191.9690  176.0020  134.9550 C   0  0  0  0  0  3  0  0  0  0  0  0
  191.5920  175.7540  138.4310 N   0  0  0  0  0  0  0  0  0  0  0  0
  192.3740  175.9340  136.1910 N   0  0  0  0  0  0  0  0  0  0  0  0
  190.7690  176.8910  140.4130 C   0  0  0  0  0  2  0  0  0  0  0  0
  190.5740  176.1950  141.6080 O   0  0  0  0  0  0  0  0  0  0  0  0
  190.0070  177.1340  142.4710 C   0  0  0  0  0  2  0  0  0  0  0  0
  190.5340  176.9500  143.8890 C   0  0  1  0  0  3  0  0  0  0  0  0
  191.9030  176.6850  143.8490 O   0  0  0  0  0  1  0  0  0  0  0  0
  190.2770  178.1810  144.7600 C   0  0  0  0  0  2  0  0  0  0  0  0
  189.7400  177.8390  146.1570 C   0  0  2  0  0  3  0  0  0  0  0  0
  190.2650  176.6170  146.5920 O   0  0  0  0  0  0  0  0  0  0  0  0
  191.4360  176.9510  147.2760 C   0  0  0  0  0  2  0  0  0  0  0  0
  192.3480  175.7410  147.3580 C   0  0  0  0  0  2  0  0  0  0  0  0
  192.6170  175.4410  148.6930 O   0  0  0  0  0  1  0  0  0  0  0  0
  188.2090  177.8190  146.1980 C   0  0  2  0  0  3  0  0  0  0  0  0
  187.7610  178.3690  148.4800 O   0  0  0  0  0  1  0  0  0  0  0  0
  187.7260  177.3250  147.5550 C   0  0  0  0  0  2  0  0  0  0  0  0
  187.7100  176.9790  145.1940 O   0  0  0  0  0  0  0  0  0  0  0  0
  186.3340  177.2200  145.1780 C   0  0  0  0  0  2  0  0  0  0  0  0
  184.8830  179.1100  145.0340 O   0  0  0  0  0  1  0  0  0  0  0  0
  185.8890  178.3460  143.0210 C   0  0  0  0  0  1  0  0  0  0  0  0
  186.0520  178.5540  144.5120 C   0  0  2  0  0  3  0  0  0  0  0  0
  184.4290  175.4150  135.3080 C   0  0  2  0  0  3  0  0  0  0  0  0
  185.8530  174.9160  135.5790 C   0  0  0  0  0  2  0  0  0  0  0  0
  184.3450  176.9180  135.3090 C   0  0  0  0  0  0  0  0  0  0  0  0
  185.3200  177.6880  135.9540 O   0  0  0  0  0  0  0  0  0  0  0  0
  186.5990  177.1650  136.3110 C   0  0  2  0  0  3  0  0  0  0  0  0
  183.3520  177.4850  134.7840 O   0  0  0  0  0  0  0  0  0  0  0  0
  186.5040  175.6970  136.7130 C   0  0  0  0  0  2  0  0  0  0  0  0
  182.2090  174.8240  136.0030 C   0  0  0  0  0  3  0  0  0  0  0  0
  183.4780  174.8300  136.2300 N   0  0  0  0  0  0  0  0  0  0  0  0
  179.5460  172.6220  136.9360 C   0  0  0  0  0  0  0  0  0  0  0  0
  179.8290  174.9120  137.0330 C   0  0  2  0  0  0  0  0  0  0  0  0
  178.9370  171.5210  136.9570 O   0  0  0  0  0  0  0  0  0  0  0  0
  180.9770  172.7680  136.6050 C   0  0  0  0  0  2  0  0  0  0  0  0
  178.9310  173.8230  137.2090 O   0  0  0  0  0  0  0  0  0  0  0  0
  181.8430  174.2170  138.2560 O   0  0  0  0  0  1  0  0  0  0  0  0
  181.2470  174.2240  136.9880 C   0  0  1  0  0  0  0  0  0  0  0  0
  179.4840  175.4500  139.3570 O   0  0  0  0  0  0  0  0  0  0  0  0
  179.7180  177.2940  137.9400 N   0  0  0  0  0  2  0  0  0  0  0  0
  179.6800  175.8820  138.1850 C   0  0  0  0  0  0  0  0  0  0  0  0
  179.4960  178.2820  138.9830 C   0  0  0  0  0  2  0  0  0  0  0  0
  180.7350  179.8180  137.5390 C   0  0  0  0  0  3  0  0  0  0  0  0
  179.7910  179.6470  138.4620 C   0  0  0  0  0  3  0  0  0  0  0  0
  181.0460  181.1800  137.0030 C   0  0  0  0  0  2  0  0  0  0  0  0
  180.7870  183.5820  137.3550 N   0  0  0  0  0  1  0  0  0  0  0  0
  180.3940  182.2700  137.8430 C   0  0  0  0  0  2  0  0  0  0  0  0
  178.9550  174.8870  134.6590 O   0  0  0  0  0  0  0  0  0  0  0  0
  179.5830  176.8580  135.6310 O   0  0  0  0  0  1  0  0  0  0  0  0
  179.4720  175.6070  135.7320 C   0  0  0  0  0  0  0  0  0  0  0  0
  1  2  2  0  0  0  0
  2  3  2  0  0  0  0
  2  7  1  0  0  0  0
  4 12  2  0  0  0  0
  5 10  1  6  0  0  0
  5  4  1  0  0  0  0
  5  6  1  0  0  0  0
  6  7  2  0  0  0  0
  6  8  1  0  0  0  0
  8 14  1  1  0  0  0
  9 11  1  0  0  0  0
  9 10  1  0  0  0  0
 11 13  2  0  0  0  0
 12  8  1  0  0  0  0
 13  4  1  0  0  0  0
 14 15  1  0  0  0  0
 15 16  1  0  0  0  0
 16 17  1  0  0  0  0
 17 18  1  6  0  0  0
 17 19  1  0  0  0  0
 20 19  1  6  0  0  0
 20 25  1  0  0  0  0
 20 21  1  0  0  0  0
 21 22  1  0  0  0  0
 22 23  1  0  0  0  0
 23 24  1  0  0  0  0
 25 27  1  1  0  0  0
 27 26  1  0  0  0  0
 28 25  1  0  0  0  0
 29 28  1  0  0  0  0
 32 31  1  6  0  0  0
 32 30  1  0  0  0  0
 32 29  1  0  0  0  0
 33 35  1  0  0  0  0
 33 34  1  0  0  0  0
 33 41  1  1  0  0  0
 34 39  1  0  0  0  0
 35 36  1  0  0  0  0
 36 37  1  0  0  0  0
 37 39  1  0  0  0  0
 37  2  1  1  0  0  0
 38 35  2  0  0  0  0
 40 41  2  0  0  0  0
 40 48  1  0  0  0  0
 42 44  2  0  0  0  0
 42 46  1  0  0  0  0
 43 60  1  6  0  0  0
 43 46  1  0  0  0  0
 43 51  1  0  0  0  0
 45 42  1  0  0  0  0
 45 48  1  0  0  0  0
 48 43  1  0  0  0  0
 48 47  1  1  0  0  0
 50 51  1  0  0  0  0
 50 52  1  0  0  0  0
 51 49  2  0  0  0  0
 53 54  2  0  0  0  0
 54 52  1  0  0  0  0
 55 53  1  0  0  0  0
 55 57  1  0  0  0  0
 56 57  1  0  0  0  0
 58 60  2  0  0  0  0
 59 60  1  0  0  0  0
M  END
>  <MODEL>
4

>  <REMARK>
 VINA RESULT:      -5.5      2.951      7.543
  Name = 
  24 active torsions:
  status: ('A' for Active; 'I' for Inactive)
    1  A    between atoms: C_3  and  C_26
    2  A    between atoms: C_3  and  C_56
    3  A    between atoms: C_4  and  N_19
    4  A    between atoms: C_5  and  C_48
    5  A    between atoms: C_6  and  C_22
    6  A    between atoms: C_6  and  C_44
    7  A    between atoms: C_7  and  O_50
    8  A    between atoms: C_7  and  C_51
    9  A    between atoms: C_11  and  C_39
   10  A    between atoms: N_17  and  S_46
   11  A    between atoms: C_18  and  C_47
   12  A    between atoms: C_18  and  C_59
   13  A    between atoms: C_24  and  C_53
   14  A    between atoms: C_26  and  O_43
   15  A    between atoms: C_31  and  S_46
   16  A    between atoms: N_32  and  C_53
   17  A    between atoms: C_35  and  C_41
   18  A    between atoms: C_41  and  O_43
   19  A    between atoms: O_45  and  C_48
   20  A    between atoms: O_45  and  C_49
   21  A    between atoms: C_49  and  C_55
   22  A    between atoms: C_49  and  C_56
   23  A    between atoms: O_50  and  C_55
   24  A    between atoms: C_55  and  C_58
                            x       y       z     vdW  Elec       q    Type
                         _______ _______ _______ _____ _____    ______ ____

>  <TORSDO>
F 24

$$$$
=
 OpenBabel11062417203D

 60 63  0  0  1  0  0  0  0  0999 V2000
  189.2660  179.0470  136.8440 O   0  0  0  0  0  0  0  0  0  0  0  0
  188.5010  178.1050  137.7300 S   0  0  0  0  0  0  0  0  0  0  0  0
  187.5180  178.9070  138.5380 O   0  0  0  0  0  0  0  0  0  0  0  0
  192.5890  176.0890  137.2530 C   0  0  0  0  0  0  0  0  0  0  0  0
  191.2900  176.7660  137.0020 C   0  0  2  0  0  3  0  0  0  0  0  0
  190.7390  176.7870  138.3910 C   0  0  0  0  0  0  0  0  0  0  0  0
  189.6250  177.3190  138.7710 N   0  0  0  0  0  0  0  0  0  0  0  0
  191.7510  176.2500  139.3550 C   0  0  1  0  0  3  0  0  0  0  0  0
  191.3380  175.7470  134.7390 C   0  0  0  0  0  2  0  0  0  0  0  0
  190.5220  175.8740  136.0330 C   0  0  0  0  0  2  0  0  0  0  0  0
  192.7580  175.3020  135.0200 C   0  0  0  0  0  3  0  0  0  0  0  0
  192.8280  175.7970  138.4890 N   0  0  0  0  0  0  0  0  0  0  0  0
  193.3170  175.4800  136.1830 N   0  0  0  0  0  0  0  0  0  0  0  0
  192.2720  177.3480  140.2730 C   0  0  0  0  0  2  0  0  0  0  0  0
  192.1820  176.9430  141.6060 O   0  0  0  0  0  0  0  0  0  0  0  0
  191.3230  177.8710  142.1980 C   0  0  0  0  0  2  0  0  0  0  0  0
  190.8100  177.3530  143.5360 C   0  0  1  0  0  3  0  0  0  0  0  0
  191.8890  177.0570  144.3690 O   0  0  0  0  0  1  0  0  0  0  0  0
  189.8930  178.3640  144.2270 C   0  0  0  0  0  2  0  0  0  0  0  0
  188.6910  177.7170  144.9290 C   0  0  2  0  0  3  0  0  0  0  0  0
  189.0960  176.5770  145.6310 O   0  0  0  0  0  0  0  0  0  0  0  0
  189.4730  177.0460  146.8920 C   0  0  0  0  0  2  0  0  0  0  0  0
  188.2380  177.4120  147.6960 C   0  0  0  0  0  2  0  0  0  0  0  0
  188.6100  178.1290  148.8340 O   0  0  0  0  0  1  0  0  0  0  0  0
  187.5630  177.3800  143.9480 C   0  0  2  0  0  3  0  0  0  0  0  0
  187.6980  178.3590  141.7720 O   0  0  0  0  0  1  0  0  0  0  0  0
  187.2510  178.5870  143.0730 C   0  0  0  0  0  2  0  0  0  0  0  0
  186.4110  177.0050  144.6490 O   0  0  0  0  0  0  0  0  0  0  0  0
  185.5200  178.0650  144.4660 C   0  0  0  0  0  2  0  0  0  0  0  0
  183.6810  179.1220  145.5620 O   0  0  0  0  0  1  0  0  0  0  0  0
  185.8140  179.2890  146.5950 C   0  0  0  0  0  1  0  0  0  0  0  0
  184.8680  178.4250  145.7890 C   0  0  2  0  0  3  0  0  0  0  0  0
  185.2610  175.2910  136.0720 C   0  0  2  0  0  3  0  0  0  0  0  0
  186.5670  174.6810  136.5910 C   0  0  0  0  0  2  0  0  0  0  0  0
  185.4370  176.7200  135.6330 C   0  0  0  0  0  0  0  0  0  0  0  0
  186.5070  177.4870  136.1060 O   0  0  0  0  0  0  0  0  0  0  0  0
  187.6650  176.9020  136.7020 C   0  0  2  0  0  3  0  0  0  0  0  0
  184.5730  177.2520  134.8870 O   0  0  0  0  0  0  0  0  0  0  0  0
  187.3060  175.6540  137.5010 C   0  0  0  0  0  2  0  0  0  0  0  0
  183.0180  175.6520  136.8460 C   0  0  0  0  0  3  0  0  0  0  0  0
  184.1930  175.1610  137.0420 N   0  0  0  0  0  0  0  0  0  0  0  0
  179.8490  174.4750  138.0220 C   0  0  0  0  0  0  0  0  0  0  0  0
  180.7750  176.5750  137.7680 C   0  0  2  0  0  0  0  0  0  0  0  0
  178.9510  173.6100  138.1950 O   0  0  0  0  0  0  0  0  0  0  0  0
  181.2570  174.1540  137.7200 C   0  0  0  0  0  2  0  0  0  0  0  0
  179.6050  175.8290  138.0820 O   0  0  0  0  0  0  0  0  0  0  0  0
  182.5210  175.5430  139.1520 O   0  0  0  0  0  1  0  0  0  0  0  0
  181.9370  175.5150  137.8800 C   0  0  1  0  0  0  0  0  0  0  0  0
  181.9740  178.4220  138.7470 O   0  0  0  0  0  0  0  0  0  0  0  0
  179.8890  177.9780  139.7060 N   0  0  0  0  0  2  0  0  0  0  0  0
  180.9230  177.7200  138.7480 C   0  0  0  0  0  0  0  0  0  0  0  0
  180.0010  179.0030  140.7310 C   0  0  0  0  0  2  0  0  0  0  0  0
  179.8410  181.2550  139.7910 C   0  0  0  0  0  3  0  0  0  0  0  0
  179.2210  180.2090  140.3320 C   0  0  0  0  0  3  0  0  0  0  0  0
  179.0760  182.4750  139.3840 C   0  0  0  0  0  2  0  0  0  0  0  0
  180.0970  182.3510  137.1690 N   0  0  0  0  0  1  0  0  0  0  0  0
  179.7950  183.2390  138.2800 C   0  0  0  0  0  2  0  0  0  0  0  0
  179.7010  178.1400  136.0940 O   0  0  0  0  0  1  0  0  0  0  0  0
  181.3550  176.7080  135.4320 O   0  0  0  0  0  0  0  0  0  0  0  0
  180.6150  177.1250  136.3620 C   0  0  0  0  0  0  0  0  0  0  0  0
  1  2  2  0  0  0  0
  2  3  2  0  0  0  0
  2  7  1  0  0  0  0
  4 12  2  0  0  0  0
  5 10  1  6  0  0  0
  5  4  1  0  0  0  0
  5  6  1  0  0  0  0
  6  7  2  0  0  0  0
  6  8  1  0  0  0  0
  8 14  1  1  0  0  0
  9 11  1  0  0  0  0
  9 10  1  0  0  0  0
 11 13  2  0  0  0  0
 12  8  1  0  0  0  0
 13  4  1  0  0  0  0
 14 15  1  0  0  0  0
 15 16  1  0  0  0  0
 16 17  1  0  0  0  0
 17 19  1  0  0  0  0
 17 18  1  1  0  0  0
 20 19  1  6  0  0  0
 20 21  1  0  0  0  0
 21 22  1  0  0  0  0
 22 23  1  0  0  0  0
 23 24  1  0  0  0  0
 25 27  1  1  0  0  0
 25 28  1  0  0  0  0
 25 20  1  0  0  0  0
 26 27  1  0  0  0  0
 29 28  1  0  0  0  0
 29 32  1  0  0  0  0
 30 32  1  0  0  0  0
 32 31  1  1  0  0  0
 33 34  1  0  0  0  0
 33 41  1  1  0  0  0
 34 39  1  0  0  0  0
 35 33  1  0  0  0  0
 35 36  1  0  0  0  0
 36 37  1  0  0  0  0
 37 39  1  0  0  0  0
 37  2  1  1  0  0  0
 38 35  2  0  0  0  0
 40 41  2  0  0  0  0
 40 48  1  0  0  0  0
 42 46  1  0  0  0  0
 42 44  2  0  0  0  0
 43 60  1  6  0  0  0
 43 48  1  0  0  0  0
 43 46  1  0  0  0  0
 43 51  1  0  0  0  0
 45 48  1  0  0  0  0
 45 42  1  0  0  0  0
 48 47  1  1  0  0  0
 49 51  2  0  0  0  0
 50 52  1  0  0  0  0
 51 50  1  0  0  0  0
 53 54  2  0  0  0  0
 54 52  1  0  0  0  0
 55 53  1  0  0  0  0
 56 57  1  0  0  0  0
 57 55  1  0  0  0  0
 58 60  1  0  0  0  0
 59 60  2  0  0  0  0
M  END
>  <MODEL>
5

>  <REMARK>
 VINA RESULT:      -5.4      2.875      7.346
  Name = 
  24 active torsions:
  status: ('A' for Active; 'I' for Inactive)
    1  A    between atoms: C_3  and  C_26
    2  A    between atoms: C_3  and  C_56
    3  A    between atoms: C_4  and  N_19
    4  A    between atoms: C_5  and  C_48
    5  A    between atoms: C_6  and  C_22
    6  A    between atoms: C_6  and  C_44
    7  A    between atoms: C_7  and  O_50
    8  A    between atoms: C_7  and  C_51
    9  A    between atoms: C_11  and  C_39
   10  A    between atoms: N_17  and  S_46
   11  A    between atoms: C_18  and  C_47
   12  A    between atoms: C_18  and  C_59
   13  A    between atoms: C_24  and  C_53
   14  A    between atoms: C_26  and  O_43
   15  A    between atoms: C_31  and  S_46
   16  A    between atoms: N_32  and  C_53
   17  A    between atoms: C_35  and  C_41
   18  A    between atoms: C_41  and  O_43
   19  A    between atoms: O_45  and  C_48
   20  A    between atoms: O_45  and  C_49
   21  A    between atoms: C_49  and  C_55
   22  A    between atoms: C_49  and  C_56
   23  A    between atoms: O_50  and  C_55
   24  A    between atoms: C_55  and  C_58
                            x       y       z     vdW  Elec       q    Type
                         _______ _______ _______ _____ _____    ______ ____

>  <TORSDO>
F 24

$$$$
=
 OpenBabel11062417203D

 60 63  0  0  1  0  0  0  0  0999 V2000
  187.0630  178.2470  146.6280 O   0  0  0  0  0  0  0  0  0  0  0  0
  186.4360  177.8710  145.3150 S   0  0  0  0  0  0  0  0  0  0  0  0
  186.0690  176.4140  145.3630 O   0  0  0  0  0  0  0  0  0  0  0  0
  190.7700  176.6210  144.4980 C   0  0  0  0  0  0  0  0  0  0  0  0
  189.4340  176.8350  145.1150 C   0  0  2  0  0  3  0  0  0  0  0  0
  188.8050  177.7000  144.0730 C   0  0  0  0  0  0  0  0  0  0  0  0
  187.5950  178.1510  144.0720 N   0  0  0  0  0  0  0  0  0  0  0  0
  189.7240  177.8450  142.9000 C   0  0  1  0  0  3  0  0  0  0  0  0
  190.5550  176.6170  147.3190 C   0  0  0  0  0  2  0  0  0  0  0  0
  189.6840  177.5320  146.4480 C   0  0  0  0  0  2  0  0  0  0  0  0
  191.8070  176.1830  146.5880 C   0  0  0  0  0  3  0  0  0  0  0  0
  190.9340  177.1690  143.3400 N   0  0  0  0  0  0  0  0  0  0  0  0
  191.8800  176.1830  145.2870 N   0  0  0  0  0  0  0  0  0  0  0  0
  189.1670  177.1330  141.6740 C   0  0  0  0  0  2  0  0  0  0  0  0
  190.0100  177.3320  140.5780 O   0  0  0  0  0  0  0  0  0  0  0  0
  189.3440  178.2720  139.7900 C   0  0  0  0  0  2  0  0  0  0  0  0
  187.8950  177.8570  139.5660 C   0  0  1  0  0  3  0  0  0  0  0  0
  187.0480  178.7220  140.2600 O   0  0  0  0  0  1  0  0  0  0  0  0
  187.5220  177.8590  138.0830 C   0  0  0  0  0  2  0  0  0  0  0  0
  188.0910  176.6620  137.3090 C   0  0  2  0  0  3  0  0  0  0  0  0
  189.1660  177.0670  136.5110 O   0  0  0  0  0  0  0  0  0  0  0  0
  189.9730  175.9330  136.3890 C   0  0  0  0  0  2  0  0  0  0  0  0
  190.9170  175.8430  137.5740 C   0  0  0  0  0  2  0  0  0  0  0  0
  191.0550  174.5120  137.9690 O   0  0  0  0  0  1  0  0  0  0  0  0
  187.0230  175.9570  136.4670 C   0  0  2  0  0  3  0  0  0  0  0  0
  185.4050  177.3470  135.3890 O   0  0  0  0  0  1  0  0  0  0  0  0
  185.6940  176.6910  136.5860 C   0  0  0  0  0  2  0  0  0  0  0  0
  186.8630  174.6350  136.8990 O   0  0  0  0  0  0  0  0  0  0  0  0
  186.4440  173.9360  135.7640 C   0  0  0  0  0  2  0  0  0  0  0  0
  184.1840  173.2330  135.4550 O   0  0  0  0  0  1  0  0  0  0  0  0
  185.1110  173.0160  137.6330 C   0  0  0  0  0  1  0  0  0  0  0  0
  185.3630  172.9400  136.1420 C   0  0  2  0  0  3  0  0  0  0  0  0
  182.6390  179.6510  143.4210 C   0  0  2  0  0  3  0  0  0  0  0  0
  183.8650  180.5530  143.5960 C   0  0  0  0  0  2  0  0  0  0  0  0
  182.6330  178.5070  144.4000 C   0  0  0  0  0  0  0  0  0  0  0  0
  183.8170  178.0840  145.0130 O   0  0  0  0  0  0  0  0  0  0  0  0
  184.9920  178.8950  145.0550 C   0  0  2  0  0  3  0  0  0  0  0  0
  181.5620  177.8810  144.6170 O   0  0  0  0  0  0  0  0  0  0  0  0
  185.1320  179.7310  143.7880 C   0  0  0  0  0  2  0  0  0  0  0  0
  182.0510  178.0150  141.7660 C   0  0  0  0  0  3  0  0  0  0  0  0
  182.5170  179.1810  142.0560 N   0  0  0  0  0  0  0  0  0  0  0  0
  181.7320  178.5570  138.2420 C   0  0  0  0  0  0  0  0  0  0  0  0
  180.4810  177.3920  139.7950 C   0  0  2  0  0  0  0  0  0  0  0  0
  182.0020  179.1220  137.1500 O   0  0  0  0  0  0  0  0  0  0  0  0
  182.6100  178.5880  139.4270 C   0  0  0  0  0  2  0  0  0  0  0  0
  180.5660  177.8550  138.4520 O   0  0  0  0  0  0  0  0  0  0  0  0
  182.6700  176.3580  140.2020 O   0  0  0  0  0  1  0  0  0  0  0  0
  181.9520  177.5520  140.3400 C   0  0  1  0  0  0  0  0  0  0  0  0
  179.8700  175.3410  140.9030 O   0  0  0  0  0  0  0  0  0  0  0  0
  179.7280  175.2850  138.5710 N   0  0  0  0  0  2  0  0  0  0  0  0
  179.9980  175.9580  139.8070 C   0  0  0  0  0  0  0  0  0  0  0  0
  179.3460  173.8840  138.5020 C   0  0  0  0  0  2  0  0  0  0  0  0
  180.5530  172.0550  137.4180 C   0  0  0  0  0  3  0  0  0  0  0  0
  179.9680  173.2450  137.3080 C   0  0  0  0  0  3  0  0  0  0  0  0
  181.1840  171.3960  136.2310 C   0  0  0  0  0  2  0  0  0  0  0  0
  178.9320  170.4560  136.1540 N   0  0  0  0  0  1  0  0  0  0  0  0
  180.2930  170.2980  135.6670 C   0  0  0  0  0  2  0  0  0  0  0  0
  178.9310  177.8640  141.7400 O   0  0  0  0  0  1  0  0  0  0  0  0
  179.1950  179.4120  140.0790 O   0  0  0  0  0  0  0  0  0  0  0  0
  179.4850  178.2710  140.5300 C   0  0  0  0  0  0  0  0  0  0  0  0
  2  3  2  0  0  0  0
  2  1  2  0  0  0  0
  4  5  1  0  0  0  0
  4 13  1  0  0  0  0
  5 10  1  1  0  0  0
  6  5  1  0  0  0  0
  7  6  2  0  0  0  0
  7  2  1  0  0  0  0
  8 14  1  6  0  0  0
  8 12  1  0  0  0  0
  8  6  1  0  0  0  0
 10  9  1  0  0  0  0
 11  9  1  0  0  0  0
 12  4  2  0  0  0  0
 13 11  2  0  0  0  0
 15 14  1  0  0  0  0
 16 15  1  0  0  0  0
 17 16  1  0  0  0  0
 17 18  1  1  0  0  0
 19 17  1  0  0  0  0
 20 19  1  6  0  0  0
 21 20  1  0  0  0  0
 22 21  1  0  0  0  0
 22 23  1  0  0  0  0
 23 24  1  0  0  0  0
 25 27  1  1  0  0  0
 25 28  1  0  0  0  0
 25 20  1  0  0  0  0
 26 27  1  0  0  0  0
 29 32  1  0  0  0  0
 29 28  1  0  0  0  0
 30 32  1  0  0  0  0
 32 31  1  1  0  0  0
 33 41  1  6  0  0  0
 33 34  1  0  0  0  0
 33 35  1  0  0  0  0
 34 39  1  0  0  0  0
 35 38  2  0  0  0  0
 35 36  1  0  0  0  0
 36 37  1  0  0  0  0
 37  2  1  6  0  0  0
 39 37  1  0  0  0  0
 40 41  2  0  0  0  0
 42 46  1  0  0  0  0
 42 45  1  0  0  0  0
 43 51  1  1  0  0  0
 43 48  1  0  0  0  0
 43 60  1  0  0  0  0
 44 42  2  0  0  0  0
 45 48  1  0  0  0  0
 46 43  1  0  0  0  0
 48 47  1  6  0  0  0
 48 40  1  0  0  0  0
 50 51  1  0  0  0  0
 51 49  2  0  0  0  0
 52 50  1  0  0  0  0
 54 53  2  0  0  0  0
 54 52  1  0  0  0  0
 55 53  1  0  0  0  0
 57 56  1  0  0  0  0
 57 55  1  0  0  0  0
 59 60  2  0  0  0  0
 60 58  1  0  0  0  0
M  END
>  <MODEL>
6

>  <REMARK>
 VINA RESULT:      -4.8      2.602      5.116
  Name = 
  24 active torsions:
  status: ('A' for Active; 'I' for Inactive)
    1  A    between atoms: C_3  and  C_26
    2  A    between atoms: C_3  and  C_56
    3  A    between atoms: C_4  and  N_19
    4  A    between atoms: C_5  and  C_48
    5  A    between atoms: C_6  and  C_22
    6  A    between atoms: C_6  and  C_44
    7  A    between atoms: C_7  and  O_50
    8  A    between atoms: C_7  and  C_51
    9  A    between atoms: C_11  and  C_39
   10  A    between atoms: N_17  and  S_46
   11  A    between atoms: C_18  and  C_47
   12  A    between atoms: C_18  and  C_59
   13  A    between atoms: C_24  and  C_53
   14  A    between atoms: C_26  and  O_43
   15  A    between atoms: C_31  and  S_46
   16  A    between atoms: N_32  and  C_53
   17  A    between atoms: C_35  and  C_41
   18  A    between atoms: C_41  and  O_43
   19  A    between atoms: O_45  and  C_48
   20  A    between atoms: O_45  and  C_49
   21  A    between atoms: C_49  and  C_55
   22  A    between atoms: C_49  and  C_56
   23  A    between atoms: O_50  and  C_55
   24  A    between atoms: C_55  and  C_58
                            x       y       z     vdW  Elec       q    Type
                         _______ _______ _______ _____ _____    ______ ____

>  <TORSDO>
F 24

$$$$
=
 OpenBabel11062417203D

 60 63  0  0  1  0  0  0  0  0999 V2000
  186.8800  178.4450  146.4550 O   0  0  0  0  0  0  0  0  0  0  0  0
  186.1810  178.0090  145.1990 S   0  0  0  0  0  0  0  0  0  0  0  0
  185.8450  176.5490  145.3260 O   0  0  0  0  0  0  0  0  0  0  0  0
  190.5130  176.8880  144.2060 C   0  0  0  0  0  0  0  0  0  0  0  0
  189.2060  177.0850  144.8860 C   0  0  2  0  0  3  0  0  0  0  0  0
  188.4820  177.8590  143.8330 C   0  0  0  0  0  0  0  0  0  0  0  0
  187.2550  178.2600  143.8760 N   0  0  0  0  0  0  0  0  0  0  0  0
  189.3270  177.9690  142.6020 C   0  0  1  0  0  3  0  0  0  0  0  0
  190.4560  177.0470  147.0300 C   0  0  0  0  0  2  0  0  0  0  0  0
  189.4980  177.8710  146.1590 C   0  0  0  0  0  2  0  0  0  0  0  0
  191.6840  176.6210  146.2540 C   0  0  0  0  0  3  0  0  0  0  0  0
  190.5880  177.3710  143.0100 N   0  0  0  0  0  0  0  0  0  0  0  0
  191.6830  176.5440  144.9530 N   0  0  0  0  0  0  0  0  0  0  0  0
  188.7340  177.1620  141.4540 C   0  0  0  0  0  2  0  0  0  0  0  0
  189.6610  177.0490  140.4170 O   0  0  0  0  0  0  0  0  0  0  0  0
  189.3340  178.0840  139.5400 C   0  0  0  0  0  2  0  0  0  0  0  0
  188.1490  177.6930  138.6640 C   0  0  1  0  0  3  0  0  0  0  0  0
  187.0860  178.5670  138.8960 O   0  0  0  0  0  1  0  0  0  0  0  0
  188.5080  177.7080  137.1770 C   0  0  0  0  0  2  0  0  0  0  0  0
  188.2360  176.3730  136.4710 C   0  0  2  0  0  3  0  0  0  0  0  0
  187.3130  175.6180  137.2010 O   0  0  0  0  0  0  0  0  0  0  0  0
  186.1890  175.5260  136.3760 C   0  0  0  0  0  2  0  0  0  0  0  0
  185.0050  176.2010  137.0430 C   0  0  0  0  0  2  0  0  0  0  0  0
  184.4470  177.1410  136.1760 O   0  0  0  0  0  1  0  0  0  0  0  0
  189.5220  175.5760  136.2280 C   0  0  2  0  0  3  0  0  0  0  0  0
  189.3750  173.2360  136.6900 O   0  0  0  0  0  1  0  0  0  0  0  0
  189.6600  174.4730  137.2690 C   0  0  0  0  0  2  0  0  0  0  0  0
  190.6350  176.4220  136.3000 O   0  0  0  0  0  0  0  0  0  0  0  0
  191.7350  175.5630  136.3570 C   0  0  0  0  0  2  0  0  0  0  0  0
  193.9000  176.3650  135.7500 O   0  0  0  0  0  1  0  0  0  0  0  0
  193.5840  175.6580  137.9970 C   0  0  0  0  0  1  0  0  0  0  0  0
  192.9690  176.3330  136.7900 C   0  0  2  0  0  3  0  0  0  0  0  0
  182.3290  179.7640  143.3960 C   0  0  2  0  0  3  0  0  0  0  0  0
  183.5250  180.6950  143.6210 C   0  0  0  0  0  2  0  0  0  0  0  0
  182.3590  178.5700  144.3130 C   0  0  0  0  0  0  0  0  0  0  0  0
  183.5560  178.1530  144.9050 O   0  0  0  0  0  0  0  0  0  0  0  0
  184.7040  178.9980  144.9920 C   0  0  2  0  0  3  0  0  0  0  0  0
  181.3090  177.8990  144.4950 O   0  0  0  0  0  0  0  0  0  0  0  0
  184.8180  179.9050  143.7710 C   0  0  0  0  0  2  0  0  0  0  0  0
  182.2040  178.1280  141.6440 C   0  0  0  0  0  3  0  0  0  0  0  0
  182.2210  179.3640  142.0080 N   0  0  0  0  0  0  0  0  0  0  0  0
  181.6170  178.8330  138.1840 C   0  0  0  0  0  0  0  0  0  0  0  0
  180.6560  177.3790  139.7000 C   0  0  2  0  0  0  0  0  0  0  0  0
  181.7350  179.5030  137.1260 O   0  0  0  0  0  0  0  0  0  0  0  0
  182.5390  178.9330  139.3320 C   0  0  0  0  0  2  0  0  0  0  0  0
  180.5940  177.9340  138.3920 O   0  0  0  0  0  0  0  0  0  0  0  0
  183.0030  176.7000  139.9420 O   0  0  0  0  0  1  0  0  0  0  0  0
  182.1080  177.7460  140.1950 C   0  0  1  0  0  0  0  0  0  0  0  0
  180.1950  175.2290  140.6850 O   0  0  0  0  0  0  0  0  0  0  0  0
  180.4810  175.2120  138.3660 N   0  0  0  0  0  2  0  0  0  0  0  0
  180.4160  175.8870  139.6290 C   0  0  0  0  0  0  0  0  0  0  0  0
  180.3470  173.7710  138.2340 C   0  0  0  0  0  2  0  0  0  0  0  0
  182.2850  173.2500  136.8350 C   0  0  0  0  0  3  0  0  0  0  0  0
  180.9600  173.3190  136.9520 C   0  0  0  0  0  3  0  0  0  0  0  0
  182.9200  172.7990  135.5580 C   0  0  0  0  0  2  0  0  0  0  0  0
  184.6440  172.2870  137.2090 N   0  0  0  0  0  1  0  0  0  0  0  0
  184.3480  172.3230  135.7850 C   0  0  0  0  0  2  0  0  0  0  0  0
  179.1350  177.4470  141.7220 O   0  0  0  0  0  1  0  0  0  0  0  0
  179.0910  179.1460  140.1930 O   0  0  0  0  0  0  0  0  0  0  0  0
  179.5690  178.0320  140.5360 C   0  0  0  0  0  0  0  0  0  0  0  0
  2  3  2  0  0  0  0
  2  1  2  0  0  0  0
  4  5  1  0  0  0  0
  4 13  1  0  0  0  0
  5 10  1  1  0  0  0
  6  7  2  0  0  0  0
  6  5  1  0  0  0  0
  7  2  1  0  0  0  0
  8 14  1  6  0  0  0
  8 12  1  0  0  0  0
  8  6  1  0  0  0  0
 10  9  1  0  0  0  0
 11  9  1  0  0  0  0
 12  4  2  0  0  0  0
 13 11  2  0  0  0  0
 15 14  1  0  0  0  0
 16 15  1  0  0  0  0
 17 18  1  6  0  0  0
 17 16  1  0  0  0  0
 19 17  1  0  0  0  0
 20 19  1  1  0  0  0
 20 21  1  0  0  0  0
 22 23  1  0  0  0  0
 22 21  1  0  0  0  0
 24 23  1  0  0  0  0
 25 28  1  0  0  0  0
 25 20  1  0  0  0  0
 25 27  1  1  0  0  0
 26 27  1  0  0  0  0
 28 29  1  0  0  0  0
 29 32  1  0  0  0  0
 30 32  1  0  0  0  0
 32 31  1  1  0  0  0
 33 41  1  6  0  0  0
 33 34  1  0  0  0  0
 33 35  1  0  0  0  0
 34 39  1  0  0  0  0
 35 38  2  0  0  0  0
 35 36  1  0  0  0  0
 36 37  1  0  0  0  0
 37  2  1  6  0  0  0
 39 37  1  0  0  0  0
 40 41  2  0  0  0  0
 42 46  1  0  0  0  0
 42 45  1  0  0  0  0
 43 51  1  6  0  0  0
 43 48  1  0  0  0  0
 43 60  1  0  0  0  0
 44 42  2  0  0  0  0
 45 48  1  0  0  0  0
 46 43  1  0  0  0  0
 48 47  1  6  0  0  0
 48 40  1  0  0  0  0
 50 51  1  0  0  0  0
 51 49  2  0  0  0  0
 52 50  1  0  0  0  0
 53 54  2  0  0  0  0
 54 52  1  0  0  0  0
 55 57  1  0  0  0  0
 55 53  1  0  0  0  0
 57 56  1  0  0  0  0
 59 60  2  0  0  0  0
 60 58  1  0  0  0  0
M  END
>  <MODEL>
7

>  <REMARK>
 VINA RESULT:      -4.6      2.448      4.141
  Name = 
  24 active torsions:
  status: ('A' for Active; 'I' for Inactive)
    1  A    between atoms: C_3  and  C_26
    2  A    between atoms: C_3  and  C_56
    3  A    between atoms: C_4  and  N_19
    4  A    between atoms: C_5  and  C_48
    5  A    between atoms: C_6  and  C_22
    6  A    between atoms: C_6  and  C_44
    7  A    between atoms: C_7  and  O_50
    8  A    between atoms: C_7  and  C_51
    9  A    between atoms: C_11  and  C_39
   10  A    between atoms: N_17  and  S_46
   11  A    between atoms: C_18  and  C_47
   12  A    between atoms: C_18  and  C_59
   13  A    between atoms: C_24  and  C_53
   14  A    between atoms: C_26  and  O_43
   15  A    between atoms: C_31  and  S_46
   16  A    between atoms: N_32  and  C_53
   17  A    between atoms: C_35  and  C_41
   18  A    between atoms: C_41  and  O_43
   19  A    between atoms: O_45  and  C_48
   20  A    between atoms: O_45  and  C_49
   21  A    between atoms: C_49  and  C_55
   22  A    between atoms: C_49  and  C_56
   23  A    between atoms: O_50  and  C_55
   24  A    between atoms: C_55  and  C_58
                            x       y       z     vdW  Elec       q    Type
                         _______ _______ _______ _____ _____    ______ ____

>  <TORSDO>
F 24

$$$$
=
 OpenBabel11062417203D

 60 63  0  0  1  0  0  0  0  0999 V2000
  186.9810  178.4540  145.9110 O   0  0  0  0  0  0  0  0  0  0  0  0
  186.3720  177.9700  144.6250 S   0  0  0  0  0  0  0  0  0  0  0  0
  186.0460  176.5100  144.7750 O   0  0  0  0  0  0  0  0  0  0  0  0
  190.6850  176.6370  143.8320 C   0  0  0  0  0  0  0  0  0  0  0  0
  189.3550  176.8880  144.4470 C   0  0  2  0  0  3  0  0  0  0  0  0
  188.7330  177.7280  143.3800 C   0  0  0  0  0  0  0  0  0  0  0  0
  187.5290  178.1950  143.3690 N   0  0  0  0  0  0  0  0  0  0  0  0
  189.6480  177.8230  142.1990 C   0  0  1  0  0  3  0  0  0  0  0  0
  190.4830  176.7260  146.6520 C   0  0  0  0  0  2  0  0  0  0  0  0
  189.6200  177.6240  145.7560 C   0  0  0  0  0  2  0  0  0  0  0  0
  191.7260  176.2520  145.9300 C   0  0  0  0  0  3  0  0  0  0  0  0
  190.8520  177.1460  142.6560 N   0  0  0  0  0  0  0  0  0  0  0  0
  191.7930  176.2090  144.6300 N   0  0  0  0  0  0  0  0  0  0  0  0
  189.0770  177.0790  140.9990 C   0  0  0  0  0  2  0  0  0  0  0  0
  189.8300  177.3580  139.8570 O   0  0  0  0  0  0  0  0  0  0  0  0
  189.0450  176.8990  138.7980 C   0  0  0  0  0  2  0  0  0  0  0  0
  189.9140  176.5410  137.5990 C   0  0  1  0  0  3  0  0  0  0  0  0
  190.2600  177.7020  136.9070 O   0  0  0  0  0  1  0  0  0  0  0  0
  191.1850  175.7970  138.0150 C   0  0  0  0  0  2  0  0  0  0  0  0
  191.8740  175.0700  136.8520 C   0  0  2  0  0  3  0  0  0  0  0  0
  192.5920  175.9810  136.0690 O   0  0  0  0  0  0  0  0  0  0  0  0
  193.8220  176.1220  136.7160 C   0  0  0  0  0  2  0  0  0  0  0  0
  194.8620  175.2470  136.0410 C   0  0  0  0  0  2  0  0  0  0  0  0
  196.0690  175.3250  136.7360 O   0  0  0  0  0  1  0  0  0  0  0  0
  190.8810  174.2790  135.9960 C   0  0  2  0  0  3  0  0  0  0  0  0
  188.7200  173.3640  136.4490 O   0  0  0  0  0  1  0  0  0  0  0  0
  190.0480  173.3560  136.8750 C   0  0  0  0  0  2  0  0  0  0  0  0
  191.5660  173.5170  135.0420 O   0  0  0  0  0  0  0  0  0  0  0  0
  191.9700  172.3670  135.7260 C   0  0  0  0  0  2  0  0  0  0  0  0
  193.2610  170.7090  134.5940 O   0  0  0  0  0  1  0  0  0  0  0  0
  194.2730  171.8160  136.4380 C   0  0  0  0  0  1  0  0  0  0  0  0
  193.3450  171.9390  135.2480 C   0  0  2  0  0  3  0  0  0  0  0  0
  182.3190  179.2690  142.8770 C   0  0  2  0  0  3  0  0  0  0  0  0
  183.5540  180.1280  142.5860 C   0  0  0  0  0  2  0  0  0  0  0  0
  182.4700  178.4700  144.1440 C   0  0  0  0  0  0  0  0  0  0  0  0
  183.7380  178.1970  144.6710 O   0  0  0  0  0  0  0  0  0  0  0  0
  184.9010  178.9320  144.2900 C   0  0  2  0  0  3  0  0  0  0  0  0
  181.4490  177.9840  144.6980 O   0  0  0  0  0  0  0  0  0  0  0  0
  184.8390  179.3460  142.8240 C   0  0  0  0  0  2  0  0  0  0  0  0
  182.7440  178.3200  140.7140 C   0  0  0  0  0  3  0  0  0  0  0  0
  181.9870  178.4200  141.7520 N   0  0  0  0  0  0  0  0  0  0  0  0
  183.2990  175.6270  138.4210 C   0  0  0  0  0  0  0  0  0  0  0  0
  182.9440  177.8950  138.1610 C   0  0  2  0  0  0  0  0  0  0  0  0
  183.6300  174.4560  138.1040 O   0  0  0  0  0  0  0  0  0  0  0  0
  182.9130  176.0350  139.7860 C   0  0  0  0  0  2  0  0  0  0  0  0
  183.2740  176.6690  137.5200 O   0  0  0  0  0  0  0  0  0  0  0  0
  180.9650  177.3420  139.5060 O   0  0  0  0  0  1  0  0  0  0  0  0
  182.3610  177.4430  139.5550 C   0  0  1  0  0  0  0  0  0  0  0  0
  181.7060  178.2870  136.1310 O   0  0  0  0  0  0  0  0  0  0  0  0
  181.2880  179.8100  137.8530 N   0  0  0  0  0  2  0  0  0  0  0  0
  181.9410  178.6520  137.3180 C   0  0  0  0  0  0  0  0  0  0  0  0
  180.3800  180.6350  137.0730 C   0  0  0  0  0  2  0  0  0  0  0  0
  179.7470  182.9740  137.4080 C   0  0  0  0  0  3  0  0  0  0  0  0
  180.7180  182.0760  137.2540 C   0  0  0  0  0  3  0  0  0  0  0  0
  180.0660  184.4240  137.5910 C   0  0  0  0  0  2  0  0  0  0  0  0
  180.7210  185.0740  135.3300 N   0  0  0  0  0  1  0  0  0  0  0  0
  181.2090  184.8600  136.6830 C   0  0  0  0  0  2  0  0  0  0  0  0
  184.2080  179.9490  138.9290 O   0  0  0  0  0  1  0  0  0  0  0  0
  185.3140  178.2430  137.8830 O   0  0  0  0  0  0  0  0  0  0  0  0
  184.2180  178.7100  138.2940 C   0  0  0  0  0  0  0  0  0  0  0  0
  2  3  2  0  0  0  0
  2  1  2  0  0  0  0
  4  5  1  0  0  0  0
  4 13  1  0  0  0  0
  5 10  1  1  0  0  0
  6  5  1  0  0  0  0
  7  6  2  0  0  0  0
  7  2  1  0  0  0  0
  8 14  1  6  0  0  0
  8 12  1  0  0  0  0
  8  6  1  0  0  0  0
 10  9  1  0  0  0  0
 11  9  1  0  0  0  0
 12  4  2  0  0  0  0
 13 11  2  0  0  0  0
 15 14  1  0  0  0  0
 16 15  1  0  0  0  0
 17 18  1  1  0  0  0
 17 19  1  0  0  0  0
 17 16  1  0  0  0  0
 20 19  1  1  0  0  0
 21 22  1  0  0  0  0
 21 20  1  0  0  0  0
 23 22  1  0  0  0  0
 23 24  1  0  0  0  0
 25 20  1  0  0  0  0
 25 27  1  1  0  0  0
 26 27  1  0  0  0  0
 28 29  1  0  0  0  0
 28 25  1  0  0  0  0
 30 32  1  0  0  0  0
 32 29  1  0  0  0  0
 32 31  1  1  0  0  0
 33 41  1  6  0  0  0
 33 35  1  0  0  0  0
 34 39  1  0  0  0  0
 34 33  1  0  0  0  0
 35 36  1  0  0  0  0
 35 38  2  0  0  0  0
 37  2  1  6  0  0  0
 37 36  1  0  0  0  0
 39 37  1  0  0  0  0
 40 41  2  0  0  0  0
 42 45  1  0  0  0  0
 43 51  1  6  0  0  0
 43 60  1  0  0  0  0
 43 48  1  0  0  0  0
 44 42  2  0  0  0  0
 46 43  1  0  0  0  0
 46 42  1  0  0  0  0
 48 47  1  6  0  0  0
 48 45  1  0  0  0  0
 48 40  1  0  0  0  0
 49 51  2  0  0  0  0
 51 50  1  0  0  0  0
 52 54  1  0  0  0  0
 52 50  1  0  0  0  0
 53 55  1  0  0  0  0
 54 53  2  0  0  0  0
 56 57  1  0  0  0  0
 57 55  1  0  0  0  0
 59 60  2  0  0  0  0
 60 58  1  0  0  0  0
M  END
>  <MODEL>
8

>  <REMARK>
 VINA RESULT:      -4.5      1.791      2.872
  Name = 
  24 active torsions:
  status: ('A' for Active; 'I' for Inactive)
    1  A    between atoms: C_3  and  C_26
    2  A    between atoms: C_3  and  C_56
    3  A    between atoms: C_4  and  N_19
    4  A    between atoms: C_5  and  C_48
    5  A    between atoms: C_6  and  C_22
    6  A    between atoms: C_6  and  C_44
    7  A    between atoms: C_7  and  O_50
    8  A    between atoms: C_7  and  C_51
    9  A    between atoms: C_11  and  C_39
   10  A    between atoms: N_17  and  S_46
   11  A    between atoms: C_18  and  C_47
   12  A    between atoms: C_18  and  C_59
   13  A    between atoms: C_24  and  C_53
   14  A    between atoms: C_26  and  O_43
   15  A    between atoms: C_31  and  S_46
   16  A    between atoms: N_32  and  C_53
   17  A    between atoms: C_35  and  C_41
   18  A    between atoms: C_41  and  O_43
   19  A    between atoms: O_45  and  C_48
   20  A    between atoms: O_45  and  C_49
   21  A    between atoms: C_49  and  C_55
   22  A    between atoms: C_49  and  C_56
   23  A    between atoms: O_50  and  C_55
   24  A    between atoms: C_55  and  C_58
                            x       y       z     vdW  Elec       q    Type
                         _______ _______ _______ _____ _____    ______ ____

>  <TORSDO>
F 24

$$$$
=
 OpenBabel11062417203D

 60 63  0  0  1  0  0  0  0  0999 V2000
  187.8180  179.1460  137.2700 O   0  0  0  0  0  0  0  0  0  0  0  0
  187.1500  178.2370  138.2630 S   0  0  0  0  0  0  0  0  0  0  0  0
  186.3000  179.0750  139.1770 O   0  0  0  0  0  0  0  0  0  0  0  0
  191.3140  176.5380  137.3780 C   0  0  0  0  0  0  0  0  0  0  0  0
  189.9640  177.1490  137.2620 C   0  0  2  0  0  3  0  0  0  0  0  0
  189.4980  177.0120  138.6750 C   0  0  0  0  0  0  0  0  0  0  0  0
  188.3800  177.4350  139.1630 N   0  0  0  0  0  0  0  0  0  0  0  0
  190.5960  176.4570  139.5280 C   0  0  1  0  0  3  0  0  0  0  0  0
  189.9350  176.3410  134.9150 C   0  0  0  0  0  2  0  0  0  0  0  0
  189.1930  176.2990  136.2580 C   0  0  0  0  0  2  0  0  0  0  0  0
  191.3930  175.9650  135.0750 C   0  0  0  0  0  3  0  0  0  0  0  0
  191.6430  176.1520  138.5660 N   0  0  0  0  0  0  0  0  0  0  0  0
  192.0110  176.0740  136.2170 N   0  0  0  0  0  0  0  0  0  0  0  0
  191.1060  177.5000  140.5140 C   0  0  0  0  0  2  0  0  0  0  0  0
  191.8070  176.8800  141.5500 O   0  0  0  0  0  0  0  0  0  0  0  0
  191.0280  177.1050  142.6850 C   0  0  0  0  0  2  0  0  0  0  0  0
  190.7830  175.8030  143.4370 C   0  0  1  0  0  3  0  0  0  0  0  0
  191.9960  175.1440  143.6400 O   0  0  0  0  0  1  0  0  0  0  0  0
  190.0990  176.0400  144.7850 C   0  0  0  0  0  2  0  0  0  0  0  0
  190.2630  177.4750  145.3080 C   0  0  2  0  0  3  0  0  0  0  0  0
  191.3230  177.5400  146.2190 O   0  0  0  0  0  0  0  0  0  0  0  0
  191.3400  176.2900  146.8430 C   0  0  0  0  0  2  0  0  0  0  0  0
  192.1460  176.3660  148.1260 C   0  0  0  0  0  2  0  0  0  0  0  0
  193.3620  175.7020  147.9610 O   0  0  0  0  0  1  0  0  0  0  0  0
  188.9720  178.0120  145.9340 C   0  0  2  0  0  3  0  0  0  0  0  0
  188.7910  177.9040  148.3150 O   0  0  0  0  0  1  0  0  0  0  0  0
  188.5870  177.1720  147.1450 C   0  0  0  0  0  2  0  0  0  0  0  0
  187.9320  177.9790  144.9980 O   0  0  0  0  0  0  0  0  0  0  0  0
  186.9070  177.2670  145.6260 C   0  0  0  0  0  2  0  0  0  0  0  0
  185.6820  178.6970  144.1600 O   0  0  0  0  0  1  0  0  0  0  0  0
  185.1080  178.7410  146.4660 C   0  0  0  0  0  1  0  0  0  0  0  0
  185.5660  177.8950  145.2970 C   0  0  2  0  0  3  0  0  0  0  0  0
  183.5200  176.0940  136.4190 C   0  0  2  0  0  3  0  0  0  0  0  0
  184.3400  175.3630  137.4870 C   0  0  0  0  0  2  0  0  0  0  0  0
  184.3280  177.1440  135.7040 C   0  0  0  0  0  0  0  0  0  0  0  0
  185.4800  177.6810  136.2880 O   0  0  0  0  0  0  0  0  0  0  0  0
  186.1600  177.0430  137.3700 C   0  0  2  0  0  3  0  0  0  0  0  0
  183.9240  177.5940  134.5990 O   0  0  0  0  0  0  0  0  0  0  0  0
  185.1790  176.3380  138.3010 C   0  0  0  0  0  2  0  0  0  0  0  0
  181.9530  177.8740  136.7860 C   0  0  0  0  0  3  0  0  0  0  0  0
  182.3020  176.6480  136.9730 N   0  0  0  0  0  0  0  0  0  0  0  0
  179.9630  180.4840  138.2150 C   0  0  0  0  0  0  0  0  0  0  0  0
  180.6490  178.4100  138.9650 C   0  0  2  0  0  0  0  0  0  0  0  0
  179.4960  181.6510  138.2800 O   0  0  0  0  0  0  0  0  0  0  0  0
  180.5410  179.8930  136.9930 C   0  0  0  0  0  2  0  0  0  0  0  0
  179.9960  179.6310  139.2950 O   0  0  0  0  0  0  0  0  0  0  0  0
  179.5960  177.7330  136.8520 O   0  0  0  0  0  1  0  0  0  0  0  0
  180.6910  178.4230  137.3890 C   0  0  1  0  0  0  0  0  0  0  0  0
  179.3830  177.3090  140.6950 O   0  0  0  0  0  0  0  0  0  0  0  0
  179.6890  176.0570  138.7460 N   0  0  0  0  0  2  0  0  0  0  0  0
  179.8590  177.2470  139.5260 C   0  0  0  0  0  0  0  0  0  0  0  0
  179.0190  174.8700  139.2520 C   0  0  0  0  0  2  0  0  0  0  0  0
  180.0470  173.4350  137.5590 C   0  0  0  0  0  3  0  0  0  0  0  0
  178.9400  173.8350  138.1830 C   0  0  0  0  0  3  0  0  0  0  0  0
  179.9890  172.3970  136.4830 C   0  0  0  0  0  2  0  0  0  0  0  0
  182.1190  171.6850  137.4400 N   0  0  0  0  0  1  0  0  0  0  0  0
  181.3660  171.8110  136.2030 C   0  0  0  0  0  2  0  0  0  0  0  0
  182.3050  177.7150  140.7480 O   0  0  0  0  0  1  0  0  0  0  0  0
  182.9680  179.0650  139.0260 O   0  0  0  0  0  0  0  0  0  0  0  0
  182.0320  178.4360  139.5890 C   0  0  0  0  0  0  0  0  0  0  0  0
  1  2  2  0  0  0  0
  2  7  1  0  0  0  0
  2  3  2  0  0  0  0
  4 12  2  0  0  0  0
  5 10  1  6  0  0  0
  5  4  1  0  0  0  0
  5  6  1  0  0  0  0
  6  7  2  0  0  0  0
  6  8  1  0  0  0  0
  8 14  1  1  0  0  0
  9 11  1  0  0  0  0
  9 10  1  0  0  0  0
 11 13  2  0  0  0  0
 12  8  1  0  0  0  0
 13  4  1  0  0  0  0
 14 15  1  0  0  0  0
 15 16  1  0  0  0  0
 16 17  1  0  0  0  0
 17 18  1  1  0  0  0
 17 19  1  0  0  0  0
 20 19  1  1  0  0  0
 20 25  1  0  0  0  0
 20 21  1  0  0  0  0
 21 22  1  0  0  0  0
 22 23  1  0  0  0  0
 24 23  1  0  0  0  0
 25 27  1  1  0  0  0
 27 26  1  0  0  0  0
 28 29  1  0  0  0  0
 28 25  1  0  0  0  0
 30 32  1  0  0  0  0
 32 29  1  0  0  0  0
 32 31  1  1  0  0  0
 33 41  1  1  0  0  0
 33 34  1  0  0  0  0
 34 39  1  0  0  0  0
 35 36  1  0  0  0  0
 35 33  1  0  0  0  0
 36 37  1  0  0  0  0
 37  2  1  1  0  0  0
 37 39  1  0  0  0  0
 38 35  2  0  0  0  0
 40 41  2  0  0  0  0
 40 48  1  0  0  0  0
 42 44  2  0  0  0  0
 42 46  1  0  0  0  0
 43 46  1  0  0  0  0
 43 51  1  1  0  0  0
 43 60  1  0  0  0  0
 45 48  1  0  0  0  0
 45 42  1  0  0  0  0
 48 47  1  6  0  0  0
 48 43  1  0  0  0  0
 50 52  1  0  0  0  0
 50 51  1  0  0  0  0
 51 49  2  0  0  0  0
 53 54  2  0  0  0  0
 54 52  1  0  0  0  0
 55 53  1  0  0  0  0
 57 55  1  0  0  0  0
 57 56  1  0  0  0  0
 59 60  2  0  0  0  0
 60 58  1  0  0  0  0
M  END
>  <MODEL>
9

>  <REMARK>
 VINA RESULT:      -4.4      3.123      8.038
  Name = 
  24 active torsions:
  status: ('A' for Active; 'I' for Inactive)
    1  A    between atoms: C_3  and  C_26
    2  A    between atoms: C_3  and  C_56
    3  A    between atoms: C_4  and  N_19
    4  A    between atoms: C_5  and  C_48
    5  A    between atoms: C_6  and  C_22
    6  A    between atoms: C_6  and  C_44
    7  A    between atoms: C_7  and  O_50
    8  A    between atoms: C_7  and  C_51
    9  A    between atoms: C_11  and  C_39
   10  A    between atoms: N_17  and  S_46
   11  A    between atoms: C_18  and  C_47
   12  A    between atoms: C_18  and  C_59
   13  A    between atoms: C_24  and  C_53
   14  A    between atoms: C_26  and  O_43
   15  A    between atoms: C_31  and  S_46
   16  A    between atoms: N_32  and  C_53
   17  A    between atoms: C_35  and  C_41
   18  A    between atoms: C_41  and  O_43
   19  A    between atoms: O_45  and  C_48
   20  A    between atoms: O_45  and  C_49
   21  A    between atoms: C_49  and  C_55
   22  A    between atoms: C_49  and  C_56
   23  A    between atoms: O_50  and  C_55
   24  A    between atoms: C_55  and  C_58
                            x       y       z     vdW  Elec       q    Type
                         _______ _______ _______ _____ _____    ______ ____

>  <TORSDO>
F 24

$$$$
