=
 OpenBabel11062417433D

 39 41  0  0  1  0  0  0  0  0999 V2000
  191.1830  177.3310  140.7080 C   0  0  0  0  0  0  0  0  0  0  0  0
  193.1150  177.0980  139.3580 C   0  0  0  0  0  3  0  0  0  0  0  0
  192.3790  176.5260  138.3710 N   0  0  0  0  0  0  0  0  0  0  0  0
  191.0400  176.3300  138.5130 C   0  0  0  0  0  0  0  0  0  0  0  0
  190.4170  176.7340  139.7000 C   0  0  0  0  0  3  0  0  0  0  0  0
  192.5180  177.4920  140.5120 N   0  0  0  0  0  0  0  0  0  0  0  0
  190.3860  174.0890  137.1390 S   0  0  0  0  0  0  0  0  0  0  0  0
  190.2720  175.7120  137.4120 C   0  0  0  0  0  0  0  0  0  0  0  0
  188.3460  176.8220  136.3490 C   0  0  0  0  0  3  0  0  0  0  0  0
  189.6210  176.5810  136.4680 N   0  0  0  0  0  0  0  0  0  0  0  0
  187.3040  176.2640  137.2590 C   0  0  0  0  0  2  0  0  0  0  0  0
  186.6580  175.1330  136.6200 N   0  0  0  0  0  2  0  0  0  0  0  0
  184.6550  176.5050  136.5010 C   0  0  0  0  0  1  0  0  0  0  0  0
  185.2490  175.1880  136.9860 C   0  0  1  0  0  3  0  0  0  0  0  0
  184.4690  173.9600  136.4610 C   0  0  1  0  0  0  0  0  0  0  0  0
  183.1150  174.3680  136.1150 N   0  0  0  0  0  1  0  0  0  0  0  0
  185.1260  173.3930  135.2060 C   0  0  0  0  0  1  0  0  0  0  0  0
  184.3650  172.8590  137.5280 C   0  0  2  0  0  3  0  0  0  0  0  0
  185.5680  172.7010  138.1940 F   0  0  0  0  0  0  0  0  0  0  0  0
  183.9670  171.6370  136.9800 O   0  0  0  0  0  1  0  0  0  0  0  0
  190.6260  177.7440  141.9290 O   0  0  0  0  0  0  0  0  0  0  0  0
  186.9660  178.4170  141.6980 C   0  0  0  0  0  0  0  0  0  0  0  0
  188.8930  177.4750  143.5260 C   0  0  0  0  0  0  0  0  0  0  0  0
  189.2620  177.7760  142.2700 C   0  0  0  0  0  0  0  0  0  0  0  0
  189.8910  177.1870  144.5710 C   0  0  0  0  0  3  0  0  0  0  0  0
  186.6200  178.1960  143.0370 O   0  0  0  0  0  0  0  0  0  0  0  0
  189.5290  177.1550  145.8560 C   0  0  0  0  0  0  0  0  0  0  0  0
  187.4240  177.3640  143.8760 C   0  0  2  0  0  3  0  0  0  0  0  0
  187.1540  177.6040  145.3420 C   0  0  0  0  0  0  0  0  0  0  0  0
  188.2240  178.2050  141.3010 C   0  0  0  0  0  3  0  0  0  0  0  0
  188.1310  177.4540  146.2480 C   0  0  0  0  0  3  0  0  0  0  0  0
  184.9230  179.4820  141.1750 O   0  0  0  0  0  1  0  0  0  0  0  0
  185.9560  178.9010  140.7510 C   0  0  0  0  0  0  0  0  0  0  0  0
  186.1270  178.7240  139.3820 O   0  0  0  0  0  0  0  0  0  0  0  0
  185.7630  177.8980  145.8000 C   0  0  0  0  0  2  0  0  0  0  0  0
  185.7670  178.9500  146.8960 C   0  0  0  0  0  1  0  0  0  0  0  0
  190.5230  176.8840  146.8460 N   0  0  0  0  0  2  0  0  0  0  0  0
  191.8070  176.2840  146.5250 C   0  0  0  0  0  2  0  0  0  0  0  0
  192.4510  175.7620  147.7920 C   0  0  0  0  0  1  0  0  0  0  0  0
  1 21  1  0  0  0  0
  2  6  1  0  0  0  0
  3  4  1  0  0  0  0
  3  2  2  0  0  0  0
  4  5  2  0  0  0  0
  5  1  1  0  0  0  0
  6  1  2  0  0  0  0
  7  8  2  0  0  0  0
  8  4  1  0  0  0  0
  9 10  2  0  0  0  0
  9 11  1  0  0  0  0
 10  8  1  0  0  0  0
 12 14  1  0  0  0  0
 12 11  1  0  0  0  0
 14 13  1  6  0  0  0
 15 17  1  6  0  0  0
 15 14  1  0  0  0  0
 15 18  1  0  0  0  0
 16 15  1  0  0  0  0
 18 20  1  6  0  0  0
 18 19  1  0  0  0  0
 21 24  1  0  0  0  0
 22 26  1  0  0  0  0
 23 28  1  0  0  0  0
 23 25  1  0  0  0  0
 24 23  2  0  0  0  0
 25 27  2  0  0  0  0
 27 31  1  0  0  0  0
 27 37  1  0  0  0  0
 28 26  1  6  0  0  0
 28 29  1  0  0  0  0
 29 35  1  0  0  0  0
 29 31  2  0  0  0  0
 30 22  2  0  0  0  0
 30 24  1  0  0  0  0
 33 32  1  0  0  0  0
 33 22  1  0  0  0  0
 34 33  2  0  0  0  0
 35 36  1  0  0  0  0
 38 37  1  0  0  0  0
 38 39  1  0  0  0  0
M  END
>  <MODEL>
1

>  <REMARK>
 VINA RESULT:      -8.3      0.000      0.000
  Name = 
  13 active torsions:
  status: ('A' for Active; 'I' for Inactive)
    1  A    between atoms: C_1  and  O_35
    2  A    between atoms: C_2  and  C_32
    3  A    between atoms: C_3  and  N_20
    4  A    between atoms: C_7  and  C_13
    5  A    between atoms: C_8  and  C_17
    6  A    between atoms: C_8  and  C_36
    7  A    between atoms: C_10  and  O_35
    8  A    between atoms: C_12  and  N_18
    9  A    between atoms: C_12  and  C_33
   10  A    between atoms: C_13  and  N_34
   11  A    between atoms: N_18  and  C_36
   12  A    between atoms: N_20  and  C_22
   13  A    between atoms: C_21  and  C_25
                            x       y       z     vdW  Elec       q    Type
                         _______ _______ _______ _____ _____    ______ ____

>  <TORSDO>
F 13

$$$$
=
 OpenBabel11062417433D

 39 41  0  0  1  0  0  0  0  0999 V2000
  189.4850  177.8870  139.4800 C   0  0  0  0  0  0  0  0  0  0  0  0
  189.0050  178.9740  137.4310 C   0  0  0  0  0  3  0  0  0  0  0  0
  189.3770  177.8670  136.7370 N   0  0  0  0  0  0  0  0  0  0  0  0
  189.8170  176.7490  137.3760 C   0  0  0  0  0  0  0  0  0  0  0  0
  189.8790  176.7460  138.7740 C   0  0  0  0  0  3  0  0  0  0  0  0
  189.0630  178.9780  138.7880 N   0  0  0  0  0  0  0  0  0  0  0  0
  189.5750  174.0840  136.9570 S   0  0  0  0  0  0  0  0  0  0  0  0
  190.2050  175.5620  136.5850 C   0  0  0  0  0  0  0  0  0  0  0  0
  192.5630  175.4890  135.8730 C   0  0  0  0  0  3  0  0  0  0  0  0
  191.2950  175.6930  135.6550 N   0  0  0  0  0  0  0  0  0  0  0  0
  193.1170  174.9980  137.1680 C   0  0  0  0  0  2  0  0  0  0  0  0
  194.3960  175.6350  137.4210 N   0  0  0  0  0  2  0  0  0  0  0  0
  196.1910  175.4560  135.7920 C   0  0  0  0  0  1  0  0  0  0  0  0
  195.4230  174.7430  136.8980 C   0  0  1  0  0  3  0  0  0  0  0  0
  196.3520  174.2160  138.0160 C   0  0  1  0  0  0  0  0  0  0  0  0
  197.6670  174.8200  137.8670 N   0  0  0  0  0  1  0  0  0  0  0  0
  195.8140  174.5910  139.3940 C   0  0  0  0  0  1  0  0  0  0  0  0
  196.5270  172.6910  137.9330 C   0  0  2  0  0  3  0  0  0  0  0  0
  196.7140  172.2850  136.6230 F   0  0  0  0  0  0  0  0  0  0  0  0
  195.4390  172.0090  138.4850 O   0  0  0  0  0  1  0  0  0  0  0  0
  189.5370  177.9590  140.8820 O   0  0  0  0  0  0  0  0  0  0  0  0
  186.1090  178.4430  142.2660 C   0  0  0  0  0  0  0  0  0  0  0  0
  188.6660  177.5550  143.0510 C   0  0  0  0  0  0  0  0  0  0  0  0
  188.4500  177.9090  141.7730 C   0  0  0  0  0  0  0  0  0  0  0  0
  190.0240  177.2920  143.5560 C   0  0  0  0  0  3  0  0  0  0  0  0
  186.3780  178.1680  143.6130 O   0  0  0  0  0  0  0  0  0  0  0  0
  190.2490  177.2060  144.8690 C   0  0  0  0  0  0  0  0  0  0  0  0
  187.4930  177.3570  143.9880 C   0  0  2  0  0  3  0  0  0  0  0  0
  187.8680  177.5420  145.4390 C   0  0  0  0  0  0  0  0  0  0  0  0
  187.0830  178.3090  141.3610 C   0  0  0  0  0  3  0  0  0  0  0  0
  189.1430  177.4190  145.8340 C   0  0  0  0  0  3  0  0  0  0  0  0
  184.6110  179.4580  140.7470 O   0  0  0  0  0  0  0  0  0  0  0  0
  184.7740  178.8990  141.8640 C   0  0  0  0  0  0  0  0  0  0  0  0
  183.6810  178.7210  142.7060 O   0  0  0  0  0  1  0  0  0  0  0  0
  186.7980  177.7490  146.4600 C   0  0  0  0  0  2  0  0  0  0  0  0
  187.3950  178.1790  147.7880 C   0  0  0  0  0  1  0  0  0  0  0  0
  191.5800  176.9600  145.3270 N   0  0  0  0  0  2  0  0  0  0  0  0
  191.9410  175.7790  146.0930 C   0  0  0  0  0  2  0  0  0  0  0  0
  192.0130  176.1320  147.5630 C   0  0  0  0  0  1  0  0  0  0  0  0
  1 21  1  0  0  0  0
  2  6  1  0  0  0  0
  3  4  1  0  0  0  0
  3  2  2  0  0  0  0
  4  5  2  0  0  0  0
  5  1  1  0  0  0  0
  6  1  2  0  0  0  0
  8  7  2  0  0  0  0
  8  4  1  0  0  0  0
  9 11  1  0  0  0  0
 10  9  2  0  0  0  0
 10  8  1  0  0  0  0
 11 12  1  0  0  0  0
 14 13  1  6  0  0  0
 14 12  1  0  0  0  0
 14 15  1  0  0  0  0
 15 17  1  1  0  0  0
 16 15  1  0  0  0  0
 18 19  1  6  0  0  0
 18 15  1  0  0  0  0
 18 20  1  0  0  0  0
 21 24  1  0  0  0  0
 22 26  1  0  0  0  0
 23 25  1  0  0  0  0
 24 23  2  0  0  0  0
 25 27  2  0  0  0  0
 26 28  1  0  0  0  0
 27 37  1  0  0  0  0
 27 31  1  0  0  0  0
 28 23  1  6  0  0  0
 28 29  1  0  0  0  0
 29 31  2  0  0  0  0
 29 35  1  0  0  0  0
 30 24  1  0  0  0  0
 30 22  2  0  0  0  0
 32 33  2  0  0  0  0
 33 22  1  0  0  0  0
 33 34  1  0  0  0  0
 35 36  1  0  0  0  0
 37 38  1  0  0  0  0
 38 39  1  0  0  0  0
M  END
>  <MODEL>
2

>  <REMARK>
 VINA RESULT:      -8.3      3.589      5.916
  Name = 
  13 active torsions:
  status: ('A' for Active; 'I' for Inactive)
    1  A    between atoms: C_1  and  O_35
    2  A    between atoms: C_2  and  C_32
    3  A    between atoms: C_3  and  N_20
    4  A    between atoms: C_7  and  C_13
    5  A    between atoms: C_8  and  C_17
    6  A    between atoms: C_8  and  C_36
    7  A    between atoms: C_10  and  O_35
    8  A    between atoms: C_12  and  N_18
    9  A    between atoms: C_12  and  C_33
   10  A    between atoms: C_13  and  N_34
   11  A    between atoms: N_18  and  C_36
   12  A    between atoms: N_20  and  C_22
   13  A    between atoms: C_21  and  C_25
                            x       y       z     vdW  Elec       q    Type
                         _______ _______ _______ _____ _____    ______ ____

>  <TORSDO>
F 13

$$$$
=
 OpenBabel11062417433D

 39 41  0  0  1  0  0  0  0  0999 V2000
  191.1580  177.3890  140.9920 C   0  0  0  0  0  0  0  0  0  0  0  0
  193.1300  177.2250  139.6900 C   0  0  0  0  0  3  0  0  0  0  0  0
  192.4440  176.6000  138.6980 N   0  0  0  0  0  0  0  0  0  0  0  0
  191.1130  176.3430  138.8150 C   0  0  0  0  0  0  0  0  0  0  0  0
  190.4450  176.7380  139.9800 C   0  0  0  0  0  3  0  0  0  0  0  0
  192.4880  177.6110  140.8230 N   0  0  0  0  0  0  0  0  0  0  0  0
  189.3370  176.5160  136.7770 S   0  0  0  0  0  0  0  0  0  0  0  0
  190.4000  175.6680  137.7100 C   0  0  0  0  0  0  0  0  0  0  0  0
  191.3290  173.5240  136.9290 C   0  0  0  0  0  3  0  0  0  0  0  0
  190.4860  174.2350  137.6220 N   0  0  0  0  0  0  0  0  0  0  0  0
  192.4440  174.1030  136.1240 C   0  0  0  0  0  2  0  0  0  0  0  0
  193.5770  173.1970  136.1420 N   0  0  0  0  0  2  0  0  0  0  0  0
  194.3730  175.4800  135.8980 C   0  0  0  0  0  1  0  0  0  0  0  0
  194.7760  174.0170  136.0320 C   0  0  1  0  0  3  0  0  0  0  0  0
  195.7470  173.7770  137.2120 C   0  0  1  0  0  0  0  0  0  0  0  0
  196.0320  175.0490  137.8600 N   0  0  0  0  0  1  0  0  0  0  0  0
  195.1250  172.8470  138.2490 C   0  0  0  0  0  1  0  0  0  0  0  0
  197.0830  173.1890  136.7330 C   0  0  2  0  0  3  0  0  0  0  0  0
  197.9830  174.1940  136.4210 F   0  0  0  0  0  0  0  0  0  0  0  0
  196.9180  172.3470  135.6290 O   0  0  0  0  0  1  0  0  0  0  0  0
  190.5550  177.7980  142.1930 O   0  0  0  0  0  0  0  0  0  0  0  0
  186.8950  178.4230  141.8460 C   0  0  0  0  0  0  0  0  0  0  0  0
  188.7740  177.4920  143.7290 C   0  0  0  0  0  0  0  0  0  0  0  0
  189.1800  177.8080  142.4880 C   0  0  0  0  0  0  0  0  0  0  0  0
  189.7400  177.2090  144.8050 C   0  0  0  0  0  3  0  0  0  0  0  0
  186.5080  178.1870  143.1710 O   0  0  0  0  0  0  0  0  0  0  0  0
  189.3370  177.1610  146.0760 C   0  0  0  0  0  0  0  0  0  0  0  0
  187.2950  177.3580  144.0300 C   0  0  2  0  0  3  0  0  0  0  0  0
  186.9740  177.5820  145.4880 C   0  0  0  0  0  0  0  0  0  0  0  0
  188.1690  178.2320  141.4890 C   0  0  0  0  0  3  0  0  0  0  0  0
  187.9220  177.4370  146.4250 C   0  0  0  0  0  3  0  0  0  0  0  0
  184.8640  179.4800  141.2640 O   0  0  0  0  0  1  0  0  0  0  0  0
  185.9110  178.9020  140.8700 C   0  0  0  0  0  0  0  0  0  0  0  0
  186.1210  178.7240  139.5070 O   0  0  0  0  0  0  0  0  0  0  0  0
  185.5640  177.8530  145.9020 C   0  0  0  0  0  2  0  0  0  0  0  0
  185.5120  178.9460  146.9550 C   0  0  0  0  0  1  0  0  0  0  0  0
  190.3000  176.8940  147.0960 N   0  0  0  0  0  2  0  0  0  0  0  0
  191.7190  176.7520  146.8180 C   0  0  0  0  0  2  0  0  0  0  0  0
  192.2000  175.4050  147.3150 C   0  0  0  0  0  1  0  0  0  0  0  0
  1 21  1  0  0  0  0
  2  6  1  0  0  0  0
  3  4  1  0  0  0  0
  3  2  2  0  0  0  0
  4  5  2  0  0  0  0
  5  1  1  0  0  0  0
  6  1  2  0  0  0  0
  7  8  2  0  0  0  0
  8  4  1  0  0  0  0
  9 10  2  0  0  0  0
 10  8  1  0  0  0  0
 11 12  1  0  0  0  0
 11  9  1  0  0  0  0
 14 13  1  1  0  0  0
 14 12  1  0  0  0  0
 14 15  1  0  0  0  0
 15 16  1  0  0  0  0
 15 17  1  1  0  0  0
 18 20  1  6  0  0  0
 18 15  1  0  0  0  0
 19 18  1  0  0  0  0
 21 24  1  0  0  0  0
 22 26  1  0  0  0  0
 23 28  1  0  0  0  0
 23 25  1  0  0  0  0
 24 23  2  0  0  0  0
 25 27  2  0  0  0  0
 27 31  1  0  0  0  0
 27 37  1  0  0  0  0
 28 26  1  6  0  0  0
 28 29  1  0  0  0  0
 29 35  1  0  0  0  0
 29 31  2  0  0  0  0
 30 22  2  0  0  0  0
 30 24  1  0  0  0  0
 33 32  1  0  0  0  0
 33 22  1  0  0  0  0
 34 33  2  0  0  0  0
 35 36  1  0  0  0  0
 38 37  1  0  0  0  0
 38 39  1  0  0  0  0
M  END
>  <MODEL>
3

>  <REMARK>
 VINA RESULT:      -8.1      3.600      5.570
  Name = 
  13 active torsions:
  status: ('A' for Active; 'I' for Inactive)
    1  A    between atoms: C_1  and  O_35
    2  A    between atoms: C_2  and  C_32
    3  A    between atoms: C_3  and  N_20
    4  A    between atoms: C_7  and  C_13
    5  A    between atoms: C_8  and  C_17
    6  A    between atoms: C_8  and  C_36
    7  A    between atoms: C_10  and  O_35
    8  A    between atoms: C_12  and  N_18
    9  A    between atoms: C_12  and  C_33
   10  A    between atoms: C_13  and  N_34
   11  A    between atoms: N_18  and  C_36
   12  A    between atoms: N_20  and  C_22
   13  A    between atoms: C_21  and  C_25
                            x       y       z     vdW  Elec       q    Type
                         _______ _______ _______ _____ _____    ______ ____

>  <TORSDO>
F 13

$$$$
=
 OpenBabel11062417433D

 39 41  0  0  1  0  0  0  0  0999 V2000
  190.4000  177.5290  139.8080 C   0  0  0  0  0  0  0  0  0  0  0  0
  191.7880  176.3370  138.3040 C   0  0  0  0  0  3  0  0  0  0  0  0
  190.9640  176.6480  137.2700 N   0  0  0  0  0  0  0  0  0  0  0  0
  189.8410  177.3930  137.4620 C   0  0  0  0  0  0  0  0  0  0  0  0
  189.5410  177.8470  138.7510 C   0  0  0  0  0  3  0  0  0  0  0  0
  191.5020  176.7740  139.5570 N   0  0  0  0  0  0  0  0  0  0  0  0
  189.3960  177.2150  134.7960 S   0  0  0  0  0  0  0  0  0  0  0  0
  188.9750  177.7170  136.3090 C   0  0  0  0  0  0  0  0  0  0  0  0
  186.6340  178.4040  136.6510 C   0  0  0  0  0  3  0  0  0  0  0  0
  187.9030  178.6560  136.5090 N   0  0  0  0  0  0  0  0  0  0  0  0
  186.0570  177.0280  136.7010 C   0  0  0  0  0  2  0  0  0  0  0  0
  184.9670  176.9930  137.6580 N   0  0  0  0  0  2  0  0  0  0  0  0
  183.6970  175.5850  136.1390 C   0  0  0  0  0  1  0  0  0  0  0  0
  183.7320  176.9100  136.8890 C   0  0  1  0  0  3  0  0  0  0  0  0
  182.4850  177.1170  137.7800 C   0  0  1  0  0  0  0  0  0  0  0  0
  182.0480  178.5010  137.6720 N   0  0  0  0  0  1  0  0  0  0  0  0
  181.3360  176.2220  137.3270 C   0  0  0  0  0  1  0  0  0  0  0  0
  182.7970  176.8420  139.2600 C   0  0  2  0  0  3  0  0  0  0  0  0
  182.7990  175.4820  139.5210 F   0  0  0  0  0  0  0  0  0  0  0  0
  181.8930  177.4820  140.1120 O   0  0  0  0  0  1  0  0  0  0  0  0
  190.1510  177.9380  141.1280 O   0  0  0  0  0  0  0  0  0  0  0  0
  186.5410  178.5160  141.8630 C   0  0  0  0  0  0  0  0  0  0  0  0
  188.8820  177.5420  143.0930 C   0  0  0  0  0  0  0  0  0  0  0  0
  188.9170  177.9140  141.8030 C   0  0  0  0  0  0  0  0  0  0  0  0
  190.1160  177.2320  143.8370 C   0  0  0  0  0  3  0  0  0  0  0  0
  186.5480  178.2210  143.2320 O   0  0  0  0  0  0  0  0  0  0  0  0
  190.0910  177.1270  145.1670 C   0  0  0  0  0  0  0  0  0  0  0  0
  187.5510  177.3720  143.7950 C   0  0  2  0  0  3  0  0  0  0  0  0
  187.6570  177.5330  145.2930 C   0  0  0  0  0  0  0  0  0  0  0  0
  187.6610  178.3600  141.1510 C   0  0  0  0  0  3  0  0  0  0  0  0
  188.8330  177.3670  145.9150 C   0  0  0  0  0  3  0  0  0  0  0  0
  185.3570  179.4640  140.0520 O   0  0  0  0  0  0  0  0  0  0  0  0
  185.3170  179.0170  141.2280 C   0  0  0  0  0  0  0  0  0  0  0  0
  184.1080  179.0050  141.9140 O   0  0  0  0  0  1  0  0  0  0  0  0
  186.4220  177.7640  146.1020 C   0  0  0  0  0  2  0  0  0  0  0  0
  186.7700  178.3340  147.4660 C   0  0  0  0  0  1  0  0  0  0  0  0
  191.3070  176.8360  145.8590 N   0  0  0  0  0  2  0  0  0  0  0  0
  191.3740  176.6990  147.3040 C   0  0  0  0  0  2  0  0  0  0  0  0
  192.4010  175.6480  147.6650 C   0  0  0  0  0  1  0  0  0  0  0  0
  1 21  1  0  0  0  0
  2  6  1  0  0  0  0
  3  4  1  0  0  0  0
  3  2  2  0  0  0  0
  4  5  2  0  0  0  0
  5  1  1  0  0  0  0
  6  1  2  0  0  0  0
  7  8  2  0  0  0  0
  8 10  1  0  0  0  0
  8  4  1  0  0  0  0
  9 11  1  0  0  0  0
 10  9  2  0  0  0  0
 11 12  1  0  0  0  0
 14 13  1  1  0  0  0
 14 12  1  0  0  0  0
 14 15  1  0  0  0  0
 15 17  1  6  0  0  0
 15 18  1  0  0  0  0
 16 15  1  0  0  0  0
 18 19  1  6  0  0  0
 18 20  1  0  0  0  0
 21 24  1  0  0  0  0
 22 26  1  0  0  0  0
 23 25  1  0  0  0  0
 24 23  2  0  0  0  0
 25 27  2  0  0  0  0
 26 28  1  0  0  0  0
 27 37  1  0  0  0  0
 27 31  1  0  0  0  0
 28 23  1  6  0  0  0
 28 29  1  0  0  0  0
 29 31  2  0  0  0  0
 29 35  1  0  0  0  0
 30 24  1  0  0  0  0
 30 22  2  0  0  0  0
 32 33  2  0  0  0  0
 33 22  1  0  0  0  0
 33 34  1  0  0  0  0
 35 36  1  0  0  0  0
 37 38  1  0  0  0  0
 38 39  1  0  0  0  0
M  END
>  <MODEL>
4

>  <REMARK>
 VINA RESULT:      -8.0      2.022      2.491
  Name = 
  13 active torsions:
  status: ('A' for Active; 'I' for Inactive)
    1  A    between atoms: C_1  and  O_35
    2  A    between atoms: C_2  and  C_32
    3  A    between atoms: C_3  and  N_20
    4  A    between atoms: C_7  and  C_13
    5  A    between atoms: C_8  and  C_17
    6  A    between atoms: C_8  and  C_36
    7  A    between atoms: C_10  and  O_35
    8  A    between atoms: C_12  and  N_18
    9  A    between atoms: C_12  and  C_33
   10  A    between atoms: C_13  and  N_34
   11  A    between atoms: N_18  and  C_36
   12  A    between atoms: N_20  and  C_22
   13  A    between atoms: C_21  and  C_25
                            x       y       z     vdW  Elec       q    Type
                         _______ _______ _______ _____ _____    ______ ____

>  <TORSDO>
F 13

$$$$
=
 OpenBabel11062417433D

 39 41  0  0  1  0  0  0  0  0999 V2000
  184.8480  178.2580  142.9110 C   0  0  0  0  0  0  0  0  0  0  0  0
  182.9700  178.9880  144.1560 C   0  0  0  0  0  3  0  0  0  0  0  0
  182.2020  178.9810  143.0350 N   0  0  0  0  0  0  0  0  0  0  0  0
  182.7200  178.6260  141.8280 C   0  0  0  0  0  0  0  0  0  0  0  0
  184.0680  178.2560  141.7490 C   0  0  0  0  0  3  0  0  0  0  0  0
  184.2780  178.6310  144.0870 N   0  0  0  0  0  0  0  0  0  0  0  0
  180.9460  177.2900  140.2770 S   0  0  0  0  0  0  0  0  0  0  0  0
  181.8500  178.6230  140.6330 C   0  0  0  0  0  0  0  0  0  0  0  0
  182.6830  179.7170  138.5890 C   0  0  0  0  0  3  0  0  0  0  0  0
  181.9880  179.7010  139.6900 N   0  0  0  0  0  0  0  0  0  0  0  0
  183.4350  178.5420  138.0600 C   0  0  0  0  0  2  0  0  0  0  0  0
  184.8490  178.7050  138.3390 N   0  0  0  0  0  2  0  0  0  0  0  0
  184.9780  177.2260  136.4150 C   0  0  0  0  0  1  0  0  0  0  0  0
  185.5240  177.5290  137.8040 C   0  0  1  0  0  3  0  0  0  0  0  0
  187.0610  177.6960  137.8110 C   0  0  1  0  0  0  0  0  0  0  0  0
  187.4740  178.2550  139.0900 N   0  0  0  0  0  1  0  0  0  0  0  0
  187.7560  176.3490  137.6380 C   0  0  0  0  0  1  0  0  0  0  0  0
  187.5300  178.6590  136.7090 C   0  0  2  0  0  3  0  0  0  0  0  0
  188.1630  177.9720  135.6870 F   0  0  0  0  0  0  0  0  0  0  0  0
  188.3810  179.6490  137.2070 O   0  0  0  0  0  1  0  0  0  0  0  0
  186.2100  177.9150  142.9020 O   0  0  0  0  0  0  0  0  0  0  0  0
  187.5040  178.1160  146.3930 C   0  0  0  0  0  0  0  0  0  0  0  0
  188.2630  177.1890  143.8420 C   0  0  0  0  0  0  0  0  0  0  0  0
  187.0390  177.7140  144.0200 C   0  0  0  0  0  0  0  0  0  0  0  0
  188.7820  176.8900  142.4960 C   0  0  0  0  0  3  0  0  0  0  0  0
  188.8090  177.6600  146.1670 O   0  0  0  0  0  0  0  0  0  0  0  0
  190.0790  176.6250  142.3190 C   0  0  0  0  0  0  0  0  0  0  0  0
  189.1140  176.8320  145.0430 C   0  0  2  0  0  3  0  0  0  0  0  0
  190.5900  176.8200  144.7290 C   0  0  0  0  0  0  0  0  0  0  0  0
  186.6300  178.1350  145.3820 C   0  0  0  0  0  3  0  0  0  0  0  0
  191.0170  176.6740  143.4660 C   0  0  0  0  0  3  0  0  0  0  0  0
  186.0970  179.3210  147.8590 O   0  0  0  0  0  0  0  0  0  0  0  0
  187.1140  178.5910  147.7250 C   0  0  0  0  0  0  0  0  0  0  0  0
  187.8600  178.2440  148.8470 O   0  0  0  0  0  1  0  0  0  0  0  0
  191.5850  176.8550  145.8430 C   0  0  0  0  0  2  0  0  0  0  0  0
  192.0410  175.4520  146.2030 C   0  0  0  0  0  1  0  0  0  0  0  0
  190.5530  176.3500  141.0000 N   0  0  0  0  0  2  0  0  0  0  0  0
  191.3250  177.3080  140.2270 C   0  0  0  0  0  2  0  0  0  0  0  0
  191.0740  177.0860  138.7510 C   0  0  0  0  0  1  0  0  0  0  0  0
  1  6  2  0  0  0  0
  3  2  2  0  0  0  0
  4  3  1  0  0  0  0
  5  4  2  0  0  0  0
  5  1  1  0  0  0  0
  6  2  1  0  0  0  0
  7  8  2  0  0  0  0
  8  4  1  0  0  0  0
  9 10  2  0  0  0  0
 10  8  1  0  0  0  0
 11 12  1  0  0  0  0
 11  9  1  0  0  0  0
 14 13  1  6  0  0  0
 14 15  1  0  0  0  0
 14 12  1  0  0  0  0
 15 17  1  6  0  0  0
 15 16  1  0  0  0  0
 18 19  1  6  0  0  0
 18 20  1  0  0  0  0
 18 15  1  0  0  0  0
 21  1  1  0  0  0  0
 21 24  1  0  0  0  0
 22 33  1  0  0  0  0
 23 24  2  0  0  0  0
 24 30  1  0  0  0  0
 25 23  1  0  0  0  0
 26 22  1  0  0  0  0
 27 25  2  0  0  0  0
 27 31  1  0  0  0  0
 28 23  1  6  0  0  0
 28 26  1  0  0  0  0
 29 28  1  0  0  0  0
 29 35  1  0  0  0  0
 30 22  2  0  0  0  0
 31 29  2  0  0  0  0
 33 32  2  0  0  0  0
 33 34  1  0  0  0  0
 35 36  1  0  0  0  0
 37 27  1  0  0  0  0
 38 37  1  0  0  0  0
 39 38  1  0  0  0  0
M  END
>  <MODEL>
5

>  <REMARK>
 VINA RESULT:      -7.9      3.715      6.644
  Name = 
  13 active torsions:
  status: ('A' for Active; 'I' for Inactive)
    1  A    between atoms: C_1  and  O_35
    2  A    between atoms: C_2  and  C_32
    3  A    between atoms: C_3  and  N_20
    4  A    between atoms: C_7  and  C_13
    5  A    between atoms: C_8  and  C_17
    6  A    between atoms: C_8  and  C_36
    7  A    between atoms: C_10  and  O_35
    8  A    between atoms: C_12  and  N_18
    9  A    between atoms: C_12  and  C_33
   10  A    between atoms: C_13  and  N_34
   11  A    between atoms: N_18  and  C_36
   12  A    between atoms: N_20  and  C_22
   13  A    between atoms: C_21  and  C_25
                            x       y       z     vdW  Elec       q    Type
                         _______ _______ _______ _____ _____    ______ ____

>  <TORSDO>
F 13

$$$$
=
 OpenBabel11062417433D

 39 41  0  0  1  0  0  0  0  0999 V2000
  190.1340  177.5050  139.8310 C   0  0  0  0  0  0  0  0  0  0  0  0
  191.5360  176.2930  138.3570 C   0  0  0  0  0  3  0  0  0  0  0  0
  190.6620  176.4880  137.3360 N   0  0  0  0  0  0  0  0  0  0  0  0
  189.5050  177.1810  137.5210 C   0  0  0  0  0  0  0  0  0  0  0  0
  189.2230  177.7040  138.7880 C   0  0  0  0  0  3  0  0  0  0  0  0
  191.2680  176.7960  139.5890 N   0  0  0  0  0  0  0  0  0  0  0  0
  187.4960  178.6190  136.4110 S   0  0  0  0  0  0  0  0  0  0  0  0
  188.5840  177.3800  136.3830 C   0  0  0  0  0  0  0  0  0  0  0  0
  187.7010  175.3290  135.3410 C   0  0  0  0  0  3  0  0  0  0  0  0
  188.5100  176.3490  135.3820 N   0  0  0  0  0  0  0  0  0  0  0  0
  186.6170  175.0840  136.3360 C   0  0  0  0  0  2  0  0  0  0  0  0
  185.3870  175.7020  135.8760 N   0  0  0  0  0  2  0  0  0  0  0  0
  184.8660  173.9910  137.5220 C   0  0  0  0  0  1  0  0  0  0  0  0
  184.2940  175.0400  136.5770 C   0  0  1  0  0  3  0  0  0  0  0  0
  183.3810  176.0550  137.3040 C   0  0  1  0  0  0  0  0  0  0  0  0
  184.1300  177.2770  137.5530 N   0  0  0  0  0  1  0  0  0  0  0  0
  182.1690  176.4090  136.4470 C   0  0  0  0  0  1  0  0  0  0  0  0
  182.9070  175.5140  138.6630 C   0  0  2  0  0  3  0  0  0  0  0  0
  181.6420  174.9600  138.5620 F   0  0  0  0  0  0  0  0  0  0  0  0
  182.9090  176.5040  139.6490 O   0  0  0  0  0  1  0  0  0  0  0  0
  189.9070  177.9870  141.1300 O   0  0  0  0  0  0  0  0  0  0  0  0
  186.3160  178.5170  141.9870 C   0  0  0  0  0  0  0  0  0  0  0  0
  188.7120  177.5830  143.1400 C   0  0  0  0  0  0  0  0  0  0  0  0
  188.6970  177.9480  141.8470 C   0  0  0  0  0  0  0  0  0  0  0  0
  189.9740  177.2940  143.8410 C   0  0  0  0  0  3  0  0  0  0  0  0
  186.3750  178.2290  143.3560 O   0  0  0  0  0  0  0  0  0  0  0  0
  189.9970  177.1950  145.1730 C   0  0  0  0  0  0  0  0  0  0  0  0
  187.4080  177.3970  143.8880 C   0  0  2  0  0  3  0  0  0  0  0  0
  187.5630  177.5670  145.3800 C   0  0  0  0  0  0  0  0  0  0  0  0
  187.4130  178.3740  141.2370 C   0  0  0  0  0  3  0  0  0  0  0  0
  188.7620  177.4200  145.9620 C   0  0  0  0  0  3  0  0  0  0  0  0
  183.9840  178.8940  142.0310 O   0  0  0  0  0  1  0  0  0  0  0  0
  185.0640  178.9980  141.3920 C   0  0  0  0  0  0  0  0  0  0  0  0
  185.0560  179.5680  140.1230 O   0  0  0  0  0  0  0  0  0  0  0  0
  186.3540  177.7840  146.2300 C   0  0  0  0  0  2  0  0  0  0  0  0
  186.7350  178.4110  147.5600 C   0  0  0  0  0  1  0  0  0  0  0  0
  191.2400  176.9250  145.8230 N   0  0  0  0  0  2  0  0  0  0  0  0
  191.3390  176.6700  147.2510 C   0  0  0  0  0  2  0  0  0  0  0  0
  192.4050  175.6270  147.5050 C   0  0  0  0  0  1  0  0  0  0  0  0
  1 21  1  0  0  0  0
  2  6  1  0  0  0  0
  3  4  1  0  0  0  0
  3  2  2  0  0  0  0
  4  5  2  0  0  0  0
  5  1  1  0  0  0  0
  6  1  2  0  0  0  0
  8  7  2  0  0  0  0
  8  4  1  0  0  0  0
  9 10  2  0  0  0  0
  9 11  1  0  0  0  0
 10  8  1  0  0  0  0
 12 11  1  0  0  0  0
 12 14  1  0  0  0  0
 14 15  1  0  0  0  0
 14 13  1  1  0  0  0
 15 17  1  6  0  0  0
 15 16  1  0  0  0  0
 15 18  1  0  0  0  0
 18 19  1  6  0  0  0
 18 20  1  0  0  0  0
 21 24  1  0  0  0  0
 22 26  1  0  0  0  0
 23 25  1  0  0  0  0
 24 23  2  0  0  0  0
 25 27  2  0  0  0  0
 26 28  1  0  0  0  0
 27 37  1  0  0  0  0
 27 31  1  0  0  0  0
 28 23  1  6  0  0  0
 28 29  1  0  0  0  0
 29 31  2  0  0  0  0
 29 35  1  0  0  0  0
 30 24  1  0  0  0  0
 30 22  2  0  0  0  0
 33 22  1  0  0  0  0
 33 32  1  0  0  0  0
 34 33  2  0  0  0  0
 35 36  1  0  0  0  0
 37 38  1  0  0  0  0
 38 39  1  0  0  0  0
M  END
>  <MODEL>
6

>  <REMARK>
 VINA RESULT:      -7.9      1.878      2.219
  Name = 
  13 active torsions:
  status: ('A' for Active; 'I' for Inactive)
    1  A    between atoms: C_1  and  O_35
    2  A    between atoms: C_2  and  C_32
    3  A    between atoms: C_3  and  N_20
    4  A    between atoms: C_7  and  C_13
    5  A    between atoms: C_8  and  C_17
    6  A    between atoms: C_8  and  C_36
    7  A    between atoms: C_10  and  O_35
    8  A    between atoms: C_12  and  N_18
    9  A    between atoms: C_12  and  C_33
   10  A    between atoms: C_13  and  N_34
   11  A    between atoms: N_18  and  C_36
   12  A    between atoms: N_20  and  C_22
   13  A    between atoms: C_21  and  C_25
                            x       y       z     vdW  Elec       q    Type
                         _______ _______ _______ _____ _____    ______ ____

>  <TORSDO>
F 13

$$$$
=
 OpenBabel11062417433D

 39 41  0  0  1  0  0  0  0  0999 V2000
  184.8330  178.9710  140.2590 C   0  0  0  0  0  0  0  0  0  0  0  0
  183.3900  180.1390  138.7870 C   0  0  0  0  0  3  0  0  0  0  0  0
  182.4850  179.1280  138.8440 N   0  0  0  0  0  0  0  0  0  0  0  0
  182.7170  178.0150  139.5910 C   0  0  0  0  0  0  0  0  0  0  0  0
  183.9100  177.9210  140.3160 C   0  0  0  0  0  3  0  0  0  0  0  0
  184.5500  180.0540  139.4880 N   0  0  0  0  0  0  0  0  0  0  0  0
  180.1820  177.2650  140.1830 S   0  0  0  0  0  0  0  0  0  0  0  0
  181.7030  176.9400  139.6340 C   0  0  0  0  0  0  0  0  0  0  0  0
  182.7370  175.1060  138.3550 C   0  0  0  0  0  3  0  0  0  0  0  0
  182.1380  175.5880  139.4060 N   0  0  0  0  0  0  0  0  0  0  0  0
  183.1530  175.9280  137.1820 C   0  0  0  0  0  2  0  0  0  0  0  0
  184.0870  175.1730  136.3680 N   0  0  0  0  0  2  0  0  0  0  0  0
  185.7020  173.5710  137.2250 C   0  0  0  0  0  1  0  0  0  0  0  0
  185.3140  175.0420  137.1430 C   0  0  1  0  0  3  0  0  0  0  0  0
  186.4510  175.9220  136.5730 C   0  0  1  0  0  0  0  0  0  0  0  0
  187.6990  175.1750  136.6180 N   0  0  0  0  0  1  0  0  0  0  0  0
  186.1750  176.2950  135.1190 C   0  0  0  0  0  1  0  0  0  0  0  0
  186.6440  177.2020  137.4020 C   0  0  2  0  0  3  0  0  0  0  0  0
  185.5790  178.0690  137.2290 F   0  0  0  0  0  0  0  0  0  0  0  0
  187.8380  177.8550  137.0850 O   0  0  0  0  0  1  0  0  0  0  0  0
  186.0560  178.9360  140.9470 O   0  0  0  0  0  0  0  0  0  0  0  0
  185.6240  178.5390  144.6300 C   0  0  0  0  0  0  0  0  0  0  0  0
  187.4150  177.8550  142.5640 C   0  0  0  0  0  0  0  0  0  0  0  0
  186.2730  178.4970  142.2660 C   0  0  0  0  0  0  0  0  0  0  0  0
  188.4750  177.6680  141.5590 C   0  0  0  0  0  3  0  0  0  0  0  0
  186.8630  177.9620  144.9330 O   0  0  0  0  0  0  0  0  0  0  0  0
  189.6940  177.2730  141.9320 C   0  0  0  0  0  0  0  0  0  0  0  0
  187.6050  177.2500  143.9390 C   0  0  2  0  0  3  0  0  0  0  0  0
  189.0590  177.1010  144.3140 C   0  0  0  0  0  0  0  0  0  0  0  0
  185.3090  178.7900  143.3550 C   0  0  0  0  0  3  0  0  0  0  0  0
  190.0070  177.0640  143.3670 C   0  0  0  0  0  3  0  0  0  0  0  0
  183.4640  179.0020  145.4670 O   0  0  0  0  0  0  0  0  0  0  0  0
  184.6940  178.8870  145.7100 C   0  0  0  0  0  0  0  0  0  0  0  0
  185.1580  179.0930  147.0050 O   0  0  0  0  0  1  0  0  0  0  0  0
  189.4370  176.8750  145.7420 C   0  0  0  0  0  2  0  0  0  0  0  0
  190.9440  176.9380  145.9180 C   0  0  0  0  0  1  0  0  0  0  0  0
  190.7030  177.1110  140.9340 N   0  0  0  0  0  2  0  0  0  0  0  0
  190.5060  177.5000  139.5480 C   0  0  0  0  0  2  0  0  0  0  0  0
  190.8240  176.3290  138.6440 C   0  0  0  0  0  1  0  0  0  0  0  0
  1  5  1  0  0  0  0
  1 21  1  0  0  0  0
  2  3  2  0  0  0  0
  2  6  1  0  0  0  0
  3  4  1  0  0  0  0
  4  8  1  0  0  0  0
  4  5  2  0  0  0  0
  6  1  2  0  0  0  0
  8  7  2  0  0  0  0
  9 10  2  0  0  0  0
 10  8  1  0  0  0  0
 11  9  1  0  0  0  0
 12 14  1  0  0  0  0
 12 11  1  0  0  0  0
 14 13  1  6  0  0  0
 15 17  1  6  0  0  0
 15 16  1  0  0  0  0
 15 14  1  0  0  0  0
 15 18  1  0  0  0  0
 18 20  1  6  0  0  0
 19 18  1  0  0  0  0
 21 24  1  0  0  0  0
 22 26  1  0  0  0  0
 22 33  1  0  0  0  0
 24 23  2  0  0  0  0
 24 30  1  0  0  0  0
 25 27  2  0  0  0  0
 25 23  1  0  0  0  0
 27 31  1  0  0  0  0
 28 23  1  6  0  0  0
 28 29  1  0  0  0  0
 28 26  1  0  0  0  0
 29 35  1  0  0  0  0
 30 22  2  0  0  0  0
 31 29  2  0  0  0  0
 32 33  2  0  0  0  0
 33 34  1  0  0  0  0
 35 36  1  0  0  0  0
 37 27  1  0  0  0  0
 38 37  1  0  0  0  0
 39 38  1  0  0  0  0
M  END
>  <MODEL>
7

>  <REMARK>
 VINA RESULT:      -7.9      3.110      5.910
  Name = 
  13 active torsions:
  status: ('A' for Active; 'I' for Inactive)
    1  A    between atoms: C_1  and  O_35
    2  A    between atoms: C_2  and  C_32
    3  A    between atoms: C_3  and  N_20
    4  A    between atoms: C_7  and  C_13
    5  A    between atoms: C_8  and  C_17
    6  A    between atoms: C_8  and  C_36
    7  A    between atoms: C_10  and  O_35
    8  A    between atoms: C_12  and  N_18
    9  A    between atoms: C_12  and  C_33
   10  A    between atoms: C_13  and  N_34
   11  A    between atoms: N_18  and  C_36
   12  A    between atoms: N_20  and  C_22
   13  A    between atoms: C_21  and  C_25
                            x       y       z     vdW  Elec       q    Type
                         _______ _______ _______ _____ _____    ______ ____

>  <TORSDO>
F 13

$$$$
=
 OpenBabel11062417433D

 39 41  0  0  1  0  0  0  0  0999 V2000
  184.7540  178.7610  140.4300 C   0  0  0  0  0  0  0  0  0  0  0  0
  183.3760  180.0100  138.9630 C   0  0  0  0  0  3  0  0  0  0  0  0
  182.3500  179.1430  139.1590 N   0  0  0  0  0  0  0  0  0  0  0  0
  182.4850  178.0640  139.9780 C   0  0  0  0  0  0  0  0  0  0  0  0
  183.7050  177.8570  140.6310 C   0  0  0  0  0  3  0  0  0  0  0  0
  184.5630  179.8140  139.5930 N   0  0  0  0  0  0  0  0  0  0  0  0
  180.0220  177.6480  141.0270 S   0  0  0  0  0  0  0  0  0  0  0  0
  181.3410  177.1480  140.1730 C   0  0  0  0  0  0  0  0  0  0  0  0
  181.5110  175.2550  138.6050 C   0  0  0  0  0  3  0  0  0  0  0  0
  181.5070  175.7680  139.8020 N   0  0  0  0  0  0  0  0  0  0  0  0
  181.4070  176.0600  137.3530 C   0  0  0  0  0  2  0  0  0  0  0  0
  182.6910  176.0730  136.6760 N   0  0  0  0  0  2  0  0  0  0  0  0
  182.5810  174.4060  134.9100 C   0  0  0  0  0  1  0  0  0  0  0  0
  183.0070  174.6890  136.3450 C   0  0  1  0  0  3  0  0  0  0  0  0
  184.4990  174.3660  136.5930 C   0  0  1  0  0  0  0  0  0  0  0  0
  185.0950  173.8870  135.3540 N   0  0  0  0  0  1  0  0  0  0  0  0
  185.2620  175.6110  137.0330 C   0  0  0  0  0  1  0  0  0  0  0  0
  184.6690  173.2610  137.6480 C   0  0  2  0  0  3  0  0  0  0  0  0
  186.0040  173.0860  137.9720 F   0  0  0  0  0  0  0  0  0  0  0  0
  184.1240  172.0460  137.2250 O   0  0  0  0  0  1  0  0  0  0  0  0
  186.0090  178.6040  141.0390 O   0  0  0  0  0  0  0  0  0  0  0  0
  185.6560  178.4910  144.7490 C   0  0  0  0  0  0  0  0  0  0  0  0
  187.4270  177.6920  142.7080 C   0  0  0  0  0  0  0  0  0  0  0  0
  186.2620  178.2780  142.3840 C   0  0  0  0  0  0  0  0  0  0  0  0
  188.4730  177.4530  141.6990 C   0  0  0  0  0  3  0  0  0  0  0  0
  186.9160  177.9730  145.0720 O   0  0  0  0  0  0  0  0  0  0  0  0
  189.7100  177.1220  142.0780 C   0  0  0  0  0  0  0  0  0  0  0  0
  187.6590  177.2040  144.1230 C   0  0  2  0  0  3  0  0  0  0  0  0
  189.1240  177.1230  144.4790 C   0  0  0  0  0  0  0  0  0  0  0  0
  185.3110  178.6310  143.4660 C   0  0  0  0  0  3  0  0  0  0  0  0
  190.0550  177.0360  143.5180 C   0  0  0  0  0  3  0  0  0  0  0  0
  185.1620  179.0370  146.9940 O   0  0  0  0  0  1  0  0  0  0  0  0
  184.7360  178.8990  145.8170 C   0  0  0  0  0  0  0  0  0  0  0  0
  183.3940  179.1360  145.5430 O   0  0  0  0  0  0  0  0  0  0  0  0
  189.5340  177.0230  145.9120 C   0  0  0  0  0  2  0  0  0  0  0  0
  191.0430  176.9050  146.0340 C   0  0  0  0  0  1  0  0  0  0  0  0
  190.7040  176.9070  141.0750 N   0  0  0  0  0  2  0  0  0  0  0  0
  190.5720  177.4090  139.7180 C   0  0  0  0  0  2  0  0  0  0  0  0
  191.4730  176.6150  138.7960 C   0  0  0  0  0  1  0  0  0  0  0  0
  1  5  1  0  0  0  0
  1 21  1  0  0  0  0
  2  3  2  0  0  0  0
  2  6  1  0  0  0  0
  3  4  1  0  0  0  0
  4  8  1  0  0  0  0
  4  5  2  0  0  0  0
  6  1  2  0  0  0  0
  8  7  2  0  0  0  0
  9 10  2  0  0  0  0
 10  8  1  0  0  0  0
 11  9  1  0  0  0  0
 12 11  1  0  0  0  0
 14 13  1  6  0  0  0
 14 15  1  0  0  0  0
 14 12  1  0  0  0  0
 15 17  1  1  0  0  0
 15 18  1  0  0  0  0
 16 15  1  0  0  0  0
 18 20  1  6  0  0  0
 18 19  1  0  0  0  0
 21 24  1  0  0  0  0
 22 26  1  0  0  0  0
 22 33  1  0  0  0  0
 24 23  2  0  0  0  0
 24 30  1  0  0  0  0
 25 27  2  0  0  0  0
 25 23  1  0  0  0  0
 27 31  1  0  0  0  0
 28 23  1  6  0  0  0
 28 29  1  0  0  0  0
 28 26  1  0  0  0  0
 29 35  1  0  0  0  0
 30 22  2  0  0  0  0
 31 29  2  0  0  0  0
 33 32  1  0  0  0  0
 34 33  2  0  0  0  0
 35 36  1  0  0  0  0
 37 27  1  0  0  0  0
 38 37  1  0  0  0  0
 39 38  1  0  0  0  0
M  END
>  <MODEL>
8

>  <REMARK>
 VINA RESULT:      -7.9      3.147      5.803
  Name = 
  13 active torsions:
  status: ('A' for Active; 'I' for Inactive)
    1  A    between atoms: C_1  and  O_35
    2  A    between atoms: C_2  and  C_32
    3  A    between atoms: C_3  and  N_20
    4  A    between atoms: C_7  and  C_13
    5  A    between atoms: C_8  and  C_17
    6  A    between atoms: C_8  and  C_36
    7  A    between atoms: C_10  and  O_35
    8  A    between atoms: C_12  and  N_18
    9  A    between atoms: C_12  and  C_33
   10  A    between atoms: C_13  and  N_34
   11  A    between atoms: N_18  and  C_36
   12  A    between atoms: N_20  and  C_22
   13  A    between atoms: C_21  and  C_25
                            x       y       z     vdW  Elec       q    Type
                         _______ _______ _______ _____ _____    ______ ____

>  <TORSDO>
F 13

$$$$
=
 OpenBabel11062417433D

 39 41  0  0  1  0  0  0  0  0999 V2000
  190.8520  176.8380  140.2410 C   0  0  0  0  0  0  0  0  0  0  0  0
  193.0960  177.5140  139.8990 C   0  0  0  0  0  3  0  0  0  0  0  0
  193.1850  176.7250  138.7960 N   0  0  0  0  0  0  0  0  0  0  0  0
  192.1300  175.9700  138.3830 C   0  0  0  0  0  0  0  0  0  0  0  0
  190.9360  176.0160  139.1110 C   0  0  0  0  0  3  0  0  0  0  0  0
  191.9410  177.5630  140.6100 N   0  0  0  0  0  0  0  0  0  0  0  0
  193.1420  175.6760  135.8880 S   0  0  0  0  0  0  0  0  0  0  0  0
  192.2630  175.1320  137.1730 C   0  0  0  0  0  0  0  0  0  0  0  0
  190.4670  173.7410  136.2190 C   0  0  0  0  0  3  0  0  0  0  0  0
  191.4340  173.9620  137.0640 N   0  0  0  0  0  0  0  0  0  0  0  0
  190.0840  174.6820  135.1270 C   0  0  0  0  0  2  0  0  0  0  0  0
  188.8330  175.3360  135.4670 N   0  0  0  0  0  2  0  0  0  0  0  0
  189.6070  177.4980  134.6710 C   0  0  0  0  0  1  0  0  0  0  0  0
  189.1650  176.6910  135.8860 C   0  0  1  0  0  3  0  0  0  0  0  0
  187.9970  177.3610  136.6460 C   0  0  1  0  0  0  0  0  0  0  0  0
  187.2210  178.1660  135.7140 N   0  0  0  0  0  1  0  0  0  0  0  0
  187.0680  176.3120  137.2500 C   0  0  0  0  0  1  0  0  0  0  0  0
  188.5060  178.2940  137.7550 C   0  0  2  0  0  3  0  0  0  0  0  0
  187.6790  178.2440  138.8640 F   0  0  0  0  0  0  0  0  0  0  0  0
  188.6220  179.6150  137.3140 O   0  0  0  0  0  1  0  0  0  0  0  0
  189.6910  176.9190  141.0260 O   0  0  0  0  0  0  0  0  0  0  0  0
  190.5830  176.6600  144.6380 C   0  0  0  0  0  0  0  0  0  0  0  0
  188.4910  177.5520  142.9730 C   0  0  0  0  0  0  0  0  0  0  0  0
  189.6240  177.0830  142.4220 C   0  0  0  0  0  0  0  0  0  0  0  0
  187.2970  177.8270  142.1560 C   0  0  0  0  0  3  0  0  0  0  0  0
  189.3590  177.0570  145.1920 O   0  0  0  0  0  0  0  0  0  0  0  0
  186.1150  178.0330  142.7410 C   0  0  0  0  0  0  0  0  0  0  0  0
  188.4470  177.8710  144.4520 C   0  0  2  0  0  3  0  0  0  0  0  0
  187.0480  177.8160  145.0180 C   0  0  0  0  0  0  0  0  0  0  0  0
  190.7410  176.6810  143.3110 C   0  0  0  0  0  3  0  0  0  0  0  0
  185.9820  177.9430  144.2150 C   0  0  0  0  0  3  0  0  0  0  0  0
  192.2480  175.1100  145.2740 O   0  0  0  0  0  0  0  0  0  0  0  0
  191.6690  176.2030  145.5110 C   0  0  0  0  0  0  0  0  0  0  0  0
  192.0680  176.9650  146.6040 O   0  0  0  0  0  1  0  0  0  0  0  0
  186.8500  177.7360  146.4970 C   0  0  0  0  0  2  0  0  0  0  0  0
  185.7210  178.6500  146.9400 C   0  0  0  0  0  1  0  0  0  0  0  0
  184.9730  178.2870  141.9200 N   0  0  0  0  0  2  0  0  0  0  0  0
  185.0380  179.0940  140.7130 C   0  0  0  0  0  2  0  0  0  0  0  0
  183.7950  178.8590  139.8810 C   0  0  0  0  0  1  0  0  0  0  0  0
  1  6  2  0  0  0  0
  1 21  1  0  0  0  0
  2  6  1  0  0  0  0
  3  2  2  0  0  0  0
  4  3  1  0  0  0  0
  4  5  2  0  0  0  0
  5  1  1  0  0  0  0
  7  8  2  0  0  0  0
  8  4  1  0  0  0  0
  9 10  2  0  0  0  0
 10  8  1  0  0  0  0
 11 12  1  0  0  0  0
 11  9  1  0  0  0  0
 12 14  1  0  0  0  0
 14 13  1  6  0  0  0
 14 15  1  0  0  0  0
 15 17  1  1  0  0  0
 15 18  1  0  0  0  0
 16 15  1  0  0  0  0
 18 20  1  6  0  0  0
 18 19  1  0  0  0  0
 21 24  1  0  0  0  0
 22 26  1  0  0  0  0
 22 33  1  0  0  0  0
 24 23  2  0  0  0  0
 24 30  1  0  0  0  0
 25 27  2  0  0  0  0
 25 23  1  0  0  0  0
 27 31  1  0  0  0  0
 28 23  1  6  0  0  0
 28 29  1  0  0  0  0
 28 26  1  0  0  0  0
 29 35  1  0  0  0  0
 30 22  2  0  0  0  0
 31 29  2  0  0  0  0
 32 33  2  0  0  0  0
 33 34  1  0  0  0  0
 35 36  1  0  0  0  0
 37 27  1  0  0  0  0
 38 37  1  0  0  0  0
 39 38  1  0  0  0  0
M  END
>  <MODEL>
9

>  <REMARK>
 VINA RESULT:      -7.8      2.994      5.038
  Name = 
  13 active torsions:
  status: ('A' for Active; 'I' for Inactive)
    1  A    between atoms: C_1  and  O_35
    2  A    between atoms: C_2  and  C_32
    3  A    between atoms: C_3  and  N_20
    4  A    between atoms: C_7  and  C_13
    5  A    between atoms: C_8  and  C_17
    6  A    between atoms: C_8  and  C_36
    7  A    between atoms: C_10  and  O_35
    8  A    between atoms: C_12  and  N_18
    9  A    between atoms: C_12  and  C_33
   10  A    between atoms: C_13  and  N_34
   11  A    between atoms: N_18  and  C_36
   12  A    between atoms: N_20  and  C_22
   13  A    between atoms: C_21  and  C_25
                            x       y       z     vdW  Elec       q    Type
                         _______ _______ _______ _____ _____    ______ ____

>  <TORSDO>
F 13

$$$$
