=
 OpenBabel11062414203D

 45 50  0  0  1  0  0  0  0  0999 V2000
  182.3280  178.0400  140.2780 C   0  0  0  0  0  0  0  0  0  0  0  0
  182.7680  178.4250  141.5130 N   0  0  0  0  0  2  0  0  0  0  0  0
  184.0710  178.7790  141.7530 C   0  0  0  0  0  0  0  0  0  0  0  0
  185.2020  178.2610  138.2410 C   0  0  0  0  0  0  0  0  0  0  0  0
  183.1600  177.7090  137.8860 C   0  0  0  0  0  0  0  0  0  0  0  0
  186.5830  178.5270  138.0200 N   0  0  0  0  0  1  0  0  0  0  0  0
  184.5520  178.3790  139.4480 C   0  0  0  0  0  0  0  0  0  0  0  0
  183.2510  178.0270  139.2290 C   0  0  0  0  0  0  0  0  0  0  0  0
  181.9780  177.3010  137.2050 N   0  0  0  0  0  1  0  0  0  0  0  0
  184.3560  177.8520  137.2690 N   0  0  0  0  0  0  0  0  0  0  0  0
  185.0120  178.7660  140.7020 C   0  0  0  0  0  3  0  0  0  0  0  0
  183.8990  178.8970  145.4460 C   0  0  0  0  0  2  0  0  0  0  0  0
  183.2900  179.1790  144.0910 C   0  0  0  0  0  2  0  0  0  0  0  0
  185.1410  178.0630  145.1730 C   0  0  1  0  0  3  0  0  0  0  0  0
  184.4630  179.2020  143.1330 C   0  0  1  0  0  3  0  0  0  0  0  0
  185.5200  178.2830  143.7170 C   0  0  0  0  0  2  0  0  0  0  0  0
  186.3050  178.4200  146.1040 C   0  0  2  0  0  3  0  0  0  0  0  0
  189.7500  177.6000  145.4790 C   0  0  2  0  0  0  0  0  0  0  0  0
  188.1890  176.4780  144.0200 F   0  0  0  0  0  0  0  0  0  0  0  0
  188.2320  177.4160  147.3660 C   0  0  1  0  0  3  0  0  0  0  0  0
  190.6190  177.6060  147.7430 O   0  0  0  0  0  1  0  0  0  0  0  0
  190.3820  176.3520  145.4050 O   0  0  0  0  0  1  0  0  0  0  0  0
  187.3820  177.3310  146.1030 C   0  0  2  0  0  3  0  0  0  0  0  0
  188.4160  176.1270  147.8740 O   0  0  0  0  0  1  0  0  0  0  0  0
  189.5590  178.0160  146.9270 C   0  0  1  0  0  3  0  0  0  0  0  0
  188.3320  177.5200  144.9210 C   0  0  1  0  0  3  0  0  0  0  0  0
  190.9250  178.1940  143.4700 O   0  0  0  0  0  1  0  0  0  0  0  0
  190.5690  178.6500  144.7400 C   0  0  0  0  0  2  0  0  0  0  0  0
  185.8400  178.6480  147.4060 O   0  0  0  0  0  0  0  0  0  0  0  0
  186.0230  179.9360  147.6050 O   0  0  0  0  0  1  0  0  0  0  0  0
  180.6130  177.5700  140.0570 S   0  0  0  0  0  0  0  0  0  0  0  0
  179.5440  179.8540  141.1950 C   0  0  0  0  0  3  0  0  0  0  0  0
  179.7070  181.3490  138.8510 C   0  0  0  0  0  0  0  0  0  0  0  0
  179.1170  181.1820  141.1540 C   0  0  0  0  0  3  0  0  0  0  0  0
  180.0580  179.2700  140.0360 C   0  0  0  0  0  0  0  0  0  0  0  0
  179.2080  181.8930  139.9980 N   0  0  0  0  0  0  0  0  0  0  0  0
  180.1430  180.0170  138.8610 C   0  0  0  0  0  3  0  0  0  0  0  0
  179.8750  181.4610  135.2430 C   0  0  0  0  0  3  0  0  0  0  0  0
  180.5170  183.2840  137.6140 C   0  0  0  0  0  3  0  0  0  0  0  0
  181.0340  185.4700  136.7100 F   0  0  0  0  0  0  0  0  0  0  0  0
  179.7960  182.1570  137.6150 C   0  0  0  0  0  0  0  0  0  0  0  0
  180.8670  183.7490  135.1860 C   0  0  0  0  0  3  0  0  0  0  0  0
  180.6740  182.3710  134.6880 C   0  0  0  0  0  3  0  0  0  0  0  0
  178.9950  181.7600  136.4110 C   0  0  0  0  0  2  0  0  0  0  0  0
  180.7510  184.1700  136.4540 C   0  0  0  0  0  0  0  0  0  0  0  0
  1  2  1  0  0  0  0
  2  3  1  0  0  0  0
  4  7  2  0  0  0  0
  5  8  1  0  0  0  0
  6  4  1  0  0  0  0
  7 11  1  0  0  0  0
  8  7  1  0  0  0  0
  8  1  2  0  0  0  0
  9  5  1  0  0  0  0
 10  5  2  0  0  0  0
 10  4  1  0  0  0  0
 11  3  2  0  0  0  0
 13 12  1  0  0  0  0
 14 12  1  0  0  0  0
 14 17  1  1  0  0  0
 15  3  1  6  0  0  0
 15 16  1  0  0  0  0
 15 13  1  0  0  0  0
 16 14  1  0  0  0  0
 17 29  1  1  0  0  0
 18 22  1  6  0  0  0
 18 25  1  0  0  0  0
 20 24  1  6  0  0  0
 23 17  1  1  0  0  0
 23 20  1  0  0  0  0
 25 20  1  0  0  0  0
 25 21  1  1  0  0  0
 26 19  1  6  0  0  0
 26 18  1  0  0  0  0
 26 23  1  0  0  0  0
 27 28  1  0  0  0  0
 28 18  1  0  0  0  0
 29 30  1  0  0  0  0
 31  1  1  0  0  0  0
 33 37  2  0  0  0  0
 33 36  1  0  0  0  0
 34 32  1  0  0  0  0
 35 31  1  0  0  0  0
 35 32  2  0  0  0  0
 36 34  2  0  0  0  0
 37 35  1  0  0  0  0
 38 44  1  0  0  0  0
 39 41  2  0  0  0  0
 41 33  1  0  0  0  0
 42 45  2  0  0  0  0
 43 42  1  0  0  0  0
 43 38  2  0  0  0  0
 44 41  1  0  0  0  0
 45 40  1  0  0  0  0
 45 39  1  0  0  0  0
M  END
>  <MODEL>
1

>  <REMARK>
 VINA RESULT:     -10.1      0.000      0.000
  Name = 
  8 active torsions:
  status: ('A' for Active; 'I' for Inactive)
    1  A    between atoms: C_2  and  S_32
    2  A    between atoms: C_4  and  C_36
    3  A    between atoms: C_5  and  C_21
    4  A    between atoms: C_5  and  C_26
    5  A    between atoms: C_5  and  O_27
    6  A    between atoms: C_11  and  C_16
    7  A    between atoms: C_15  and  S_32
    8  A    between atoms: C_18  and  C_39
                            x       y       z     vdW  Elec       q    Type
                         _______ _______ _______ _____ _____    ______ ____

>  <TORSDO>
F 8

$$$$
=
 OpenBabel11062414203D

 45 50  0  0  1  0  0  0  0  0999 V2000
  188.8960  176.6770  144.3240 C   0  0  0  0  0  0  0  0  0  0  0  0
  187.5790  176.9160  144.0500 N   0  0  0  0  0  0  0  0  0  0  0  0
  186.7210  177.4530  144.9750 C   0  0  0  0  0  0  0  0  0  0  0  0
  189.2850  177.7580  147.6620 C   0  0  0  0  0  0  0  0  0  0  0  0
  190.6120  176.9160  146.2010 C   0  0  0  0  0  0  0  0  0  0  0  0
  188.7980  178.3010  148.8840 N   0  0  0  0  0  1  0  0  0  0  0  0
  188.5330  177.5480  146.5280 C   0  0  0  0  0  0  0  0  0  0  0  0
  189.3720  177.0100  145.5950 C   0  0  0  0  0  0  0  0  0  0  0  0
  191.8020  176.4250  145.5920 N   0  0  0  0  0  1  0  0  0  0  0  0
  190.5690  177.3760  147.4740 N   0  0  0  0  0  2  0  0  0  0  0  0
  187.1900  177.7900  146.2630 C   0  0  0  0  0  3  0  0  0  0  0  0
  183.7060  179.4520  144.2060 C   0  0  0  0  0  2  0  0  0  0  0  0
  184.7540  178.9760  145.1860 C   0  0  0  0  0  2  0  0  0  0  0  0
  184.1660  178.9610  142.8420 C   0  0  1  0  0  3  0  0  0  0  0  0
  185.2980  177.6970  144.5850 C   0  0  1  0  0  3  0  0  0  0  0  0
  185.1480  177.8250  143.0810 C   0  0  0  0  0  2  0  0  0  0  0  0
  183.0000  178.5030  141.9590 C   0  0  2  0  0  3  0  0  0  0  0  0
  181.9200  178.0240  138.5620 C   0  0  2  0  0  0  0  0  0  0  0  0
  183.3940  176.2980  139.3810 F   0  0  0  0  0  0  0  0  0  0  0  0
  183.1370  179.7400  139.7760 C   0  0  1  0  0  3  0  0  0  0  0  0
  181.8760  180.3220  137.7890 O   0  0  0  0  0  1  0  0  0  0  0  0
  182.6700  177.8100  137.3980 O   0  0  0  0  0  1  0  0  0  0  0  0
  183.4090  178.4180  140.4850 C   0  0  2  0  0  3  0  0  0  0  0  0
  184.2380  180.0590  138.9760 O   0  0  0  0  0  1  0  0  0  0  0  0
  181.9020  179.5000  138.9200 C   0  0  1  0  0  3  0  0  0  0  0  0
  182.5850  177.3540  139.7620 C   0  0  1  0  0  3  0  0  0  0  0  0
  179.6510  178.0470  139.3500 O   0  0  0  0  0  1  0  0  0  0  0  0
  180.4970  177.5170  138.3730 C   0  0  0  0  0  2  0  0  0  0  0  0
  181.9010  179.3590  142.1140 O   0  0  0  0  0  0  0  0  0  0  0  0
  180.8980  178.5620  142.4170 O   0  0  0  0  0  1  0  0  0  0  0  0
  189.9440  175.9510  143.0640 S   0  0  0  0  0  0  0  0  0  0  0  0
  188.5480  178.1580  142.1530 C   0  0  0  0  0  3  0  0  0  0  0  0
  189.2660  177.7740  139.4900 C   0  0  0  0  0  0  0  0  0  0  0  0
  188.1060  179.0260  141.1540 C   0  0  0  0  0  3  0  0  0  0  0  0
  189.3620  177.0800  141.8050 C   0  0  0  0  0  0  0  0  0  0  0  0
  188.4700  178.8190  139.8590 N   0  0  0  0  0  0  0  0  0  0  0  0
  189.7250  176.8850  140.4720 C   0  0  0  0  0  3  0  0  0  0  0  0
  188.3340  177.9040  136.0010 C   0  0  0  0  0  3  0  0  0  0  0  0
  190.4830  176.5950  137.7400 C   0  0  0  0  0  3  0  0  0  0  0  0
  192.1020  175.6020  136.2410 F   0  0  0  0  0  0  0  0  0  0  0  0
  189.6460  177.5850  138.0740 C   0  0  0  0  0  0  0  0  0  0  0  0
  190.1470  176.3520  135.2780 C   0  0  0  0  0  3  0  0  0  0  0  0
  188.7970  176.9460  135.2010 C   0  0  0  0  0  3  0  0  0  0  0  0
  189.1740  178.5660  137.0420 C   0  0  0  0  0  2  0  0  0  0  0  0
  190.9150  176.2400  136.3720 C   0  0  0  0  0  0  0  0  0  0  0  0
  1  8  1  0  0  0  0
  2  1  2  0  0  0  0
  2  3  1  0  0  0  0
  3 11  2  0  0  0  0
  4  6  1  0  0  0  0
  5 10  1  0  0  0  0
  7  4  2  0  0  0  0
  8  5  2  0  0  0  0
  8  7  1  0  0  0  0
  9  5  1  0  0  0  0
 10  4  1  0  0  0  0
 11  7  1  0  0  0  0
 12 13  1  0  0  0  0
 14 17  1  6  0  0  0
 14 16  1  0  0  0  0
 14 12  1  0  0  0  0
 15  3  1  6  0  0  0
 15 13  1  0  0  0  0
 16 15  1  0  0  0  0
 17 29  1  6  0  0  0
 18 22  1  6  0  0  0
 18 25  1  0  0  0  0
 18 26  1  0  0  0  0
 20 24  1  6  0  0  0
 20 23  1  0  0  0  0
 23 17  1  1  0  0  0
 25 21  1  6  0  0  0
 25 20  1  0  0  0  0
 26 19  1  6  0  0  0
 26 23  1  0  0  0  0
 28 18  1  0  0  0  0
 28 27  1  0  0  0  0
 29 30  1  0  0  0  0
 31  1  1  0  0  0  0
 33 36  2  0  0  0  0
 33 37  1  0  0  0  0
 34 32  2  0  0  0  0
 35 32  1  0  0  0  0
 35 31  1  0  0  0  0
 36 34  1  0  0  0  0
 37 35  2  0  0  0  0
 38 44  1  0  0  0  0
 39 41  2  0  0  0  0
 40 45  1  0  0  0  0
 41 33  1  0  0  0  0
 42 45  2  0  0  0  0
 43 42  1  0  0  0  0
 43 38  2  0  0  0  0
 44 41  1  0  0  0  0
 45 39  1  0  0  0  0
M  END
>  <MODEL>
2

>  <REMARK>
 VINA RESULT:      -9.9      5.372      9.476
  Name = 
  8 active torsions:
  status: ('A' for Active; 'I' for Inactive)
    1  A    between atoms: C_2  and  S_32
    2  A    between atoms: C_4  and  C_36
    3  A    between atoms: C_5  and  C_21
    4  A    between atoms: C_5  and  C_26
    5  A    between atoms: C_5  and  O_27
    6  A    between atoms: C_11  and  C_16
    7  A    between atoms: C_15  and  S_32
    8  A    between atoms: C_18  and  C_39
                            x       y       z     vdW  Elec       q    Type
                         _______ _______ _______ _____ _____    ______ ____

>  <TORSDO>
F 8

$$$$
=
 OpenBabel11062414203D

 45 50  0  0  1  0  0  0  0  0999 V2000
  188.6210  176.7790  137.6380 C   0  0  0  0  0  0  0  0  0  0  0  0
  189.3990  175.6970  137.3370 N   0  0  0  0  0  0  0  0  0  0  0  0
  188.8740  174.5220  136.8650 C   0  0  0  0  0  0  0  0  0  0  0  0
  185.3430  175.7110  136.8830 C   0  0  0  0  0  0  0  0  0  0  0  0
  186.1830  177.5410  137.6220 C   0  0  0  0  0  0  0  0  0  0  0  0
  184.3930  174.7460  136.4420 N   0  0  0  0  0  1  0  0  0  0  0  0
  186.7020  175.5090  136.9660 C   0  0  0  0  0  0  0  0  0  0  0  0
  187.2420  176.6700  137.4380 C   0  0  0  0  0  0  0  0  0  0  0  0
  186.2790  178.8830  138.0860 N   0  0  0  0  0  1  0  0  0  0  0  0
  185.0090  176.9590  137.2810 N   0  0  0  0  0  2  0  0  0  0  0  0
  187.4830  174.3990  136.6630 C   0  0  0  0  0  3  0  0  0  0  0  0
  191.3530  172.6180  134.8890 C   0  0  0  0  0  2  0  0  0  0  0  0
  189.9650  173.1930  135.0550 C   0  0  0  0  0  2  0  0  0  0  0  0
  192.1720  173.1790  136.0420 C   0  0  1  0  0  3  0  0  0  0  0  0
  189.8010  173.3920  136.5470 C   0  0  1  0  0  3  0  0  0  0  0  0
  191.1900  173.6380  137.1080 C   0  0  0  0  0  2  0  0  0  0  0  0
  193.1630  172.1580  136.6090 C   0  0  2  0  0  3  0  0  0  0  0  0
  195.1460  175.1530  136.7970 C   0  0  2  0  0  0  0  0  0  0  0  0
  195.6250  173.7730  134.8770 F   0  0  0  0  0  0  0  0  0  0  0  0
  194.8000  173.2030  138.2040 C   0  0  1  0  0  3  0  0  0  0  0  0
  195.4730  175.3110  139.1940 O   0  0  0  0  0  1  0  0  0  0  0  0
  196.5360  175.3200  136.7530 O   0  0  0  0  0  1  0  0  0  0  0  0
  194.5640  172.7590  136.7650 C   0  0  2  0  0  3  0  0  0  0  0  0
  196.0760  172.7930  138.6000 O   0  0  0  0  0  1  0  0  0  0  0  0
  194.7050  174.7220  138.1850 C   0  0  1  0  0  3  0  0  0  0  0  0
  194.7120  174.0040  135.8910 C   0  0  1  0  0  3  0  0  0  0  0  0
  193.4800  176.7910  137.3570 O   0  0  0  0  0  1  0  0  0  0  0  0
  194.4460  176.4480  136.4090 C   0  0  0  0  0  2  0  0  0  0  0  0
  193.2080  171.0150  135.8010 O   0  0  0  0  0  0  0  0  0  0  0  0
  193.6500  170.0620  136.5940 O   0  0  0  0  0  1  0  0  0  0  0  0
  189.3870  178.2700  138.2730 S   0  0  0  0  0  0  0  0  0  0  0  0
  190.4110  176.9770  140.4930 C   0  0  0  0  0  3  0  0  0  0  0  0
  188.1750  177.4800  142.0760 C   0  0  0  0  0  0  0  0  0  0  0  0
  190.3460  176.5290  141.8130 C   0  0  0  0  0  3  0  0  0  0  0  0
  189.3320  177.6850  139.9620 C   0  0  0  0  0  0  0  0  0  0  0  0
  189.2440  176.7880  142.5680 N   0  0  0  0  0  0  0  0  0  0  0  0
  188.2120  177.9410  140.7520 C   0  0  0  0  0  3  0  0  0  0  0  0
  185.1460  179.3620  142.6530 C   0  0  0  0  0  3  0  0  0  0  0  0
  187.1140  177.6600  144.2600 C   0  0  0  0  0  3  0  0  0  0  0  0
  186.1480  177.3400  146.4570 F   0  0  0  0  0  0  0  0  0  0  0  0
  186.9980  177.7470  142.9290 C   0  0  0  0  0  0  0  0  0  0  0  0
  185.1100  178.8890  145.1010 C   0  0  0  0  0  3  0  0  0  0  0  0
  184.8690  179.7220  143.9050 C   0  0  0  0  0  3  0  0  0  0  0  0
  185.6660  178.0100  142.2940 C   0  0  0  0  0  2  0  0  0  0  0  0
  186.0550  177.9490  145.2500 C   0  0  0  0  0  0  0  0  0  0  0  0
  1 31  1  0  0  0  0
  2  1  2  0  0  0  0
  3  2  1  0  0  0  0
  4  7  2  0  0  0  0
  4 10  1  0  0  0  0
  5  9  1  0  0  0  0
  6  4  1  0  0  0  0
  7  8  1  0  0  0  0
  8  5  2  0  0  0  0
  8  1  1  0  0  0  0
 10  5  1  0  0  0  0
 11  3  2  0  0  0  0
 11  7  1  0  0  0  0
 12 13  1  0  0  0  0
 12 14  1  0  0  0  0
 13 15  1  0  0  0  0
 14 17  1  1  0  0  0
 14 16  1  0  0  0  0
 15  3  1  6  0  0  0
 15 16  1  0  0  0  0
 17 29  1  6  0  0  0
 18 22  1  6  0  0  0
 18 25  1  0  0  0  0
 20 24  1  6  0  0  0
 23 17  1  1  0  0  0
 23 20  1  0  0  0  0
 25 20  1  0  0  0  0
 25 21  1  1  0  0  0
 26 19  1  6  0  0  0
 26 23  1  0  0  0  0
 26 18  1  0  0  0  0
 28 18  1  0  0  0  0
 28 27  1  0  0  0  0
 29 30  1  0  0  0  0
 31 35  1  0  0  0  0
 32 34  1  0  0  0  0
 33 36  1  0  0  0  0
 33 41  1  0  0  0  0
 34 36  2  0  0  0  0
 35 32  2  0  0  0  0
 35 37  1  0  0  0  0
 37 33  2  0  0  0  0
 38 43  2  0  0  0  0
 39 45  1  0  0  0  0
 41 39  2  0  0  0  0
 42 45  2  0  0  0  0
 43 42  1  0  0  0  0
 44 38  1  0  0  0  0
 44 41  1  0  0  0  0
 45 40  1  0  0  0  0
M  END
>  <MODEL>
3

>  <REMARK>
 VINA RESULT:      -9.4      6.629     10.326
  Name = 
  8 active torsions:
  status: ('A' for Active; 'I' for Inactive)
    1  A    between atoms: C_2  and  S_32
    2  A    between atoms: C_4  and  C_36
    3  A    between atoms: C_5  and  C_21
    4  A    between atoms: C_5  and  C_26
    5  A    between atoms: C_5  and  O_27
    6  A    between atoms: C_11  and  C_16
    7  A    between atoms: C_15  and  S_32
    8  A    between atoms: C_18  and  C_39
                            x       y       z     vdW  Elec       q    Type
                         _______ _______ _______ _____ _____    ______ ____

>  <TORSDO>
F 8

$$$$
=
 OpenBabel11062414203D

 45 50  0  0  1  0  0  0  0  0999 V2000
  189.2410  176.7510  138.0560 C   0  0  0  0  0  0  0  0  0  0  0  0
  187.9910  176.3150  137.7170 N   0  0  0  0  0  0  0  0  0  0  0  0
  187.7770  175.1220  137.0770 C   0  0  0  0  0  0  0  0  0  0  0  0
  191.3780  174.1740  136.9370 C   0  0  0  0  0  0  0  0  0  0  0  0
  191.6940  176.0450  137.9380 C   0  0  0  0  0  0  0  0  0  0  0  0
  191.6350  172.9230  136.3070 N   0  0  0  0  0  1  0  0  0  0  0  0
  190.1340  174.7380  137.1080 C   0  0  0  0  0  0  0  0  0  0  0  0
  190.3280  175.9300  137.7430 C   0  0  0  0  0  0  0  0  0  0  0  0
  192.3550  177.1280  138.5830 N   0  0  0  0  0  1  0  0  0  0  0  0
  192.3480  174.9670  137.4460 N   0  0  0  0  0  2  0  0  0  0  0  0
  188.8680  174.2870  136.7520 C   0  0  0  0  0  3  0  0  0  0  0  0
  184.5310  173.4260  137.5950 C   0  0  0  0  0  2  0  0  0  0  0  0
  186.0220  173.3670  137.3510 C   0  0  0  0  0  2  0  0  0  0  0  0
  184.2170  174.8890  137.8700 C   0  0  1  0  0  3  0  0  0  0  0  0
  186.3740  174.7150  136.7570 C   0  0  1  0  0  3  0  0  0  0  0  0
  185.3680  175.7090  137.3080 C   0  0  0  0  0  2  0  0  0  0  0  0
  182.8810  175.3270  137.2610 C   0  0  2  0  0  3  0  0  0  0  0  0
  182.9540  178.4370  139.0660 C   0  0  2  0  0  0  0  0  0  0  0  0
  182.7970  176.4840  140.4740 F   0  0  0  0  0  0  0  0  0  0  0  0
  181.5140  177.4320  137.3870 C   0  0  1  0  0  3  0  0  0  0  0  0
  181.6730  179.8440  137.5630 O   0  0  0  0  0  1  0  0  0  0  0  0
  182.0760  178.9390  140.0350 O   0  0  0  0  0  1  0  0  0  0  0  0
  182.1290  176.2890  138.1870 C   0  0  2  0  0  3  0  0  0  0  0  0
  180.2070  177.6450  137.8340 O   0  0  0  0  0  1  0  0  0  0  0  0
  182.3860  178.6460  137.6730 C   0  0  1  0  0  3  0  0  0  0  0  0
  183.0880  176.9220  139.1940 C   0  0  1  0  0  3  0  0  0  0  0  0
  184.1780  180.5030  139.0930 O   0  0  0  0  0  1  0  0  0  0  0  0
  184.3120  179.1160  139.1810 C   0  0  0  0  0  2  0  0  0  0  0  0
  182.0870  174.2110  136.9650 O   0  0  0  0  0  0  0  0  0  0  0  0
  181.2320  174.1340  137.9630 O   0  0  0  0  0  1  0  0  0  0  0  0
  189.4350  178.3350  138.8720 S   0  0  0  0  0  0  0  0  0  0  0  0
  190.1710  176.7540  141.0180 C   0  0  0  0  0  3  0  0  0  0  0  0
  187.9150  177.3850  142.5240 C   0  0  0  0  0  0  0  0  0  0  0  0
  189.9760  176.2110  142.2890 C   0  0  0  0  0  3  0  0  0  0  0  0
  189.2130  177.6250  140.4980 C   0  0  0  0  0  0  0  0  0  0  0  0
  188.8670  176.5350  143.0070 N   0  0  0  0  0  0  0  0  0  0  0  0
  188.0830  177.9450  141.2510 C   0  0  0  0  0  3  0  0  0  0  0  0
  184.8400  179.2500  142.8750 C   0  0  0  0  0  3  0  0  0  0  0  0
  186.8340  177.7830  144.6700 C   0  0  0  0  0  3  0  0  0  0  0  0
  185.8610  177.6870  146.8850 F   0  0  0  0  0  0  0  0  0  0  0  0
  186.7260  177.7180  143.3380 C   0  0  0  0  0  0  0  0  0  0  0  0
  184.7980  179.0510  145.3610 C   0  0  0  0  0  3  0  0  0  0  0  0
  184.5470  179.7400  144.0780 C   0  0  0  0  0  3  0  0  0  0  0  0
  185.3920  177.8790  142.6720 C   0  0  0  0  0  2  0  0  0  0  0  0
  185.7630  178.1550  145.6170 C   0  0  0  0  0  0  0  0  0  0  0  0
  1 31  1  0  0  0  0
  2  1  2  0  0  0  0
  3  2  1  0  0  0  0
  4  7  2  0  0  0  0
  4 10  1  0  0  0  0
  5  9  1  0  0  0  0
  6  4  1  0  0  0  0
  7  8  1  0  0  0  0
  8  5  2  0  0  0  0
  8  1  1  0  0  0  0
 10  5  1  0  0  0  0
 11  3  2  0  0  0  0
 11  7  1  0  0  0  0
 12 14  1  0  0  0  0
 13 12  1  0  0  0  0
 14 17  1  6  0  0  0
 15  3  1  1  0  0  0
 15 16  1  0  0  0  0
 15 13  1  0  0  0  0
 16 14  1  0  0  0  0
 17 29  1  1  0  0  0
 18 28  1  0  0  0  0
 18 26  1  0  0  0  0
 18 22  1  1  0  0  0
 20 25  1  0  0  0  0
 20 24  1  1  0  0  0
 20 23  1  0  0  0  0
 23 17  1  6  0  0  0
 23 26  1  0  0  0  0
 25 21  1  1  0  0  0
 25 18  1  0  0  0  0
 26 19  1  1  0  0  0
 27 28  1  0  0  0  0
 29 30  1  0  0  0  0
 31 35  1  0  0  0  0
 32 34  1  0  0  0  0
 33 36  1  0  0  0  0
 33 41  1  0  0  0  0
 34 36  2  0  0  0  0
 35 32  2  0  0  0  0
 35 37  1  0  0  0  0
 37 33  2  0  0  0  0
 38 43  2  0  0  0  0
 39 45  1  0  0  0  0
 41 39  2  0  0  0  0
 42 45  2  0  0  0  0
 43 42  1  0  0  0  0
 44 38  1  0  0  0  0
 44 41  1  0  0  0  0
 45 40  1  0  0  0  0
M  END
>  <MODEL>
4

>  <REMARK>
 VINA RESULT:      -9.4      5.525      9.794
  Name = 
  8 active torsions:
  status: ('A' for Active; 'I' for Inactive)
    1  A    between atoms: C_2  and  S_32
    2  A    between atoms: C_4  and  C_36
    3  A    between atoms: C_5  and  C_21
    4  A    between atoms: C_5  and  C_26
    5  A    between atoms: C_5  and  O_27
    6  A    between atoms: C_11  and  C_16
    7  A    between atoms: C_15  and  S_32
    8  A    between atoms: C_18  and  C_39
                            x       y       z     vdW  Elec       q    Type
                         _______ _______ _______ _____ _____    ______ ____

>  <TORSDO>
F 8

$$$$
=
 OpenBabel11062414203D

 45 50  0  0  1  0  0  0  0  0999 V2000
  188.2500  177.3570  138.0470 C   0  0  0  0  0  0  0  0  0  0  0  0
  186.9060  177.6010  138.0930 N   0  0  0  0  0  2  0  0  0  0  0  0
  185.9850  176.7540  137.5340 C   0  0  0  0  0  0  0  0  0  0  0  0
  188.5030  174.2950  136.3090 C   0  0  0  0  0  0  0  0  0  0  0  0
  189.9290  175.6340  137.1900 C   0  0  0  0  0  0  0  0  0  0  0  0
  187.9510  173.1800  135.6180 N   0  0  0  0  0  1  0  0  0  0  0  0
  187.7790  175.3330  136.8520 C   0  0  0  0  0  0  0  0  0  0  0  0
  188.6820  176.1890  137.4120 C   0  0  0  0  0  0  0  0  0  0  0  0
  191.1720  176.1790  137.6190 N   0  0  0  0  0  1  0  0  0  0  0  0
  189.8280  174.4660  136.5120 N   0  0  0  0  0  0  0  0  0  0  0  0
  186.4100  175.5730  136.8880 C   0  0  0  0  0  3  0  0  0  0  0  0
  182.4650  176.3020  138.5750 C   0  0  0  0  0  2  0  0  0  0  0  0
  183.6690  175.8530  137.7790 C   0  0  0  0  0  2  0  0  0  0  0  0
  182.9610  177.4260  139.4720 C   0  0  1  0  0  3  0  0  0  0  0  0
  184.5320  177.0910  137.6450 C   0  0  1  0  0  3  0  0  0  0  0  0
  184.2520  177.9490  138.8650 C   0  0  0  0  0  2  0  0  0  0  0  0
  181.9310  178.5500  139.6290 C   0  0  2  0  0  3  0  0  0  0  0  0
  180.3520  180.5830  137.1180 C   0  0  2  0  0  0  0  0  0  0  0  0
  181.9800  179.0290  136.2480 F   0  0  0  0  0  0  0  0  0  0  0  0
  181.6960  180.9950  139.0990 C   0  0  1  0  0  3  0  0  0  0  0  0
  180.1290  182.6740  138.3250 O   0  0  0  0  0  1  0  0  0  0  0  0
  180.9180  181.3960  136.1270 O   0  0  0  0  0  1  0  0  0  0  0  0
  182.1090  179.6310  138.5580 C   0  0  2  0  0  3  0  0  0  0  0  0
  182.6520  181.9400  138.7170 O   0  0  0  0  0  1  0  0  0  0  0  0
  180.3500  181.2990  138.4570 C   0  0  1  0  0  3  0  0  0  0  0  0
  181.2120  179.3440  137.3550 C   0  0  1  0  0  3  0  0  0  0  0  0
  178.9370  179.1590  135.7990 O   0  0  0  0  0  1  0  0  0  0  0  0
  178.9310  180.1960  136.7340 C   0  0  0  0  0  2  0  0  0  0  0  0
  182.0080  179.1120  140.9100 O   0  0  0  0  0  0  0  0  0  0  0  0
  181.0800  178.4880  141.6050 O   0  0  0  0  0  1  0  0  0  0  0  0
  189.3880  178.5290  138.7840 S   0  0  0  0  0  0  0  0  0  0  0  0
  190.2370  176.9480  140.8890 C   0  0  0  0  0  3  0  0  0  0  0  0
  188.0020  177.4810  142.4630 C   0  0  0  0  0  0  0  0  0  0  0  0
  190.0960  176.3830  142.1570 C   0  0  0  0  0  3  0  0  0  0  0  0
  189.2350  177.7910  140.4060 C   0  0  0  0  0  0  0  0  0  0  0  0
  188.9960  176.6590  142.9090 N   0  0  0  0  0  0  0  0  0  0  0  0
  188.1160  178.0620  141.1930 C   0  0  0  0  0  3  0  0  0  0  0  0
  184.8750  179.2330  142.9210 C   0  0  0  0  0  3  0  0  0  0  0  0
  186.9680  177.8140  144.6430 C   0  0  0  0  0  3  0  0  0  0  0  0
  186.0590  177.6570  146.8810 F   0  0  0  0  0  0  0  0  0  0  0  0
  186.8250  177.7630  143.3130 C   0  0  0  0  0  0  0  0  0  0  0  0
  184.9080  179.0020  145.4040 C   0  0  0  0  0  3  0  0  0  0  0  0
  184.5980  179.6970  144.1380 C   0  0  0  0  0  3  0  0  0  0  0  0
  185.4690  177.8840  142.6850 C   0  0  0  0  0  2  0  0  0  0  0  0
  185.9100  178.1370  145.6230 C   0  0  0  0  0  0  0  0  0  0  0  0
  1  2  1  0  0  0  0
  1 31  1  0  0  0  0
  3  2  1  0  0  0  0
  4 10  1  0  0  0  0
  4  7  2  0  0  0  0
  5  8  1  0  0  0  0
  5  9  1  0  0  0  0
  6  4  1  0  0  0  0
  7 11  1  0  0  0  0
  7  8  1  0  0  0  0
  8  1  2  0  0  0  0
 10  5  2  0  0  0  0
 11  3  2  0  0  0  0
 12 14  1  0  0  0  0
 13 12  1  0  0  0  0
 14 17  1  6  0  0  0
 15  3  1  1  0  0  0
 15 13  1  0  0  0  0
 15 16  1  0  0  0  0
 16 14  1  0  0  0  0
 17 29  1  1  0  0  0
 18 22  1  6  0  0  0
 18 26  1  0  0  0  0
 18 25  1  0  0  0  0
 20 24  1  6  0  0  0
 23 20  1  0  0  0  0
 23 17  1  1  0  0  0
 25 21  1  6  0  0  0
 25 20  1  0  0  0  0
 26 19  1  6  0  0  0
 26 23  1  0  0  0  0
 27 28  1  0  0  0  0
 28 18  1  0  0  0  0
 29 30  1  0  0  0  0
 31 35  1  0  0  0  0
 32 34  1  0  0  0  0
 33 36  1  0  0  0  0
 33 41  1  0  0  0  0
 34 36  2  0  0  0  0
 35 32  2  0  0  0  0
 35 37  1  0  0  0  0
 37 33  2  0  0  0  0
 38 43  2  0  0  0  0
 39 45  1  0  0  0  0
 41 39  2  0  0  0  0
 42 45  2  0  0  0  0
 43 42  1  0  0  0  0
 44 38  1  0  0  0  0
 44 41  1  0  0  0  0
 45 40  1  0  0  0  0
M  END
>  <MODEL>
5

>  <REMARK>
 VINA RESULT:      -9.3      5.080      9.771
  Name = 
  8 active torsions:
  status: ('A' for Active; 'I' for Inactive)
    1  A    between atoms: C_2  and  S_32
    2  A    between atoms: C_4  and  C_36
    3  A    between atoms: C_5  and  C_21
    4  A    between atoms: C_5  and  C_26
    5  A    between atoms: C_5  and  O_27
    6  A    between atoms: C_11  and  C_16
    7  A    between atoms: C_15  and  S_32
    8  A    between atoms: C_18  and  C_39
                            x       y       z     vdW  Elec       q    Type
                         _______ _______ _______ _____ _____    ______ ____

>  <TORSDO>
F 8

$$$$
=
 OpenBabel11062414203D

 45 50  0  0  1  0  0  0  0  0999 V2000
  183.1050  179.3740  140.3880 C   0  0  0  0  0  0  0  0  0  0  0  0
  184.0640  179.4310  141.3590 N   0  0  0  0  0  2  0  0  0  0  0  0
  183.8150  179.0800  142.6610 C   0  0  0  0  0  0  0  0  0  0  0  0
  180.2460  178.1830  142.0800 C   0  0  0  0  0  0  0  0  0  0  0  0
  180.6540  178.7380  140.0490 C   0  0  0  0  0  0  0  0  0  0  0  0
  179.5520  177.7390  143.2410 N   0  0  0  0  0  1  0  0  0  0  0  0
  181.5660  178.5690  142.0410 C   0  0  0  0  0  0  0  0  0  0  0  0
  181.8320  178.9260  140.7500 C   0  0  0  0  0  0  0  0  0  0  0  0
  180.4690  178.9680  138.6560 N   0  0  0  0  0  1  0  0  0  0  0  0
  179.6720  178.2790  140.8590 N   0  0  0  0  0  0  0  0  0  0  0  0
  182.5320  178.6290  143.0390 C   0  0  0  0  0  3  0  0  0  0  0  0
  185.5990  178.3700  145.8220 C   0  0  0  0  0  2  0  0  0  0  0  0
  184.4340  178.9830  145.0780 C   0  0  0  0  0  2  0  0  0  0  0  0
  186.3610  177.5510  144.7910 C   0  0  1  0  0  3  0  0  0  0  0  0
  184.9280  179.1580  143.6570 C   0  0  1  0  0  3  0  0  0  0  0  0
  185.9630  178.0730  143.4200 C   0  0  0  0  0  2  0  0  0  0  0  0
  187.8790  177.6240  144.9890 C   0  0  2  0  0  3  0  0  0  0  0  0
  190.9650  177.8250  143.1540 C   0  0  2  0  0  0  0  0  0  0  0  0
  189.1170  178.9640  142.1010 F   0  0  0  0  0  0  0  0  0  0  0  0
  189.5160  176.0380  143.9320 C   0  0  1  0  0  3  0  0  0  0  0  0
  191.8800  175.6240  143.5950 O   0  0  0  0  0  1  0  0  0  0  0  0
  191.2450  177.5030  141.8190 O   0  0  0  0  0  1  0  0  0  0  0  0
  188.6320  177.2590  143.7060 C   0  0  2  0  0  3  0  0  0  0  0  0
  189.3730  175.1690  142.8460 O   0  0  0  0  0  1  0  0  0  0  0  0
  190.9390  176.5710  144.0100 C   0  0  1  0  0  3  0  0  0  0  0  0
  189.5580  178.4000  143.2860 C   0  0  1  0  0  3  0  0  0  0  0  0
  191.3880  179.8920  144.3030 O   0  0  0  0  0  1  0  0  0  0  0  0
  192.0050  178.7990  143.6910 C   0  0  0  0  0  2  0  0  0  0  0  0
  188.2770  176.7930  146.0440 O   0  0  0  0  0  0  0  0  0  0  0  0
  188.6890  177.6190  146.9830 O   0  0  0  0  0  1  0  0  0  0  0  0
  183.5090  179.8740  138.7150 S   0  0  0  0  0  0  0  0  0  0  0  0
  183.2790  177.1730  138.1700 C   0  0  0  0  0  3  0  0  0  0  0  0
  186.0080  176.8130  137.7460 C   0  0  0  0  0  0  0  0  0  0  0  0
  183.7990  175.9210  137.8400 C   0  0  0  0  0  3  0  0  0  0  0  0
  184.1470  178.2580  138.2920 C   0  0  0  0  0  0  0  0  0  0  0  0
  185.1360  175.7690  137.6360 N   0  0  0  0  0  0  0  0  0  0  0  0
  185.5140  178.0820  138.0780 C   0  0  0  0  0  3  0  0  0  0  0  0
  188.6670  174.6920  136.5270 C   0  0  0  0  0  3  0  0  0  0  0  0
  188.3400  177.0990  138.3860 C   0  0  0  0  0  3  0  0  0  0  0  0
  190.5640  177.8760  138.9400 F   0  0  0  0  0  0  0  0  0  0  0  0
  187.4530  176.6090  137.5110 C   0  0  0  0  0  0  0  0  0  0  0  0
  190.4330  175.8460  137.8570 C   0  0  0  0  0  3  0  0  0  0  0  0
  189.8080  174.6720  137.2150 C   0  0  0  0  0  3  0  0  0  0  0  0
  187.9130  175.9490  136.2460 C   0  0  0  0  0  2  0  0  0  0  0  0
  189.8080  176.9360  138.3260 C   0  0  0  0  0  0  0  0  0  0  0  0
  1  8  2  0  0  0  0
  1  2  1  0  0  0  0
  2  3  1  0  0  0  0
  3 11  2  0  0  0  0
  4  6  1  0  0  0  0
  5  8  1  0  0  0  0
  5 10  2  0  0  0  0
  7  4  2  0  0  0  0
  7 11  1  0  0  0  0
  8  7  1  0  0  0  0
  9  5  1  0  0  0  0
 10  4  1  0  0  0  0
 13 12  1  0  0  0  0
 14 17  1  1  0  0  0
 14 12  1  0  0  0  0
 15  3  1  6  0  0  0
 15 13  1  0  0  0  0
 16 15  1  0  0  0  0
 16 14  1  0  0  0  0
 17 29  1  1  0  0  0
 18 22  1  6  0  0  0
 18 26  1  0  0  0  0
 18 28  1  0  0  0  0
 18 25  1  0  0  0  0
 20 24  1  6  0  0  0
 20 25  1  0  0  0  0
 23 20  1  0  0  0  0
 23 17  1  1  0  0  0
 25 21  1  6  0  0  0
 26 19  1  6  0  0  0
 26 23  1  0  0  0  0
 28 27  1  0  0  0  0
 29 30  1  0  0  0  0
 31  1  1  0  0  0  0
 32 35  1  0  0  0  0
 33 37  1  0  0  0  0
 34 32  2  0  0  0  0
 35 31  1  0  0  0  0
 36 33  2  0  0  0  0
 36 34  1  0  0  0  0
 37 35  2  0  0  0  0
 38 43  2  0  0  0  0
 41 33  1  0  0  0  0
 41 39  2  0  0  0  0
 42 45  2  0  0  0  0
 43 42  1  0  0  0  0
 44 38  1  0  0  0  0
 44 41  1  0  0  0  0
 45 39  1  0  0  0  0
 45 40  1  0  0  0  0
M  END
>  <MODEL>
6

>  <REMARK>
 VINA RESULT:      -9.2      3.446      6.155
  Name = 
  8 active torsions:
  status: ('A' for Active; 'I' for Inactive)
    1  A    between atoms: C_2  and  S_32
    2  A    between atoms: C_4  and  C_36
    3  A    between atoms: C_5  and  C_21
    4  A    between atoms: C_5  and  C_26
    5  A    between atoms: C_5  and  O_27
    6  A    between atoms: C_11  and  C_16
    7  A    between atoms: C_15  and  S_32
    8  A    between atoms: C_18  and  C_39
                            x       y       z     vdW  Elec       q    Type
                         _______ _______ _______ _____ _____    ______ ____

>  <TORSDO>
F 8

$$$$
=
 OpenBabel11062414203D

 45 50  0  0  1  0  0  0  0  0999 V2000
  184.9520  178.4770  138.4630 C   0  0  0  0  0  0  0  0  0  0  0  0
  185.3520  178.8420  139.7180 N   0  0  0  0  0  2  0  0  0  0  0  0
  184.6010  178.5800  140.8340 C   0  0  0  0  0  0  0  0  0  0  0  0
  181.8560  176.8670  138.9880 C   0  0  0  0  0  0  0  0  0  0  0  0
  183.0430  177.2880  137.2520 C   0  0  0  0  0  0  0  0  0  0  0  0
  180.7900  176.4030  139.8100 N   0  0  0  0  0  1  0  0  0  0  0  0
  182.9770  177.5270  139.4350 C   0  0  0  0  0  0  0  0  0  0  0  0
  183.7370  177.8000  138.3340 C   0  0  0  0  0  0  0  0  0  0  0  0
  183.4710  177.3270  135.8940 N   0  0  0  0  0  1  0  0  0  0  0  0
  181.8840  176.7090  137.6450 N   0  0  0  0  0  0  0  0  0  0  0  0
  183.3700  177.8990  140.7150 C   0  0  0  0  0  3  0  0  0  0  0  0
  184.8170  178.6510  144.5260 C   0  0  0  0  0  2  0  0  0  0  0  0
  184.0580  178.9250  143.2470 C   0  0  0  0  0  2  0  0  0  0  0  0
  186.0510  177.8650  144.1120 C   0  0  1  0  0  3  0  0  0  0  0  0
  185.1220  179.0010  142.1710 C   0  0  1  0  0  3  0  0  0  0  0  0
  186.2660  178.1140  142.6270 C   0  0  0  0  0  2  0  0  0  0  0  0
  187.2930  178.2540  144.9200 C   0  0  2  0  0  3  0  0  0  0  0  0
  189.8620  176.8320  142.8430 C   0  0  2  0  0  0  0  0  0  0  0  0
  188.0660  175.3090  143.3710 F   0  0  0  0  0  0  0  0  0  0  0  0
  189.7660  177.8270  145.0570 C   0  0  1  0  0  3  0  0  0  0  0  0
  191.8250  177.9040  143.7790 O   0  0  0  0  0  1  0  0  0  0  0  0
  190.6130  175.6610  143.0100 O   0  0  0  0  0  1  0  0  0  0  0  0
  188.4010  177.2030  144.7920 C   0  0  2  0  0  3  0  0  0  0  0  0
  190.5000  176.9740  145.8860 O   0  0  0  0  0  1  0  0  0  0  0  0
  190.4300  177.9550  143.6930 C   0  0  1  0  0  3  0  0  0  0  0  0
  188.4420  176.6410  143.3710 C   0  0  1  0  0  3  0  0  0  0  0  0
  190.6310  176.3780  140.6130 O   0  0  0  0  0  1  0  0  0  0  0  0
  189.8480  177.2450  141.3780 C   0  0  0  0  0  2  0  0  0  0  0  0
  186.9610  178.4520  146.2670 O   0  0  0  0  0  0  0  0  0  0  0  0
  187.0660  177.2610  146.8160 O   0  0  0  0  0  1  0  0  0  0  0  0
  185.9840  178.8800  137.0540 S   0  0  0  0  0  0  0  0  0  0  0  0
  188.3280  177.5190  137.6020 C   0  0  0  0  0  3  0  0  0  0  0  0
  187.2010  175.0010  137.2200 C   0  0  0  0  0  0  0  0  0  0  0  0
  189.0870  176.3580  137.7510 C   0  0  0  0  0  3  0  0  0  0  0  0
  186.9820  177.4100  137.2520 C   0  0  0  0  0  0  0  0  0  0  0  0
  188.5150  175.1390  137.5610 N   0  0  0  0  0  0  0  0  0  0  0  0
  186.4140  176.1500  137.0620 C   0  0  0  0  0  3  0  0  0  0  0  0
  187.2400  171.8370  135.4760 C   0  0  0  0  0  3  0  0  0  0  0  0
  185.2910  173.4920  137.1550 C   0  0  0  0  0  3  0  0  0  0  0  0
  183.3610  172.0960  137.5860 F   0  0  0  0  0  0  0  0  0  0  0  0
  186.6130  173.6580  137.0270 C   0  0  0  0  0  0  0  0  0  0  0  0
  184.8680  171.3020  136.0330 C   0  0  0  0  0  3  0  0  0  0  0  0
  186.0670  171.2840  135.1710 C   0  0  0  0  0  3  0  0  0  0  0  0
  187.5120  172.4820  136.7940 C   0  0  0  0  0  2  0  0  0  0  0  0
  184.5440  172.2350  136.9410 C   0  0  0  0  0  0  0  0  0  0  0  0
  1  2  1  0  0  0  0
  2  3  1  0  0  0  0
  4  7  2  0  0  0  0
  4  6  1  0  0  0  0
  5 10  2  0  0  0  0
  5  8  1  0  0  0  0
  7 11  1  0  0  0  0
  8  1  2  0  0  0  0
  8  7  1  0  0  0  0
  9  5  1  0  0  0  0
 10  4  1  0  0  0  0
 11  3  2  0  0  0  0
 13 12  1  0  0  0  0
 14 12  1  0  0  0  0
 14 17  1  1  0  0  0
 15  3  1  6  0  0  0
 15 16  1  0  0  0  0
 15 13  1  0  0  0  0
 16 14  1  0  0  0  0
 17 29  1  1  0  0  0
 18 22  1  1  0  0  0
 18 26  1  0  0  0  0
 18 25  1  0  0  0  0
 20 24  1  1  0  0  0
 23 17  1  6  0  0  0
 23 20  1  0  0  0  0
 25 21  1  1  0  0  0
 25 20  1  0  0  0  0
 26 19  1  1  0  0  0
 26 23  1  0  0  0  0
 27 28  1  0  0  0  0
 28 18  1  0  0  0  0
 29 30  1  0  0  0  0
 31 35  1  0  0  0  0
 31  1  1  0  0  0  0
 32 34  1  0  0  0  0
 33 36  1  0  0  0  0
 35 32  2  0  0  0  0
 36 34  2  0  0  0  0
 37 33  2  0  0  0  0
 37 35  1  0  0  0  0
 38 44  1  0  0  0  0
 41 39  2  0  0  0  0
 41 33  1  0  0  0  0
 42 45  2  0  0  0  0
 43 38  2  0  0  0  0
 43 42  1  0  0  0  0
 44 41  1  0  0  0  0
 45 39  1  0  0  0  0
 45 40  1  0  0  0  0
M  END
>  <MODEL>
7

>  <REMARK>
 VINA RESULT:      -9.0      3.949      6.739
  Name = 
  8 active torsions:
  status: ('A' for Active; 'I' for Inactive)
    1  A    between atoms: C_2  and  S_32
    2  A    between atoms: C_4  and  C_36
    3  A    between atoms: C_5  and  C_21
    4  A    between atoms: C_5  and  C_26
    5  A    between atoms: C_5  and  O_27
    6  A    between atoms: C_11  and  C_16
    7  A    between atoms: C_15  and  S_32
    8  A    between atoms: C_18  and  C_39
                            x       y       z     vdW  Elec       q    Type
                         _______ _______ _______ _____ _____    ______ ____

>  <TORSDO>
F 8

$$$$
=
 OpenBabel11062414203D

 45 50  0  0  1  0  0  0  0  0999 V2000
  187.9260  177.4410  137.9200 C   0  0  0  0  0  0  0  0  0  0  0  0
  186.5990  177.7580  137.8530 N   0  0  0  0  0  2  0  0  0  0  0  0
  185.6610  176.8940  137.3500 C   0  0  0  0  0  0  0  0  0  0  0  0
  188.0910  174.1720  136.6000 C   0  0  0  0  0  0  0  0  0  0  0  0
  189.5450  175.5370  137.3910 C   0  0  0  0  0  0  0  0  0  0  0  0
  187.5130  173.0060  136.0220 N   0  0  0  0  0  1  0  0  0  0  0  0
  187.4020  175.3060  136.9630 C   0  0  0  0  0  0  0  0  0  0  0  0
  188.3220  176.1800  137.4650 C   0  0  0  0  0  0  0  0  0  0  0  0
  190.7930  176.0680  137.8230 N   0  0  0  0  0  1  0  0  0  0  0  0
  189.4120  174.2990  136.8610 N   0  0  0  0  0  0  0  0  0  0  0  0
  186.0500  175.6200  136.8840 C   0  0  0  0  0  3  0  0  0  0  0  0
  182.0680  176.6750  136.4970 C   0  0  0  0  0  2  0  0  0  0  0  0
  183.5110  176.8440  136.0790 C   0  0  0  0  0  2  0  0  0  0  0  0
  182.1080  176.3090  137.9730 C   0  0  1  0  0  3  0  0  0  0  0  0
  184.2260  177.3170  137.3280 C   0  0  1  0  0  3  0  0  0  0  0  0
  183.4610  176.7470  138.5090 C   0  0  0  0  0  2  0  0  0  0  0  0
  180.9660  176.9520  138.7680 C   0  0  2  0  0  3  0  0  0  0  0  0
  180.1210  180.3970  139.3620 C   0  0  2  0  0  0  0  0  0  0  0  0
  182.0580  180.0850  137.9570 F   0  0  0  0  0  0  0  0  0  0  0  0
  180.7240  178.4900  140.7410 C   0  0  1  0  0  3  0  0  0  0  0  0
  179.3600  180.2700  141.6610 O   0  0  0  0  0  1  0  0  0  0  0  0
  180.9100  181.4500  139.8450 O   0  0  0  0  0  1  0  0  0  0  0  0
  181.3930  178.2870  139.3860 C   0  0  2  0  0  3  0  0  0  0  0  0
  181.6750  178.9650  141.6480 O   0  0  0  0  0  1  0  0  0  0  0  0
  179.6350  179.5270  140.5080 C   0  0  1  0  0  3  0  0  0  0  0  0
  180.9540  179.4520  138.5000 C   0  0  1  0  0  3  0  0  0  0  0  0
  179.0080  180.5660  137.2410 O   0  0  0  0  0  1  0  0  0  0  0  0
  178.9320  180.9420  138.5830 C   0  0  0  0  0  2  0  0  0  0  0  0
  180.5060  176.0780  139.7610 O   0  0  0  0  0  0  0  0  0  0  0  0
  180.8330  174.8780  139.3280 O   0  0  0  0  0  1  0  0  0  0  0  0
  189.0900  178.6380  138.5720 S   0  0  0  0  0  0  0  0  0  0  0  0
  190.0980  177.1320  140.6610 C   0  0  0  0  0  3  0  0  0  0  0  0
  187.9160  177.6000  142.3270 C   0  0  0  0  0  0  0  0  0  0  0  0
  190.0390  176.5850  141.9430 C   0  0  0  0  0  3  0  0  0  0  0  0
  189.0420  177.9240  140.2110 C   0  0  0  0  0  0  0  0  0  0  0  0
  188.9630  176.8280  142.7400 N   0  0  0  0  0  0  0  0  0  0  0  0
  187.9480  178.1620  141.0430 C   0  0  0  0  0  3  0  0  0  0  0  0
  184.8210  179.3510  142.9660 C   0  0  0  0  0  3  0  0  0  0  0  0
  186.9490  177.8280  144.5500 C   0  0  0  0  0  3  0  0  0  0  0  0
  186.1040  177.5640  146.8030 F   0  0  0  0  0  0  0  0  0  0  0  0
  186.7670  177.8460  143.2240 C   0  0  0  0  0  0  0  0  0  0  0  0
  184.9240  178.9920  145.4320 C   0  0  0  0  0  3  0  0  0  0  0  0
  184.5840  179.7540  144.2130 C   0  0  0  0  0  3  0  0  0  0  0  0
  185.3950  178.0110  142.6440 C   0  0  0  0  0  2  0  0  0  0  0  0
  185.9240  178.1090  145.5770 C   0  0  0  0  0  0  0  0  0  0  0  0
  1 31  1  0  0  0  0
  2  1  1  0  0  0  0
  3  2  1  0  0  0  0
  4 10  1  0  0  0  0
  4  7  2  0  0  0  0
  5  8  1  0  0  0  0
  5  9  1  0  0  0  0
  6  4  1  0  0  0  0
  7  8  1  0  0  0  0
  8  1  2  0  0  0  0
 10  5  2  0  0  0  0
 11  7  1  0  0  0  0
 11  3  2  0  0  0  0
 12 14  1  0  0  0  0
 13 12  1  0  0  0  0
 13 15  1  0  0  0  0
 14 16  1  0  0  0  0
 14 17  1  1  0  0  0
 15  3  1  6  0  0  0
 15 16  1  0  0  0  0
 17 29  1  1  0  0  0
 18 22  1  1  0  0  0
 18 25  1  0  0  0  0
 20 24  1  1  0  0  0
 23 17  1  6  0  0  0
 23 20  1  0  0  0  0
 25 20  1  0  0  0  0
 25 21  1  1  0  0  0
 26 19  1  1  0  0  0
 26 18  1  0  0  0  0
 26 23  1  0  0  0  0
 27 28  1  0  0  0  0
 28 18  1  0  0  0  0
 30 29  1  0  0  0  0
 31 35  1  0  0  0  0
 32 34  1  0  0  0  0
 33 36  1  0  0  0  0
 33 41  1  0  0  0  0
 34 36  2  0  0  0  0
 35 32  2  0  0  0  0
 35 37  1  0  0  0  0
 37 33  2  0  0  0  0
 38 43  2  0  0  0  0
 39 45  1  0  0  0  0
 41 39  2  0  0  0  0
 42 45  2  0  0  0  0
 43 42  1  0  0  0  0
 44 38  1  0  0  0  0
 44 41  1  0  0  0  0
 45 40  1  0  0  0  0
M  END
>  <MODEL>
8

>  <REMARK>
 VINA RESULT:      -8.9      4.739      9.568
  Name = 
  8 active torsions:
  status: ('A' for Active; 'I' for Inactive)
    1  A    between atoms: C_2  and  S_32
    2  A    between atoms: C_4  and  C_36
    3  A    between atoms: C_5  and  C_21
    4  A    between atoms: C_5  and  C_26
    5  A    between atoms: C_5  and  O_27
    6  A    between atoms: C_11  and  C_16
    7  A    between atoms: C_15  and  S_32
    8  A    between atoms: C_18  and  C_39
                            x       y       z     vdW  Elec       q    Type
                         _______ _______ _______ _____ _____    ______ ____

>  <TORSDO>
F 8

$$$$
=
 OpenBabel11062414203D

 45 50  0  0  1  0  0  0  0  0999 V2000
  182.4430  179.2700  140.5290 C   0  0  0  0  0  0  0  0  0  0  0  0
  183.6310  179.2250  141.2020 N   0  0  0  0  0  0  0  0  0  0  0  0
  183.7080  178.9300  142.5390 C   0  0  0  0  0  0  0  0  0  0  0  0
  180.0380  178.4680  142.9840 C   0  0  0  0  0  0  0  0  0  0  0  0
  179.9370  178.9340  140.8930 C   0  0  0  0  0  0  0  0  0  0  0  0
  179.6420  178.1330  144.3100 N   0  0  0  0  0  1  0  0  0  0  0  0
  181.3330  178.6880  142.5720 C   0  0  1  0  0  3  0  0  0  0  0  0
  181.2750  178.9880  141.2420 C   0  0  0  0  0  0  0  0  0  0  0  0
  179.4060  179.1600  139.5910 N   0  0  0  0  0  1  0  0  0  0  0  0
  179.1680  178.6130  141.9590 N   0  0  0  0  0  0  0  0  0  0  0  0
  182.5350  178.6470  143.2690 C   0  0  0  0  0  3  0  0  0  0  0  0
  186.1190  178.6230  145.3270 C   0  0  0  0  0  2  0  0  0  0  0  0
  185.0010  179.3660  144.6300 C   0  0  0  0  0  2  0  0  0  0  0  0
  186.2560  177.3000  144.5890 C   0  0  1  0  0  3  0  0  0  0  0  0
  185.0520  178.8880  143.1930 C   0  0  1  0  0  3  0  0  0  0  0  0
  185.6120  177.4770  143.2240 C   0  0  0  0  0  2  0  0  0  0  0  0
  187.7160  176.8520  144.4550 C   0  0  2  0  0  3  0  0  0  0  0  0
  190.5150  176.9600  146.7100 C   0  0  2  0  0  0  0  0  0  0  0  0
  188.4430  177.7350  147.6730 F   0  0  0  0  0  0  0  0  0  0  0  0
  189.9720  177.9530  144.5610 C   0  0  1  0  0  3  0  0  0  0  0  0
  192.2870  177.5850  145.1780 O   0  0  0  0  0  1  0  0  0  0  0  0
  191.0170  178.0200  147.4770 O   0  0  0  0  0  1  0  0  0  0  0  0
  188.6530  177.7280  145.2920 C   0  0  2  0  0  3  0  0  0  0  0  0
  190.3250  179.3010  144.6680 O   0  0  0  0  0  1  0  0  0  0  0  0
  190.9890  177.0720  145.2720 C   0  0  1  0  0  3  0  0  0  0  0  0
  188.9940  177.0390  146.6120 C   0  0  1  0  0  3  0  0  0  0  0  0
  192.2600  175.7130  147.7920 O   0  0  0  0  0  1  0  0  0  0  0  0
  190.9560  175.6280  147.3010 C   0  0  0  0  0  2  0  0  0  0  0  0
  188.1100  176.8570  143.1100 O   0  0  0  0  0  0  0  0  0  0  0  0
  188.5190  175.6280  142.8770 O   0  0  0  0  0  1  0  0  0  0  0  0
  182.4290  179.6870  138.7850 S   0  0  0  0  0  0  0  0  0  0  0  0
  182.6100  176.9640  138.3370 C   0  0  0  0  0  3  0  0  0  0  0  0
  185.2940  177.0520  137.6010 C   0  0  0  0  0  0  0  0  0  0  0  0
  183.2980  175.8050  137.9770 C   0  0  0  0  0  3  0  0  0  0  0  0
  183.2850  178.1850  138.3290 C   0  0  0  0  0  0  0  0  0  0  0  0
  184.6090  175.8720  137.6200 N   0  0  0  0  0  0  0  0  0  0  0  0
  184.6290  178.2330  137.9580 C   0  0  0  0  0  3  0  0  0  0  0  0
  188.4140  175.2880  137.1470 C   0  0  0  0  0  3  0  0  0  0  0  0
  187.4510  178.1730  137.4630 C   0  0  0  0  0  3  0  0  0  0  0  0
  189.3490  179.6090  137.0200 F   0  0  0  0  0  0  0  0  0  0  0  0
  186.7170  177.0860  137.2000 C   0  0  0  0  0  0  0  0  0  0  0  0
  189.8000  177.3590  137.2380 C   0  0  0  0  0  3  0  0  0  0  0  0
  189.5380  175.9240  137.4710 C   0  0  0  0  0  3  0  0  0  0  0  0
  187.2930  175.9470  136.4140 C   0  0  0  0  0  2  0  0  0  0  0  0
  188.8920  178.3440  137.1810 C   0  0  0  0  0  0  0  0  0  0  0  0
  1  2  2  0  0  0  0
  1  8  1  0  0  0  0
  2  3  1  0  0  0  0
  3 11  2  0  0  0  0
  4  6  1  0  0  0  0
  5  8  2  0  0  0  0
  5 10  1  0  0  0  0
  7  4  1  0  0  0  0
  7 11  1  1  0  0  0
  8  7  1  0  0  0  0
  9  5  1  0  0  0  0
 10  4  2  0  0  0  0
 13 12  1  0  0  0  0
 14 17  1  6  0  0  0
 14 12  1  0  0  0  0
 15  3  1  1  0  0  0
 15 16  1  0  0  0  0
 15 13  1  0  0  0  0
 16 14  1  0  0  0  0
 17 29  1  6  0  0  0
 18 28  1  0  0  0  0
 18 22  1  1  0  0  0
 20 24  1  1  0  0  0
 20 25  1  0  0  0  0
 20 23  1  0  0  0  0
 23 17  1  6  0  0  0
 23 26  1  0  0  0  0
 25 21  1  1  0  0  0
 25 18  1  0  0  0  0
 26 18  1  0  0  0  0
 26 19  1  1  0  0  0
 28 27  1  0  0  0  0
 30 29  1  0  0  0  0
 31  1  1  0  0  0  0
 33 36  2  0  0  0  0
 33 37  1  0  0  0  0
 34 32  2  0  0  0  0
 35 32  1  0  0  0  0
 35 31  1  0  0  0  0
 36 34  1  0  0  0  0
 37 35  2  0  0  0  0
 38 43  2  0  0  0  0
 40 45  1  0  0  0  0
 41 39  2  0  0  0  0
 41 33  1  0  0  0  0
 42 43  1  0  0  0  0
 44 38  1  0  0  0  0
 44 41  1  0  0  0  0
 45 42  2  0  0  0  0
 45 39  1  0  0  0  0
M  END
>  <MODEL>
9

>  <REMARK>
 VINA RESULT:      -8.9      3.405      5.889
  Name = 
  8 active torsions:
  status: ('A' for Active; 'I' for Inactive)
    1  A    between atoms: C_2  and  S_32
    2  A    between atoms: C_4  and  C_36
    3  A    between atoms: C_5  and  C_21
    4  A    between atoms: C_5  and  C_26
    5  A    between atoms: C_5  and  O_27
    6  A    between atoms: C_11  and  C_16
    7  A    between atoms: C_15  and  S_32
    8  A    between atoms: C_18  and  C_39
                            x       y       z     vdW  Elec       q    Type
                         _______ _______ _______ _____ _____    ______ ____

>  <TORSDO>
F 8

$$$$
