=
 OpenBabel11062413473D

 35 39  0  0  1  0  0  0  0  0999 V2000
  184.0820  178.7670  142.8950 C   0  0  0  0  0  0  0  0  0  0  0  0
  187.7460  177.5370  144.6960 C   0  0  0  0  0  0  0  0  0  0  0  0
  186.4430  177.8760  142.6220 C   0  0  0  0  0  3  0  0  0  0  0  0
  186.6310  177.9920  145.4090 C   0  0  0  0  0  0  0  0  0  0  0  0
  185.3460  178.3380  143.3800 C   0  0  0  0  0  0  0  0  0  0  0  0
  184.5910  178.7620  145.6210 C   0  0  0  0  0  0  0  0  0  0  0  0
  183.1080  179.1960  143.8530 C   0  0  0  0  0  3  0  0  0  0  0  0
  183.3720  179.1860  145.2030 N   0  0  0  0  0  0  0  0  0  0  0  0
  185.0890  178.6660  146.9550 N   0  0  0  0  0  0  0  0  0  0  0  0
  185.5200  178.3610  144.7440 C   0  0  0  0  0  0  0  0  0  0  0  0
  186.3120  178.2060  146.8360 C   0  0  0  0  0  3  0  0  0  0  0  0
  187.6390  177.4780  143.2810 C   0  0  0  0  0  3  0  0  0  0  0  0
  183.7720  178.8240  141.4420 C   0  0  0  0  0  0  0  0  0  0  0  0
  184.4600  179.5760  140.7010 O   0  0  0  0  0  0  0  0  0  0  0  0
  180.3600  177.7010  140.3030 N   0  0  0  0  0  0  0  0  0  0  0  0
  180.6360  176.5430  139.6480 C   0  0  0  0  0  0  0  0  0  0  0  0
  181.3360  178.4460  140.8900 C   0  0  0  0  0  0  0  0  0  0  0  0
  180.9900  179.5860  141.5380 F   0  0  0  0  0  0  0  0  0  0  0  0
  179.5370  175.7630  139.0220 C   0  0  0  0  0  1  0  0  0  0  0  0
  181.9500  176.0850  139.5630 C   0  0  0  0  0  3  0  0  0  0  0  0
  182.6790  178.0210  140.8370 C   0  0  0  0  0  0  0  0  0  0  0  0
  182.9680  176.8300  140.1570 C   0  0  0  0  0  3  0  0  0  0  0  0
  189.0120  177.1360  145.3800 C   0  0  0  0  0  2  0  0  0  0  0  0
  190.2420  177.5730  144.5920 C   0  0  0  0  0  2  0  0  0  0  0  0
  191.0670  176.3810  144.1230 C   0  0  0  0  0  2  0  0  0  0  0  0
  190.7090  176.0130  142.7560 N   0  0  0  0  0  2  0  0  0  0  0  0
  190.9240  177.1350  141.8330 C   0  0  1  0  0  3  0  0  0  0  0  0
  192.2660  177.4580  141.7000 F   0  0  0  0  0  0  0  0  0  0  0  0
  189.6540  176.4650  137.4660 C   0  0  0  0  0  2  0  0  0  0  0  0
  190.7590  175.8080  138.2880 C   0  0  0  0  0  2  0  0  0  0  0  0
  191.2860  176.7480  139.3680 C   0  0  0  0  0  2  0  0  0  0  0  0
  190.2480  176.9310  140.4750 C   0  0  2  0  0  3  0  0  0  0  0  0
  189.2110  178.0250  140.1710 C   0  0  0  0  0  2  0  0  0  0  0  0
  188.7020  178.0200  138.7290 C   0  0  0  0  0  2  0  0  0  0  0  0
  188.5300  176.7120  138.2630 O   0  0  0  0  0  0  0  0  0  0  0  0
  1  5  1  0  0  0  0
  1  7  2  0  0  0  0
  2 23  1  0  0  0  0
  2  4  1  0  0  0  0
  3 12  1  0  0  0  0
  3  5  2  0  0  0  0
  4 11  1  0  0  0  0
  5 10  1  0  0  0  0
  6  9  1  0  0  0  0
  7  8  1  0  0  0  0
  8  6  2  0  0  0  0
 10  4  2  0  0  0  0
 10  6  1  0  0  0  0
 11  9  2  0  0  0  0
 12  2  2  0  0  0  0
 13  1  1  0  0  0  0
 14 13  2  0  0  0  0
 15 17  1  0  0  0  0
 16 15  2  0  0  0  0
 17 18  1  0  0  0  0
 19 16  1  0  0  0  0
 20 16  1  0  0  0  0
 20 22  2  0  0  0  0
 21 17  2  0  0  0  0
 21 13  1  0  0  0  0
 22 21  1  0  0  0  0
 24 23  1  0  0  0  0
 25 24  1  0  0  0  0
 26 25  1  0  0  0  0
 27 28  1  6  0  0  0
 27 26  1  0  0  0  0
 29 35  1  0  0  0  0
 29 30  1  0  0  0  0
 30 31  1  0  0  0  0
 31 32  1  0  0  0  0
 32 27  1  1  0  0  0
 33 32  1  0  0  0  0
 34 33  1  0  0  0  0
 35 34  1  0  0  0  0
M  END
>  <MODEL>
1

>  <REMARK>
 VINA RESULT:      -9.9      0.000      0.000
  Name = 
  8 active torsions:
  status: ('A' for Active; 'I' for Inactive)
    1  A    between atoms: C_2  and  C_3
    2  A    between atoms: C_3  and  C_28
    3  A    between atoms: C_4  and  C_10
    4  A    between atoms: N_9  and  C_19
    5  A    between atoms: N_9  and  C_34
    6  A    between atoms: C_10  and  C_33
    7  A    between atoms: C_19  and  C_25
    8  A    between atoms: C_33  and  C_34
                            x       y       z     vdW  Elec       q    Type
                         _______ _______ _______ _____ _____    ______ ____

>  <TORSDO>
F 8

$$$$
=
 OpenBabel11062413473D

 35 39  0  0  1  0  0  0  0  0999 V2000
  184.2050  178.8300  142.0610 C   0  0  0  0  0  0  0  0  0  0  0  0
  187.0230  177.4320  144.9390 C   0  0  0  0  0  0  0  0  0  0  0  0
  186.4610  177.7770  142.5560 C   0  0  0  0  0  3  0  0  0  0  0  0
  185.7770  177.9840  145.2590 C   0  0  0  0  0  0  0  0  0  0  0  0
  185.2190  178.3380  142.9240 C   0  0  0  0  0  0  0  0  0  0  0  0
  183.8360  178.8930  144.8080 C   0  0  0  0  0  0  0  0  0  0  0  0
  183.0150  179.3560  142.6580 C   0  0  0  0  0  3  0  0  0  0  0  0
  182.8430  179.3790  144.0220 N   0  0  0  0  0  0  0  0  0  0  0  0
  183.8840  178.8150  146.2320 N   0  0  0  0  0  0  0  0  0  0  0  0
  184.9590  178.4000  144.2730 C   0  0  0  0  0  0  0  0  0  0  0  0
  185.0460  178.2720  146.5100 C   0  0  0  0  0  3  0  0  0  0  0  0
  187.3590  177.3280  143.5630 C   0  0  0  0  0  3  0  0  0  0  0  0
  184.3690  178.8520  140.5830 C   0  0  0  0  0  0  0  0  0  0  0  0
  184.9740  179.8220  140.0510 O   0  0  0  0  0  0  0  0  0  0  0  0
  183.8780  176.5220  137.6630 N   0  0  0  0  0  0  0  0  0  0  0  0
  182.8960  175.6950  138.1090 C   0  0  0  0  0  0  0  0  0  0  0  0
  184.3630  177.5400  138.4250 C   0  0  0  0  0  0  0  0  0  0  0  0
  185.3360  178.3350  137.9130 F   0  0  0  0  0  0  0  0  0  0  0  0
  182.3980  174.5970  137.2410 C   0  0  0  0  0  1  0  0  0  0  0  0
  182.3550  175.8770  139.3810 C   0  0  0  0  0  3  0  0  0  0  0  0
  183.8430  177.7680  139.7150 C   0  0  0  0  0  0  0  0  0  0  0  0
  182.8350  176.9130  140.1810 C   0  0  0  0  0  3  0  0  0  0  0  0
  187.9790  176.9750  145.9920 C   0  0  0  0  0  2  0  0  0  0  0  0
  188.3220  178.0960  146.9660 C   0  0  0  0  0  2  0  0  0  0  0  0
  189.6510  177.8490  147.6690 C   0  0  0  0  0  2  0  0  0  0  0  0
  190.2290  176.5770  147.2460 N   0  0  0  0  0  2  0  0  0  0  0  0
  191.4180  176.7880  146.4110 C   0  0  1  0  0  3  0  0  0  0  0  0
  192.3660  175.7900  146.5820 F   0  0  0  0  0  0  0  0  0  0  0  0
  190.7110  176.7030  141.8690 C   0  0  0  0  0  2  0  0  0  0  0  0
  190.5140  175.6160  142.9220 C   0  0  0  0  0  2  0  0  0  0  0  0
  191.4750  175.7930  144.0950 C   0  0  0  0  0  2  0  0  0  0  0  0
  191.0820  177.0090  144.9340 C   0  0  2  0  0  3  0  0  0  0  0  0
  191.6480  178.3350  144.4000 C   0  0  0  0  0  2  0  0  0  0  0  0
  191.5700  178.4800  142.8790 C   0  0  0  0  0  2  0  0  0  0  0  0
  190.3700  177.9580  142.3870 O   0  0  0  0  0  0  0  0  0  0  0  0
  1  7  2  0  0  0  0
  1  5  1  0  0  0  0
  2  4  1  0  0  0  0
  2 23  1  0  0  0  0
  3  5  2  0  0  0  0
  3 12  1  0  0  0  0
  4 11  1  0  0  0  0
  5 10  1  0  0  0  0
  6  9  1  0  0  0  0
  7  8  1  0  0  0  0
  8  6  2  0  0  0  0
  9 11  2  0  0  0  0
 10  6  1  0  0  0  0
 10  4  2  0  0  0  0
 12  2  2  0  0  0  0
 13  1  1  0  0  0  0
 14 13  2  0  0  0  0
 15 16  2  0  0  0  0
 15 17  1  0  0  0  0
 16 20  1  0  0  0  0
 17 21  2  0  0  0  0
 18 17  1  0  0  0  0
 19 16  1  0  0  0  0
 20 22  2  0  0  0  0
 21 22  1  0  0  0  0
 21 13  1  0  0  0  0
 23 24  1  0  0  0  0
 24 25  1  0  0  0  0
 26 25  1  0  0  0  0
 27 28  1  6  0  0  0
 27 26  1  0  0  0  0
 29 35  1  0  0  0  0
 29 30  1  0  0  0  0
 30 31  1  0  0  0  0
 31 32  1  0  0  0  0
 32 27  1  1  0  0  0
 33 32  1  0  0  0  0
 34 33  1  0  0  0  0
 35 34  1  0  0  0  0
M  END
>  <MODEL>
2

>  <REMARK>
 VINA RESULT:      -9.5      2.525      3.213
  Name = 
  8 active torsions:
  status: ('A' for Active; 'I' for Inactive)
    1  A    between atoms: C_2  and  C_3
    2  A    between atoms: C_3  and  C_28
    3  A    between atoms: C_4  and  C_10
    4  A    between atoms: N_9  and  C_19
    5  A    between atoms: N_9  and  C_34
    6  A    between atoms: C_10  and  C_33
    7  A    between atoms: C_19  and  C_25
    8  A    between atoms: C_33  and  C_34
                            x       y       z     vdW  Elec       q    Type
                         _______ _______ _______ _____ _____    ______ ____

>  <TORSDO>
F 8

$$$$
=
 OpenBabel11062413473D

 35 39  0  0  1  0  0  0  0  0999 V2000
  187.7930  177.6980  145.7710 C   0  0  0  0  0  0  0  0  0  0  0  0
  184.9460  178.3960  142.6740 C   0  0  0  0  0  0  0  0  0  0  0  0
  187.2440  177.7250  143.2930 C   0  0  0  0  0  3  0  0  0  0  0  0
  184.6830  178.5610  144.0390 C   0  0  0  0  0  0  0  0  0  0  0  0
  186.9320  177.8940  144.6590 C   0  0  0  0  0  0  0  0  0  0  0  0
  185.1790  178.5300  146.1730 C   0  0  0  0  0  0  0  0  0  0  0  0
  187.2610  177.9340  147.0790 C   0  0  0  0  0  3  0  0  0  0  0  0
  185.9630  178.3490  147.2650 N   0  0  0  0  0  0  0  0  0  0  0  0
  183.8150  178.9490  146.1170 N   0  0  0  0  0  0  0  0  0  0  0  0
  185.6520  178.3110  144.9400 C   0  0  0  0  0  0  0  0  0  0  0  0
  183.5110  178.9700  144.8410 C   0  0  0  0  0  3  0  0  0  0  0  0
  186.2510  177.9740  142.3060 C   0  0  0  0  0  3  0  0  0  0  0  0
  189.1910  177.2180  145.6120 C   0  0  0  0  0  0  0  0  0  0  0  0
  189.7910  176.7420  146.6140 O   0  0  0  0  0  0  0  0  0  0  0  0
  191.2900  178.4430  142.7310 N   0  0  0  0  0  0  0  0  0  0  0  0
  191.2880  177.3740  141.8920 C   0  0  0  0  0  0  0  0  0  0  0  0
  190.6260  178.4260  143.9190 C   0  0  0  0  0  0  0  0  0  0  0  0
  190.6580  179.5320  144.7030 F   0  0  0  0  0  0  0  0  0  0  0  0
  192.0270  177.4380  140.6050 C   0  0  0  0  0  1  0  0  0  0  0  0
  190.5930  176.2160  142.2380 C   0  0  0  0  0  3  0  0  0  0  0  0
  189.9030  177.2810  144.3100 C   0  0  0  0  0  0  0  0  0  0  0  0
  189.9050  176.1740  143.4500 C   0  0  0  0  0  3  0  0  0  0  0  0
  183.9030  178.6380  141.6340 C   0  0  0  0  0  2  0  0  0  0  0  0
  184.3150  178.0720  140.2790 C   0  0  0  0  0  2  0  0  0  0  0  0
  184.2260  179.1210  139.1770 C   0  0  0  0  0  2  0  0  0  0  0  0
  185.4100  179.0730  138.3230 N   0  0  0  0  0  2  0  0  0  0  0  0
  185.5570  177.7530  137.6970 C   0  0  1  0  0  3  0  0  0  0  0  0
  184.7300  177.5990  136.5930 F   0  0  0  0  0  0  0  0  0  0  0  0
  190.0860  177.0020  137.4670 C   0  0  0  0  0  2  0  0  0  0  0  0
  189.1100  176.8190  138.6250 C   0  0  0  0  0  2  0  0  0  0  0  0
  187.9380  177.7910  138.5270 C   0  0  0  0  0  2  0  0  0  0  0  0
  187.0120  177.4020  137.3740 C   0  0  2  0  0  3  0  0  0  0  0  0
  187.4570  177.9580  136.0120 C   0  0  0  0  0  2  0  0  0  0  0  0
  188.9630  177.8650  135.7610 C   0  0  0  0  0  2  0  0  0  0  0  0
  189.4780  176.6610  136.2530 O   0  0  0  0  0  0  0  0  0  0  0  0
  1  7  2  0  0  0  0
  2  4  1  0  0  0  0
  3  5  2  0  0  0  0
  4 11  1  0  0  0  0
  4 10  2  0  0  0  0
  5 10  1  0  0  0  0
  5  1  1  0  0  0  0
  6  8  2  0  0  0  0
  7  8  1  0  0  0  0
  9  6  1  0  0  0  0
 10  6  1  0  0  0  0
 11  9  2  0  0  0  0
 12  2  2  0  0  0  0
 12  3  1  0  0  0  0
 13  1  1  0  0  0  0
 13 14  2  0  0  0  0
 15 17  1  0  0  0  0
 16 20  1  0  0  0  0
 16 15  2  0  0  0  0
 17 21  2  0  0  0  0
 17 18  1  0  0  0  0
 19 16  1  0  0  0  0
 20 22  2  0  0  0  0
 21 13  1  0  0  0  0
 22 21  1  0  0  0  0
 23  2  1  0  0  0  0
 24 23  1  0  0  0  0
 25 24  1  0  0  0  0
 26 25  1  0  0  0  0
 27 28  1  6  0  0  0
 27 26  1  0  0  0  0
 29 30  1  0  0  0  0
 31 30  1  0  0  0  0
 32 27  1  1  0  0  0
 32 31  1  0  0  0  0
 33 32  1  0  0  0  0
 34 33  1  0  0  0  0
 34 35  1  0  0  0  0
 35 29  1  0  0  0  0
M  END
>  <MODEL>
3

>  <REMARK>
 VINA RESULT:      -9.4      2.660      6.486
  Name = 
  8 active torsions:
  status: ('A' for Active; 'I' for Inactive)
    1  A    between atoms: C_2  and  C_3
    2  A    between atoms: C_3  and  C_28
    3  A    between atoms: C_4  and  C_10
    4  A    between atoms: N_9  and  C_19
    5  A    between atoms: N_9  and  C_34
    6  A    between atoms: C_10  and  C_33
    7  A    between atoms: C_19  and  C_25
    8  A    between atoms: C_33  and  C_34
                            x       y       z     vdW  Elec       q    Type
                         _______ _______ _______ _____ _____    ______ ____

>  <TORSDO>
F 8

$$$$
=
 OpenBabel11062413473D

 35 39  0  0  1  0  0  0  0  0999 V2000
  183.2290  179.0890  140.1320 C   0  0  0  0  0  0  0  0  0  0  0  0
  184.1410  178.6690  144.2760 C   0  0  0  0  0  0  0  0  0  0  0  0
  184.9780  178.9610  141.9680 C   0  0  0  0  0  3  0  0  0  0  0  0
  182.8440  178.6660  143.7500 C   0  0  0  0  0  0  0  0  0  0  0  0
  183.6530  178.9630  141.4820 C   0  0  0  0  0  0  0  0  0  0  0  0
  181.3530  178.7810  142.1500 C   0  0  0  0  0  0  0  0  0  0  0  0
  181.8230  179.0610  139.8670 C   0  0  0  0  0  3  0  0  0  0  0  0
  180.9020  178.9040  140.8760 N   0  0  0  0  0  0  0  0  0  0  0  0
  180.5950  178.6130  143.3480 N   0  0  0  0  0  0  0  0  0  0  0  0
  182.6620  178.8090  142.4240 C   0  0  0  0  0  0  0  0  0  0  0  0
  181.4830  178.5440  144.3120 C   0  0  0  0  0  3  0  0  0  0  0  0
  185.2180  178.8160  143.3620 C   0  0  0  0  0  3  0  0  0  0  0  0
  184.1930  179.2930  139.0190 C   0  0  0  0  0  0  0  0  0  0  0  0
  184.5610  180.4660  138.7370 O   0  0  0  0  0  0  0  0  0  0  0  0
  186.5670  176.7530  137.5630 N   0  0  0  0  0  0  0  0  0  0  0  0
  185.7460  175.9940  136.7910 C   0  0  0  0  0  0  0  0  0  0  0  0
  186.1030  177.8140  138.2790 C   0  0  0  0  0  0  0  0  0  0  0  0
  186.9790  178.5370  139.0210 F   0  0  0  0  0  0  0  0  0  0  0  0
  186.2970  174.8450  136.0260 C   0  0  0  0  0  1  0  0  0  0  0  0
  184.3860  176.2920  136.7140 C   0  0  0  0  0  3  0  0  0  0  0  0
  184.7370  178.1590  138.2290 C   0  0  0  0  0  0  0  0  0  0  0  0
  183.8870  177.3740  137.4380 C   0  0  0  0  0  3  0  0  0  0  0  0
  184.4000  178.5370  145.7410 C   0  0  0  0  0  2  0  0  0  0  0  0
  185.6530  179.2960  146.1640 C   0  0  0  0  0  2  0  0  0  0  0  0
  186.5050  178.4870  147.1330 C   0  0  0  0  0  2  0  0  0  0  0  0
  187.0770  177.3210  146.4670 N   0  0  0  0  0  2  0  0  0  0  0  0
  188.5440  177.3680  146.4850 C   0  0  1  0  0  3  0  0  0  0  0  0
  189.0870  176.5290  147.4480 F   0  0  0  0  0  0  0  0  0  0  0  0
  190.7950  177.3790  142.4770 C   0  0  0  0  0  2  0  0  0  0  0  0
  191.2580  177.7830  143.8740 C   0  0  0  0  0  2  0  0  0  0  0  0
  190.0950  178.2880  144.7240 C   0  0  0  0  0  2  0  0  0  0  0  0
  189.1690  177.1340  145.1080 C   0  0  2  0  0  3  0  0  0  0  0  0
  188.1140  176.8100  144.0380 C   0  0  0  0  0  2  0  0  0  0  0  0
  188.6510  176.8290  142.6050 C   0  0  0  0  0  2  0  0  0  0  0  0
  189.9350  176.2770  142.5440 O   0  0  0  0  0  0  0  0  0  0  0  0
  1  5  1  0  0  0  0
  2 23  1  0  0  0  0
  3 12  1  0  0  0  0
  4  2  1  0  0  0  0
  4 11  1  0  0  0  0
  5  3  2  0  0  0  0
  5 10  1  0  0  0  0
  6 10  1  0  0  0  0
  6  9  1  0  0  0  0
  7  1  2  0  0  0  0
  7  8  1  0  0  0  0
  8  6  2  0  0  0  0
  9 11  2  0  0  0  0
 10  4  2  0  0  0  0
 12  2  2  0  0  0  0
 13  1  1  0  0  0  0
 14 13  2  0  0  0  0
 15 17  1  0  0  0  0
 16 15  2  0  0  0  0
 17 18  1  0  0  0  0
 19 16  1  0  0  0  0
 20 16  1  0  0  0  0
 20 22  2  0  0  0  0
 21 17  2  0  0  0  0
 21 13  1  0  0  0  0
 22 21  1  0  0  0  0
 23 24  1  0  0  0  0
 24 25  1  0  0  0  0
 26 27  1  0  0  0  0
 26 25  1  0  0  0  0
 27 28  1  1  0  0  0
 29 35  1  0  0  0  0
 29 30  1  0  0  0  0
 30 31  1  0  0  0  0
 31 32  1  0  0  0  0
 32 27  1  1  0  0  0
 33 32  1  0  0  0  0
 34 33  1  0  0  0  0
 35 34  1  0  0  0  0
M  END
>  <MODEL>
4

>  <REMARK>
 VINA RESULT:      -9.2      2.810      4.816
  Name = 
  8 active torsions:
  status: ('A' for Active; 'I' for Inactive)
    1  A    between atoms: C_2  and  C_3
    2  A    between atoms: C_3  and  C_28
    3  A    between atoms: C_4  and  C_10
    4  A    between atoms: N_9  and  C_19
    5  A    between atoms: N_9  and  C_34
    6  A    between atoms: C_10  and  C_33
    7  A    between atoms: C_19  and  C_25
    8  A    between atoms: C_33  and  C_34
                            x       y       z     vdW  Elec       q    Type
                         _______ _______ _______ _____ _____    ______ ____

>  <TORSDO>
F 8

$$$$
=
 OpenBabel11062413473D

 35 39  0  0  1  0  0  0  0  0999 V2000
  183.4230  178.9750  139.5500 C   0  0  0  0  0  0  0  0  0  0  0  0
  185.2580  178.4440  143.3620 C   0  0  0  0  0  0  0  0  0  0  0  0
  183.1790  178.7880  142.0700 C   0  0  0  0  0  3  0  0  0  0  0  0
  185.9550  178.4760  142.1490 C   0  0  0  0  0  0  0  0  0  0  0  0
  183.9200  178.8030  140.8690 C   0  0  0  0  0  0  0  0  0  0  0  0
  186.1430  178.6390  139.9730 C   0  0  0  0  0  0  0  0  0  0  0  0
  184.3640  178.9600  138.4730 C   0  0  0  0  0  3  0  0  0  0  0  0
  185.7120  178.7950  138.6950 N   0  0  0  0  0  0  0  0  0  0  0  0
  187.4770  178.4520  140.4440 N   0  0  0  0  0  0  0  0  0  0  0  0
  185.2800  178.6460  140.9960 C   0  0  0  0  0  0  0  0  0  0  0  0
  187.3720  178.3530  141.7480 C   0  0  0  0  0  3  0  0  0  0  0  0
  183.8490  178.6070  143.3120 C   0  0  0  0  0  3  0  0  0  0  0  0
  181.9710  179.1230  139.2680 C   0  0  0  0  0  0  0  0  0  0  0  0
  181.1540  178.3650  139.8570 O   0  0  0  0  0  0  0  0  0  0  0  0
  180.5960  180.7390  136.1530 N   0  0  0  0  0  0  0  0  0  0  0  0
  180.4210  182.0280  136.5450 C   0  0  0  0  0  0  0  0  0  0  0  0
  181.0930  179.7920  136.9950 C   0  0  0  0  0  0  0  0  0  0  0  0
  181.2540  178.5260  136.5360 F   0  0  0  0  0  0  0  0  0  0  0  0
  179.8740  183.0270  135.5900 C   0  0  0  0  0  1  0  0  0  0  0  0
  180.7540  182.4160  137.8420 C   0  0  0  0  0  3  0  0  0  0  0  0
  181.4510  180.1360  138.3140 C   0  0  0  0  0  0  0  0  0  0  0  0
  181.2670  181.4650  138.7240 C   0  0  0  0  0  3  0  0  0  0  0  0
  185.9530  178.2360  144.6680 C   0  0  0  0  0  2  0  0  0  0  0  0
  185.0960  178.6950  145.8430 C   0  0  0  0  0  2  0  0  0  0  0  0
  185.8750  178.6780  147.1520 C   0  0  0  0  0  2  0  0  0  0  0  0
  186.8820  177.6210  147.1400 N   0  0  0  0  0  2  0  0  0  0  0  0
  188.1390  178.0810  147.7420 C   0  0  1  0  0  3  0  0  0  0  0  0
  188.3060  177.6130  149.0370 F   0  0  0  0  0  0  0  0  0  0  0  0
  191.2700  176.9690  144.5650 C   0  0  0  0  0  2  0  0  0  0  0  0
  189.9210  177.6680  144.4230 C   0  0  0  0  0  2  0  0  0  0  0  0
  188.9460  177.2260  145.5110 C   0  0  0  0  0  2  0  0  0  0  0  0
  189.3630  177.7920  146.8690 C   0  0  2  0  0  3  0  0  0  0  0  0
  190.4090  176.9350  147.5980 C   0  0  0  0  0  2  0  0  0  0  0  0
  191.5200  176.4000  146.6930 C   0  0  0  0  0  2  0  0  0  0  0  0
  191.9030  177.3600  145.7500 O   0  0  0  0  0  0  0  0  0  0  0  0
  1  5  1  0  0  0  0
  2 23  1  0  0  0  0
  3 12  2  0  0  0  0
  4  2  2  0  0  0  0
  5 10  2  0  0  0  0
  5  3  1  0  0  0  0
  6  9  1  0  0  0  0
  6 10  1  0  0  0  0
  7  8  1  0  0  0  0
  7  1  2  0  0  0  0
  8  6  2  0  0  0  0
  9 11  2  0  0  0  0
 10  4  1  0  0  0  0
 11  4  1  0  0  0  0
 12  2  1  0  0  0  0
 13  1  1  0  0  0  0
 13 14  2  0  0  0  0
 15 16  2  0  0  0  0
 15 17  1  0  0  0  0
 16 20  1  0  0  0  0
 17 21  2  0  0  0  0
 18 17  1  0  0  0  0
 19 16  1  0  0  0  0
 20 22  2  0  0  0  0
 21 22  1  0  0  0  0
 21 13  1  0  0  0  0
 23 24  1  0  0  0  0
 24 25  1  0  0  0  0
 26 25  1  0  0  0  0
 26 27  1  0  0  0  0
 27 28  1  1  0  0  0
 29 35  1  0  0  0  0
 30 29  1  0  0  0  0
 30 31  1  0  0  0  0
 31 32  1  0  0  0  0
 32 33  1  0  0  0  0
 32 27  1  1  0  0  0
 34 33  1  0  0  0  0
 35 34  1  0  0  0  0
M  END
>  <MODEL>
5

>  <REMARK>
 VINA RESULT:      -9.1      3.640      5.758
  Name = 
  8 active torsions:
  status: ('A' for Active; 'I' for Inactive)
    1  A    between atoms: C_2  and  C_3
    2  A    between atoms: C_3  and  C_28
    3  A    between atoms: C_4  and  C_10
    4  A    between atoms: N_9  and  C_19
    5  A    between atoms: N_9  and  C_34
    6  A    between atoms: C_10  and  C_33
    7  A    between atoms: C_19  and  C_25
    8  A    between atoms: C_33  and  C_34
                            x       y       z     vdW  Elec       q    Type
                         _______ _______ _______ _____ _____    ______ ____

>  <TORSDO>
F 8

$$$$
=
 OpenBabel11062413473D

 35 39  0  0  1  0  0  0  0  0999 V2000
  184.9180  178.4310  144.9770 C   0  0  0  0  0  0  0  0  0  0  0  0
  188.8350  176.8320  144.4400 C   0  0  0  0  0  0  0  0  0  0  0  0
  186.6250  177.3340  143.4510 C   0  0  0  0  0  3  0  0  0  0  0  0
  188.3610  177.3700  145.6420 C   0  0  0  0  0  0  0  0  0  0  0  0
  186.1920  177.8780  144.6790 C   0  0  0  0  0  0  0  0  0  0  0  0
  186.8720  178.3180  146.9410 C   0  0  0  0  0  0  0  0  0  0  0  0
  184.6960  178.9240  146.3010 C   0  0  0  0  0  3  0  0  0  0  0  0
  185.6720  178.8600  147.2680 N   0  0  0  0  0  0  0  0  0  0  0  0
  188.0250  178.1480  147.7650 N   0  0  0  0  0  0  0  0  0  0  0  0
  187.1060  177.8540  145.7070 C   0  0  0  0  0  0  0  0  0  0  0  0
  188.9220  177.5810  146.9920 C   0  0  0  0  0  3  0  0  0  0  0  0
  187.9450  176.8150  143.3350 C   0  0  0  0  0  3  0  0  0  0  0  0
  183.8500  178.5470  143.9500 C   0  0  0  0  0  0  0  0  0  0  0  0
  182.6500  178.6440  144.3260 O   0  0  0  0  0  0  0  0  0  0  0  0
  185.3930  179.3780  140.6130 N   0  0  0  0  0  0  0  0  0  0  0  0
  184.7530  178.5210  139.7740 C   0  0  0  0  0  0  0  0  0  0  0  0
  185.1220  179.4140  141.9470 C   0  0  0  0  0  0  0  0  0  0  0  0
  185.7880  180.3020  142.7260 F   0  0  0  0  0  0  0  0  0  0  0  0
  185.0820  178.5180  138.3240 C   0  0  0  0  0  1  0  0  0  0  0  0
  183.7890  177.6460  140.2700 C   0  0  0  0  0  3  0  0  0  0  0  0
  184.1500  178.5530  142.4950 C   0  0  0  0  0  0  0  0  0  0  0  0
  183.4930  177.6640  141.6330 C   0  0  0  0  0  3  0  0  0  0  0  0
  190.2250  176.3030  144.3060 C   0  0  0  0  0  2  0  0  0  0  0  0
  190.6330  176.1530  142.8440 C   0  0  0  0  0  2  0  0  0  0  0  0
  191.6580  177.2020  142.4320 C   0  0  0  0  0  2  0  0  0  0  0  0
  191.5380  177.5090  141.0090 N   0  0  0  0  0  2  0  0  0  0  0  0
  190.1370  177.4580  140.5730 C   0  0  1  0  0  3  0  0  0  0  0  0
  189.3680  178.4550  141.1540 F   0  0  0  0  0  0  0  0  0  0  0  0
  189.0340  177.8630  136.1300 C   0  0  0  0  0  2  0  0  0  0  0  0
  189.0420  178.9030  137.2460 C   0  0  0  0  0  2  0  0  0  0  0  0
  188.7800  178.2630  138.6070 C   0  0  0  0  0  2  0  0  0  0  0  0
  189.9840  177.4310  139.0510 C   0  0  2  0  0  3  0  0  0  0  0  0
  189.9830  176.0000  138.4900 C   0  0  0  0  0  2  0  0  0  0  0  0
  189.5710  175.9050  137.0200 C   0  0  0  0  0  2  0  0  0  0  0  0
  190.1000  176.9690  136.2820 O   0  0  0  0  0  0  0  0  0  0  0  0
  1  7  2  0  0  0  0
  2  4  1  0  0  0  0
  3  5  2  0  0  0  0
  4 10  2  0  0  0  0
  4 11  1  0  0  0  0
  5  1  1  0  0  0  0
  5 10  1  0  0  0  0
  6  8  2  0  0  0  0
  6  9  1  0  0  0  0
  7  8  1  0  0  0  0
 10  6  1  0  0  0  0
 11  9  2  0  0  0  0
 12  3  1  0  0  0  0
 12  2  2  0  0  0  0
 13 14  2  0  0  0  0
 13  1  1  0  0  0  0
 15 17  1  0  0  0  0
 16 20  1  0  0  0  0
 16 15  2  0  0  0  0
 17 21  2  0  0  0  0
 17 18  1  0  0  0  0
 19 16  1  0  0  0  0
 20 22  2  0  0  0  0
 21 13  1  0  0  0  0
 22 21  1  0  0  0  0
 23  2  1  0  0  0  0
 24 23  1  0  0  0  0
 25 24  1  0  0  0  0
 26 25  1  0  0  0  0
 27 26  1  0  0  0  0
 27 28  1  6  0  0  0
 29 35  1  0  0  0  0
 29 30  1  0  0  0  0
 30 31  1  0  0  0  0
 31 32  1  0  0  0  0
 32 27  1  1  0  0  0
 33 32  1  0  0  0  0
 34 33  1  0  0  0  0
 35 34  1  0  0  0  0
M  END
>  <MODEL>
6

>  <REMARK>
 VINA RESULT:      -9.0      2.208      2.975
  Name = 
  8 active torsions:
  status: ('A' for Active; 'I' for Inactive)
    1  A    between atoms: C_2  and  C_3
    2  A    between atoms: C_3  and  C_28
    3  A    between atoms: C_4  and  C_10
    4  A    between atoms: N_9  and  C_19
    5  A    between atoms: N_9  and  C_34
    6  A    between atoms: C_10  and  C_33
    7  A    between atoms: C_19  and  C_25
    8  A    between atoms: C_33  and  C_34
                            x       y       z     vdW  Elec       q    Type
                         _______ _______ _______ _____ _____    ______ ____

>  <TORSDO>
F 8

$$$$
=
 OpenBabel11062413473D

 35 39  0  0  1  0  0  0  0  0999 V2000
  181.9340  178.7640  141.8680 C   0  0  0  0  0  0  0  0  0  0  0  0
  186.1560  178.3920  142.3410 C   0  0  0  0  0  0  0  0  0  0  0  0
  184.2170  178.4350  140.8070 C   0  0  0  0  0  3  0  0  0  0  0  0
  185.2570  178.5770  143.3980 C   0  0  0  0  0  0  0  0  0  0  0  0
  183.3480  178.6320  141.9020 C   0  0  0  0  0  0  0  0  0  0  0  0
  183.2780  178.8610  144.2920 C   0  0  0  0  0  0  0  0  0  0  0  0
  181.2500  178.9540  143.1110 C   0  0  0  0  0  3  0  0  0  0  0  0
  181.9280  178.9980  144.3070 N   0  0  0  0  0  0  0  0  0  0  0  0
  184.1850  178.8750  145.3940 N   0  0  0  0  0  0  0  0  0  0  0  0
  183.9400  178.6870  143.1420 C   0  0  0  0  0  0  0  0  0  0  0  0
  185.3740  178.7060  144.8650 C   0  0  0  0  0  3  0  0  0  0  0  0
  185.6170  178.3170  141.0290 C   0  0  0  0  0  3  0  0  0  0  0  0
  181.1710  178.7550  140.5930 C   0  0  0  0  0  0  0  0  0  0  0  0
  180.7940  177.6510  140.1160 O   0  0  0  0  0  0  0  0  0  0  0  0
  181.2420  181.5660  138.0830 N   0  0  0  0  0  0  0  0  0  0  0  0
  180.1760  182.3210  138.4590 C   0  0  0  0  0  0  0  0  0  0  0  0
  181.5880  180.4290  138.7470 C   0  0  0  0  0  0  0  0  0  0  0  0
  182.6710  179.7290  138.3260 F   0  0  0  0  0  0  0  0  0  0  0  0
  179.8370  183.5550  137.7040 C   0  0  0  0  0  1  0  0  0  0  0  0
  179.4010  181.9390  139.5530 C   0  0  0  0  0  3  0  0  0  0  0  0
  180.8390  180.0050  139.8630 C   0  0  0  0  0  0  0  0  0  0  0  0
  179.7350  180.7780  140.2500 C   0  0  0  0  0  3  0  0  0  0  0  0
  187.6290  178.2870  142.5650 C   0  0  0  0  0  2  0  0  0  0  0  0
  188.3270  177.5810  141.4070 C   0  0  0  0  0  2  0  0  0  0  0  0
  189.8410  177.5760  141.5770 C   0  0  0  0  0  2  0  0  0  0  0  0
  190.2550  176.5000  142.4730 N   0  0  0  0  0  2  0  0  0  0  0  0
  191.1930  176.9900  143.4910 C   0  0  1  0  0  3  0  0  0  0  0  0
  191.6490  178.2710  143.2130 F   0  0  0  0  0  0  0  0  0  0  0  0
  189.2150  177.3740  147.6220 C   0  0  0  0  0  2  0  0  0  0  0  0
  188.6890  177.7330  146.2360 C   0  0  0  0  0  2  0  0  0  0  0  0
  189.8240  178.1100  145.2880 C   0  0  0  0  0  2  0  0  0  0  0  0
  190.6460  176.8750  144.9150 C   0  0  2  0  0  3  0  0  0  0  0  0
  191.7450  176.5370  145.9350 C   0  0  0  0  0  2  0  0  0  0  0  0
  191.3050  176.6700  147.3940 C   0  0  0  0  0  2  0  0  0  0  0  0
  189.9950  176.2120  147.5660 O   0  0  0  0  0  0  0  0  0  0  0  0
  1  5  1  0  0  0  0
  1  7  2  0  0  0  0
  2 23  1  0  0  0  0
  2  4  1  0  0  0  0
  3 12  1  0  0  0  0
  3  5  2  0  0  0  0
  4 11  1  0  0  0  0
  5 10  1  0  0  0  0
  6  8  2  0  0  0  0
  6  9  1  0  0  0  0
  7  8  1  0  0  0  0
 10  4  2  0  0  0  0
 10  6  1  0  0  0  0
 11  9  2  0  0  0  0
 12  2  2  0  0  0  0
 13  1  1  0  0  0  0
 14 13  2  0  0  0  0
 15 16  2  0  0  0  0
 15 17  1  0  0  0  0
 16 20  1  0  0  0  0
 17 21  2  0  0  0  0
 18 17  1  0  0  0  0
 19 16  1  0  0  0  0
 20 22  2  0  0  0  0
 21 22  1  0  0  0  0
 21 13  1  0  0  0  0
 24 25  1  0  0  0  0
 24 23  1  0  0  0  0
 25 26  1  0  0  0  0
 26 27  1  0  0  0  0
 27 28  1  6  0  0  0
 30 29  1  0  0  0  0
 31 30  1  0  0  0  0
 32 27  1  6  0  0  0
 32 31  1  0  0  0  0
 32 33  1  0  0  0  0
 33 34  1  0  0  0  0
 34 35  1  0  0  0  0
 35 29  1  0  0  0  0
M  END
>  <MODEL>
7

>  <REMARK>
 VINA RESULT:      -9.0      2.857      4.779
  Name = 
  8 active torsions:
  status: ('A' for Active; 'I' for Inactive)
    1  A    between atoms: C_2  and  C_3
    2  A    between atoms: C_3  and  C_28
    3  A    between atoms: C_4  and  C_10
    4  A    between atoms: N_9  and  C_19
    5  A    between atoms: N_9  and  C_34
    6  A    between atoms: C_10  and  C_33
    7  A    between atoms: C_19  and  C_25
    8  A    between atoms: C_33  and  C_34
                            x       y       z     vdW  Elec       q    Type
                         _______ _______ _______ _____ _____    ______ ____

>  <TORSDO>
F 8

$$$$
=
 OpenBabel11062413473D

 35 39  0  0  1  0  0  0  0  0999 V2000
  185.3750  178.1130  138.2380 C   0  0  0  0  0  0  0  0  0  0  0  0
  184.3680  178.6540  142.3460 C   0  0  0  0  0  0  0  0  0  0  0  0
  186.1260  178.6290  140.6070 C   0  0  0  0  0  3  0  0  0  0  0  0
  183.4450  178.3360  141.3430 C   0  0  0  0  0  0  0  0  0  0  0  0
  185.1590  178.3200  139.6260 C   0  0  0  0  0  0  0  0  0  0  0  0
  182.8190  177.8940  139.2910 C   0  0  0  0  0  0  0  0  0  0  0  0
  184.2390  177.8030  137.4230 C   0  0  0  0  0  3  0  0  0  0  0  0
  182.9770  177.6950  137.9580 N   0  0  0  0  0  0  0  0  0  0  0  0
  181.6190  177.8370  140.0620 N   0  0  0  0  0  0  0  0  0  0  0  0
  183.8650  178.1890  140.0720 C   0  0  0  0  0  0  0  0  0  0  0  0
  181.9870  178.1020  141.2940 C   0  0  0  0  0  3  0  0  0  0  0  0
  185.7280  178.7970  141.9620 C   0  0  0  0  0  3  0  0  0  0  0  0
  186.7190  178.2550  137.6180 C   0  0  0  0  0  0  0  0  0  0  0  0
  187.0850  179.3890  137.2090 O   0  0  0  0  0  0  0  0  0  0  0  0
  189.6280  175.9080  138.1010 N   0  0  0  0  0  0  0  0  0  0  0  0
  189.3460  174.9090  137.2230 C   0  0  0  0  0  0  0  0  0  0  0  0
  188.8130  176.9890  138.2450 C   0  0  0  0  0  0  0  0  0  0  0  0
  189.1600  177.9560  139.1300 F   0  0  0  0  0  0  0  0  0  0  0  0
  190.2650  173.7470  137.1010 C   0  0  0  0  0  1  0  0  0  0  0  0
  188.1970  174.9720  136.4370 C   0  0  0  0  0  3  0  0  0  0  0  0
  187.6430  177.1020  137.4670 C   0  0  0  0  0  0  0  0  0  0  0  0
  187.3470  176.0700  136.5650 C   0  0  0  0  0  3  0  0  0  0  0  0
  183.9540  178.8500  143.7680 C   0  0  0  0  0  2  0  0  0  0  0  0
  185.1040  179.3700  144.6230 C   0  0  0  0  0  2  0  0  0  0  0  0
  185.4450  178.4120  145.7580 C   0  0  0  0  0  2  0  0  0  0  0  0
  186.4000  177.4020  145.3100 N   0  0  0  0  0  2  0  0  0  0  0  0
  187.7650  177.7420  145.7290 C   0  0  1  0  0  3  0  0  0  0  0  0
  188.1140  177.1380  146.9280 F   0  0  0  0  0  0  0  0  0  0  0  0
  190.3420  176.4730  142.1410 C   0  0  0  0  0  2  0  0  0  0  0  0
  188.8500  176.7800  142.2290 C   0  0  0  0  0  2  0  0  0  0  0  0
  188.2970  176.4710  143.6180 C   0  0  0  0  0  2  0  0  0  0  0  0
  188.8070  177.4900  144.6370 C   0  0  2  0  0  3  0  0  0  0  0  0
  190.1870  177.1410  145.2190 C   0  0  0  0  0  2  0  0  0  0  0  0
  191.1890  176.6250  144.1840 C   0  0  0  0  0  2  0  0  0  0  0  0
  191.0700  177.3260  142.9800 O   0  0  0  0  0  0  0  0  0  0  0  0
  1  5  1  0  0  0  0
  2 23  1  0  0  0  0
  3 12  2  0  0  0  0
  4  2  2  0  0  0  0
  5 10  2  0  0  0  0
  5  3  1  0  0  0  0
  6  9  1  0  0  0  0
  6 10  1  0  0  0  0
  7  8  1  0  0  0  0
  7  1  2  0  0  0  0
  8  6  2  0  0  0  0
  9 11  2  0  0  0  0
 10  4  1  0  0  0  0
 11  4  1  0  0  0  0
 12  2  1  0  0  0  0
 13  1  1  0  0  0  0
 14 13  2  0  0  0  0
 15 17  1  0  0  0  0
 16 15  2  0  0  0  0
 17 18  1  0  0  0  0
 19 16  1  0  0  0  0
 20 22  2  0  0  0  0
 20 16  1  0  0  0  0
 21 13  1  0  0  0  0
 21 17  2  0  0  0  0
 22 21  1  0  0  0  0
 23 24  1  0  0  0  0
 24 25  1  0  0  0  0
 26 27  1  0  0  0  0
 26 25  1  0  0  0  0
 27 28  1  1  0  0  0
 29 30  1  0  0  0  0
 29 35  1  0  0  0  0
 30 31  1  0  0  0  0
 31 32  1  0  0  0  0
 32 33  1  0  0  0  0
 32 27  1  1  0  0  0
 34 33  1  0  0  0  0
 35 34  1  0  0  0  0
M  END
>  <MODEL>
8

>  <REMARK>
 VINA RESULT:      -8.8      2.572      6.224
  Name = 
  8 active torsions:
  status: ('A' for Active; 'I' for Inactive)
    1  A    between atoms: C_2  and  C_3
    2  A    between atoms: C_3  and  C_28
    3  A    between atoms: C_4  and  C_10
    4  A    between atoms: N_9  and  C_19
    5  A    between atoms: N_9  and  C_34
    6  A    between atoms: C_10  and  C_33
    7  A    between atoms: C_19  and  C_25
    8  A    between atoms: C_33  and  C_34
                            x       y       z     vdW  Elec       q    Type
                         _______ _______ _______ _____ _____    ______ ____

>  <TORSDO>
F 8

$$$$
=
 OpenBabel11062413473D

 35 39  0  0  1  0  0  0  0  0999 V2000
  181.7700  178.7860  142.0710 C   0  0  0  0  0  0  0  0  0  0  0  0
  186.0030  178.3550  142.3440 C   0  0  0  0  0  0  0  0  0  0  0  0
  183.9950  178.4260  140.9040 C   0  0  0  0  0  3  0  0  0  0  0  0
  185.1580  178.5530  143.4430 C   0  0  0  0  0  0  0  0  0  0  0  0
  183.1810  178.6340  142.0380 C   0  0  0  0  0  0  0  0  0  0  0  0
  183.2270  178.8630  144.4290 C   0  0  0  0  0  0  0  0  0  0  0  0
  181.1480  178.9850  143.3450 C   0  0  0  0  0  3  0  0  0  0  0  0
  181.8810  179.0190  144.5080 N   0  0  0  0  0  0  0  0  0  0  0  0
  184.1850  178.8640  145.4870 N   0  0  0  0  0  0  0  0  0  0  0  0
  183.8320  178.6800  143.2490 C   0  0  0  0  0  0  0  0  0  0  0  0
  185.3450  178.6790  144.9030 C   0  0  0  0  0  3  0  0  0  0  0  0
  185.4020  178.2890  141.0600 C   0  0  0  0  0  3  0  0  0  0  0  0
  180.9470  178.7880  140.8330 C   0  0  0  0  0  0  0  0  0  0  0  0
  180.5970  179.8920  140.3350 O   0  0  0  0  0  0  0  0  0  0  0  0
  180.6790  175.9700  138.3440 N   0  0  0  0  0  0  0  0  0  0  0  0
  179.7780  175.1420  138.9360 C   0  0  0  0  0  0  0  0  0  0  0  0
  181.0660  177.1410  138.9210 C   0  0  0  0  0  0  0  0  0  0  0  0
  181.9610  177.9260  138.2710 F   0  0  0  0  0  0  0  0  0  0  0  0
  179.3850  173.8740  138.2680 C   0  0  0  0  0  1  0  0  0  0  0  0
  179.2210  175.4820  140.1670 C   0  0  0  0  0  3  0  0  0  0  0  0
  180.5260  177.5310  140.1630 C   0  0  0  0  0  0  0  0  0  0  0  0
  179.6010  176.6760  140.7780 C   0  0  0  0  0  3  0  0  0  0  0  0
  187.4830  178.2300  142.4990 C   0  0  0  0  0  2  0  0  0  0  0  0
  188.1910  178.1990  141.1490 C   0  0  0  0  0  2  0  0  0  0  0  0
  189.5790  177.5800  141.2510 C   0  0  0  0  0  2  0  0  0  0  0  0
  189.6390  176.6280  142.3560 N   0  0  0  0  0  2  0  0  0  0  0  0
  190.7830  176.9070  143.2330 C   0  0  1  0  0  3  0  0  0  0  0  0
  191.4220  178.0930  142.9050 F   0  0  0  0  0  0  0  0  0  0  0  0
  189.3830  177.4500  147.5780 C   0  0  0  0  0  2  0  0  0  0  0  0
  188.6870  177.7920  146.2640 C   0  0  0  0  0  2  0  0  0  0  0  0
  189.6970  178.1110  145.1640 C   0  0  0  0  0  2  0  0  0  0  0  0
  190.4270  176.8430  144.7210 C   0  0  2  0  0  3  0  0  0  0  0  0
  191.6420  176.4950  145.5950 C   0  0  0  0  0  2  0  0  0  0  0  0
  191.4040  176.6760  147.0960 C   0  0  0  0  0  2  0  0  0  0  0  0
  190.1160  176.2640  147.4520 O   0  0  0  0  0  0  0  0  0  0  0  0
  1  7  2  0  0  0  0
  2 23  1  0  0  0  0
  2  4  1  0  0  0  0
  3 12  1  0  0  0  0
  3  5  2  0  0  0  0
  4 11  1  0  0  0  0
  5  1  1  0  0  0  0
  5 10  1  0  0  0  0
  6  8  2  0  0  0  0
  6  9  1  0  0  0  0
  7  8  1  0  0  0  0
 10  4  2  0  0  0  0
 10  6  1  0  0  0  0
 11  9  2  0  0  0  0
 12  2  2  0  0  0  0
 13  1  1  0  0  0  0
 14 13  2  0  0  0  0
 15 17  2  0  0  0  0
 15 16  1  0  0  0  0
 16 20  2  0  0  0  0
 17 21  1  0  0  0  0
 18 17  1  0  0  0  0
 19 16  1  0  0  0  0
 20 22  1  0  0  0  0
 21 22  2  0  0  0  0
 21 13  1  0  0  0  0
 24 25  1  0  0  0  0
 24 23  1  0  0  0  0
 25 26  1  0  0  0  0
 26 27  1  0  0  0  0
 27 28  1  6  0  0  0
 30 29  1  0  0  0  0
 31 30  1  0  0  0  0
 32 27  1  6  0  0  0
 32 31  1  0  0  0  0
 32 33  1  0  0  0  0
 33 34  1  0  0  0  0
 34 35  1  0  0  0  0
 35 29  1  0  0  0  0
M  END
>  <MODEL>
9

>  <REMARK>
 VINA RESULT:      -8.8      2.373      4.263
  Name = 
  8 active torsions:
  status: ('A' for Active; 'I' for Inactive)
    1  A    between atoms: C_2  and  C_3
    2  A    between atoms: C_3  and  C_28
    3  A    between atoms: C_4  and  C_10
    4  A    between atoms: N_9  and  C_19
    5  A    between atoms: N_9  and  C_34
    6  A    between atoms: C_10  and  C_33
    7  A    between atoms: C_19  and  C_25
    8  A    between atoms: C_33  and  C_34
                            x       y       z     vdW  Elec       q    Type
                         _______ _______ _______ _____ _____    ______ ____

>  <TORSDO>
F 8

$$$$
