=
 OpenBabel11062412263D

 37 42  0  0  1  0  0  0  0  0999 V2000
  180.3160  177.6760  141.1980 C   0  0  0  0  0  0  0  0  0  0  0  0
  179.4220  178.1630  142.0980 N   0  0  0  0  0  0  0  0  0  0  0  0
  179.8050  178.9430  143.1410 C   0  0  0  0  0  3  0  0  0  0  0  0
  181.6820  178.0100  141.3050 C   0  0  0  0  0  0  0  0  0  0  0  0
  179.8560  176.8130  140.1620 N   0  0  0  0  0  1  0  0  0  0  0  0
  182.1000  178.7600  142.4240 C   0  0  0  0  0  0  0  0  0  0  0  0
  181.1510  179.2430  143.3280 C   0  0  0  0  0  3  0  0  0  0  0  0
  182.8600  177.3880  140.0730 S   0  0  0  0  0  0  0  0  0  0  0  0
  180.9850  178.6940  136.5510 C   0  0  0  0  0  2  0  0  0  0  0  0
  182.0270  179.7540  139.0160 C   0  0  0  0  0  3  0  0  0  0  0  0
  181.1630  174.6270  137.9920 O   0  0  0  0  0  0  0  0  0  0  0  0
  184.4620  177.0980  137.0940 C   0  0  0  0  0  2  0  0  0  0  0  0
  182.1990  175.2410  137.6290 C   0  0  0  0  0  0  0  0  0  0  0  0
  181.4180  180.6490  138.0080 C   0  0  0  0  0  3  0  0  0  0  0  0
  180.9670  180.1700  136.8460 C   0  0  0  0  0  3  0  0  0  0  0  0
  182.4040  178.5030  138.7170 C   0  0  0  0  0  0  0  0  0  0  0  0
  182.1440  176.5450  137.0930 N   0  0  0  0  0  0  0  0  0  0  0  0
  183.1150  177.4940  136.4740 C   0  0  1  0  0  3  0  0  0  0  0  0
  183.5740  174.6670  137.7870 C   0  0  0  0  0  2  0  0  0  0  0  0
  185.6640  175.0820  136.7510 O   0  0  0  0  0  0  0  0  0  0  0  0
  182.1380  178.0220  137.2930 C   0  0  1  0  0  0  0  0  0  0  0  0
  184.6280  175.5790  137.1580 C   0  0  0  0  0  0  0  0  0  0  0  0
  183.8280  179.0450  142.8010 S   0  0  0  0  0  0  0  0  0  0  0  0
  183.6130  178.7090  144.5770 C   0  0  0  0  0  2  0  0  0  0  0  0
  184.6650  179.3630  145.3360 N   0  0  0  0  0  2  0  0  0  0  0  0
  186.0250  179.0040  147.3070 C   0  0  0  0  0  1  0  0  0  0  0  0
  185.3080  178.3440  146.1460 C   0  0  2  0  0  3  0  0  0  0  0  0
  186.3040  177.5710  145.2980 C   0  0  0  0  0  2  0  0  0  0  0  0
  187.6030  177.9910  145.5910 O   0  0  0  0  0  0  0  0  0  0  0  0
  188.8950  177.4400  142.5470 C   0  0  2  0  0  0  0  0  0  0  0  0
  189.7170  177.7150  144.7040 O   0  0  0  0  0  0  0  0  0  0  0  0
  191.0820  178.4070  142.9490 O   0  0  0  0  0  0  0  0  0  0  0  0
  188.8550  177.4140  141.0710 C   0  0  0  0  0  2  0  0  0  0  0  0
  190.0050  177.9090  143.3720 C   0  0  0  0  0  0  0  0  0  0  0  0
  187.8410  176.8800  143.4740 C   0  0  0  0  0  2  0  0  0  0  0  0
  188.3590  178.5070  141.8050 O   0  0  0  0  0  0  0  0  0  0  0  0
  188.4300  177.1190  144.8830 C   0  0  2  0  0  3  0  0  0  0  0  0
  1  4  2  0  0  0  0
  1  2  1  0  0  0  0
  2  3  2  0  0  0  0
  3  7  1  0  0  0  0
  4  6  1  0  0  0  0
  5  1  1  0  0  0  0
  6 23  1  0  0  0  0
  6  7  2  0  0  0  0
  8  4  1  0  0  0  0
  9 15  1  0  0  0  0
 12 22  1  0  0  0  0
 13 19  1  0  0  0  0
 13 11  2  0  0  0  0
 14 10  1  0  0  0  0
 15 14  2  0  0  0  0
 16 10  2  0  0  0  0
 16  8  1  0  0  0  0
 17 21  1  0  0  0  0
 17 13  1  0  0  0  0
 18 17  1  0  0  0  0
 18 12  1  1  0  0  0
 18 21  1  0  0  0  0
 20 22  2  0  0  0  0
 21  9  1  6  0  0  0
 21 16  1  0  0  0  0
 22 19  1  0  0  0  0
 23 24  1  0  0  0  0
 24 25  1  0  0  0  0
 25 27  1  0  0  0  0
 27 26  1  1  0  0  0
 28 29  1  0  0  0  0
 28 27  1  0  0  0  0
 30 33  1  6  0  0  0
 30 34  1  0  0  0  0
 30 35  1  0  0  0  0
 31 37  1  0  0  0  0
 32 34  2  0  0  0  0
 33 36  1  0  0  0  0
 34 31  1  0  0  0  0
 35 37  1  0  0  0  0
 36 30  1  0  0  0  0
 37 29  1  1  0  0  0
M  END
>  <MODEL>
1

>  <REMARK>
 VINA RESULT:      -7.1      0.000      0.000
  Name = 
  9 active torsions:
  status: ('A' for Active; 'I' for Inactive)
    1  A    between atoms: N_10  and  C_28
    2  A    between atoms: N_10  and  C_30
    3  A    between atoms: C_15  and  O_16
    4  A    between atoms: C_15  and  C_30
    5  A    between atoms: O_16  and  C_34
    6  A    between atoms: C_18  and  S_20
    7  A    between atoms: S_20  and  C_26
    8  A    between atoms: S_22  and  C_28
    9  A    between atoms: S_22  and  C_29
                            x       y       z     vdW  Elec       q    Type
                         _______ _______ _______ _____ _____    ______ ____

>  <TORSDO>
F 9

$$$$
=
 OpenBabel11062412263D

 37 42  0  0  1  0  0  0  0  0999 V2000
  188.3150  177.7460  137.2890 C   0  0  0  0  0  0  0  0  0  0  0  0
  189.4350  177.9080  138.0430 N   0  0  0  0  0  0  0  0  0  0  0  0
  189.3720  178.1840  139.3710 C   0  0  0  0  0  3  0  0  0  0  0  0
  187.0410  177.8200  137.8870 C   0  0  0  0  0  0  0  0  0  0  0  0
  188.4510  177.5190  135.8880 N   0  0  0  0  0  1  0  0  0  0  0  0
  186.9640  178.1750  139.2500 C   0  0  0  0  0  0  0  0  0  0  0  0
  188.1360  178.3340  139.9920 C   0  0  0  0  0  3  0  0  0  0  0  0
  185.5560  177.5600  136.8790 S   0  0  0  0  0  0  0  0  0  0  0  0
  184.1260  173.6450  136.3720 C   0  0  0  0  0  2  0  0  0  0  0  0
  186.4900  175.0300  137.2520 C   0  0  0  0  0  3  0  0  0  0  0  0
  182.4160  177.2280  134.6720 O   0  0  0  0  0  0  0  0  0  0  0  0
  182.9740  176.4400  138.7790 C   0  0  0  0  0  2  0  0  0  0  0  0
  182.4240  177.0290  135.9140 C   0  0  0  0  0  0  0  0  0  0  0  0
  186.4410  173.5530  137.2460 C   0  0  0  0  0  3  0  0  0  0  0  0
  185.3350  172.9020  136.8740 C   0  0  0  0  0  3  0  0  0  0  0  0
  185.3800  175.7770  137.1610 C   0  0  0  0  0  0  0  0  0  0  0  0
  182.9180  175.8330  136.4740 N   0  0  0  0  0  0  0  0  0  0  0  0
  182.9730  175.2270  137.8370 C   0  0  1  0  0  3  0  0  0  0  0  0
  181.9650  178.0610  136.8990 C   0  0  0  0  0  2  0  0  0  0  0  0
  181.2060  177.9780  139.1410 O   0  0  0  0  0  0  0  0  0  0  0  0
  184.0570  175.0320  137.0070 C   0  0  1  0  0  0  0  0  0  0  0  0
  181.9770  177.5070  138.3230 C   0  0  0  0  0  0  0  0  0  0  0  0
  185.4100  178.5340  140.0650 S   0  0  0  0  0  0  0  0  0  0  0  0
  186.2090  179.0100  141.6290 C   0  0  0  0  0  2  0  0  0  0  0  0
  185.2010  179.3510  142.6180 N   0  0  0  0  0  2  0  0  0  0  0  0
  185.1600  179.0870  145.0260 C   0  0  0  0  0  1  0  0  0  0  0  0
  185.3070  178.3790  143.6930 C   0  0  2  0  0  3  0  0  0  0  0  0
  186.6560  177.6860  143.6240 C   0  0  0  0  0  2  0  0  0  0  0  0
  187.3470  177.8730  144.8230 O   0  0  0  0  0  0  0  0  0  0  0  0
  190.3300  177.0690  143.5210 C   0  0  2  0  0  0  0  0  0  0  0  0
  189.4230  177.2900  145.6490 O   0  0  0  0  0  0  0  0  0  0  0  0
  191.6940  177.7440  145.4070 O   0  0  0  0  0  0  0  0  0  0  0  0
  191.3350  177.0070  142.4410 C   0  0  0  0  0  2  0  0  0  0  0  0
  190.5840  177.4060  144.9180 C   0  0  0  0  0  0  0  0  0  0  0  0
  188.8740  176.6820  143.4010 C   0  0  0  0  0  2  0  0  0  0  0  0
  190.5970  178.1770  142.6980 O   0  0  0  0  0  0  0  0  0  0  0  0
  188.3250  176.8780  144.8320 C   0  0  2  0  0  3  0  0  0  0  0  0
  1  4  2  0  0  0  0
  1  2  1  0  0  0  0
  2  3  2  0  0  0  0
  3  7  1  0  0  0  0
  4  6  1  0  0  0  0
  5  1  1  0  0  0  0
  6  7  2  0  0  0  0
  6 23  1  0  0  0  0
  8 16  1  0  0  0  0
  8  4  1  0  0  0  0
  9 15  1  0  0  0  0
 11 13  2  0  0  0  0
 13 17  1  0  0  0  0
 13 19  1  0  0  0  0
 14 10  1  0  0  0  0
 15 14  2  0  0  0  0
 16 10  2  0  0  0  0
 17 21  1  0  0  0  0
 17 18  1  0  0  0  0
 18 12  1  1  0  0  0
 19 22  1  0  0  0  0
 21  9  1  6  0  0  0
 21 16  1  0  0  0  0
 21 18  1  0  0  0  0
 22 12  1  0  0  0  0
 22 20  2  0  0  0  0
 23 24  1  0  0  0  0
 24 25  1  0  0  0  0
 25 27  1  0  0  0  0
 27 26  1  1  0  0  0
 28 27  1  0  0  0  0
 28 29  1  0  0  0  0
 30 33  1  6  0  0  0
 30 34  1  0  0  0  0
 33 36  1  0  0  0  0
 34 32  2  0  0  0  0
 34 31  1  0  0  0  0
 35 30  1  0  0  0  0
 35 37  1  0  0  0  0
 36 30  1  0  0  0  0
 37 29  1  6  0  0  0
 37 31  1  0  0  0  0
M  END
>  <MODEL>
2

>  <REMARK>
 VINA RESULT:      -6.9      2.664      5.165
  Name = 
  9 active torsions:
  status: ('A' for Active; 'I' for Inactive)
    1  A    between atoms: N_10  and  C_28
    2  A    between atoms: N_10  and  C_30
    3  A    between atoms: C_15  and  O_16
    4  A    between atoms: C_15  and  C_30
    5  A    between atoms: O_16  and  C_34
    6  A    between atoms: C_18  and  S_20
    7  A    between atoms: S_20  and  C_26
    8  A    between atoms: S_22  and  C_28
    9  A    between atoms: S_22  and  C_29
                            x       y       z     vdW  Elec       q    Type
                         _______ _______ _______ _____ _____    ______ ____

>  <TORSDO>
F 9

$$$$
=
 OpenBabel11062412263D

 37 42  0  0  1  0  0  0  0  0999 V2000
  182.4620  178.4780  141.8160 C   0  0  0  0  0  0  0  0  0  0  0  0
  182.6650  179.0110  143.0500 N   0  0  0  0  0  0  0  0  0  0  0  0
  183.8840  179.4580  143.4470 C   0  0  0  0  0  3  0  0  0  0  0  0
  183.5220  178.4130  140.8890 C   0  0  0  0  0  0  0  0  0  0  0  0
  181.1720  177.9710  141.4850 N   0  0  0  0  0  1  0  0  0  0  0  0
  184.8070  178.8090  141.3160 C   0  0  0  0  0  0  0  0  0  0  0  0
  184.9760  179.3520  142.5910 C   0  0  0  0  0  3  0  0  0  0  0  0
  183.2280  177.7380  139.2310 S   0  0  0  0  0  0  0  0  0  0  0  0
  180.1070  180.2440  137.9650 C   0  0  0  0  0  2  0  0  0  0  0  0
  182.8200  180.4100  138.9100 C   0  0  0  0  0  3  0  0  0  0  0  0
  179.7430  176.1010  139.1310 O   0  0  0  0  0  0  0  0  0  0  0  0
  182.1520  177.6100  136.0130 C   0  0  0  0  0  2  0  0  0  0  0  0
  180.3870  176.4410  138.1060 C   0  0  0  0  0  0  0  0  0  0  0  0
  182.0660  181.6340  138.5640 C   0  0  0  0  0  3  0  0  0  0  0  0
  180.8200  181.5640  138.0890 C   0  0  0  0  0  3  0  0  0  0  0  0
  182.4160  179.1940  138.5170 C   0  0  0  0  0  0  0  0  0  0  0  0
  180.4550  177.7840  137.6780 N   0  0  0  0  0  0  0  0  0  0  0  0
  181.0040  178.5080  136.4940 C   0  0  1  0  0  3  0  0  0  0  0  0
  181.1780  175.4650  137.2890 C   0  0  0  0  0  2  0  0  0  0  0  0
  181.9800  175.4450  135.0600 O   0  0  0  0  0  0  0  0  0  0  0  0
  181.1130  179.1210  137.7260 C   0  0  1  0  0  0  0  0  0  0  0  0
  181.7610  176.1310  136.0430 C   0  0  0  0  0  0  0  0  0  0  0  0
  186.2740  178.5540  140.3200 S   0  0  0  0  0  0  0  0  0  0  0  0
  187.3450  178.2790  141.7650 C   0  0  0  0  0  2  0  0  0  0  0  0
  188.7030  178.6990  141.4620 N   0  0  0  0  0  2  0  0  0  0  0  0
  190.1120  176.9400  140.5750 C   0  0  0  0  0  1  0  0  0  0  0  0
  189.5840  177.6050  141.8310 C   0  0  2  0  0  3  0  0  0  0  0  0
  188.8200  176.5930  142.6670 C   0  0  0  0  0  2  0  0  0  0  0  0
  189.6510  176.0760  143.6620 O   0  0  0  0  0  0  0  0  0  0  0  0
  189.7530  177.4530  146.7170 C   0  0  2  0  0  0  0  0  0  0  0  0
  191.2960  176.8450  145.0890 O   0  0  0  0  0  0  0  0  0  0  0  0
  191.9980  176.7550  147.3070 O   0  0  0  0  0  0  0  0  0  0  0  0
  189.1950  177.7900  148.0420 C   0  0  0  0  0  2  0  0  0  0  0  0
  191.1090  176.9870  146.4460 C   0  0  0  0  0  0  0  0  0  0  0  0
  189.0580  177.6390  145.3880 C   0  0  0  0  0  2  0  0  0  0  0  0
  189.0600  176.5040  147.4880 O   0  0  0  0  0  0  0  0  0  0  0  0
  190.1190  177.1920  144.3560 C   0  0  2  0  0  3  0  0  0  0  0  0
  1  2  1  0  0  0  0
  2  3  2  0  0  0  0
  4  6  1  0  0  0  0
  4  1  2  0  0  0  0
  5  1  1  0  0  0  0
  6  7  2  0  0  0  0
  7  3  1  0  0  0  0
  8  4  1  0  0  0  0
  9 15  1  0  0  0  0
 12 22  1  0  0  0  0
 13 11  2  0  0  0  0
 14 10  1  0  0  0  0
 15 14  2  0  0  0  0
 16 10  2  0  0  0  0
 16  8  1  0  0  0  0
 17 21  1  0  0  0  0
 17 13  1  0  0  0  0
 18 12  1  1  0  0  0
 18 17  1  0  0  0  0
 18 21  1  0  0  0  0
 19 13  1  0  0  0  0
 20 22  2  0  0  0  0
 21  9  1  1  0  0  0
 21 16  1  0  0  0  0
 22 19  1  0  0  0  0
 23  6  1  0  0  0  0
 23 24  1  0  0  0  0
 25 24  1  0  0  0  0
 25 27  1  0  0  0  0
 27 26  1  6  0  0  0
 27 28  1  0  0  0  0
 28 29  1  0  0  0  0
 30 35  1  6  0  0  0
 30 36  1  0  0  0  0
 30 33  1  0  0  0  0
 31 34  1  0  0  0  0
 34 30  1  0  0  0  0
 34 32  2  0  0  0  0
 36 33  1  0  0  0  0
 37 29  1  1  0  0  0
 37 31  1  0  0  0  0
 37 35  1  0  0  0  0
M  END
>  <MODEL>
3

>  <REMARK>
 VINA RESULT:      -6.8      2.215      3.634
  Name = 
  9 active torsions:
  status: ('A' for Active; 'I' for Inactive)
    1  A    between atoms: N_10  and  C_28
    2  A    between atoms: N_10  and  C_30
    3  A    between atoms: C_15  and  O_16
    4  A    between atoms: C_15  and  C_30
    5  A    between atoms: O_16  and  C_34
    6  A    between atoms: C_18  and  S_20
    7  A    between atoms: S_20  and  C_26
    8  A    between atoms: S_22  and  C_28
    9  A    between atoms: S_22  and  C_29
                            x       y       z     vdW  Elec       q    Type
                         _______ _______ _______ _____ _____    ______ ____

>  <TORSDO>
F 9

$$$$
=
 OpenBabel11062412263D

 37 42  0  0  1  0  0  0  0  0999 V2000
  185.2350  178.1800  139.3330 C   0  0  0  0  0  0  0  0  0  0  0  0
  186.4970  178.5760  139.6450 N   0  0  0  0  0  0  0  0  0  0  0  0
  186.8350  178.9730  140.8990 C   0  0  0  0  0  3  0  0  0  0  0  0
  184.2390  178.1330  140.3310 C   0  0  0  0  0  0  0  0  0  0  0  0
  184.9310  177.8340  137.9850 N   0  0  0  0  0  1  0  0  0  0  0  0
  184.5630  178.6110  141.6180 C   0  0  0  0  0  0  0  0  0  0  0  0
  185.8700  179.0090  141.9020 C   0  0  0  0  0  3  0  0  0  0  0  0
  182.5690  177.5640  139.9110 S   0  0  0  0  0  0  0  0  0  0  0  0
  180.0490  180.2000  137.8320 C   0  0  0  0  0  2  0  0  0  0  0  0
  182.5980  180.1820  139.1660 C   0  0  0  0  0  3  0  0  0  0  0  0
  178.9330  176.3680  139.4820 O   0  0  0  0  0  0  0  0  0  0  0  0
  181.9450  177.0630  136.6110 C   0  0  0  0  0  2  0  0  0  0  0  0
  179.7560  176.4620  138.5360 C   0  0  0  0  0  0  0  0  0  0  0  0
  182.0850  181.4190  138.5390 C   0  0  0  0  0  3  0  0  0  0  0  0
  180.9200  181.4270  137.8860 C   0  0  0  0  0  3  0  0  0  0  0  0
  182.0830  178.9770  138.8840 C   0  0  0  0  0  0  0  0  0  0  0  0
  180.0750  177.7020  137.9440 N   0  0  0  0  0  0  0  0  0  0  0  0
  180.8820  178.1590  136.7750 C   0  0  1  0  0  3  0  0  0  0  0  0
  180.5040  175.2800  137.9970 C   0  0  0  0  0  2  0  0  0  0  0  0
  181.5970  174.8130  135.9480 O   0  0  0  0  0  0  0  0  0  0  0  0
  180.9060  178.9390  137.9130 C   0  0  1  0  0  0  0  0  0  0  0  0
  181.3450  175.6660  136.7810 C   0  0  0  0  0  0  0  0  0  0  0  0
  183.3320  178.8270  142.9020 S   0  0  0  0  0  0  0  0  0  0  0  0
  184.5570  179.3330  144.1490 C   0  0  0  0  0  2  0  0  0  0  0  0
  184.0850  178.9830  145.4780 N   0  0  0  0  0  2  0  0  0  0  0  0
  185.7850  179.1810  147.1920 C   0  0  0  0  0  1  0  0  0  0  0  0
  185.1650  178.2770  146.1460 C   0  0  2  0  0  3  0  0  0  0  0  0
  186.2170  177.8710  145.1270 C   0  0  0  0  0  2  0  0  0  0  0  0
  187.4870  178.2090  145.5980 O   0  0  0  0  0  0  0  0  0  0  0  0
  190.4400  177.6960  144.0960 C   0  0  2  0  0  0  0  0  0  0  0  0
  189.3950  176.9880  146.0470 O   0  0  0  0  0  0  0  0  0  0  0  0
  191.7180  177.1490  146.0820 O   0  0  0  0  0  0  0  0  0  0  0  0
  191.5160  178.0160  143.1370 C   0  0  0  0  0  2  0  0  0  0  0  0
  190.6180  177.2670  145.4800 C   0  0  0  0  0  0  0  0  0  0  0  0
  188.9620  177.6440  143.7870 C   0  0  0  0  0  2  0  0  0  0  0  0
  190.9150  179.0090  143.9310 O   0  0  0  0  0  0  0  0  0  0  0  0
  188.3250  177.1990  145.1230 C   0  0  2  0  0  3  0  0  0  0  0  0
  1  2  2  0  0  0  0
  1  4  1  0  0  0  0
  2  3  1  0  0  0  0
  3  7  2  0  0  0  0
  4  6  2  0  0  0  0
  5  1  1  0  0  0  0
  6  7  1  0  0  0  0
  6 23  1  0  0  0  0
  8  4  1  0  0  0  0
  9 15  1  0  0  0  0
 12 22  1  0  0  0  0
 13 11  2  0  0  0  0
 14 10  1  0  0  0  0
 15 14  2  0  0  0  0
 16 10  2  0  0  0  0
 16  8  1  0  0  0  0
 17 13  1  0  0  0  0
 18 12  1  1  0  0  0
 18 21  1  0  0  0  0
 18 17  1  0  0  0  0
 19 13  1  0  0  0  0
 20 22  2  0  0  0  0
 21  9  1  6  0  0  0
 21 17  1  0  0  0  0
 21 16  1  0  0  0  0
 22 19  1  0  0  0  0
 23 24  1  0  0  0  0
 24 25  1  0  0  0  0
 25 27  1  0  0  0  0
 27 26  1  1  0  0  0
 28 29  1  0  0  0  0
 28 27  1  0  0  0  0
 30 33  1  6  0  0  0
 30 34  1  0  0  0  0
 33 36  1  0  0  0  0
 34 31  1  0  0  0  0
 34 32  2  0  0  0  0
 35 30  1  0  0  0  0
 35 37  1  0  0  0  0
 36 30  1  0  0  0  0
 37 29  1  1  0  0  0
 37 31  1  0  0  0  0
M  END
>  <MODEL>
4

>  <REMARK>
 VINA RESULT:      -6.8      2.146      3.068
  Name = 
  9 active torsions:
  status: ('A' for Active; 'I' for Inactive)
    1  A    between atoms: N_10  and  C_28
    2  A    between atoms: N_10  and  C_30
    3  A    between atoms: C_15  and  O_16
    4  A    between atoms: C_15  and  C_30
    5  A    between atoms: O_16  and  C_34
    6  A    between atoms: C_18  and  S_20
    7  A    between atoms: S_20  and  C_26
    8  A    between atoms: S_22  and  C_28
    9  A    between atoms: S_22  and  C_29
                            x       y       z     vdW  Elec       q    Type
                         _______ _______ _______ _____ _____    ______ ____

>  <TORSDO>
F 9

$$$$
=
 OpenBabel11062412263D

 37 42  0  0  1  0  0  0  0  0999 V2000
  187.3020  177.5650  135.4420 C   0  0  0  0  0  0  0  0  0  0  0  0
  188.5340  177.4730  134.8750 N   0  0  0  0  0  0  0  0  0  0  0  0
  189.6660  177.4200  135.6230 C   0  0  0  0  0  3  0  0  0  0  0  0
  187.1660  177.5660  136.8460 C   0  0  0  0  0  0  0  0  0  0  0  0
  186.1580  177.6780  134.6000 N   0  0  0  0  0  1  0  0  0  0  0  0
  188.3390  177.5830  137.6290 C   0  0  0  0  0  0  0  0  0  0  0  0
  189.5870  177.4870  137.0110 C   0  0  0  0  0  3  0  0  0  0  0  0
  185.5140  177.6470  137.5910 S   0  0  0  0  0  0  0  0  0  0  0  0
  183.4730  174.1880  136.3690 C   0  0  0  0  0  2  0  0  0  0  0  0
  186.0930  175.0120  137.2250 C   0  0  0  0  0  3  0  0  0  0  0  0
  182.1530  178.2620  135.8110 O   0  0  0  0  0  0  0  0  0  0  0  0
  182.9990  176.4000  139.5010 C   0  0  0  0  0  2  0  0  0  0  0  0
  182.2570  177.7560  136.9580 C   0  0  0  0  0  0  0  0  0  0  0  0
  185.8250  173.6010  136.8750 C   0  0  0  0  0  3  0  0  0  0  0  0
  184.6020  173.2030  136.5130 C   0  0  0  0  0  3  0  0  0  0  0  0
  185.1040  175.8850  137.4640 C   0  0  0  0  0  0  0  0  0  0  0  0
  182.6210  176.4060  137.1480 N   0  0  0  0  0  0  0  0  0  0  0  0
  182.7220  175.4740  138.3090 C   0  0  1  0  0  3  0  0  0  0  0  0
  182.0590  178.5520  138.2120 C   0  0  0  0  0  2  0  0  0  0  0  0
  181.5260  177.9960  140.4530 O   0  0  0  0  0  0  0  0  0  0  0  0
  183.6760  175.3670  137.3170 C   0  0  1  0  0  0  0  0  0  0  0  0
  182.1320  177.6590  139.4500 C   0  0  0  0  0  0  0  0  0  0  0  0
  188.3080  177.8240  139.4040 S   0  0  0  0  0  0  0  0  0  0  0  0
  190.0830  177.4760  139.5970 C   0  0  0  0  0  2  0  0  0  0  0  0
  190.2760  176.3950  140.5490 N   0  0  0  0  0  2  0  0  0  0  0  0
  191.4890  177.4980  142.3320 C   0  0  0  0  0  1  0  0  0  0  0  0
  190.1440  176.9650  141.8790 C   0  0  2  0  0  3  0  0  0  0  0  0
  189.6610  175.8990  142.8460 C   0  0  0  0  0  2  0  0  0  0  0  0
  188.3390  176.1550  143.2130 O   0  0  0  0  0  0  0  0  0  0  0  0
  186.9600  178.0480  145.6110 C   0  0  2  0  0  0  0  0  0  0  0  0
  189.1090  177.4380  144.9720 O   0  0  0  0  0  0  0  0  0  0  0  0
  188.7530  177.8660  147.2330 O   0  0  0  0  0  0  0  0  0  0  0  0
  185.8450  178.5130  146.4610 C   0  0  0  0  0  2  0  0  0  0  0  0
  188.3270  177.7840  146.0510 C   0  0  0  0  0  0  0  0  0  0  0  0
  186.9190  177.8730  144.1110 C   0  0  0  0  0  2  0  0  0  0  0  0
  186.0720  177.1450  146.2210 O   0  0  0  0  0  0  0  0  0  0  0  0
  188.3590  177.4410  143.7550 C   0  0  2  0  0  3  0  0  0  0  0  0
  1  4  1  0  0  0  0
  2  1  2  0  0  0  0
  2  3  1  0  0  0  0
  3  7  2  0  0  0  0
  4  8  1  0  0  0  0
  4  6  2  0  0  0  0
  5  1  1  0  0  0  0
  6 23  1  0  0  0  0
  7  6  1  0  0  0  0
  9 15  1  0  0  0  0
 10 16  2  0  0  0  0
 11 13  2  0  0  0  0
 13 17  1  0  0  0  0
 13 19  1  0  0  0  0
 14 10  1  0  0  0  0
 15 14  2  0  0  0  0
 16  8  1  0  0  0  0
 17 21  1  0  0  0  0
 17 18  1  0  0  0  0
 18 12  1  1  0  0  0
 19 22  1  0  0  0  0
 21  9  1  6  0  0  0
 21 16  1  0  0  0  0
 21 18  1  0  0  0  0
 22 12  1  0  0  0  0
 22 20  2  0  0  0  0
 23 24  1  0  0  0  0
 24 25  1  0  0  0  0
 25 27  1  0  0  0  0
 27 26  1  1  0  0  0
 27 28  1  0  0  0  0
 28 29  1  0  0  0  0
 30 35  1  6  0  0  0
 30 34  1  0  0  0  0
 30 36  1  0  0  0  0
 30 33  1  0  0  0  0
 31 34  1  0  0  0  0
 34 32  2  0  0  0  0
 36 33  1  0  0  0  0
 37 29  1  1  0  0  0
 37 35  1  0  0  0  0
 37 31  1  0  0  0  0
M  END
>  <MODEL>
5

>  <REMARK>
 VINA RESULT:      -6.6      3.065      6.236
  Name = 
  9 active torsions:
  status: ('A' for Active; 'I' for Inactive)
    1  A    between atoms: N_10  and  C_28
    2  A    between atoms: N_10  and  C_30
    3  A    between atoms: C_15  and  O_16
    4  A    between atoms: C_15  and  C_30
    5  A    between atoms: O_16  and  C_34
    6  A    between atoms: C_18  and  S_20
    7  A    between atoms: S_20  and  C_26
    8  A    between atoms: S_22  and  C_28
    9  A    between atoms: S_22  and  C_29
                            x       y       z     vdW  Elec       q    Type
                         _______ _______ _______ _____ _____    ______ ____

>  <TORSDO>
F 9

$$$$
=
 OpenBabel11062412263D

 37 42  0  0  1  0  0  0  0  0999 V2000
  187.7830  177.7290  136.3540 C   0  0  0  0  0  0  0  0  0  0  0  0
  189.1110  177.4720  136.2170 N   0  0  0  0  0  0  0  0  0  0  0  0
  189.9370  177.3760  137.2910 C   0  0  0  0  0  3  0  0  0  0  0  0
  187.2150  177.8630  137.6370 C   0  0  0  0  0  0  0  0  0  0  0  0
  186.9830  177.8780  135.1840 N   0  0  0  0  0  1  0  0  0  0  0  0
  188.0760  177.8350  138.7540 C   0  0  0  0  0  0  0  0  0  0  0  0
  189.4350  177.5690  138.5750 C   0  0  0  0  0  3  0  0  0  0  0  0
  185.4340  178.1640  137.8070 S   0  0  0  0  0  0  0  0  0  0  0  0
  182.9750  174.8280  137.1380 C   0  0  0  0  0  2  0  0  0  0  0  0
  185.7610  175.4880  137.4270 C   0  0  0  0  0  3  0  0  0  0  0  0
  181.8310  178.9700  136.7090 O   0  0  0  0  0  0  0  0  0  0  0  0
  183.2800  177.1360  140.2210 C   0  0  0  0  0  2  0  0  0  0  0  0
  182.1300  178.4840  137.8290 C   0  0  0  0  0  0  0  0  0  0  0  0
  185.3380  174.0920  137.1880 C   0  0  0  0  0  3  0  0  0  0  0  0
  184.0450  173.7710  137.0900 C   0  0  0  0  0  3  0  0  0  0  0  0
  184.8960  176.4320  137.8260 C   0  0  0  0  0  0  0  0  0  0  0  0
  182.4380  177.1170  137.9910 N   0  0  0  0  0  0  0  0  0  0  0  0
  182.7110  176.2060  139.1410 C   0  0  1  0  0  3  0  0  0  0  0  0
  182.2380  179.3190  139.0690 C   0  0  0  0  0  2  0  0  0  0  0  0
  182.1310  178.8510  141.3890 O   0  0  0  0  0  0  0  0  0  0  0  0
  183.4380  176.0110  137.9840 C   0  0  1  0  0  0  0  0  0  0  0  0
  182.5010  178.4510  140.2990 C   0  0  0  0  0  0  0  0  0  0  0  0
  187.5190  178.2300  140.4100 S   0  0  0  0  0  0  0  0  0  0  0  0
  189.0250  177.5770  141.1950 C   0  0  0  0  0  2  0  0  0  0  0  0
  189.6820  178.6250  141.9570 N   0  0  0  0  0  2  0  0  0  0  0  0
  191.6580  177.3200  142.4620 C   0  0  0  0  0  1  0  0  0  0  0  0
  190.4180  177.9810  143.0300 C   0  0  2  0  0  3  0  0  0  0  0  0
  189.5380  176.9370  143.6980 C   0  0  0  0  0  2  0  0  0  0  0  0
  188.9090  177.4910  144.8140 O   0  0  0  0  0  0  0  0  0  0  0  0
  185.6800  178.0340  145.5350 C   0  0  2  0  0  0  0  0  0  0  0  0
  186.8890  177.2020  143.7320 O   0  0  0  0  0  0  0  0  0  0  0  0
  184.8820  178.2850  143.2600 O   0  0  0  0  0  0  0  0  0  0  0  0
  184.5740  178.6430  146.3000 C   0  0  0  0  0  2  0  0  0  0  0  0
  185.7430  177.8800  144.0850 C   0  0  0  0  0  0  0  0  0  0  0  0
  186.8970  177.3570  146.1210 C   0  0  0  0  0  2  0  0  0  0  0  0
  185.6830  179.3980  145.8780 O   0  0  0  0  0  0  0  0  0  0  0  0
  187.6680  176.8550  144.8790 C   0  0  2  0  0  3  0  0  0  0  0  0
  1  4  1  0  0  0  0
  2  1  2  0  0  0  0
  2  3  1  0  0  0  0
  3  7  2  0  0  0  0
  4  8  1  0  0  0  0
  4  6  2  0  0  0  0
  5  1  1  0  0  0  0
  6 23  1  0  0  0  0
  7  6  1  0  0  0  0
  8 16  1  0  0  0  0
 10 16  2  0  0  0  0
 11 13  2  0  0  0  0
 12 22  1  0  0  0  0
 13 17  1  0  0  0  0
 13 19  1  0  0  0  0
 14 10  1  0  0  0  0
 15  9  1  0  0  0  0
 15 14  2  0  0  0  0
 16 21  1  0  0  0  0
 17 18  1  0  0  0  0
 18 12  1  1  0  0  0
 19 22  1  0  0  0  0
 21  9  1  6  0  0  0
 21 17  1  0  0  0  0
 21 18  1  0  0  0  0
 22 20  2  0  0  0  0
 23 24  1  0  0  0  0
 24 25  1  0  0  0  0
 25 27  1  0  0  0  0
 27 26  1  6  0  0  0
 27 28  1  0  0  0  0
 28 29  1  0  0  0  0
 30 36  1  0  0  0  0
 30 35  1  1  0  0  0
 30 33  1  0  0  0  0
 31 34  1  0  0  0  0
 31 37  1  0  0  0  0
 32 34  2  0  0  0  0
 34 30  1  0  0  0  0
 36 33  1  0  0  0  0
 37 29  1  6  0  0  0
 37 35  1  0  0  0  0
M  END
>  <MODEL>
6

>  <REMARK>
 VINA RESULT:      -6.4      2.867      5.996
  Name = 
  9 active torsions:
  status: ('A' for Active; 'I' for Inactive)
    1  A    between atoms: N_10  and  C_28
    2  A    between atoms: N_10  and  C_30
    3  A    between atoms: C_15  and  O_16
    4  A    between atoms: C_15  and  C_30
    5  A    between atoms: O_16  and  C_34
    6  A    between atoms: C_18  and  S_20
    7  A    between atoms: S_20  and  C_26
    8  A    between atoms: S_22  and  C_28
    9  A    between atoms: S_22  and  C_29
                            x       y       z     vdW  Elec       q    Type
                         _______ _______ _______ _____ _____    ______ ____

>  <TORSDO>
F 9

$$$$
=
 OpenBabel11062412263D

 37 42  0  0  1  0  0  0  0  0999 V2000
  183.4030  175.4030  137.6780 C   0  0  0  0  0  0  0  0  0  0  0  0
  184.0760  174.2280  137.7990 N   0  0  0  0  0  0  0  0  0  0  0  0
  185.4150  174.1440  137.5920 C   0  0  0  0  0  3  0  0  0  0  0  0
  184.0970  176.5900  137.3680 C   0  0  0  0  0  0  0  0  0  0  0  0
  181.9880  175.4100  137.8480 N   0  0  0  0  0  1  0  0  0  0  0  0
  185.4760  176.5000  137.0820 C   0  0  0  0  0  0  0  0  0  0  0  0
  186.1340  175.2760  137.2180 C   0  0  0  0  0  3  0  0  0  0  0  0
  183.1930  178.1580  137.2490 S   0  0  0  0  0  0  0  0  0  0  0  0
  181.7240  178.5210  141.1650 C   0  0  0  0  0  2  0  0  0  0  0  0
  184.2180  178.1750  139.7710 C   0  0  0  0  0  3  0  0  0  0  0  0
  179.3980  177.6280  137.6380 O   0  0  0  0  0  0  0  0  0  0  0  0
  181.7620  181.0670  138.2590 C   0  0  0  0  0  2  0  0  0  0  0  0
  179.9690  178.7390  137.7840 C   0  0  0  0  0  0  0  0  0  0  0  0
  184.1850  178.2540  141.2470 C   0  0  0  0  0  3  0  0  0  0  0  0
  183.0360  178.4520  141.9000 C   0  0  0  0  0  3  0  0  0  0  0  0
  183.1810  178.5650  139.0160 C   0  0  0  0  0  0  0  0  0  0  0  0
  180.6740  179.0660  138.9610 N   0  0  0  0  0  0  0  0  0  0  0  0
  181.3450  180.2810  139.5100 C   0  0  1  0  0  3  0  0  0  0  0  0
  179.9970  179.7800  136.7070 C   0  0  0  0  0  2  0  0  0  0  0  0
  180.3360  182.1250  136.6860 O   0  0  0  0  0  0  0  0  0  0  0  0
  181.9380  179.0580  139.7520 C   0  0  1  0  0  0  0  0  0  0  0  0
  180.6580  181.0670  137.2000 C   0  0  0  0  0  0  0  0  0  0  0  0
  186.4200  177.8840  136.4460 S   0  0  0  0  0  0  0  0  0  0  0  0
  187.8080  177.6100  137.5910 C   0  0  0  0  0  2  0  0  0  0  0  0
  187.5350  178.2520  138.8650 N   0  0  0  0  0  2  0  0  0  0  0  0
  189.9210  177.8740  138.7020 C   0  0  0  0  0  1  0  0  0  0  0  0
  188.7760  178.2590  139.6180 C   0  0  2  0  0  3  0  0  0  0  0  0
  188.6820  177.2720  140.7680 C   0  0  0  0  0  2  0  0  0  0  0  0
  188.5740  177.9610  141.9770 O   0  0  0  0  0  0  0  0  0  0  0  0
  190.1390  176.9640  144.7690 C   0  0  2  0  0  0  0  0  0  0  0  0
  187.9580  177.4740  144.1490 O   0  0  0  0  0  0  0  0  0  0  0  0
  188.5550  177.8710  146.3640 O   0  0  0  0  0  0  0  0  0  0  0  0
  191.3240  176.7510  145.6250 C   0  0  0  0  0  2  0  0  0  0  0  0
  188.8450  177.4820  145.2020 C   0  0  0  0  0  0  0  0  0  0  0  0
  190.0150  176.5780  143.3140 C   0  0  0  0  0  2  0  0  0  0  0  0
  191.1300  177.9510  144.9160 O   0  0  0  0  0  0  0  0  0  0  0  0
  188.5620  176.9670  142.9570 C   0  0  2  0  0  3  0  0  0  0  0  0
  1  2  1  0  0  0  0
  1  5  1  0  0  0  0
  3  2  2  0  0  0  0
  4  1  2  0  0  0  0
  6  7  2  0  0  0  0
  6  4  1  0  0  0  0
  7  3  1  0  0  0  0
  8  4  1  0  0  0  0
  8 16  1  0  0  0  0
  9 15  1  0  0  0  0
 10 14  1  0  0  0  0
 11 13  2  0  0  0  0
 13 17  1  0  0  0  0
 14 15  2  0  0  0  0
 16 21  1  0  0  0  0
 16 10  2  0  0  0  0
 17 18  1  0  0  0  0
 17 21  1  0  0  0  0
 18 12  1  6  0  0  0
 18 21  1  0  0  0  0
 19 22  1  0  0  0  0
 19 13  1  0  0  0  0
 20 22  2  0  0  0  0
 21  9  1  1  0  0  0
 22 12  1  0  0  0  0
 23  6  1  0  0  0  0
 23 24  1  0  0  0  0
 24 25  1  0  0  0  0
 25 27  1  0  0  0  0
 27 26  1  6  0  0  0
 27 28  1  0  0  0  0
 28 29  1  0  0  0  0
 30 35  1  6  0  0  0
 30 36  1  0  0  0  0
 30 34  1  0  0  0  0
 30 33  1  0  0  0  0
 31 34  1  0  0  0  0
 34 32  2  0  0  0  0
 36 33  1  0  0  0  0
 37 29  1  6  0  0  0
 37 35  1  0  0  0  0
 37 31  1  0  0  0  0
M  END
>  <MODEL>
7

>  <REMARK>
 VINA RESULT:      -6.2      2.640      5.499
  Name = 
  9 active torsions:
  status: ('A' for Active; 'I' for Inactive)
    1  A    between atoms: N_10  and  C_28
    2  A    between atoms: N_10  and  C_30
    3  A    between atoms: C_15  and  O_16
    4  A    between atoms: C_15  and  C_30
    5  A    between atoms: O_16  and  C_34
    6  A    between atoms: C_18  and  S_20
    7  A    between atoms: S_20  and  C_26
    8  A    between atoms: S_22  and  C_28
    9  A    between atoms: S_22  and  C_29
                            x       y       z     vdW  Elec       q    Type
                         _______ _______ _______ _____ _____    ______ ____

>  <TORSDO>
F 9

$$$$
=
 OpenBabel11062412263D

 37 42  0  0  1  0  0  0  0  0999 V2000
  183.4710  178.5870  141.6940 C   0  0  0  0  0  0  0  0  0  0  0  0
  184.4040  179.1500  142.5060 N   0  0  0  0  0  0  0  0  0  0  0  0
  185.6770  179.3750  142.0890 C   0  0  0  0  0  3  0  0  0  0  0  0
  183.7960  178.2560  140.3630 C   0  0  0  0  0  0  0  0  0  0  0  0
  182.1710  178.3220  142.2140 N   0  0  0  0  0  1  0  0  0  0  0  0
  185.1320  178.4200  139.9420 C   0  0  0  0  0  0  0  0  0  0  0  0
  186.0640  179.0020  140.8050 C   0  0  0  0  0  3  0  0  0  0  0  0
  182.5300  177.5440  139.2760 S   0  0  0  0  0  0  0  0  0  0  0  0
  180.2480  180.2470  137.0160 C   0  0  0  0  0  2  0  0  0  0  0  0
  182.4130  180.2390  138.9110 C   0  0  0  0  0  3  0  0  0  0  0  0
  179.2540  176.1240  137.8300 O   0  0  0  0  0  0  0  0  0  0  0  0
  182.7330  177.5120  135.8880 C   0  0  0  0  0  2  0  0  0  0  0  0
  180.2530  176.4340  137.1310 C   0  0  0  0  0  0  0  0  0  0  0  0
  181.9110  181.5100  138.3470 C   0  0  0  0  0  3  0  0  0  0  0  0
  180.9310  181.5200  137.4390 C   0  0  0  0  0  3  0  0  0  0  0  0
  182.1230  179.0530  138.3570 C   0  0  0  0  0  0  0  0  0  0  0  0
  180.5470  177.7730  136.8020 N   0  0  0  0  0  0  0  0  0  0  0  0
  181.5370  178.4740  135.9320 C   0  0  1  0  0  3  0  0  0  0  0  0
  181.2390  175.4180  136.6390 C   0  0  0  0  0  2  0  0  0  0  0  0
  182.8150  175.3710  134.8700 O   0  0  0  0  0  0  0  0  0  0  0  0
  181.2090  179.0670  137.1350 C   0  0  1  0  0  0  0  0  0  0  0  0
  182.2810  176.0600  135.7220 C   0  0  0  0  0  0  0  0  0  0  0  0
  185.7260  177.8190  138.3630 S   0  0  0  0  0  0  0  0  0  0  0  0
  187.4410  178.3370  138.6810 C   0  0  0  0  0  2  0  0  0  0  0  0
  188.2980  177.1700  138.8000 N   0  0  0  0  0  2  0  0  0  0  0  0
  190.6770  176.8470  139.1140 C   0  0  0  0  0  1  0  0  0  0  0  0
  189.4350  177.5540  139.6190 C   0  0  2  0  0  3  0  0  0  0  0  0
  189.1760  177.1700  141.0650 C   0  0  0  0  0  2  0  0  0  0  0  0
  190.3850  176.8990  141.7080 O   0  0  0  0  0  0  0  0  0  0  0  0
  190.8410  176.6670  145.0210 C   0  0  2  0  0  0  0  0  0  0  0  0
  189.0280  176.8090  143.5740 O   0  0  0  0  0  0  0  0  0  0  0  0
  188.7630  177.7130  145.7040 O   0  0  0  0  0  0  0  0  0  0  0  0
  191.6350  176.7590  146.2630 C   0  0  0  0  0  2  0  0  0  0  0  0
  189.4670  177.1250  144.8400 C   0  0  0  0  0  0  0  0  0  0  0  0
  191.2660  175.9790  143.7450 C   0  0  0  0  0  2  0  0  0  0  0  0
  191.6870  177.7610  145.2760 O   0  0  0  0  0  0  0  0  0  0  0  0
  190.0360  176.1330  142.8210 C   0  0  2  0  0  3  0  0  0  0  0  0
  1  5  1  0  0  0  0
  1  2  1  0  0  0  0
  3  2  2  0  0  0  0
  4  1  2  0  0  0  0
  6  4  1  0  0  0  0
  6  7  2  0  0  0  0
  7  3  1  0  0  0  0
  8  4  1  0  0  0  0
  9 15  1  0  0  0  0
 13 11  2  0  0  0  0
 14 10  1  0  0  0  0
 15 14  2  0  0  0  0
 16 10  2  0  0  0  0
 16  8  1  0  0  0  0
 17 13  1  0  0  0  0
 17 21  1  0  0  0  0
 18 12  1  1  0  0  0
 18 17  1  0  0  0  0
 18 21  1  0  0  0  0
 19 13  1  0  0  0  0
 20 22  2  0  0  0  0
 21  9  1  6  0  0  0
 21 16  1  0  0  0  0
 22 12  1  0  0  0  0
 22 19  1  0  0  0  0
 23 24  1  0  0  0  0
 23  6  1  0  0  0  0
 24 25  1  0  0  0  0
 25 27  1  0  0  0  0
 27 26  1  6  0  0  0
 27 28  1  0  0  0  0
 28 29  1  0  0  0  0
 30 35  1  6  0  0  0
 30 36  1  0  0  0  0
 30 33  1  0  0  0  0
 31 34  1  0  0  0  0
 34 30  1  0  0  0  0
 34 32  2  0  0  0  0
 36 33  1  0  0  0  0
 37 29  1  6  0  0  0
 37 31  1  0  0  0  0
 37 35  1  0  0  0  0
M  END
>  <MODEL>
8

>  <REMARK>
 VINA RESULT:      -6.2      2.429      4.175
  Name = 
  9 active torsions:
  status: ('A' for Active; 'I' for Inactive)
    1  A    between atoms: N_10  and  C_28
    2  A    between atoms: N_10  and  C_30
    3  A    between atoms: C_15  and  O_16
    4  A    between atoms: C_15  and  C_30
    5  A    between atoms: O_16  and  C_34
    6  A    between atoms: C_18  and  S_20
    7  A    between atoms: S_20  and  C_26
    8  A    between atoms: S_22  and  C_28
    9  A    between atoms: S_22  and  C_29
                            x       y       z     vdW  Elec       q    Type
                         _______ _______ _______ _____ _____    ______ ____

>  <TORSDO>
F 9

$$$$
=
 OpenBabel11062412263D

 37 42  0  0  1  0  0  0  0  0999 V2000
  191.5920  177.4140  140.5510 C   0  0  0  0  0  0  0  0  0  0  0  0
  191.7320  177.1880  141.8840 N   0  0  0  0  0  0  0  0  0  0  0  0
  190.6600  177.0870  142.7110 C   0  0  0  0  0  3  0  0  0  0  0  0
  190.3070  177.5090  139.9790 C   0  0  0  0  0  0  0  0  0  0  0  0
  192.7600  177.5700  139.7490 N   0  0  0  0  0  1  0  0  0  0  0  0
  189.1900  177.4760  140.8400 C   0  0  0  0  0  0  0  0  0  0  0  0
  189.3730  177.2420  142.2050 C   0  0  0  0  0  3  0  0  0  0  0  0
  190.1330  177.7690  138.1930 S   0  0  0  0  0  0  0  0  0  0  0  0
  190.5740  174.4960  135.6010 C   0  0  0  0  0  2  0  0  0  0  0  0
  191.5350  175.4360  138.1450 C   0  0  0  0  0  3  0  0  0  0  0  0
  188.8770  178.3390  134.5960 O   0  0  0  0  0  0  0  0  0  0  0  0
  187.4970  175.7140  137.5960 C   0  0  0  0  0  2  0  0  0  0  0  0
  188.3190  177.5690  135.4190 C   0  0  0  0  0  0  0  0  0  0  0  0
  191.9960  174.1430  137.5960 C   0  0  0  0  0  3  0  0  0  0  0  0
  191.5270  173.6820  136.4340 C   0  0  0  0  0  3  0  0  0  0  0  0
  190.4500  176.0630  137.6670 C   0  0  0  0  0  0  0  0  0  0  0  0
  188.8280  176.2850  135.7030 N   0  0  0  0  0  0  0  0  0  0  0  0
  188.3820  175.1040  136.5000 C   0  0  1  0  0  3  0  0  0  0  0  0
  187.1080  177.9700  136.2050 C   0  0  0  0  0  2  0  0  0  0  0  0
  185.3930  176.7730  137.3200 O   0  0  0  0  0  0  0  0  0  0  0  0
  189.7300  175.4010  136.4960 C   0  0  1  0  0  0  0  0  0  0  0  0
  186.5790  176.8030  137.0380 C   0  0  0  0  0  0  0  0  0  0  0  0
  187.5270  177.8240  140.2740 S   0  0  0  0  0  0  0  0  0  0  0  0
  187.0150  178.5490  141.8620 C   0  0  0  0  0  2  0  0  0  0  0  0
  185.5700  178.7030  141.8950 N   0  0  0  0  0  2  0  0  0  0  0  0
  183.8890  179.1010  143.5920 C   0  0  0  0  0  1  0  0  0  0  0  0
  185.1250  178.3070  143.2190 C   0  0  2  0  0  3  0  0  0  0  0  0
  186.2290  178.5690  144.2290 C   0  0  0  0  0  2  0  0  0  0  0  0
  185.6840  178.6760  145.5100 O   0  0  0  0  0  0  0  0  0  0  0  0
  188.6340  177.3960  146.4580 C   0  0  2  0  0  0  0  0  0  0  0  0
  186.6830  178.0980  147.5100 O   0  0  0  0  0  0  0  0  0  0  0  0
  188.6710  178.3100  148.7030 O   0  0  0  0  0  0  0  0  0  0  0  0
  190.0550  177.0460  146.2630 C   0  0  0  0  0  2  0  0  0  0  0  0
  188.0460  177.9760  147.6620 C   0  0  0  0  0  0  0  0  0  0  0  0
  187.5090  177.1130  145.4900 C   0  0  0  0  0  2  0  0  0  0  0  0
  189.5430  178.2990  145.8800 O   0  0  0  0  0  0  0  0  0  0  0  0
  186.2530  177.6260  146.2310 C   0  0  2  0  0  3  0  0  0  0  0  0
  1  2  1  0  0  0  0
  2  3  2  0  0  0  0
  4  1  2  0  0  0  0
  4  6  1  0  0  0  0
  5  1  1  0  0  0  0
  6  7  2  0  0  0  0
  7  3  1  0  0  0  0
  8  4  1  0  0  0  0
  9 15  1  0  0  0  0
 11 13  2  0  0  0  0
 13 17  1  0  0  0  0
 13 19  1  0  0  0  0
 14 10  1  0  0  0  0
 15 14  2  0  0  0  0
 16 10  2  0  0  0  0
 16  8  1  0  0  0  0
 17 21  1  0  0  0  0
 17 18  1  0  0  0  0
 18 12  1  1  0  0  0
 19 22  1  0  0  0  0
 21  9  1  6  0  0  0
 21 18  1  0  0  0  0
 21 16  1  0  0  0  0
 22 20  2  0  0  0  0
 22 12  1  0  0  0  0
 23  6  1  0  0  0  0
 23 24  1  0  0  0  0
 24 25  1  0  0  0  0
 25 27  1  0  0  0  0
 27 26  1  1  0  0  0
 27 28  1  0  0  0  0
 28 29  1  0  0  0  0
 30 35  1  6  0  0  0
 30 34  1  0  0  0  0
 31 34  1  0  0  0  0
 33 30  1  0  0  0  0
 34 32  2  0  0  0  0
 35 37  1  0  0  0  0
 36 33  1  0  0  0  0
 36 30  1  0  0  0  0
 37 29  1  6  0  0  0
 37 31  1  0  0  0  0
M  END
>  <MODEL>
9

>  <REMARK>
 VINA RESULT:      -6.2      4.110      7.336
  Name = 
  9 active torsions:
  status: ('A' for Active; 'I' for Inactive)
    1  A    between atoms: N_10  and  C_28
    2  A    between atoms: N_10  and  C_30
    3  A    between atoms: C_15  and  O_16
    4  A    between atoms: C_15  and  C_30
    5  A    between atoms: O_16  and  C_34
    6  A    between atoms: C_18  and  S_20
    7  A    between atoms: S_20  and  C_26
    8  A    between atoms: S_22  and  C_28
    9  A    between atoms: S_22  and  C_29
                            x       y       z     vdW  Elec       q    Type
                         _______ _______ _______ _____ _____    ______ ____

>  <TORSDO>
F 9

$$$$
