=
 OpenBabel11062417573D

 40 45  0  0  1  0  0  0  0  0999 V2000
  184.2110  180.0950  139.0890 N   0  0  0  0  0  2  0  0  0  0  0  0
  181.9120  179.5880  139.3750 N   0  0  0  0  0  0  0  0  0  0  0  0
  183.3030  179.3980  139.6950 C   0  0  0  0  0  0  0  0  0  0  0  0
  180.1170  180.1700  137.8220 C   0  0  2  0  0  3  0  0  0  0  0  0
  180.3320  181.3700  138.7550 C   0  0  1  0  0  3  0  0  0  0  0  0
  181.5140  180.5130  138.3100 C   0  0  1  0  0  3  0  0  0  0  0  0
  181.5270  183.2970  137.6290 C   0  0  0  0  0  3  0  0  0  0  0  0
  179.1370  183.4470  137.9960 C   0  0  0  0  0  3  0  0  0  0  0  0
  180.3320  182.7190  138.0850 C   0  0  0  0  0  0  0  0  0  0  0  0
  181.5180  184.5710  137.0550 C   0  0  0  0  0  3  0  0  0  0  0  0
  179.1300  184.7210  137.4210 C   0  0  0  0  0  3  0  0  0  0  0  0
  180.3200  185.2820  136.9480 C   0  0  0  0  0  3  0  0  0  0  0  0
  180.0250  180.4900  136.3360 C   0  0  0  0  0  2  0  0  0  0  0  0
  180.8210  179.5960  135.6200 O   0  0  0  0  0  1  0  0  0  0  0  0
  183.7290  178.2830  140.6030 C   0  0  0  0  0  2  0  0  0  0  0  0
  185.0740  178.5700  141.2650 C   0  0  0  0  0  2  0  0  0  0  0  0
  184.8950  179.2860  142.5200 N   0  0  0  0  0  2  0  0  0  0  0  0
  184.7300  178.2970  143.5760 C   0  0  0  0  0  2  0  0  0  0  0  0
  184.6580  178.3150  146.0690 C   0  0  0  0  0  2  0  0  0  0  0  0
  186.8380  178.4500  147.2890 C   0  0  0  0  0  0  0  0  0  0  0  0
  187.4670  178.6050  148.3690 O   0  0  0  0  0  0  0  0  0  0  0  0
  185.4180  178.6390  147.2720 N   0  0  0  0  0  2  0  0  0  0  0  0
  185.4360  178.7640  144.8360 C   0  0  1  0  0  3  0  0  0  0  0  0
  186.8400  178.2240  144.8790 C   0  0  0  0  0  3  0  0  0  0  0  0
  187.5360  178.1090  146.0210 C   0  0  0  0  0  0  0  0  0  0  0  0
  188.9420  177.6140  145.9760 C   0  0  0  0  0  0  0  0  0  0  0  0
  191.5950  176.6790  145.9140 C   0  0  0  0  0  3  0  0  0  0  0  0
  191.0970  177.4310  144.8400 C   0  0  0  0  0  0  0  0  0  0  0  0
  189.4660  176.8620  147.0430 C   0  0  0  0  0  3  0  0  0  0  0  0
  190.7820  176.3980  147.0130 C   0  0  0  0  0  3  0  0  0  0  0  0
  189.7770  177.8920  144.8810 C   0  0  0  0  0  3  0  0  0  0  0  0
  191.4520  177.4980  142.3930 C   0  0  0  0  0  1  0  0  0  0  0  0
  191.8850  177.7310  143.7250 O   0  0  0  0  0  0  0  0  0  0  0  0
  180.8840  179.0090  140.2390 C   0  0  0  0  0  2  0  0  0  0  0  0
  180.0670  177.7740  142.9870 C   0  0  0  0  0  2  0  0  0  0  0  0
  179.4530  180.3510  141.7790 C   0  0  0  0  0  2  0  0  0  0  0  0
  179.0600  180.0520  143.2120 C   0  0  0  0  0  2  0  0  0  0  0  0
  180.8250  179.7450  141.5730 C   0  0  1  0  0  3  0  0  0  0  0  0
  180.0600  179.0600  143.7920 C   0  0  2  0  0  3  0  0  0  0  0  0
  181.1410  178.8270  142.7520 C   0  0  1  0  0  3  0  0  0  0  0  0
  1  3  2  0  0  0  0
  2  3  1  0  0  0  0
  2 34  1  0  0  0  0
  3 15  1  0  0  0  0
  4 13  1  6  0  0  0
  4  6  1  0  0  0  0
  4  5  1  0  0  0  0
  5  9  1  6  0  0  0
  6  5  1  0  0  0  0
  6  2  1  1  0  0  0
  7  9  1  0  0  0  0
  8  9  2  0  0  0  0
 10  7  2  0  0  0  0
 11  8  1  0  0  0  0
 12 10  1  0  0  0  0
 12 11  2  0  0  0  0
 14 13  1  0  0  0  0
 15 16  1  0  0  0  0
 16 17  1  0  0  0  0
 17 18  1  0  0  0  0
 19 22  1  0  0  0  0
 20 21  2  0  0  0  0
 22 20  1  0  0  0  0
 23 18  1  6  0  0  0
 23 24  1  0  0  0  0
 23 19  1  0  0  0  0
 24 25  2  0  0  0  0
 25 20  1  0  0  0  0
 26 25  1  0  0  0  0
 26 29  1  0  0  0  0
 27 30  1  0  0  0  0
 28 31  1  0  0  0  0
 28 27  2  0  0  0  0
 30 29  2  0  0  0  0
 31 26  2  0  0  0  0
 32 33  1  0  0  0  0
 33 28  1  0  0  0  0
 36 37  1  0  0  0  0
 37 39  1  0  0  0  0
 38 34  1  6  0  0  0
 38 36  1  0  0  0  0
 38 40  1  0  0  0  0
 39 35  1  6  0  0  0
 40 35  1  6  0  0  0
 40 39  1  0  0  0  0
M  END
>  <MODEL>
1

>  <REMARK>
 VINA RESULT:      -8.9      0.000      0.000
  Name = 
  12 active torsions:
  status: ('A' for Active; 'I' for Inactive)
    1  A    between atoms: C_3  and  N_5
    2  A    between atoms: C_3  and  C_30
    3  A    between atoms: C_4  and  C_40
    4  A    between atoms: N_5  and  C_29
    5  A    between atoms: C_12  and  O_13
    6  A    between atoms: C_15  and  C_29
    7  A    between atoms: C_15  and  C_33
    8  A    between atoms: N_17  and  C_36
    9  A    between atoms: N_17  and  C_37
   10  A    between atoms: C_19  and  C_32
   11  A    between atoms: C_21  and  C_36
   12  A    between atoms: C_28  and  C_34
                            x       y       z     vdW  Elec       q    Type
                         _______ _______ _______ _____ _____    ______ ____

>  <TORSDO>
F 12

$$$$
=
 OpenBabel11062417573D

 40 45  0  0  1  0  0  0  0  0999 V2000
  187.3960  178.6670  140.2380 N   0  0  0  0  0  2  0  0  0  0  0  0
  189.4750  177.5300  140.1350 N   0  0  0  0  0  0  0  0  0  0  0  0
  188.4550  178.3670  139.5560 C   0  0  0  0  0  0  0  0  0  0  0  0
  190.6350  176.8180  142.1650 C   0  0  2  0  0  3  0  0  0  0  0  0
  189.6760  177.9540  142.5510 C   0  0  1  0  0  3  0  0  0  0  0  0
  189.2910  176.9490  141.4670 C   0  0  1  0  0  3  0  0  0  0  0  0
  187.5420  177.3710  143.7810 C   0  0  0  0  0  3  0  0  0  0  0  0
  189.5030  177.9950  145.0580 C   0  0  0  0  0  3  0  0  0  0  0  0
  188.8960  177.7390  143.8210 C   0  0  0  0  0  0  0  0  0  0  0  0
  186.8170  177.2230  144.9660 C   0  0  0  0  0  3  0  0  0  0  0  0
  188.7760  177.8480  146.2420 C   0  0  0  0  0  3  0  0  0  0  0  0
  187.4340  177.4590  146.1970 C   0  0  0  0  0  3  0  0  0  0  0  0
  190.6040  175.5870  143.0600 C   0  0  0  0  0  2  0  0  0  0  0  0
  191.7530  175.5590  143.8490 O   0  0  0  0  0  1  0  0  0  0  0  0
  188.5240  178.7600  138.1110 C   0  0  0  0  0  2  0  0  0  0  0  0
  187.6130  177.8960  137.2420 C   0  0  0  0  0  2  0  0  0  0  0  0
  186.2130  178.1210  137.5730 N   0  0  0  0  0  2  0  0  0  0  0  0
  185.4060  177.3680  136.6230 C   0  0  0  0  0  2  0  0  0  0  0  0
  183.8980  175.5060  137.3170 C   0  0  0  0  0  2  0  0  0  0  0  0
  182.3250  175.9370  139.2140 C   0  0  0  0  0  0  0  0  0  0  0  0
  181.3440  175.5690  139.9130 O   0  0  0  0  0  0  0  0  0  0  0  0
  182.6770  175.1840  138.0480 N   0  0  0  0  0  2  0  0  0  0  0  0
  184.0650  177.0200  137.2440 C   0  0  1  0  0  3  0  0  0  0  0  0
  183.9550  177.6250  138.6190 C   0  0  0  0  0  3  0  0  0  0  0  0
  183.1070  177.1580  139.5480 C   0  0  0  0  0  0  0  0  0  0  0  0
  183.0170  177.8430  140.8690 C   0  0  0  0  0  0  0  0  0  0  0  0
  182.8670  179.1240  143.3700 C   0  0  0  0  0  3  0  0  0  0  0  0
  181.7050  178.9560  142.6020 C   0  0  0  0  0  0  0  0  0  0  0  0
  184.1680  178.0200  141.6590 C   0  0  0  0  0  3  0  0  0  0  0  0
  184.0940  178.6560  142.9000 C   0  0  0  0  0  3  0  0  0  0  0  0
  181.7900  178.3160  141.3610 C   0  0  0  0  0  3  0  0  0  0  0  0
  179.7430  178.7910  144.1010 C   0  0  0  0  0  1  0  0  0  0  0  0
  180.4600  179.4130  143.0440 O   0  0  0  0  0  0  0  0  0  0  0  0
  190.7780  177.4180  139.4790 C   0  0  0  0  0  2  0  0  0  0  0  0
  192.8310  176.4960  137.3180 C   0  0  0  0  0  2  0  0  0  0  0  0
  190.1230  175.6010  137.9010 C   0  0  0  0  0  2  0  0  0  0  0  0
  190.9800  174.8720  136.8850 C   0  0  0  0  0  2  0  0  0  0  0  0
  191.0400  175.9800  139.0440 C   0  0  1  0  0  3  0  0  0  0  0  0
  192.4420  175.0300  137.2810 C   0  0  2  0  0  3  0  0  0  0  0  0
  192.4880  175.7650  138.6090 C   0  0  1  0  0  3  0  0  0  0  0  0
  3  2  1  0  0  0  0
  3  1  2  0  0  0  0
  4  5  1  0  0  0  0
  4 13  1  1  0  0  0
  5  9  1  1  0  0  0
  6  2  1  6  0  0  0
  6  4  1  0  0  0  0
  6  5  1  0  0  0  0
  7  9  2  0  0  0  0
  7 10  1  0  0  0  0
  8 11  2  0  0  0  0
  9  8  1  0  0  0  0
 10 12  2  0  0  0  0
 12 11  1  0  0  0  0
 13 14  1  0  0  0  0
 15  3  1  0  0  0  0
 16 17  1  0  0  0  0
 16 15  1  0  0  0  0
 18 17  1  0  0  0  0
 19 22  1  0  0  0  0
 20 25  1  0  0  0  0
 20 21  2  0  0  0  0
 22 20  1  0  0  0  0
 23 18  1  1  0  0  0
 23 19  1  0  0  0  0
 23 24  1  0  0  0  0
 24 25  2  0  0  0  0
 25 26  1  0  0  0  0
 26 31  2  0  0  0  0
 26 29  1  0  0  0  0
 28 33  1  0  0  0  0
 28 27  2  0  0  0  0
 29 30  2  0  0  0  0
 30 27  1  0  0  0  0
 31 28  1  0  0  0  0
 33 32  1  0  0  0  0
 34  2  1  0  0  0  0
 36 38  1  0  0  0  0
 37 36  1  0  0  0  0
 38 34  1  6  0  0  0
 39 37  1  6  0  0  0
 39 35  1  0  0  0  0
 39 40  1  0  0  0  0
 40 35  1  6  0  0  0
 40 38  1  0  0  0  0
M  END
>  <MODEL>
2

>  <REMARK>
 VINA RESULT:      -8.6      3.975     10.473
  Name = 
  12 active torsions:
  status: ('A' for Active; 'I' for Inactive)
    1  A    between atoms: C_3  and  N_5
    2  A    between atoms: C_3  and  C_30
    3  A    between atoms: C_4  and  C_40
    4  A    between atoms: N_5  and  C_29
    5  A    between atoms: C_12  and  O_13
    6  A    between atoms: C_15  and  C_29
    7  A    between atoms: C_15  and  C_33
    8  A    between atoms: N_17  and  C_36
    9  A    between atoms: N_17  and  C_37
   10  A    between atoms: C_19  and  C_32
   11  A    between atoms: C_21  and  C_36
   12  A    between atoms: C_28  and  C_34
                            x       y       z     vdW  Elec       q    Type
                         _______ _______ _______ _____ _____    ______ ____

>  <TORSDO>
F 12

$$$$
=
 OpenBabel11062417573D

 40 45  0  0  1  0  0  0  0  0999 V2000
  184.4780  179.8060  138.5070 N   0  0  0  0  0  2  0  0  0  0  0  0
  183.3140  178.5700  140.1630 N   0  0  0  0  0  0  0  0  0  0  0  0
  184.5280  179.0740  139.5730 C   0  0  0  0  0  0  0  0  0  0  0  0
  180.9350  178.9430  140.5770 C   0  0  2  0  0  3  0  0  0  0  0  0
  181.4890  180.1980  139.8890 C   0  0  1  0  0  3  0  0  0  0  0  0
  182.0200  178.8150  139.5210 C   0  0  1  0  0  3  0  0  0  0  0  0
  180.7740  180.3690  137.4670 C   0  0  0  0  0  3  0  0  0  0  0  0
  179.7150  181.7990  139.1100 C   0  0  0  0  0  3  0  0  0  0  0  0
  180.6230  180.7760  138.8010 C   0  0  0  0  0  0  0  0  0  0  0  0
  179.9980  180.9500  136.4610 C   0  0  0  0  0  3  0  0  0  0  0  0
  178.9400  182.3800  138.1020 C   0  0  0  0  0  3  0  0  0  0  0  0
  179.0790  181.9530  136.7780 C   0  0  0  0  0  3  0  0  0  0  0  0
  179.6330  178.3920  140.0100 C   0  0  0  0  0  2  0  0  0  0  0  0
  179.1980  177.3270  140.7980 O   0  0  0  0  0  1  0  0  0  0  0  0
  185.8640  178.6240  140.0830 C   0  0  0  0  0  2  0  0  0  0  0  0
  186.8140  178.2580  138.9450 C   0  0  0  0  0  2  0  0  0  0  0  0
  188.1970  178.5190  139.3180 N   0  0  0  0  0  2  0  0  0  0  0  0
  188.2410  178.7050  140.7620 C   0  0  0  0  0  2  0  0  0  0  0  0
  190.2390  177.2150  140.8680 C   0  0  0  0  0  2  0  0  0  0  0  0
  190.6990  176.0490  143.0330 C   0  0  0  0  0  0  0  0  0  0  0  0
  191.3480  175.1880  143.6830 O   0  0  0  0  0  0  0  0  0  0  0  0
  190.8640  176.1270  141.6130 N   0  0  0  0  0  2  0  0  0  0  0  0
  188.8420  177.4780  141.4220 C   0  0  1  0  0  3  0  0  0  0  0  0
  188.8990  177.6640  142.9160 C   0  0  0  0  0  3  0  0  0  0  0  0
  189.7370  176.9670  143.6990 C   0  0  0  0  0  0  0  0  0  0  0  0
  189.6980  177.1700  145.1760 C   0  0  0  0  0  0  0  0  0  0  0  0
  189.6080  177.5680  147.9600 C   0  0  0  0  0  3  0  0  0  0  0  0
  190.8000  177.1410  147.3560 C   0  0  0  0  0  0  0  0  0  0  0  0
  188.5160  177.6010  145.8050 C   0  0  0  0  0  3  0  0  0  0  0  0
  188.4700  177.7990  147.1860 C   0  0  0  0  0  3  0  0  0  0  0  0
  190.8350  176.9480  145.9710 C   0  0  0  0  0  3  0  0  0  0  0  0
  192.6700  175.6750  148.0420 C   0  0  0  0  0  1  0  0  0  0  0  0
  191.9570  176.9020  148.1020 O   0  0  0  0  0  0  0  0  0  0  0  0
  183.3480  177.9830  141.5020 C   0  0  0  0  0  2  0  0  0  0  0  0
  185.3910  177.9150  143.8600 C   0  0  0  0  0  2  0  0  0  0  0  0
  182.6240  178.8080  143.7410 C   0  0  0  0  0  2  0  0  0  0  0  0
  183.4580  179.0300  144.9860 C   0  0  0  0  0  2  0  0  0  0  0  0
  183.5360  179.0640  142.5600 C   0  0  1  0  0  3  0  0  0  0  0  0
  184.9180  179.1670  144.5740 C   0  0  2  0  0  3  0  0  0  0  0  0
  184.9780  179.1400  143.0580 C   0  0  1  0  0  3  0  0  0  0  0  0
  1  3  2  0  0  0  0
  2 34  1  0  0  0  0
  3 15  1  0  0  0  0
  3  2  1  0  0  0  0
  4 13  1  6  0  0  0
  5  9  1  6  0  0  0
  5  4  1  0  0  0  0
  6  5  1  0  0  0  0
  6  2  1  1  0  0  0
  6  4  1  0  0  0  0
  7  9  1  0  0  0  0
  9  8  2  0  0  0  0
 10 12  1  0  0  0  0
 10  7  2  0  0  0  0
 11  8  1  0  0  0  0
 12 11  2  0  0  0  0
 13 14  1  0  0  0  0
 16 17  1  0  0  0  0
 16 15  1  0  0  0  0
 17 18  1  0  0  0  0
 19 23  1  0  0  0  0
 19 22  1  0  0  0  0
 20 21  2  0  0  0  0
 20 25  1  0  0  0  0
 22 20  1  0  0  0  0
 23 18  1  6  0  0  0
 23 24  1  0  0  0  0
 24 25  2  0  0  0  0
 25 26  1  0  0  0  0
 26 29  2  0  0  0  0
 26 31  1  0  0  0  0
 28 27  1  0  0  0  0
 28 33  1  0  0  0  0
 29 30  1  0  0  0  0
 30 27  2  0  0  0  0
 31 28  2  0  0  0  0
 32 33  1  0  0  0  0
 36 37  1  0  0  0  0
 38 34  1  6  0  0  0
 38 40  1  0  0  0  0
 38 36  1  0  0  0  0
 39 35  1  1  0  0  0
 39 37  1  0  0  0  0
 40 35  1  1  0  0  0
 40 39  1  0  0  0  0
M  END
>  <MODEL>
3

>  <REMARK>
 VINA RESULT:      -8.5      2.435      4.052
  Name = 
  12 active torsions:
  status: ('A' for Active; 'I' for Inactive)
    1  A    between atoms: C_3  and  N_5
    2  A    between atoms: C_3  and  C_30
    3  A    between atoms: C_4  and  C_40
    4  A    between atoms: N_5  and  C_29
    5  A    between atoms: C_12  and  O_13
    6  A    between atoms: C_15  and  C_29
    7  A    between atoms: C_15  and  C_33
    8  A    between atoms: N_17  and  C_36
    9  A    between atoms: N_17  and  C_37
   10  A    between atoms: C_19  and  C_32
   11  A    between atoms: C_21  and  C_36
   12  A    between atoms: C_28  and  C_34
                            x       y       z     vdW  Elec       q    Type
                         _______ _______ _______ _____ _____    ______ ____

>  <TORSDO>
F 12

$$$$
=
 OpenBabel11062417573D

 40 45  0  0  1  0  0  0  0  0999 V2000
  189.8350  176.6290  140.0790 N   0  0  0  0  0  2  0  0  0  0  0  0
  188.3920  177.9480  141.4210 N   0  0  0  0  0  0  0  0  0  0  0  0
  188.9800  177.5980  140.1530 C   0  0  0  0  0  0  0  0  0  0  0  0
  190.3070  177.4290  142.8480 C   0  0  2  0  0  3  0  0  0  0  0  0
  189.3230  178.2690  143.6760 C   0  0  1  0  0  3  0  0  0  0  0  0
  188.8100  177.2640  142.6480 C   0  0  1  0  0  3  0  0  0  0  0  0
  187.7990  177.5620  145.5700 C   0  0  0  0  0  3  0  0  0  0  0  0
  190.1870  177.6700  145.9590 C   0  0  0  0  0  3  0  0  0  0  0  0
  189.0970  177.7950  145.0880 C   0  0  0  0  0  0  0  0  0  0  0  0
  187.6010  177.1710  146.8970 C   0  0  0  0  0  3  0  0  0  0  0  0
  189.9870  177.2800  147.2860 C   0  0  0  0  0  3  0  0  0  0  0  0
  188.6940  177.0260  147.7540 C   0  0  0  0  0  3  0  0  0  0  0  0
  190.8500  176.1790  143.5260 C   0  0  0  0  0  2  0  0  0  0  0  0
  190.3060  175.0490  142.9180 O   0  0  0  0  0  1  0  0  0  0  0  0
  188.7420  178.4520  138.9440 C   0  0  0  0  0  2  0  0  0  0  0  0
  189.6080  178.0200  137.7630 C   0  0  0  0  0  2  0  0  0  0  0  0
  188.7900  177.7440  136.5910 N   0  0  0  0  0  2  0  0  0  0  0  0
  187.5240  178.4440  136.7590 C   0  0  0  0  0  2  0  0  0  0  0  0
  186.8660  176.1930  135.9090 C   0  0  0  0  0  2  0  0  0  0  0  0
  184.4580  175.5420  136.1010 C   0  0  0  0  0  0  0  0  0  0  0  0
  183.5260  174.7440  135.8180 O   0  0  0  0  0  0  0  0  0  0  0  0
  185.7360  175.3760  135.4770 N   0  0  0  0  0  2  0  0  0  0  0  0
  186.3950  177.6220  136.1640 C   0  0  1  0  0  3  0  0  0  0  0  0
  185.2050  177.6230  137.0870 C   0  0  0  0  0  3  0  0  0  0  0  0
  184.2560  176.6750  137.0440 C   0  0  0  0  0  0  0  0  0  0  0  0
  183.0800  176.7740  137.9550 C   0  0  0  0  0  0  0  0  0  0  0  0
  180.8610  176.9360  139.6770 C   0  0  0  0  0  3  0  0  0  0  0  0
  181.1300  177.9860  138.7870 C   0  0  0  0  0  0  0  0  0  0  0  0
  182.7880  175.7320  138.8540 C   0  0  0  0  0  3  0  0  0  0  0  0
  181.6870  175.8110  139.7090 C   0  0  0  0  0  3  0  0  0  0  0  0
  182.2350  177.8950  137.9340 C   0  0  0  0  0  3  0  0  0  0  0  0
  180.5510  180.2710  139.5370 C   0  0  0  0  0  1  0  0  0  0  0  0
  180.3220  179.1250  138.7300 O   0  0  0  0  0  0  0  0  0  0  0  0
  187.2390  178.8470  141.4610 C   0  0  0  0  0  2  0  0  0  0  0  0
  184.2810  179.2470  140.5480 C   0  0  0  0  0  2  0  0  0  0  0  0
  185.4470  178.9130  143.1940 C   0  0  0  0  0  2  0  0  0  0  0  0
  183.9430  178.9310  143.0050 C   0  0  0  0  0  2  0  0  0  0  0  0
  186.0180  178.1320  142.0300 C   0  0  1  0  0  3  0  0  0  0  0  0
  183.6230  178.3940  141.6160 C   0  0  2  0  0  3  0  0  0  0  0  0
  184.9240  177.9370  140.9830 C   0  0  1  0  0  3  0  0  0  0  0  0
  1  3  2  0  0  0  0
  2 34  1  0  0  0  0
  3  2  1  0  0  0  0
  4 13  1  1  0  0  0
  4  5  1  0  0  0  0
  5  9  1  1  0  0  0
  6  2  1  6  0  0  0
  6  4  1  0  0  0  0
  6  5  1  0  0  0  0
  7 10  1  0  0  0  0
  8 11  2  0  0  0  0
  9  7  2  0  0  0  0
  9  8  1  0  0  0  0
 10 12  2  0  0  0  0
 11 12  1  0  0  0  0
 14 13  1  0  0  0  0
 15  3  1  0  0  0  0
 16 15  1  0  0  0  0
 17 18  1  0  0  0  0
 17 16  1  0  0  0  0
 19 23  1  0  0  0  0
 20 25  1  0  0  0  0
 21 20  2  0  0  0  0
 22 19  1  0  0  0  0
 22 20  1  0  0  0  0
 23 18  1  1  0  0  0
 23 24  1  0  0  0  0
 25 24  2  0  0  0  0
 25 26  1  0  0  0  0
 26 29  1  0  0  0  0
 27 30  1  0  0  0  0
 28 27  2  0  0  0  0
 29 30  2  0  0  0  0
 31 26  2  0  0  0  0
 31 28  1  0  0  0  0
 33 28  1  0  0  0  0
 33 32  1  0  0  0  0
 37 36  1  0  0  0  0
 38 34  1  6  0  0  0
 38 36  1  0  0  0  0
 39 35  1  6  0  0  0
 39 37  1  0  0  0  0
 40 35  1  6  0  0  0
 40 39  1  0  0  0  0
 40 38  1  0  0  0  0
M  END
>  <MODEL>
4

>  <REMARK>
 VINA RESULT:      -8.5      3.363     10.324
  Name = 
  12 active torsions:
  status: ('A' for Active; 'I' for Inactive)
    1  A    between atoms: C_3  and  N_5
    2  A    between atoms: C_3  and  C_30
    3  A    between atoms: C_4  and  C_40
    4  A    between atoms: N_5  and  C_29
    5  A    between atoms: C_12  and  O_13
    6  A    between atoms: C_15  and  C_29
    7  A    between atoms: C_15  and  C_33
    8  A    between atoms: N_17  and  C_36
    9  A    between atoms: N_17  and  C_37
   10  A    between atoms: C_19  and  C_32
   11  A    between atoms: C_21  and  C_36
   12  A    between atoms: C_28  and  C_34
                            x       y       z     vdW  Elec       q    Type
                         _______ _______ _______ _____ _____    ______ ____

>  <TORSDO>
F 12

$$$$
=
 OpenBabel11062417573D

 40 45  0  0  1  0  0  0  0  0999 V2000
  188.5520  178.8520  139.8180 N   0  0  0  0  0  2  0  0  0  0  0  0
  188.8410  177.3660  141.6440 N   0  0  0  0  0  0  0  0  0  0  0  0
  189.1010  177.7780  140.2880 C   0  0  0  0  0  0  0  0  0  0  0  0
  186.4830  177.9300  141.9530 C   0  0  2  0  0  3  0  0  0  0  0  0
  186.9450  177.1620  143.2000 C   0  0  1  0  0  3  0  0  0  0  0  0
  187.8970  178.1140  142.4790 C   0  0  1  0  0  3  0  0  0  0  0  0
  185.1420  178.1160  144.6990 C   0  0  0  0  0  3  0  0  0  0  0  0
  187.4050  177.9420  145.5450 C   0  0  0  0  0  3  0  0  0  0  0  0
  186.4770  177.7240  144.5170 C   0  0  0  0  0  0  0  0  0  0  0  0
  184.7330  178.6820  145.9100 C   0  0  0  0  0  3  0  0  0  0  0  0
  186.9940  178.5080  146.7550 C   0  0  0  0  0  3  0  0  0  0  0  0
  185.6580  178.8760  146.9390 C   0  0  0  0  0  3  0  0  0  0  0  0
  185.6950  179.2080  142.2110 C   0  0  0  0  0  2  0  0  0  0  0  0
  185.3240  179.7760  140.9940 O   0  0  0  0  0  1  0  0  0  0  0  0
  189.8680  176.8870  139.3580 C   0  0  0  0  0  2  0  0  0  0  0  0
  189.7430  177.3390  137.9050 C   0  0  0  0  0  2  0  0  0  0  0  0
  188.6550  176.6410  137.2340 N   0  0  0  0  0  2  0  0  0  0  0  0
  187.7420  177.6460  136.7080 C   0  0  0  0  0  2  0  0  0  0  0  0
  186.4080  175.5380  136.7430 C   0  0  0  0  0  2  0  0  0  0  0  0
  183.9970  175.7050  137.3930 C   0  0  0  0  0  0  0  0  0  0  0  0
  182.8630  175.1670  137.4940 O   0  0  0  0  0  0  0  0  0  0  0  0
  185.0530  174.9960  136.7330 N   0  0  0  0  0  2  0  0  0  0  0  0
  186.3550  177.0500  136.5460 C   0  0  1  0  0  3  0  0  0  0  0  0
  185.4020  177.6720  137.5320 C   0  0  0  0  0  3  0  0  0  0  0  0
  184.2610  177.0750  137.9100 C   0  0  0  0  0  0  0  0  0  0  0  0
  183.3420  177.7780  138.8510 C   0  0  0  0  0  0  0  0  0  0  0  0
  181.6050  179.0850  140.6380 C   0  0  0  0  0  3  0  0  0  0  0  0
  181.7740  179.5850  139.3380 C   0  0  0  0  0  0  0  0  0  0  0  0
  183.1540  177.2930  140.1580 C   0  0  0  0  0  3  0  0  0  0  0  0
  182.2930  177.9410  141.0450 C   0  0  0  0  0  3  0  0  0  0  0  0
  182.6380  178.9270  138.4570 C   0  0  0  0  0  3  0  0  0  0  0  0
  181.7630  181.8210  138.2790 C   0  0  0  0  0  1  0  0  0  0  0  0
  181.1000  180.7280  138.8990 O   0  0  0  0  0  0  0  0  0  0  0  0
  189.6630  176.3230  142.2550 C   0  0  0  0  0  2  0  0  0  0  0  0
  190.3940  176.6940  145.2660 C   0  0  0  0  0  2  0  0  0  0  0  0
  190.8370  178.4080  142.9560 C   0  0  0  0  0  2  0  0  0  0  0  0
  191.4370  178.7520  144.3050 C   0  0  0  0  0  2  0  0  0  0  0  0
  190.9620  176.9080  142.7990 C   0  0  1  0  0  3  0  0  0  0  0  0
  191.6890  177.4580  145.0680 C   0  0  2  0  0  3  0  0  0  0  0  0
  191.3480  176.3010  144.1470 C   0  0  1  0  0  3  0  0  0  0  0  0
  1  3  2  0  0  0  0
  2 34  1  0  0  0  0
  3  2  1  0  0  0  0
  4 13  1  1  0  0  0
  4  6  1  0  0  0  0
  4  5  1  0  0  0  0
  5  9  1  1  0  0  0
  6  2  1  6  0  0  0
  6  5  1  0  0  0  0
  7 10  1  0  0  0  0
  8 11  2  0  0  0  0
  9  7  2  0  0  0  0
  9  8  1  0  0  0  0
 10 12  2  0  0  0  0
 11 12  1  0  0  0  0
 14 13  1  0  0  0  0
 15  3  1  0  0  0  0
 16 15  1  0  0  0  0
 17 16  1  0  0  0  0
 18 17  1  0  0  0  0
 20 21  2  0  0  0  0
 20 25  1  0  0  0  0
 22 19  1  0  0  0  0
 22 20  1  0  0  0  0
 23 18  1  1  0  0  0
 23 19  1  0  0  0  0
 23 24  1  0  0  0  0
 24 25  2  0  0  0  0
 25 26  1  0  0  0  0
 26 29  1  0  0  0  0
 27 30  1  0  0  0  0
 28 27  2  0  0  0  0
 29 30  2  0  0  0  0
 31 26  2  0  0  0  0
 31 28  1  0  0  0  0
 32 33  1  0  0  0  0
 33 28  1  0  0  0  0
 36 37  1  0  0  0  0
 38 34  1  1  0  0  0
 38 36  1  0  0  0  0
 38 40  1  0  0  0  0
 39 37  1  6  0  0  0
 39 35  1  0  0  0  0
 40 39  1  0  0  0  0
 40 35  1  1  0  0  0
M  END
>  <MODEL>
5

>  <REMARK>
 VINA RESULT:      -8.3      3.195      9.885
  Name = 
  12 active torsions:
  status: ('A' for Active; 'I' for Inactive)
    1  A    between atoms: C_3  and  N_5
    2  A    between atoms: C_3  and  C_30
    3  A    between atoms: C_4  and  C_40
    4  A    between atoms: N_5  and  C_29
    5  A    between atoms: C_12  and  O_13
    6  A    between atoms: C_15  and  C_29
    7  A    between atoms: C_15  and  C_33
    8  A    between atoms: N_17  and  C_36
    9  A    between atoms: N_17  and  C_37
   10  A    between atoms: C_19  and  C_32
   11  A    between atoms: C_21  and  C_36
   12  A    between atoms: C_28  and  C_34
                            x       y       z     vdW  Elec       q    Type
                         _______ _______ _______ _____ _____    ______ ____

>  <TORSDO>
F 12

$$$$
=
 OpenBabel11062417573D

 40 45  0  0  1  0  0  0  0  0999 V2000
  184.2590  180.1090  139.0590 N   0  0  0  0  0  2  0  0  0  0  0  0
  181.9230  179.7150  139.1690 N   0  0  0  0  0  0  0  0  0  0  0  0
  183.2720  179.4920  139.6240 C   0  0  0  0  0  0  0  0  0  0  0  0
  180.4450  180.0800  137.2580 C   0  0  2  0  0  3  0  0  0  0  0  0
  180.3270  181.3040  138.1770 C   0  0  1  0  0  3  0  0  0  0  0  0
  181.6620  180.5810  138.0170 C   0  0  1  0  0  3  0  0  0  0  0  0
  181.4560  183.4650  137.4990 C   0  0  0  0  0  3  0  0  0  0  0  0
  179.1420  183.1030  136.8820 C   0  0  0  0  0  3  0  0  0  0  0  0
  180.3220  182.6390  137.4810 C   0  0  0  0  0  0  0  0  0  0  0  0
  181.4210  184.7230  136.8910 C   0  0  0  0  0  3  0  0  0  0  0  0
  179.1090  184.3610  136.2750 C   0  0  0  0  0  3  0  0  0  0  0  0
  180.2490  185.1700  136.2770 C   0  0  0  0  0  3  0  0  0  0  0  0
  180.6360  180.3760  135.7760 C   0  0  0  0  0  2  0  0  0  0  0  0
  181.1430  179.2430  135.1400 O   0  0  0  0  0  1  0  0  0  0  0  0
  183.5660  178.4250  140.6360 C   0  0  0  0  0  2  0  0  0  0  0  0
  184.5980  178.8830  141.6630 C   0  0  0  0  0  2  0  0  0  0  0  0
  184.5970  178.0090  142.8280 N   0  0  0  0  0  2  0  0  0  0  0  0
  183.9830  178.7390  143.9290 C   0  0  0  0  0  2  0  0  0  0  0  0
  184.4910  178.4030  146.3480 C   0  0  0  0  0  2  0  0  0  0  0  0
  186.8950  178.2100  147.0100 C   0  0  0  0  0  0  0  0  0  0  0  0
  187.7690  178.1630  147.9150 O   0  0  0  0  0  0  0  0  0  0  0  0
  185.5370  178.4970  147.3600 N   0  0  0  0  0  2  0  0  0  0  0  0
  185.0040  178.9700  145.0280 C   0  0  1  0  0  3  0  0  0  0  0  0
  186.3180  178.3330  144.6620 C   0  0  0  0  0  3  0  0  0  0  0  0
  187.2440  178.0070  145.5770 C   0  0  0  0  0  0  0  0  0  0  0  0
  188.5430  177.4270  145.1320 C   0  0  0  0  0  0  0  0  0  0  0  0
  190.9850  176.3200  144.2770 C   0  0  0  0  0  3  0  0  0  0  0  0
  190.8780  176.8590  145.5680 C   0  0  0  0  0  0  0  0  0  0  0  0
  188.6740  176.8780  143.8440 C   0  0  0  0  0  3  0  0  0  0  0  0
  189.8840  176.3280  143.4190 C   0  0  0  0  0  3  0  0  0  0  0  0
  189.6600  177.4050  145.9840 C   0  0  0  0  0  3  0  0  0  0  0  0
  192.1040  175.9170  147.4990 C   0  0  0  0  0  1  0  0  0  0  0  0
  191.9610  176.8660  146.4520 O   0  0  0  0  0  0  0  0  0  0  0  0
  180.7990  179.2370  139.9740 C   0  0  0  0  0  2  0  0  0  0  0  0
  179.1680  177.1050  138.3830 C   0  0  0  0  0  2  0  0  0  0  0  0
  179.8720  177.2750  141.2020 C   0  0  0  0  0  2  0  0  0  0  0  0
  179.1970  176.0380  140.6440 C   0  0  0  0  0  2  0  0  0  0  0  0
  180.8740  177.7260  140.1600 C   0  0  1  0  0  3  0  0  0  0  0  0
  179.5940  175.8870  139.1810 C   0  0  2  0  0  3  0  0  0  0  0  0
  180.6070  176.9710  138.8590 C   0  0  1  0  0  3  0  0  0  0  0  0
  1  3  2  0  0  0  0
  2  3  1  0  0  0  0
  2 34  1  0  0  0  0
  3 15  1  0  0  0  0
  4 13  1  6  0  0  0
  4  6  1  0  0  0  0
  4  5  1  0  0  0  0
  5  9  1  6  0  0  0
  6  5  1  0  0  0  0
  6  2  1  1  0  0  0
  8  9  2  0  0  0  0
  9  7  1  0  0  0  0
 10  7  2  0  0  0  0
 11 12  2  0  0  0  0
 11  8  1  0  0  0  0
 12 10  1  0  0  0  0
 14 13  1  0  0  0  0
 15 16  1  0  0  0  0
 16 17  1  0  0  0  0
 17 18  1  0  0  0  0
 19 22  1  0  0  0  0
 20 22  1  0  0  0  0
 20 21  2  0  0  0  0
 23 18  1  6  0  0  0
 23 19  1  0  0  0  0
 24 23  1  0  0  0  0
 24 25  2  0  0  0  0
 25 20  1  0  0  0  0
 26 25  1  0  0  0  0
 26 31  1  0  0  0  0
 27 28  1  0  0  0  0
 28 31  2  0  0  0  0
 28 33  1  0  0  0  0
 29 26  2  0  0  0  0
 30 29  1  0  0  0  0
 30 27  2  0  0  0  0
 33 32  1  0  0  0  0
 37 36  1  0  0  0  0
 38 34  1  6  0  0  0
 38 36  1  0  0  0  0
 39 35  1  6  0  0  0
 39 37  1  0  0  0  0
 40 35  1  6  0  0  0
 40 39  1  0  0  0  0
 40 38  1  0  0  0  0
M  END
>  <MODEL>
6

>  <REMARK>
 VINA RESULT:      -8.3      1.378      2.184
  Name = 
  12 active torsions:
  status: ('A' for Active; 'I' for Inactive)
    1  A    between atoms: C_3  and  N_5
    2  A    between atoms: C_3  and  C_30
    3  A    between atoms: C_4  and  C_40
    4  A    between atoms: N_5  and  C_29
    5  A    between atoms: C_12  and  O_13
    6  A    between atoms: C_15  and  C_29
    7  A    between atoms: C_15  and  C_33
    8  A    between atoms: N_17  and  C_36
    9  A    between atoms: N_17  and  C_37
   10  A    between atoms: C_19  and  C_32
   11  A    between atoms: C_21  and  C_36
   12  A    between atoms: C_28  and  C_34
                            x       y       z     vdW  Elec       q    Type
                         _______ _______ _______ _____ _____    ______ ____

>  <TORSDO>
F 12

$$$$
=
 OpenBabel11062417573D

 40 45  0  0  1  0  0  0  0  0999 V2000
  185.6910  179.0260  139.4920 N   0  0  0  0  0  2  0  0  0  0  0  0
  183.7090  178.3470  138.3800 N   0  0  0  0  0  0  0  0  0  0  0  0
  185.1440  178.4390  138.4760 C   0  0  0  0  0  0  0  0  0  0  0  0
  181.4290  179.0750  138.8730 C   0  0  2  0  0  3  0  0  0  0  0  0
  181.8060  177.9990  139.9010 C   0  0  1  0  0  3  0  0  0  0  0  0
  182.8550  178.9820  139.3880 C   0  0  1  0  0  3  0  0  0  0  0  0
  182.3370  178.8010  142.2420 C   0  0  0  0  0  3  0  0  0  0  0  0
  180.1130  177.9740  141.7580 C   0  0  0  0  0  3  0  0  0  0  0  0
  181.4060  178.2940  141.3230 C   0  0  0  0  0  0  0  0  0  0  0  0
  181.9660  179.0230  143.5710 C   0  0  0  0  0  3  0  0  0  0  0  0
  179.7430  178.1960  143.0880 C   0  0  0  0  0  3  0  0  0  0  0  0
  180.6680  178.7230  143.9940 C   0  0  0  0  0  3  0  0  0  0  0  0
  180.7870  180.3370  139.4340 C   0  0  0  0  0  2  0  0  0  0  0  0
  181.3260  181.4530  138.7950 O   0  0  0  0  0  1  0  0  0  0  0  0
  186.0110  178.0090  137.3310 C   0  0  0  0  0  2  0  0  0  0  0  0
  187.2570  177.2680  137.8070 C   0  0  0  0  0  2  0  0  0  0  0  0
  188.4580  178.0520  137.5550 N   0  0  0  0  0  2  0  0  0  0  0  0
  188.9140  178.5880  138.8300 C   0  0  0  0  0  2  0  0  0  0  0  0
  190.6680  177.2720  140.0200 C   0  0  0  0  0  2  0  0  0  0  0  0
  190.0640  176.2720  142.2320 C   0  0  0  0  0  0  0  0  0  0  0  0
  190.3510  175.5050  143.1880 O   0  0  0  0  0  0  0  0  0  0  0  0
  190.8970  176.2820  141.0670 N   0  0  0  0  0  2  0  0  0  0  0  0
  189.1690  177.4530  139.8060 C   0  0  1  0  0  3  0  0  0  0  0  0
  188.4830  177.7280  141.1180 C   0  0  0  0  0  3  0  0  0  0  0  0
  188.8610  177.1470  142.2670 C   0  0  0  0  0  0  0  0  0  0  0  0
  188.0990  177.4310  143.5170 C   0  0  0  0  0  0  0  0  0  0  0  0
  186.6450  177.9770  145.8630 C   0  0  0  0  0  3  0  0  0  0  0  0
  188.0260  177.7390  145.9380 C   0  0  0  0  0  0  0  0  0  0  0  0
  186.7150  177.6760  143.4670 C   0  0  0  0  0  3  0  0  0  0  0  0
  185.9930  177.9470  144.6300 C   0  0  0  0  0  3  0  0  0  0  0  0
  188.7400  177.4700  144.7660 C   0  0  0  0  0  3  0  0  0  0  0  0
  188.0830  178.1080  148.3840 C   0  0  0  0  0  1  0  0  0  0  0  0
  188.7100  177.7610  147.1570 O   0  0  0  0  0  0  0  0  0  0  0  0
  183.1050  177.4570  137.3890 C   0  0  0  0  0  2  0  0  0  0  0  0
  184.0190  174.8800  135.8860 C   0  0  0  0  0  2  0  0  0  0  0  0
  181.6970  175.4060  137.5600 C   0  0  0  0  0  2  0  0  0  0  0  0
  181.9980  174.0040  137.0690 C   0  0  0  0  0  2  0  0  0  0  0  0
  183.0270  176.0310  137.9220 C   0  0  1  0  0  3  0  0  0  0  0  0
  183.5050  173.8660  136.8900 C   0  0  2  0  0  3  0  0  0  0  0  0
  184.1510  175.1510  137.3780 C   0  0  1  0  0  3  0  0  0  0  0  0
  2  3  1  0  0  0  0
  3  1  2  0  0  0  0
  4  6  1  0  0  0  0
  4 13  1  1  0  0  0
  4  5  1  0  0  0  0
  5  9  1  1  0  0  0
  6  2  1  6  0  0  0
  6  5  1  0  0  0  0
  7 10  1  0  0  0  0
  8 11  2  0  0  0  0
  9  8  1  0  0  0  0
  9  7  2  0  0  0  0
 10 12  2  0  0  0  0
 11 12  1  0  0  0  0
 14 13  1  0  0  0  0
 15 16  1  0  0  0  0
 15  3  1  0  0  0  0
 17 16  1  0  0  0  0
 17 18  1  0  0  0  0
 19 22  1  0  0  0  0
 20 25  1  0  0  0  0
 20 21  2  0  0  0  0
 22 20  1  0  0  0  0
 23 18  1  6  0  0  0
 23 19  1  0  0  0  0
 23 24  1  0  0  0  0
 24 25  2  0  0  0  0
 25 26  1  0  0  0  0
 26 31  1  0  0  0  0
 27 28  1  0  0  0  0
 28 33  1  0  0  0  0
 29 26  2  0  0  0  0
 29 30  1  0  0  0  0
 30 27  2  0  0  0  0
 31 28  2  0  0  0  0
 33 32  1  0  0  0  0
 34  2  1  0  0  0  0
 36 38  1  0  0  0  0
 37 36  1  0  0  0  0
 38 34  1  6  0  0  0
 39 35  1  6  0  0  0
 39 37  1  0  0  0  0
 39 40  1  0  0  0  0
 40 35  1  6  0  0  0
 40 38  1  0  0  0  0
M  END
>  <MODEL>
7

>  <REMARK>
 VINA RESULT:      -8.3      3.135      5.918
  Name = 
  12 active torsions:
  status: ('A' for Active; 'I' for Inactive)
    1  A    between atoms: C_3  and  N_5
    2  A    between atoms: C_3  and  C_30
    3  A    between atoms: C_4  and  C_40
    4  A    between atoms: N_5  and  C_29
    5  A    between atoms: C_12  and  O_13
    6  A    between atoms: C_15  and  C_29
    7  A    between atoms: C_15  and  C_33
    8  A    between atoms: N_17  and  C_36
    9  A    between atoms: N_17  and  C_37
   10  A    between atoms: C_19  and  C_32
   11  A    between atoms: C_21  and  C_36
   12  A    between atoms: C_28  and  C_34
                            x       y       z     vdW  Elec       q    Type
                         _______ _______ _______ _____ _____    ______ ____

>  <TORSDO>
F 12

$$$$
=
 OpenBabel11062417573D

 40 45  0  0  1  0  0  0  0  0999 V2000
  187.4320  178.2990  139.2610 N   0  0  0  0  0  2  0  0  0  0  0  0
  186.5980  176.8010  137.6230 N   0  0  0  0  0  0  0  0  0  0  0  0
  186.4410  177.9160  138.5210 C   0  0  0  0  0  0  0  0  0  0  0  0
  187.9530  175.2640  136.2910 C   0  0  2  0  0  3  0  0  0  0  0  0
  188.7620  176.5550  136.4770 C   0  0  1  0  0  3  0  0  0  0  0  0
  187.8520  176.0440  137.5910 C   0  0  1  0  0  3  0  0  0  0  0  0
  190.6860  176.5220  138.1230 C   0  0  0  0  0  3  0  0  0  0  0  0
  191.1360  176.1140  135.7780 C   0  0  0  0  0  3  0  0  0  0  0  0
  190.2190  176.3640  136.8080 C   0  0  0  0  0  0  0  0  0  0  0  0
  192.0480  176.3910  138.4070 C   0  0  0  0  0  3  0  0  0  0  0  0
  192.4970  175.9830  136.0640 C   0  0  0  0  0  3  0  0  0  0  0  0
  192.9530  176.1190  137.3780 C   0  0  0  0  0  3  0  0  0  0  0  0
  188.7010  173.9650  136.5560 C   0  0  0  0  0  2  0  0  0  0  0  0
  187.8240  173.0280  137.1020 O   0  0  0  0  0  1  0  0  0  0  0  0
  185.0920  178.5350  138.7360 C   0  0  0  0  0  2  0  0  0  0  0  0
  185.0480  179.3770  140.0080 C   0  0  0  0  0  2  0  0  0  0  0  0
  183.9490  178.9620  140.8690 N   0  0  0  0  0  2  0  0  0  0  0  0
  184.4840  178.0370  141.8570 C   0  0  0  0  0  2  0  0  0  0  0  0
  183.5200  178.6190  144.0830 C   0  0  0  0  0  2  0  0  0  0  0  0
  185.1150  178.9900  145.9740 C   0  0  0  0  0  0  0  0  0  0  0  0
  185.3250  179.3740  147.1550 O   0  0  0  0  0  0  0  0  0  0  0  0
  183.8240  179.1940  145.3890 N   0  0  0  0  0  2  0  0  0  0  0  0
  184.7300  178.7650  143.1670 C   0  0  1  0  0  3  0  0  0  0  0  0
  185.9640  178.2250  143.8400 C   0  0  0  0  0  3  0  0  0  0  0  0
  186.1870  178.3600  145.1570 C   0  0  0  0  0  0  0  0  0  0  0  0
  187.4570  177.8430  145.7420 C   0  0  0  0  0  0  0  0  0  0  0  0
  189.8490  176.8780  146.8670 C   0  0  0  0  0  3  0  0  0  0  0  0
  189.7880  177.1580  145.4940 C   0  0  0  0  0  0  0  0  0  0  0  0
  187.5430  177.5590  147.1170 C   0  0  0  0  0  3  0  0  0  0  0  0
  188.7290  177.0800  147.6760 C   0  0  0  0  0  3  0  0  0  0  0  0
  188.5950  177.6390  144.9450 C   0  0  0  0  0  3  0  0  0  0  0  0
  190.8940  176.0270  143.5920 C   0  0  0  0  0  1  0  0  0  0  0  0
  190.8910  176.9670  144.6570 O   0  0  0  0  0  0  0  0  0  0  0  0
  185.5820  176.5450  136.6030 C   0  0  0  0  0  2  0  0  0  0  0  0
  184.5270  173.7010  135.8650 C   0  0  0  0  0  2  0  0  0  0  0  0
  183.1200  176.1870  136.4270 C   0  0  0  0  0  2  0  0  0  0  0  0
  182.3600  174.8880  136.2480 C   0  0  0  0  0  2  0  0  0  0  0  0
  184.3690  175.8500  137.2130 C   0  0  1  0  0  3  0  0  0  0  0  0
  183.2540  173.7370  136.6900 C   0  0  2  0  0  3  0  0  0  0  0  0
  184.5340  174.3320  137.2510 C   0  0  1  0  0  3  0  0  0  0  0  0
  2  3  1  0  0  0  0
  3 15  1  0  0  0  0
  3  1  2  0  0  0  0
  4  5  1  0  0  0  0
  4 13  1  1  0  0  0
  4  6  1  0  0  0  0
  5  9  1  1  0  0  0
  5  6  1  0  0  0  0
  6  2  1  6  0  0  0
  7 10  1  0  0  0  0
  8 11  2  0  0  0  0
  8  9  1  0  0  0  0
  9  7  2  0  0  0  0
 11 12  1  0  0  0  0
 12 10  2  0  0  0  0
 13 14  1  0  0  0  0
 15 16  1  0  0  0  0
 16 17  1  0  0  0  0
 17 18  1  0  0  0  0
 19 22  1  0  0  0  0
 20 21  2  0  0  0  0
 22 20  1  0  0  0  0
 23 18  1  6  0  0  0
 23 24  1  0  0  0  0
 23 19  1  0  0  0  0
 24 25  2  0  0  0  0
 25 26  1  0  0  0  0
 25 20  1  0  0  0  0
 26 29  1  0  0  0  0
 27 30  1  0  0  0  0
 28 27  2  0  0  0  0
 29 30  2  0  0  0  0
 31 28  1  0  0  0  0
 31 26  2  0  0  0  0
 32 33  1  0  0  0  0
 33 28  1  0  0  0  0
 34  2  1  0  0  0  0
 36 38  1  0  0  0  0
 37 36  1  0  0  0  0
 37 39  1  0  0  0  0
 38 34  1  6  0  0  0
 38 40  1  0  0  0  0
 39 35  1  6  0  0  0
 39 40  1  0  0  0  0
 40 35  1  6  0  0  0
M  END
>  <MODEL>
8

>  <REMARK>
 VINA RESULT:      -8.2      4.250      7.443
  Name = 
  12 active torsions:
  status: ('A' for Active; 'I' for Inactive)
    1  A    between atoms: C_3  and  N_5
    2  A    between atoms: C_3  and  C_30
    3  A    between atoms: C_4  and  C_40
    4  A    between atoms: N_5  and  C_29
    5  A    between atoms: C_12  and  O_13
    6  A    between atoms: C_15  and  C_29
    7  A    between atoms: C_15  and  C_33
    8  A    between atoms: N_17  and  C_36
    9  A    between atoms: N_17  and  C_37
   10  A    between atoms: C_19  and  C_32
   11  A    between atoms: C_21  and  C_36
   12  A    between atoms: C_28  and  C_34
                            x       y       z     vdW  Elec       q    Type
                         _______ _______ _______ _____ _____    ______ ____

>  <TORSDO>
F 12

$$$$
=
 OpenBabel11062417573D

 40 45  0  0  1  0  0  0  0  0999 V2000
  188.8640  178.1610  139.6210 N   0  0  0  0  0  2  0  0  0  0  0  0
  189.9360  176.6480  138.1430 N   0  0  0  0  0  0  0  0  0  0  0  0
  189.8930  177.4210  139.3580 C   0  0  0  0  0  0  0  0  0  0  0  0
  188.9490  175.6020  136.1670 C   0  0  2  0  0  3  0  0  0  0  0  0
  187.9000  175.5620  137.2870 C   0  0  1  0  0  3  0  0  0  0  0  0
  188.8530  176.7480  137.1600 C   0  0  1  0  0  3  0  0  0  0  0  0
  186.0330  177.2430  136.9710 C   0  0  0  0  0  3  0  0  0  0  0  0
  185.6150  174.9100  136.4680 C   0  0  0  0  0  3  0  0  0  0  0  0
  186.4970  175.9210  136.8730 C   0  0  0  0  0  0  0  0  0  0  0  0
  184.7140  177.5520  136.6310 C   0  0  0  0  0  3  0  0  0  0  0  0
  184.2950  175.2220  136.1290 C   0  0  0  0  0  3  0  0  0  0  0  0
  183.8450  176.5430  136.2070 C   0  0  0  0  0  3  0  0  0  0  0  0
  188.4570  176.0890  134.8100 C   0  0  0  0  0  2  0  0  0  0  0  0
  188.8830  177.4010  134.6070 O   0  0  0  0  0  1  0  0  0  0  0  0
  191.0990  177.5120  140.2440 C   0  0  0  0  0  2  0  0  0  0  0  0
  191.0000  176.5680  141.4390 C   0  0  0  0  0  2  0  0  0  0  0  0
  191.9680  176.9260  142.4660 N   0  0  0  0  0  2  0  0  0  0  0  0
  191.3370  177.8940  143.3530 C   0  0  0  0  0  2  0  0  0  0  0  0
  191.2690  177.4330  145.8040 C   0  0  0  0  0  2  0  0  0  0  0  0
  189.0360  176.9630  146.8310 C   0  0  0  0  0  0  0  0  0  0  0  0
  188.3580  176.5840  147.8220 O   0  0  0  0  0  0  0  0  0  0  0  0
  190.4640  176.8570  146.8760 N   0  0  0  0  0  2  0  0  0  0  0  0
  190.5930  177.1710  144.4610 C   0  0  1  0  0  3  0  0  0  0  0  0
  189.1560  177.6180  144.5030 C   0  0  0  0  0  3  0  0  0  0  0  0
  188.3900  177.4870  145.5980 C   0  0  0  0  0  0  0  0  0  0  0  0
  186.9600  177.9060  145.5460 C   0  0  0  0  0  0  0  0  0  0  0  0
  184.2590  178.6900  145.4700 C   0  0  0  0  0  3  0  0  0  0  0  0
  184.9000  178.2860  144.2900 C   0  0  0  0  0  0  0  0  0  0  0  0
  186.2940  178.3110  146.7170 C   0  0  0  0  0  3  0  0  0  0  0  0
  184.9540  178.7010  146.6800 C   0  0  0  0  0  3  0  0  0  0  0  0
  186.2430  177.8970  144.3380 C   0  0  0  0  0  3  0  0  0  0  0  0
  184.8010  178.7820  141.8680 C   0  0  0  0  0  1  0  0  0  0  0  0
  184.2330  178.2640  143.0620 O   0  0  0  0  0  0  0  0  0  0  0  0
  190.9580  175.6150  137.9780 C   0  0  0  0  0  2  0  0  0  0  0  0
  192.4530  174.6180  135.4260 C   0  0  0  0  0  2  0  0  0  0  0  0
  193.4510  175.5420  138.0000 C   0  0  0  0  0  2  0  0  0  0  0  0
  194.4030  175.2590  136.8550 C   0  0  0  0  0  2  0  0  0  0  0  0
  192.2350  176.2100  137.3940 C   0  0  1  0  0  3  0  0  0  0  0  0
  193.6720  175.5140  135.5430 C   0  0  2  0  0  3  0  0  0  0  0  0
  192.2970  176.0650  135.8750 C   0  0  1  0  0  3  0  0  0  0  0  0
  2  3  1  0  0  0  0
  3  1  2  0  0  0  0
  3 15  1  0  0  0  0
  4 13  1  6  0  0  0
  4  6  1  0  0  0  0
  4  5  1  0  0  0  0
  5  9  1  6  0  0  0
  6  5  1  0  0  0  0
  6  2  1  1  0  0  0
  8  9  2  0  0  0  0
  9  7  1  0  0  0  0
 10  7  2  0  0  0  0
 11 12  2  0  0  0  0
 11  8  1  0  0  0  0
 12 10  1  0  0  0  0
 14 13  1  0  0  0  0
 15 16  1  0  0  0  0
 16 17  1  0  0  0  0
 17 18  1  0  0  0  0
 19 22  1  0  0  0  0
 20 22  1  0  0  0  0
 20 21  2  0  0  0  0
 23 18  1  6  0  0  0
 23 24  1  0  0  0  0
 23 19  1  0  0  0  0
 24 25  2  0  0  0  0
 25 20  1  0  0  0  0
 26 25  1  0  0  0  0
 26 29  1  0  0  0  0
 27 30  1  0  0  0  0
 28 31  1  0  0  0  0
 28 27  2  0  0  0  0
 30 29  2  0  0  0  0
 31 26  2  0  0  0  0
 32 33  1  0  0  0  0
 33 28  1  0  0  0  0
 34  2  1  0  0  0  0
 37 36  1  0  0  0  0
 38 34  1  1  0  0  0
 38 36  1  0  0  0  0
 39 35  1  1  0  0  0
 39 40  1  0  0  0  0
 39 37  1  0  0  0  0
 40 35  1  1  0  0  0
 40 38  1  0  0  0  0
M  END
>  <MODEL>
9

>  <REMARK>
 VINA RESULT:      -8.1      4.782      8.898
  Name = 
  12 active torsions:
  status: ('A' for Active; 'I' for Inactive)
    1  A    between atoms: C_3  and  N_5
    2  A    between atoms: C_3  and  C_30
    3  A    between atoms: C_4  and  C_40
    4  A    between atoms: N_5  and  C_29
    5  A    between atoms: C_12  and  O_13
    6  A    between atoms: C_15  and  C_29
    7  A    between atoms: C_15  and  C_33
    8  A    between atoms: N_17  and  C_36
    9  A    between atoms: N_17  and  C_37
   10  A    between atoms: C_19  and  C_32
   11  A    between atoms: C_21  and  C_36
   12  A    between atoms: C_28  and  C_34
                            x       y       z     vdW  Elec       q    Type
                         _______ _______ _______ _____ _____    ______ ____

>  <TORSDO>
F 12

$$$$
