=
 OpenBabel11062417513D

 58 62  0  0  1  0  0  0  0  0999 V2000
  185.9740  178.7520  136.5270 O   0  0  0  0  0  0  0  0  0  0  0  0
  187.0730  175.5820  135.7130 C   0  0  0  0  0  2  0  0  0  0  0  0
  182.0720  173.8680  136.1240 C   0  0  2  0  0  3  0  0  0  0  0  0
  181.6540  175.2750  138.1480 C   0  0  0  0  0  3  0  0  0  0  0  0
  185.7930  179.3110  139.2230 O   0  0  0  0  0  0  0  0  0  0  0  0
  182.0090  178.1800  141.1500 C   0  0  0  0  0  2  0  0  0  0  0  0
  179.7200  176.7380  138.3160 C   0  0  0  0  0  0  0  0  0  0  0  0
  178.9310  177.6440  139.0320 O   0  0  0  0  0  0  0  0  0  0  0  0
  184.8950  178.6940  138.6680 C   0  0  0  0  0  0  0  0  0  0  0  0
  179.3320  176.3620  137.0260 C   0  0  0  0  0  3  0  0  0  0  0  0
  185.8940  175.7530  134.7570 C   0  0  0  0  0  2  0  0  0  0  0  0
  183.4590  175.3440  134.6110 C   0  0  0  0  0  2  0  0  0  0  0  0
  187.1070  176.6300  136.8480 C   0  0  1  0  0  3  0  0  0  0  0  0
  181.0250  179.3420  141.2140 C   0  0  1  0  0  3  0  0  0  0  0  0
  188.2620  178.7970  137.2340 C   0  0  0  0  0  1  0  0  0  0  0  0
  181.2680  174.9010  136.8560 C   0  0  0  0  0  0  0  0  0  0  0  0
  179.2360  178.0060  140.2890 O   0  0  0  0  0  0  0  0  0  0  0  0
  187.2240  178.0910  136.3750 C   0  0  2  0  0  0  0  0  0  0  0  0
  182.8140  180.0020  138.6870 C   0  0  0  0  0  1  0  0  0  0  0  0
  183.4910  178.7390  139.2010 C   0  0  2  0  0  3  0  0  0  0  0  0
  185.8470  176.6780  137.5940 C   0  0  0  0  0  0  0  0  0  0  0  0
  180.8840  176.1900  138.8750 C   0  0  0  0  0  3  0  0  0  0  0  0
  183.3970  178.6580  140.7390 C   0  0  2  0  0  3  0  0  0  0  0  0
  180.0980  175.4430  136.2990 C   0  0  0  0  0  3  0  0  0  0  0  0
  185.1570  177.9660  137.3790 C   0  0  2  0  0  3  0  0  0  0  0  0
  185.4190  175.7670  138.2880 O   0  0  0  0  0  0  0  0  0  0  0  0
  182.3750  174.2830  134.6830 C   0  0  0  0  0  2  0  0  0  0  0  0
  187.6320  178.1770  135.0380 O   0  0  0  0  0  1  0  0  0  0  0  0
  184.7750  174.8100  135.1440 C   0  0  0  0  0  2  0  0  0  0  0  0
  179.9210  179.2200  140.1630 C   0  0  0  0  0  2  0  0  0  0  0  0
  180.4900  179.5800  142.6260 C   0  0  0  0  0  2  0  0  0  0  0  0
  180.4540  178.3120  143.4670 C   0  0  0  0  0  1  0  0  0  0  0  0
  184.3600  177.7640  141.2650 O   0  0  0  0  0  0  0  0  0  0  0  0
  185.0940  179.7710  142.2090 O   0  0  0  0  0  1  0  0  0  0  0  0
  185.0150  178.3810  142.3660 C   0  0  2  0  0  3  0  0  0  0  0  0
  186.3870  177.7650  142.6570 C   0  0  0  0  0  2  0  0  0  0  0  0
  190.2900  177.0660  146.3900 C   0  0  0  0  0  2  0  0  0  0  0  0
  186.7210  177.8060  144.1150 C   0  0  2  0  0  3  0  0  0  0  0  0
  185.8560  178.1130  145.0290 N   0  0  0  0  0  2  0  0  0  0  0  0
  186.0170  178.3830  147.3740 O   0  0  0  0  0  0  0  0  0  0  0  0
  189.1080  176.7100  144.1300 C   0  0  0  0  0  2  0  0  0  0  0  0
  189.1090  177.9420  146.8580 C   0  0  2  0  0  3  0  0  0  0  0  0
  190.4360  177.0200  144.8490 C   0  0  0  0  0  2  0  0  0  0  0  0
  186.5460  178.0620  146.2740 C   0  0  0  0  0  0  0  0  0  0  0  0
  188.9350  177.7770  148.3580 C   0  0  0  0  0  1  0  0  0  0  0  0
  187.8820  177.4390  146.1160 C   0  0  1  0  0  3  0  0  0  0  0  0
  188.1090  177.7160  144.6550 C   0  0  2  0  0  3  0  0  0  0  0  0
  181.3490  172.5260  136.1570 C   0  0  0  0  0  2  0  0  0  0  0  0
  182.2260  171.4330  136.7540 C   0  0  0  0  0  2  0  0  0  0  0  0
  182.8420  170.5760  135.6860 C   0  0  0  0  0  0  0  0  0  0  0  0
  182.1260  170.0890  134.8250 O   0  0  0  0  0  0  0  0  0  0  0  0
  184.3200  170.2730  135.6490 C   0  0  0  0  0  2  0  0  0  0  0  0
  184.9520  172.2940  134.5940 F   0  0  0  0  0  0  0  0  0  0  0  0
  185.0660  172.2190  136.8320 F   0  0  0  0  0  0  0  0  0  0  0  0
  185.2610  171.4850  135.6720 C   0  0  0  0  0  0  0  0  0  0  0  0
  187.6140  171.7110  136.1050 O   0  0  0  0  0  1  0  0  0  0  0  0
  186.6960  171.0540  135.5470 C   0  0  0  0  0  0  0  0  0  0  0  0
  187.0210  169.9340  134.7860 O   0  0  0  0  0  0  0  0  0  0  0  0
  3 48  1  6  0  0  0
  3 16  1  0  0  0  0
  4 22  1  0  0  0  0
  6 14  1  0  0  0  0
  7 22  2  0  0  0  0
  7  8  1  0  0  0  0
  8 17  1  0  0  0  0
  9 20  1  0  0  0  0
  9  5  2  0  0  0  0
 10  7  1  0  0  0  0
 11 29  1  0  0  0  0
 11  2  1  0  0  0  0
 12 27  1  0  0  0  0
 12 29  1  0  0  0  0
 13  2  1  6  0  0  0
 13 21  1  0  0  0  0
 14 31  1  1  0  0  0
 16  4  2  0  0  0  0
 18  1  1  0  0  0  0
 18 13  1  0  0  0  0
 18 15  1  1  0  0  0
 20 19  1  1  0  0  0
 20 23  1  0  0  0  0
 21 26  2  0  0  0  0
 23  6  1  0  0  0  0
 23 33  1  6  0  0  0
 24 16  1  0  0  0  0
 24 10  2  0  0  0  0
 25  1  1  6  0  0  0
 25 21  1  0  0  0  0
 25  9  1  0  0  0  0
 27  3  1  0  0  0  0
 28 18  1  0  0  0  0
 30 17  1  0  0  0  0
 30 14  1  0  0  0  0
 31 32  1  0  0  0  0
 33 35  1  0  0  0  0
 35 34  1  6  0  0  0
 35 36  1  0  0  0  0
 37 42  1  0  0  0  0
 38 36  1  6  0  0  0
 38 47  1  0  0  0  0
 38 39  1  0  0  0  0
 39 44  1  0  0  0  0
 41 43  1  0  0  0  0
 42 45  1  1  0  0  0
 43 37  1  0  0  0  0
 44 40  2  0  0  0  0
 46 44  1  1  0  0  0
 46 42  1  0  0  0  0
 47 41  1  6  0  0  0
 47 46  1  0  0  0  0
 48 49  1  0  0  0  0
 50 49  1  0  0  0  0
 51 50  2  0  0  0  0
 52 55  1  0  0  0  0
 52 50  1  0  0  0  0
 53 55  1  0  0  0  0
 55 54  1  0  0  0  0
 57 55  1  0  0  0  0
 57 56  1  0  0  0  0
 58 57  2  0  0  0  0
M  END
>  <MODEL>
1

>  <REMARK>
 VINA RESULT:      -7.8      0.000      0.000
  Name = 
  11 active torsions:
  status: ('A' for Active; 'I' for Inactive)
    1  A    between atoms: C_3  and  C_46
    2  A    between atoms: C_6  and  C_8
    3  A    between atoms: C_6  and  C_46
    4  A    between atoms: C_8  and  C_17
    5  A    between atoms: C_17  and  C_38
    6  A    between atoms: C_18  and  C_57
    7  A    between atoms: C_20  and  C_45
    8  A    between atoms: C_30  and  O_33
    9  A    between atoms: C_30  and  C_57
   10  A    between atoms: O_33  and  C_41
   11  A    between atoms: C_34  and  C_38
                            x       y       z     vdW  Elec       q    Type
                         _______ _______ _______ _____ _____    ______ ____

>  <TORSDO>
F 11

$$$$
=
 OpenBabel11062417513D

 58 62  0  0  1  0  0  0  0  0999 V2000
  185.8090  178.6390  136.4290 O   0  0  0  0  0  0  0  0  0  0  0  0
  186.6190  175.4290  135.4480 C   0  0  0  0  0  2  0  0  0  0  0  0
  181.5610  174.0400  136.2270 C   0  0  2  0  0  3  0  0  0  0  0  0
  181.4050  175.4090  138.3130 C   0  0  0  0  0  3  0  0  0  0  0  0
  185.8860  179.1260  139.1440 O   0  0  0  0  0  0  0  0  0  0  0  0
  182.2000  178.1910  141.3470 C   0  0  0  0  0  2  0  0  0  0  0  0
  179.5960  176.9910  138.6770 C   0  0  0  0  0  0  0  0  0  0  0  0
  178.9310  177.9250  139.4780 O   0  0  0  0  0  0  0  0  0  0  0  0
  184.9050  178.5870  138.6490 C   0  0  0  0  0  0  0  0  0  0  0  0
  179.0810  176.6820  137.4140 C   0  0  0  0  0  3  0  0  0  0  0  0
  185.3810  175.7080  134.5970 C   0  0  0  0  0  2  0  0  0  0  0  0
  182.9200  175.4660  134.6430 C   0  0  0  0  0  2  0  0  0  0  0  0
  186.8170  176.4380  136.6020 C   0  0  1  0  0  3  0  0  0  0  0  0
  181.3060  179.4130  141.5210 C   0  0  1  0  0  3  0  0  0  0  0  0
  188.1450  178.5100  136.9450 C   0  0  0  0  0  1  0  0  0  0  0  0
  180.8920  175.1010  137.0480 C   0  0  0  0  0  0  0  0  0  0  0  0
  179.3620  178.2270  140.7140 O   0  0  0  0  0  0  0  0  0  0  0  0
  186.9950  177.9020  136.1580 C   0  0  2  0  0  0  0  0  0  0  0  0
  182.9270  180.0300  138.8730 C   0  0  0  0  0  1  0  0  0  0  0  0
  183.5550  178.7100  139.2970 C   0  0  2  0  0  3  0  0  0  0  0  0
  185.6270  176.5460  137.4500 C   0  0  0  0  0  0  0  0  0  0  0  0
  180.7610  176.3500  139.1240 C   0  0  0  0  0  3  0  0  0  0  0  0
  183.5800  178.5880  140.8350 C   0  0  2  0  0  3  0  0  0  0  0  0
  179.7210  175.7360  136.6030 C   0  0  0  0  0  3  0  0  0  0  0  0
  185.0120  177.8840  137.3250 C   0  0  2  0  0  3  0  0  0  0  0  0
  185.1950  175.6460  138.1540 O   0  0  0  0  0  0  0  0  0  0  0  0
  181.7750  174.4770  134.7760 C   0  0  0  0  0  2  0  0  0  0  0  0
  187.2990  178.0010  134.7940 O   0  0  0  0  0  1  0  0  0  0  0  0
  184.2360  174.8300  135.0520 C   0  0  0  0  0  2  0  0  0  0  0  0
  180.1150  179.3960  140.5620 C   0  0  0  0  0  2  0  0  0  0  0  0
  180.9050  179.6430  142.9780 C   0  0  0  0  0  2  0  0  0  0  0  0
  181.8860  179.0290  143.9660 C   0  0  0  0  0  1  0  0  0  0  0  0
  184.5190  177.6160  141.2570 O   0  0  0  0  0  0  0  0  0  0  0  0
  185.3090  179.6000  142.2050 O   0  0  0  0  0  1  0  0  0  0  0  0
  185.3980  178.2020  142.2090 C   0  0  2  0  0  3  0  0  0  0  0  0
  186.8460  177.7280  142.0440 C   0  0  0  0  0  2  0  0  0  0  0  0
  186.4370  178.3140  147.4430 C   0  0  0  0  0  2  0  0  0  0  0  0
  187.5870  177.7300  143.3440 C   0  0  2  0  0  3  0  0  0  0  0  0
  188.8640  177.5300  143.4300 N   0  0  0  0  0  2  0  0  0  0  0  0
  190.3480  177.3580  145.2630 O   0  0  0  0  0  0  0  0  0  0  0  0
  185.7520  178.6500  144.9830 C   0  0  0  0  0  2  0  0  0  0  0  0
  187.6930  177.5480  146.9770 C   0  0  2  0  0  3  0  0  0  0  0  0
  185.2880  178.2780  146.4050 C   0  0  0  0  0  2  0  0  0  0  0  0
  189.1920  177.5880  144.8140 C   0  0  0  0  0  0  0  0  0  0  0  0
  188.8180  177.7950  147.9680 C   0  0  0  0  0  1  0  0  0  0  0  0
  188.0520  178.1050  145.6090 C   0  0  1  0  0  3  0  0  0  0  0  0
  186.9240  177.7450  144.6810 C   0  0  2  0  0  3  0  0  0  0  0  0
  180.7540  172.7480  136.2860 C   0  0  0  0  0  2  0  0  0  0  0  0
  181.5360  171.6280  136.9600 C   0  0  0  0  0  2  0  0  0  0  0  0
  182.2610  170.7800  135.9540 C   0  0  0  0  0  0  0  0  0  0  0  0
  181.6920  170.4640  134.9210 O   0  0  0  0  0  0  0  0  0  0  0  0
  183.6670  170.2820  136.1850 C   0  0  0  0  0  2  0  0  0  0  0  0
  185.7460  170.3020  135.0570 F   0  0  0  0  0  0  0  0  0  0  0  0
  184.3050  171.9560  134.5940 F   0  0  0  0  0  0  0  0  0  0  0  0
  184.7950  171.1450  135.6050 C   0  0  0  0  0  0  0  0  0  0  0  0
  184.7580  172.5280  137.5690 O   0  0  0  0  0  1  0  0  0  0  0  0
  185.4510  171.9650  136.6800 C   0  0  0  0  0  0  0  0  0  0  0  0
  186.8330  172.1290  136.6840 O   0  0  0  0  0  0  0  0  0  0  0  0
  3 48  1  6  0  0  0
  3 16  1  0  0  0  0
  4 22  1  0  0  0  0
  6 14  1  0  0  0  0
  7 22  2  0  0  0  0
  7  8  1  0  0  0  0
  8 17  1  0  0  0  0
  9  5  2  0  0  0  0
  9 20  1  0  0  0  0
 10  7  1  0  0  0  0
 11 29  1  0  0  0  0
 11  2  1  0  0  0  0
 12 27  1  0  0  0  0
 12 29  1  0  0  0  0
 13  2  1  6  0  0  0
 13 21  1  0  0  0  0
 14 31  1  1  0  0  0
 16  4  2  0  0  0  0
 18  1  1  0  0  0  0
 18 13  1  0  0  0  0
 18 15  1  1  0  0  0
 20 19  1  1  0  0  0
 20 23  1  0  0  0  0
 21 26  2  0  0  0  0
 23 33  1  6  0  0  0
 23  6  1  0  0  0  0
 24 16  1  0  0  0  0
 24 10  2  0  0  0  0
 25  1  1  6  0  0  0
 25 21  1  0  0  0  0
 25  9  1  0  0  0  0
 27  3  1  0  0  0  0
 28 18  1  0  0  0  0
 30 17  1  0  0  0  0
 30 14  1  0  0  0  0
 31 32  1  0  0  0  0
 33 35  1  0  0  0  0
 35 34  1  6  0  0  0
 36 35  1  0  0  0  0
 38 36  1  6  0  0  0
 38 39  1  0  0  0  0
 38 47  1  0  0  0  0
 39 44  1  0  0  0  0
 41 43  1  0  0  0  0
 42 37  1  0  0  0  0
 42 45  1  1  0  0  0
 43 37  1  0  0  0  0
 44 40  2  0  0  0  0
 46 44  1  6  0  0  0
 46 42  1  0  0  0  0
 47 41  1  6  0  0  0
 47 46  1  0  0  0  0
 48 49  1  0  0  0  0
 50 52  1  0  0  0  0
 50 49  1  0  0  0  0
 51 50  2  0  0  0  0
 53 55  1  0  0  0  0
 54 55  1  0  0  0  0
 55 52  1  0  0  0  0
 55 57  1  0  0  0  0
 57 58  2  0  0  0  0
 57 56  1  0  0  0  0
M  END
>  <MODEL>
2

>  <REMARK>
 VINA RESULT:      -7.5      1.169      1.665
  Name = 
  11 active torsions:
  status: ('A' for Active; 'I' for Inactive)
    1  A    between atoms: C_3  and  C_46
    2  A    between atoms: C_6  and  C_8
    3  A    between atoms: C_6  and  C_46
    4  A    between atoms: C_8  and  C_17
    5  A    between atoms: C_17  and  C_38
    6  A    between atoms: C_18  and  C_57
    7  A    between atoms: C_20  and  C_45
    8  A    between atoms: C_30  and  O_33
    9  A    between atoms: C_30  and  C_57
   10  A    between atoms: O_33  and  C_41
   11  A    between atoms: C_34  and  C_38
                            x       y       z     vdW  Elec       q    Type
                         _______ _______ _______ _____ _____    ______ ____

>  <TORSDO>
F 11

$$$$
=
 OpenBabel11062417513D

 58 62  0  0  1  0  0  0  0  0999 V2000
  190.9630  176.5240  135.9340 O   0  0  0  0  0  0  0  0  0  0  0  0
  191.7920  173.2390  136.5980 C   0  0  0  0  0  2  0  0  0  0  0  0
  186.6810  171.9530  136.0120 C   0  0  2  0  0  3  0  0  0  0  0  0
  185.9250  174.0070  137.2220 C   0  0  0  0  0  3  0  0  0  0  0  0
  190.1330  178.0200  138.0990 O   0  0  0  0  0  0  0  0  0  0  0  0
  185.8480  177.7830  139.0420 C   0  0  0  0  0  2  0  0  0  0  0  0
  184.2420  175.4950  136.2960 C   0  0  0  0  0  0  0  0  0  0  0  0
  183.4210  176.6230  136.3930 O   0  0  0  0  0  0  0  0  0  0  0  0
  189.3440  177.2750  137.5360 C   0  0  0  0  0  0  0  0  0  0  0  0
  184.1730  174.6940  135.1510 C   0  0  0  0  0  3  0  0  0  0  0  0
  190.9540  173.0940  135.3290 C   0  0  0  0  0  2  0  0  0  0  0  0
  188.6200  172.7410  134.5940 C   0  0  0  0  0  2  0  0  0  0  0  0
  191.6600  174.6230  137.2720 C   0  0  1  0  0  3  0  0  0  0  0  0
  185.0540  178.9220  138.4120 C   0  0  1  0  0  3  0  0  0  0  0  0
  192.9550  176.7440  137.2470 C   0  0  0  0  0  1  0  0  0  0  0  0
  185.8590  173.2060  136.0760 C   0  0  0  0  0  0  0  0  0  0  0  0
  183.4190  177.4030  137.4880 O   0  0  0  0  0  0  0  0  0  0  0  0
  192.1030  175.8120  136.3990 C   0  0  2  0  0  0  0  0  0  0  0  0
  187.5390  178.5710  136.4830 C   0  0  0  0  0  1  0  0  0  0  0  0
  187.8680  177.5550  137.5680 C   0  0  2  0  0  3  0  0  0  0  0  0
  190.2640  174.9770  137.5390 C   0  0  0  0  0  0  0  0  0  0  0  0
  185.1210  175.1460  137.3320 C   0  0  0  0  0  3  0  0  0  0  0  0
  187.3480  178.0350  138.9390 C   0  0  2  0  0  3  0  0  0  0  0  0
  184.9730  173.5500  135.0420 C   0  0  0  0  0  3  0  0  0  0  0  0
  189.8450  176.1240  136.7070 C   0  0  2  0  0  3  0  0  0  0  0  0
  189.5400  174.3920  138.3300 O   0  0  0  0  0  0  0  0  0  0  0  0
  187.4200  171.8120  134.6800 C   0  0  0  0  0  2  0  0  0  0  0  0
  192.8690  175.3980  135.3020 O   0  0  0  0  0  1  0  0  0  0  0  0
  189.6530  172.3910  135.6480 C   0  0  0  0  0  2  0  0  0  0  0  0
  184.2730  178.4670  137.1790 C   0  0  0  0  0  2  0  0  0  0  0  0
  184.1930  179.6690  139.4300 C   0  0  0  0  0  2  0  0  0  0  0  0
  183.0420  180.4300  138.7880 C   0  0  0  0  0  1  0  0  0  0  0  0
  187.9960  177.3580  140.0000 O   0  0  0  0  0  0  0  0  0  0  0  0
  188.2470  179.5650  140.7230 O   0  0  0  0  0  1  0  0  0  0  0  0
  188.0910  178.2300  141.1180 C   0  0  2  0  0  3  0  0  0  0  0  0
  189.1800  177.8040  142.1080 C   0  0  0  0  0  2  0  0  0  0  0  0
  190.4510  176.8930  147.3250 C   0  0  0  0  0  2  0  0  0  0  0  0
  188.6550  177.6960  143.5050 C   0  0  2  0  0  3  0  0  0  0  0  0
  187.4030  177.8490  143.8030 N   0  0  0  0  0  2  0  0  0  0  0  0
  186.2250  177.8580  145.8540 O   0  0  0  0  0  0  0  0  0  0  0  0
  190.7450  176.7350  144.7710 C   0  0  0  0  0  2  0  0  0  0  0  0
  189.1200  177.6450  147.1140 C   0  0  2  0  0  3  0  0  0  0  0  0
  191.4210  177.0310  146.1250 C   0  0  0  0  0  2  0  0  0  0  0  0
  187.3000  177.6940  145.2150 C   0  0  0  0  0  0  0  0  0  0  0  0
  188.1730  177.3010  148.2500 C   0  0  0  0  0  1  0  0  0  0  0  0
  188.5630  177.1650  145.7840 C   0  0  1  0  0  3  0  0  0  0  0  0
  189.5200  177.6190  144.7180 C   0  0  2  0  0  3  0  0  0  0  0  0
  185.7980  170.7370  136.2680 C   0  0  0  0  0  2  0  0  0  0  0  0
  184.9510  170.3930  135.0500 C   0  0  0  0  0  2  0  0  0  0  0  0
  183.4990  170.2570  135.4090 C   0  0  0  0  0  0  0  0  0  0  0  0
  182.7590  169.6280  134.6680 O   0  0  0  0  0  0  0  0  0  0  0  0
  182.9120  170.8900  136.6460 C   0  0  0  0  0  2  0  0  0  0  0  0
  182.2280  173.0810  137.2210 F   0  0  0  0  0  0  0  0  0  0  0  0
  181.9360  172.4340  135.0940 F   0  0  0  0  0  0  0  0  0  0  0  0
  181.8890  172.0100  136.4130 C   0  0  0  0  0  0  0  0  0  0  0  0
  180.1100  170.3970  136.4910 O   0  0  0  0  0  0  0  0  0  0  0  0
  180.5040  171.5580  136.7820 C   0  0  0  0  0  0  0  0  0  0  0  0
  179.6350  172.4330  137.4270 O   0  0  0  0  0  1  0  0  0  0  0  0
  1 18  1  0  0  0  0
  3 16  1  0  0  0  0
  3 48  1  6  0  0  0
  4 22  1  0  0  0  0
  7  8  1  0  0  0  0
  7 22  2  0  0  0  0
  8 17  1  0  0  0  0
  9 20  1  0  0  0  0
  9  5  2  0  0  0  0
 10  7  1  0  0  0  0
 11 29  1  0  0  0  0
 11  2  1  0  0  0  0
 12 27  1  0  0  0  0
 12 29  1  0  0  0  0
 13  2  1  6  0  0  0
 13 21  1  0  0  0  0
 14  6  1  0  0  0  0
 14 31  1  1  0  0  0
 16  4  2  0  0  0  0
 18 15  1  1  0  0  0
 18 13  1  0  0  0  0
 20 19  1  6  0  0  0
 20 23  1  0  0  0  0
 21 26  2  0  0  0  0
 23  6  1  0  0  0  0
 23 33  1  1  0  0  0
 24 10  2  0  0  0  0
 24 16  1  0  0  0  0
 25  1  1  1  0  0  0
 25  9  1  0  0  0  0
 25 21  1  0  0  0  0
 27  3  1  0  0  0  0
 28 18  1  0  0  0  0
 30 17  1  0  0  0  0
 30 14  1  0  0  0  0
 32 31  1  0  0  0  0
 33 35  1  0  0  0  0
 35 34  1  6  0  0  0
 35 36  1  0  0  0  0
 38 36  1  6  0  0  0
 38 39  1  0  0  0  0
 38 47  1  0  0  0  0
 39 44  1  0  0  0  0
 41 43  1  0  0  0  0
 42 37  1  0  0  0  0
 42 45  1  1  0  0  0
 43 37  1  0  0  0  0
 44 40  2  0  0  0  0
 46 44  1  6  0  0  0
 46 42  1  0  0  0  0
 47 41  1  6  0  0  0
 47 46  1  0  0  0  0
 49 50  1  0  0  0  0
 49 48  1  0  0  0  0
 50 52  1  0  0  0  0
 51 50  2  0  0  0  0
 54 55  1  0  0  0  0
 55 52  1  0  0  0  0
 55 57  1  0  0  0  0
 55 53  1  0  0  0  0
 56 57  2  0  0  0  0
 57 58  1  0  0  0  0
M  END
>  <MODEL>
3

>  <REMARK>
 VINA RESULT:      -6.8      2.711      4.470
  Name = 
  11 active torsions:
  status: ('A' for Active; 'I' for Inactive)
    1  A    between atoms: C_3  and  C_46
    2  A    between atoms: C_6  and  C_8
    3  A    between atoms: C_6  and  C_46
    4  A    between atoms: C_8  and  C_17
    5  A    between atoms: C_17  and  C_38
    6  A    between atoms: C_18  and  C_57
    7  A    between atoms: C_20  and  C_45
    8  A    between atoms: C_30  and  O_33
    9  A    between atoms: C_30  and  C_57
   10  A    between atoms: O_33  and  C_41
   11  A    between atoms: C_34  and  C_38
                            x       y       z     vdW  Elec       q    Type
                         _______ _______ _______ _____ _____    ______ ____

>  <TORSDO>
F 11

$$$$
=
 OpenBabel11062417513D

 58 62  0  0  1  0  0  0  0  0999 V2000
  185.5650  175.9760  136.9410 O   0  0  0  0  0  0  0  0  0  0  0  0
  188.6440  177.3720  136.2400 C   0  0  0  0  0  2  0  0  0  0  0  0
  189.3010  178.2430  141.4290 C   0  0  2  0  0  3  0  0  0  0  0  0
  186.9170  178.9400  141.7130 C   0  0  0  0  0  3  0  0  0  0  0  0
  183.4510  177.7420  137.1160 O   0  0  0  0  0  0  0  0  0  0  0  0
  182.8240  179.5720  141.0610 C   0  0  0  0  0  2  0  0  0  0  0  0
  185.5010  177.9910  143.4460 C   0  0  0  0  0  0  0  0  0  0  0  0
  184.2820  177.9250  144.1290 O   0  0  0  0  0  0  0  0  0  0  0  0
  184.1990  177.5910  138.0720 C   0  0  0  0  0  0  0  0  0  0  0  0
  186.5560  177.1650  143.8460 C   0  0  0  0  0  3  0  0  0  0  0  0
  188.9970  176.3980  137.3630 C   0  0  0  0  0  2  0  0  0  0  0  0
  189.1960  176.2910  139.8250 C   0  0  0  0  0  2  0  0  0  0  0  0
  187.1270  177.6320  136.0990 C   0  0  1  0  0  3  0  0  0  0  0  0
  181.7890  178.8180  141.8890 C   0  0  1  0  0  3  0  0  0  0  0  0
  185.2920  176.7320  134.6850 C   0  0  0  0  0  1  0  0  0  0  0  0
  187.9720  178.1110  142.1110 C   0  0  0  0  0  0  0  0  0  0  0  0
  183.2510  178.7260  143.8110 O   0  0  0  0  0  0  0  0  0  0  0  0
  186.2830  176.3820  135.7830 C   0  0  2  0  0  0  0  0  0  0  0  0
  182.9820  176.6040  139.9670 C   0  0  0  0  0  1  0  0  0  0  0  0
  183.7140  177.8440  139.4710 C   0  0  2  0  0  3  0  0  0  0  0  0
  186.5210  178.0660  137.3610 C   0  0  0  0  0  0  0  0  0  0  0  0
  185.6870  178.8800  142.3770 C   0  0  0  0  0  3  0  0  0  0  0  0
  182.8220  179.0950  139.6130 C   0  0  2  0  0  3  0  0  0  0  0  0
  187.7900  177.2270  143.1870 C   0  0  0  0  0  3  0  0  0  0  0  0
  185.5850  177.0440  137.8730 C   0  0  2  0  0  3  0  0  0  0  0  0
  186.7700  179.1230  137.9200 O   0  0  0  0  0  0  0  0  0  0  0  0
  189.8900  176.8860  141.0390 C   0  0  0  0  0  2  0  0  0  0  0  0
  187.0750  175.3170  135.3340 O   0  0  0  0  0  1  0  0  0  0  0  0
  189.4000  177.1660  138.6030 C   0  0  0  0  0  2  0  0  0  0  0  0
  182.4370  177.9560  142.9730 C   0  0  0  0  0  2  0  0  0  0  0  0
  180.6870  179.7320  142.4230 C   0  0  0  0  0  2  0  0  0  0  0  0
  179.7920  179.0460  143.4450 C   0  0  0  0  0  1  0  0  0  0  0  0
  183.2820  180.1490  138.7870 O   0  0  0  0  0  0  0  0  0  0  0  0
  182.1410  182.1730  138.5410 O   0  0  0  0  0  1  0  0  0  0  0  0
  182.1620  180.8110  138.2130 C   0  0  2  0  0  3  0  0  0  0  0  0
  180.8340  180.1270  138.5540 C   0  0  0  0  0  2  0  0  0  0  0  0
  179.0120  175.0070  138.2010 C   0  0  0  0  0  2  0  0  0  0  0  0
  180.5430  178.9820  137.6360 C   0  0  2  0  0  3  0  0  0  0  0  0
  180.7420  179.0340  136.3570 N   0  0  0  0  0  2  0  0  0  0  0  0
  180.3200  177.5100  134.5970 O   0  0  0  0  0  0  0  0  0  0  0  0
  180.0820  177.0470  139.3510 C   0  0  0  0  0  2  0  0  0  0  0  0
  178.9440  175.8020  136.8790 C   0  0  2  0  0  3  0  0  0  0  0  0
  179.0380  175.9180  139.4530 C   0  0  0  0  0  2  0  0  0  0  0  0
  180.3330  177.7750  135.8300 C   0  0  0  0  0  0  0  0  0  0  0  0
  179.1100  174.8390  135.7160 C   0  0  0  0  0  1  0  0  0  0  0  0
  180.0910  176.7980  136.9190 C   0  0  1  0  0  3  0  0  0  0  0  0
  179.8020  177.7530  138.0440 C   0  0  2  0  0  3  0  0  0  0  0  0
  190.2700  179.0140  142.3190 C   0  0  0  0  0  2  0  0  0  0  0  0
  189.9650  178.7990  143.7960 C   0  0  0  0  0  2  0  0  0  0  0  0
  190.9970  177.9260  144.4500 C   0  0  0  0  0  0  0  0  0  0  0  0
  191.7620  177.2820  143.7510 O   0  0  0  0  0  0  0  0  0  0  0  0
  191.1080  177.7960  145.9500 C   0  0  0  0  0  2  0  0  0  0  0  0
  189.4410  176.1440  145.6600 F   0  0  0  0  0  0  0  0  0  0  0  0
  190.6750  176.0470  147.5290 F   0  0  0  0  0  0  0  0  0  0  0  0
  190.0600  176.9070  146.6330 C   0  0  0  0  0  0  0  0  0  0  0  0
  187.8350  177.7790  146.8810 O   0  0  0  0  0  0  0  0  0  0  0  0
  189.0150  177.7400  147.3200 C   0  0  0  0  0  0  0  0  0  0  0  0
  189.3540  178.4980  148.4370 O   0  0  0  0  0  1  0  0  0  0  0  0
  2 11  1  0  0  0  0
  3 16  1  0  0  0  0
  3 48  1  1  0  0  0
  4 16  2  0  0  0  0
  4 22  1  0  0  0  0
  5  9  2  0  0  0  0
  6 14  1  0  0  0  0
  7 10  1  0  0  0  0
  7  8  1  0  0  0  0
  9 20  1  0  0  0  0
 11 29  1  0  0  0  0
 12 27  1  0  0  0  0
 13  2  1  1  0  0  0
 13 21  1  0  0  0  0
 14 31  1  1  0  0  0
 14 30  1  0  0  0  0
 16 24  1  0  0  0  0
 17  8  1  0  0  0  0
 18 15  1  6  0  0  0
 18 13  1  0  0  0  0
 18  1  1  0  0  0  0
 20 23  1  0  0  0  0
 20 19  1  6  0  0  0
 21 25  1  0  0  0  0
 21 26  2  0  0  0  0
 22  7  2  0  0  0  0
 23 33  1  6  0  0  0
 23  6  1  0  0  0  0
 24 10  2  0  0  0  0
 25  1  1  6  0  0  0
 25  9  1  0  0  0  0
 27  3  1  0  0  0  0
 28 18  1  0  0  0  0
 29 12  1  0  0  0  0
 30 17  1  0  0  0  0
 31 32  1  0  0  0  0
 35 34  1  1  0  0  0
 35 36  1  0  0  0  0
 35 33  1  0  0  0  0
 37 43  1  0  0  0  0
 38 47  1  0  0  0  0
 38 36  1  6  0  0  0
 39 38  1  0  0  0  0
 40 44  2  0  0  0  0
 41 43  1  0  0  0  0
 42 45  1  6  0  0  0
 42 46  1  0  0  0  0
 42 37  1  0  0  0  0
 44 39  1  0  0  0  0
 46 44  1  6  0  0  0
 46 47  1  0  0  0  0
 47 41  1  1  0  0  0
 48 49  1  0  0  0  0
 49 50  1  0  0  0  0
 50 52  1  0  0  0  0
 51 50  2  0  0  0  0
 52 55  1  0  0  0  0
 53 55  1  0  0  0  0
 55 57  1  0  0  0  0
 55 54  1  0  0  0  0
 56 57  2  0  0  0  0
 57 58  1  0  0  0  0
M  END
>  <MODEL>
4

>  <REMARK>
 VINA RESULT:      -5.9      3.705      9.161
  Name = 
  11 active torsions:
  status: ('A' for Active; 'I' for Inactive)
    1  A    between atoms: C_3  and  C_46
    2  A    between atoms: C_6  and  C_8
    3  A    between atoms: C_6  and  C_46
    4  A    between atoms: C_8  and  C_17
    5  A    between atoms: C_17  and  C_38
    6  A    between atoms: C_18  and  C_57
    7  A    between atoms: C_20  and  C_45
    8  A    between atoms: C_30  and  O_33
    9  A    between atoms: C_30  and  C_57
   10  A    between atoms: O_33  and  C_41
   11  A    between atoms: C_34  and  C_38
                            x       y       z     vdW  Elec       q    Type
                         _______ _______ _______ _____ _____    ______ ____

>  <TORSDO>
F 11

$$$$
