=
 OpenBabel11062414293D

 50 56  0  0  1  0  0  0  0  0999 V2000
  187.6240  178.4080  139.2970 N   0  0  0  0  0  2  0  0  0  0  0  0
  186.9180  176.6050  137.6820 C   0  0  0  0  0  0  0  0  0  0  0  0
  186.6540  177.8250  138.6030 C   0  0  2  0  0  3  0  0  0  0  0  0
  185.2730  178.4650  138.4330 C   0  0  0  0  0  2  0  0  0  0  0  0
  184.4310  175.4540  134.7940 C   0  0  0  0  0  2  0  0  0  0  0  0
  184.7430  177.2100  136.4390 C   0  0  2  0  0  3  0  0  0  0  0  0
  183.0120  178.4140  137.4720 O   0  0  0  0  0  0  0  0  0  0  0  0
  185.8070  176.2800  136.6470 N   0  0  0  0  0  0  0  0  0  0  0  0
  181.8810  177.8250  136.7810 C   0  0  0  0  0  2  0  0  0  0  0  0
  182.1920  176.4380  136.1330 C   0  0  1  0  0  3  0  0  0  0  0  0
  184.1820  177.5970  137.7050 C   0  0  2  0  0  3  0  0  0  0  0  0
  187.7840  175.7430  137.9390 O   0  0  0  0  0  0  0  0  0  0  0  0
  185.8280  175.3380  135.4930 C   0  0  1  0  0  3  0  0  0  0  0  0
  183.6740  176.5220  135.6240 C   0  0  2  0  0  3  0  0  0  0  0  0
  186.0910  173.9420  136.0050 C   0  0  0  0  0  3  0  0  0  0  0  0
  184.9180  172.9990  135.6060 C   0  0  0  0  0  2  0  0  0  0  0  0
  185.0330  173.5100  137.0690 C   0  0  0  0  0  2  0  0  0  0  0  0
  181.9400  175.4640  137.0950 O   0  0  0  0  0  0  0  0  0  0  0  0
  180.2290  174.9440  135.6290 O   0  0  0  0  0  1  0  0  0  0  0  0
  180.9120  174.5910  136.8110 C   0  0  1  0  0  0  0  0  0  0  0  0
  181.5280  173.2790  136.6010 O   0  0  0  0  0  0  0  0  0  0  0  0
  180.8800  172.2530  137.3230 C   0  0  0  0  0  1  0  0  0  0  0  0
  179.9390  174.5050  138.0840 C   0  0  0  0  0  2  0  0  0  0  0  0
  179.2640  175.7470  138.5980 C   0  0  0  0  0  2  0  0  0  0  0  0
  179.4760  175.7890  140.4290 S   0  0  0  0  0  0  0  0  0  0  0  0
  180.4870  178.3010  140.1720 C   0  0  0  0  0  2  0  0  0  0  0  0
  179.6270  177.5720  141.0750 C   0  0  2  0  0  3  0  0  0  0  0  0
  180.9040  178.1420  141.5770 N   0  0  0  0  0  0  0  0  0  0  0  0
  180.6030  179.4490  142.2240 C   0  0  0  0  0  1  0  0  0  0  0  0
  189.1200  178.2380  138.9790 C   0  0  0  0  0  2  0  0  0  0  0  0
  189.8310  177.2210  140.0870 C   0  0  2  0  0  3  0  0  0  0  0  0
  190.6270  177.9210  141.0830 O   0  0  0  0  0  0  0  0  0  0  0  0
  190.3750  177.9860  142.4340 C   0  0  0  0  0  0  0  0  0  0  0  0
  190.7580  177.5410  144.5590 C   0  0  2  0  0  3  0  0  0  0  0  0
  189.2800  177.4080  144.3610 N   0  0  0  0  0  0  0  0  0  0  0  0
  191.3760  177.7960  143.2950 N   0  0  0  0  0  0  0  0  0  0  0  0
  189.0760  177.7790  143.1340 C   0  0  0  0  0  0  0  0  0  0  0  0
  187.7230  178.0820  142.6070 O   0  0  0  0  0  0  0  0  0  0  0  0
  186.4740  178.2780  144.7110 C   0  0  0  0  0  2  0  0  0  0  0  0
  185.0600  178.3790  145.3220 C   0  0  0  0  0  2  0  0  0  0  0  0
  184.0590  179.0850  144.4900 N   0  0  0  0  0  2  0  0  0  0  0  0
  185.2400  178.1780  142.5350 C   0  0  0  0  0  2  0  0  0  0  0  0
  186.5150  177.7000  143.2940 C   0  0  0  0  0  3  0  0  0  0  0  0
  184.6020  179.4280  143.1720 C   0  0  0  0  0  2  0  0  0  0  0  0
  191.6260  176.5260  145.8750 S   0  0  0  0  0  0  0  0  0  0  0  0
  189.2660  177.0890  147.6360 N   0  0  0  0  0  0  0  0  0  0  0  0
  190.2490  176.8880  146.9450 C   0  0  0  0  0  0  0  0  0  0  0  0
  191.1010  176.5270  139.4290 C   0  0  0  0  0  2  0  0  0  0  0  0
  191.1420  175.8260  138.0620 C   0  0  0  0  0  3  0  0  0  0  0  0
  191.3780  174.5790  138.0080 O   0  0  0  0  0  0  0  0  0  0  0  0
  2 12  2  0  0  0  0
  2  3  1  0  0  0  0
  3  1  1  6  0  0  0
  4  3  1  0  0  0  0
  5 13  1  0  0  0  0
  6  8  1  1  0  0  0
  6 11  1  0  0  0  0
  7 11  1  0  0  0  0
  8  2  1  0  0  0  0
  9  7  1  0  0  0  0
 10  9  1  0  0  0  0
 10 18  1  1  0  0  0
 11  4  1  1  0  0  0
 13 15  1  1  0  0  0
 13  8  1  0  0  0  0
 14  5  1  1  0  0  0
 14 10  1  0  0  0  0
 14  6  1  0  0  0  0
 15 17  1  0  0  0  0
 16 15  1  0  0  0  0
 16 17  1  0  0  0  0
 20 19  1  6  0  0  0
 20 18  1  0  0  0  0
 20 23  1  0  0  0  0
 21 20  1  0  0  0  0
 21 22  1  0  0  0  0
 23 24  1  0  0  0  0
 24 25  1  0  0  0  0
 26 27  1  0  0  0  0
 26 28  1  0  0  0  0
 27 25  1  6  0  0  0
 27 28  1  0  0  0  0
 28 29  1  0  0  0  0
 30  1  1  0  0  0  0
 31 30  1  6  0  0  0
 31 32  1  0  0  0  0
 32 33  1  0  0  0  0
 33 37  1  0  0  0  0
 33 36  2  0  0  0  0
 34 45  1  6  0  0  0
 35 34  1  0  0  0  0
 36 34  1  0  0  0  0
 37 35  2  0  0  0  0
 38 37  1  0  0  0  0
 38 43  1  0  0  0  0
 39 40  1  0  0  0  0
 41 40  1  0  0  0  0
 42 44  1  0  0  0  0
 42 43  1  0  0  0  0
 43 39  1  0  0  0  0
 44 41  1  0  0  0  0
 45 47  1  0  0  0  0
 47 46  3  0  0  0  0
 48 31  1  0  0  0  0
 49 48  1  0  0  0  0
 50 49  2  0  0  0  0
M  END
>  <MODEL>
1

>  <REMARK>
 VINA RESULT:      -6.3      0.000      0.000
  Name = 
  18 active torsions:
  status: ('A' for Active; 'I' for Inactive)
    1  A    between atoms: N_1  and  C_33
    2  A    between atoms: C_8  and  O_34
    3  A    between atoms: C_9  and  S_21
    4  A    between atoms: S_10  and  C_11
    5  A    between atoms: S_10  and  C_26
    6  A    between atoms: C_13  and  C_23
    7  A    between atoms: C_15  and  C_39
    8  A    between atoms: S_21  and  C_47
    9  A    between atoms: C_23  and  C_28
   10  A    between atoms: O_25  and  C_43
   11  A    between atoms: C_27  and  O_44
   12  A    between atoms: C_28  and  C_33
   13  A    between atoms: C_28  and  O_34
   14  A    between atoms: C_32  and  C_43
   15  A    between atoms: C_32  and  C_47
   16  A    between atoms: C_41  and  O_49
   17  A    between atoms: C_43  and  O_44
   18  A    between atoms: C_48  and  O_49
                            x       y       z     vdW  Elec       q    Type
                         _______ _______ _______ _____ _____    ______ ____

>  <TORSDO>
F 18

$$$$
=
 OpenBabel11062414293D

 50 56  0  0  1  0  0  0  0  0999 V2000
  185.3110  179.0070  141.3440 N   0  0  0  0  0  2  0  0  0  0  0  0
  187.5640  177.9490  141.7540 C   0  0  0  0  0  0  0  0  0  0  0  0
  186.4260  178.4850  140.8450 C   0  0  2  0  0  3  0  0  0  0  0  0
  186.8010  178.6220  139.3680 C   0  0  0  0  0  2  0  0  0  0  0  0
  191.2960  177.3760  140.4930 C   0  0  0  0  0  2  0  0  0  0  0  0
  189.1560  178.2460  139.7490 C   0  0  2  0  0  3  0  0  0  0  0  0
  188.3860  178.2200  137.5320 O   0  0  0  0  0  0  0  0  0  0  0  0
  188.9420  177.7420  141.0690 N   0  0  0  0  0  0  0  0  0  0  0  0
  189.5500  177.6380  136.8930 C   0  0  0  0  0  2  0  0  0  0  0  0
  190.4850  176.8610  137.8750 C   0  0  1  0  0  3  0  0  0  0  0  0
  188.0790  177.8360  138.8920 C   0  0  2  0  0  3  0  0  0  0  0  0
  187.3450  177.4140  142.8600 O   0  0  0  0  0  0  0  0  0  0  0  0
  190.2720  177.4560  141.6750 C   0  0  1  0  0  3  0  0  0  0  0  0
  190.4440  177.6550  139.2280 C   0  0  2  0  0  3  0  0  0  0  0  0
  190.1910  176.1580  142.4430 C   0  0  0  0  0  3  0  0  0  0  0  0
  190.0910  176.4500  143.9700 C   0  0  0  0  0  2  0  0  0  0  0  0
  191.4350  175.9560  143.3650 C   0  0  0  0  0  2  0  0  0  0  0  0
  190.0270  175.5480  137.9340 O   0  0  0  0  0  0  0  0  0  0  0  0
  190.2550  173.3170  137.3700 O   0  0  0  0  0  1  0  0  0  0  0  0
  190.7550  174.6260  137.2130 C   0  0  1  0  0  0  0  0  0  0  0  0
  190.6120  174.9970  135.8030 O   0  0  0  0  0  0  0  0  0  0  0  0
  189.5000  174.3800  135.1890 C   0  0  0  0  0  1  0  0  0  0  0  0
  192.3010  174.7510  137.6240 C   0  0  0  0  0  2  0  0  0  0  0  0
  193.3720  174.4000  136.6290 C   0  0  0  0  0  2  0  0  0  0  0  0
  194.8900  173.9430  137.5700 S   0  0  0  0  0  0  0  0  0  0  0  0
  197.0960  172.3570  137.4320 C   0  0  0  0  0  2  0  0  0  0  0  0
  195.9870  172.7370  136.5880 C   0  0  2  0  0  3  0  0  0  0  0  0
  197.3740  173.0670  136.1710 N   0  0  0  0  0  0  0  0  0  0  0  0
  197.8330  172.0140  135.2230 C   0  0  0  0  0  1  0  0  0  0  0  0
  185.1800  179.5110  142.7920 C   0  0  0  0  0  2  0  0  0  0  0  0
  184.3980  178.3780  143.7260 C   0  0  2  0  0  3  0  0  0  0  0  0
  182.9490  178.4330  143.6060 O   0  0  0  0  0  0  0  0  0  0  0  0
  182.2350  178.9400  142.5450 C   0  0  0  0  0  0  0  0  0  0  0  0
  180.5980  180.0780  141.6030 C   0  0  2  0  0  3  0  0  0  0  0  0
  180.7440  178.8150  140.8110 N   0  0  0  0  0  0  0  0  0  0  0  0
  181.4860  180.0290  142.7220 N   0  0  0  0  0  0  0  0  0  0  0  0
  181.7790  178.2220  141.3210 C   0  0  0  0  0  0  0  0  0  0  0  0
  182.4560  177.0850  140.6530 O   0  0  0  0  0  0  0  0  0  0  0  0
  182.5610  176.1860  138.3710 C   0  0  0  0  0  2  0  0  0  0  0  0
  182.7880  176.5570  136.8900 C   0  0  0  0  0  2  0  0  0  0  0  0
  182.3230  177.9070  136.4960 N   0  0  0  0  0  2  0  0  0  0  0  0
  182.9270  178.6310  138.7650 C   0  0  0  0  0  2  0  0  0  0  0  0
  183.1060  177.2080  139.3720 C   0  0  0  0  0  3  0  0  0  0  0  0
  181.8580  178.6740  137.6550 C   0  0  0  0  0  2  0  0  0  0  0  0
  178.9310  180.9260  141.7240 S   0  0  0  0  0  0  0  0  0  0  0  0
  179.2840  181.8790  138.9040 N   0  0  0  0  0  0  0  0  0  0  0  0
  179.1840  181.4800  140.0500 C   0  0  0  0  0  0  0  0  0  0  0  0
  184.3800  178.8630  145.2400 C   0  0  0  0  0  2  0  0  0  0  0  0
  185.6050  179.0210  146.1540 C   0  0  0  0  0  3  0  0  0  0  0  0
  185.4420  179.4000  147.3560 O   0  0  0  0  0  0  0  0  0  0  0  0
  1 30  1  0  0  0  0
  2 12  2  0  0  0  0
  3  1  1  1  0  0  0
  3  2  1  0  0  0  0
  4  3  1  0  0  0  0
  5 13  1  0  0  0  0
  6  8  1  1  0  0  0
  7 11  1  0  0  0  0
  8 13  1  0  0  0  0
  8  2  1  0  0  0  0
  9  7  1  0  0  0  0
  9 10  1  0  0  0  0
 10 18  1  1  0  0  0
 10 14  1  0  0  0  0
 11  4  1  1  0  0  0
 11  6  1  0  0  0  0
 13 15  1  6  0  0  0
 14  6  1  0  0  0  0
 14  5  1  1  0  0  0
 15 17  1  0  0  0  0
 15 16  1  0  0  0  0
 17 16  1  0  0  0  0
 20 19  1  1  0  0  0
 20 23  1  0  0  0  0
 20 18  1  0  0  0  0
 21 20  1  0  0  0  0
 22 21  1  0  0  0  0
 24 25  1  0  0  0  0
 24 23  1  0  0  0  0
 27 26  1  0  0  0  0
 27 25  1  1  0  0  0
 28 27  1  0  0  0  0
 28 26  1  0  0  0  0
 29 28  1  0  0  0  0
 31 30  1  6  0  0  0
 31 48  1  0  0  0  0
 32 31  1  0  0  0  0
 33 36  2  0  0  0  0
 33 32  1  0  0  0  0
 34 45  1  1  0  0  0
 34 36  1  0  0  0  0
 35 37  2  0  0  0  0
 35 34  1  0  0  0  0
 37 33  1  0  0  0  0
 38 37  1  0  0  0  0
 39 43  1  0  0  0  0
 40 39  1  0  0  0  0
 41 40  1  0  0  0  0
 41 44  1  0  0  0  0
 42 43  1  0  0  0  0
 43 38  1  0  0  0  0
 44 42  1  0  0  0  0
 46 47  3  0  0  0  0
 47 45  1  0  0  0  0
 48 49  1  0  0  0  0
 49 50  2  0  0  0  0
M  END
>  <MODEL>
2

>  <REMARK>
 VINA RESULT:      -6.1      3.503      9.996
  Name = 
  18 active torsions:
  status: ('A' for Active; 'I' for Inactive)
    1  A    between atoms: N_1  and  C_33
    2  A    between atoms: C_8  and  O_34
    3  A    between atoms: C_9  and  S_21
    4  A    between atoms: S_10  and  C_11
    5  A    between atoms: S_10  and  C_26
    6  A    between atoms: C_13  and  C_23
    7  A    between atoms: C_15  and  C_39
    8  A    between atoms: S_21  and  C_47
    9  A    between atoms: C_23  and  C_28
   10  A    between atoms: O_25  and  C_43
   11  A    between atoms: C_27  and  O_44
   12  A    between atoms: C_28  and  C_33
   13  A    between atoms: C_28  and  O_34
   14  A    between atoms: C_32  and  C_43
   15  A    between atoms: C_32  and  C_47
   16  A    between atoms: C_41  and  O_49
   17  A    between atoms: C_43  and  O_44
   18  A    between atoms: C_48  and  O_49
                            x       y       z     vdW  Elec       q    Type
                         _______ _______ _______ _____ _____    ______ ____

>  <TORSDO>
F 18

$$$$
=
 OpenBabel11062414293D

 50 56  0  0  1  0  0  0  0  0999 V2000
  183.4020  177.9320  141.1890 N   0  0  0  0  0  2  0  0  0  0  0  0
  183.8230  177.3360  138.7750 C   0  0  0  0  0  0  0  0  0  0  0  0
  183.0580  177.2240  140.1210 C   0  0  2  0  0  3  0  0  0  0  0  0
  181.7320  176.4630  140.0380 C   0  0  0  0  0  2  0  0  0  0  0  0
  182.3150  176.1510  135.2860 C   0  0  0  0  0  2  0  0  0  0  0  0
  181.7150  176.4000  137.6240 C   0  0  2  0  0  3  0  0  0  0  0  0
  180.1610  175.0620  138.7680 O   0  0  0  0  0  0  0  0  0  0  0  0
  183.0910  176.7720  137.5270 N   0  0  0  0  0  0  0  0  0  0  0  0
  179.7300  174.2220  137.6680 C   0  0  0  0  0  2  0  0  0  0  0  0
  180.7370  174.1820  136.4740 C   0  0  1  0  0  3  0  0  0  0  0  0
  181.5210  175.5550  138.7700 C   0  0  2  0  0  3  0  0  0  0  0  0
  185.0500  177.5580  138.7160 O   0  0  0  0  0  0  0  0  0  0  0  0
  183.4310  176.9080  136.0830 C   0  0  1  0  0  3  0  0  0  0  0  0
  181.3540  175.6220  136.3810 C   0  0  2  0  0  3  0  0  0  0  0  0
  184.7990  176.3160  135.8440 C   0  0  0  0  0  3  0  0  0  0  0  0
  185.8950  177.4000  136.0700 C   0  0  0  0  0  2  0  0  0  0  0  0
  185.5100  176.9800  134.6230 C   0  0  0  0  0  2  0  0  0  0  0  0
  181.6430  173.1560  136.7280 O   0  0  0  0  0  0  0  0  0  0  0  0
  180.3470  171.2730  137.0770 O   0  0  0  0  0  1  0  0  0  0  0  0
  181.2890  171.9120  136.2480 C   0  0  1  0  0  0  0  0  0  0  0  0
  180.6640  172.1350  134.9420 O   0  0  0  0  0  0  0  0  0  0  0  0
  179.7500  171.1150  134.5970 C   0  0  0  0  0  1  0  0  0  0  0  0
  182.6210  171.0410  136.0380 C   0  0  0  0  0  2  0  0  0  0  0  0
  183.3730  171.1220  134.7380 C   0  0  0  0  0  2  0  0  0  0  0  0
  184.4290  172.6330  134.7900 S   0  0  0  0  0  0  0  0  0  0  0  0
  186.4150  170.8060  135.1300 C   0  0  0  0  0  2  0  0  0  0  0  0
  186.2800  172.1950  134.7590 C   0  0  2  0  0  3  0  0  0  0  0  0
  187.0430  171.8320  135.9810 N   0  0  0  0  0  0  0  0  0  0  0  0
  188.4900  171.7990  135.6290 C   0  0  0  0  0  1  0  0  0  0  0  0
  184.2800  179.1950  141.1280 C   0  0  0  0  0  2  0  0  0  0  0  0
  185.2480  179.2880  142.4780 C   0  0  2  0  0  3  0  0  0  0  0  0
  186.2290  178.2160  142.5580 O   0  0  0  0  0  0  0  0  0  0  0  0
  187.5200  178.2500  142.0840 C   0  0  0  0  0  0  0  0  0  0  0  0
  189.1190  177.8570  140.6180 C   0  0  2  0  0  3  0  0  0  0  0  0
  189.6950  177.5430  141.9640 N   0  0  0  0  0  0  0  0  0  0  0  0
  187.7360  178.1850  140.7700 N   0  0  0  0  0  0  0  0  0  0  0  0
  188.7710  177.8860  142.8080 C   0  0  0  0  0  0  0  0  0  0  0  0
  189.0290  178.0210  144.2620 O   0  0  0  0  0  0  0  0  0  0  0  0
  191.1710  177.2630  145.1900 C   0  0  0  0  0  2  0  0  0  0  0  0
  191.8340  176.5520  146.3890 C   0  0  0  0  0  2  0  0  0  0  0  0
  191.1750  176.7690  147.6970 N   0  0  0  0  0  2  0  0  0  0  0  0
  189.0530  176.8650  146.4620 C   0  0  0  0  0  2  0  0  0  0  0  0
  189.6730  176.9910  145.0380 C   0  0  0  0  0  3  0  0  0  0  0  0
  189.9250  177.5210  147.5510 C   0  0  0  0  0  2  0  0  0  0  0  0
  189.7400  176.9560  139.0950 S   0  0  0  0  0  0  0  0  0  0  0  0
  192.4990  177.3920  140.1840 N   0  0  0  0  0  0  0  0  0  0  0  0
  191.3900  177.2370  139.7040 C   0  0  0  0  0  0  0  0  0  0  0  0
  184.4410  178.7650  143.7440 C   0  0  0  0  0  2  0  0  0  0  0  0
  184.9660  178.6980  145.1870 C   0  0  0  0  0  3  0  0  0  0  0  0
  184.1520  178.8400  146.1530 O   0  0  0  0  0  0  0  0  0  0  0  0
  2  3  1  0  0  0  0
  3  1  1  6  0  0  0
  4  3  1  0  0  0  0
  5 13  1  0  0  0  0
  6  8  1  6  0  0  0
  6 11  1  0  0  0  0
  7 11  1  0  0  0  0
  8  2  1  0  0  0  0
  9  7  1  0  0  0  0
 10 18  1  1  0  0  0
 10  9  1  0  0  0  0
 11  4  1  1  0  0  0
 12  2  2  0  0  0  0
 13 15  1  1  0  0  0
 13  8  1  0  0  0  0
 14  5  1  6  0  0  0
 14 10  1  0  0  0  0
 14  6  1  0  0  0  0
 15 16  1  0  0  0  0
 17 15  1  0  0  0  0
 17 16  1  0  0  0  0
 20 18  1  0  0  0  0
 20 19  1  1  0  0  0
 21 20  1  0  0  0  0
 22 21  1  0  0  0  0
 23 20  1  0  0  0  0
 24 25  1  0  0  0  0
 24 23  1  0  0  0  0
 26 28  1  0  0  0  0
 27 25  1  1  0  0  0
 27 26  1  0  0  0  0
 27 28  1  0  0  0  0
 29 28  1  0  0  0  0
 30  1  1  0  0  0  0
 31 30  1  6  0  0  0
 31 32  1  0  0  0  0
 31 48  1  0  0  0  0
 33 32  1  0  0  0  0
 33 37  1  0  0  0  0
 34 45  1  6  0  0  0
 34 36  1  0  0  0  0
 34 35  1  0  0  0  0
 35 37  2  0  0  0  0
 36 33  2  0  0  0  0
 37 38  1  0  0  0  0
 38 43  1  0  0  0  0
 39 40  1  0  0  0  0
 40 41  1  0  0  0  0
 42 44  1  0  0  0  0
 43 39  1  0  0  0  0
 43 42  1  0  0  0  0
 44 41  1  0  0  0  0
 45 47  1  0  0  0  0
 47 46  3  0  0  0  0
 48 49  1  0  0  0  0
 49 50  2  0  0  0  0
M  END
>  <MODEL>
3

>  <REMARK>
 VINA RESULT:      -6.1      2.645      5.933
  Name = 
  18 active torsions:
  status: ('A' for Active; 'I' for Inactive)
    1  A    between atoms: N_1  and  C_33
    2  A    between atoms: C_8  and  O_34
    3  A    between atoms: C_9  and  S_21
    4  A    between atoms: S_10  and  C_11
    5  A    between atoms: S_10  and  C_26
    6  A    between atoms: C_13  and  C_23
    7  A    between atoms: C_15  and  C_39
    8  A    between atoms: S_21  and  C_47
    9  A    between atoms: C_23  and  C_28
   10  A    between atoms: O_25  and  C_43
   11  A    between atoms: C_27  and  O_44
   12  A    between atoms: C_28  and  C_33
   13  A    between atoms: C_28  and  O_34
   14  A    between atoms: C_32  and  C_43
   15  A    between atoms: C_32  and  C_47
   16  A    between atoms: C_41  and  O_49
   17  A    between atoms: C_43  and  O_44
   18  A    between atoms: C_48  and  O_49
                            x       y       z     vdW  Elec       q    Type
                         _______ _______ _______ _____ _____    ______ ____

>  <TORSDO>
F 18

$$$$
=
 OpenBabel11062414293D

 50 56  0  0  1  0  0  0  0  0999 V2000
  189.4520  178.1680  141.9580 N   0  0  0  0  0  2  0  0  0  0  0  0
  190.2060  176.8600  139.9380 C   0  0  0  0  0  0  0  0  0  0  0  0
  189.2590  177.8340  140.6880 C   0  0  2  0  0  3  0  0  0  0  0  0
  188.2710  178.5800  139.7870 C   0  0  0  0  0  2  0  0  0  0  0  0
  190.4030  176.6050  135.9700 C   0  0  0  0  0  2  0  0  0  0  0  0
  189.3410  177.8850  137.7370 C   0  0  2  0  0  3  0  0  0  0  0  0
  187.2330  178.9070  137.5830 O   0  0  0  0  0  0  0  0  0  0  0  0
  190.1030  176.8670  138.3890 N   0  0  0  0  0  0  0  0  0  0  0  0
  186.9190  178.5760  136.2070 C   0  0  0  0  0  2  0  0  0  0  0  0
  187.7410  177.3720  135.6460 C   0  0  1  0  0  3  0  0  0  0  0  0
  188.0440  177.9860  138.3480 C   0  0  2  0  0  3  0  0  0  0  0  0
  190.7810  175.9090  140.5080 O   0  0  0  0  0  0  0  0  0  0  0  0
  190.9920  176.2350  137.3730 C   0  0  1  0  0  3  0  0  0  0  0  0
  189.1670  177.4840  136.2920 C   0  0  2  0  0  3  0  0  0  0  0  0
  191.0130  174.7420  137.6040 C   0  0  0  0  0  3  0  0  0  0  0  0
  192.4750  174.2120  137.5190 C   0  0  0  0  0  2  0  0  0  0  0  0
  191.4970  173.9710  136.3350 C   0  0  0  0  0  2  0  0  0  0  0  0
  187.0350  176.2110  135.9460 O   0  0  0  0  0  0  0  0  0  0  0  0
  185.4570  177.2330  134.5990 O   0  0  0  0  0  1  0  0  0  0  0  0
  185.7590  176.1340  135.4270 C   0  0  1  0  0  0  0  0  0  0  0  0
  185.7200  174.9230  134.6030 O   0  0  0  0  0  0  0  0  0  0  0  0
  184.5250  174.1890  134.7730 C   0  0  0  0  0  1  0  0  0  0  0  0
  184.7180  175.9660  136.6370 C   0  0  0  0  0  2  0  0  0  0  0  0
  184.0740  177.1810  137.2460 C   0  0  0  0  0  2  0  0  0  0  0  0
  182.3490  177.2880  136.6040 S   0  0  0  0  0  0  0  0  0  0  0  0
  180.1570  178.7690  137.2370 C   0  0  0  0  0  2  0  0  0  0  0  0
  181.1550  177.9760  137.9170 C   0  0  2  0  0  3  0  0  0  0  0  0
  181.0390  179.4260  138.2190 N   0  0  0  0  0  0  0  0  0  0  0  0
  180.2110  179.5760  139.4480 C   0  0  0  0  0  1  0  0  0  0  0  0
  190.7920  177.9870  142.6920 C   0  0  0  0  0  2  0  0  0  0  0  0
  190.7370  176.6360  143.6620 C   0  0  2  0  0  3  0  0  0  0  0  0
  189.4060  176.3460  144.1710 O   0  0  0  0  0  0  0  0  0  0  0  0
  188.5600  177.2290  144.8010 C   0  0  0  0  0  0  0  0  0  0  0  0
  187.6320  178.2030  146.5480 C   0  0  2  0  0  3  0  0  0  0  0  0
  186.5260  177.9490  145.5710 N   0  0  0  0  0  0  0  0  0  0  0  0
  188.8410  177.6320  146.0410 N   0  0  0  0  0  0  0  0  0  0  0  0
  187.1180  177.4780  144.5170 C   0  0  0  0  0  0  0  0  0  0  0  0
  186.4380  177.3650  143.2040 O   0  0  0  0  0  0  0  0  0  0  0  0
  185.2960  178.1150  141.1640 C   0  0  0  0  0  2  0  0  0  0  0  0
  184.1540  179.0010  140.6240 C   0  0  0  0  0  2  0  0  0  0  0  0
  182.9710  179.1200  141.5080 N   0  0  0  0  0  2  0  0  0  0  0  0
  184.5320  178.9490  143.3980 C   0  0  0  0  0  2  0  0  0  0  0  0
  185.7680  178.4760  142.5750 C   0  0  0  0  0  3  0  0  0  0  0  0
  183.1970  178.4640  142.7990 C   0  0  0  0  0  2  0  0  0  0  0  0
  187.2730  178.2360  148.3880 S   0  0  0  0  0  0  0  0  0  0  0  0
  190.2370  178.3160  148.8300 N   0  0  0  0  0  0  0  0  0  0  0  0
  189.0330  178.3280  148.6460 C   0  0  0  0  0  0  0  0  0  0  0  0
  191.3060  176.9970  145.1020 C   0  0  0  0  0  2  0  0  0  0  0  0
  192.0090  176.0290  146.0660 C   0  0  0  0  0  3  0  0  0  0  0  0
  191.4980  175.8040  147.2080 O   0  0  0  0  0  0  0  0  0  0  0  0
  1 30  1  0  0  0  0
  2 12  2  0  0  0  0
  2  3  1  0  0  0  0
  3  1  1  6  0  0  0
  4  3  1  0  0  0  0
  5 13  1  0  0  0  0
  6 11  1  0  0  0  0
  6  8  1  1  0  0  0
  7 11  1  0  0  0  0
  8  2  1  0  0  0  0
  9  7  1  0  0  0  0
 10 18  1  1  0  0  0
 10  9  1  0  0  0  0
 10 14  1  0  0  0  0
 11  4  1  1  0  0  0
 13 15  1  1  0  0  0
 13  8  1  0  0  0  0
 14  5  1  1  0  0  0
 14  6  1  0  0  0  0
 16 15  1  0  0  0  0
 17 16  1  0  0  0  0
 17 15  1  0  0  0  0
 20 19  1  6  0  0  0
 20 18  1  0  0  0  0
 20 23  1  0  0  0  0
 21 22  1  0  0  0  0
 21 20  1  0  0  0  0
 23 24  1  0  0  0  0
 25 24  1  0  0  0  0
 26 27  1  0  0  0  0
 26 28  1  0  0  0  0
 27 25  1  6  0  0  0
 27 28  1  0  0  0  0
 28 29  1  0  0  0  0
 31 30  1  6  0  0  0
 31 32  1  0  0  0  0
 31 48  1  0  0  0  0
 32 33  1  0  0  0  0
 33 36  2  0  0  0  0
 34 45  1  1  0  0  0
 35 34  1  0  0  0  0
 36 34  1  0  0  0  0
 37 33  1  0  0  0  0
 37 35  2  0  0  0  0
 38 37  1  0  0  0  0
 39 43  1  0  0  0  0
 40 39  1  0  0  0  0
 40 41  1  0  0  0  0
 41 44  1  0  0  0  0
 43 38  1  0  0  0  0
 43 42  1  0  0  0  0
 44 42  1  0  0  0  0
 45 47  1  0  0  0  0
 47 46  3  0  0  0  0
 48 49  1  0  0  0  0
 49 50  2  0  0  0  0
M  END
>  <MODEL>
4

>  <REMARK>
 VINA RESULT:      -5.2      2.660      4.621
  Name = 
  18 active torsions:
  status: ('A' for Active; 'I' for Inactive)
    1  A    between atoms: N_1  and  C_33
    2  A    between atoms: C_8  and  O_34
    3  A    between atoms: C_9  and  S_21
    4  A    between atoms: S_10  and  C_11
    5  A    between atoms: S_10  and  C_26
    6  A    between atoms: C_13  and  C_23
    7  A    between atoms: C_15  and  C_39
    8  A    between atoms: S_21  and  C_47
    9  A    between atoms: C_23  and  C_28
   10  A    between atoms: O_25  and  C_43
   11  A    between atoms: C_27  and  O_44
   12  A    between atoms: C_28  and  C_33
   13  A    between atoms: C_28  and  O_34
   14  A    between atoms: C_32  and  C_43
   15  A    between atoms: C_32  and  C_47
   16  A    between atoms: C_41  and  O_49
   17  A    between atoms: C_43  and  O_44
   18  A    between atoms: C_48  and  O_49
                            x       y       z     vdW  Elec       q    Type
                         _______ _______ _______ _____ _____    ______ ____

>  <TORSDO>
F 18

$$$$
=
 OpenBabel11062414293D

 50 56  0  0  1  0  0  0  0  0999 V2000
  186.4610  178.8950  140.7120 N   0  0  0  0  0  2  0  0  0  0  0  0
  185.7080  177.6420  138.6560 C   0  0  0  0  0  0  0  0  0  0  0  0
  185.4660  178.4940  139.9310 C   0  0  2  0  0  3  0  0  0  0  0  0
  184.0490  179.0600  140.0580 C   0  0  0  0  0  2  0  0  0  0  0  0
  183.0520  177.2870  135.7130 C   0  0  0  0  0  2  0  0  0  0  0  0
  183.4160  178.4580  137.8070 C   0  0  2  0  0  3  0  0  0  0  0  0
  181.7220  179.1610  139.2730 O   0  0  0  0  0  0  0  0  0  0  0  0
  184.5340  177.5830  137.6430 N   0  0  0  0  0  0  0  0  0  0  0  0
  180.5670  178.7430  138.5020 C   0  0  0  0  0  2  0  0  0  0  0  0
  180.8860  177.6520  137.4310 C   0  0  1  0  0  3  0  0  0  0  0  0
  182.9420  178.3920  139.1610 C   0  0  2  0  0  3  0  0  0  0  0  0
  186.6300  176.8040  138.5740 O   0  0  0  0  0  0  0  0  0  0  0  0
  184.5040  177.0520  136.2510 C   0  0  1  0  0  3  0  0  0  0  0  0
  182.3170  177.9890  136.8840 C   0  0  2  0  0  3  0  0  0  0  0  0
  184.8680  175.5870  136.2790 C   0  0  0  0  0  3  0  0  0  0  0  0
  186.3190  175.3900  135.7490 C   0  0  0  0  0  2  0  0  0  0  0  0
  185.1110  175.0270  134.8420 C   0  0  0  0  0  2  0  0  0  0  0  0
  180.7550  176.4110  138.0490 O   0  0  0  0  0  0  0  0  0  0  0  0
  181.4640  174.5170  136.9290 O   0  0  0  0  0  1  0  0  0  0  0  0
  180.3820  175.3680  137.2280 C   0  0  1  0  0  0  0  0  0  0  0  0
  179.3880  174.5910  137.9730 O   0  0  0  0  0  0  0  0  0  0  0  0
  179.9190  174.0170  139.1500 C   0  0  0  0  0  1  0  0  0  0  0  0
  179.6840  175.9680  135.9130 C   0  0  0  0  0  2  0  0  0  0  0  0
  179.4010  175.0720  134.7390 C   0  0  0  0  0  2  0  0  0  0  0  0
  178.9310  173.4140  135.3950 S   0  0  0  0  0  0  0  0  0  0  0  0
  179.4520  170.7790  134.9730 C   0  0  0  0  0  2  0  0  0  0  0  0
  180.0990  172.0520  134.7620 C   0  0  2  0  0  3  0  0  0  0  0  0
  180.7290  171.0490  135.6590 N   0  0  0  0  0  0  0  0  0  0  0  0
  181.7580  170.3110  134.8750 C   0  0  0  0  0  1  0  0  0  0  0  0
  187.9330  178.9320  140.2640 C   0  0  0  0  0  2  0  0  0  0  0  0
  188.8270  177.8280  141.1310 C   0  0  2  0  0  3  0  0  0  0  0  0
  189.6140  178.4330  142.1940 O   0  0  0  0  0  0  0  0  0  0  0  0
  189.4710  178.2140  143.5450 C   0  0  0  0  0  0  0  0  0  0  0  0
  190.1450  177.5810  145.5460 C   0  0  2  0  0  3  0  0  0  0  0  0
  188.7530  177.0530  145.3830 N   0  0  0  0  0  0  0  0  0  0  0  0
  190.5540  178.1960  144.3220 N   0  0  0  0  0  0  0  0  0  0  0  0
  188.3480  177.5310  144.2470 C   0  0  0  0  0  0  0  0  0  0  0  0
  186.9250  177.5010  143.8310 O   0  0  0  0  0  0  0  0  0  0  0  0
  184.5930  178.2400  143.6350 C   0  0  0  0  0  2  0  0  0  0  0  0
  183.4710  179.0410  144.3300 C   0  0  0  0  0  2  0  0  0  0  0  0
  183.4900  179.0040  145.8100 N   0  0  0  0  0  2  0  0  0  0  0  0
  185.9390  178.8870  145.6430 C   0  0  0  0  0  2  0  0  0  0  0  0
  186.0060  178.5730  144.1180 C   0  0  0  0  0  3  0  0  0  0  0  0
  184.6780  178.3090  146.3150 C   0  0  0  0  0  2  0  0  0  0  0  0
  191.3740  176.6760  146.6350 S   0  0  0  0  0  0  0  0  0  0  0  0
  192.0970  174.9720  144.2760 N   0  0  0  0  0  0  0  0  0  0  0  0
  191.7620  175.6690  145.2170 C   0  0  0  0  0  0  0  0  0  0  0  0
  190.1120  177.4140  140.2920 C   0  0  0  0  0  2  0  0  0  0  0  0
  190.2800  177.5440  138.7700 C   0  0  0  0  0  3  0  0  0  0  0  0
  191.1610  176.8450  138.1780 O   0  0  0  0  0  0  0  0  0  0  0  0
  2  3  1  0  0  0  0
  3  4  1  0  0  0  0
  3  1  1  6  0  0  0
  5 13  1  0  0  0  0
  6  8  1  1  0  0  0
  6 11  1  0  0  0  0
  8  2  1  0  0  0  0
  9  7  1  0  0  0  0
 10 18  1  1  0  0  0
 10  9  1  0  0  0  0
 11  7  1  0  0  0  0
 11  4  1  1  0  0  0
 12  2  2  0  0  0  0
 13 15  1  1  0  0  0
 13  8  1  0  0  0  0
 14  5  1  1  0  0  0
 14 10  1  0  0  0  0
 14  6  1  0  0  0  0
 16 15  1  0  0  0  0
 17 16  1  0  0  0  0
 17 15  1  0  0  0  0
 20 19  1  6  0  0  0
 20 21  1  0  0  0  0
 20 18  1  0  0  0  0
 21 22  1  0  0  0  0
 23 20  1  0  0  0  0
 24 25  1  0  0  0  0
 24 23  1  0  0  0  0
 26 28  1  0  0  0  0
 27 26  1  0  0  0  0
 27 25  1  1  0  0  0
 27 28  1  0  0  0  0
 29 28  1  0  0  0  0
 30  1  1  0  0  0  0
 31 30  1  6  0  0  0
 31 32  1  0  0  0  0
 32 33  1  0  0  0  0
 33 37  1  0  0  0  0
 33 36  2  0  0  0  0
 34 45  1  6  0  0  0
 35 34  1  0  0  0  0
 36 34  1  0  0  0  0
 37 35  2  0  0  0  0
 38 43  1  0  0  0  0
 38 37  1  0  0  0  0
 39 43  1  0  0  0  0
 39 40  1  0  0  0  0
 40 41  1  0  0  0  0
 41 44  1  0  0  0  0
 42 44  1  0  0  0  0
 43 42  1  0  0  0  0
 46 47  3  0  0  0  0
 47 45  1  0  0  0  0
 48 31  1  0  0  0  0
 49 48  1  0  0  0  0
 50 49  2  0  0  0  0
M  END
>  <MODEL>
5

>  <REMARK>
 VINA RESULT:      -5.0      2.119      3.570
  Name = 
  18 active torsions:
  status: ('A' for Active; 'I' for Inactive)
    1  A    between atoms: N_1  and  C_33
    2  A    between atoms: C_8  and  O_34
    3  A    between atoms: C_9  and  S_21
    4  A    between atoms: S_10  and  C_11
    5  A    between atoms: S_10  and  C_26
    6  A    between atoms: C_13  and  C_23
    7  A    between atoms: C_15  and  C_39
    8  A    between atoms: S_21  and  C_47
    9  A    between atoms: C_23  and  C_28
   10  A    between atoms: O_25  and  C_43
   11  A    between atoms: C_27  and  O_44
   12  A    between atoms: C_28  and  C_33
   13  A    between atoms: C_28  and  O_34
   14  A    between atoms: C_32  and  C_43
   15  A    between atoms: C_32  and  C_47
   16  A    between atoms: C_41  and  O_49
   17  A    between atoms: C_43  and  O_44
   18  A    between atoms: C_48  and  O_49
                            x       y       z     vdW  Elec       q    Type
                         _______ _______ _______ _____ _____    ______ ____

>  <TORSDO>
F 18

$$$$
=
 OpenBabel11062414293D

 50 56  0  0  1  0  0  0  0  0999 V2000
  189.7750  177.2720  141.5470 N   0  0  0  0  0  2  0  0  0  0  0  0
  189.7750  176.7640  139.0760 C   0  0  0  0  0  0  0  0  0  0  0  0
  189.1160  177.2500  140.3940 C   0  0  2  0  0  3  0  0  0  0  0  0
  187.7690  177.9520  140.2110 C   0  0  0  0  0  2  0  0  0  0  0  0
  188.3510  177.6250  135.4600 C   0  0  0  0  0  2  0  0  0  0  0  0
  187.9720  178.1000  137.8090 C   0  0  2  0  0  3  0  0  0  0  0  0
  185.8860  178.5960  138.7670 O   0  0  0  0  0  0  0  0  0  0  0  0
  189.0450  177.1570  137.7640 N   0  0  0  0  0  0  0  0  0  0  0  0
  185.0740  178.5770  137.5650 C   0  0  0  0  0  2  0  0  0  0  0  0
  185.7230  177.7950  136.3790 C   0  0  1  0  0  3  0  0  0  0  0  0
  187.0390  177.7250  138.8350 C   0  0  2  0  0  3  0  0  0  0  0  0
  190.6370  175.8600  139.0490 O   0  0  0  0  0  0  0  0  0  0  0  0
  189.5020  177.0460  136.3500 C   0  0  1  0  0  3  0  0  0  0  0  0
  187.2660  178.0670  136.4750 C   0  0  2  0  0  3  0  0  0  0  0  0
  189.7850  175.5960  136.0400 C   0  0  0  0  0  3  0  0  0  0  0  0
  191.3210  175.3670  135.9200 C   0  0  0  0  0  2  0  0  0  0  0  0
  190.4470  175.4260  134.6360 C   0  0  0  0  0  2  0  0  0  0  0  0
  185.3390  176.4630  136.4990 O   0  0  0  0  0  0  0  0  0  0  0  0
  184.0150  177.0390  134.6920 O   0  0  0  0  0  1  0  0  0  0  0  0
  184.3590  176.0410  135.6250 C   0  0  1  0  0  0  0  0  0  0  0  0
  184.9240  174.9080  134.8870 O   0  0  0  0  0  0  0  0  0  0  0  0
  184.0780  173.7760  134.8990 C   0  0  0  0  0  1  0  0  0  0  0  0
  183.0970  175.5250  136.4720 C   0  0  0  0  0  2  0  0  0  0  0  0
  181.7310  176.0910  136.2020 C   0  0  0  0  0  2  0  0  0  0  0  0
  181.6300  177.7410  137.0190 S   0  0  0  0  0  0  0  0  0  0  0  0
  181.3290  176.2240  139.2560 C   0  0  0  0  0  2  0  0  0  0  0  0
  181.1050  177.5890  138.8410 C   0  0  2  0  0  3  0  0  0  0  0  0
  179.9550  176.7570  139.2810 N   0  0  0  0  0  0  0  0  0  0  0  0
  179.6830  177.0670  140.7120 C   0  0  0  0  0  1  0  0  0  0  0  0
  191.3100  177.2250  141.6520 C   0  0  0  0  0  2  0  0  0  0  0  0
  191.7750  177.1540  143.2470 C   0  0  2  0  0  3  0  0  0  0  0  0
  190.6670  176.9220  144.1600 O   0  0  0  0  0  0  0  0  0  0  0  0
  190.7270  176.9110  145.5350 C   0  0  0  0  0  0  0  0  0  0  0  0
  191.6040  176.3950  147.4900 C   0  0  2  0  0  3  0  0  0  0  0  0
  190.1280  176.1860  147.6230 N   0  0  0  0  0  0  0  0  0  0  0  0
  191.9050  176.7410  146.1360 N   0  0  0  0  0  0  0  0  0  0  0  0
  189.6330  176.6000  146.4970 C   0  0  0  0  0  0  0  0  0  0  0  0
  188.1830  176.8480  146.3060 O   0  0  0  0  0  0  0  0  0  0  0  0
  187.1190  177.2840  144.1380 C   0  0  0  0  0  2  0  0  0  0  0  0
  186.1140  178.1920  143.3970 C   0  0  0  0  0  2  0  0  0  0  0  0
  184.9850  178.6890  144.2180 N   0  0  0  0  0  2  0  0  0  0  0  0
  186.5480  178.7100  146.1150 C   0  0  0  0  0  2  0  0  0  0  0  0
  187.6760  177.8770  145.4340 C   0  0  0  0  0  3  0  0  0  0  0  0
  185.1400  178.3140  145.6270 C   0  0  0  0  0  2  0  0  0  0  0  0
  192.7950  175.3730  148.5170 S   0  0  0  0  0  0  0  0  0  0  0  0
  193.5600  177.8700  149.9890 N   0  0  0  0  0  0  0  0  0  0  0  0
  193.2350  176.8810  149.3570 C   0  0  0  0  0  0  0  0  0  0  0  0
  192.0300  178.6260  143.7890 C   0  0  0  0  0  2  0  0  0  0  0  0
  190.9670  179.7220  143.9680 C   0  0  0  0  0  3  0  0  0  0  0  0
  189.9280  179.7070  143.2370 O   0  0  0  0  0  0  0  0  0  0  0  0
  1 30  1  0  0  0  0
  2  3  1  0  0  0  0
  3  1  1  6  0  0  0
  4  3  1  0  0  0  0
  5 13  1  0  0  0  0
  6  8  1  6  0  0  0
  6 11  1  0  0  0  0
  7 11  1  0  0  0  0
  8  2  1  0  0  0  0
  9  7  1  0  0  0  0
 10 14  1  0  0  0  0
 10 18  1  1  0  0  0
 10  9  1  0  0  0  0
 11  4  1  1  0  0  0
 12  2  2  0  0  0  0
 13 15  1  6  0  0  0
 13  8  1  0  0  0  0
 14  5  1  6  0  0  0
 14  6  1  0  0  0  0
 16 15  1  0  0  0  0
 17 16  1  0  0  0  0
 17 15  1  0  0  0  0
 20 19  1  6  0  0  0
 20 23  1  0  0  0  0
 20 18  1  0  0  0  0
 21 22  1  0  0  0  0
 21 20  1  0  0  0  0
 24 23  1  0  0  0  0
 24 25  1  0  0  0  0
 26 28  1  0  0  0  0
 27 25  1  6  0  0  0
 27 26  1  0  0  0  0
 27 28  1  0  0  0  0
 28 29  1  0  0  0  0
 31 30  1  6  0  0  0
 31 48  1  0  0  0  0
 31 32  1  0  0  0  0
 32 33  1  0  0  0  0
 33 36  2  0  0  0  0
 33 37  1  0  0  0  0
 34 35  1  0  0  0  0
 34 45  1  6  0  0  0
 36 34  1  0  0  0  0
 37 35  2  0  0  0  0
 38 37  1  0  0  0  0
 39 43  1  0  0  0  0
 40 39  1  0  0  0  0
 40 41  1  0  0  0  0
 41 44  1  0  0  0  0
 43 42  1  0  0  0  0
 43 38  1  0  0  0  0
 44 42  1  0  0  0  0
 45 47  1  0  0  0  0
 47 46  3  0  0  0  0
 48 49  1  0  0  0  0
 50 49  2  0  0  0  0
M  END
>  <MODEL>
6

>  <REMARK>
 VINA RESULT:      -5.0      2.324      3.898
  Name = 
  18 active torsions:
  status: ('A' for Active; 'I' for Inactive)
    1  A    between atoms: N_1  and  C_33
    2  A    between atoms: C_8  and  O_34
    3  A    between atoms: C_9  and  S_21
    4  A    between atoms: S_10  and  C_11
    5  A    between atoms: S_10  and  C_26
    6  A    between atoms: C_13  and  C_23
    7  A    between atoms: C_15  and  C_39
    8  A    between atoms: S_21  and  C_47
    9  A    between atoms: C_23  and  C_28
   10  A    between atoms: O_25  and  C_43
   11  A    between atoms: C_27  and  O_44
   12  A    between atoms: C_28  and  C_33
   13  A    between atoms: C_28  and  O_34
   14  A    between atoms: C_32  and  C_43
   15  A    between atoms: C_32  and  C_47
   16  A    between atoms: C_41  and  O_49
   17  A    between atoms: C_43  and  O_44
   18  A    between atoms: C_48  and  O_49
                            x       y       z     vdW  Elec       q    Type
                         _______ _______ _______ _____ _____    ______ ____

>  <TORSDO>
F 18

$$$$
=
 OpenBabel11062414293D

 50 56  0  0  1  0  0  0  0  0999 V2000
  183.1990  176.6150  135.8980 N   0  0  0  0  0  2  0  0  0  0  0  0
  184.8450  177.4010  137.6410 C   0  0  0  0  0  0  0  0  0  0  0  0
  184.4620  176.7810  136.2700 C   0  0  2  0  0  3  0  0  0  0  0  0
  185.6270  176.6400  135.2870 C   0  0  0  0  0  2  0  0  0  0  0  0
  188.4360  178.9220  138.4380 C   0  0  0  0  0  2  0  0  0  0  0  0
  187.1430  177.9660  136.6210 C   0  0  2  0  0  3  0  0  0  0  0  0
  188.0370  176.7570  134.8180 O   0  0  0  0  0  0  0  0  0  0  0  0
  186.3100  177.8950  137.7790 N   0  0  0  0  0  0  0  0  0  0  0  0
  189.4460  176.8660  135.1480 C   0  0  0  0  0  2  0  0  0  0  0  0
  189.7160  177.2100  136.6470 C   0  0  1  0  0  3  0  0  0  0  0  0
  187.0750  176.7260  135.8970 C   0  0  2  0  0  3  0  0  0  0  0  0
  184.1550  177.2360  138.6680 O   0  0  0  0  0  0  0  0  0  0  0  0
  186.9390  178.7170  138.8510 C   0  0  1  0  0  3  0  0  0  0  0  0
  188.5640  178.1830  137.0810 C   0  0  2  0  0  3  0  0  0  0  0  0
  186.8080  177.9870  140.1670 C   0  0  0  0  0  3  0  0  0  0  0  0
  186.2020  178.9360  141.2430 C   0  0  0  0  0  2  0  0  0  0  0  0
  187.7220  178.6140  141.2660 C   0  0  0  0  0  2  0  0  0  0  0  0
  189.7830  176.0080  137.3450 O   0  0  0  0  0  0  0  0  0  0  0  0
  191.4430  174.5010  137.9130 O   0  0  0  0  0  1  0  0  0  0  0  0
  190.9320  175.8040  138.0800 C   0  0  1  0  0  0  0  0  0  0  0  0
  191.9260  176.7480  137.5640 O   0  0  0  0  0  0  0  0  0  0  0  0
  193.2050  176.1650  137.4190 C   0  0  0  0  0  1  0  0  0  0  0  0
  190.6330  176.1600  139.6160 C   0  0  0  0  0  2  0  0  0  0  0  0
  190.9340  177.5370  140.1380 C   0  0  0  0  0  2  0  0  0  0  0  0
  192.2030  177.3740  141.4660 S   0  0  0  0  0  0  0  0  0  0  0  0
  190.8150  175.8400  143.2320 C   0  0  0  0  0  2  0  0  0  0  0  0
  191.4010  177.1590  143.1790 C   0  0  2  0  0  3  0  0  0  0  0  0
  189.9340  177.0140  143.3690 N   0  0  0  0  0  0  0  0  0  0  0  0
  189.6460  177.1190  144.8260 C   0  0  0  0  0  1  0  0  0  0  0  0
  182.0150  177.3550  136.5470 C   0  0  0  0  0  2  0  0  0  0  0  0
  180.5920  176.5560  136.2260 C   0  0  2  0  0  3  0  0  0  0  0  0
  179.4720  177.0340  137.0220 O   0  0  0  0  0  0  0  0  0  0  0  0
  179.0590  178.3400  137.1530 C   0  0  0  0  0  0  0  0  0  0  0  0
  178.9370  180.4630  136.5690 C   0  0  2  0  0  3  0  0  0  0  0  0
  179.1220  180.4450  138.0550 N   0  0  0  0  0  0  0  0  0  0  0  0
  179.0160  179.1240  136.0750 N   0  0  0  0  0  0  0  0  0  0  0  0
  179.0820  179.1890  138.3780 C   0  0  0  0  0  0  0  0  0  0  0  0
  178.9310  178.7310  139.7810 O   0  0  0  0  0  0  0  0  0  0  0  0
  181.3240  178.9050  140.2970 C   0  0  0  0  0  2  0  0  0  0  0  0
  182.3820  178.7150  141.4050 C   0  0  0  0  0  2  0  0  0  0  0  0
  181.9130  178.9900  142.7830 N   0  0  0  0  0  2  0  0  0  0  0  0
  179.7210  178.1440  142.0630 C   0  0  0  0  0  2  0  0  0  0  0  0
  180.0140  178.1490  140.5330 C   0  0  0  0  0  3  0  0  0  0  0  0
  180.4730  179.2590  142.8170 C   0  0  0  0  0  2  0  0  0  0  0  0
  179.5730  181.9080  135.5590 S   0  0  0  0  0  0  0  0  0  0  0  0
  181.2970  182.5830  137.9180 N   0  0  0  0  0  0  0  0  0  0  0  0
  180.6340  182.2970  136.9370 C   0  0  0  0  0  0  0  0  0  0  0  0
  180.6090  175.1370  136.9410 C   0  0  0  0  0  2  0  0  0  0  0  0
  181.2690  173.8590  136.4000 C   0  0  0  0  0  3  0  0  0  0  0  0
  182.5230  173.6990  136.5330 O   0  0  0  0  0  0  0  0  0  0  0  0
  1 30  1  0  0  0  0
  2  8  1  0  0  0  0
  2 12  2  0  0  0  0
  3  1  1  6  0  0  0
  3  2  1  0  0  0  0
  4  3  1  0  0  0  0
  5 13  1  0  0  0  0
  6 14  1  0  0  0  0
  6  8  1  1  0  0  0
  7  9  1  0  0  0  0
  7 11  1  0  0  0  0
  8 13  1  0  0  0  0
  9 10  1  0  0  0  0
 10 14  1  0  0  0  0
 10 18  1  1  0  0  0
 11  4  1  6  0  0  0
 11  6  1  0  0  0  0
 13 15  1  1  0  0  0
 14  5  1  1  0  0  0
 15 16  1  0  0  0  0
 15 17  1  0  0  0  0
 16 17  1  0  0  0  0
 18 20  1  0  0  0  0
 20 19  1  6  0  0  0
 20 23  1  0  0  0  0
 21 20  1  0  0  0  0
 22 21  1  0  0  0  0
 23 24  1  0  0  0  0
 24 25  1  0  0  0  0
 26 28  1  0  0  0  0
 27 25  1  6  0  0  0
 27 26  1  0  0  0  0
 27 28  1  0  0  0  0
 28 29  1  0  0  0  0
 31 30  1  1  0  0  0
 31 48  1  0  0  0  0
 31 32  1  0  0  0  0
 32 33  1  0  0  0  0
 33 37  1  0  0  0  0
 34 45  1  6  0  0  0
 34 35  1  0  0  0  0
 35 37  2  0  0  0  0
 36 34  1  0  0  0  0
 36 33  2  0  0  0  0
 37 38  1  0  0  0  0
 38 43  1  0  0  0  0
 39 43  1  0  0  0  0
 39 40  1  0  0  0  0
 40 41  1  0  0  0  0
 41 44  1  0  0  0  0
 42 44  1  0  0  0  0
 43 42  1  0  0  0  0
 45 47  1  0  0  0  0
 47 46  3  0  0  0  0
 49 50  2  0  0  0  0
 49 48  1  0  0  0  0
M  END
>  <MODEL>
7

>  <REMARK>
 VINA RESULT:      -4.7      2.702      9.345
  Name = 
  18 active torsions:
  status: ('A' for Active; 'I' for Inactive)
    1  A    between atoms: N_1  and  C_33
    2  A    between atoms: C_8  and  O_34
    3  A    between atoms: C_9  and  S_21
    4  A    between atoms: S_10  and  C_11
    5  A    between atoms: S_10  and  C_26
    6  A    between atoms: C_13  and  C_23
    7  A    between atoms: C_15  and  C_39
    8  A    between atoms: S_21  and  C_47
    9  A    between atoms: C_23  and  C_28
   10  A    between atoms: O_25  and  C_43
   11  A    between atoms: C_27  and  O_44
   12  A    between atoms: C_28  and  C_33
   13  A    between atoms: C_28  and  O_34
   14  A    between atoms: C_32  and  C_43
   15  A    between atoms: C_32  and  C_47
   16  A    between atoms: C_41  and  O_49
   17  A    between atoms: C_43  and  O_44
   18  A    between atoms: C_48  and  O_49
                            x       y       z     vdW  Elec       q    Type
                         _______ _______ _______ _____ _____    ______ ____

>  <TORSDO>
F 18

$$$$
=
 OpenBabel11062414293D

 50 56  0  0  1  0  0  0  0  0999 V2000
  184.7000  179.6470  140.1400 N   0  0  0  0  0  2  0  0  0  0  0  0
  186.8730  178.5390  140.7840 C   0  0  0  0  0  0  0  0  0  0  0  0
  185.4670  179.1210  141.0880 C   0  0  2  0  0  3  0  0  0  0  0  0
  184.9290  178.7920  142.4830 C   0  0  0  0  0  2  0  0  0  0  0  0
  188.7840  176.0300  143.2130 C   0  0  0  0  0  2  0  0  0  0  0  0
  186.6610  177.1790  142.9630 C   0  0  2  0  0  3  0  0  0  0  0  0
  185.2830  177.8710  144.7340 O   0  0  0  0  0  0  0  0  0  0  0  0
  187.4790  177.6170  141.8760 N   0  0  0  0  0  0  0  0  0  0  0  0
  186.0590  177.3480  145.8430 C   0  0  0  0  0  2  0  0  0  0  0  0
  187.5550  177.0730  145.4900 C   0  0  1  0  0  3  0  0  0  0  0  0
  185.9830  178.3040  143.5450 C   0  0  2  0  0  3  0  0  0  0  0  0
  187.6170  179.0080  139.8980 O   0  0  0  0  0  0  0  0  0  0  0  0
  188.6810  176.7390  141.8200 C   0  0  1  0  0  3  0  0  0  0  0  0
  187.5620  176.5620  144.0060 C   0  0  2  0  0  3  0  0  0  0  0  0
  189.8940  177.5880  141.5250 C   0  0  0  0  0  3  0  0  0  0  0  0
  190.5050  177.1830  140.1520 C   0  0  0  0  0  2  0  0  0  0  0  0
  191.1970  176.7310  141.4670 C   0  0  0  0  0  2  0  0  0  0  0  0
  188.2610  178.2490  145.7240 O   0  0  0  0  0  0  0  0  0  0  0  0
  188.6580  179.3420  147.7230 O   0  0  0  0  0  1  0  0  0  0  0  0
  189.0180  178.2750  146.8760 C   0  0  1  0  0  0  0  0  0  0  0  0
  188.7380  177.0230  147.5830 O   0  0  0  0  0  0  0  0  0  0  0  0
  188.1640  177.2360  148.8570 C   0  0  0  0  0  1  0  0  0  0  0  0
  190.5720  178.3020  146.4740 C   0  0  0  0  0  2  0  0  0  0  0  0
  190.9980  177.8710  145.0980 C   0  0  0  0  0  2  0  0  0  0  0  0
  191.4800  176.0940  145.1870 S   0  0  0  0  0  0  0  0  0  0  0  0
  191.5100  175.0900  147.7140 C   0  0  0  0  0  2  0  0  0  0  0  0
  192.4320  175.7050  146.7890 C   0  0  2  0  0  3  0  0  0  0  0  0
  192.1360  176.3720  148.0830 N   0  0  0  0  0  0  0  0  0  0  0  0
  193.2190  176.0170  149.0420 C   0  0  0  0  0  1  0  0  0  0  0  0
  184.9040  179.3860  138.6370 C   0  0  0  0  0  2  0  0  0  0  0  0
  183.9010  178.1620  138.1250 C   0  0  2  0  0  3  0  0  0  0  0  0
  183.5060  177.2570  139.1930 O   0  0  0  0  0  0  0  0  0  0  0  0
  182.5620  176.2580  139.1120 C   0  0  0  0  0  0  0  0  0  0  0  0
  181.4630  174.6270  138.1170 C   0  0  2  0  0  3  0  0  0  0  0  0
  180.4400  175.4390  138.8480 N   0  0  0  0  0  0  0  0  0  0  0  0
  182.7380  175.2610  138.2440 N   0  0  0  0  0  0  0  0  0  0  0  0
  181.1270  176.3210  139.5070 C   0  0  0  0  0  0  0  0  0  0  0  0
  180.5370  177.1430  140.5920 O   0  0  0  0  0  0  0  0  0  0  0  0
  180.0210  179.4020  141.4010 C   0  0  0  0  0  2  0  0  0  0  0  0
  179.6760  180.8410  140.9600 C   0  0  0  0  0  2  0  0  0  0  0  0
  180.2910  181.2770  139.6850 N   0  0  0  0  0  2  0  0  0  0  0  0
  180.0840  178.9450  138.9400 C   0  0  0  0  0  2  0  0  0  0  0  0
  179.7630  178.3320  140.3370 C   0  0  0  0  0  3  0  0  0  0  0  0
  181.0050  180.1780  139.0290 C   0  0  0  0  0  2  0  0  0  0  0  0
  180.9910  173.7030  136.5550 S   0  0  0  0  0  0  0  0  0  0  0  0
  181.5000  176.2660  135.0850 N   0  0  0  0  0  0  0  0  0  0  0  0
  181.2500  175.2300  135.6740 C   0  0  0  0  0  0  0  0  0  0  0  0
  184.7600  177.0510  137.3800 C   0  0  0  0  0  2  0  0  0  0  0  0
  186.2910  177.0240  137.2550 C   0  0  0  0  0  3  0  0  0  0  0  0
  186.8400  177.4900  136.2090 O   0  0  0  0  0  0  0  0  0  0  0  0
  2  3  1  0  0  0  0
  2  8  1  0  0  0  0
  3  1  1  6  0  0  0
  3  4  1  0  0  0  0
  6  8  1  6  0  0  0
  6 11  1  0  0  0  0
  6 14  1  0  0  0  0
  7  9  1  0  0  0  0
 10 18  1  6  0  0  0
 10  9  1  0  0  0  0
 11  4  1  6  0  0  0
 11  7  1  0  0  0  0
 12  2  2  0  0  0  0
 13 15  1  1  0  0  0
 13  8  1  0  0  0  0
 13  5  1  0  0  0  0
 14  5  1  6  0  0  0
 14 10  1  0  0  0  0
 16 17  1  0  0  0  0
 16 15  1  0  0  0  0
 17 15  1  0  0  0  0
 18 20  1  0  0  0  0
 20 21  1  0  0  0  0
 20 19  1  1  0  0  0
 21 22  1  0  0  0  0
 23 20  1  0  0  0  0
 24 25  1  0  0  0  0
 24 23  1  0  0  0  0
 26 28  1  0  0  0  0
 27 25  1  6  0  0  0
 27 26  1  0  0  0  0
 27 28  1  0  0  0  0
 28 29  1  0  0  0  0
 30  1  1  0  0  0  0
 31 48  1  6  0  0  0
 31 30  1  0  0  0  0
 31 32  1  0  0  0  0
 33 32  1  0  0  0  0
 33 37  1  0  0  0  0
 34 45  1  6  0  0  0
 34 36  1  0  0  0  0
 34 35  1  0  0  0  0
 35 37  2  0  0  0  0
 36 33  2  0  0  0  0
 37 38  1  0  0  0  0
 40 39  1  0  0  0  0
 41 40  1  0  0  0  0
 42 44  1  0  0  0  0
 42 43  1  0  0  0  0
 43 38  1  0  0  0  0
 43 39  1  0  0  0  0
 44 41  1  0  0  0  0
 46 47  3  0  0  0  0
 47 45  1  0  0  0  0
 49 48  1  0  0  0  0
 50 49  2  0  0  0  0
M  END
>  <MODEL>
8

>  <REMARK>
 VINA RESULT:      -4.6      2.687      9.834
  Name = 
  18 active torsions:
  status: ('A' for Active; 'I' for Inactive)
    1  A    between atoms: N_1  and  C_33
    2  A    between atoms: C_8  and  O_34
    3  A    between atoms: C_9  and  S_21
    4  A    between atoms: S_10  and  C_11
    5  A    between atoms: S_10  and  C_26
    6  A    between atoms: C_13  and  C_23
    7  A    between atoms: C_15  and  C_39
    8  A    between atoms: S_21  and  C_47
    9  A    between atoms: C_23  and  C_28
   10  A    between atoms: O_25  and  C_43
   11  A    between atoms: C_27  and  O_44
   12  A    between atoms: C_28  and  C_33
   13  A    between atoms: C_28  and  O_34
   14  A    between atoms: C_32  and  C_43
   15  A    between atoms: C_32  and  C_47
   16  A    between atoms: C_41  and  O_49
   17  A    between atoms: C_43  and  O_44
   18  A    between atoms: C_48  and  O_49
                            x       y       z     vdW  Elec       q    Type
                         _______ _______ _______ _____ _____    ______ ____

>  <TORSDO>
F 18

$$$$
=
 OpenBabel11062414293D

 50 56  0  0  1  0  0  0  0  0999 V2000
  184.0190  178.3680  142.0720 N   0  0  0  0  0  2  0  0  0  0  0  0
  184.3420  177.8820  139.6190 C   0  0  0  0  0  0  0  0  0  0  0  0
  183.5190  177.9040  140.9340 C   0  0  2  0  0  3  0  0  0  0  0  0
  182.0250  177.6180  140.7550 C   0  0  0  0  0  2  0  0  0  0  0  0
  182.7030  177.5520  136.0060 C   0  0  0  0  0  2  0  0  0  0  0  0
  182.1030  177.7750  138.3470 C   0  0  2  0  0  3  0  0  0  0  0  0
  180.1530  176.9110  139.3280 O   0  0  0  0  0  0  0  0  0  0  0  0
  183.5290  177.6940  138.3090 N   0  0  0  0  0  0  0  0  0  0  0  0
  179.5300  176.3530  138.1440 C   0  0  0  0  0  2  0  0  0  0  0  0
  180.5270  176.0970  136.9690 C   0  0  1  0  0  3  0  0  0  0  0  0
  181.5970  176.9400  139.4010 C   0  0  2  0  0  3  0  0  0  0  0  0
  185.5770  177.7030  139.6020 O   0  0  0  0  0  0  0  0  0  0  0  0
  183.9620  177.8390  136.8910 C   0  0  1  0  0  3  0  0  0  0  0  0
  181.5720  177.2660  137.0280 C   0  0  2  0  0  3  0  0  0  0  0  0
  185.0810  176.8630  136.6190 C   0  0  0  0  0  3  0  0  0  0  0  0
  186.3580  177.6300  136.1650 C   0  0  0  0  0  2  0  0  0  0  0  0
  185.5000  176.8710  135.1150 C   0  0  0  0  0  2  0  0  0  0  0  0
  181.0470  174.8170  137.1360 O   0  0  0  0  0  0  0  0  0  0  0  0
  178.9310  173.8850  137.1480 O   0  0  0  0  0  1  0  0  0  0  0  0
  180.2560  173.7840  136.6800 C   0  0  1  0  0  0  0  0  0  0  0  0
  180.2280  173.8980  135.2190 O   0  0  0  0  0  0  0  0  0  0  0  0
  178.9700  174.3190  134.7320 C   0  0  0  0  0  1  0  0  0  0  0  0
  180.9470  172.3890  137.0730 C   0  0  0  0  0  2  0  0  0  0  0  0
  180.4360  171.1060  136.4790 C   0  0  0  0  0  2  0  0  0  0  0  0
  181.2560  170.8740  134.8440 S   0  0  0  0  0  0  0  0  0  0  0  0
  183.4140  170.4460  136.4440 C   0  0  0  0  0  2  0  0  0  0  0  0
  183.0800  170.3690  135.0410 C   0  0  2  0  0  3  0  0  0  0  0  0
  184.1340  171.3140  135.4940 N   0  0  0  0  0  0  0  0  0  0  0  0
  185.4570  170.6600  135.2930 C   0  0  0  0  0  1  0  0  0  0  0  0
  185.2550  179.2830  142.1500 C   0  0  0  0  0  2  0  0  0  0  0  0
  186.2750  178.7700  143.3590 C   0  0  2  0  0  3  0  0  0  0  0  0
  186.9030  177.4880  143.0770 O   0  0  0  0  0  0  0  0  0  0  0  0
  188.2430  177.1930  143.1820 C   0  0  0  0  0  0  0  0  0  0  0  0
  190.1280  176.8290  144.2670 C   0  0  2  0  0  3  0  0  0  0  0  0
  190.4790  177.6800  143.0860 N   0  0  0  0  0  0  0  0  0  0  0  0
  188.7090  176.6610  144.3130 N   0  0  0  0  0  0  0  0  0  0  0  0
  189.3740  177.7850  142.4140 C   0  0  0  0  0  0  0  0  0  0  0  0
  189.3340  178.2960  141.0220 O   0  0  0  0  0  0  0  0  0  0  0  0
  189.2420  178.2280  138.5700 C   0  0  0  0  0  2  0  0  0  0  0  0
  189.6510  177.4120  137.3250 C   0  0  0  0  0  2  0  0  0  0  0  0
  190.9250  176.6670  137.4460 N   0  0  0  0  0  2  0  0  0  0  0  0
  190.3810  176.3860  139.8260 C   0  0  0  0  0  2  0  0  0  0  0  0
  189.2250  177.4290  139.8750 C   0  0  0  0  0  3  0  0  0  0  0  0
  191.4730  176.7560  138.8030 C   0  0  0  0  0  2  0  0  0  0  0  0
  191.1420  176.9370  145.8400 S   0  0  0  0  0  0  0  0  0  0  0  0
  188.6460  177.6830  147.3240 N   0  0  0  0  0  0  0  0  0  0  0  0
  189.6360  177.3790  146.6830 C   0  0  0  0  0  0  0  0  0  0  0  0
  185.4170  178.1850  144.5620 C   0  0  0  0  0  2  0  0  0  0  0  0
  184.6960  179.0060  145.6430 C   0  0  0  0  0  3  0  0  0  0  0  0
  183.8560  179.8930  145.2950 O   0  0  0  0  0  0  0  0  0  0  0  0
  1 30  1  0  0  0  0
  2  3  1  0  0  0  0
  3  1  1  6  0  0  0
  4  3  1  0  0  0  0
  5 13  1  0  0  0  0
  6  8  1  6  0  0  0
  6 11  1  0  0  0  0
  7 11  1  0  0  0  0
  8  2  1  0  0  0  0
  9  7  1  0  0  0  0
 10 14  1  0  0  0  0
 10 18  1  1  0  0  0
 10  9  1  0  0  0  0
 11  4  1  1  0  0  0
 12  2  2  0  0  0  0
 13 15  1  6  0  0  0
 13  8  1  0  0  0  0
 14  5  1  6  0  0  0
 14  6  1  0  0  0  0
 16 15  1  0  0  0  0
 17 16  1  0  0  0  0
 17 15  1  0  0  0  0
 20 23  1  0  0  0  0
 20 18  1  0  0  0  0
 20 19  1  1  0  0  0
 21 20  1  0  0  0  0
 22 21  1  0  0  0  0
 24 23  1  0  0  0  0
 25 24  1  0  0  0  0
 27 25  1  1  0  0  0
 27 28  1  0  0  0  0
 27 26  1  0  0  0  0
 28 26  1  0  0  0  0
 29 28  1  0  0  0  0
 31 30  1  6  0  0  0
 31 48  1  0  0  0  0
 32 33  1  0  0  0  0
 32 31  1  0  0  0  0
 33 36  2  0  0  0  0
 34 36  1  0  0  0  0
 34 45  1  1  0  0  0
 35 34  1  0  0  0  0
 37 35  2  0  0  0  0
 37 33  1  0  0  0  0
 38 37  1  0  0  0  0
 39 43  1  0  0  0  0
 40 41  1  0  0  0  0
 40 39  1  0  0  0  0
 41 44  1  0  0  0  0
 42 43  1  0  0  0  0
 43 38  1  0  0  0  0
 44 42  1  0  0  0  0
 45 47  1  0  0  0  0
 47 46  3  0  0  0  0
 48 49  1  0  0  0  0
 50 49  2  0  0  0  0
M  END
>  <MODEL>
9

>  <REMARK>
 VINA RESULT:      -4.6      2.285      5.523
  Name = 
  18 active torsions:
  status: ('A' for Active; 'I' for Inactive)
    1  A    between atoms: N_1  and  C_33
    2  A    between atoms: C_8  and  O_34
    3  A    between atoms: C_9  and  S_21
    4  A    between atoms: S_10  and  C_11
    5  A    between atoms: S_10  and  C_26
    6  A    between atoms: C_13  and  C_23
    7  A    between atoms: C_15  and  C_39
    8  A    between atoms: S_21  and  C_47
    9  A    between atoms: C_23  and  C_28
   10  A    between atoms: O_25  and  C_43
   11  A    between atoms: C_27  and  O_44
   12  A    between atoms: C_28  and  C_33
   13  A    between atoms: C_28  and  O_34
   14  A    between atoms: C_32  and  C_43
   15  A    between atoms: C_32  and  C_47
   16  A    between atoms: C_41  and  O_49
   17  A    between atoms: C_43  and  O_44
   18  A    between atoms: C_48  and  O_49
                            x       y       z     vdW  Elec       q    Type
                         _______ _______ _______ _____ _____    ______ ____

>  <TORSDO>
F 18

$$$$
