=
 OpenBabel11062417133D

 36 40  0  0  1  0  0  0  0  0999 V2000
  187.6340  177.6760  137.8580 C   0  0  0  0  0  0  0  0  0  0  0  0
  191.5620  176.6280  138.2830 O   0  0  0  0  0  0  0  0  0  0  0  0
  181.5830  179.2730  141.9090 C   0  0  0  0  0  2  0  0  0  0  0  0
  185.2700  178.5470  139.6380 C   0  0  0  0  0  0  0  0  0  0  0  0
  182.7640  179.0130  139.9070 C   0  0  0  0  0  2  0  0  0  0  0  0
  184.1380  178.7060  140.4240 C   0  0  0  0  0  0  0  0  0  0  0  0
  181.7340  178.4170  140.7460 N   0  0  0  0  0  2  0  0  0  0  0  0
  188.2550  177.7970  139.0510 C   0  0  2  0  0  3  0  0  0  0  0  0
  186.3530  178.6030  140.5030 C   0  0  0  0  0  0  0  0  0  0  0  0
  188.2900  176.8610  136.7740 C   0  0  2  0  0  3  0  0  0  0  0  0
  190.4550  176.3050  135.8250 O   0  0  0  0  0  1  0  0  0  0  0  0
  189.5660  177.3170  139.2050 O   0  0  0  0  0  0  0  0  0  0  0  0
  188.0520  175.5050  137.0420 O   0  0  0  0  0  1  0  0  0  0  0  0
  185.2720  178.4570  138.3090 C   0  0  0  0  0  3  0  0  0  0  0  0
  190.3680  176.9920  138.1060 C   0  0  0  0  0  0  0  0  0  0  0  0
  187.6420  178.3570  140.2640 C   0  0  0  0  0  3  0  0  0  0  0  0
  186.4910  178.5530  137.4550 C   0  0  0  0  0  3  0  0  0  0  0  0
  184.6140  178.8960  141.7180 C   0  0  0  0  0  0  0  0  0  0  0  0
  189.8020  177.1470  136.7320 C   0  0  2  0  0  3  0  0  0  0  0  0
  182.4310  178.7210  143.0370 C   0  0  0  0  0  2  0  0  0  0  0  0
  183.8460  179.0990  142.9250 N   0  0  0  0  0  0  0  0  0  0  0  0
  185.9300  178.8530  141.7160 O   0  0  0  0  0  0  0  0  0  0  0  0
  184.6240  179.1120  144.1650 C   0  0  2  0  0  3  0  0  0  0  0  0
  184.5510  178.2560  146.5940 C   0  0  0  0  0  2  0  0  0  0  0  0
  185.8210  178.1610  144.0720 C   0  0  0  0  0  2  0  0  0  0  0  0
  186.0060  178.6360  146.5210 C   0  0  0  0  0  0  0  0  0  0  0  0
  186.7910  178.3810  145.2480 C   0  0  1  0  0  3  0  0  0  0  0  0
  183.7540  178.8300  145.4020 C   0  0  0  0  0  2  0  0  0  0  0  0
  186.5280  179.2220  147.4590 O   0  0  0  0  0  0  0  0  0  0  0  0
  187.7370  177.1740  145.3920 C   0  0  1  0  0  3  0  0  0  0  0  0
  188.3130  175.8690  143.5020 O   0  0  0  0  0  0  0  0  0  0  0  0
  189.5050  177.9050  143.6620 C   0  0  0  0  0  1  0  0  0  0  0  0
  188.5030  176.9000  144.1390 C   0  0  0  0  0  0  0  0  0  0  0  0
  188.6990  177.3450  146.5310 C   0  0  0  0  0  0  0  0  0  0  0  0
  189.5650  178.2580  146.4900 O   0  0  0  0  0  0  0  0  0  0  0  0
  188.6310  176.5020  147.6370 O   0  0  0  0  0  1  0  0  0  0  0  0
  1  8  1  0  0  0  0
  3 20  1  0  0  0  0
  4  6  1  0  0  0  0
  4  9  1  0  0  0  0
  5  6  1  0  0  0  0
  5  7  1  0  0  0  0
  6 18  2  0  0  0  0
  7  3  1  0  0  0  0
  8 12  1  0  0  0  0
  8 16  1  1  0  0  0
  9 22  1  0  0  0  0
 10 13  1  1  0  0  0
 10  1  1  0  0  0  0
 14  4  2  0  0  0  0
 15  2  2  0  0  0  0
 15 12  1  0  0  0  0
 16  9  2  0  0  0  0
 17  1  2  0  0  0  0
 17 14  1  0  0  0  0
 18 21  1  0  0  0  0
 19 11  1  6  0  0  0
 19 10  1  0  0  0  0
 19 15  1  0  0  0  0
 21 20  1  0  0  0  0
 22 18  1  0  0  0  0
 23 21  1  6  0  0  0
 23 28  1  0  0  0  0
 25 23  1  0  0  0  0
 25 27  1  0  0  0  0
 26 24  1  0  0  0  0
 26 29  2  0  0  0  0
 27 30  1  1  0  0  0
 27 26  1  0  0  0  0
 28 24  1  0  0  0  0
 30 33  1  6  0  0  0
 30 34  1  0  0  0  0
 31 33  2  0  0  0  0
 32 33  1  0  0  0  0
 34 36  1  0  0  0  0
 35 34  2  0  0  0  0
M  END
>  <MODEL>
1

>  <REMARK>
 VINA RESULT:      -9.9      0.000      0.000
  Name = 
  4 active torsions:
  status: ('A' for Active; 'I' for Inactive)
    1  A    between atoms: C_2  and  N_34
    2  A    between atoms: C_10  and  C_11
    3  A    between atoms: C_10  and  C_19
    4  A    between atoms: C_10  and  C_28
                            x       y       z     vdW  Elec       q    Type
                         _______ _______ _______ _____ _____    ______ ____

>  <TORSDO>
F 4

$$$$
=
 OpenBabel11062417133D

 36 40  0  0  1  0  0  0  0  0999 V2000
  186.3680  178.0980  138.4060 C   0  0  0  0  0  0  0  0  0  0  0  0
  190.0210  177.0850  136.8770 O   0  0  0  0  0  0  0  0  0  0  0  0
  182.8510  179.0030  144.9160 C   0  0  0  0  0  2  0  0  0  0  0  0
  185.0930  178.6690  141.1560 C   0  0  0  0  0  0  0  0  0  0  0  0
  182.9960  179.0420  142.5820 C   0  0  0  0  0  2  0  0  0  0  0  0
  184.4420  178.6970  142.3800 C   0  0  0  0  0  0  0  0  0  0  0  0
  182.4270  178.3160  143.7090 N   0  0  0  0  0  2  0  0  0  0  0  0
  187.4630  178.0690  139.1960 C   0  0  2  0  0  3  0  0  0  0  0  0
  186.4500  178.6300  141.4400 C   0  0  0  0  0  0  0  0  0  0  0  0
  186.4320  177.4500  137.0470 C   0  0  2  0  0  3  0  0  0  0  0  0
  187.9160  177.0740  135.1620 O   0  0  0  0  0  1  0  0  0  0  0  0
  188.6810  177.6000  138.6800 O   0  0  0  0  0  0  0  0  0  0  0  0
  186.2830  176.0660  137.2140 O   0  0  0  0  0  1  0  0  0  0  0  0
  184.4940  178.7600  139.9690 C   0  0  0  0  0  3  0  0  0  0  0  0
  188.8910  177.4440  137.3060 C   0  0  0  0  0  0  0  0  0  0  0  0
  187.4830  178.4470  140.6170 C   0  0  0  0  0  3  0  0  0  0  0  0
  185.2040  178.9960  138.6780 C   0  0  0  0  0  3  0  0  0  0  0  0
  185.4550  178.7190  143.3350 C   0  0  0  0  0  0  0  0  0  0  0  0
  187.7760  177.7710  136.3660 C   0  0  2  0  0  3  0  0  0  0  0  0
  184.0900  178.3220  145.4590 C   0  0  0  0  0  2  0  0  0  0  0  0
  185.3190  178.7410  144.7730 N   0  0  0  0  0  0  0  0  0  0  0  0
  186.6270  178.7050  142.7350 O   0  0  0  0  0  0  0  0  0  0  0  0
  186.5710  178.6030  145.5190 C   0  0  2  0  0  3  0  0  0  0  0  0
  187.5910  177.3350  147.5170 C   0  0  0  0  0  2  0  0  0  0  0  0
  187.5950  177.7840  144.7280 C   0  0  0  0  0  2  0  0  0  0  0  0
  188.8610  177.8410  146.8850 C   0  0  0  0  0  0  0  0  0  0  0  0
  188.9900  177.8760  145.3740 C   0  0  1  0  0  3  0  0  0  0  0  0
  186.3460  178.0400  146.9340 C   0  0  0  0  0  2  0  0  0  0  0  0
  189.7500  178.2960  147.5900 O   0  0  0  0  0  0  0  0  0  0  0  0
  189.8950  176.7450  144.8510 C   0  0  1  0  0  3  0  0  0  0  0  0
  189.2430  175.6290  142.8670 O   0  0  0  0  0  0  0  0  0  0  0  0
  190.4370  177.6360  142.4920 C   0  0  0  0  0  1  0  0  0  0  0  0
  189.8150  176.5920  143.3670 C   0  0  0  0  0  0  0  0  0  0  0  0
  191.3290  176.9400  145.2500 C   0  0  0  0  0  0  0  0  0  0  0  0
  191.8740  178.0650  145.1010 O   0  0  0  0  0  0  0  0  0  0  0  0
  192.0540  175.8830  145.7930 O   0  0  0  0  0  1  0  0  0  0  0  0
  1 17  2  0  0  0  0
  1  8  1  0  0  0  0
  2 15  2  0  0  0  0
  3 20  1  0  0  0  0
  4  9  1  0  0  0  0
  4  6  1  0  0  0  0
  5  7  1  0  0  0  0
  6  5  1  0  0  0  0
  6 18  2  0  0  0  0
  7  3  1  0  0  0  0
  8 16  1  1  0  0  0
  9 22  1  0  0  0  0
 10 13  1  1  0  0  0
 10  1  1  0  0  0  0
 12  8  1  0  0  0  0
 14  4  2  0  0  0  0
 15 12  1  0  0  0  0
 16  9  2  0  0  0  0
 17 14  1  0  0  0  0
 18 21  1  0  0  0  0
 19 11  1  6  0  0  0
 19 10  1  0  0  0  0
 19 15  1  0  0  0  0
 21 20  1  0  0  0  0
 21 23  1  0  0  0  0
 22 18  1  0  0  0  0
 23 25  1  6  0  0  0
 23 28  1  0  0  0  0
 25 27  1  0  0  0  0
 26 24  1  0  0  0  0
 26 29  2  0  0  0  0
 27 30  1  6  0  0  0
 27 26  1  0  0  0  0
 28 24  1  0  0  0  0
 30 33  1  6  0  0  0
 30 34  1  0  0  0  0
 31 33  2  0  0  0  0
 32 33  1  0  0  0  0
 34 36  1  0  0  0  0
 35 34  2  0  0  0  0
M  END
>  <MODEL>
2

>  <REMARK>
 VINA RESULT:      -9.3      1.454      2.297
  Name = 
  4 active torsions:
  status: ('A' for Active; 'I' for Inactive)
    1  A    between atoms: C_2  and  N_34
    2  A    between atoms: C_10  and  C_11
    3  A    between atoms: C_10  and  C_19
    4  A    between atoms: C_10  and  C_28
                            x       y       z     vdW  Elec       q    Type
                         _______ _______ _______ _____ _____    ______ ____

>  <TORSDO>
F 4

$$$$
=
 OpenBabel11062417133D

 36 40  0  0  1  0  0  0  0  0999 V2000
  188.9330  177.3190  137.5670 C   0  0  0  0  0  0  0  0  0  0  0  0
  192.7880  175.9720  137.3840 O   0  0  0  0  0  0  0  0  0  0  0  0
  183.6040  179.0090  142.4990 C   0  0  0  0  0  2  0  0  0  0  0  0
  186.8970  178.2090  139.7050 C   0  0  0  0  0  0  0  0  0  0  0  0
  184.4910  178.8250  140.3430 C   0  0  0  0  0  2  0  0  0  0  0  0
  185.8920  178.3840  140.6470 C   0  0  0  0  0  0  0  0  0  0  0  0
  183.5350  178.2380  141.2700 N   0  0  0  0  0  2  0  0  0  0  0  0
  189.7120  177.3020  138.6710 C   0  0  2  0  0  3  0  0  0  0  0  0
  188.0830  178.1220  140.4180 C   0  0  0  0  0  0  0  0  0  0  0  0
  189.3760  176.5470  136.3510 C   0  0  2  0  0  3  0  0  0  0  0  0
  191.3490  175.9190  135.0830 O   0  0  0  0  0  1  0  0  0  0  0  0
  190.9890  176.7220  138.6130 O   0  0  0  0  0  0  0  0  0  0  0  0
  189.0690  175.1950  136.5560 O   0  0  0  0  0  1  0  0  0  0  0  0
  186.7180  178.2240  138.3860 C   0  0  0  0  0  3  0  0  0  0  0  0
  191.6130  176.4300  137.3960 C   0  0  0  0  0  0  0  0  0  0  0  0
  189.3070  177.8070  139.9910 C   0  0  0  0  0  3  0  0  0  0  0  0
  187.8200  178.3010  137.3830 C   0  0  0  0  0  3  0  0  0  0  0  0
  186.5450  178.4390  141.8750 C   0  0  0  0  0  0  0  0  0  0  0  0
  190.8880  176.7300  136.1240 C   0  0  2  0  0  3  0  0  0  0  0  0
  184.5450  178.3140  143.4610 C   0  0  0  0  0  2  0  0  0  0  0  0
  185.9590  178.6000  143.1850 N   0  0  0  0  0  0  0  0  0  0  0  0
  187.8420  178.3060  141.6910 O   0  0  0  0  0  0  0  0  0  0  0  0
  186.8910  178.4630  144.3060 C   0  0  2  0  0  3  0  0  0  0  0  0
  187.1660  177.2280  146.5520 C   0  0  0  0  0  2  0  0  0  0  0  0
  188.1010  177.6110  143.9130 C   0  0  0  0  0  2  0  0  0  0  0  0
  188.5840  177.7010  146.3660 C   0  0  0  0  0  0  0  0  0  0  0  0
  189.2060  177.6980  144.9830 C   0  0  1  0  0  3  0  0  0  0  0  0
  186.1990  177.9360  145.5770 C   0  0  0  0  0  2  0  0  0  0  0  0
  189.2000  178.1610  147.3180 O   0  0  0  0  0  0  0  0  0  0  0  0
  190.2090  176.5420  144.8090 C   0  0  1  0  0  3  0  0  0  0  0  0
  190.2210  175.3330  142.7740 O   0  0  0  0  0  0  0  0  0  0  0  0
  191.4340  177.3630  142.6920 C   0  0  0  0  0  1  0  0  0  0  0  0
  190.5930  176.3320  143.3810 C   0  0  0  0  0  0  0  0  0  0  0  0
  191.4500  176.7450  145.6290 C   0  0  0  0  0  0  0  0  0  0  0  0
  192.0090  177.8730  145.6510 O   0  0  0  0  0  0  0  0  0  0  0  0
  191.9770  175.6930  146.3720 O   0  0  0  0  0  1  0  0  0  0  0  0
  1  8  1  0  0  0  0
  2 15  2  0  0  0  0
  3 20  1  0  0  0  0
  4  9  1  0  0  0  0
  4  6  1  0  0  0  0
  5  6  1  0  0  0  0
  5  7  1  0  0  0  0
  6 18  2  0  0  0  0
  7  3  1  0  0  0  0
  8 16  1  1  0  0  0
  9 22  1  0  0  0  0
 10 13  1  1  0  0  0
 10  1  1  0  0  0  0
 12  8  1  0  0  0  0
 14  4  2  0  0  0  0
 15 12  1  0  0  0  0
 16  9  2  0  0  0  0
 17  1  2  0  0  0  0
 17 14  1  0  0  0  0
 18 21  1  0  0  0  0
 19 11  1  6  0  0  0
 19 10  1  0  0  0  0
 19 15  1  0  0  0  0
 21 20  1  0  0  0  0
 22 18  1  0  0  0  0
 23 21  1  6  0  0  0
 23 28  1  0  0  0  0
 25 23  1  0  0  0  0
 25 27  1  0  0  0  0
 26 24  1  0  0  0  0
 26 29  2  0  0  0  0
 27 30  1  1  0  0  0
 27 26  1  0  0  0  0
 28 24  1  0  0  0  0
 30 33  1  6  0  0  0
 30 34  1  0  0  0  0
 31 33  2  0  0  0  0
 32 33  1  0  0  0  0
 34 35  2  0  0  0  0
 34 36  1  0  0  0  0
M  END
>  <MODEL>
3

>  <REMARK>
 VINA RESULT:      -9.3      1.551      2.121
  Name = 
  4 active torsions:
  status: ('A' for Active; 'I' for Inactive)
    1  A    between atoms: C_2  and  N_34
    2  A    between atoms: C_10  and  C_11
    3  A    between atoms: C_10  and  C_19
    4  A    between atoms: C_10  and  C_28
                            x       y       z     vdW  Elec       q    Type
                         _______ _______ _______ _____ _____    ______ ____

>  <TORSDO>
F 4

$$$$
=
 OpenBabel11062417133D

 36 40  0  0  1  0  0  0  0  0999 V2000
  182.1920  178.6540  141.4660 C   0  0  0  0  0  0  0  0  0  0  0  0
  181.6070  178.4130  137.4280 O   0  0  0  0  0  0  0  0  0  0  0  0
  187.5290  177.8780  146.6120 C   0  0  0  0  0  2  0  0  0  0  0  0
  184.5320  178.5370  143.4710 C   0  0  0  0  0  0  0  0  0  0  0  0
  185.3600  178.3690  145.8920 C   0  0  0  0  0  2  0  0  0  0  0  0
  185.5190  178.2530  144.4050 C   0  0  0  0  0  0  0  0  0  0  0  0
  186.1660  177.3800  146.5930 N   0  0  0  0  0  2  0  0  0  0  0  0
  183.2420  178.6160  140.6170 C   0  0  0  0  0  0  0  0  0  0  0  0
  185.1740  178.6170  142.2440 C   0  0  0  0  0  0  0  0  0  0  0  0
  180.8250  178.2850  140.9510 C   0  0  2  0  0  3  0  0  0  0  0  0
  179.3920  178.4580  138.9980 O   0  0  0  0  0  1  0  0  0  0  0  0
  183.0220  178.4090  139.2460 O   0  0  0  0  0  0  0  0  0  0  0  0
  180.7400  176.8870  140.8980 O   0  0  0  0  0  1  0  0  0  0  0  0
  183.2530  178.7720  143.7580 C   0  0  0  0  0  3  0  0  0  0  0  0
  181.7520  178.5410  138.6740 C   0  0  0  0  0  0  0  0  0  0  0  0
  184.6520  178.7220  141.0210 C   0  0  0  0  0  3  0  0  0  0  0  0
  182.2590  179.3320  142.7970 C   0  0  0  0  0  2  0  0  0  0  0  0
  186.7090  178.2250  143.6840 C   0  0  0  0  0  0  0  0  0  0  0  0
  180.5980  178.8950  139.5550 C   0  0  2  0  0  3  0  0  0  0  0  0
  188.2900  177.2690  145.4520 C   0  0  0  0  0  2  0  0  0  0  0  0
  188.0400  177.9600  144.1800 N   0  0  0  0  0  0  0  0  0  0  0  0
  186.4630  178.4700  142.4150 O   0  0  0  0  0  0  0  0  0  0  0  0
  189.0760  177.8440  143.1520 C   0  0  2  0  0  3  0  0  0  0  0  0
  190.9930  176.2960  142.3950 C   0  0  0  0  0  2  0  0  0  0  0  0
  188.4720  177.4300  141.8070 C   0  0  0  0  0  2  0  0  0  0  0  0
  190.8710  177.1450  141.1570 C   0  0  0  0  0  0  0  0  0  0  0  0
  189.5020  177.5810  140.6720 C   0  0  1  0  0  3  0  0  0  0  0  0
  190.2230  176.9120  143.5840 C   0  0  0  0  0  2  0  0  0  0  0  0
  191.8810  177.5460  140.5950 O   0  0  0  0  0  0  0  0  0  0  0  0
  189.0520  176.7820  139.4340 C   0  0  1  0  0  3  0  0  0  0  0  0
  187.6540  178.6280  138.9380 O   0  0  0  0  0  0  0  0  0  0  0  0
  187.2410  176.7230  137.5980 C   0  0  0  0  0  1  0  0  0  0  0  0
  187.9590  177.4680  138.6810 C   0  0  0  0  0  0  0  0  0  0  0  0
  190.1920  176.5000  138.5010 C   0  0  0  0  0  0  0  0  0  0  0  0
  190.5960  177.3950  137.7130 O   0  0  0  0  0  0  0  0  0  0  0  0
  190.8120  175.2530  138.5100 O   0  0  0  0  0  1  0  0  0  0  0  0
  1 17  1  0  0  0  0
  2 15  2  0  0  0  0
  4 14  2  0  0  0  0
  4  6  1  0  0  0  0
  5  7  1  0  0  0  0
  6  5  1  0  0  0  0
  7  3  1  0  0  0  0
  8 16  1  0  0  0  0
  8  1  2  0  0  0  0
  9 22  1  0  0  0  0
  9  4  1  0  0  0  0
 10 13  1  6  0  0  0
 10  1  1  0  0  0  0
 12  8  1  0  0  0  0
 15 12  1  0  0  0  0
 15 19  1  0  0  0  0
 16  9  2  0  0  0  0
 17 14  1  0  0  0  0
 18 21  1  0  0  0  0
 18  6  2  0  0  0  0
 19 11  1  6  0  0  0
 19 10  1  0  0  0  0
 20  3  1  0  0  0  0
 21 20  1  0  0  0  0
 22 18  1  0  0  0  0
 23 25  1  6  0  0  0
 23 28  1  0  0  0  0
 23 21  1  0  0  0  0
 24 28  1  0  0  0  0
 26 24  1  0  0  0  0
 27 30  1  6  0  0  0
 27 26  1  0  0  0  0
 27 25  1  0  0  0  0
 29 26  2  0  0  0  0
 30 34  1  6  0  0  0
 32 33  1  0  0  0  0
 33 31  2  0  0  0  0
 33 30  1  0  0  0  0
 34 36  1  0  0  0  0
 35 34  2  0  0  0  0
M  END
>  <MODEL>
4

>  <REMARK>
 VINA RESULT:      -9.1      2.590      6.906
  Name = 
  4 active torsions:
  status: ('A' for Active; 'I' for Inactive)
    1  A    between atoms: C_2  and  N_34
    2  A    between atoms: C_10  and  C_11
    3  A    between atoms: C_10  and  C_19
    4  A    between atoms: C_10  and  C_28
                            x       y       z     vdW  Elec       q    Type
                         _______ _______ _______ _____ _____    ______ ____

>  <TORSDO>
F 4

$$$$
=
 OpenBabel11062417133D

 36 40  0  0  1  0  0  0  0  0999 V2000
  189.9740  177.8110  144.7780 C   0  0  0  0  0  0  0  0  0  0  0  0
  186.6500  177.5860  147.1450 O   0  0  0  0  0  0  0  0  0  0  0  0
  192.1700  176.7140  137.7390 C   0  0  0  0  0  2  0  0  0  0  0  0
  190.7050  177.5510  141.7930 C   0  0  0  0  0  0  0  0  0  0  0  0
  192.4930  177.3430  139.9680 C   0  0  0  0  0  2  0  0  0  0  0  0
  191.1000  177.2080  140.5080 C   0  0  0  0  0  0  0  0  0  0  0  0
  192.7880  176.3070  138.9880 N   0  0  0  0  0  2  0  0  0  0  0  0
  188.7430  177.6990  144.2320 C   0  0  2  0  0  3  0  0  0  0  0  0
  189.3180  177.5820  141.7750 C   0  0  0  0  0  0  0  0  0  0  0  0
  190.1470  177.5300  146.2480 C   0  0  2  0  0  3  0  0  0  0  0  0
  189.0490  177.7850  148.3990 O   0  0  0  0  0  1  0  0  0  0  0  0
  187.6290  177.4990  145.0610 O   0  0  0  0  0  0  0  0  0  0  0  0
  190.1870  176.1400  146.4260 O   0  0  0  0  0  1  0  0  0  0  0  0
  191.5320  177.8710  142.7870 C   0  0  0  0  0  3  0  0  0  0  0  0
  187.6890  177.7110  146.4430 C   0  0  0  0  0  0  0  0  0  0  0  0
  188.4610  177.7140  142.7890 C   0  0  0  0  0  3  0  0  0  0  0  0
  191.1060  178.4910  144.0760 C   0  0  0  0  0  3  0  0  0  0  0  0
  189.9200  177.0970  139.7780 C   0  0  0  0  0  0  0  0  0  0  0  0
  188.9840  178.1450  147.0490 C   0  0  2  0  0  3  0  0  0  0  0  0
  190.8130  176.0490  137.6240 C   0  0  0  0  0  2  0  0  0  0  0  0
  189.7690  176.7480  138.3840 N   0  0  0  0  0  0  0  0  0  0  0  0
  188.8920  177.3510  140.5600 O   0  0  0  0  0  0  0  0  0  0  0  0
  188.3880  176.5580  137.9360 C   0  0  2  0  0  3  0  0  0  0  0  0
  186.7880  177.2060  136.0220 C   0  0  0  0  0  2  0  0  0  0  0  0
  188.1830  175.1500  137.3680 C   0  0  0  0  0  2  0  0  0  0  0  0
  185.9830  176.0900  136.6360 C   0  0  0  0  0  0  0  0  0  0  0  0
  186.6860  174.8530  137.1610 C   0  0  1  0  0  3  0  0  0  0  0  0
  187.9400  177.6520  136.9500 C   0  0  0  0  0  2  0  0  0  0  0  0
  184.7760  176.2210  136.7810 O   0  0  0  0  0  0  0  0  0  0  0  0
  186.5070  173.6490  136.2180 C   0  0  1  0  0  3  0  0  0  0  0  0
  187.9800  172.0410  137.1410 O   0  0  0  0  0  0  0  0  0  0  0  0
  188.5880  172.7680  134.9730 C   0  0  0  0  0  1  0  0  0  0  0  0
  187.7110  172.7660  136.1880 C   0  0  0  0  0  0  0  0  0  0  0  0
  185.3020  172.8290  136.5730 C   0  0  0  0  0  0  0  0  0  0  0  0
  184.7150  172.1580  135.6840 O   0  0  0  0  0  0  0  0  0  0  0  0
  184.8370  172.8000  137.8850 O   0  0  0  0  0  1  0  0  0  0  0  0
  1 10  1  0  0  0  0
  3  7  1  0  0  0  0
  4 14  2  0  0  0  0
  5  6  1  0  0  0  0
  6  4  1  0  0  0  0
  7  5  1  0  0  0  0
  8 16  1  6  0  0  0
  8  1  1  0  0  0  0
  8 12  1  0  0  0  0
  9  4  1  0  0  0  0
  9 16  2  0  0  0  0
 10 13  1  6  0  0  0
 10 19  1  0  0  0  0
 12 15  1  0  0  0  0
 14 17  1  0  0  0  0
 15 19  1  0  0  0  0
 15  2  2  0  0  0  0
 17  1  2  0  0  0  0
 18  6  2  0  0  0  0
 18 22  1  0  0  0  0
 19 11  1  1  0  0  0
 20  3  1  0  0  0  0
 20 21  1  0  0  0  0
 21 18  1  0  0  0  0
 22  9  1  0  0  0  0
 23 28  1  6  0  0  0
 23 21  1  0  0  0  0
 24 26  1  0  0  0  0
 24 28  1  0  0  0  0
 25 23  1  0  0  0  0
 26 29  2  0  0  0  0
 26 27  1  0  0  0  0
 27 30  1  6  0  0  0
 27 25  1  0  0  0  0
 30 33  1  1  0  0  0
 30 34  1  0  0  0  0
 32 33  1  0  0  0  0
 33 31  2  0  0  0  0
 34 36  1  0  0  0  0
 35 34  2  0  0  0  0
M  END
>  <MODEL>
5

>  <REMARK>
 VINA RESULT:      -9.0      3.686      9.081
  Name = 
  4 active torsions:
  status: ('A' for Active; 'I' for Inactive)
    1  A    between atoms: C_2  and  N_34
    2  A    between atoms: C_10  and  C_11
    3  A    between atoms: C_10  and  C_19
    4  A    between atoms: C_10  and  C_28
                            x       y       z     vdW  Elec       q    Type
                         _______ _______ _______ _____ _____    ______ ____

>  <TORSDO>
F 4

$$$$
=
 OpenBabel11062417133D

 36 40  0  0  1  0  0  0  0  0999 V2000
  191.0790  177.2490  142.1410 C   0  0  0  0  0  0  0  0  0  0  0  0
  188.8130  177.8640  145.4860 O   0  0  0  0  0  0  0  0  0  0  0  0
  190.4010  175.8760  134.8450 C   0  0  0  0  0  2  0  0  0  0  0  0
  190.6680  176.9190  139.1020 C   0  0  0  0  0  0  0  0  0  0  0  0
  191.6120  176.2960  136.8010 C   0  0  0  0  0  2  0  0  0  0  0  0
  190.5000  176.5340  137.7800 C   0  0  0  0  0  0  0  0  0  0  0  0
  191.2620  175.2610  135.8390 N   0  0  0  0  0  2  0  0  0  0  0  0
  189.7570  177.5080  142.0410 C   0  0  2  0  0  3  0  0  0  0  0  0
  189.4220  177.3380  139.5440 C   0  0  0  0  0  0  0  0  0  0  0  0
  191.6480  176.8690  143.4840 C   0  0  2  0  0  3  0  0  0  0  0  0
  191.4490  177.3310  145.8590 O   0  0  0  0  0  1  0  0  0  0  0  0
  188.9750  177.5940  143.2040 O   0  0  0  0  0  0  0  0  0  0  0  0
  191.3580  175.5170  143.7150 O   0  0  0  0  0  1  0  0  0  0  0  0
  191.8340  176.9540  139.7460 C   0  0  0  0  0  3  0  0  0  0  0  0
  189.5490  177.7220  144.4730 C   0  0  0  0  0  0  0  0  0  0  0  0
  189.0250  177.6620  140.7760 C   0  0  0  0  0  3  0  0  0  0  0  0
  192.0530  177.6130  141.0660 C   0  0  0  0  0  3  0  0  0  0  0  0
  189.1630  176.7880  137.4900 C   0  0  0  0  0  0  0  0  0  0  0  0
  191.0390  177.7510  144.5890 C   0  0  2  0  0  3  0  0  0  0  0  0
  188.9570  175.6230  135.2240 C   0  0  0  0  0  2  0  0  0  0  0  0
  188.4640  176.5540  136.2480 N   0  0  0  0  0  0  0  0  0  0  0  0
  188.5680  177.2870  138.5540 O   0  0  0  0  0  0  0  0  0  0  0  0
  187.0180  176.7770  136.2950 C   0  0  2  0  0  3  0  0  0  0  0  0
  184.9970  177.2020  134.7510 C   0  0  0  0  0  2  0  0  0  0  0  0
  186.2700  175.4730  136.5890 C   0  0  0  0  0  2  0  0  0  0  0  0
  184.2590  176.8470  136.0150 C   0  0  0  0  0  0  0  0  0  0  0  0
  184.7910  175.7490  136.9170 C   0  0  1  0  0  3  0  0  0  0  0  0
  186.4940  177.4720  135.0250 C   0  0  0  0  0  2  0  0  0  0  0  0
  183.2800  177.4990  136.3500 O   0  0  0  0  0  0  0  0  0  0  0  0
  183.9650  174.4550  136.7900 C   0  0  1  0  0  3  0  0  0  0  0  0
  185.2210  173.0720  138.2450 O   0  0  0  0  0  0  0  0  0  0  0  0
  184.9970  172.2080  136.0540 C   0  0  0  0  0  1  0  0  0  0  0  0
  184.7650  173.2360  137.1180 C   0  0  0  0  0  0  0  0  0  0  0  0
  182.7350  174.4840  137.6490 C   0  0  0  0  0  0  0  0  0  0  0  0
  181.7390  173.7790  137.3420 O   0  0  0  0  0  0  0  0  0  0  0  0
  182.6970  175.2820  138.7900 O   0  0  0  0  0  1  0  0  0  0  0  0
  1 10  1  0  0  0  0
  3 20  1  0  0  0  0
  3  7  1  0  0  0  0
  4  9  1  0  0  0  0
  4 14  2  0  0  0  0
  5  6  1  0  0  0  0
  6  4  1  0  0  0  0
  7  5  1  0  0  0  0
  8 16  1  6  0  0  0
  8  1  1  0  0  0  0
  8 12  1  0  0  0  0
  9 16  2  0  0  0  0
 10 13  1  1  0  0  0
 10 19  1  0  0  0  0
 12 15  1  0  0  0  0
 14 17  1  0  0  0  0
 15 19  1  0  0  0  0
 15  2  2  0  0  0  0
 17  1  2  0  0  0  0
 18  6  2  0  0  0  0
 18 22  1  0  0  0  0
 19 11  1  1  0  0  0
 20 21  1  0  0  0  0
 21 23  1  0  0  0  0
 21 18  1  0  0  0  0
 22  9  1  0  0  0  0
 23 28  1  6  0  0  0
 23 25  1  0  0  0  0
 24 28  1  0  0  0  0
 24 26  1  0  0  0  0
 25 27  1  0  0  0  0
 26 29  2  0  0  0  0
 26 27  1  0  0  0  0
 27 30  1  6  0  0  0
 30 33  1  1  0  0  0
 30 34  1  0  0  0  0
 32 33  1  0  0  0  0
 33 31  2  0  0  0  0
 34 36  1  0  0  0  0
 35 34  2  0  0  0  0
M  END
>  <MODEL>
6

>  <REMARK>
 VINA RESULT:      -8.7      3.918      8.656
  Name = 
  4 active torsions:
  status: ('A' for Active; 'I' for Inactive)
    1  A    between atoms: C_2  and  N_34
    2  A    between atoms: C_10  and  C_11
    3  A    between atoms: C_10  and  C_19
    4  A    between atoms: C_10  and  C_28
                            x       y       z     vdW  Elec       q    Type
                         _______ _______ _______ _____ _____    ______ ____

>  <TORSDO>
F 4

$$$$
=
 OpenBabel11062417133D

 36 40  0  0  1  0  0  0  0  0999 V2000
  189.6100  177.5920  143.6900 C   0  0  0  0  0  0  0  0  0  0  0  0
  192.0850  175.7640  146.3810 O   0  0  0  0  0  0  0  0  0  0  0  0
  188.4530  178.1970  136.3510 C   0  0  0  0  0  2  0  0  0  0  0  0
  189.0870  177.5730  140.6510 C   0  0  0  0  0  0  0  0  0  0  0  0
  187.9610  178.6170  138.5980 C   0  0  0  0  0  2  0  0  0  0  0  0
  188.9890  177.7640  139.2800 C   0  0  0  0  0  0  0  0  0  0  0  0
  188.4890  179.2190  137.3810 N   0  0  0  0  0  2  0  0  0  0  0  0
  190.4220  176.5830  143.3060 C   0  0  2  0  0  3  0  0  0  0  0  0
  189.9340  176.4900  140.8300 C   0  0  0  0  0  0  0  0  0  0  0  0
  189.8490  178.2530  145.0230 C   0  0  2  0  0  3  0  0  0  0  0  0
  190.5330  177.7890  147.3070 O   0  0  0  0  0  1  0  0  0  0  0  0
  191.3510  176.0530  144.2160 O   0  0  0  0  0  0  0  0  0  0  0  0
  190.9130  179.1550  144.8800 O   0  0  0  0  0  1  0  0  0  0  0  0
  188.4070  178.2590  141.5680 C   0  0  0  0  0  3  0  0  0  0  0  0
  191.2720  176.3120  145.5880 C   0  0  0  0  0  0  0  0  0  0  0  0
  190.4610  176.0040  141.9560 C   0  0  0  0  0  3  0  0  0  0  0  0
  188.3110  177.8820  143.0090 C   0  0  0  0  0  3  0  0  0  0  0  0
  189.7520  176.7480  138.7120 C   0  0  0  0  0  0  0  0  0  0  0  0
  190.1760  177.1940  146.0920 C   0  0  2  0  0  3  0  0  0  0  0  0
  189.8090  177.5260  136.2780 C   0  0  0  0  0  2  0  0  0  0  0  0
  189.9930  176.4980  137.3100 N   0  0  0  0  0  0  0  0  0  0  0  0
  190.2720  176.0020  139.6640 O   0  0  0  0  0  0  0  0  0  0  0  0
  190.9690  175.4440  137.0240 C   0  0  2  0  0  3  0  0  0  0  0  0
  192.4500  174.5380  135.1190 C   0  0  0  0  0  2  0  0  0  0  0  0
  192.3250  175.7630  137.6620 C   0  0  0  0  0  2  0  0  0  0  0  0
  193.0940  173.8250  136.2790 C   0  0  0  0  0  0  0  0  0  0  0  0
  193.2600  174.5400  137.6070 C   0  0  1  0  0  3  0  0  0  0  0  0
  191.0910  175.1570  135.5170 C   0  0  0  0  0  2  0  0  0  0  0  0
  193.4070  172.6480  136.1700 O   0  0  0  0  0  0  0  0  0  0  0  0
  194.7180  174.9730  137.8450 C   0  0  1  0  0  3  0  0  0  0  0  0
  195.0850  172.8590  138.8460 O   0  0  0  0  0  0  0  0  0  0  0  0
  196.6670  174.5030  139.4680 C   0  0  0  0  0  1  0  0  0  0  0  0
  195.4570  174.0220  138.7290 C   0  0  0  0  0  0  0  0  0  0  0  0
  195.4740  175.1400  136.5590 C   0  0  0  0  0  0  0  0  0  0  0  0
  195.3680  176.2100  135.9040 O   0  0  0  0  0  0  0  0  0  0  0  0
  196.2990  174.1190  136.0940 O   0  0  0  0  0  1  0  0  0  0  0  0
  1 10  1  0  0  0  0
  3  7  1  0  0  0  0
  4  9  1  0  0  0  0
  4 14  2  0  0  0  0
  5  6  1  0  0  0  0
  6  4  1  0  0  0  0
  7  5  1  0  0  0  0
  8 16  1  6  0  0  0
  8  1  1  0  0  0  0
  8 12  1  0  0  0  0
  9 16  2  0  0  0  0
 10 13  1  6  0  0  0
 10 19  1  0  0  0  0
 12 15  1  0  0  0  0
 14 17  1  0  0  0  0
 15 19  1  0  0  0  0
 15  2  2  0  0  0  0
 17  1  2  0  0  0  0
 18  6  2  0  0  0  0
 18 22  1  0  0  0  0
 19 11  1  1  0  0  0
 20  3  1  0  0  0  0
 20 21  1  0  0  0  0
 21 18  1  0  0  0  0
 22  9  1  0  0  0  0
 23 28  1  6  0  0  0
 23 21  1  0  0  0  0
 23 25  1  0  0  0  0
 24 28  1  0  0  0  0
 24 26  1  0  0  0  0
 26 27  1  0  0  0  0
 27 25  1  0  0  0  0
 27 30  1  6  0  0  0
 29 26  2  0  0  0  0
 30 34  1  6  0  0  0
 30 33  1  0  0  0  0
 33 31  2  0  0  0  0
 33 32  1  0  0  0  0
 35 34  2  0  0  0  0
 36 34  1  0  0  0  0
M  END
>  <MODEL>
7

>  <REMARK>
 VINA RESULT:      -8.6      3.772      9.232
  Name = 
  4 active torsions:
  status: ('A' for Active; 'I' for Inactive)
    1  A    between atoms: C_2  and  N_34
    2  A    between atoms: C_10  and  C_11
    3  A    between atoms: C_10  and  C_19
    4  A    between atoms: C_10  and  C_28
                            x       y       z     vdW  Elec       q    Type
                         _______ _______ _______ _____ _____    ______ ____

>  <TORSDO>
F 4

$$$$
=
 OpenBabel11062417133D

 36 40  0  0  1  0  0  0  0  0999 V2000
  190.6400  177.2180  143.1930 C   0  0  0  0  0  0  0  0  0  0  0  0
  189.5680  176.6040  147.0890 O   0  0  0  0  0  0  0  0  0  0  0  0
  187.6470  178.1360  136.4270 C   0  0  0  0  0  2  0  0  0  0  0  0
  189.2800  177.8220  140.4910 C   0  0  0  0  0  0  0  0  0  0  0  0
  189.4270  178.0110  137.9380 C   0  0  0  0  0  2  0  0  0  0  0  0
  188.6900  177.8550  139.2350 C   0  0  0  0  0  0  0  0  0  0  0  0
  188.7570  177.3040  136.8560 N   0  0  0  0  0  2  0  0  0  0  0  0
  189.3640  177.4030  143.5950 C   0  0  2  0  0  3  0  0  0  0  0  0
  188.2520  177.9940  141.4060 C   0  0  0  0  0  0  0  0  0  0  0  0
  191.5910  176.4810  144.1000 C   0  0  2  0  0  3  0  0  0  0  0  0
  192.1670  176.1680  146.4380 O   0  0  0  0  0  1  0  0  0  0  0  0
  188.9920  177.0690  144.9060 O   0  0  0  0  0  0  0  0  0  0  0  0
  191.3440  175.1080  143.9690 O   0  0  0  0  0  1  0  0  0  0  0  0
  190.5900  177.7360  140.7180 C   0  0  0  0  0  3  0  0  0  0  0  0
  189.9420  176.8360  145.9070 C   0  0  0  0  0  0  0  0  0  0  0  0
  188.2750  177.8910  142.7360 C   0  0  0  0  0  3  0  0  0  0  0  0
  191.2360  177.9660  142.0420 C   0  0  0  0  0  3  0  0  0  0  0  0
  187.3390  178.0920  139.4710 C   0  0  0  0  0  0  0  0  0  0  0  0
  191.3920  176.9310  145.5590 C   0  0  2  0  0  3  0  0  0  0  0  0
  186.3880  177.6780  137.1340 C   0  0  0  0  0  2  0  0  0  0  0  0
  186.2760  178.2080  138.4990 N   0  0  0  0  0  0  0  0  0  0  0  0
  187.1280  178.1940  140.7660 O   0  0  0  0  0  0  0  0  0  0  0  0
  184.9270  178.3040  139.0600 C   0  0  2  0  0  3  0  0  0  0  0  0
  182.8690  179.8550  139.0940 C   0  0  0  0  0  2  0  0  0  0  0  0
  183.9610  177.3630  138.3330 C   0  0  0  0  0  2  0  0  0  0  0  0
  182.2330  178.6070  139.6470 C   0  0  0  0  0  0  0  0  0  0  0  0
  182.6260  177.2500  139.0930 C   0  0  1  0  0  3  0  0  0  0  0  0
  184.4100  179.7540  139.0900 C   0  0  0  0  0  2  0  0  0  0  0  0
  181.4630  178.6860  140.5940 O   0  0  0  0  0  0  0  0  0  0  0  0
  181.5360  176.6700  138.1720 C   0  0  1  0  0  3  0  0  0  0  0  0
  182.1530  176.2890  135.9190 O   0  0  0  0  0  0  0  0  0  0  0  0
  182.6310  174.4790  137.3650 C   0  0  0  0  0  1  0  0  0  0  0  0
  182.1060  175.8490  137.0630 C   0  0  0  0  0  0  0  0  0  0  0  0
  180.5370  175.8480  138.9320 C   0  0  0  0  0  0  0  0  0  0  0  0
  180.8130  175.4340  140.0880 O   0  0  0  0  0  1  0  0  0  0  0  0
  179.3000  175.5490  138.3650 O   0  0  0  0  0  0  0  0  0  0  0  0
  1  8  1  0  0  0  0
  1 10  1  0  0  0  0
  3  7  1  0  0  0  0
  3 20  1  0  0  0  0
  4 14  2  0  0  0  0
  4  9  1  0  0  0  0
  5  6  1  0  0  0  0
  6 18  2  0  0  0  0
  6  4  1  0  0  0  0
  7  5  1  0  0  0  0
  8 16  1  6  0  0  0
  8 12  1  0  0  0  0
  9 16  2  0  0  0  0
 10 13  1  1  0  0  0
 10 19  1  0  0  0  0
 12 15  1  0  0  0  0
 14 17  1  0  0  0  0
 15  2  2  0  0  0  0
 17  1  2  0  0  0  0
 18 22  1  0  0  0  0
 19 15  1  0  0  0  0
 19 11  1  1  0  0  0
 20 21  1  0  0  0  0
 21 23  1  0  0  0  0
 21 18  1  0  0  0  0
 22  9  1  0  0  0  0
 23 25  1  6  0  0  0
 23 28  1  0  0  0  0
 24 26  1  0  0  0  0
 25 27  1  0  0  0  0
 26 29  2  0  0  0  0
 27 30  1  6  0  0  0
 27 26  1  0  0  0  0
 28 24  1  0  0  0  0
 30 33  1  6  0  0  0
 30 34  1  0  0  0  0
 31 33  2  0  0  0  0
 33 32  1  0  0  0  0
 34 35  1  0  0  0  0
 36 34  2  0  0  0  0
M  END
>  <MODEL>
8

>  <REMARK>
 VINA RESULT:      -8.6      3.368      7.679
  Name = 
  4 active torsions:
  status: ('A' for Active; 'I' for Inactive)
    1  A    between atoms: C_2  and  N_34
    2  A    between atoms: C_10  and  C_11
    3  A    between atoms: C_10  and  C_19
    4  A    between atoms: C_10  and  C_28
                            x       y       z     vdW  Elec       q    Type
                         _______ _______ _______ _____ _____    ______ ____

>  <TORSDO>
F 4

$$$$
=
 OpenBabel11062417133D

 36 40  0  0  1  0  0  0  0  0999 V2000
  190.7990  177.3220  142.1850 C   0  0  0  0  0  0  0  0  0  0  0  0
  189.1100  177.9400  145.8550 O   0  0  0  0  0  0  0  0  0  0  0  0
  188.9590  176.6150  134.9950 C   0  0  0  0  0  2  0  0  0  0  0  0
  189.9380  177.2830  139.2230 C   0  0  0  0  0  0  0  0  0  0  0  0
  190.4700  176.7330  136.7760 C   0  0  0  0  0  2  0  0  0  0  0  0
  189.5420  177.0250  137.9190 C   0  0  0  0  0  0  0  0  0  0  0  0
  189.8610  175.8260  135.8140 N   0  0  0  0  0  2  0  0  0  0  0  0
  189.5210  177.7450  142.2940 C   0  0  2  0  0  3  0  0  0  0  0  0
  188.8280  177.8110  139.8660 C   0  0  0  0  0  0  0  0  0  0  0  0
  191.4920  176.7730  143.4050 C   0  0  2  0  0  3  0  0  0  0  0  0
  191.6810  177.0690  145.8080 O   0  0  0  0  0  1  0  0  0  0  0  0
  188.9220  177.8320  143.5610 O   0  0  0  0  0  0  0  0  0  0  0  0
  191.0640  175.4520  143.5940 O   0  0  0  0  0  1  0  0  0  0  0  0
  191.1750  177.1270  139.6920 C   0  0  0  0  0  3  0  0  0  0  0  0
  189.6770  177.7910  144.7390 C   0  0  0  0  0  0  0  0  0  0  0  0
  188.6480  178.0830  141.1600 C   0  0  0  0  0  3  0  0  0  0  0  0
  191.6560  177.6500  141.0040 C   0  0  0  0  0  3  0  0  0  0  0  0
  188.2220  177.4590  137.8430 C   0  0  0  0  0  0  0  0  0  0  0  0
  191.1590  177.6320  144.6390 C   0  0  2  0  0  3  0  0  0  0  0  0
  187.5590  176.5080  135.5650 C   0  0  0  0  0  2  0  0  0  0  0  0
  187.3360  177.4080  136.7030 N   0  0  0  0  0  0  0  0  0  0  0  0
  187.8480  177.9400  139.0090 O   0  0  0  0  0  0  0  0  0  0  0  0
  185.9500  177.7980  136.9730 C   0  0  2  0  0  3  0  0  0  0  0  0
  183.5430  176.8860  136.8410 C   0  0  0  0  0  2  0  0  0  0  0  0
  185.6610  177.7920  138.4780 C   0  0  0  0  0  2  0  0  0  0  0  0
  183.2950  178.0840  137.7200 C   0  0  0  0  0  0  0  0  0  0  0  0
  184.3100  178.4660  138.7810 C   0  0  1  0  0  3  0  0  0  0  0  0
  184.9410  176.9430  136.1850 C   0  0  0  0  0  2  0  0  0  0  0  0
  182.3160  178.7900  137.5210 O   0  0  0  0  0  0  0  0  0  0  0  0
  183.8300  178.0870  140.1940 C   0  0  1  0  0  3  0  0  0  0  0  0
  185.3050  179.7530  141.0030 O   0  0  0  0  0  0  0  0  0  0  0  0
  184.5460  178.2530  142.6670 C   0  0  0  0  0  1  0  0  0  0  0  0
  184.6150  178.7720  141.2640 C   0  0  0  0  0  0  0  0  0  0  0  0
  182.3710  178.3770  140.3910 C   0  0  0  0  0  0  0  0  0  0  0  0
  181.9850  179.5630  140.5650 O   0  0  0  0  0  1  0  0  0  0  0  0
  181.4420  177.3400  140.3710 O   0  0  0  0  0  0  0  0  0  0  0  0
  1  8  1  0  0  0  0
  1 10  1  0  0  0  0
  3 20  1  0  0  0  0
  3  7  1  0  0  0  0
  4 14  2  0  0  0  0
  4  9  1  0  0  0  0
  5  6  1  0  0  0  0
  6  4  1  0  0  0  0
  7  5  1  0  0  0  0
  8 16  1  6  0  0  0
  8 12  1  0  0  0  0
  9 16  2  0  0  0  0
 10 13  1  1  0  0  0
 10 19  1  0  0  0  0
 12 15  1  0  0  0  0
 14 17  1  0  0  0  0
 15  2  2  0  0  0  0
 17  1  2  0  0  0  0
 18  6  2  0  0  0  0
 18 22  1  0  0  0  0
 19 15  1  0  0  0  0
 19 11  1  1  0  0  0
 20 21  1  0  0  0  0
 21 23  1  0  0  0  0
 21 18  1  0  0  0  0
 22  9  1  0  0  0  0
 23 28  1  6  0  0  0
 23 25  1  0  0  0  0
 24 26  1  0  0  0  0
 25 27  1  0  0  0  0
 26 27  1  0  0  0  0
 27 30  1  1  0  0  0
 28 24  1  0  0  0  0
 29 26  2  0  0  0  0
 30 34  1  6  0  0  0
 30 33  1  0  0  0  0
 31 33  2  0  0  0  0
 33 32  1  0  0  0  0
 34 35  1  0  0  0  0
 36 34  2  0  0  0  0
M  END
>  <MODEL>
9

>  <REMARK>
 VINA RESULT:      -8.6      2.928      7.426
  Name = 
  4 active torsions:
  status: ('A' for Active; 'I' for Inactive)
    1  A    between atoms: C_2  and  N_34
    2  A    between atoms: C_10  and  C_11
    3  A    between atoms: C_10  and  C_19
    4  A    between atoms: C_10  and  C_28
                            x       y       z     vdW  Elec       q    Type
                         _______ _______ _______ _____ _____    ______ ____

>  <TORSDO>
F 4

$$$$
