=
 OpenBabel11062414573D

 51 55  0  0  1  0  0  0  0  0999 V2000
  187.2350  178.3630  137.8920 C   0  0  1  0  0  3  0  0  0  0  0  0
  184.9620  173.8200  135.5300 C   0  0  0  0  0  2  0  0  0  0  0  0
  180.5640  179.4930  140.4300 C   0  0  0  0  0  2  0  0  0  0  0  0
  179.9610  181.4040  139.3550 C   0  0  0  0  0  2  0  0  0  0  0  0
  185.8000  178.5440  138.3770 C   0  0  0  0  0  2  0  0  0  0  0  0
  187.4870  177.0450  137.1410 C   0  0  2  0  0  3  0  0  0  0  0  0
  179.7980  176.9930  136.5530 O   0  0  0  0  0  0  0  0  0  0  0  0
  180.8030  176.3910  135.7790 C   0  0  0  0  0  2  0  0  0  0  0  0
  180.3030  178.2130  136.8710 N   0  0  2  0  0  0  0  0  0  0  0  0
  182.8830  178.5440  137.6460 O   0  0  0  0  0  1  0  0  0  0  0  0
  179.7570  173.1270  136.9820 C   0  0  0  0  0  0  0  0  0  0  0  0
  179.6000  172.2240  137.8460 O   0  0  0  0  0  0  0  0  0  0  0  0
  179.7880  180.6660  140.5400 O   0  0  0  0  0  0  0  0  0  0  0  0
  180.6340  174.8820  135.7120 C   0  0  2  0  0  3  0  0  0  0  0  0
  182.6960  175.2790  139.1810 C   0  0  0  0  0  1  0  0  0  0  0  0
  184.4560  174.3150  137.9070 O   0  0  0  0  0  0  0  0  0  0  0  0
  185.4360  179.3040  141.3870 O   0  0  0  0  0  0  0  0  0  0  0  0
  183.4990  173.6590  135.1380 C   0  0  0  0  0  2  0  0  0  0  0  0
  182.1900  173.6540  137.3420 C   0  0  2  0  0  3  0  0  0  0  0  0
  179.2840  174.4490  135.1380 C   0  0  0  0  0  2  0  0  0  0  0  0
  180.7730  174.1980  137.0750 C   0  0  2  0  0  3  0  0  0  0  0  0
  184.5360  178.4770  140.4980 P   0  0  2  0  0  0  0  0  0  0  0  0
  181.0240  179.3220  138.9970 C   0  0  1  0  0  0  0  0  0  0  0  0
  182.4410  178.7120  138.9620 C   0  0  2  0  0  3  0  0  0  0  0  0
  186.5000  176.7290  135.9950 C   0  0  0  0  0  2  0  0  0  0  0  0
  185.1300  176.2310  136.4590 C   0  0  0  0  0  2  0  0  0  0  0  0
  185.1700  174.7270  136.7550 C   0  0  2  0  0  3  0  0  0  0  0  0
  179.9860  178.4390  138.2780 C   0  0  0  0  0  2  0  0  0  0  0  0
  183.1290  174.7710  137.8190 C   0  0  1  0  0  3  0  0  0  0  0  0
  185.4850  177.6230  139.3770 O   0  0  0  0  0  0  0  0  0  0  0  0
  183.3960  179.5400  139.6890 N   0  0  0  0  0  2  0  0  0  0  0  0
  178.9310  173.2290  135.8450 N   0  0  0  0  0  2  0  0  0  0  0  0
  182.7610  172.8180  136.1760 C   0  0  0  0  0  2  0  0  0  0  0  0
  180.9980  180.7340  138.4870 C   0  0  0  0  0  2  0  0  0  0  0  0
  183.6900  177.3760  141.4620 O   0  0  0  0  0  1  0  0  0  0  0  0
  179.7070  178.9530  134.5940 C   0  0  0  0  0  2  0  0  0  0  0  0
  180.6370  179.9650  135.2400 C   0  0  2  0  0  3  0  0  0  0  0  0
  179.6030  179.2310  136.0860 C   0  0  2  0  0  3  0  0  0  0  0  0
  180.1980  181.3740  134.9670 C   0  0  0  0  0  3  0  0  0  0  0  0
  180.6700  182.3600  135.6470 N   0  0  0  0  0  0  0  0  0  0  0  0
  180.2200  183.7040  135.3990 C   0  0  0  0  0  2  0  0  0  0  0  0
  181.6240  184.3770  137.2880 C   0  0  0  0  0  2  0  0  0  0  0  0
  179.6520  185.7470  136.8690 C   0  0  0  0  0  1  0  0  0  0  0  0
  180.5020  184.5580  136.5930 C   0  0  0  0  0  0  0  0  0  0  0  0
  187.7430  175.8830  138.0980 C   0  0  0  0  0  2  0  0  0  0  0  0
  189.1120  175.2810  137.8550 C   0  0  0  0  0  2  0  0  0  0  0  0
  189.0360  174.2680  136.7340 C   0  0  0  0  0  1  0  0  0  0  0  0
  187.6400  179.5430  137.0300 C   0  0  0  0  0  2  0  0  0  0  0  0
  189.1460  179.5820  136.8310 C   0  0  2  0  0  3  0  0  0  0  0  0
  189.5370  178.6260  135.7250 C   0  0  0  0  0  1  0  0  0  0  0  0
  189.7900  179.2110  138.0140 O   0  0  0  0  0  1  0  0  0  0  0  0
  1 48  1  6  0  0  0
  1  5  1  0  0  0  0
  3 13  1  0  0  0  0
  4 13  1  0  0  0  0
  5 30  1  0  0  0  0
  6  1  1  0  0  0  0
  6 45  1  1  0  0  0
  7  9  1  0  0  0  0
  8  7  1  0  0  0  0
  9 28  1  1  0  0  0
 11 12  2  0  0  0  0
 14 20  1  1  0  0  0
 14  8  1  0  0  0  0
 14 21  1  0  0  0  0
 18  2  1  0  0  0  0
 18 33  1  0  0  0  0
 19 33  1  6  0  0  0
 19 29  1  0  0  0  0
 20 32  1  0  0  0  0
 21 11  1  6  0  0  0
 21 19  1  0  0  0  0
 22 17  2  1  0  0  0
 22 35  1  0  0  0  0
 23 28  1  6  0  0  0
 23  3  1  0  0  0  0
 24 10  1  6  0  0  0
 24 23  1  0  0  0  0
 24 31  1  0  0  0  0
 25 26  1  0  0  0  0
 25  6  1  0  0  0  0
 26 27  1  0  0  0  0
 27  2  1  6  0  0  0
 27 16  1  0  0  0  0
 29 16  1  0  0  0  0
 29 15  1  1  0  0  0
 30 22  1  0  0  0  0
 31 22  1  0  0  0  0
 32 11  1  0  0  0  0
 34 23  1  0  0  0  0
 34  4  1  0  0  0  0
 36 37  1  0  0  0  0
 37 39  1  6  0  0  0
 37 38  1  0  0  0  0
 38 36  1  6  0  0  0
 38  9  1  0  0  0  0
 39 40  2  0  0  0  0
 41 40  1  0  0  0  0
 41 44  1  0  0  0  0
 44 43  1  0  0  0  0
 44 42  2  0  0  0  0
 46 45  1  0  0  0  0
 47 46  1  0  0  0  0
 49 50  1  6  0  0  0
 49 48  1  0  0  0  0
 49 51  1  0  0  0  0
M  END
>  <MODEL>
1

>  <REMARK>
 VINA RESULT:      -3.6      0.000      0.000
  Name = 
  8 active torsions:
  status: ('A' for Active; 'I' for Inactive)
    1  A    between atoms: C_1  and  C_11
    2  A    between atoms: C_4  and  C_9
    3  A    between atoms: C_4  and  C_12
    4  A    between atoms: C_5  and  C_36
    5  A    between atoms: C_5  and  N_45
    6  A    between atoms: C_11  and  C_28
    7  A    between atoms: N_17  and  C_29
    8  A    between atoms: C_25  and  C_26
                            x       y       z     vdW  Elec       q    Type
                         _______ _______ _______ _____ _____    ______ ____

>  <TORSDO>
F 8

$$$$
=
 OpenBabel11062414573D

 51 55  0  0  1  0  0  0  0  0999 V2000
  187.5300  177.7060  142.4150 C   0  0  1  0  0  3  0  0  0  0  0  0
  182.1600  178.8390  141.2950 C   0  0  0  0  0  2  0  0  0  0  0  0
  187.9830  176.4030  135.3220 C   0  0  0  0  0  2  0  0  0  0  0  0
  188.4100  174.1700  135.2710 C   0  0  0  0  0  2  0  0  0  0  0  0
  187.5450  177.4330  140.9140 C   0  0  0  0  0  2  0  0  0  0  0  0
  186.2020  178.2740  142.9410 C   0  0  2  0  0  3  0  0  0  0  0  0
  183.4730  175.5860  136.2480 O   0  0  0  0  0  0  0  0  0  0  0  0
  182.8490  175.8520  137.4770 C   0  0  0  0  0  2  0  0  0  0  0  0
  184.6750  175.0530  136.5900 N   0  0  2  0  0  0  0  0  0  0  0  0
  186.1880  176.0840  138.5930 O   0  0  0  0  0  1  0  0  0  0  0  0
  181.0790  178.6380  135.9590 C   0  0  0  0  0  0  0  0  0  0  0  0
  180.9800  179.7770  135.4300 O   0  0  0  0  0  0  0  0  0  0  0  0
  188.6310  175.3820  134.5940 O   0  0  0  0  0  0  0  0  0  0  0  0
  181.7140  176.8520  137.3260 C   0  0  2  0  0  3  0  0  0  0  0  0
  184.8940  179.3400  137.7080 C   0  0  0  0  0  1  0  0  0  0  0  0
  183.9160  179.7930  139.8270 O   0  0  0  0  0  0  0  0  0  0  0  0
  189.9440  178.6270  139.3080 O   0  0  0  0  0  1  0  0  0  0  0  0
  181.3510  178.2640  140.1380 C   0  0  0  0  0  2  0  0  0  0  0  0
  182.4090  179.2260  138.0110 C   0  0  2  0  0  3  0  0  0  0  0  0
  180.6320  176.3960  136.3460 C   0  0  0  0  0  2  0  0  0  0  0  0
  182.1840  178.2320  136.8550 C   0  0  2  0  0  3  0  0  0  0  0  0
  188.5180  178.4020  138.8620 P   0  0  2  0  0  0  0  0  0  0  0  0
  187.0580  175.7840  136.3480 C   0  0  1  0  0  0  0  0  0  0  0  0
  187.0390  176.6390  137.6330 C   0  0  2  0  0  3  0  0  0  0  0  0
  184.9320  177.4920  142.5360 C   0  0  0  0  0  2  0  0  0  0  0  0
  184.4850  177.7180  141.0910 C   0  0  0  0  0  2  0  0  0  0  0  0
  183.6550  179.0020  140.9730 C   0  0  2  0  0  3  0  0  0  0  0  0
  185.6640  175.6600  135.7040 C   0  0  0  0  0  2  0  0  0  0  0  0
  183.7750  179.0000  138.6740 C   0  0  1  0  0  3  0  0  0  0  0  0
  187.4740  178.6200  140.1840 O   0  0  0  0  0  0  0  0  0  0  0  0
  188.3760  176.7820  138.1980 N   0  0  0  0  0  2  0  0  0  0  0  0
  180.1510  177.6080  135.7020 N   0  0  0  0  0  2  0  0  0  0  0  0
  181.2350  179.2870  139.0120 C   0  0  0  0  0  2  0  0  0  0  0  0
  187.6870  174.4380  136.5680 C   0  0  0  0  0  2  0  0  0  0  0  0
  188.1420  179.5340  137.6640 O   0  0  0  0  0  0  0  0  0  0  0  0
  185.0760  173.3160  134.8830 C   0  0  0  0  0  2  0  0  0  0  0  0
  183.5990  173.3650  135.2370 C   0  0  2  0  0  3  0  0  0  0  0  0
  184.6490  173.6160  136.3120 C   0  0  2  0  0  3  0  0  0  0  0  0
  183.0170  171.9880  135.3730 C   0  0  0  0  0  3  0  0  0  0  0  0
  181.7680  171.7700  135.1530 N   0  0  0  0  0  0  0  0  0  0  0  0
  181.2120  170.4530  135.3150 C   0  0  0  0  0  2  0  0  0  0  0  0
  178.9430  169.6280  135.7200 C   0  0  0  0  0  2  0  0  0  0  0  0
  179.6550  171.5300  137.0690 C   0  0  0  0  0  1  0  0  0  0  0  0
  179.8730  170.5490  135.9710 C   0  0  0  0  0  0  0  0  0  0  0  0
  186.1090  179.7850  142.7420 C   0  0  0  0  0  2  0  0  0  0  0  0
  185.2410  180.4150  143.8120 C   0  0  0  0  0  2  0  0  0  0  0  0
  185.2560  179.5550  145.0570 C   0  0  0  0  0  1  0  0  0  0  0  0
  187.8960  176.4430  143.1720 C   0  0  0  0  0  2  0  0  0  0  0  0
  189.2250  176.6030  143.8880 C   0  0  2  0  0  3  0  0  0  0  0  0
  189.0100  177.3180  145.2050 C   0  0  0  0  0  1  0  0  0  0  0  0
  190.1050  177.3440  143.0960 O   0  0  0  0  0  1  0  0  0  0  0  0
  1  6  1  0  0  0  0
  1 48  1  1  0  0  0
  4 34  1  0  0  0  0
  5  1  1  0  0  0  0
  6 45  1  6  0  0  0
  7  9  1  0  0  0  0
  7  8  1  0  0  0  0
  9 28  1  6  0  0  0
 12 11  2  0  0  0  0
 13  4  1  0  0  0  0
 13  3  1  0  0  0  0
 14 20  1  6  0  0  0
 14  8  1  0  0  0  0
 16 27  1  0  0  0  0
 18  2  1  0  0  0  0
 19 29  1  0  0  0  0
 19 33  1  1  0  0  0
 21 11  1  6  0  0  0
 21 14  1  0  0  0  0
 21 19  1  0  0  0  0
 22 35  2  6  0  0  0
 22 17  1  0  0  0  0
 22 30  1  0  0  0  0
 23  3  1  6  0  0  0
 23 34  1  0  0  0  0
 23 24  1  0  0  0  0
 24 31  1  0  0  0  0
 24 10  1  1  0  0  0
 25  6  1  0  0  0  0
 26 25  1  0  0  0  0
 27 26  1  6  0  0  0
 27  2  1  0  0  0  0
 28 23  1  0  0  0  0
 29 15  1  6  0  0  0
 29 16  1  0  0  0  0
 30  5  1  0  0  0  0
 31 22  1  0  0  0  0
 32 11  1  0  0  0  0
 32 20  1  0  0  0  0
 33 18  1  0  0  0  0
 36 37  1  0  0  0  0
 37 39  1  1  0  0  0
 37 38  1  0  0  0  0
 38 36  1  6  0  0  0
 38  9  1  0  0  0  0
 40 41  1  0  0  0  0
 40 39  2  0  0  0  0
 41 44  1  0  0  0  0
 42 44  2  0  0  0  0
 44 43  1  0  0  0  0
 45 46  1  0  0  0  0
 46 47  1  0  0  0  0
 48 49  1  0  0  0  0
 49 50  1  1  0  0  0
 51 49  1  0  0  0  0
M  END
>  <MODEL>
2

>  <REMARK>
 VINA RESULT:      -2.6      3.299      7.704
  Name = 
  8 active torsions:
  status: ('A' for Active; 'I' for Inactive)
    1  A    between atoms: C_1  and  C_11
    2  A    between atoms: C_4  and  C_9
    3  A    between atoms: C_4  and  C_12
    4  A    between atoms: C_5  and  C_36
    5  A    between atoms: C_5  and  N_45
    6  A    between atoms: C_11  and  C_28
    7  A    between atoms: N_17  and  C_29
    8  A    between atoms: C_25  and  C_26
                            x       y       z     vdW  Elec       q    Type
                         _______ _______ _______ _____ _____    ______ ____

>  <TORSDO>
F 8

$$$$
=
 OpenBabel11062414573D

 51 55  0  0  1  0  0  0  0  0999 V2000
  189.6440  176.9280  142.5240 C   0  0  1  0  0  3  0  0  0  0  0  0
  184.3590  178.7260  142.9910 C   0  0  0  0  0  2  0  0  0  0  0  0
  188.0090  176.1840  135.5250 C   0  0  0  0  0  2  0  0  0  0  0  0
  188.1190  173.9300  135.2450 C   0  0  0  0  0  2  0  0  0  0  0  0
  189.2200  176.7820  141.0660 C   0  0  0  0  0  2  0  0  0  0  0  0
  188.5880  177.5900  143.4250 C   0  0  2  0  0  3  0  0  0  0  0  0
  183.8460  175.7850  137.6180 O   0  0  0  0  0  0  0  0  0  0  0  0
  183.6130  176.0130  138.9840 C   0  0  0  0  0  2  0  0  0  0  0  0
  185.0180  175.0980  137.5870 N   0  0  2  0  0  0  0  0  0  0  0  0
  187.1310  175.7880  139.1440 O   0  0  0  0  0  1  0  0  0  0  0  0
  181.8700  179.0910  138.1580 C   0  0  0  0  0  0  0  0  0  0  0  0
  181.7780  180.2740  137.7370 O   0  0  0  0  0  0  0  0  0  0  0  0
  188.3030  175.1640  134.5950 O   0  0  0  0  0  0  0  0  0  0  0  0
  182.6160  177.1390  139.2040 C   0  0  2  0  0  3  0  0  0  0  0  0
  186.0720  179.2270  138.8190 C   0  0  0  0  0  1  0  0  0  0  0  0
  185.7640  179.6030  141.1460 O   0  0  0  0  0  0  0  0  0  0  0  0
  191.2330  177.8410  138.9220 O   0  0  0  0  0  1  0  0  0  0  0  0
  183.2030  178.3410  142.0750 C   0  0  0  0  0  2  0  0  0  0  0  0
  183.7650  179.3580  139.7910 C   0  0  2  0  0  3  0  0  0  0  0  0
  181.2630  176.8870  138.5390 C   0  0  0  0  0  2  0  0  0  0  0  0
  183.1140  178.4940  138.6930 C   0  0  2  0  0  3  0  0  0  0  0  0
  189.7230  177.8090  138.8770 P   0  0  2  0  0  0  0  0  0  0  0  0
  187.3220  175.5850  136.7340 C   0  0  1  0  0  0  0  0  0  0  0  0
  187.7570  176.3260  138.0160 C   0  0  2  0  0  3  0  0  0  0  0  0
  187.1680  176.9870  143.3470 C   0  0  0  0  0  2  0  0  0  0  0  0
  186.3820  177.3810  142.0950 C   0  0  0  0  0  2  0  0  0  0  0  0
  185.7210  178.7530  142.2780 C   0  0  2  0  0  3  0  0  0  0  0  0
  185.8020  175.6670  136.4940 C   0  0  0  0  0  2  0  0  0  0  0  0
  185.2190  178.9300  140.0370 C   0  0  1  0  0  3  0  0  0  0  0  0
  189.1090  178.0270  140.4460 O   0  0  0  0  0  0  0  0  0  0  0  0
  189.2030  176.2750  138.1960 N   0  0  0  0  0  2  0  0  0  0  0  0
  180.7840  178.1930  138.1150 N   0  0  0  0  0  2  0  0  0  0  0  0
  182.9200  179.4610  141.0780 C   0  0  0  0  0  2  0  0  0  0  0  0
  187.8100  174.1650  136.7030 C   0  0  0  0  0  2  0  0  0  0  0  0
  189.1860  179.0720  137.8900 O   0  0  0  0  0  0  0  0  0  0  0  0
  184.6480  173.4930  135.7490 C   0  0  0  0  0  2  0  0  0  0  0  0
  183.3760  173.6470  136.5670 C   0  0  2  0  0  3  0  0  0  0  0  0
  184.7360  173.7010  137.2540 C   0  0  2  0  0  3  0  0  0  0  0  0
  182.7110  172.3240  136.8090 C   0  0  0  0  0  3  0  0  0  0  0  0
  182.1970  171.6520  135.8390 N   0  0  0  0  0  0  0  0  0  0  0  0
  181.5330  170.4000  136.0840 C   0  0  0  0  0  2  0  0  0  0  0  0
  179.3910  169.7270  135.1080 C   0  0  0  0  0  2  0  0  0  0  0  0
  179.3070  171.5130  136.7660 C   0  0  0  0  0  1  0  0  0  0  0  0
  180.0590  170.5660  135.8990 C   0  0  0  0  0  0  0  0  0  0  0  0
  188.6380  179.1140  143.3370 C   0  0  0  0  0  2  0  0  0  0  0  0
  190.0650  179.5940  143.1620 C   0  0  0  0  0  2  0  0  0  0  0  0
  190.8330  179.4020  144.4510 C   0  0  0  0  0  1  0  0  0  0  0  0
  190.0350  175.5740  143.0850 C   0  0  0  0  0  2  0  0  0  0  0  0
  191.4670  175.5880  143.5930 C   0  0  2  0  0  3  0  0  0  0  0  0
  191.4810  175.9670  145.0580 C   0  0  0  0  0  1  0  0  0  0  0  0
  192.2190  176.5140  142.8670 O   0  0  0  0  0  1  0  0  0  0  0  0
  1 48  1  1  0  0  0
  1  6  1  0  0  0  0
  4 34  1  0  0  0  0
  5  1  1  0  0  0  0
  6 45  1  6  0  0  0
  7  8  1  0  0  0  0
  8 14  1  0  0  0  0
  9 28  1  6  0  0  0
  9  7  1  0  0  0  0
 12 11  2  0  0  0  0
 13  4  1  0  0  0  0
 13  3  1  0  0  0  0
 14 20  1  6  0  0  0
 16 27  1  0  0  0  0
 18  2  1  0  0  0  0
 19 29  1  0  0  0  0
 19 33  1  1  0  0  0
 21 11  1  1  0  0  0
 21 14  1  0  0  0  0
 21 19  1  0  0  0  0
 22 35  2  6  0  0  0
 22 17  1  0  0  0  0
 22 30  1  0  0  0  0
 23  3  1  6  0  0  0
 23 24  1  0  0  0  0
 24 31  1  0  0  0  0
 24 10  1  1  0  0  0
 25  6  1  0  0  0  0
 26 25  1  0  0  0  0
 27 26  1  6  0  0  0
 27  2  1  0  0  0  0
 28 23  1  0  0  0  0
 29 15  1  6  0  0  0
 29 16  1  0  0  0  0
 30  5  1  0  0  0  0
 31 22  1  0  0  0  0
 32 11  1  0  0  0  0
 32 20  1  0  0  0  0
 33 18  1  0  0  0  0
 34 23  1  0  0  0  0
 36 37  1  0  0  0  0
 37 39  1  1  0  0  0
 37 38  1  0  0  0  0
 38 36  1  6  0  0  0
 38  9  1  0  0  0  0
 40 41  1  0  0  0  0
 40 39  2  0  0  0  0
 42 44  2  0  0  0  0
 44 41  1  0  0  0  0
 44 43  1  0  0  0  0
 46 45  1  0  0  0  0
 46 47  1  0  0  0  0
 48 49  1  0  0  0  0
 49 50  1  1  0  0  0
 51 49  1  0  0  0  0
M  END
>  <MODEL>
3

>  <REMARK>
 VINA RESULT:      -1.0      3.669      8.020
  Name = 
  8 active torsions:
  status: ('A' for Active; 'I' for Inactive)
    1  A    between atoms: C_1  and  C_11
    2  A    between atoms: C_4  and  C_9
    3  A    between atoms: C_4  and  C_12
    4  A    between atoms: C_5  and  C_36
    5  A    between atoms: C_5  and  N_45
    6  A    between atoms: C_11  and  C_28
    7  A    between atoms: N_17  and  C_29
    8  A    between atoms: C_25  and  C_26
                            x       y       z     vdW  Elec       q    Type
                         _______ _______ _______ _____ _____    ______ ____

>  <TORSDO>
F 8

$$$$
