=
 OpenBabel11062416243D

 67 71  0  0  1  0  0  0  0  0999 V2000
  186.4820  176.8590  137.4500 C   0  0  0  0  0  2  0  0  0  0  0  0
  189.5990  175.9290  141.3690 C   0  0  0  0  0  2  0  0  0  0  0  0
  188.6570  175.0730  135.3230 O   0  0  0  0  0  0  0  0  0  0  0  0
  190.9820  175.8560  141.6180 O   0  0  0  0  0  0  0  0  0  0  0  0
  190.9790  177.5270  138.0460 O   0  0  0  0  0  0  0  0  0  0  0  0
  190.9310  177.9820  142.9070 C   0  0  2  0  0  3  0  0  0  0  0  0
  192.9170  176.9680  142.0080 O   0  0  0  0  0  1  0  0  0  0  0  0
  187.2780  178.1350  139.5220 C   0  0  0  0  0  2  0  0  0  0  0  0
  185.8150  177.1990  144.0590 C   0  0  2  0  0  3  0  0  0  0  0  0
  192.3110  179.0370  140.4280 F   0  0  0  0  0  0  0  0  0  0  0  0
  186.8170  178.2110  138.0870 C   0  0  2  0  0  0  0  0  0  0  0  0
  185.9490  178.8050  139.1930 C   0  0  1  0  0  3  0  0  0  0  0  0
  190.6020  176.6780  137.0050 C   0  0  0  0  0  0  0  0  0  0  0  0
  183.7750  178.6890  140.3780 C   0  0  0  0  0  2  0  0  0  0  0  0
  187.8570  174.1410  136.0100 C   0  0  1  0  0  3  0  0  0  0  0  0
  188.8460  175.5680  142.6340 C   0  0  0  0  0  2  0  0  0  0  0  0
  191.7050  177.0680  139.1840 C   0  0  2  0  0  3  0  0  0  0  0  0
  188.8440  176.7470  143.5990 C   0  0  1  0  0  3  0  0  0  0  0  0
  187.1290  177.5380  144.7740 C   0  0  0  0  0  2  0  0  0  0  0  0
  185.9590  177.4910  142.5730 C   0  0  0  0  0  2  0  0  0  0  0  0
  188.0270  176.4670  144.6990 O   0  0  0  0  0  0  0  0  0  0  0  0
  187.3740  174.6640  137.2240 O   0  0  0  0  0  0  0  0  0  0  0  0
  190.2440  177.2000  144.0370 C   0  0  1  0  0  3  0  0  0  0  0  0
  184.8120  177.8860  139.6150 C   0  0  0  0  0  2  0  0  0  0  0  0
  188.3550  176.3020  135.8980 C   0  0  2  0  0  3  0  0  0  0  0  0
  184.9280  178.6040  142.6690 C   0  0  2  0  0  3  0  0  0  0  0  0
  184.7360  178.2850  144.1500 C   0  0  2  0  0  3  0  0  0  0  0  0
  191.5560  177.1540  141.7370 C   0  0  1  0  0  0  0  0  0  0  0  0
  189.6140  177.1700  135.9960 C   0  0  0  0  0  2  0  0  0  0  0  0
  190.1530  178.4820  140.3070 F   0  0  0  0  0  0  0  0  0  0  0  0
  183.6770  178.2490  141.8440 C   0  0  1  0  0  3  0  0  0  0  0  0
  191.4340  177.9620  140.4100 C   0  0  0  0  0  0  0  0  0  0  0  0
  187.7280  176.0120  137.2350 C   0  0  1  0  0  3  0  0  0  0  0  0
  191.0800  175.5130  136.9120 O   0  0  0  0  0  0  0  0  0  0  0  0
  185.0360  179.4400  145.1330 C   0  0  2  0  0  3  0  0  0  0  0  0
  185.9530  180.3030  144.5260 O   0  0  0  0  0  1  0  0  0  0  0  0
  184.5230  178.0860  147.1720 C   0  0  0  0  0  1  0  0  0  0  0  0
  185.5470  178.9920  146.5120 C   0  0  2  0  0  3  0  0  0  0  0  0
  185.7800  180.0920  147.3440 O   0  0  0  0  0  0  0  0  0  0  0  0
  187.3650  178.5490  148.2160 C   0  0  0  0  0  1  0  0  0  0  0  0
  187.1130  179.9620  147.7360 C   0  0  0  0  0  2  0  0  0  0  0  0
  191.8530  179.0710  143.4500 C   0  0  0  0  0  2  0  0  0  0  0  0
  191.1790  179.8120  144.5880 C   0  0  0  0  0  1  0  0  0  0  0  0
  187.5450  179.1410  137.3370 O   0  0  0  0  0  0  0  0  0  0  0  0
  186.8930  179.2510  136.1960 O   0  0  0  0  0  1  0  0  0  0  0  0
  191.6280  176.2360  145.8330 C   0  0  0  0  0  2  0  0  0  0  0  0
  191.0990  176.1090  144.6180 C   0  0  0  0  0  3  0  0  0  0  0  0
  193.1920  176.8440  138.8810 C   0  0  0  0  0  2  0  0  0  0  0  0
  194.7620  175.2480  139.7590 O   0  0  0  0  0  1  0  0  0  0  0  0
  193.6090  175.3780  138.9810 C   0  0  2  0  0  3  0  0  0  0  0  0
  193.8180  174.7640  137.5990 C   0  0  0  0  0  2  0  0  0  0  0  0
  195.2870  174.6630  137.2010 C   0  0  0  0  0  2  0  0  0  0  0  0
  195.6110  175.6620  136.2830 O   0  0  0  0  0  0  0  0  0  0  0  0
  194.4610  175.8120  135.5090 C   0  0  0  0  0  1  0  0  0  0  0  0
  182.4680  178.6780  142.4410 O   0  0  0  0  0  0  0  0  0  0  0  0
  181.3940  178.3730  141.5840 C   0  0  0  0  0  2  0  0  0  0  0  0
  180.3770  180.4000  143.0000 O   0  0  0  0  0  0  0  0  0  0  0  0
  179.9580  179.3160  142.0480 S   0  0  0  0  0  0  0  0  0  0  0  0
  178.9610  178.4210  142.7300 O   0  0  0  0  0  0  0  0  0  0  0  0
  179.2170  180.0620  140.6090 C   0  0  0  0  0  2  0  0  0  0  0  0
  180.2570  180.8270  139.8140 C   0  0  0  0  0  1  0  0  0  0  0  0
  186.6900  173.7010  135.1370 C   0  0  0  0  0  2  0  0  0  0  0  0
  185.6520  172.9790  135.9750 C   0  0  0  0  0  2  0  0  0  0  0  0
  183.8090  174.0520  137.3240 N   0  0  0  0  0  2  0  0  0  0  0  0
  184.4080  173.7920  136.0530 C   0  0  0  0  0  0  0  0  0  0  0  0
  182.6040  174.8530  137.4580 C   0  0  0  0  0  1  0  0  0  0  0  0
  183.9040  174.2620  134.9980 O   0  0  0  0  0  0  0  0  0  0  0  0
  1 11  1  0  0  0  0
  2  4  1  0  0  0  0
  2 16  1  0  0  0  0
  3 25  1  0  0  0  0
  3 15  1  0  0  0  0
  4 28  1  0  0  0  0
  5 17  1  0  0  0  0
  6 42  1  1  0  0  0
  6 23  1  0  0  0  0
  9 20  1  6  0  0  0
  9 27  1  0  0  0  0
  9 19  1  0  0  0  0
 11 44  1  6  0  0  0
 11 12  1  0  0  0  0
 11  8  1  0  0  0  0
 12  8  1  1  0  0  0
 12 24  1  0  0  0  0
 13  5  1  0  0  0  0
 14 31  1  0  0  0  0
 15 62  1  6  0  0  0
 15 22  1  0  0  0  0
 17 48  1  6  0  0  0
 17 32  1  0  0  0  0
 18 16  1  6  0  0  0
 18 23  1  0  0  0  0
 18 21  1  0  0  0  0
 21 19  1  0  0  0  0
 22 33  1  0  0  0  0
 23 47  1  6  0  0  0
 24 14  1  0  0  0  0
 25 29  1  1  0  0  0
 25 33  1  0  0  0  0
 26 20  1  6  0  0  0
 26 27  1  0  0  0  0
 27 35  1  1  0  0  0
 28  7  1  1  0  0  0
 28  6  1  0  0  0  0
 29 13  1  0  0  0  0
 30 32  1  0  0  0  0
 31 55  1  1  0  0  0
 31 26  1  0  0  0  0
 32 10  1  0  0  0  0
 32 28  1  0  0  0  0
 33  1  1  6  0  0  0
 34 13  2  0  0  0  0
 35 36  1  6  0  0  0
 35 38  1  0  0  0  0
 38 37  1  1  0  0  0
 38 39  1  0  0  0  0
 39 41  1  0  0  0  0
 41 40  1  0  0  0  0
 42 43  1  0  0  0  0
 45 44  1  0  0  0  0
 47 46  2  0  0  0  0
 48 50  1  0  0  0  0
 50 49  1  1  0  0  0
 51 50  1  0  0  0  0
 52 51  1  0  0  0  0
 53 52  1  0  0  0  0
 54 53  1  0  0  0  0
 56 58  1  0  0  0  0
 56 55  1  0  0  0  0
 58 59  2  0  0  0  0
 58 57  2  0  0  0  0
 60 58  1  0  0  0  0
 61 60  1  0  0  0  0
 62 63  1  0  0  0  0
 63 65  1  0  0  0  0
 64 66  1  0  0  0  0
 65 64  1  0  0  0  0
 67 65  2  0  0  0  0
M  END
>  <MODEL>
1

>  <REMARK>
 VINA RESULT:      -2.2      0.000      0.000
  Name = 
  19 active torsions:
  status: ('A' for Active; 'I' for Inactive)
    1  A    between atoms: C_2  and  C_37
    2  A    between atoms: C_2  and  C_56
    3  A    between atoms: O_5  and  C_53
    4  A    between atoms: C_7  and  C_12
    5  A    between atoms: O_10  and  C_24
    6  A    between atoms: O_10  and  C_63
    7  A    between atoms: C_11  and  C_40
    8  A    between atoms: C_12  and  C_41
    9  A    between atoms: C_13  and  C_22
   10  A    between atoms: C_13  and  C_39
   11  A    between atoms: C_17  and  S_32
   12  A    between atoms: C_22  and  C_50
   13  A    between atoms: C_24  and  S_32
   14  A    between atoms: C_28  and  O_38
   15  A    between atoms: C_33  and  C_41
   16  A    between atoms: O_35  and  C_37
   17  A    between atoms: O_35  and  C_57
   18  A    between atoms: C_47  and  C_60
   19  A    between atoms: C_50  and  C_53
                            x       y       z     vdW  Elec       q    Type
                         _______ _______ _______ _____ _____    ______ ____

>  <TORSDO>
F 19

$$$$
=
 OpenBabel11062416243D

 67 71  0  0  1  0  0  0  0  0999 V2000
  187.0010  176.4100  136.8110 C   0  0  0  0  0  2  0  0  0  0  0  0
  189.4940  175.8800  141.2220 C   0  0  0  0  0  2  0  0  0  0  0  0
  189.3610  174.3030  135.2490 O   0  0  0  0  0  0  0  0  0  0  0  0
  190.8230  175.7960  141.6740 O   0  0  0  0  0  0  0  0  0  0  0  0
  191.4000  177.0040  137.9650 O   0  0  0  0  0  0  0  0  0  0  0  0
  190.6970  178.0660  142.6790 C   0  0  2  0  0  3  0  0  0  0  0  0
  192.7370  176.8850  142.2030 O   0  0  0  0  0  1  0  0  0  0  0  0
  187.5630  177.9100  138.8090 C   0  0  0  0  0  2  0  0  0  0  0  0
  185.4390  177.5960  143.1670 C   0  0  2  0  0  3  0  0  0  0  0  0
  192.4600  178.7580  140.3170 F   0  0  0  0  0  0  0  0  0  0  0  0
  187.3110  177.8190  137.3240 C   0  0  2  0  0  0  0  0  0  0  0  0
  186.3270  178.5740  138.2140 C   0  0  1  0  0  3  0  0  0  0  0  0
  191.1300  176.0440  136.9900 C   0  0  0  0  0  0  0  0  0  0  0  0
  184.0070  178.6770  139.0790 C   0  0  0  0  0  2  0  0  0  0  0  0
  188.4290  173.4910  135.9200 C   0  0  1  0  0  3  0  0  0  0  0  0
  188.5550  175.7050  142.3990 C   0  0  0  0  0  2  0  0  0  0  0  0
  191.9360  176.6690  139.2420 C   0  0  2  0  0  3  0  0  0  0  0  0
  188.4760  176.9950  143.2060 C   0  0  1  0  0  3  0  0  0  0  0  0
  186.6550  177.9810  144.0180 C   0  0  0  0  0  2  0  0  0  0  0  0
  185.8020  177.6960  141.6930 C   0  0  0  0  0  2  0  0  0  0  0  0
  187.5020  176.8800  144.2020 O   0  0  0  0  0  0  0  0  0  0  0  0
  187.8080  174.1770  136.9810 O   0  0  0  0  0  0  0  0  0  0  0  0
  189.8220  177.4540  143.7840 C   0  0  1  0  0  3  0  0  0  0  0  0
  185.0990  177.7520  138.5740 C   0  0  0  0  0  2  0  0  0  0  0  0
  189.0430  175.6030  135.6240 C   0  0  2  0  0  3  0  0  0  0  0  0
  184.8240  178.8430  141.5050 C   0  0  2  0  0  3  0  0  0  0  0  0
  184.4120  178.7180  142.9710 C   0  0  2  0  0  3  0  0  0  0  0  0
  191.4380  177.0790  141.7190 C   0  0  1  0  0  0  0  0  0  0  0  0
  190.3170  176.4370  135.7970 C   0  0  0  0  0  2  0  0  0  0  0  0
  190.3150  178.2610  139.9530 F   0  0  0  0  0  0  0  0  0  0  0  0
  183.6840  178.4270  140.5570 C   0  0  1  0  0  3  0  0  0  0  0  0
  191.5410  177.7180  140.3020 C   0  0  0  0  0  0  0  0  0  0  0  0
  188.2220  175.5030  136.8810 C   0  0  1  0  0  3  0  0  0  0  0  0
  191.5580  174.8630  137.1070 O   0  0  0  0  0  0  0  0  0  0  0  0
  184.6290  179.9770  143.8410 C   0  0  2  0  0  3  0  0  0  0  0  0
  185.9820  180.3220  143.7830 O   0  0  0  0  0  1  0  0  0  0  0  0
  185.2930  179.2390  146.1370 C   0  0  0  0  0  1  0  0  0  0  0  0
  184.1720  179.8340  145.3030 C   0  0  2  0  0  3  0  0  0  0  0  0
  183.0480  179.0070  145.4000 O   0  0  0  0  0  0  0  0  0  0  0  0
  181.0190  178.5020  144.2670 C   0  0  0  0  0  1  0  0  0  0  0  0
  182.2080  179.4330  144.3700 C   0  0  0  0  0  2  0  0  0  0  0  0
  191.5870  179.1850  143.2160 C   0  0  0  0  0  2  0  0  0  0  0  0
  190.8840  179.9270  144.3360 C   0  0  0  0  0  1  0  0  0  0  0  0
  188.1800  178.6240  136.5810 O   0  0  0  0  0  0  0  0  0  0  0  0
  188.9310  179.2380  137.4730 O   0  0  0  0  0  1  0  0  0  0  0  0
  190.8200  176.6490  145.8880 C   0  0  0  0  0  2  0  0  0  0  0  0
  190.5330  176.4180  144.6080 C   0  0  0  0  0  3  0  0  0  0  0  0
  193.4380  176.3620  139.1860 C   0  0  0  0  0  2  0  0  0  0  0  0
  194.6590  174.4620  138.3610 O   0  0  0  0  0  1  0  0  0  0  0  0
  193.8320  175.5190  137.9750 C   0  0  2  0  0  3  0  0  0  0  0  0
  194.5080  176.3690  136.9010 C   0  0  0  0  0  2  0  0  0  0  0  0
  195.4030  175.5590  135.9680 C   0  0  0  0  0  2  0  0  0  0  0  0
  196.6140  176.2200  135.7630 O   0  0  0  0  0  0  0  0  0  0  0  0
  197.5770  175.2130  135.8180 C   0  0  0  0  0  1  0  0  0  0  0  0
  182.4260  178.9660  140.9180 O   0  0  0  0  0  0  0  0  0  0  0  0
  181.4060  178.1970  140.3270 C   0  0  0  0  0  2  0  0  0  0  0  0
  180.5650  180.6730  139.7690 O   0  0  0  0  0  0  0  0  0  0  0  0
  180.0730  179.2540  139.8040 S   0  0  0  0  0  0  0  0  0  0  0  0
  178.9320  179.1520  140.7780 O   0  0  0  0  0  0  0  0  0  0  0  0
  179.5200  178.7910  138.1750 C   0  0  0  0  0  2  0  0  0  0  0  0
  180.2400  177.5410  137.7060 C   0  0  0  0  0  1  0  0  0  0  0  0
  187.3750  172.9820  134.9470 C   0  0  0  0  0  2  0  0  0  0  0  0
  187.1190  171.5030  135.1760 C   0  0  0  0  0  2  0  0  0  0  0  0
  184.9900  172.3310  136.2470 N   0  0  0  0  0  2  0  0  0  0  0  0
  185.7020  171.2890  135.5760 C   0  0  0  0  0  0  0  0  0  0  0  0
  183.6000  172.1790  136.6450 C   0  0  0  0  0  1  0  0  0  0  0  0
  185.1350  170.1980  135.3020 O   0  0  0  0  0  0  0  0  0  0  0  0
  1 11  1  0  0  0  0
  2  4  1  0  0  0  0
  2 16  1  0  0  0  0
  3 25  1  0  0  0  0
  3 15  1  0  0  0  0
  4 28  1  0  0  0  0
  5 17  1  0  0  0  0
  6 42  1  1  0  0  0
  6 23  1  0  0  0  0
  9 20  1  6  0  0  0
  9 19  1  0  0  0  0
 11 44  1  6  0  0  0
 11 12  1  0  0  0  0
 11  8  1  0  0  0  0
 12 24  1  1  0  0  0
 12  8  1  0  0  0  0
 13 34  2  0  0  0  0
 13  5  1  0  0  0  0
 14 31  1  0  0  0  0
 15 62  1  6  0  0  0
 15 22  1  0  0  0  0
 17 48  1  6  0  0  0
 17 32  1  0  0  0  0
 18 16  1  1  0  0  0
 18 23  1  0  0  0  0
 18 21  1  0  0  0  0
 19 21  1  0  0  0  0
 23 47  1  6  0  0  0
 24 14  1  0  0  0  0
 25 29  1  1  0  0  0
 25 33  1  0  0  0  0
 26 20  1  1  0  0  0
 26 27  1  0  0  0  0
 27  9  1  0  0  0  0
 27 35  1  1  0  0  0
 28  7  1  1  0  0  0
 28  6  1  0  0  0  0
 29 13  1  0  0  0  0
 30 32  1  0  0  0  0
 31 55  1  1  0  0  0
 31 26  1  0  0  0  0
 32 10  1  0  0  0  0
 32 28  1  0  0  0  0
 33  1  1  6  0  0  0
 33 22  1  0  0  0  0
 35 36  1  1  0  0  0
 35 38  1  0  0  0  0
 38 39  1  0  0  0  0
 38 37  1  1  0  0  0
 40 41  1  0  0  0  0
 41 39  1  0  0  0  0
 42 43  1  0  0  0  0
 44 45  1  0  0  0  0
 47 46  2  0  0  0  0
 50 49  1  1  0  0  0
 50 48  1  0  0  0  0
 51 50  1  0  0  0  0
 52 51  1  0  0  0  0
 53 54  1  0  0  0  0
 53 52  1  0  0  0  0
 56 55  1  0  0  0  0
 57 58  2  0  0  0  0
 58 56  1  0  0  0  0
 58 59  2  0  0  0  0
 60 58  1  0  0  0  0
 61 60  1  0  0  0  0
 62 63  1  0  0  0  0
 63 65  1  0  0  0  0
 64 66  1  0  0  0  0
 65 64  1  0  0  0  0
 67 65  2  0  0  0  0
M  END
>  <MODEL>
2

>  <REMARK>
 VINA RESULT:      -1.5      1.490      1.974
  Name = 
  19 active torsions:
  status: ('A' for Active; 'I' for Inactive)
    1  A    between atoms: C_2  and  C_37
    2  A    between atoms: C_2  and  C_56
    3  A    between atoms: O_5  and  C_53
    4  A    between atoms: C_7  and  C_12
    5  A    between atoms: O_10  and  C_24
    6  A    between atoms: O_10  and  C_63
    7  A    between atoms: C_11  and  C_40
    8  A    between atoms: C_12  and  C_41
    9  A    between atoms: C_13  and  C_22
   10  A    between atoms: C_13  and  C_39
   11  A    between atoms: C_17  and  S_32
   12  A    between atoms: C_22  and  C_50
   13  A    between atoms: C_24  and  S_32
   14  A    between atoms: C_28  and  O_38
   15  A    between atoms: C_33  and  C_41
   16  A    between atoms: O_35  and  C_37
   17  A    between atoms: O_35  and  C_57
   18  A    between atoms: C_47  and  C_60
   19  A    between atoms: C_50  and  C_53
                            x       y       z     vdW  Elec       q    Type
                         _______ _______ _______ _____ _____    ______ ____

>  <TORSDO>
F 19

$$$$
=
 OpenBabel11062416243D

 67 71  0  0  1  0  0  0  0  0999 V2000
  187.2110  178.0020  142.1280 C   0  0  0  0  0  2  0  0  0  0  0  0
  183.9330  175.5210  139.1200 C   0  0  0  0  0  2  0  0  0  0  0  0
  184.5930  178.6690  144.3960 O   0  0  0  0  0  0  0  0  0  0  0  0
  182.5980  175.6460  138.6930 O   0  0  0  0  0  0  0  0  0  0  0  0
  183.1610  179.1870  140.3320 O   0  0  0  0  0  0  0  0  0  0  0  0
  183.3200  176.2920  136.4030 C   0  0  2  0  0  3  0  0  0  0  0  0
  181.1200  176.6530  137.3040 O   0  0  0  0  0  1  0  0  0  0  0  0
  186.8520  177.7370  139.6070 C   0  0  0  0  0  2  0  0  0  0  0  0
  187.9060  173.7210  137.0850 C   0  0  2  0  0  3  0  0  0  0  0  0
  182.3680  179.0160  137.3210 F   0  0  0  0  0  0  0  0  0  0  0  0
  187.3230  178.6240  140.7330 C   0  0  2  0  0  0  0  0  0  0  0  0
  188.3280  178.1030  139.7090 C   0  0  1  0  0  3  0  0  0  0  0  0
  183.2540  179.1780  141.7240 C   0  0  0  0  0  0  0  0  0  0  0  0
  190.3410  176.7060  139.3400 C   0  0  0  0  0  2  0  0  0  0  0  0
  185.0460  177.3580  144.6280 C   0  0  1  0  0  3  0  0  0  0  0  0
  184.5220  174.2460  138.5510 C   0  0  0  0  0  2  0  0  0  0  0  0
  182.3190  178.2890  139.6140 C   0  0  2  0  0  3  0  0  0  0  0  0
  184.8950  174.4470  137.0870 C   0  0  1  0  0  3  0  0  0  0  0  0
  186.7650  173.8130  136.0630 C   0  0  0  0  0  2  0  0  0  0  0  0
  187.8740  174.9440  137.9890 C   0  0  0  0  0  2  0  0  0  0  0  0
  185.5710  173.3220  136.6060 O   0  0  0  0  0  0  0  0  0  0  0  0
  185.6630  176.8100  143.4880 O   0  0  0  0  0  0  0  0  0  0  0  0
  183.7120  174.8230  136.1860 C   0  0  1  0  0  3  0  0  0  0  0  0
  189.1070  176.8940  140.2030 C   0  0  0  0  0  2  0  0  0  0  0  0
  185.2690  179.0890  143.2560 C   0  0  2  0  0  3  0  0  0  0  0  0
  189.2060  175.4180  137.4330 C   0  0  2  0  0  3  0  0  0  0  0  0
  189.2760  174.1670  136.5590 C   0  0  2  0  0  3  0  0  0  0  0  0
  182.4700  176.6300  137.6720 C   0  0  1  0  0  0  0  0  0  0  0  0
  184.3540  179.9510  142.3790 C   0  0  0  0  0  2  0  0  0  0  0  0
  184.2350  178.1720  138.2050 F   0  0  0  0  0  0  0  0  0  0  0  0
  190.2830  175.4020  138.5340 C   0  0  1  0  0  3  0  0  0  0  0  0
  182.8540  178.0490  138.1880 C   0  0  0  0  0  0  0  0  0  0  0  0
  185.7600  177.8480  142.5630 C   0  0  1  0  0  3  0  0  0  0  0  0
  182.4280  178.5290  142.4240 O   0  0  0  0  0  0  0  0  0  0  0  0
  189.3550  174.4130  135.0350 C   0  0  2  0  0  3  0  0  0  0  0  0
  190.6380  174.0670  134.6030 O   0  0  0  0  0  1  0  0  0  0  0  0
  190.1890  176.7640  134.8550 C   0  0  0  0  0  1  0  0  0  0  0  0
  189.0070  175.8460  134.5980 C   0  0  2  0  0  3  0  0  0  0  0  0
  187.8970  176.3300  135.2980 O   0  0  0  0  0  0  0  0  0  0  0  0
  187.0670  178.4800  135.8850 C   0  0  0  0  0  1  0  0  0  0  0  0
  187.7160  177.6270  134.8160 C   0  0  0  0  0  2  0  0  0  0  0  0
  182.7920  176.9340  135.1220 C   0  0  0  0  0  2  0  0  0  0  0  0
  181.6000  176.1580  134.5960 C   0  0  0  0  0  1  0  0  0  0  0  0
  186.9370  179.9580  140.5640 O   0  0  0  0  0  0  0  0  0  0  0  0
  185.8880  179.9170  139.7680 O   0  0  0  0  0  1  0  0  0  0  0  0
  182.3330  172.9910  135.2830 C   0  0  0  0  0  2  0  0  0  0  0  0
  182.5480  173.8750  136.2560 C   0  0  0  0  0  3  0  0  0  0  0  0
  180.8410  178.6950  139.6750 C   0  0  0  0  0  2  0  0  0  0  0  0
  179.9290  180.4220  141.0790 O   0  0  0  0  0  1  0  0  0  0  0  0
  180.6400  180.1930  139.8990 C   0  0  2  0  0  3  0  0  0  0  0  0
  179.9370  180.8440  138.7100 C   0  0  0  0  0  2  0  0  0  0  0  0
  180.6280  182.1140  138.2230 C   0  0  0  0  0  2  0  0  0  0  0  0
  181.0050  181.9790  136.8870 O   0  0  0  0  0  0  0  0  0  0  0  0
  179.9240  181.3380  136.2810 C   0  0  0  0  0  1  0  0  0  0  0  0
  191.5620  175.0170  138.0670 O   0  0  0  0  0  0  0  0  0  0  0  0
  192.0970  176.0500  137.2760 C   0  0  0  0  0  2  0  0  0  0  0  0
  194.4670  175.2970  138.2570 O   0  0  0  0  0  0  0  0  0  0  0  0
  193.8260  175.7550  136.9780 S   0  0  0  0  0  0  0  0  0  0  0  0
  194.4880  177.0260  136.5220 O   0  0  0  0  0  0  0  0  0  0  0  0
  194.0320  174.4890  135.7410 C   0  0  0  0  0  2  0  0  0  0  0  0
  195.3310  173.7390  135.9600 C   0  0  0  0  0  1  0  0  0  0  0  0
  186.0160  177.3350  145.8010 C   0  0  0  0  0  2  0  0  0  0  0  0
  187.2370  178.1810  145.4900 C   0  0  0  0  0  2  0  0  0  0  0  0
  189.2240  177.5110  146.8930 N   0  0  0  0  0  2  0  0  0  0  0  0
  188.4740  177.3770  145.6840 C   0  0  0  0  0  0  0  0  0  0  0  0
  190.4300  176.7380  147.1390 C   0  0  0  0  0  1  0  0  0  0  0  0
  188.8390  176.5700  144.7870 O   0  0  0  0  0  0  0  0  0  0  0  0
  3 15  1  0  0  0  0
  4  2  1  0  0  0  0
  5 13  1  0  0  0  0
  6 42  1  6  0  0  0
  6 28  1  0  0  0  0
  8 11  1  0  0  0  0
  9 19  1  6  0  0  0
  9 20  1  0  0  0  0
 10 32  1  0  0  0  0
 11 44  1  6  0  0  0
 11  1  1  0  0  0  0
 12  8  1  6  0  0  0
 12 24  1  0  0  0  0
 12 11  1  0  0  0  0
 13 29  1  0  0  0  0
 13 34  2  0  0  0  0
 14 24  1  0  0  0  0
 15 62  1  1  0  0  0
 16  2  1  0  0  0  0
 17 48  1  6  0  0  0
 17  5  1  0  0  0  0
 18 16  1  1  0  0  0
 19 21  1  0  0  0  0
 21 18  1  0  0  0  0
 22 15  1  0  0  0  0
 23 47  1  1  0  0  0
 23  6  1  0  0  0  0
 23 18  1  0  0  0  0
 25 29  1  6  0  0  0
 25  3  1  0  0  0  0
 26 20  1  1  0  0  0
 26 31  1  0  0  0  0
 27 35  1  6  0  0  0
 27  9  1  0  0  0  0
 27 26  1  0  0  0  0
 28  7  1  6  0  0  0
 28 32  1  0  0  0  0
 28  4  1  0  0  0  0
 31 55  1  6  0  0  0
 31 14  1  0  0  0  0
 32 30  1  0  0  0  0
 32 17  1  0  0  0  0
 33  1  1  1  0  0  0
 33 25  1  0  0  0  0
 33 22  1  0  0  0  0
 35 36  1  1  0  0  0
 38 37  1  1  0  0  0
 38 35  1  0  0  0  0
 38 39  1  0  0  0  0
 41 39  1  0  0  0  0
 41 40  1  0  0  0  0
 43 42  1  0  0  0  0
 45 44  1  0  0  0  0
 46 47  2  0  0  0  0
 48 50  1  0  0  0  0
 50 49  1  1  0  0  0
 51 50  1  0  0  0  0
 52 51  1  0  0  0  0
 53 52  1  0  0  0  0
 54 53  1  0  0  0  0
 56 55  1  0  0  0  0
 58 56  1  0  0  0  0
 58 57  2  0  0  0  0
 59 58  2  0  0  0  0
 60 61  1  0  0  0  0
 60 58  1  0  0  0  0
 63 65  1  0  0  0  0
 63 62  1  0  0  0  0
 64 66  1  0  0  0  0
 65 64  1  0  0  0  0
 67 65  2  0  0  0  0
M  END
>  <MODEL>
3

>  <REMARK>
 VINA RESULT:       0.2      3.379     11.024
  Name = 
  19 active torsions:
  status: ('A' for Active; 'I' for Inactive)
    1  A    between atoms: C_2  and  C_37
    2  A    between atoms: C_2  and  C_56
    3  A    between atoms: O_5  and  C_53
    4  A    between atoms: C_7  and  C_12
    5  A    between atoms: O_10  and  C_24
    6  A    between atoms: O_10  and  C_63
    7  A    between atoms: C_11  and  C_40
    8  A    between atoms: C_12  and  C_41
    9  A    between atoms: C_13  and  C_22
   10  A    between atoms: C_13  and  C_39
   11  A    between atoms: C_17  and  S_32
   12  A    between atoms: C_22  and  C_50
   13  A    between atoms: C_24  and  S_32
   14  A    between atoms: C_28  and  O_38
   15  A    between atoms: C_33  and  C_41
   16  A    between atoms: O_35  and  C_37
   17  A    between atoms: O_35  and  C_57
   18  A    between atoms: C_47  and  C_60
   19  A    between atoms: C_50  and  C_53
                            x       y       z     vdW  Elec       q    Type
                         _______ _______ _______ _____ _____    ______ ____

>  <TORSDO>
F 19

$$$$
