=
 OpenBabel11062412143D

 55 62  0  0  1  0  0  0  0  0999 V2000
  185.1860  177.1650  138.2340 C   0  0  2  0  0  3  0  0  0  0  0  0
  184.4960  177.5460  135.9730 O   0  0  0  0  0  0  0  0  0  0  0  0
  186.3740  176.9880  137.3240 C   0  0  1  0  0  3  0  0  0  0  0  0
  185.9080  177.5570  136.0050 C   0  0  0  0  0  2  0  0  0  0  0  0
  184.0870  176.9920  137.1980 C   0  0  2  0  0  3  0  0  0  0  0  0
  185.2070  178.5210  138.9780 C   0  0  1  0  0  3  0  0  0  0  0  0
  184.9040  179.6050  138.1530 O   0  0  0  0  0  1  0  0  0  0  0  0
  184.3130  178.4970  140.2030 C   0  0  0  0  0  2  0  0  0  0  0  0
  184.7440  177.9060  142.5790 C   0  0  1  0  0  3  0  0  0  0  0  0
  183.7040  178.4480  143.3870 O   0  0  0  0  0  0  0  0  0  0  0  0
  188.4010  177.1070  144.7670 C   0  0  1  0  0  3  0  0  0  0  0  0
  188.3040  177.6740  147.1230 O   0  0  0  0  0  1  0  0  0  0  0  0
  184.1700  178.7260  144.6620 C   0  0  0  0  0  0  0  0  0  0  0  0
  187.7820  178.0080  145.8710 C   0  0  2  0  0  3  0  0  0  0  0  0
  186.9110  178.5000  141.1010 S   0  0  0  0  0  0  0  0  0  0  0  0
  183.4290  179.1310  145.5970 O   0  0  0  0  0  0  0  0  0  0  0  0
  187.1590  178.4490  142.8980 C   0  0  2  0  0  3  0  0  0  0  0  0
  185.1440  178.8160  141.4300 C   0  0  1  0  0  3  0  0  0  0  0  0
  186.2440  177.9040  145.9390 C   0  0  0  0  0  2  0  0  0  0  0  0
  188.4490  177.7550  143.3520 C   0  0  0  0  0  2  0  0  0  0  0  0
  185.6400  178.6110  144.7400 C   0  0  1  0  0  3  0  0  0  0  0  0
  185.9490  177.8020  143.5060 C   0  0  1  0  0  3  0  0  0  0  0  0
  189.7120  176.6890  145.1410 O   0  0  0  0  0  0  0  0  0  0  0  0
  191.4690  177.2400  143.7000 C   0  0  0  0  0  0  0  0  0  0  0  0
  192.0720  177.0390  142.6350 O   0  0  0  0  0  0  0  0  0  0  0  0
  190.8340  177.4500  144.8200 C   0  0  0  0  0  3  0  0  0  0  0  0
  182.6090  177.2560  137.5560 C   0  0  1  0  0  3  0  0  0  0  0  0
  178.9320  179.5370  135.8860 O   0  0  0  0  0  0  0  0  0  0  0  0
  180.9950  178.3790  135.9550 C   0  0  2  0  0  3  0  0  0  0  0  0
  181.4560  178.7250  134.6250 N   0  0  0  0  0  1  0  0  0  0  0  0
  181.7120  179.4700  137.9930 O   0  0  0  0  0  0  0  0  0  0  0  0
  180.6060  181.3910  137.4080 O   0  0  0  0  0  1  0  0  0  0  0  0
  180.0150  179.3490  136.4170 C   0  0  0  0  0  0  0  0  0  0  0  0
  180.4610  180.0230  137.6430 C   0  0  1  0  0  3  0  0  0  0  0  0
  182.1220  178.5860  136.9580 C   0  0  1  0  0  3  0  0  0  0  0  0
  179.8290  174.6650  138.1650 N   0  0  0  0  0  2  0  0  0  0  0  0
  181.6600  173.5810  137.0520 C   0  0  1  0  0  3  0  0  0  0  0  0
  182.4430  172.4550  137.3080 O   0  0  0  0  0  1  0  0  0  0  0  0
  181.6810  176.0830  137.2060 C   0  0  2  0  0  3  0  0  0  0  0  0
  181.0460  175.4280  138.4280 C   0  0  2  0  0  0  0  0  0  0  0  0
  180.2770  173.3800  137.6450 C   0  0  2  0  0  3  0  0  0  0  0  0
  182.2370  174.7740  137.7770 C   0  0  1  0  0  3  0  0  0  0  0  0
  178.9440  171.4840  136.6550 N   0  0  0  0  0  1  0  0  0  0  0  0
  178.9310  173.5810  135.6700 O   0  0  0  0  0  0  0  0  0  0  0  0
  179.3310  172.8530  136.6150 C   0  0  0  0  0  0  0  0  0  0  0  0
  181.2880  175.9370  139.8480 C   0  0  0  0  0  2  0  0  0  0  0  0
  179.7730  177.7630  140.0730 O   0  0  0  0  0  0  0  0  0  0  0  0
  180.0680  176.5890  140.4090 C   0  0  0  0  0  0  0  0  0  0  0  0
  179.2700  175.9110  141.3220 O   0  0  0  0  0  1  0  0  0  0  0  0
  187.6890  177.5910  137.8100 C   0  0  0  0  0  2  0  0  0  0  0  0
  189.7890  174.6870  137.1930 C   0  0  0  0  0  2  0  0  0  0  0  0
  188.8680  176.7760  137.2930 C   0  0  1  0  0  3  0  0  0  0  0  0
  190.2930  176.9310  138.3960 S   0  0  0  0  0  0  0  0  0  0  0  0
  190.6610  175.2090  138.2240 N   0  0  0  0  0  2  0  0  0  0  0  0
  188.5120  175.3680  137.2330 N   0  0  0  0  0  2  0  0  0  0  0  0
  1  6  1  6  0  0  0
  2  4  1  0  0  0  0
  2  5  1  0  0  0  0
  3 50  1  1  0  0  0
  3  1  1  0  0  0  0
  4  3  1  0  0  0  0
  5 27  1  1  0  0  0
  5  1  1  0  0  0  0
  6  7  1  6  0  0  0
  6  8  1  0  0  0  0
  9 10  1  1  0  0  0
  9 22  1  0  0  0  0
 10 13  1  0  0  0  0
 11 23  1  1  0  0  0
 11 14  1  0  0  0  0
 13 21  1  0  0  0  0
 13 16  2  0  0  0  0
 14 19  1  0  0  0  0
 14 12  1  1  0  0  0
 15 18  1  0  0  0  0
 15 17  1  0  0  0  0
 17 20  1  6  0  0  0
 17 22  1  0  0  0  0
 18  8  1  6  0  0  0
 18  9  1  0  0  0  0
 20 11  1  0  0  0  0
 21 19  1  1  0  0  0
 22 21  1  0  0  0  0
 24 26  2  0  0  0  0
 25 24  2  0  0  0  0
 26 23  1  0  0  0  0
 28 33  2  0  0  0  0
 29 33  1  0  0  0  0
 29 35  1  0  0  0  0
 30 29  1  0  0  0  0
 32 34  1  0  0  0  0
 33 34  1  0  0  0  0
 34 31  1  0  0  0  0
 35 27  1  0  0  0  0
 35 31  1  0  0  0  0
 36 40  1  0  0  0  0
 37 38  1  0  0  0  0
 37 41  1  0  0  0  0
 37 42  1  0  0  0  0
 39 27  1  0  0  0  0
 39 42  1  0  0  0  0
 39 40  1  0  0  0  0
 40 46  1  0  0  0  0
 41 36  1  0  0  0  0
 42 40  1  0  0  0  0
 44 45  2  0  0  0  0
 45 43  1  0  0  0  0
 45 41  1  0  0  0  0
 46 48  1  0  0  0  0
 47 48  2  0  0  0  0
 48 49  1  0  0  0  0
 51 55  1  0  0  0  0
 51 54  1  0  0  0  0
 52 50  1  0  0  0  0
 52 53  1  0  0  0  0
 54 53  1  0  0  0  0
 55 52  1  0  0  0  0
M  END
>  <MODEL>
1

>  <REMARK>
 VINA RESULT:      -7.7      0.000      0.000
  Name = 
  13 active torsions:
  status: ('A' for Active; 'I' for Inactive)
    1  A    between atoms: C_5  and  O_28
    2  A    between atoms: C_8  and  C_26
    3  A    between atoms: C_16  and  C_47
    4  A    between atoms: C_19  and  C_34
    5  A    between atoms: C_19  and  C_35
    6  A    between atoms: C_19  and  C_52
    7  A    between atoms: C_21  and  C_23
    8  A    between atoms: C_22  and  C_23
    9  A    between atoms: C_26  and  C_44
   10  A    between atoms: O_28  and  C_32
   11  A    between atoms: C_29  and  C_44
   12  A    between atoms: C_38  and  C_47
   13  A    between atoms: C_42  and  C_48
                            x       y       z     vdW  Elec       q    Type
                         _______ _______ _______ _____ _____    ______ ____

>  <TORSDO>
F 13

$$$$
=
 OpenBabel11062412143D

 55 62  0  0  1  0  0  0  0  0999 V2000
  188.6120  177.1010  139.3970 C   0  0  2  0  0  3  0  0  0  0  0  0
  191.0020  176.9830  139.5100 O   0  0  0  0  0  0  0  0  0  0  0  0
  189.0420  177.2570  140.8330 C   0  0  1  0  0  3  0  0  0  0  0  0
  190.5320  177.4900  140.7410 C   0  0  0  0  0  2  0  0  0  0  0  0
  189.8770  176.4500  138.8580 C   0  0  2  0  0  3  0  0  0  0  0  0
  188.2150  178.4480  138.7480 C   0  0  1  0  0  3  0  0  0  0  0  0
  189.2710  179.0670  138.0780 O   0  0  0  0  0  1  0  0  0  0  0  0
  187.0060  178.2940  137.8450 C   0  0  0  0  0  2  0  0  0  0  0  0
  185.1280  178.9740  139.3250 C   0  0  1  0  0  3  0  0  0  0  0  0
  185.6450  179.2870  140.6140 O   0  0  0  0  0  0  0  0  0  0  0  0
  180.9160  177.9450  139.3490 C   0  0  1  0  0  3  0  0  0  0  0  0
  179.8840  177.9960  141.5420 O   0  0  0  0  0  1  0  0  0  0  0  0
  184.6950  179.0420  141.5940 C   0  0  0  0  0  0  0  0  0  0  0  0
  181.0980  177.7870  140.8840 C   0  0  2  0  0  3  0  0  0  0  0  0
  184.6030  176.9820  137.5950 S   0  0  0  0  0  0  0  0  0  0  0  0
  184.8690  179.3180  142.8110 O   0  0  0  0  0  0  0  0  0  0  0  0
  183.3930  177.2240  138.9260 C   0  0  2  0  0  3  0  0  0  0  0  0
  185.8330  177.7980  138.6680 C   0  0  1  0  0  3  0  0  0  0  0  0
  182.1440  178.7600  141.4670 C   0  0  0  0  0  2  0  0  0  0  0  0
  181.9270  177.1300  138.4890 C   0  0  0  0  0  2  0  0  0  0  0  0
  183.5320  178.3100  141.0530 C   0  0  1  0  0  3  0  0  0  0  0  0
  183.6860  178.5460  139.5720 C   0  0  1  0  0  3  0  0  0  0  0  0
  179.5860  177.6030  138.9660 O   0  0  0  0  0  0  0  0  0  0  0  0
  179.1000  175.3380  139.2800 C   0  0  0  0  0  0  0  0  0  0  0  0
  178.9310  174.3860  140.0570 O   0  0  0  0  0  0  0  0  0  0  0  0
  179.2780  176.3410  138.4640 C   0  0  0  0  0  3  0  0  0  0  0  0
  190.0670  176.2170  137.3440 C   0  0  1  0  0  3  0  0  0  0  0  0
  193.8700  173.8700  136.1040 O   0  0  0  0  0  0  0  0  0  0  0  0
  192.3650  175.1470  137.4100 C   0  0  2  0  0  3  0  0  0  0  0  0
  193.3020  175.5660  138.4330 N   0  0  0  0  0  1  0  0  0  0  0  0
  191.6630  176.5110  135.5380 O   0  0  0  0  0  0  0  0  0  0  0  0
  193.7480  176.3720  134.5950 O   0  0  0  0  0  1  0  0  0  0  0  0
  193.0740  174.7910  136.1900 C   0  0  0  0  0  0  0  0  0  0  0  0
  192.6590  175.6330  135.0610 C   0  0  1  0  0  3  0  0  0  0  0  0
  191.5460  176.3440  136.9450 C   0  0  1  0  0  3  0  0  0  0  0  0
  188.4480  173.8360  134.7900 N   0  0  0  0  0  2  0  0  0  0  0  0
  187.2740  173.6400  136.8750 C   0  0  1  0  0  3  0  0  0  0  0  0
  185.9400  173.7460  137.2700 O   0  0  0  0  0  1  0  0  0  0  0  0
  189.4380  174.9070  136.8480 C   0  0  2  0  0  3  0  0  0  0  0  0
  188.6510  175.0650  135.5510 C   0  0  2  0  0  0  0  0  0  0  0  0
  187.3390  173.1510  135.4400 C   0  0  2  0  0  3  0  0  0  0  0  0
  187.9090  175.0110  136.8610 C   0  0  1  0  0  3  0  0  0  0  0  0
  186.3700  170.8300  135.2790 N   0  0  0  0  0  1  0  0  0  0  0  0
  188.6510  171.1460  135.5270 O   0  0  0  0  0  0  0  0  0  0  0  0
  187.5150  171.6680  135.3920 C   0  0  0  0  0  0  0  0  0  0  0  0
  188.5530  176.3990  134.8110 C   0  0  0  0  0  2  0  0  0  0  0  0
  186.2120  176.0110  134.5940 O   0  0  0  0  0  0  0  0  0  0  0  0
  187.1370  176.8550  134.6950 C   0  0  0  0  0  0  0  0  0  0  0  0
  186.8400  178.2120  134.6720 O   0  0  0  0  0  1  0  0  0  0  0  0
  188.3140  178.3270  141.6400 C   0  0  0  0  0  2  0  0  0  0  0  0
  190.0640  178.0900  144.8200 C   0  0  0  0  0  2  0  0  0  0  0  0
  188.5220  178.0990  143.1320 C   0  0  1  0  0  3  0  0  0  0  0  0
  188.6780  176.3350  143.5010 S   0  0  0  0  0  0  0  0  0  0  0  0
  189.9770  176.6530  144.6600 N   0  0  0  0  0  2  0  0  0  0  0  0
  189.7490  178.7470  143.5690 N   0  0  0  0  0  2  0  0  0  0  0  0
  1  6  1  6  0  0  0
  1  3  1  0  0  0  0
  2  4  1  0  0  0  0
  3 50  1  6  0  0  0
  4  3  1  0  0  0  0
  5 27  1  6  0  0  0
  5  1  1  0  0  0  0
  5  2  1  0  0  0  0
  6  7  1  6  0  0  0
  8  6  1  0  0  0  0
  9 22  1  0  0  0  0
  9 10  1  1  0  0  0
 10 13  1  0  0  0  0
 11 23  1  6  0  0  0
 11 14  1  0  0  0  0
 13 16  2  0  0  0  0
 14 19  1  0  0  0  0
 14 12  1  1  0  0  0
 15 18  1  0  0  0  0
 15 17  1  0  0  0  0
 17 20  1  6  0  0  0
 17 22  1  0  0  0  0
 18  8  1  6  0  0  0
 18  9  1  0  0  0  0
 20 11  1  0  0  0  0
 21 19  1  1  0  0  0
 21 13  1  0  0  0  0
 22 21  1  0  0  0  0
 24 25  2  0  0  0  0
 26 23  1  0  0  0  0
 26 24  2  0  0  0  0
 28 33  2  0  0  0  0
 29 30  1  0  0  0  0
 31 35  1  0  0  0  0
 32 34  1  0  0  0  0
 33 29  1  0  0  0  0
 34 31  1  0  0  0  0
 34 33  1  0  0  0  0
 35 27  1  0  0  0  0
 35 29  1  0  0  0  0
 36 41  1  0  0  0  0
 36 40  1  0  0  0  0
 37 38  1  0  0  0  0
 39 42  1  0  0  0  0
 39 27  1  0  0  0  0
 40 39  1  0  0  0  0
 40 42  1  0  0  0  0
 41 37  1  0  0  0  0
 42 37  1  0  0  0  0
 43 45  1  0  0  0  0
 45 41  1  0  0  0  0
 45 44  2  0  0  0  0
 46 40  1  0  0  0  0
 47 48  2  0  0  0  0
 48 46  1  0  0  0  0
 49 48  1  0  0  0  0
 50 52  1  0  0  0  0
 52 53  1  0  0  0  0
 52 55  1  0  0  0  0
 53 54  1  0  0  0  0
 54 51  1  0  0  0  0
 55 51  1  0  0  0  0
M  END
>  <MODEL>
2

>  <REMARK>
 VINA RESULT:      -6.3      3.334      8.483
  Name = 
  13 active torsions:
  status: ('A' for Active; 'I' for Inactive)
    1  A    between atoms: C_5  and  O_28
    2  A    between atoms: C_8  and  C_26
    3  A    between atoms: C_16  and  C_47
    4  A    between atoms: C_19  and  C_34
    5  A    between atoms: C_19  and  C_35
    6  A    between atoms: C_19  and  C_52
    7  A    between atoms: C_21  and  C_23
    8  A    between atoms: C_22  and  C_23
    9  A    between atoms: C_26  and  C_44
   10  A    between atoms: O_28  and  C_32
   11  A    between atoms: C_29  and  C_44
   12  A    between atoms: C_38  and  C_47
   13  A    between atoms: C_42  and  C_48
                            x       y       z     vdW  Elec       q    Type
                         _______ _______ _______ _____ _____    ______ ____

>  <TORSDO>
F 13

$$$$
=
 OpenBabel11062412143D

 55 62  0  0  1  0  0  0  0  0999 V2000
  184.9300  175.7990  137.1020 C   0  0  2  0  0  3  0  0  0  0  0  0
  182.9400  174.7310  136.3060 O   0  0  0  0  0  0  0  0  0  0  0  0
  185.3150  174.5770  136.3100 C   0  0  1  0  0  3  0  0  0  0  0  0
  184.0370  174.1850  135.6050 C   0  0  0  0  0  2  0  0  0  0  0  0
  183.4870  175.4230  137.4000 C   0  0  2  0  0  3  0  0  0  0  0  0
  185.1380  177.1100  136.3070 C   0  0  1  0  0  3  0  0  0  0  0  0
  183.9970  177.5200  135.6160 O   0  0  0  0  0  1  0  0  0  0  0  0
  185.6720  178.2190  137.1940 C   0  0  0  0  0  2  0  0  0  0  0  0
  187.7220  177.1240  138.0760 C   0  0  1  0  0  3  0  0  0  0  0  0
  187.9640  177.5910  139.3990 O   0  0  0  0  0  0  0  0  0  0  0  0
  191.2570  175.5500  136.1200 C   0  0  1  0  0  3  0  0  0  0  0  0
  193.2710  175.6390  137.4660 O   0  0  0  0  0  1  0  0  0  0  0  0
  189.3190  177.5610  139.6870 C   0  0  0  0  0  0  0  0  0  0  0  0
  192.0420  176.2670  137.2520 C   0  0  2  0  0  3  0  0  0  0  0  0
  187.7690  177.7880  135.4700 S   0  0  0  0  0  0  0  0  0  0  0  0
  189.7920  177.8400  140.8220 O   0  0  0  0  0  0  0  0  0  0  0  0
  189.3670  177.3540  136.2130 C   0  0  2  0  0  3  0  0  0  0  0  0
  187.1870  178.2030  137.1490 C   0  0  1  0  0  3  0  0  0  0  0  0
  191.2710  176.3020  138.5880 C   0  0  0  0  0  2  0  0  0  0  0  0
  190.2600  176.4610  135.3440 C   0  0  0  0  0  2  0  0  0  0  0  0
  190.1260  177.2900  138.4810 C   0  0  1  0  0  3  0  0  0  0  0  0
  189.0920  176.7190  137.5440 C   0  0  1  0  0  3  0  0  0  0  0  0
  192.1560  174.9400  135.1970 O   0  0  0  0  0  0  0  0  0  0  0  0
  192.5050  172.6390  135.4200 C   0  0  0  0  0  0  0  0  0  0  0  0
  193.0130  171.6980  136.0480 O   0  0  0  0  0  0  0  0  0  0  0  0
  191.9700  173.6300  134.7610 C   0  0  0  0  0  3  0  0  0  0  0  0
  182.5250  176.4310  138.0640 C   0  0  1  0  0  3  0  0  0  0  0  0
  179.3570  174.0460  135.6580 O   0  0  0  0  0  0  0  0  0  0  0  0
  180.4830  175.8640  136.6710 C   0  0  2  0  0  3  0  0  0  0  0  0
  179.4090  176.8340  136.5770 N   0  0  0  0  0  1  0  0  0  0  0  0
  181.0370  174.6070  138.6630 O   0  0  0  0  0  0  0  0  0  0  0  0
  179.0940  173.4020  138.5000 O   0  0  0  0  0  1  0  0  0  0  0  0
  179.9480  174.5120  136.6190 C   0  0  0  0  0  0  0  0  0  0  0  0
  180.2700  173.7590  137.8370 C   0  0  1  0  0  3  0  0  0  0  0  0
  181.0820  175.8980  138.0700 C   0  0  1  0  0  3  0  0  0  0  0  0
  182.2390  178.2300  141.4540 N   0  0  0  0  0  2  0  0  0  0  0  0
  184.4450  178.5890  140.5760 C   0  0  1  0  0  3  0  0  0  0  0  0
  185.2320  179.7110  140.3120 O   0  0  0  0  0  1  0  0  0  0  0  0
  182.9870  176.8840  139.4560 C   0  0  2  0  0  3  0  0  0  0  0  0
  182.1920  178.0650  140.0040 C   0  0  2  0  0  0  0  0  0  0  0  0
  183.5080  178.8900  141.7320 C   0  0  2  0  0  3  0  0  0  0  0  0
  183.5480  178.3090  139.3940 C   0  0  1  0  0  3  0  0  0  0  0  0
  183.3960  178.6720  144.2400 N   0  0  0  0  0  1  0  0  0  0  0  0
  185.2230  177.8720  143.0620 O   0  0  0  0  0  0  0  0  0  0  0  0
  184.0910  178.4190  143.0240 C   0  0  0  0  0  0  0  0  0  0  0  0
  181.0220  178.6870  139.2420 C   0  0  0  0  0  2  0  0  0  0  0  0
  181.3550  181.0270  138.9310 O   0  0  0  0  0  0  0  0  0  0  0  0
  180.8270  180.1180  139.6190 C   0  0  0  0  0  0  0  0  0  0  0  0
  180.0820  180.4490  140.7440 O   0  0  0  0  0  1  0  0  0  0  0  0
  186.5010  174.7350  135.3620 C   0  0  0  0  0  2  0  0  0  0  0  0
  187.2030  171.1720  135.5510 C   0  0  0  0  0  2  0  0  0  0  0  0
  187.3020  173.4410  135.2950 C   0  0  1  0  0  3  0  0  0  0  0  0
  188.2450  173.1850  136.8160 S   0  0  0  0  0  0  0  0  0  0  0  0
  187.8600  171.4580  136.8090 N   0  0  0  0  0  2  0  0  0  0  0  0
  186.4040  172.3070  135.1400 N   0  0  0  0  0  2  0  0  0  0  0  0
  1  6  1  6  0  0  0
  1  5  1  0  0  0  0
  2  5  1  0  0  0  0
  3 50  1  6  0  0  0
  3  1  1  0  0  0  0
  4  2  1  0  0  0  0
  4  3  1  0  0  0  0
  5 27  1  6  0  0  0
  6  7  1  1  0  0  0
  6  8  1  0  0  0  0
  9 10  1  1  0  0  0
 10 13  1  0  0  0  0
 11 23  1  6  0  0  0
 11 14  1  0  0  0  0
 13 16  2  0  0  0  0
 14 12  1  1  0  0  0
 14 19  1  0  0  0  0
 15 17  1  0  0  0  0
 15 18  1  0  0  0  0
 17 20  1  6  0  0  0
 17 22  1  0  0  0  0
 18  8  1  6  0  0  0
 18  9  1  0  0  0  0
 20 11  1  0  0  0  0
 21 19  1  1  0  0  0
 21 13  1  0  0  0  0
 22  9  1  0  0  0  0
 22 21  1  0  0  0  0
 24 25  2  0  0  0  0
 26 23  1  0  0  0  0
 26 24  2  0  0  0  0
 27 35  1  0  0  0  0
 27 39  1  0  0  0  0
 28 33  2  0  0  0  0
 29 35  1  0  0  0  0
 30 29  1  0  0  0  0
 33 29  1  0  0  0  0
 33 34  1  0  0  0  0
 34 32  1  0  0  0  0
 34 31  1  0  0  0  0
 35 31  1  0  0  0  0
 36 41  1  0  0  0  0
 37 41  1  0  0  0  0
 38 37  1  0  0  0  0
 39 40  1  0  0  0  0
 40 36  1  0  0  0  0
 41 45  1  0  0  0  0
 42 39  1  0  0  0  0
 42 40  1  0  0  0  0
 42 37  1  0  0  0  0
 45 44  2  0  0  0  0
 45 43  1  0  0  0  0
 46 48  1  0  0  0  0
 46 40  1  0  0  0  0
 47 48  2  0  0  0  0
 48 49  1  0  0  0  0
 51 54  1  0  0  0  0
 52 50  1  0  0  0  0
 52 53  1  0  0  0  0
 54 53  1  0  0  0  0
 55 52  1  0  0  0  0
 55 51  1  0  0  0  0
M  END
>  <MODEL>
3

>  <REMARK>
 VINA RESULT:      -5.6      3.186      6.428
  Name = 
  13 active torsions:
  status: ('A' for Active; 'I' for Inactive)
    1  A    between atoms: C_5  and  O_28
    2  A    between atoms: C_8  and  C_26
    3  A    between atoms: C_16  and  C_47
    4  A    between atoms: C_19  and  C_34
    5  A    between atoms: C_19  and  C_35
    6  A    between atoms: C_19  and  C_52
    7  A    between atoms: C_21  and  C_23
    8  A    between atoms: C_22  and  C_23
    9  A    between atoms: C_26  and  C_44
   10  A    between atoms: O_28  and  C_32
   11  A    between atoms: C_29  and  C_44
   12  A    between atoms: C_38  and  C_47
   13  A    between atoms: C_42  and  C_48
                            x       y       z     vdW  Elec       q    Type
                         _______ _______ _______ _____ _____    ______ ____

>  <TORSDO>
F 13

$$$$
=
 OpenBabel11062412143D

 55 62  0  0  1  0  0  0  0  0999 V2000
  186.2350  177.2570  137.3500 C   0  0  2  0  0  3  0  0  0  0  0  0
  185.8840  177.7830  135.0400 O   0  0  0  0  0  0  0  0  0  0  0  0
  187.5480  177.6700  136.7370 C   0  0  1  0  0  3  0  0  0  0  0  0
  187.1550  178.2750  135.4100 C   0  0  0  0  0  2  0  0  0  0  0  0
  185.4950  176.9080  136.0680 C   0  0  2  0  0  3  0  0  0  0  0  0
  185.6050  178.3760  138.2120 C   0  0  1  0  0  3  0  0  0  0  0  0
  185.0370  179.3990  137.4530 O   0  0  0  0  0  1  0  0  0  0  0  0
  184.6120  177.8150  139.2110 C   0  0  0  0  0  2  0  0  0  0  0  0
  183.9430  177.8360  141.6050 C   0  0  1  0  0  3  0  0  0  0  0  0
  182.6640  178.4500  141.7230 O   0  0  0  0  0  0  0  0  0  0  0  0
  186.2490  177.9180  145.2760 C   0  0  1  0  0  3  0  0  0  0  0  0
  185.1360  179.0040  147.1360 O   0  0  0  0  0  1  0  0  0  0  0  0
  182.5260  179.0590  142.9600 C   0  0  0  0  0  0  0  0  0  0  0  0
  185.2250  178.9880  145.7420 C   0  0  2  0  0  3  0  0  0  0  0  0
  186.5500  178.2730  141.1070 S   0  0  0  0  0  0  0  0  0  0  0  0
  181.4560  179.5990  143.3510 O   0  0  0  0  0  0  0  0  0  0  0  0
  185.9810  178.6640  142.7850 C   0  0  2  0  0  3  0  0  0  0  0  0
  184.8250  178.4880  140.5530 C   0  0  1  0  0  3  0  0  0  0  0  0
  183.8120  178.7570  145.1650 C   0  0  0  0  0  2  0  0  0  0  0  0
  186.9270  178.2200  143.9070 C   0  0  0  0  0  2  0  0  0  0  0  0
  183.8100  179.1060  143.6890 C   0  0  1  0  0  3  0  0  0  0  0  0
  184.6160  178.0650  142.9530 C   0  0  1  0  0  3  0  0  0  0  0  0
  187.2550  177.7240  146.2680 O   0  0  0  0  0  0  0  0  0  0  0  0
  189.4790  177.1790  146.7390 C   0  0  0  0  0  0  0  0  0  0  0  0
  190.3050  176.6530  147.5000 O   0  0  0  0  0  0  0  0  0  0  0  0
  188.6080  177.7310  145.9390 C   0  0  0  0  0  3  0  0  0  0  0  0
  183.9880  176.5750  136.0870 C   0  0  1  0  0  3  0  0  0  0  0  0
  185.5530  172.2820  135.2920 O   0  0  0  0  0  0  0  0  0  0  0  0
  184.1830  174.2100  135.1950 C   0  0  2  0  0  3  0  0  0  0  0  0
  183.0180  173.5900  134.5950 N   0  0  0  0  0  1  0  0  0  0  0  0
  184.4320  174.6900  137.5530 O   0  0  0  0  0  0  0  0  0  0  0  0
  184.5700  172.4550  138.0420 O   0  0  0  0  0  1  0  0  0  0  0  0
  185.0000  173.2090  135.8630 C   0  0  0  0  0  0  0  0  0  0  0  0
  185.1330  173.4930  137.2970 C   0  0  1  0  0  3  0  0  0  0  0  0
  183.7530  175.0810  136.3670 C   0  0  1  0  0  3  0  0  0  0  0  0
  181.0670  177.5240  138.4070 N   0  0  0  0  0  2  0  0  0  0  0  0
  181.5650  179.3980  136.9920 C   0  0  1  0  0  3  0  0  0  0  0  0
  180.8270  180.2010  136.1210 O   0  0  0  0  0  1  0  0  0  0  0  0
  183.1780  177.4800  137.0280 C   0  0  2  0  0  3  0  0  0  0  0  0
  181.7320  177.0300  137.2040 C   0  0  2  0  0  0  0  0  0  0  0  0
  180.6600  178.8880  138.0980 C   0  0  2  0  0  3  0  0  0  0  0  0
  182.0420  178.1640  136.2620 C   0  0  1  0  0  3  0  0  0  0  0  0
  179.7490  179.6770  140.3120 N   0  0  0  0  0  1  0  0  0  0  0  0
  181.6520  180.6370  139.4040 O   0  0  0  0  0  0  0  0  0  0  0  0
  180.7490  179.7670  139.3040 C   0  0  0  0  0  0  0  0  0  0  0  0
  181.1790  175.7720  136.5370 C   0  0  0  0  0  2  0  0  0  0  0  0
  178.9310  175.5780  137.3060 O   0  0  0  0  0  1  0  0  0  0  0  0
  179.7000  175.8580  136.3530 C   0  0  0  0  0  0  0  0  0  0  0  0
  179.1690  176.2210  135.1210 O   0  0  0  0  0  0  0  0  0  0  0  0
  188.4250  178.5900  137.5820 C   0  0  0  0  0  2  0  0  0  0  0  0
  190.9670  175.9940  137.7270 C   0  0  0  0  0  2  0  0  0  0  0  0
  189.7820  177.9450  137.8350 C   0  0  1  0  0  3  0  0  0  0  0  0
  189.9790  177.5190  139.5820 S   0  0  0  0  0  0  0  0  0  0  0  0
  190.7470  175.9820  139.1590 N   0  0  0  0  0  2  0  0  0  0  0  0
  189.8990  176.7150  137.0680 N   0  0  0  0  0  2  0  0  0  0  0  0
  1  6  1  6  0  0  0
  2  4  1  0  0  0  0
  2  5  1  0  0  0  0
  3  1  1  0  0  0  0
  3 50  1  1  0  0  0
  4  3  1  0  0  0  0
  5 27  1  1  0  0  0
  5  1  1  0  0  0  0
  6  7  1  6  0  0  0
  6  8  1  0  0  0  0
  9 10  1  1  0  0  0
  9 22  1  0  0  0  0
 10 13  1  0  0  0  0
 11 14  1  0  0  0  0
 11 23  1  1  0  0  0
 13 16  2  0  0  0  0
 13 21  1  0  0  0  0
 14 12  1  1  0  0  0
 15 17  1  0  0  0  0
 17 22  1  0  0  0  0
 17 20  1  1  0  0  0
 18  8  1  6  0  0  0
 18 15  1  0  0  0  0
 18  9  1  0  0  0  0
 19 14  1  0  0  0  0
 20 11  1  0  0  0  0
 21 19  1  1  0  0  0
 22 21  1  0  0  0  0
 24 25  2  0  0  0  0
 26 23  1  0  0  0  0
 26 24  2  0  0  0  0
 27 35  1  0  0  0  0
 27 39  1  0  0  0  0
 28 33  2  0  0  0  0
 29 33  1  0  0  0  0
 29 35  1  0  0  0  0
 30 29  1  0  0  0  0
 33 34  1  0  0  0  0
 34 31  1  0  0  0  0
 34 32  1  0  0  0  0
 35 31  1  0  0  0  0
 37 41  1  0  0  0  0
 38 37  1  0  0  0  0
 39 40  1  0  0  0  0
 40 36  1  0  0  0  0
 41 36  1  0  0  0  0
 41 45  1  0  0  0  0
 42 37  1  0  0  0  0
 42 39  1  0  0  0  0
 42 40  1  0  0  0  0
 45 44  2  0  0  0  0
 45 43  1  0  0  0  0
 46 40  1  0  0  0  0
 48 46  1  0  0  0  0
 48 47  1  0  0  0  0
 49 48  2  0  0  0  0
 50 52  1  0  0  0  0
 51 54  1  0  0  0  0
 52 53  1  0  0  0  0
 54 53  1  0  0  0  0
 55 51  1  0  0  0  0
 55 52  1  0  0  0  0
M  END
>  <MODEL>
4

>  <REMARK>
 VINA RESULT:      -5.6      2.147      4.321
  Name = 
  13 active torsions:
  status: ('A' for Active; 'I' for Inactive)
    1  A    between atoms: C_5  and  O_28
    2  A    between atoms: C_8  and  C_26
    3  A    between atoms: C_16  and  C_47
    4  A    between atoms: C_19  and  C_34
    5  A    between atoms: C_19  and  C_35
    6  A    between atoms: C_19  and  C_52
    7  A    between atoms: C_21  and  C_23
    8  A    between atoms: C_22  and  C_23
    9  A    between atoms: C_26  and  C_44
   10  A    between atoms: O_28  and  C_32
   11  A    between atoms: C_29  and  C_44
   12  A    between atoms: C_38  and  C_47
   13  A    between atoms: C_42  and  C_48
                            x       y       z     vdW  Elec       q    Type
                         _______ _______ _______ _____ _____    ______ ____

>  <TORSDO>
F 13

$$$$
=
 OpenBabel11062412143D

 55 62  0  0  1  0  0  0  0  0999 V2000
  186.1790  177.5900  138.5110 C   0  0  2  0  0  3  0  0  0  0  0  0
  185.9500  178.2200  136.2120 O   0  0  0  0  0  0  0  0  0  0  0  0
  187.5470  177.8490  137.9360 C   0  0  1  0  0  3  0  0  0  0  0  0
  187.2640  178.5360  136.6210 C   0  0  0  0  0  2  0  0  0  0  0  0
  185.4290  177.3730  137.2050 C   0  0  2  0  0  3  0  0  0  0  0  0
  185.6760  178.7560  139.3940 C   0  0  1  0  0  3  0  0  0  0  0  0
  184.9260  179.6970  138.6880 O   0  0  0  0  0  1  0  0  0  0  0  0
  184.9200  178.2480  140.6070 C   0  0  0  0  0  2  0  0  0  0  0  0
  185.2550  177.7460  143.0180 C   0  0  1  0  0  3  0  0  0  0  0  0
  184.1560  178.2670  143.7570 O   0  0  0  0  0  0  0  0  0  0  0  0
  188.8290  177.1680  145.4050 C   0  0  1  0  0  3  0  0  0  0  0  0
  188.5920  177.7990  147.7340 O   0  0  0  0  0  1  0  0  0  0  0  0
  184.5460  178.6020  145.0440 C   0  0  0  0  0  0  0  0  0  0  0  0
  188.1200  178.0740  146.4480 C   0  0  2  0  0  3  0  0  0  0  0  0
  187.4680  178.3880  141.6290 S   0  0  0  0  0  0  0  0  0  0  0  0
  183.7430  179.0020  145.9290 O   0  0  0  0  0  0  0  0  0  0  0  0
  187.6280  178.4000  143.4370 C   0  0  2  0  0  3  0  0  0  0  0  0
  185.6750  178.6390  141.8610 C   0  0  1  0  0  3  0  0  0  0  0  0
  186.5860  177.9070  146.4450 C   0  0  0  0  0  2  0  0  0  0  0  0
  188.9210  177.7760  143.9740 C   0  0  0  0  0  2  0  0  0  0  0  0
  186.0140  178.5520  145.1970 C   0  0  1  0  0  3  0  0  0  0  0  0
  186.4170  177.7210  144.0050 C   0  0  1  0  0  3  0  0  0  0  0  0
  190.1360  176.8180  145.8540 O   0  0  0  0  0  0  0  0  0  0  0  0
  191.6870  175.6600  144.5430 C   0  0  0  0  0  0  0  0  0  0  0  0
  192.1280  174.5790  144.1260 O   0  0  0  0  0  0  0  0  0  0  0  0
  191.2210  176.7980  144.9810 C   0  0  0  0  0  3  0  0  0  0  0  0
  183.8930  177.2350  137.1850 C   0  0  1  0  0  3  0  0  0  0  0  0
  185.0290  173.3160  134.9790 O   0  0  0  0  0  0  0  0  0  0  0  0
  183.8960  175.3230  135.5200 C   0  0  2  0  0  3  0  0  0  0  0  0
  182.7230  175.1120  134.6950 N   0  0  0  0  0  1  0  0  0  0  0  0
  184.0000  174.9170  137.9030 O   0  0  0  0  0  0  0  0  0  0  0  0
  183.8460  172.6540  137.5720 O   0  0  0  0  0  1  0  0  0  0  0  0
  184.5380  174.0530  135.8200 C   0  0  0  0  0  0  0  0  0  0  0  0
  184.5820  173.8000  137.2660 C   0  0  1  0  0  3  0  0  0  0  0  0
  183.4700  175.7820  136.9070 C   0  0  1  0  0  3  0  0  0  0  0  0
  181.1440  177.5770  139.8580 N   0  0  0  0  0  2  0  0  0  0  0  0
  181.8540  179.7740  139.1990 C   0  0  1  0  0  3  0  0  0  0  0  0
  181.2110  180.9190  138.7270 O   0  0  0  0  0  1  0  0  0  0  0  0
  183.2150  177.8110  138.4380 C   0  0  2  0  0  3  0  0  0  0  0  0
  181.7260  177.4930  138.5210 C   0  0  2  0  0  0  0  0  0  0  0  0
  180.9070  178.9950  140.0930 C   0  0  2  0  0  3  0  0  0  0  0  0
  182.1630  178.8530  138.0420 C   0  0  1  0  0  3  0  0  0  0  0  0
  180.4130  180.4470  142.0930 N   0  0  0  0  0  1  0  0  0  0  0  0
  181.9730  178.7390  142.2250 O   0  0  0  0  0  0  0  0  0  0  0  0
  181.1210  179.3480  141.5290 C   0  0  0  0  0  0  0  0  0  0  0  0
  181.0110  176.6410  137.4730 C   0  0  0  0  0  2  0  0  0  0  0  0
  178.9320  175.5540  137.8950 O   0  0  0  0  0  0  0  0  0  0  0  0
  180.1700  175.5860  138.1090 C   0  0  0  0  0  0  0  0  0  0  0  0
  180.7470  174.6520  138.9610 O   0  0  0  0  0  1  0  0  0  0  0  0
  188.5130  178.6270  138.8260 C   0  0  0  0  0  2  0  0  0  0  0  0
  191.1690  176.2880  137.9870 C   0  0  0  0  0  2  0  0  0  0  0  0
  189.9270  178.0770  138.6810 C   0  0  1  0  0  3  0  0  0  0  0  0
  190.5160  177.3890  140.2460 S   0  0  0  0  0  0  0  0  0  0  0  0
  191.2600  176.0200  139.4080 N   0  0  0  0  0  2  0  0  0  0  0  0
  189.9460  177.0060  137.6970 N   0  0  0  0  0  2  0  0  0  0  0  0
  1  6  1  6  0  0  0
  2  4  1  0  0  0  0
  2  5  1  0  0  0  0
  3  1  1  0  0  0  0
  3 50  1  1  0  0  0
  4  3  1  0  0  0  0
  5 27  1  1  0  0  0
  5  1  1  0  0  0  0
  6  7  1  6  0  0  0
  6  8  1  0  0  0  0
  9 10  1  1  0  0  0
  9 22  1  0  0  0  0
 10 13  1  0  0  0  0
 11 23  1  1  0  0  0
 11 14  1  0  0  0  0
 13 21  1  0  0  0  0
 13 16  2  0  0  0  0
 14 12  1  1  0  0  0
 15 18  1  0  0  0  0
 15 17  1  0  0  0  0
 17 20  1  6  0  0  0
 17 22  1  0  0  0  0
 18  8  1  6  0  0  0
 18  9  1  0  0  0  0
 19 14  1  0  0  0  0
 20 11  1  0  0  0  0
 21 19  1  1  0  0  0
 22 21  1  0  0  0  0
 24 26  2  0  0  0  0
 25 24  2  0  0  0  0
 26 23  1  0  0  0  0
 27 39  1  0  0  0  0
 28 33  2  0  0  0  0
 29 33  1  0  0  0  0
 29 35  1  0  0  0  0
 30 29  1  0  0  0  0
 33 34  1  0  0  0  0
 34 32  1  0  0  0  0
 34 31  1  0  0  0  0
 35 27  1  0  0  0  0
 35 31  1  0  0  0  0
 36 41  1  0  0  0  0
 37 41  1  0  0  0  0
 38 37  1  0  0  0  0
 39 40  1  0  0  0  0
 40 36  1  0  0  0  0
 41 45  1  0  0  0  0
 42 39  1  0  0  0  0
 42 40  1  0  0  0  0
 42 37  1  0  0  0  0
 45 43  1  0  0  0  0
 45 44  2  0  0  0  0
 46 48  1  0  0  0  0
 46 40  1  0  0  0  0
 47 48  2  0  0  0  0
 48 49  1  0  0  0  0
 51 54  1  0  0  0  0
 52 50  1  0  0  0  0
 52 53  1  0  0  0  0
 54 53  1  0  0  0  0
 55 51  1  0  0  0  0
 55 52  1  0  0  0  0
M  END
>  <MODEL>
5

>  <REMARK>
 VINA RESULT:      -5.4      2.034      4.009
  Name = 
  13 active torsions:
  status: ('A' for Active; 'I' for Inactive)
    1  A    between atoms: C_5  and  O_28
    2  A    between atoms: C_8  and  C_26
    3  A    between atoms: C_16  and  C_47
    4  A    between atoms: C_19  and  C_34
    5  A    between atoms: C_19  and  C_35
    6  A    between atoms: C_19  and  C_52
    7  A    between atoms: C_21  and  C_23
    8  A    between atoms: C_22  and  C_23
    9  A    between atoms: C_26  and  C_44
   10  A    between atoms: O_28  and  C_32
   11  A    between atoms: C_29  and  C_44
   12  A    between atoms: C_38  and  C_47
   13  A    between atoms: C_42  and  C_48
                            x       y       z     vdW  Elec       q    Type
                         _______ _______ _______ _____ _____    ______ ____

>  <TORSDO>
F 13

$$$$
=
 OpenBabel11062412143D

 55 62  0  0  1  0  0  0  0  0999 V2000
  184.1380  178.5560  139.2460 C   0  0  2  0  0  3  0  0  0  0  0  0
  183.7520  176.2490  138.7290 O   0  0  0  0  0  0  0  0  0  0  0  0
  182.9250  178.0820  140.0020 C   0  0  1  0  0  3  0  0  0  0  0  0
  182.9720  176.5790  139.8600 C   0  0  0  0  0  2  0  0  0  0  0  0
  184.1690  177.4730  138.1780 C   0  0  2  0  0  3  0  0  0  0  0  0
  185.3940  178.6560  140.1440 C   0  0  1  0  0  3  0  0  0  0  0  0
  185.5870  179.9300  140.6790 O   0  0  0  0  0  1  0  0  0  0  0  0
  185.3850  177.5990  141.2320 C   0  0  0  0  0  2  0  0  0  0  0  0
  185.4650  177.4890  143.7140 C   0  0  1  0  0  3  0  0  0  0  0  0
  184.3290  178.1630  144.2440 O   0  0  0  0  0  0  0  0  0  0  0  0
  188.7630  177.1880  146.5130 C   0  0  1  0  0  3  0  0  0  0  0  0
  188.3390  178.2010  148.6750 O   0  0  0  0  0  1  0  0  0  0  0  0
  184.6120  178.6910  145.4940 C   0  0  0  0  0  0  0  0  0  0  0  0
  188.0050  178.2780  147.3200 C   0  0  2  0  0  3  0  0  0  0  0  0
  187.8290  177.8160  142.4720 S   0  0  0  0  0  0  0  0  0  0  0  0
  183.7500  179.2590  146.2170 O   0  0  0  0  0  0  0  0  0  0  0  0
  187.8180  178.1200  144.2610 C   0  0  2  0  0  3  0  0  0  0  0  0
  186.0380  178.1640  142.4780 C   0  0  1  0  0  3  0  0  0  0  0  0
  186.4720  178.1650  147.1880 C   0  0  0  0  0  2  0  0  0  0  0  0
  189.0200  177.5480  145.0200 C   0  0  0  0  0  2  0  0  0  0  0  0
  186.0540  178.6160  145.8010 C   0  0  1  0  0  3  0  0  0  0  0  0
  186.5250  177.5870  144.8050 C   0  0  1  0  0  3  0  0  0  0  0  0
  190.0020  176.8710  147.1440 O   0  0  0  0  0  0  0  0  0  0  0  0
  192.0840  175.9010  146.7080 C   0  0  0  0  0  0  0  0  0  0  0  0
  192.9340  175.0420  146.9850 O   0  0  0  0  0  0  0  0  0  0  0  0
  191.1880  176.8050  146.4170 C   0  0  0  0  0  3  0  0  0  0  0  0
  185.3530  177.3610  137.1960 C   0  0  1  0  0  3  0  0  0  0  0  0
  189.9880  177.4010  137.0130 O   0  0  0  0  0  0  0  0  0  0  0  0
  187.7910  176.9990  137.7950 C   0  0  2  0  0  3  0  0  0  0  0  0
  188.1310  176.6520  139.1610 N   0  0  0  0  0  1  0  0  0  0  0  0
  186.9780  179.1630  137.0790 O   0  0  0  0  0  0  0  0  0  0  0  0
  189.0190  180.1190  137.4950 O   0  0  0  0  0  1  0  0  0  0  0  0
  188.8490  177.7980  137.1970 C   0  0  0  0  0  0  0  0  0  0  0  0
  188.3560  179.1180  136.7820 C   0  0  1  0  0  3  0  0  0  0  0  0
  186.6280  177.9820  137.7900 C   0  0  1  0  0  3  0  0  0  0  0  0
  185.4440  174.5260  134.5940 N   0  0  0  0  0  2  0  0  0  0  0  0
  184.4980  173.6720  136.6280 C   0  0  1  0  0  3  0  0  0  0  0  0
  183.3180  173.0090  136.9660 O   0  0  0  0  0  1  0  0  0  0  0  0
  185.5840  175.9310  136.6830 C   0  0  2  0  0  3  0  0  0  0  0  0
  184.8950  175.6460  135.3530 C   0  0  2  0  0  0  0  0  0  0  0  0
  184.8810  173.3280  135.2010 C   0  0  2  0  0  3  0  0  0  0  0  0
  184.2580  175.1640  136.6310 C   0  0  1  0  0  3  0  0  0  0  0  0
  185.3920  170.8650  135.3610 N   0  0  0  0  0  1  0  0  0  0  0  0
  187.0920  172.4100  135.0610 O   0  0  0  0  0  0  0  0  0  0  0  0
  185.8570  172.1970  135.1720 C   0  0  0  0  0  0  0  0  0  0  0  0
  184.0980  176.7100  134.5990 C   0  0  0  0  0  2  0  0  0  0  0  0
  181.9680  175.6410  134.5940 O   0  0  0  0  0  0  0  0  0  0  0  0
  182.6460  176.6430  134.9350 C   0  0  0  0  0  0  0  0  0  0  0  0
  182.0330  177.6970  135.6010 O   0  0  0  0  0  1  0  0  0  0  0  0
  182.8120  178.5450  141.4520 C   0  0  0  0  0  2  0  0  0  0  0  0
  179.5190  180.0750  141.6550 C   0  0  0  0  0  2  0  0  0  0  0  0
  181.3490  178.7190  141.8410 C   0  0  1  0  0  3  0  0  0  0  0  0
  181.2000  179.3950  143.5120 S   0  0  0  0  0  0  0  0  0  0  0  0
  179.8750  180.4520  143.0070 N   0  0  0  0  0  2  0  0  0  0  0  0
  180.7000  179.6500  140.9330 N   0  0  0  0  0  2  0  0  0  0  0  0
  1  3  1  0  0  0  0
  1  6  1  1  0  0  0
  2  4  1  0  0  0  0
  3 50  1  1  0  0  0
  4  3  1  0  0  0  0
  5 27  1  1  0  0  0
  5  2  1  0  0  0  0
  5  1  1  0  0  0  0
  6  7  1  1  0  0  0
  6  8  1  0  0  0  0
  9 10  1  1  0  0  0
  9 22  1  0  0  0  0
 10 13  1  0  0  0  0
 11 23  1  1  0  0  0
 11 14  1  0  0  0  0
 13 21  1  0  0  0  0
 13 16  2  0  0  0  0
 14 12  1  1  0  0  0
 15 18  1  0  0  0  0
 15 17  1  0  0  0  0
 17 22  1  0  0  0  0
 17 20  1  1  0  0  0
 18  8  1  6  0  0  0
 18  9  1  0  0  0  0
 19 14  1  0  0  0  0
 20 11  1  0  0  0  0
 21 19  1  1  0  0  0
 22 21  1  0  0  0  0
 24 25  2  0  0  0  0
 26 24  2  0  0  0  0
 26 23  1  0  0  0  0
 27 35  1  0  0  0  0
 28 33  2  0  0  0  0
 29 30  1  0  0  0  0
 31 35  1  0  0  0  0
 33 29  1  0  0  0  0
 34 31  1  0  0  0  0
 34 33  1  0  0  0  0
 34 32  1  0  0  0  0
 35 29  1  0  0  0  0
 36 41  1  0  0  0  0
 36 40  1  0  0  0  0
 37 42  1  0  0  0  0
 37 38  1  0  0  0  0
 39 27  1  0  0  0  0
 40 42  1  0  0  0  0
 40 39  1  0  0  0  0
 41 37  1  0  0  0  0
 42 39  1  0  0  0  0
 44 45  2  0  0  0  0
 45 41  1  0  0  0  0
 45 43  1  0  0  0  0
 46 48  1  0  0  0  0
 46 40  1  0  0  0  0
 47 48  2  0  0  0  0
 48 49  1  0  0  0  0
 50 52  1  0  0  0  0
 51 54  1  0  0  0  0
 52 53  1  0  0  0  0
 54 53  1  0  0  0  0
 55 51  1  0  0  0  0
 55 52  1  0  0  0  0
M  END
>  <MODEL>
6

>  <REMARK>
 VINA RESULT:      -5.2      2.937      5.646
  Name = 
  13 active torsions:
  status: ('A' for Active; 'I' for Inactive)
    1  A    between atoms: C_5  and  O_28
    2  A    between atoms: C_8  and  C_26
    3  A    between atoms: C_16  and  C_47
    4  A    between atoms: C_19  and  C_34
    5  A    between atoms: C_19  and  C_35
    6  A    between atoms: C_19  and  C_52
    7  A    between atoms: C_21  and  C_23
    8  A    between atoms: C_22  and  C_23
    9  A    between atoms: C_26  and  C_44
   10  A    between atoms: O_28  and  C_32
   11  A    between atoms: C_29  and  C_44
   12  A    between atoms: C_38  and  C_47
   13  A    between atoms: C_42  and  C_48
                            x       y       z     vdW  Elec       q    Type
                         _______ _______ _______ _____ _____    ______ ____

>  <TORSDO>
F 13

$$$$
=
 OpenBabel11062412143D

 55 62  0  0  1  0  0  0  0  0999 V2000
  188.8180  176.9070  140.2900 C   0  0  2  0  0  3  0  0  0  0  0  0
  191.1800  176.9950  139.9020 O   0  0  0  0  0  0  0  0  0  0  0  0
  189.5350  176.8240  141.6130 C   0  0  1  0  0  3  0  0  0  0  0  0
  190.9570  177.2090  141.2790 C   0  0  0  0  0  2  0  0  0  0  0  0
  189.9710  176.4930  139.3890 C   0  0  2  0  0  3  0  0  0  0  0  0
  188.2220  178.3100  140.0260 C   0  0  1  0  0  3  0  0  0  0  0  0
  189.1370  179.1960  139.4560 O   0  0  0  0  0  1  0  0  0  0  0  0
  186.9510  178.2270  139.2030 C   0  0  0  0  0  2  0  0  0  0  0  0
  185.6110  178.9800  141.1560 C   0  0  1  0  0  3  0  0  0  0  0  0
  186.3580  178.7490  142.3460 O   0  0  0  0  0  0  0  0  0  0  0  0
  181.3370  179.2690  141.8220 C   0  0  1  0  0  3  0  0  0  0  0  0
  180.6610  178.9980  144.1350 O   0  0  0  0  0  1  0  0  0  0  0  0
  185.5100  178.5270  143.4200 C   0  0  0  0  0  0  0  0  0  0  0  0
  181.6420  178.6380  143.2080 C   0  0  2  0  0  3  0  0  0  0  0  0
  184.2350  177.8050  139.1660 S   0  0  0  0  0  0  0  0  0  0  0  0
  185.9160  178.3840  144.6050 O   0  0  0  0  0  0  0  0  0  0  0  0
  183.3520  178.0040  140.7390 C   0  0  2  0  0  3  0  0  0  0  0  0
  185.7910  177.8860  140.1160 C   0  0  1  0  0  3  0  0  0  0  0  0
  183.0190  179.0540  143.7670 C   0  0  0  0  0  2  0  0  0  0  0  0
  181.8980  178.4720  140.6070 C   0  0  0  0  0  2  0  0  0  0  0  0
  184.1110  178.3530  142.9810 C   0  0  1  0  0  3  0  0  0  0  0  0
  184.1520  178.9420  141.5940 C   0  0  1  0  0  3  0  0  0  0  0  0
  179.9330  179.4560  141.6570 O   0  0  0  0  0  0  0  0  0  0  0  0
  179.2010  180.2370  139.5780 C   0  0  0  0  0  0  0  0  0  0  0  0
  178.9860  180.0170  138.3770 O   0  0  0  0  0  0  0  0  0  0  0  0
  179.4270  180.4670  140.8430 C   0  0  0  0  0  3  0  0  0  0  0  0
  189.8470  176.5730  137.8530 C   0  0  1  0  0  3  0  0  0  0  0  0
  193.8380  174.5250  136.6760 O   0  0  0  0  0  0  0  0  0  0  0  0
  192.2920  175.9030  137.8220 C   0  0  2  0  0  3  0  0  0  0  0  0
  193.2530  176.7280  138.5260 N   0  0  0  0  0  1  0  0  0  0  0  0
  191.1380  176.5500  135.7960 O   0  0  0  0  0  0  0  0  0  0  0  0
  193.0860  176.4370  134.5940 O   0  0  0  0  0  1  0  0  0  0  0  0
  192.9040  175.3100  136.6430 C   0  0  0  0  0  0  0  0  0  0  0  0
  192.2130  175.7200  135.4140 C   0  0  1  0  0  3  0  0  0  0  0  0
  191.2210  176.7850  137.1950 C   0  0  1  0  0  3  0  0  0  0  0  0
  188.0010  174.6180  135.0990 N   0  0  0  0  0  2  0  0  0  0  0  0
  186.7950  174.3680  137.1590 C   0  0  1  0  0  3  0  0  0  0  0  0
  185.4760  174.5840  137.5640 O   0  0  0  0  0  1  0  0  0  0  0  0
  189.0830  175.3880  137.2430 C   0  0  2  0  0  3  0  0  0  0  0  0
  188.3300  175.7460  135.9660 C   0  0  2  0  0  0  0  0  0  0  0  0
  186.8180  174.0040  135.6860 C   0  0  2  0  0  3  0  0  0  0  0  0
  187.5750  175.6570  137.2670 C   0  0  1  0  0  3  0  0  0  0  0  0
  188.0640  171.8570  135.2460 N   0  0  0  0  0  1  0  0  0  0  0  0
  185.7620  171.8590  135.5060 O   0  0  0  0  0  0  0  0  0  0  0  0
  186.8320  172.5210  135.5070 C   0  0  0  0  0  0  0  0  0  0  0  0
  188.3850  177.1420  135.3480 C   0  0  0  0  0  2  0  0  0  0  0  0
  186.0330  177.4810  135.1550 O   0  0  0  0  0  0  0  0  0  0  0  0
  187.1270  177.9030  135.6070 C   0  0  0  0  0  0  0  0  0  0  0  0
  187.1650  179.0910  136.3260 O   0  0  0  0  0  1  0  0  0  0  0  0
  188.9400  177.6470  142.7520 C   0  0  0  0  0  2  0  0  0  0  0  0
  191.3600  176.6230  145.2670 C   0  0  0  0  0  2  0  0  0  0  0  0
  189.9420  177.7750  143.8930 C   0  0  1  0  0  3  0  0  0  0  0  0
  189.0960  177.8750  145.4880 S   0  0  0  0  0  0  0  0  0  0  0  0
  190.3020  176.8180  146.2370 N   0  0  0  0  0  2  0  0  0  0  0  0
  190.8070  176.6060  143.9290 N   0  0  0  0  0  2  0  0  0  0  0  0
  1  6  1  6  0  0  0
  1  3  1  0  0  0  0
  2  4  1  0  0  0  0
  3 50  1  1  0  0  0
  4  3  1  0  0  0  0
  5 27  1  6  0  0  0
  5  2  1  0  0  0  0
  5  1  1  0  0  0  0
  6  7  1  6  0  0  0
  8  6  1  0  0  0  0
  9 22  1  0  0  0  0
  9 10  1  1  0  0  0
 10 13  1  0  0  0  0
 11 23  1  6  0  0  0
 11 14  1  0  0  0  0
 13 16  2  0  0  0  0
 14 19  1  0  0  0  0
 14 12  1  1  0  0  0
 15 18  1  0  0  0  0
 15 17  1  0  0  0  0
 17 20  1  6  0  0  0
 17 22  1  0  0  0  0
 18  8  1  6  0  0  0
 18  9  1  0  0  0  0
 20 11  1  0  0  0  0
 21 13  1  0  0  0  0
 21 19  1  1  0  0  0
 22 21  1  0  0  0  0
 24 26  2  0  0  0  0
 25 24  2  0  0  0  0
 26 23  1  0  0  0  0
 29 30  1  0  0  0  0
 31 35  1  0  0  0  0
 32 34  1  0  0  0  0
 33 28  2  0  0  0  0
 33 29  1  0  0  0  0
 34 31  1  0  0  0  0
 34 33  1  0  0  0  0
 35 29  1  0  0  0  0
 35 27  1  0  0  0  0
 36 41  1  0  0  0  0
 36 40  1  0  0  0  0
 37 42  1  0  0  0  0
 37 38  1  0  0  0  0
 39 42  1  0  0  0  0
 39 27  1  0  0  0  0
 40 39  1  0  0  0  0
 40 42  1  0  0  0  0
 41 37  1  0  0  0  0
 43 45  1  0  0  0  0
 44 45  2  0  0  0  0
 45 41  1  0  0  0  0
 46 48  1  0  0  0  0
 46 40  1  0  0  0  0
 47 48  2  0  0  0  0
 48 49  1  0  0  0  0
 50 52  1  0  0  0  0
 51 54  1  0  0  0  0
 52 55  1  0  0  0  0
 52 53  1  0  0  0  0
 53 54  1  0  0  0  0
 55 51  1  0  0  0  0
M  END
>  <MODEL>
7

>  <REMARK>
 VINA RESULT:      -5.1      3.714      8.133
  Name = 
  13 active torsions:
  status: ('A' for Active; 'I' for Inactive)
    1  A    between atoms: C_5  and  O_28
    2  A    between atoms: C_8  and  C_26
    3  A    between atoms: C_16  and  C_47
    4  A    between atoms: C_19  and  C_34
    5  A    between atoms: C_19  and  C_35
    6  A    between atoms: C_19  and  C_52
    7  A    between atoms: C_21  and  C_23
    8  A    between atoms: C_22  and  C_23
    9  A    between atoms: C_26  and  C_44
   10  A    between atoms: O_28  and  C_32
   11  A    between atoms: C_29  and  C_44
   12  A    between atoms: C_38  and  C_47
   13  A    between atoms: C_42  and  C_48
                            x       y       z     vdW  Elec       q    Type
                         _______ _______ _______ _____ _____    ______ ____

>  <TORSDO>
F 13

$$$$
=
 OpenBabel11062412143D

 55 62  0  0  1  0  0  0  0  0999 V2000
  183.3750  177.9450  137.7150 C   0  0  2  0  0  3  0  0  0  0  0  0
  181.9250  176.1450  138.3390 O   0  0  0  0  0  0  0  0  0  0  0  0
  182.0050  178.5000  138.0060 C   0  0  1  0  0  3  0  0  0  0  0  0
  181.2890  177.3570  138.6860 C   0  0  0  0  0  2  0  0  0  0  0  0
  182.9800  176.4950  137.4810 C   0  0  2  0  0  3  0  0  0  0  0  0
  184.3740  178.1970  138.8690 C   0  0  1  0  0  3  0  0  0  0  0  0
  185.3370  179.1580  138.5620 O   0  0  0  0  0  1  0  0  0  0  0  0
  183.6560  178.5310  140.1620 C   0  0  0  0  0  2  0  0  0  0  0  0
  184.4760  177.8890  142.4190 C   0  0  1  0  0  3  0  0  0  0  0  0
  183.5900  178.4150  143.4010 O   0  0  0  0  0  0  0  0  0  0  0  0
  188.4440  177.0380  143.9460 C   0  0  1  0  0  3  0  0  0  0  0  0
  188.7470  177.5550  146.2950 O   0  0  0  0  0  1  0  0  0  0  0  0
  184.2650  178.6660  144.5850 C   0  0  0  0  0  0  0  0  0  0  0  0
  188.0250  177.9170  145.1560 C   0  0  2  0  0  3  0  0  0  0  0  0
  186.3680  178.5100  140.6110 S   0  0  0  0  0  0  0  0  0  0  0  0
  183.6930  179.0520  145.6400 O   0  0  0  0  0  0  0  0  0  0  0  0
  186.9140  178.4210  142.3400 C   0  0  2  0  0  3  0  0  0  0  0  0
  184.6830  178.8230  141.2380 C   0  0  1  0  0  3  0  0  0  0  0  0
  186.5190  177.8140  145.4790 C   0  0  0  0  0  2  0  0  0  0  0  0
  188.2580  177.7150  142.5560 C   0  0  0  0  0  2  0  0  0  0  0  0
  185.7270  178.5470  144.4130 C   0  0  1  0  0  3  0  0  0  0  0  0
  185.8200  177.7640  143.1280 C   0  0  1  0  0  3  0  0  0  0  0  0
  189.7970  176.6100  144.0850 O   0  0  0  0  0  0  0  0  0  0  0  0
  191.3140  176.8310  142.3190 C   0  0  0  0  0  0  0  0  0  0  0  0
  192.0840  177.5490  141.6650 O   0  0  0  0  0  0  0  0  0  0  0  0
  190.5030  176.0760  143.0090 C   0  0  0  0  0  3  0  0  0  0  0  0
  184.0520  175.3990  137.3060 C   0  0  1  0  0  3  0  0  0  0  0  0
  180.6840  172.2100  137.3650 O   0  0  0  0  0  0  0  0  0  0  0  0
  182.8290  173.1920  137.5600 C   0  0  2  0  0  3  0  0  0  0  0  0
  183.6000  171.9650  137.6050 N   0  0  0  0  0  1  0  0  0  0  0  0
  182.5410  174.5720  135.5930 O   0  0  0  0  0  0  0  0  0  0  0  0
  181.2490  172.9630  134.5950 O   0  0  0  0  0  1  0  0  0  0  0  0
  181.5430  172.9570  136.9230 C   0  0  0  0  0  0  0  0  0  0  0  0
  181.3800  173.7820  135.7190 C   0  0  1  0  0  3  0  0  0  0  0  0
  183.4750  174.1680  136.5860 C   0  0  1  0  0  3  0  0  0  0  0  0
  187.2880  175.1430  135.2380 N   0  0  0  0  0  2  0  0  0  0  0  0
  187.7230  176.4790  137.1850 C   0  0  1  0  0  3  0  0  0  0  0  0
  188.6590  176.4400  138.2200 O   0  0  0  0  0  1  0  0  0  0  0  0
  185.3420  175.9100  136.6470 C   0  0  2  0  0  3  0  0  0  0  0  0
  186.3100  174.7950  136.2650 C   0  0  2  0  0  0  0  0  0  0  0  0
  188.3340  175.8850  135.9290 C   0  0  2  0  0  3  0  0  0  0  0  0
  186.5550  175.5840  137.5250 C   0  0  1  0  0  3  0  0  0  0  0  0
  190.3060  176.9940  134.8180 N   0  0  0  0  0  1  0  0  0  0  0  0
  188.1730  177.8710  134.5960 O   0  0  0  0  0  0  0  0  0  0  0  0
  188.9040  176.9570  135.0580 C   0  0  0  0  0  0  0  0  0  0  0  0
  185.9850  173.3180  136.4840 C   0  0  0  0  0  2  0  0  0  0  0  0
  187.2260  171.5660  135.4490 O   0  0  0  0  0  0  0  0  0  0  0  0
  187.1980  172.4640  136.3280 C   0  0  0  0  0  0  0  0  0  0  0  0
  188.2900  172.6400  137.1690 O   0  0  0  0  0  1  0  0  0  0  0  0
  181.9620  179.7980  138.8070 C   0  0  0  0  0  2  0  0  0  0  0  0
  179.1760  182.0120  139.5600 C   0  0  0  0  0  2  0  0  0  0  0  0
  180.5200  180.2460  139.0130 C   0  0  1  0  0  3  0  0  0  0  0  0
  179.9300  179.7840  140.6590 S   0  0  0  0  0  0  0  0  0  0  0  0
  179.1010  181.3370  140.8390 N   0  0  0  0  0  2  0  0  0  0  0  0
  180.4280  181.6930  138.9050 N   0  0  0  0  0  2  0  0  0  0  0  0
  1  3  1  0  0  0  0
  1  6  1  1  0  0  0
  2  4  1  0  0  0  0
  3  4  1  0  0  0  0
  3 50  1  1  0  0  0
  5 27  1  1  0  0  0
  5  1  1  0  0  0  0
  5  2  1  0  0  0  0
  6  7  1  6  0  0  0
  6  8  1  0  0  0  0
  9 22  1  0  0  0  0
  9 10  1  1  0  0  0
 10 13  1  0  0  0  0
 11 23  1  1  0  0  0
 11 14  1  0  0  0  0
 13 16  2  0  0  0  0
 14 19  1  0  0  0  0
 14 12  1  1  0  0  0
 15 18  1  0  0  0  0
 15 17  1  0  0  0  0
 17 20  1  6  0  0  0
 17 22  1  0  0  0  0
 18  8  1  6  0  0  0
 18  9  1  0  0  0  0
 20 11  1  0  0  0  0
 21 13  1  0  0  0  0
 21 19  1  1  0  0  0
 22 21  1  0  0  0  0
 24 26  2  0  0  0  0
 25 24  2  0  0  0  0
 26 23  1  0  0  0  0
 29 30  1  0  0  0  0
 31 34  1  0  0  0  0
 31 35  1  0  0  0  0
 32 34  1  0  0  0  0
 33 28  2  0  0  0  0
 33 29  1  0  0  0  0
 34 33  1  0  0  0  0
 35 27  1  0  0  0  0
 35 29  1  0  0  0  0
 36 41  1  0  0  0  0
 36 40  1  0  0  0  0
 37 42  1  0  0  0  0
 37 38  1  0  0  0  0
 39 27  1  0  0  0  0
 39 42  1  0  0  0  0
 40 46  1  0  0  0  0
 40 39  1  0  0  0  0
 40 42  1  0  0  0  0
 41 37  1  0  0  0  0
 43 45  1  0  0  0  0
 44 45  2  0  0  0  0
 45 41  1  0  0  0  0
 47 48  2  0  0  0  0
 48 46  1  0  0  0  0
 48 49  1  0  0  0  0
 50 52  1  0  0  0  0
 51 54  1  0  0  0  0
 52 53  1  0  0  0  0
 53 54  1  0  0  0  0
 55 52  1  0  0  0  0
 55 51  1  0  0  0  0
M  END
>  <MODEL>
8

>  <REMARK>
 VINA RESULT:      -5.0      2.657      6.320
  Name = 
  13 active torsions:
  status: ('A' for Active; 'I' for Inactive)
    1  A    between atoms: C_5  and  O_28
    2  A    between atoms: C_8  and  C_26
    3  A    between atoms: C_16  and  C_47
    4  A    between atoms: C_19  and  C_34
    5  A    between atoms: C_19  and  C_35
    6  A    between atoms: C_19  and  C_52
    7  A    between atoms: C_21  and  C_23
    8  A    between atoms: C_22  and  C_23
    9  A    between atoms: C_26  and  C_44
   10  A    between atoms: O_28  and  C_32
   11  A    between atoms: C_29  and  C_44
   12  A    between atoms: C_38  and  C_47
   13  A    between atoms: C_42  and  C_48
                            x       y       z     vdW  Elec       q    Type
                         _______ _______ _______ _____ _____    ______ ____

>  <TORSDO>
F 13

$$$$
=
 OpenBabel11062412143D

 55 62  0  0  1  0  0  0  0  0999 V2000
  187.5700  177.1920  138.1180 C   0  0  2  0  0  3  0  0  0  0  0  0
  186.6870  178.8540  136.6360 O   0  0  0  0  0  0  0  0  0  0  0  0
  188.6890  177.7330  137.2670 C   0  0  1  0  0  3  0  0  0  0  0  0
  188.0940  178.9650  136.6260 C   0  0  0  0  0  2  0  0  0  0  0  0
  186.4020  177.6180  137.2420 C   0  0  2  0  0  3  0  0  0  0  0  0
  187.5850  177.7690  139.5530 C   0  0  1  0  0  3  0  0  0  0  0  0
  186.3150  178.1040  140.0240 O   0  0  0  0  0  1  0  0  0  0  0  0
  188.3020  176.8430  140.5170 C   0  0  0  0  0  2  0  0  0  0  0  0
  187.7410  176.8020  142.9380 C   0  0  1  0  0  3  0  0  0  0  0  0
  186.3990  177.2440  143.1100 O   0  0  0  0  0  0  0  0  0  0  0  0
  190.1740  177.2230  146.5020 C   0  0  1  0  0  3  0  0  0  0  0  0
  189.0100  178.1740  148.4040 O   0  0  0  0  0  1  0  0  0  0  0  0
  186.2370  177.8430  144.3490 C   0  0  0  0  0  0  0  0  0  0  0  0
  189.0390  178.1550  147.0080 C   0  0  2  0  0  3  0  0  0  0  0  0
  190.2440  177.5710  142.3220 S   0  0  0  0  0  0  0  0  0  0  0  0
  185.1230  178.2420  144.7850 O   0  0  0  0  0  0  0  0  0  0  0  0
  189.7020  177.9020  144.0220 C   0  0  2  0  0  3  0  0  0  0  0  0
  188.4830  177.5530  141.8440 C   0  0  1  0  0  3  0  0  0  0  0  0
  187.6450  177.7350  146.4960 C   0  0  0  0  0  2  0  0  0  0  0  0
  190.7460  177.5980  145.1030 C   0  0  0  0  0  2  0  0  0  0  0  0
  187.5330  178.0650  145.0200 C   0  0  1  0  0  3  0  0  0  0  0  0
  188.4360  177.1310  144.2540 C   0  0  1  0  0  3  0  0  0  0  0  0
  191.2390  177.1730  147.4490 O   0  0  0  0  0  0  0  0  0  0  0  0
  192.2900  175.2590  146.6160 C   0  0  0  0  0  0  0  0  0  0  0  0
  192.5760  174.5420  145.6460 O   0  0  0  0  0  0  0  0  0  0  0  0
  191.9890  176.0150  147.6360 C   0  0  0  0  0  3  0  0  0  0  0  0
  184.9460  177.4670  137.7310 C   0  0  1  0  0  3  0  0  0  0  0  0
  180.8480  179.5460  138.3550 O   0  0  0  0  0  0  0  0  0  0  0  0
  182.6700  178.4880  137.2770 C   0  0  2  0  0  3  0  0  0  0  0  0
  182.3180  178.8360  135.9150 N   0  0  0  0  0  1  0  0  0  0  0  0
  184.3250  179.6420  138.6150 O   0  0  0  0  0  0  0  0  0  0  0  0
  182.9890  181.5000  138.7500 O   0  0  0  0  0  1  0  0  0  0  0  0
  182.0530  179.4170  138.2110 C   0  0  0  0  0  0  0  0  0  0  0  0
  183.0600  180.1290  139.0080 C   0  0  1  0  0  3  0  0  0  0  0  0
  184.1500  178.7630  137.5110 C   0  0  1  0  0  3  0  0  0  0  0  0
  182.1870  174.7980  137.4580 N   0  0  0  0  0  2  0  0  0  0  0  0
  184.3190  173.7320  137.1710 C   0  0  1  0  0  3  0  0  0  0  0  0
  184.9740  172.6570  137.7740 O   0  0  0  0  0  1  0  0  0  0  0  0
  184.2340  176.2370  137.1480 C   0  0  2  0  0  3  0  0  0  0  0  0
  183.2070  175.6260  138.0950 C   0  0  2  0  0  0  0  0  0  0  0  0
  182.8190  173.5060  137.2280 C   0  0  2  0  0  3  0  0  0  0  0  0
  184.5660  174.9880  137.9720 C   0  0  1  0  0  3  0  0  0  0  0  0
  180.9820  173.0900  135.5530 N   0  0  0  0  0  1  0  0  0  0  0  0
  183.0640  172.1080  135.2950 O   0  0  0  0  0  0  0  0  0  0  0  0
  182.3290  172.8800  135.9630 C   0  0  0  0  0  0  0  0  0  0  0  0
  182.8990  176.2260  139.4660 C   0  0  0  0  0  2  0  0  0  0  0  0
  180.6270  176.2500  138.7460 O   0  0  0  0  0  0  0  0  0  0  0  0
  181.4290  176.2980  139.7120 C   0  0  0  0  0  0  0  0  0  0  0  0
  180.9430  176.4430  141.0060 O   0  0  0  0  0  1  0  0  0  0  0  0
  190.0080  178.0060  137.9850 C   0  0  0  0  0  2  0  0  0  0  0  0
  193.0120  175.9760  138.2780 C   0  0  0  0  0  2  0  0  0  0  0  0
  190.8880  176.7620  137.9690 C   0  0  1  0  0  3  0  0  0  0  0  0
  191.3920  176.3470  136.2830 S   0  0  0  0  0  0  0  0  0  0  0  0
  193.0260  175.9470  136.8300 N   0  0  0  0  0  2  0  0  0  0  0  0
  192.0970  176.9970  138.7430 N   0  0  0  0  0  2  0  0  0  0  0  0
  1  6  1  1  0  0  0
  2  5  1  0  0  0  0
  3 50  1  1  0  0  0
  3  1  1  0  0  0  0
  4  2  1  0  0  0  0
  4  3  1  0  0  0  0
  5 27  1  1  0  0  0
  5  1  1  0  0  0  0
  6  7  1  1  0  0  0
  6  8  1  0  0  0  0
  9 10  1  1  0  0  0
  9 22  1  0  0  0  0
 10 13  1  0  0  0  0
 11 14  1  0  0  0  0
 11 23  1  1  0  0  0
 13 16  2  0  0  0  0
 13 21  1  0  0  0  0
 14 12  1  1  0  0  0
 15 17  1  0  0  0  0
 17 22  1  0  0  0  0
 17 20  1  1  0  0  0
 18  8  1  6  0  0  0
 18 15  1  0  0  0  0
 18  9  1  0  0  0  0
 19 14  1  0  0  0  0
 20 11  1  0  0  0  0
 21 19  1  1  0  0  0
 22 21  1  0  0  0  0
 23 26  1  0  0  0  0
 24 26  2  0  0  0  0
 25 24  2  0  0  0  0
 29 35  1  0  0  0  0
 29 33  1  0  0  0  0
 30 29  1  0  0  0  0
 31 34  1  0  0  0  0
 32 34  1  0  0  0  0
 33 28  2  0  0  0  0
 33 34  1  0  0  0  0
 35 27  1  0  0  0  0
 35 31  1  0  0  0  0
 36 40  1  0  0  0  0
 37 41  1  0  0  0  0
 37 38  1  0  0  0  0
 37 42  1  0  0  0  0
 39 27  1  0  0  0  0
 39 42  1  0  0  0  0
 39 40  1  0  0  0  0
 40 46  1  0  0  0  0
 41 36  1  0  0  0  0
 42 40  1  0  0  0  0
 43 45  1  0  0  0  0
 44 45  2  0  0  0  0
 45 41  1  0  0  0  0
 46 48  1  0  0  0  0
 47 48  2  0  0  0  0
 48 49  1  0  0  0  0
 51 55  1  0  0  0  0
 52 50  1  0  0  0  0
 52 55  1  0  0  0  0
 53 54  1  0  0  0  0
 53 52  1  0  0  0  0
 54 51  1  0  0  0  0
M  END
>  <MODEL>
9

>  <REMARK>
 VINA RESULT:      -4.7      2.105      2.746
  Name = 
  13 active torsions:
  status: ('A' for Active; 'I' for Inactive)
    1  A    between atoms: C_5  and  O_28
    2  A    between atoms: C_8  and  C_26
    3  A    between atoms: C_16  and  C_47
    4  A    between atoms: C_19  and  C_34
    5  A    between atoms: C_19  and  C_35
    6  A    between atoms: C_19  and  C_52
    7  A    between atoms: C_21  and  C_23
    8  A    between atoms: C_22  and  C_23
    9  A    between atoms: C_26  and  C_44
   10  A    between atoms: O_28  and  C_32
   11  A    between atoms: C_29  and  C_44
   12  A    between atoms: C_38  and  C_47
   13  A    between atoms: C_42  and  C_48
                            x       y       z     vdW  Elec       q    Type
                         _______ _______ _______ _____ _____    ______ ____

>  <TORSDO>
F 13

$$$$
