=
 OpenBabel11062416133D

 44 46  0  0  1  0  0  0  0  0999 V2000
  188.3260  177.3380  138.7580 C   0  0  0  0  0  2  0  0  0  0  0  0
  187.6270  179.0730  137.1950 O   0  0  0  0  0  1  0  0  0  0  0  0
  188.3290  177.8720  137.3240 C   0  0  2  0  0  3  0  0  0  0  0  0
  187.7190  176.6560  136.1640 S   0  0  0  0  0  0  0  0  0  0  0  0
  188.6320  176.6170  134.9700 O   0  0  0  0  0  0  0  0  0  0  0  0
  186.3350  177.0280  135.7090 O   0  0  0  0  0  0  0  0  0  0  0  0
  187.6520  175.0250  136.9010 C   0  0  0  0  0  2  0  0  0  0  0  0
  185.4260  173.9690  137.4150 N   0  0  0  0  0  2  0  0  0  0  0  0
  186.3780  173.7630  135.2950 O   0  0  0  0  0  0  0  0  0  0  0  0
  186.4690  174.2120  136.4710 C   0  0  0  0  0  0  0  0  0  0  0  0
  184.2800  173.1310  137.0970 C   0  0  0  0  0  2  0  0  0  0  0  0
  182.7910  174.1570  136.8920 S   0  0  0  0  0  0  0  0  0  0  0  0
  183.1900  175.2220  138.3210 C   0  0  0  0  0  2  0  0  0  0  0  0
  182.8580  176.9020  136.5150 C   0  0  0  0  0  1  0  0  0  0  0  0
  184.4040  177.2840  138.2850 O   0  0  0  0  0  1  0  0  0  0  0  0
  183.1600  176.7170  137.9950 C   0  0  2  0  0  0  0  0  0  0  0  0
  182.0600  177.3930  138.8420 C   0  0  1  0  0  3  0  0  0  0  0  0
  181.2800  176.4060  139.7060 C   0  0  0  0  0  1  0  0  0  0  0  0
  182.7050  179.7630  139.0870 C   0  0  0  0  0  2  0  0  0  0  0  0
  182.5390  178.5710  139.6580 C   0  0  0  0  0  0  0  0  0  0  0  0
  181.8400  178.8670  142.0610 N   0  0  0  0  0  1  0  0  0  0  0  0
  182.7880  178.4040  141.1010 C   0  0  0  0  0  0  0  0  0  0  0  0
  183.8440  177.8470  141.5010 O   0  0  0  0  0  0  0  0  0  0  0  0
  188.6470  178.3590  139.8470 C   0  0  0  0  0  2  0  0  0  0  0  0
  187.5570  178.3350  142.1730 N   0  0  0  0  0  2  0  0  0  0  0  0
  187.4910  178.6010  140.7630 C   0  0  0  0  0  0  0  0  0  0  0  0
  186.4320  179.0850  140.2870 O   0  0  0  0  0  0  0  0  0  0  0  0
  188.6330  177.6820  142.9260 C   0  0  2  0  0  0  0  0  0  0  0  0
  185.9050  177.4560  144.1190 O   0  0  0  0  0  1  0  0  0  0  0  0
  190.8470  175.6720  143.3900 C   0  0  0  0  0  2  0  0  0  0  0  0
  191.2040  176.1810  144.6580 O   0  0  0  0  0  0  0  0  0  0  0  0
  191.0650  178.4810  143.6240 C   0  0  1  0  0  0  0  0  0  0  0  0
  191.2100  179.8910  144.1560 C   0  0  0  0  0  1  0  0  0  0  0  0
  186.8020  177.5440  146.3380 C   0  0  0  0  0  3  0  0  0  0  0  0
  189.9290  178.4650  142.5840 C   0  0  0  0  0  2  0  0  0  0  0  0
  187.8830  177.5740  147.2180 C   0  0  0  0  0  3  0  0  0  0  0  0
  189.3470  175.4410  143.2850 C   0  0  0  0  0  2  0  0  0  0  0  0
  188.7530  176.3630  142.3930 O   0  0  0  0  0  0  0  0  0  0  0  0
  188.3210  177.6880  144.4360 C   0  0  0  0  0  0  0  0  0  0  0  0
  192.2620  178.1380  142.9920 O   0  0  0  0  0  1  0  0  0  0  0  0
  189.4050  177.6490  145.3390 C   0  0  0  0  0  0  0  0  0  0  0  0
  190.8050  177.5380  144.8160 C   0  0  1  0  0  3  0  0  0  0  0  0
  189.1830  177.6070  146.7180 C   0  0  0  0  0  3  0  0  0  0  0  0
  187.0090  177.5700  144.9570 C   0  0  0  0  0  0  0  0  0  0  0  0
  1 24  1  0  0  0  0
  3  2  1  1  0  0  0
  3  1  1  0  0  0  0
  4  7  1  0  0  0  0
  4  3  1  0  0  0  0
  5  4  2  0  0  0  0
  6  4  2  0  0  0  0
  9 10  2  0  0  0  0
 10  7  1  0  0  0  0
 10  8  1  0  0  0  0
 11  8  1  0  0  0  0
 12 11  1  0  0  0  0
 12 13  1  0  0  0  0
 16 14  1  6  0  0  0
 16 15  1  0  0  0  0
 16 13  1  0  0  0  0
 16 17  1  0  0  0  0
 17 20  1  0  0  0  0
 17 18  1  1  0  0  0
 19 20  2  0  0  0  0
 20 22  1  0  0  0  0
 22 23  2  0  0  0  0
 22 21  1  0  0  0  0
 24 26  1  0  0  0  0
 26 25  1  0  0  0  0
 27 26  2  0  0  0  0
 28 25  1  6  0  0  0
 28 39  1  0  0  0  0
 29 44  1  0  0  0  0
 30 31  1  0  0  0  0
 32 33  1  1  0  0  0
 32 42  1  0  0  0  0
 34 36  1  0  0  0  0
 35 28  1  0  0  0  0
 35 32  1  0  0  0  0
 37 30  1  0  0  0  0
 38 28  1  0  0  0  0
 38 37  1  0  0  0  0
 39 44  1  0  0  0  0
 39 41  2  0  0  0  0
 40 32  1  0  0  0  0
 41 43  1  0  0  0  0
 42 31  1  6  0  0  0
 42 41  1  0  0  0  0
 43 36  2  0  0  0  0
 44 34  2  0  0  0  0
M  END
>  <MODEL>
1

>  <REMARK>
 VINA RESULT:      -7.2      0.000      0.000
  Name = 
  14 active torsions:
  status: ('A' for Active; 'I' for Inactive)
    1  A    between atoms: C_1  and  S_20
    2  A    between atoms: C_1  and  C_28
    3  A    between atoms: S_3  and  C_12
    4  A    between atoms: S_3  and  C_41
    5  A    between atoms: C_5  and  N_13
    6  A    between atoms: C_6  and  C_23
    7  A    between atoms: C_10  and  N_15
    8  A    between atoms: C_10  and  S_20
    9  A    between atoms: C_12  and  C_32
   10  A    between atoms: C_23  and  C_26
   11  A    between atoms: C_24  and  C_41
   12  A    between atoms: C_24  and  C_43
   13  A    between atoms: C_26  and  C_28
   14  A    between atoms: C_37  and  C_43
                            x       y       z     vdW  Elec       q    Type
                         _______ _______ _______ _____ _____    ______ ____

>  <TORSDO>
F 14

$$$$
=
 OpenBabel11062416133D

 44 46  0  0  1  0  0  0  0  0999 V2000
  188.2770  177.1560  139.0880 C   0  0  0  0  0  2  0  0  0  0  0  0
  189.8090  177.9180  137.3520 O   0  0  0  0  0  1  0  0  0  0  0  0
  188.5640  177.3310  137.5960 C   0  0  2  0  0  3  0  0  0  0  0  0
  187.2640  178.2430  136.7740 S   0  0  0  0  0  0  0  0  0  0  0  0
  187.2000  177.8130  135.3350 O   0  0  0  0  0  0  0  0  0  0  0  0
  187.5540  179.7170  136.8310 O   0  0  0  0  0  0  0  0  0  0  0  0
  185.6730  177.9500  137.5430 C   0  0  0  0  0  2  0  0  0  0  0  0
  183.6880  176.9580  136.3550 N   0  0  0  0  0  2  0  0  0  0  0  0
  185.4370  175.5980  137.0860 O   0  0  0  0  0  0  0  0  0  0  0  0
  184.9470  176.7570  136.9990 C   0  0  0  0  0  0  0  0  0  0  0  0
  182.8880  175.8460  135.8640 C   0  0  0  0  0  2  0  0  0  0  0  0
  181.7870  175.2390  137.1810 S   0  0  0  0  0  0  0  0  0  0  0  0
  181.2630  176.9170  137.6720 C   0  0  0  0  0  2  0  0  0  0  0  0
  182.5270  176.3510  139.7410 C   0  0  0  0  0  1  0  0  0  0  0  0
  180.1910  176.8030  139.8090 O   0  0  0  0  0  1  0  0  0  0  0  0
  181.3790  177.1770  139.1770 C   0  0  2  0  0  0  0  0  0  0  0  0
  181.6520  178.6790  139.4080 C   0  0  1  0  0  3  0  0  0  0  0  0
  181.9390  179.4400  138.1160 C   0  0  0  0  0  1  0  0  0  0  0  0
  179.5080  179.8770  139.6510 C   0  0  0  0  0  2  0  0  0  0  0  0
  180.5990  179.3820  140.2320 C   0  0  0  0  0  0  0  0  0  0  0  0
  180.0230  180.4450  142.4430 N   0  0  0  0  0  1  0  0  0  0  0  0
  180.7690  179.4890  141.6920 C   0  0  0  0  0  0  0  0  0  0  0  0
  181.5780  178.7330  142.2920 O   0  0  0  0  0  0  0  0  0  0  0  0
  188.5150  178.3880  139.9590 C   0  0  0  0  0  2  0  0  0  0  0  0
  187.5530  178.3350  142.3410 N   0  0  0  0  0  2  0  0  0  0  0  0
  187.4100  178.6180  140.9400 C   0  0  0  0  0  0  0  0  0  0  0  0
  186.3270  179.1070  140.5280 O   0  0  0  0  0  0  0  0  0  0  0  0
  188.6690  177.6740  143.0260 C   0  0  2  0  0  0  0  0  0  0  0  0
  186.0080  177.4230  144.3580 O   0  0  0  0  0  1  0  0  0  0  0  0
  190.9080  175.6630  143.3430 C   0  0  0  0  0  2  0  0  0  0  0  0
  191.3310  176.1540  144.5980 O   0  0  0  0  0  0  0  0  0  0  0  0
  191.1330  178.4690  143.6070 C   0  0  1  0  0  0  0  0  0  0  0  0
  191.3030  179.8720  144.1510 C   0  0  0  0  0  1  0  0  0  0  0  0
  187.0210  177.4800  146.5280 C   0  0  0  0  0  3  0  0  0  0  0  0
  189.9430  178.4660  142.6280 C   0  0  0  0  0  2  0  0  0  0  0  0
  188.1470  177.5010  147.3500 C   0  0  0  0  0  3  0  0  0  0  0  0
  189.4050  175.4290  143.3130 C   0  0  0  0  0  2  0  0  0  0  0  0
  188.7640  176.3630  142.4680 O   0  0  0  0  0  0  0  0  0  0  0  0
  188.4370  177.6570  144.5510 C   0  0  0  0  0  0  0  0  0  0  0  0
  192.2950  178.1390  142.9080 O   0  0  0  0  0  1  0  0  0  0  0  0
  189.5670  177.6080  145.3950 C   0  0  0  0  0  0  0  0  0  0  0  0
  190.9380  177.5080  144.7960 C   0  0  1  0  0  3  0  0  0  0  0  0
  189.4190  177.5440  146.7830 C   0  0  0  0  0  3  0  0  0  0  0  0
  187.1550  177.5270  145.1380 C   0  0  0  0  0  0  0  0  0  0  0  0
  1 24  1  0  0  0  0
  3  2  1  1  0  0  0
  3  1  1  0  0  0  0
  4  6  2  0  0  0  0
  4  7  1  0  0  0  0
  4  3  1  0  0  0  0
  5  4  2  0  0  0  0
  8 10  1  0  0  0  0
 10  9  2  0  0  0  0
 10  7  1  0  0  0  0
 11  8  1  0  0  0  0
 11 12  1  0  0  0  0
 12 13  1  0  0  0  0
 13 16  1  0  0  0  0
 16 17  1  0  0  0  0
 16 14  1  1  0  0  0
 16 15  1  0  0  0  0
 17 18  1  6  0  0  0
 17 20  1  0  0  0  0
 19 20  2  0  0  0  0
 20 22  1  0  0  0  0
 22 23  2  0  0  0  0
 22 21  1  0  0  0  0
 24 26  1  0  0  0  0
 26 25  1  0  0  0  0
 27 26  2  0  0  0  0
 28 25  1  6  0  0  0
 28 39  1  0  0  0  0
 29 44  1  0  0  0  0
 30 31  1  0  0  0  0
 32 33  1  1  0  0  0
 32 42  1  0  0  0  0
 34 36  1  0  0  0  0
 35 28  1  0  0  0  0
 35 32  1  0  0  0  0
 37 30  1  0  0  0  0
 38 28  1  0  0  0  0
 38 37  1  0  0  0  0
 39 44  1  0  0  0  0
 39 41  2  0  0  0  0
 40 32  1  0  0  0  0
 41 43  1  0  0  0  0
 42 31  1  6  0  0  0
 42 41  1  0  0  0  0
 43 36  2  0  0  0  0
 44 34  2  0  0  0  0
M  END
>  <MODEL>
2

>  <REMARK>
 VINA RESULT:      -7.2      1.530      1.967
  Name = 
  14 active torsions:
  status: ('A' for Active; 'I' for Inactive)
    1  A    between atoms: C_1  and  S_20
    2  A    between atoms: C_1  and  C_28
    3  A    between atoms: S_3  and  C_12
    4  A    between atoms: S_3  and  C_41
    5  A    between atoms: C_5  and  N_13
    6  A    between atoms: C_6  and  C_23
    7  A    between atoms: C_10  and  N_15
    8  A    between atoms: C_10  and  S_20
    9  A    between atoms: C_12  and  C_32
   10  A    between atoms: C_23  and  C_26
   11  A    between atoms: C_24  and  C_41
   12  A    between atoms: C_24  and  C_43
   13  A    between atoms: C_26  and  C_28
   14  A    between atoms: C_37  and  C_43
                            x       y       z     vdW  Elec       q    Type
                         _______ _______ _______ _____ _____    ______ ____

>  <TORSDO>
F 14

$$$$
=
 OpenBabel11062416133D

 44 46  0  0  1  0  0  0  0  0999 V2000
  184.8100  178.8570  143.3220 C   0  0  0  0  0  2  0  0  0  0  0  0
  182.9680  179.4720  144.7960 O   0  0  0  0  0  1  0  0  0  0  0  0
  184.0270  178.5790  144.6070 C   0  0  2  0  0  3  0  0  0  0  0  0
  185.0950  178.5550  146.0400 S   0  0  0  0  0  0  0  0  0  0  0  0
  184.2620  178.2980  147.2660 O   0  0  0  0  0  0  0  0  0  0  0  0
  185.7880  179.8800  146.1900 O   0  0  0  0  0  0  0  0  0  0  0  0
  186.3420  177.2760  145.9040 C   0  0  0  0  0  2  0  0  0  0  0  0
  188.8100  177.0390  146.3360 N   0  0  0  0  0  2  0  0  0  0  0  0
  187.4260  178.0850  147.8960 O   0  0  0  0  0  0  0  0  0  0  0  0
  187.5340  177.4940  146.7860 C   0  0  0  0  0  0  0  0  0  0  0  0
  190.0020  177.1490  147.1630 C   0  0  0  0  0  2  0  0  0  0  0  0
  191.4950  177.0080  146.1310 S   0  0  0  0  0  0  0  0  0  0  0  0
  190.6050  177.4100  144.5890 C   0  0  0  0  0  2  0  0  0  0  0  0
  191.7780  175.3450  143.8430 C   0  0  0  0  0  1  0  0  0  0  0  0
  192.0320  177.4000  142.6680 O   0  0  0  0  0  1  0  0  0  0  0  0
  191.1060  176.6270  143.3720 C   0  0  2  0  0  0  0  0  0  0  0  0
  189.9040  176.2850  142.4650 C   0  0  1  0  0  3  0  0  0  0  0  0
  188.6510  175.9080  143.2510 C   0  0  0  0  0  1  0  0  0  0  0  0
  189.0470  178.4910  141.7670 C   0  0  0  0  0  2  0  0  0  0  0  0
  189.5970  177.3300  141.4180 C   0  0  0  0  0  0  0  0  0  0  0  0
  188.9750  177.2540  138.9770 N   0  0  0  0  0  1  0  0  0  0  0  0
  189.9440  177.0720  140.0090 C   0  0  0  0  0  0  0  0  0  0  0  0
  191.1030  176.6880  139.7020 O   0  0  0  0  0  0  0  0  0  0  0  0
  184.0460  178.6390  142.0180 C   0  0  0  0  0  2  0  0  0  0  0  0
  184.3840  178.7800  139.4760 N   0  0  0  0  0  2  0  0  0  0  0  0
  184.8480  179.0150  140.8140 C   0  0  0  0  0  0  0  0  0  0  0  0
  185.9570  179.5860  140.9800 O   0  0  0  0  0  0  0  0  0  0  0  0
  183.1900  178.0470  139.0430 C   0  0  2  0  0  0  0  0  0  0  0  0
  185.7300  177.3050  137.6590 O   0  0  0  0  0  1  0  0  0  0  0  0
  180.8380  176.1700  139.3660 C   0  0  0  0  0  2  0  0  0  0  0  0
  180.3480  176.3680  138.0560 O   0  0  0  0  0  0  0  0  0  0  0  0
  180.7310  178.8360  138.4310 C   0  0  1  0  0  0  0  0  0  0  0  0
  180.5910  180.0720  137.5680 C   0  0  0  0  0  1  0  0  0  0  0  0
  184.5650  176.8990  135.6060 C   0  0  0  0  0  3  0  0  0  0  0  0
  181.9890  178.9930  139.3080 C   0  0  0  0  0  2  0  0  0  0  0  0
  183.3840  176.7930  134.8730 C   0  0  0  0  0  3  0  0  0  0  0  0
  182.3260  175.8530  139.3630 C   0  0  0  0  0  2  0  0  0  0  0  0
  183.0730  176.9200  139.9120 O   0  0  0  0  0  0  0  0  0  0  0  0
  183.3080  177.6440  137.5580 C   0  0  0  0  0  0  0  0  0  0  0  0
  179.6090  178.7620  139.2570 O   0  0  0  0  0  1  0  0  0  0  0  0
  182.1180  177.4650  136.8210 C   0  0  0  0  0  0  0  0  0  0  0  0
  180.7910  177.6040  137.5060 C   0  0  1  0  0  3  0  0  0  0  0  0
  182.1600  177.0560  135.4860 C   0  0  0  0  0  3  0  0  0  0  0  0
  184.5360  177.2920  136.9470 C   0  0  0  0  0  0  0  0  0  0  0  0
  1  3  1  0  0  0  0
  3  2  1  1  0  0  0
  3  4  1  0  0  0  0
  4  6  2  0  0  0  0
  4  5  2  0  0  0  0
  7  4  1  0  0  0  0
  7 10  1  0  0  0  0
  8 10  1  0  0  0  0
  8 11  1  0  0  0  0
 10  9  2  0  0  0  0
 12 11  1  0  0  0  0
 13 12  1  0  0  0  0
 15 16  1  0  0  0  0
 16 14  1  1  0  0  0
 16 13  1  0  0  0  0
 17 18  1  1  0  0  0
 17 16  1  0  0  0  0
 20 19  2  0  0  0  0
 20 17  1  0  0  0  0
 21 22  1  0  0  0  0
 22 20  1  0  0  0  0
 23 22  2  0  0  0  0
 24  1  1  0  0  0  0
 25 26  1  0  0  0  0
 26 27  2  0  0  0  0
 26 24  1  0  0  0  0
 28 35  1  0  0  0  0
 28 25  1  1  0  0  0
 28 38  1  0  0  0  0
 31 30  1  0  0  0  0
 32 33  1  6  0  0  0
 32 40  1  0  0  0  0
 32 35  1  0  0  0  0
 34 44  1  0  0  0  0
 36 43  1  0  0  0  0
 36 34  2  0  0  0  0
 37 30  1  0  0  0  0
 37 38  1  0  0  0  0
 39 28  1  0  0  0  0
 41 39  1  0  0  0  0
 42 41  1  1  0  0  0
 42 31  1  0  0  0  0
 42 32  1  0  0  0  0
 43 41  2  0  0  0  0
 44 39  2  0  0  0  0
 44 29  1  0  0  0  0
M  END
>  <MODEL>
3

>  <REMARK>
 VINA RESULT:      -6.9      3.220      9.731
  Name = 
  14 active torsions:
  status: ('A' for Active; 'I' for Inactive)
    1  A    between atoms: C_1  and  S_20
    2  A    between atoms: C_1  and  C_28
    3  A    between atoms: S_3  and  C_12
    4  A    between atoms: S_3  and  C_41
    5  A    between atoms: C_5  and  N_13
    6  A    between atoms: C_6  and  C_23
    7  A    between atoms: C_10  and  N_15
    8  A    between atoms: C_10  and  S_20
    9  A    between atoms: C_12  and  C_32
   10  A    between atoms: C_23  and  C_26
   11  A    between atoms: C_24  and  C_41
   12  A    between atoms: C_24  and  C_43
   13  A    between atoms: C_26  and  C_28
   14  A    between atoms: C_37  and  C_43
                            x       y       z     vdW  Elec       q    Type
                         _______ _______ _______ _____ _____    ______ ____

>  <TORSDO>
F 14

$$$$
=
 OpenBabel11062416133D

 44 46  0  0  1  0  0  0  0  0999 V2000
  187.4940  177.7000  138.7080 C   0  0  0  0  0  2  0  0  0  0  0  0
  188.0150  179.3630  137.0050 O   0  0  0  0  0  1  0  0  0  0  0  0
  188.1780  178.0270  137.3800 C   0  0  2  0  0  3  0  0  0  0  0  0
  187.6390  176.9340  136.0720 S   0  0  0  0  0  0  0  0  0  0  0  0
  188.6290  176.9980  134.9410 O   0  0  0  0  0  0  0  0  0  0  0  0
  186.2910  177.3620  135.5650 O   0  0  0  0  0  0  0  0  0  0  0  0
  187.5160  175.2410  136.6430 C   0  0  0  0  0  2  0  0  0  0  0  0
  189.9340  174.6670  137.0390 N   0  0  0  0  0  2  0  0  0  0  0  0
  188.6700  173.4750  135.4820 O   0  0  0  0  0  0  0  0  0  0  0  0
  188.7210  174.4060  136.3330 C   0  0  0  0  0  0  0  0  0  0  0  0
  191.1650  173.9490  136.7460 C   0  0  0  0  0  2  0  0  0  0  0  0
  191.9600  174.6480  135.2650 S   0  0  0  0  0  0  0  0  0  0  0  0
  193.5950  173.9460  135.6730 C   0  0  0  0  0  2  0  0  0  0  0  0
  193.8630  176.2470  136.5830 C   0  0  0  0  0  1  0  0  0  0  0  0
  195.4770  175.3110  135.1040 O   0  0  0  0  0  1  0  0  0  0  0  0
  194.6070  174.9920  136.1490 C   0  0  2  0  0  0  0  0  0  0  0  0
  195.4010  174.4150  137.3410 C   0  0  1  0  0  3  0  0  0  0  0  0
  194.6250  173.3570  138.1210 C   0  0  0  0  0  1  0  0  0  0  0  0
  196.9560  172.7200  136.4480 C   0  0  0  0  0  2  0  0  0  0  0  0
  196.7850  173.9250  136.9870 C   0  0  0  0  0  0  0  0  0  0  0  0
  198.1570  175.4260  138.4750 N   0  0  0  0  0  1  0  0  0  0  0  0
  197.9480  174.8040  137.2090 C   0  0  0  0  0  0  0  0  0  0  0  0
  198.7710  175.0130  136.2790 O   0  0  0  0  0  0  0  0  0  0  0  0
  188.1510  178.2850  139.9560 C   0  0  0  0  0  2  0  0  0  0  0  0
  187.3990  178.4420  142.4070 N   0  0  0  0  0  2  0  0  0  0  0  0
  187.1560  178.6560  141.0080 C   0  0  0  0  0  0  0  0  0  0  0  0
  186.0800  179.2060  140.6560 O   0  0  0  0  0  0  0  0  0  0  0  0
  188.5180  177.7350  143.0380 C   0  0  2  0  0  0  0  0  0  0  0  0
  185.9000  177.5340  144.4600 O   0  0  0  0  0  1  0  0  0  0  0  0
  190.7060  175.6530  143.2350 C   0  0  0  0  0  2  0  0  0  0  0  0
  191.1880  176.1060  144.4830 O   0  0  0  0  0  0  0  0  0  0  0  0
  191.0240  178.4460  143.5450 C   0  0  1  0  0  0  0  0  0  0  0  0
  191.2550  179.8310  144.1100 C   0  0  0  0  0  1  0  0  0  0  0  0
  186.9900  177.5180  146.5930 C   0  0  0  0  0  3  0  0  0  0  0  0
  189.8000  178.4970  142.6100 C   0  0  0  0  0  2  0  0  0  0  0  0
  188.1450  177.4880  147.3740 C   0  0  0  0  0  3  0  0  0  0  0  0
  189.1960  175.4640  143.2550 C   0  0  0  0  0  2  0  0  0  0  0  0
  188.5530  176.4330  142.4520 O   0  0  0  0  0  0  0  0  0  0  0  0
  188.3400  177.6940  144.5700 C   0  0  0  0  0  0  0  0  0  0  0  0
  192.1500  178.0960  142.7980 O   0  0  0  0  0  1  0  0  0  0  0  0
  189.4970  177.5940  145.3710 C   0  0  0  0  0  0  0  0  0  0  0  0
  190.8430  177.4660  144.7220 C   0  0  1  0  0  3  0  0  0  0  0  0
  189.3970  177.5060  146.7620 C   0  0  0  0  0  3  0  0  0  0  0  0
  187.0760  177.5890  145.2000 C   0  0  0  0  0  0  0  0  0  0  0  0
  1 24  1  0  0  0  0
  3  2  1  6  0  0  0
  3  1  1  0  0  0  0
  4  7  1  0  0  0  0
  4  3  1  0  0  0  0
  5  4  2  0  0  0  0
  6  4  2  0  0  0  0
  9 10  2  0  0  0  0
 10  7  1  0  0  0  0
 10  8  1  0  0  0  0
 11  8  1  0  0  0  0
 12 13  1  0  0  0  0
 12 11  1  0  0  0  0
 13 16  1  0  0  0  0
 15 16  1  0  0  0  0
 16 14  1  1  0  0  0
 16 17  1  0  0  0  0
 17 18  1  6  0  0  0
 19 20  2  0  0  0  0
 20 22  1  0  0  0  0
 20 17  1  0  0  0  0
 22 21  1  0  0  0  0
 23 22  2  0  0  0  0
 24 26  1  0  0  0  0
 26 25  1  0  0  0  0
 27 26  2  0  0  0  0
 28 25  1  6  0  0  0
 28 39  1  0  0  0  0
 29 44  1  0  0  0  0
 30 37  1  0  0  0  0
 30 31  1  0  0  0  0
 32 33  1  1  0  0  0
 32 42  1  0  0  0  0
 34 36  1  0  0  0  0
 35 28  1  0  0  0  0
 35 32  1  0  0  0  0
 38 28  1  0  0  0  0
 38 37  1  0  0  0  0
 39 44  1  0  0  0  0
 39 41  2  0  0  0  0
 40 32  1  0  0  0  0
 41 43  1  0  0  0  0
 42 31  1  6  0  0  0
 42 41  1  0  0  0  0
 43 36  2  0  0  0  0
 44 34  2  0  0  0  0
M  END
>  <MODEL>
4

>  <REMARK>
 VINA RESULT:      -6.9      4.359      7.323
  Name = 
  14 active torsions:
  status: ('A' for Active; 'I' for Inactive)
    1  A    between atoms: C_1  and  S_20
    2  A    between atoms: C_1  and  C_28
    3  A    between atoms: S_3  and  C_12
    4  A    between atoms: S_3  and  C_41
    5  A    between atoms: C_5  and  N_13
    6  A    between atoms: C_6  and  C_23
    7  A    between atoms: C_10  and  N_15
    8  A    between atoms: C_10  and  S_20
    9  A    between atoms: C_12  and  C_32
   10  A    between atoms: C_23  and  C_26
   11  A    between atoms: C_24  and  C_41
   12  A    between atoms: C_24  and  C_43
   13  A    between atoms: C_26  and  C_28
   14  A    between atoms: C_37  and  C_43
                            x       y       z     vdW  Elec       q    Type
                         _______ _______ _______ _____ _____    ______ ____

>  <TORSDO>
F 14

$$$$
=
 OpenBabel11062416133D

 44 46  0  0  1  0  0  0  0  0999 V2000
  186.0760  176.6740  136.6840 C   0  0  0  0  0  2  0  0  0  0  0  0
  187.0700  178.8330  137.2280 O   0  0  0  0  0  1  0  0  0  0  0  0
  187.2410  177.4470  137.3060 C   0  0  2  0  0  3  0  0  0  0  0  0
  188.8090  176.9640  136.5980 S   0  0  0  0  0  0  0  0  0  0  0  0
  188.9280  177.5560  135.2200 O   0  0  0  0  0  0  0  0  0  0  0  0
  188.8890  175.4660  136.4940 O   0  0  0  0  0  0  0  0  0  0  0  0
  190.1820  177.5350  137.5980 C   0  0  0  0  0  2  0  0  0  0  0  0
  190.0720  177.1930  140.0890 N   0  0  0  0  0  2  0  0  0  0  0  0
  190.9680  175.5450  138.7020 O   0  0  0  0  0  0  0  0  0  0  0  0
  190.4460  176.6890  138.8070 C   0  0  0  0  0  0  0  0  0  0  0  0
  190.3590  176.4660  141.3160 C   0  0  0  0  0  2  0  0  0  0  0  0
  191.5830  177.3740  142.3110 S   0  0  0  0  0  0  0  0  0  0  0  0
  191.1780  176.4670  143.8430 C   0  0  0  0  0  2  0  0  0  0  0  0
  190.4140  178.7590  144.4410 C   0  0  0  0  0  1  0  0  0  0  0  0
  191.7660  177.4820  145.9290 O   0  0  0  0  0  1  0  0  0  0  0  0
  190.7350  177.3770  144.9920 C   0  0  2  0  0  0  0  0  0  0  0  0
  189.4780  176.7730  145.6540 C   0  0  1  0  0  3  0  0  0  0  0  0
  189.4970  176.8760  147.1770 C   0  0  0  0  0  1  0  0  0  0  0  0
  187.3940  178.0850  145.8120 C   0  0  0  0  0  2  0  0  0  0  0  0
  188.1730  177.2820  145.0900 C   0  0  0  0  0  0  0  0  0  0  0  0
  187.2720  177.8970  142.8180 N   0  0  0  0  0  1  0  0  0  0  0  0
  187.7790  176.9130  143.7180 C   0  0  0  0  0  0  0  0  0  0  0  0
  187.8890  175.7210  143.3260 O   0  0  0  0  0  0  0  0  0  0  0  0
  184.6830  177.0700  137.1670 C   0  0  0  0  0  2  0  0  0  0  0  0
  182.4730  175.9560  137.8550 N   0  0  0  0  0  2  0  0  0  0  0  0
  183.7240  175.9230  137.1520 C   0  0  0  0  0  0  0  0  0  0  0  0
  184.0100  174.9040  136.4710 O   0  0  0  0  0  0  0  0  0  0  0  0
  181.9780  176.9780  138.7840 C   0  0  2  0  0  0  0  0  0  0  0  0
  180.8840  177.1210  136.0100 O   0  0  0  0  0  1  0  0  0  0  0  0
  180.5190  178.0100  141.2260 C   0  0  0  0  0  2  0  0  0  0  0  0
  180.8650  179.3620  141.0070 O   0  0  0  0  0  0  0  0  0  0  0  0
  183.2080  178.5450  140.5370 C   0  0  1  0  0  0  0  0  0  0  0  0
  184.4920  179.2130  140.0930 C   0  0  0  0  0  1  0  0  0  0  0  0
  180.7900  179.5130  136.1050 C   0  0  0  0  0  3  0  0  0  0  0  0
  183.1020  177.1770  139.8360 C   0  0  0  0  0  2  0  0  0  0  0  0
  180.9250  180.7130  136.8000 C   0  0  0  0  0  3  0  0  0  0  0  0
  179.9520  177.3680  139.9680 C   0  0  0  0  0  2  0  0  0  0  0  0
  180.8450  176.4090  139.4410 O   0  0  0  0  0  0  0  0  0  0  0  0
  181.6380  178.2790  138.0300 C   0  0  0  0  0  0  0  0  0  0  0  0
  183.2860  178.3440  141.9150 O   0  0  0  0  0  1  0  0  0  0  0  0
  181.7040  179.4960  138.7410 C   0  0  0  0  0  0  0  0  0  0  0  0
  182.0330  179.4860  140.2040 C   0  0  1  0  0  3  0  0  0  0  0  0
  181.3620  180.7030  138.1240 C   0  0  0  0  0  3  0  0  0  0  0  0
  181.1120  178.2970  136.7150 C   0  0  0  0  0  0  0  0  0  0  0  0
  1 24  1  0  0  0  0
  1  3  1  0  0  0  0
  3  2  1  6  0  0  0
  4  3  1  0  0  0  0
  4  7  1  0  0  0  0
  5  4  2  0  0  0  0
  6  4  2  0  0  0  0
  7 10  1  0  0  0  0
  8 11  1  0  0  0  0
  9 10  2  0  0  0  0
 10  8  1  0  0  0  0
 11 12  1  0  0  0  0
 12 13  1  0  0  0  0
 13 16  1  0  0  0  0
 16 14  1  6  0  0  0
 16 17  1  0  0  0  0
 16 15  1  0  0  0  0
 17 18  1  1  0  0  0
 20 17  1  0  0  0  0
 20 19  2  0  0  0  0
 21 22  1  0  0  0  0
 22 20  1  0  0  0  0
 23 22  2  0  0  0  0
 26 24  1  0  0  0  0
 26 25  1  0  0  0  0
 27 26  2  0  0  0  0
 28 25  1  6  0  0  0
 28 38  1  0  0  0  0
 28 35  1  0  0  0  0
 29 44  1  0  0  0  0
 31 30  1  0  0  0  0
 32 33  1  6  0  0  0
 32 40  1  0  0  0  0
 34 44  2  0  0  0  0
 34 36  1  0  0  0  0
 35 32  1  0  0  0  0
 36 43  2  0  0  0  0
 37 30  1  0  0  0  0
 38 37  1  0  0  0  0
 39 41  2  0  0  0  0
 39 28  1  0  0  0  0
 42 41  1  6  0  0  0
 42 32  1  0  0  0  0
 42 31  1  0  0  0  0
 43 41  1  0  0  0  0
 44 39  1  0  0  0  0
M  END
>  <MODEL>
5

>  <REMARK>
 VINA RESULT:      -6.8      2.353      8.332
  Name = 
  14 active torsions:
  status: ('A' for Active; 'I' for Inactive)
    1  A    between atoms: C_1  and  S_20
    2  A    between atoms: C_1  and  C_28
    3  A    between atoms: S_3  and  C_12
    4  A    between atoms: S_3  and  C_41
    5  A    between atoms: C_5  and  N_13
    6  A    between atoms: C_6  and  C_23
    7  A    between atoms: C_10  and  N_15
    8  A    between atoms: C_10  and  S_20
    9  A    between atoms: C_12  and  C_32
   10  A    between atoms: C_23  and  C_26
   11  A    between atoms: C_24  and  C_41
   12  A    between atoms: C_24  and  C_43
   13  A    between atoms: C_26  and  C_28
   14  A    between atoms: C_37  and  C_43
                            x       y       z     vdW  Elec       q    Type
                         _______ _______ _______ _____ _____    ______ ____

>  <TORSDO>
F 14

$$$$
=
 OpenBabel11062416133D

 44 46  0  0  1  0  0  0  0  0999 V2000
  185.1650  176.4590  136.2070 C   0  0  0  0  0  2  0  0  0  0  0  0
  186.3750  177.9640  134.7200 O   0  0  0  0  0  1  0  0  0  0  0  0
  186.3390  177.4190  136.0070 C   0  0  2  0  0  3  0  0  0  0  0  0
  187.9000  176.6490  136.4100 S   0  0  0  0  0  0  0  0  0  0  0  0
  188.2880  175.7150  135.2960 O   0  0  0  0  0  0  0  0  0  0  0  0
  187.7730  175.8610  137.6840 O   0  0  0  0  0  0  0  0  0  0  0  0
  189.1940  177.8680  136.6270 C   0  0  0  0  0  2  0  0  0  0  0  0
  190.5790  177.3800  138.6710 N   0  0  0  0  0  2  0  0  0  0  0  0
  188.9390  179.0390  138.7140 O   0  0  0  0  0  0  0  0  0  0  0  0
  189.5380  178.1420  138.0590 C   0  0  0  0  0  0  0  0  0  0  0  0
  190.9230  177.5360  140.0760 C   0  0  0  0  0  2  0  0  0  0  0  0
  189.8430  176.4930  141.1040 S   0  0  0  0  0  0  0  0  0  0  0  0
  189.1740  177.9120  142.0390 C   0  0  0  0  0  2  0  0  0  0  0  0
  188.3270  175.9840  143.3680 C   0  0  0  0  0  1  0  0  0  0  0  0
  187.0860  178.0090  143.2040 O   0  0  0  0  0  1  0  0  0  0  0  0
  188.3850  177.5030  143.2860 C   0  0  2  0  0  0  0  0  0  0  0  0
  189.0950  178.0670  144.5360 C   0  0  1  0  0  3  0  0  0  0  0  0
  188.6020  177.4400  145.8370 C   0  0  0  0  0  1  0  0  0  0  0  0
  191.2680  179.0910  143.9700 C   0  0  0  0  0  2  0  0  0  0  0  0
  190.6030  178.0450  144.4580 C   0  0  0  0  0  0  0  0  0  0  0  0
  191.6800  176.7600  146.3390 N   0  0  0  0  0  1  0  0  0  0  0  0
  191.3410  176.8710  144.9580 C   0  0  0  0  0  0  0  0  0  0  0  0
  191.6790  175.9520  144.1670 O   0  0  0  0  0  0  0  0  0  0  0  0
  184.4990  176.5000  137.5800 C   0  0  0  0  0  2  0  0  0  0  0  0
  182.2620  175.6040  138.4680 N   0  0  0  0  0  2  0  0  0  0  0  0
  183.4970  175.4060  137.7650 C   0  0  0  0  0  0  0  0  0  0  0  0
  183.7320  174.2790  137.2570 O   0  0  0  0  0  0  0  0  0  0  0  0
  181.8230  176.7820  139.2230 C   0  0  2  0  0  0  0  0  0  0  0  0
  180.6390  176.4840  136.4990 O   0  0  0  0  0  1  0  0  0  0  0  0
  180.4730  178.2560  141.4950 C   0  0  0  0  0  2  0  0  0  0  0  0
  180.8430  179.5410  141.0380 O   0  0  0  0  0  0  0  0  0  0  0  0
  183.1490  178.5880  140.6460 C   0  0  1  0  0  0  0  0  0  0  0  0
  184.4330  179.1330  140.0570 C   0  0  0  0  0  1  0  0  0  0  0  0
  180.6050  178.8590  136.1870 C   0  0  0  0  0  3  0  0  0  0  0  0
  182.9870  177.1250  140.1920 C   0  0  0  0  0  2  0  0  0  0  0  0
  180.7920  180.1560  136.6630 C   0  0  0  0  0  3  0  0  0  0  0  0
  179.8480  177.4280  140.3830 C   0  0  0  0  0  2  0  0  0  0  0  0
  180.7000  176.3670  140.0010 O   0  0  0  0  0  0  0  0  0  0  0  0
  181.4890  177.9460  138.2680 C   0  0  0  0  0  0  0  0  0  0  0  0
  183.2680  178.6220  142.0350 O   0  0  0  0  0  1  0  0  0  0  0  0
  181.6070  179.2640  138.7590 C   0  0  0  0  0  0  0  0  0  0  0  0
  181.9850  179.4930  140.1920 C   0  0  1  0  0  3  0  0  0  0  0  0
  181.2740  180.3570  137.9550 C   0  0  0  0  0  3  0  0  0  0  0  0
  180.9190  177.7560  136.9860 C   0  0  0  0  0  0  0  0  0  0  0  0
  1 24  1  0  0  0  0
  3  2  1  6  0  0  0
  3  1  1  0  0  0  0
  3  4  1  0  0  0  0
  4  7  1  0  0  0  0
  4  6  2  0  0  0  0
  5  4  2  0  0  0  0
  7 10  1  0  0  0  0
  8 11  1  0  0  0  0
 10  8  1  0  0  0  0
 10  9  2  0  0  0  0
 11 12  1  0  0  0  0
 12 13  1  0  0  0  0
 13 16  1  0  0  0  0
 15 16  1  0  0  0  0
 16 14  1  1  0  0  0
 16 17  1  0  0  0  0
 17 18  1  1  0  0  0
 19 20  2  0  0  0  0
 20 17  1  0  0  0  0
 20 22  1  0  0  0  0
 22 21  1  0  0  0  0
 23 22  2  0  0  0  0
 24 26  1  0  0  0  0
 26 25  1  0  0  0  0
 27 26  2  0  0  0  0
 28 25  1  6  0  0  0
 28 38  1  0  0  0  0
 28 35  1  0  0  0  0
 29 44  1  0  0  0  0
 31 30  1  0  0  0  0
 32 33  1  6  0  0  0
 32 40  1  0  0  0  0
 34 36  2  0  0  0  0
 34 44  1  0  0  0  0
 35 32  1  0  0  0  0
 36 43  1  0  0  0  0
 37 30  1  0  0  0  0
 38 37  1  0  0  0  0
 39 41  1  0  0  0  0
 39 28  1  0  0  0  0
 42 41  1  6  0  0  0
 42 32  1  0  0  0  0
 42 31  1  0  0  0  0
 43 41  2  0  0  0  0
 44 39  2  0  0  0  0
M  END
>  <MODEL>
6

>  <REMARK>
 VINA RESULT:      -6.6      2.395      8.286
  Name = 
  14 active torsions:
  status: ('A' for Active; 'I' for Inactive)
    1  A    between atoms: C_1  and  S_20
    2  A    between atoms: C_1  and  C_28
    3  A    between atoms: S_3  and  C_12
    4  A    between atoms: S_3  and  C_41
    5  A    between atoms: C_5  and  N_13
    6  A    between atoms: C_6  and  C_23
    7  A    between atoms: C_10  and  N_15
    8  A    between atoms: C_10  and  S_20
    9  A    between atoms: C_12  and  C_32
   10  A    between atoms: C_23  and  C_26
   11  A    between atoms: C_24  and  C_41
   12  A    between atoms: C_24  and  C_43
   13  A    between atoms: C_26  and  C_28
   14  A    between atoms: C_37  and  C_43
                            x       y       z     vdW  Elec       q    Type
                         _______ _______ _______ _____ _____    ______ ____

>  <TORSDO>
F 14

$$$$
=
 OpenBabel11062416133D

 44 46  0  0  1  0  0  0  0  0999 V2000
  183.2090  178.2210  139.6060 C   0  0  0  0  0  2  0  0  0  0  0  0
  184.6890  180.1270  139.2640 O   0  0  0  0  0  1  0  0  0  0  0  0
  183.9540  179.4100  140.2130 C   0  0  2  0  0  3  0  0  0  0  0  0
  184.9980  178.9120  141.5750 S   0  0  0  0  0  0  0  0  0  0  0  0
  185.6330  180.1340  142.1790 O   0  0  0  0  0  0  0  0  0  0  0  0
  186.0810  177.9910  141.0850 O   0  0  0  0  0  0  0  0  0  0  0  0
  184.0600  178.0570  142.8400 C   0  0  0  0  0  2  0  0  0  0  0  0
  185.0640  178.0680  145.1470 N   0  0  0  0  0  2  0  0  0  0  0  0
  183.5290  179.7060  144.5110 O   0  0  0  0  0  0  0  0  0  0  0  0
  184.1790  178.6690  144.2020 C   0  0  0  0  0  0  0  0  0  0  0  0
  185.1820  178.5590  146.5120 C   0  0  0  0  0  2  0  0  0  0  0  0
  186.8980  178.3840  147.0940 S   0  0  0  0  0  0  0  0  0  0  0  0
  187.5610  178.1210  145.4130 C   0  0  0  0  0  2  0  0  0  0  0  0
  189.3520  177.0610  146.7790 C   0  0  0  0  0  1  0  0  0  0  0  0
  189.8720  178.6460  145.0790 O   0  0  0  0  0  1  0  0  0  0  0  0
  189.0010  177.6010  145.3990 C   0  0  2  0  0  0  0  0  0  0  0  0
  189.1180  176.4750  144.3510 C   0  0  1  0  0  3  0  0  0  0  0  0
  187.8730  176.3370  143.4790 C   0  0  0  0  0  1  0  0  0  0  0  0
  191.5180  176.0460  143.9670 C   0  0  0  0  0  2  0  0  0  0  0  0
  190.3700  176.5380  143.5070 C   0  0  0  0  0  0  0  0  0  0  0  0
  190.2870  176.2760  141.0020 N   0  0  0  0  0  1  0  0  0  0  0  0
  190.3060  177.1180  142.1530 C   0  0  0  0  0  0  0  0  0  0  0  0
  190.2670  178.3680  142.0010 O   0  0  0  0  0  0  0  0  0  0  0  0
  183.7180  177.7390  138.2490 C   0  0  0  0  0  2  0  0  0  0  0  0
  184.9150  175.5680  137.5790 N   0  0  0  0  0  2  0  0  0  0  0  0
  183.7930  176.2490  138.1610 C   0  0  0  0  0  0  0  0  0  0  0  0
  182.8520  175.5660  138.6430 O   0  0  0  0  0  0  0  0  0  0  0  0
  186.0630  176.1450  136.8710 C   0  0  2  0  0  0  0  0  0  0  0  0
  185.8440  173.1690  136.7600 O   0  0  0  0  0  1  0  0  0  0  0  0
  187.4440  177.8120  134.7570 C   0  0  0  0  0  2  0  0  0  0  0  0
  188.7470  177.5570  135.2380 O   0  0  0  0  0  0  0  0  0  0  0  0
  187.8330  178.0000  137.5510 C   0  0  1  0  0  0  0  0  0  0  0  0
  188.4120  177.9320  138.9490 C   0  0  0  0  0  1  0  0  0  0  0  0
  188.2280  172.9320  136.7880 C   0  0  0  0  0  3  0  0  0  0  0  0
  186.3840  177.4790  137.5970 C   0  0  0  0  0  2  0  0  0  0  0  0
  189.5100  173.4790  136.7620 C   0  0  0  0  0  3  0  0  0  0  0  0
  186.6470  176.5260  134.5960 C   0  0  0  0  0  2  0  0  0  0  0  0
  185.6080  176.4500  135.5520 O   0  0  0  0  0  0  0  0  0  0  0  0
  187.2550  175.1660  136.8790 C   0  0  0  0  0  0  0  0  0  0  0  0
  187.8210  179.3390  137.1590 O   0  0  0  0  0  1  0  0  0  0  0  0
  188.5560  175.7020  136.7820 C   0  0  0  0  0  0  0  0  0  0  0  0
  188.7400  177.1810  136.6110 C   0  0  1  0  0  3  0  0  0  0  0  0
  189.6720  174.8630  136.7380 C   0  0  0  0  0  3  0  0  0  0  0  0
  187.1020  173.7590  136.8160 C   0  0  0  0  0  0  0  0  0  0  0  0
  1  3  1  0  0  0  0
  3  2  1  6  0  0  0
  3  4  1  0  0  0  0
  4  5  2  0  0  0  0
  4  7  1  0  0  0  0
  6  4  2  0  0  0  0
  7 10  1  0  0  0  0
  8 11  1  0  0  0  0
 10  9  2  0  0  0  0
 10  8  1  0  0  0  0
 11 12  1  0  0  0  0
 13 12  1  0  0  0  0
 15 16  1  0  0  0  0
 16 13  1  0  0  0  0
 16 14  1  1  0  0  0
 17 18  1  6  0  0  0
 17 16  1  0  0  0  0
 20 19  2  0  0  0  0
 20 17  1  0  0  0  0
 21 22  1  0  0  0  0
 22 20  1  0  0  0  0
 23 22  2  0  0  0  0
 24  1  1  0  0  0  0
 25 26  1  0  0  0  0
 26 24  1  0  0  0  0
 26 27  2  0  0  0  0
 28 39  1  0  0  0  0
 28 25  1  1  0  0  0
 28 35  1  0  0  0  0
 29 44  1  0  0  0  0
 30 31  1  0  0  0  0
 32 35  1  0  0  0  0
 32 33  1  1  0  0  0
 34 44  1  0  0  0  0
 36 34  2  0  0  0  0
 37 30  1  0  0  0  0
 37 38  1  0  0  0  0
 38 28  1  0  0  0  0
 40 32  1  0  0  0  0
 41 39  1  0  0  0  0
 42 31  1  6  0  0  0
 42 41  1  0  0  0  0
 42 32  1  0  0  0  0
 43 36  1  0  0  0  0
 43 41  2  0  0  0  0
 44 39  2  0  0  0  0
M  END
>  <MODEL>
7

>  <REMARK>
 VINA RESULT:      -6.6      2.693      8.418
  Name = 
  14 active torsions:
  status: ('A' for Active; 'I' for Inactive)
    1  A    between atoms: C_1  and  S_20
    2  A    between atoms: C_1  and  C_28
    3  A    between atoms: S_3  and  C_12
    4  A    between atoms: S_3  and  C_41
    5  A    between atoms: C_5  and  N_13
    6  A    between atoms: C_6  and  C_23
    7  A    between atoms: C_10  and  N_15
    8  A    between atoms: C_10  and  S_20
    9  A    between atoms: C_12  and  C_32
   10  A    between atoms: C_23  and  C_26
   11  A    between atoms: C_24  and  C_41
   12  A    between atoms: C_24  and  C_43
   13  A    between atoms: C_26  and  C_28
   14  A    between atoms: C_37  and  C_43
                            x       y       z     vdW  Elec       q    Type
                         _______ _______ _______ _____ _____    ______ ____

>  <TORSDO>
F 14

$$$$
=
 OpenBabel11062416133D

 44 46  0  0  1  0  0  0  0  0999 V2000
  183.9890  178.6720  141.3050 C   0  0  0  0  0  2  0  0  0  0  0  0
  181.9690  178.8580  142.6560 O   0  0  0  0  0  1  0  0  0  0  0  0
  183.2840  178.3850  142.6320 C   0  0  2  0  0  3  0  0  0  0  0  0
  184.2090  179.0180  144.0230 S   0  0  0  0  0  0  0  0  0  0  0  0
  183.3440  178.9630  145.2530 O   0  0  0  0  0  0  0  0  0  0  0  0
  184.6070  180.4460  143.7710 O   0  0  0  0  0  0  0  0  0  0  0  0
  185.6950  178.0600  144.3120 C   0  0  0  0  0  2  0  0  0  0  0  0
  187.3270  177.3950  146.1080 N   0  0  0  0  0  2  0  0  0  0  0  0
  185.9930  179.2930  146.3580 O   0  0  0  0  0  0  0  0  0  0  0  0
  186.3230  178.3010  145.6510 C   0  0  0  0  0  0  0  0  0  0  0  0
  187.9330  177.5180  147.4250 C   0  0  0  0  0  2  0  0  0  0  0  0
  189.7470  177.4570  147.2870 S   0  0  0  0  0  0  0  0  0  0  0  0
  189.7080  176.7400  145.6090 C   0  0  0  0  0  2  0  0  0  0  0  0
  191.4500  175.7140  144.1560 C   0  0  0  0  0  1  0  0  0  0  0  0
  191.9790  177.4940  145.6470 O   0  0  0  0  0  1  0  0  0  0  0  0
  190.9790  177.0110  144.7990 C   0  0  2  0  0  0  0  0  0  0  0  0
  190.6640  178.0530  143.7050 C   0  0  1  0  0  3  0  0  0  0  0  0
  191.3020  179.4130  143.9730 C   0  0  0  0  0  1  0  0  0  0  0  0
  192.1620  177.7510  141.7670 C   0  0  0  0  0  2  0  0  0  0  0  0
  190.9530  177.5840  142.2980 C   0  0  0  0  0  0  0  0  0  0  0  0
  190.1700  176.3750  140.2300 N   0  0  0  0  0  1  0  0  0  0  0  0
  189.8970  176.9050  141.5250 C   0  0  0  0  0  0  0  0  0  0  0  0
  188.7380  176.7860  142.0050 O   0  0  0  0  0  0  0  0  0  0  0  0
  184.0380  177.5120  140.3130 C   0  0  0  0  0  2  0  0  0  0  0  0
  182.9620  177.2300  137.9980 N   0  0  0  0  0  2  0  0  0  0  0  0
  182.8490  177.4820  139.4070 C   0  0  0  0  0  0  0  0  0  0  0  0
  181.7060  177.6510  139.9040 O   0  0  0  0  0  0  0  0  0  0  0  0
  184.1800  177.1090  137.1900 C   0  0  2  0  0  0  0  0  0  0  0  0
  182.6280  174.5860  137.5670 O   0  0  0  0  0  1  0  0  0  0  0  0
  185.9760  177.6430  134.8130 C   0  0  0  0  0  2  0  0  0  0  0  0
  187.0590  176.8840  135.3120 O   0  0  0  0  0  0  0  0  0  0  0  0
  186.6500  178.0130  137.5340 C   0  0  1  0  0  0  0  0  0  0  0  0
  187.2550  177.8800  138.9160 C   0  0  0  0  0  1  0  0  0  0  0  0
  184.6380  173.2830  137.6010 C   0  0  0  0  0  3  0  0  0  0  0  0
  185.1320  178.2310  137.6840 C   0  0  0  0  0  2  0  0  0  0  0  0
  186.0210  173.1690  137.4670 C   0  0  0  0  0  3  0  0  0  0  0  0
  184.6720  176.8600  134.8750 C   0  0  0  0  0  2  0  0  0  0  0  0
  183.8000  177.4050  135.8450 O   0  0  0  0  0  0  0  0  0  0  0  0
  184.7950  175.7030  137.3400 C   0  0  0  0  0  0  0  0  0  0  0  0
  187.2110  179.1390  136.9300 O   0  0  0  0  0  1  0  0  0  0  0  0
  186.1840  175.5600  137.1390 C   0  0  0  0  0  0  0  0  0  0  0  0
  187.0020  176.7470  136.7280 C   0  0  1  0  0  3  0  0  0  0  0  0
  186.7910  174.3040  137.2170 C   0  0  0  0  0  3  0  0  0  0  0  0
  184.0170  174.5310  137.5090 C   0  0  0  0  0  0  0  0  0  0  0  0
  1  3  1  0  0  0  0
  3  2  1  6  0  0  0
  3  4  1  0  0  0  0
  4  7  1  0  0  0  0
  4  5  2  0  0  0  0
  6  4  2  0  0  0  0
  7 10  1  0  0  0  0
  8 11  1  0  0  0  0
 10  8  1  0  0  0  0
 10  9  2  0  0  0  0
 12 11  1  0  0  0  0
 13 12  1  0  0  0  0
 16 14  1  6  0  0  0
 16 13  1  0  0  0  0
 16 15  1  0  0  0  0
 17 18  1  1  0  0  0
 17 16  1  0  0  0  0
 19 20  2  0  0  0  0
 20 17  1  0  0  0  0
 21 22  1  0  0  0  0
 22 23  2  0  0  0  0
 22 20  1  0  0  0  0
 24  1  1  0  0  0  0
 25 26  1  0  0  0  0
 26 27  2  0  0  0  0
 26 24  1  0  0  0  0
 28 39  1  0  0  0  0
 28 35  1  0  0  0  0
 28 25  1  1  0  0  0
 30 37  1  0  0  0  0
 30 31  1  0  0  0  0
 32 35  1  0  0  0  0
 32 33  1  1  0  0  0
 36 34  2  0  0  0  0
 37 38  1  0  0  0  0
 38 28  1  0  0  0  0
 39 44  2  0  0  0  0
 40 32  1  0  0  0  0
 41 43  2  0  0  0  0
 41 39  1  0  0  0  0
 42 31  1  6  0  0  0
 42 41  1  0  0  0  0
 42 32  1  0  0  0  0
 43 36  1  0  0  0  0
 44 29  1  0  0  0  0
 44 34  1  0  0  0  0
M  END
>  <MODEL>
8

>  <REMARK>
 VINA RESULT:      -6.5      2.967      9.059
  Name = 
  14 active torsions:
  status: ('A' for Active; 'I' for Inactive)
    1  A    between atoms: C_1  and  S_20
    2  A    between atoms: C_1  and  C_28
    3  A    between atoms: S_3  and  C_12
    4  A    between atoms: S_3  and  C_41
    5  A    between atoms: C_5  and  N_13
    6  A    between atoms: C_6  and  C_23
    7  A    between atoms: C_10  and  N_15
    8  A    between atoms: C_10  and  S_20
    9  A    between atoms: C_12  and  C_32
   10  A    between atoms: C_23  and  C_26
   11  A    between atoms: C_24  and  C_41
   12  A    between atoms: C_24  and  C_43
   13  A    between atoms: C_26  and  C_28
   14  A    between atoms: C_37  and  C_43
                            x       y       z     vdW  Elec       q    Type
                         _______ _______ _______ _____ _____    ______ ____

>  <TORSDO>
F 14

$$$$
=
 OpenBabel11062416133D

 44 46  0  0  1  0  0  0  0  0999 V2000
  183.7660  179.4350  143.4300 C   0  0  0  0  0  2  0  0  0  0  0  0
  182.3600  178.7240  145.2900 O   0  0  0  0  0  1  0  0  0  0  0  0
  183.5920  178.5360  144.6550 C   0  0  2  0  0  3  0  0  0  0  0  0
  184.9360  178.7310  145.8170 S   0  0  0  0  0  0  0  0  0  0  0  0
  184.4860  178.2560  147.1710 O   0  0  0  0  0  0  0  0  0  0  0  0
  185.3280  180.1790  145.9130 O   0  0  0  0  0  0  0  0  0  0  0  0
  186.3750  177.7880  145.3160 C   0  0  0  0  0  2  0  0  0  0  0  0
  188.7280  177.1920  145.9780 N   0  0  0  0  0  2  0  0  0  0  0  0
  187.3010  178.2520  147.4890 O   0  0  0  0  0  0  0  0  0  0  0  0
  187.4700  177.7630  146.3380 C   0  0  0  0  0  0  0  0  0  0  0  0
  189.8180  177.0650  146.9330 C   0  0  0  0  0  2  0  0  0  0  0  0
  191.3930  176.8130  146.0560 S   0  0  0  0  0  0  0  0  0  0  0  0
  190.7460  177.4560  144.4750 C   0  0  0  0  0  2  0  0  0  0  0  0
  191.6900  175.2700  143.7480 C   0  0  0  0  0  1  0  0  0  0  0  0
  192.1090  177.2650  142.5160 O   0  0  0  0  0  1  0  0  0  0  0  0
  191.1330  176.6020  143.2640 C   0  0  2  0  0  0  0  0  0  0  0  0
  189.8770  176.3600  142.3990 C   0  0  1  0  0  3  0  0  0  0  0  0
  188.6410  176.0120  143.2240 C   0  0  0  0  0  1  0  0  0  0  0  0
  189.0600  178.6180  141.8280 C   0  0  0  0  0  2  0  0  0  0  0  0
  189.5790  177.4640  141.4120 C   0  0  0  0  0  0  0  0  0  0  0  0
  190.5780  176.0970  139.5460 N   0  0  0  0  0  1  0  0  0  0  0  0
  189.9000  177.2720  139.9860 C   0  0  0  0  0  0  0  0  0  0  0  0
  189.5760  178.1470  139.1410 O   0  0  0  0  0  0  0  0  0  0  0  0
  183.4180  178.8020  142.0850 C   0  0  0  0  0  2  0  0  0  0  0  0
  184.4790  178.3950  139.7820 N   0  0  0  0  0  2  0  0  0  0  0  0
  184.6040  178.6860  141.1820 C   0  0  0  0  0  0  0  0  0  0  0  0
  185.7510  178.8810  141.6620 O   0  0  0  0  0  0  0  0  0  0  0  0
  183.2720  178.0320  139.0320 C   0  0  2  0  0  0  0  0  0  0  0  0
  184.1830  180.8580  138.7170 O   0  0  0  0  0  1  0  0  0  0  0  0
  181.6670  176.5370  136.9470 C   0  0  0  0  0  2  0  0  0  0  0  0
  180.4330  177.1240  137.3050 O   0  0  0  0  0  0  0  0  0  0  0  0
  181.0820  176.6960  139.7080 C   0  0  1  0  0  0  0  0  0  0  0  0
  180.4550  177.0190  141.0480 C   0  0  0  0  0  1  0  0  0  0  0  0
  181.9220  181.6310  138.5420 C   0  0  0  0  0  3  0  0  0  0  0  0
  182.6080  176.8770  139.8270 C   0  0  0  0  0  2  0  0  0  0  0  0
  180.5520  181.3890  138.4570 C   0  0  0  0  0  3  0  0  0  0  0  0
  182.7490  177.5890  136.7530 C   0  0  0  0  0  2  0  0  0  0  0  0
  183.7190  177.5130  137.7780 O   0  0  0  0  0  0  0  0  0  0  0  0
  182.3420  179.2520  138.8740 C   0  0  0  0  0  0  0  0  0  0  0  0
  180.8060  175.3590  139.4190 O   0  0  0  0  0  1  0  0  0  0  0  0
  180.9600  179.0180  138.7170 C   0  0  0  0  0  0  0  0  0  0  0  0
  180.4470  177.6110  138.6430 C   0  0  1  0  0  3  0  0  0  0  0  0
  180.0730  180.0810  138.5240 C   0  0  0  0  0  3  0  0  0  0  0  0
  182.8210  180.5760  138.7190 C   0  0  0  0  0  0  0  0  0  0  0  0
  1  3  1  0  0  0  0
  3  2  1  1  0  0  0
  3  4  1  0  0  0  0
  4  6  2  0  0  0  0
  4  5  2  0  0  0  0
  7  4  1  0  0  0  0
  7 10  1  0  0  0  0
  8 10  1  0  0  0  0
  8 11  1  0  0  0  0
 10  9  2  0  0  0  0
 12 11  1  0  0  0  0
 13 12  1  0  0  0  0
 15 16  1  0  0  0  0
 16 14  1  1  0  0  0
 16 13  1  0  0  0  0
 17 18  1  1  0  0  0
 17 16  1  0  0  0  0
 20 19  2  0  0  0  0
 20 17  1  0  0  0  0
 21 22  1  0  0  0  0
 22 20  1  0  0  0  0
 23 22  2  0  0  0  0
 24  1  1  0  0  0  0
 25 26  1  0  0  0  0
 26 27  2  0  0  0  0
 26 24  1  0  0  0  0
 28 25  1  1  0  0  0
 28 35  1  0  0  0  0
 29 44  1  0  0  0  0
 30 31  1  0  0  0  0
 32 35  1  0  0  0  0
 32 33  1  1  0  0  0
 34 44  1  0  0  0  0
 36 43  1  0  0  0  0
 36 34  2  0  0  0  0
 37 30  1  0  0  0  0
 37 38  1  0  0  0  0
 38 28  1  0  0  0  0
 39 28  1  0  0  0  0
 40 32  1  0  0  0  0
 41 39  1  0  0  0  0
 42 31  1  6  0  0  0
 42 41  1  0  0  0  0
 42 32  1  0  0  0  0
 43 41  2  0  0  0  0
 44 39  2  0  0  0  0
M  END
>  <MODEL>
9

>  <REMARK>
 VINA RESULT:      -6.4      3.329      9.591
  Name = 
  14 active torsions:
  status: ('A' for Active; 'I' for Inactive)
    1  A    between atoms: C_1  and  S_20
    2  A    between atoms: C_1  and  C_28
    3  A    between atoms: S_3  and  C_12
    4  A    between atoms: S_3  and  C_41
    5  A    between atoms: C_5  and  N_13
    6  A    between atoms: C_6  and  C_23
    7  A    between atoms: C_10  and  N_15
    8  A    between atoms: C_10  and  S_20
    9  A    between atoms: C_12  and  C_32
   10  A    between atoms: C_23  and  C_26
   11  A    between atoms: C_24  and  C_41
   12  A    between atoms: C_24  and  C_43
   13  A    between atoms: C_26  and  C_28
   14  A    between atoms: C_37  and  C_43
                            x       y       z     vdW  Elec       q    Type
                         _______ _______ _______ _____ _____    ______ ____

>  <TORSDO>
F 14

$$$$
