=
 OpenBabel11062418083D

 25 27  0  0  0  0  0  0  0  0999 V2000
  188.0430  177.5880  146.7800 C   0  0  0  0  0  0  0  0  0  0  0  0
  186.7580  177.9620  147.1680 C   0  0  0  0  0  3  0  0  0  0  0  0
  185.2190  178.6240  143.9110 C   0  0  0  0  0  0  0  0  0  0  0  0
  185.8580  178.2990  146.1480 C   0  0  0  0  0  0  0  0  0  0  0  0
  183.9210  178.9630  144.9040 S   0  0  0  0  0  0  0  0  0  0  0  0
  187.5640  177.8720  144.4110 C   0  0  0  0  0  0  0  0  0  0  0  0
  188.4330  177.5440  145.4610 C   0  0  0  0  0  0  0  0  0  0  0  0
  186.2520  178.2570  144.7720 C   0  0  0  0  0  0  0  0  0  0  0  0
  189.1170  177.2130  147.5590 C   0  0  0  0  0  3  0  0  0  0  0  0
  184.5790  178.6750  146.4050 N   0  0  0  0  0  0  0  0  0  0  0  0
  190.1120  176.9610  146.6140 C   0  0  0  0  0  0  0  0  0  0  0  0
  189.6820  177.1650  145.3820 O   0  0  0  0  0  0  0  0  0  0  0  0
  192.1030  176.9750  148.0840 O   0  0  0  0  0  1  0  0  0  0  0  0
  192.0790  175.7360  146.1580 O   0  0  0  0  0  0  0  0  0  0  0  0
  191.4740  176.5240  146.9310 C   0  0  0  0  0  0  0  0  0  0  0  0
  185.2260  178.7560  141.2710 C   0  0  0  0  0  0  0  0  0  0  0  0
  185.2210  178.6940  142.4750 C   0  0  0  0  0  0  0  0  0  0  0  0
  185.2320  178.8380  139.8100 C   0  0  0  0  0  2  0  0  0  0  0  0
  186.4350  178.0880  139.2690 C   0  0  0  0  0  2  0  0  0  0  0  0
  187.6360  178.6270  139.8070 O   0  0  0  0  0  0  0  0  0  0  0  0
  188.8400  178.6290  139.0980 C   0  0  0  0  0  0  0  0  0  0  0  0
  189.9040  177.8640  139.5560 O   0  0  0  0  0  1  0  0  0  0  0  0
  188.9740  179.3160  138.0510 O   0  0  0  0  0  0  0  0  0  0  0  0
  187.9780  177.8250  143.0410 N   0  0  0  0  0  2  0  0  0  0  0  0
  188.2890  176.6620  142.4230 O   0  0  0  0  0  1  0  0  0  0  0  0
  1  2  2  0  0  0  0
  1  9  1  0  0  0  0
  3  8  2  0  0  0  0
  3  5  1  0  0  0  0
  4 10  2  0  0  0  0
  4  2  1  0  0  0  0
  5 10  1  0  0  0  0
  6  8  1  0  0  0  0
  6  7  2  0  0  0  0
  7  1  1  0  0  0  0
  8  4  1  0  0  0  0
 11 15  1  0  0  0  0
 11  9  2  0  0  0  0
 12  7  1  0  0  0  0
 12 11  1  0  0  0  0
 14 15  2  0  0  0  0
 15 13  1  0  0  0  0
 16 17  3  0  0  0  0
 17  3  1  0  0  0  0
 18 16  1  0  0  0  0
 19 20  1  0  0  0  0
 19 18  1  0  0  0  0
 21 22  1  0  0  0  0
 21 20  1  0  0  0  0
 23 21  2  0  0  0  0
 24  6  1  0  0  0  0
 25 24  1  0  0  0  0
M  END
>  <MODEL>
1

>  <REMARK>
 VINA RESULT:      -8.4      0.000      0.000
  Name = 
  7 active torsions:
  status: ('A' for Active; 'I' for Inactive)
    1  A    between atoms: C_1  and  O_24
    2  A    between atoms: C_4  and  C_19
    3  A    between atoms: C_11  and  N_14
    4  A    between atoms: C_13  and  C_22
    5  A    between atoms: C_15  and  C_22
    6  A    between atoms: C_15  and  O_24
    7  A    between atoms: C_17  and  C_23
                            x       y       z     vdW  Elec       q    Type
                         _______ _______ _______ _____ _____    ______ ____

>  <TORSDO>
F 7

$$$$
=
 OpenBabel11062418083D

 25 27  0  0  0  0  0  0  0  0999 V2000
  187.8410  177.7920  146.2620 C   0  0  0  0  0  0  0  0  0  0  0  0
  186.6400  178.2420  146.8070 C   0  0  0  0  0  3  0  0  0  0  0  0
  184.5540  178.4440  143.8030 C   0  0  0  0  0  0  0  0  0  0  0  0
  185.5740  178.4410  145.9190 C   0  0  0  0  0  0  0  0  0  0  0  0
  183.4460  178.9500  144.9420 S   0  0  0  0  0  0  0  0  0  0  0  0
  186.9570  177.7330  143.9970 C   0  0  0  0  0  0  0  0  0  0  0  0
  187.9970  177.5470  144.9180 C   0  0  0  0  0  0  0  0  0  0  0  0
  185.7240  178.1890  144.5170 C   0  0  0  0  0  0  0  0  0  0  0  0
  189.0360  177.5170  146.8920 C   0  0  0  0  0  3  0  0  0  0  0  0
  184.3560  178.8750  146.3340 N   0  0  0  0  0  0  0  0  0  0  0  0
  189.8550  177.1100  145.8370 C   0  0  0  0  0  0  0  0  0  0  0  0
  189.2160  177.1380  144.6820 O   0  0  0  0  0  0  0  0  0  0  0  0
  191.9110  176.8520  147.1910 O   0  0  0  0  0  1  0  0  0  0  0  0
  191.8680  176.2080  144.9940 O   0  0  0  0  0  0  0  0  0  0  0  0
  191.2540  176.7000  145.9770 C   0  0  0  0  0  0  0  0  0  0  0  0
  184.0970  178.1850  141.2120 C   0  0  0  0  0  0  0  0  0  0  0  0
  184.3070  178.3010  142.3930 C   0  0  0  0  0  0  0  0  0  0  0  0
  183.8370  178.0470  139.7790 C   0  0  0  0  0  2  0  0  0  0  0  0
  184.6570  179.0700  139.0160 C   0  0  0  0  0  2  0  0  0  0  0  0
  186.0190  178.6650  138.9570 O   0  0  0  0  0  0  0  0  0  0  0  0
  186.6200  178.2280  137.7750 C   0  0  0  0  0  0  0  0  0  0  0  0
  186.5310  176.8900  137.4160 O   0  0  0  0  0  1  0  0  0  0  0  0
  187.2440  179.0300  137.0300 O   0  0  0  0  0  0  0  0  0  0  0  0
  187.1280  177.4760  142.5980 N   0  0  0  0  0  2  0  0  0  0  0  0
  187.7910  178.3310  141.7860 O   0  0  0  0  0  1  0  0  0  0  0  0
  1  2  2  0  0  0  0
  1  9  1  0  0  0  0
  3  8  2  0  0  0  0
  3  5  1  0  0  0  0
  4 10  2  0  0  0  0
  4  2  1  0  0  0  0
  5 10  1  0  0  0  0
  6  8  1  0  0  0  0
  6  7  2  0  0  0  0
  7  1  1  0  0  0  0
  8  4  1  0  0  0  0
 11 15  1  0  0  0  0
 11  9  2  0  0  0  0
 12  7  1  0  0  0  0
 12 11  1  0  0  0  0
 14 15  2  0  0  0  0
 15 13  1  0  0  0  0
 16 17  3  0  0  0  0
 17  3  1  0  0  0  0
 18 16  1  0  0  0  0
 19 18  1  0  0  0  0
 20 19  1  0  0  0  0
 21 20  1  0  0  0  0
 22 21  1  0  0  0  0
 23 21  2  0  0  0  0
 24  6  1  0  0  0  0
 25 24  1  0  0  0  0
M  END
>  <MODEL>
2

>  <REMARK>
 VINA RESULT:      -8.2      1.306      1.461
  Name = 
  7 active torsions:
  status: ('A' for Active; 'I' for Inactive)
    1  A    between atoms: C_1  and  O_24
    2  A    between atoms: C_4  and  C_19
    3  A    between atoms: C_11  and  N_14
    4  A    between atoms: C_13  and  C_22
    5  A    between atoms: C_15  and  C_22
    6  A    between atoms: C_15  and  O_24
    7  A    between atoms: C_17  and  C_23
                            x       y       z     vdW  Elec       q    Type
                         _______ _______ _______ _____ _____    ______ ____

>  <TORSDO>
F 7

$$$$
=
 OpenBabel11062418083D

 25 27  0  0  0  0  0  0  0  0999 V2000
  184.6910  178.6170  145.4290 C   0  0  0  0  0  0  0  0  0  0  0  0
  185.2670  178.6390  146.6980 C   0  0  0  0  0  3  0  0  0  0  0  0
  188.6700  177.5250  145.9270 C   0  0  0  0  0  0  0  0  0  0  0  0
  186.6120  178.2570  146.7910 C   0  0  0  0  0  0  0  0  0  0  0  0
  188.8150  177.7330  147.5760 S   0  0  0  0  0  0  0  0  0  0  0  0
  186.7370  177.8550  144.3560 C   0  0  0  0  0  0  0  0  0  0  0  0
  185.3910  178.2430  144.3050 C   0  0  0  0  0  0  0  0  0  0  0  0
  187.3520  177.8660  145.6290 C   0  0  0  0  0  0  0  0  0  0  0  0
  183.4050  178.9370  145.0480 C   0  0  0  0  0  3  0  0  0  0  0  0
  187.2810  178.2410  147.9730 N   0  0  0  0  0  0  0  0  0  0  0  0
  183.4280  178.7230  143.6690 C   0  0  0  0  0  0  0  0  0  0  0  0
  184.6130  178.3130  143.2560 O   0  0  0  0  0  0  0  0  0  0  0  0
  182.3750  178.5690  141.4340 O   0  0  0  0  0  0  0  0  0  0  0  0
  181.2170  179.4190  143.2170 O   0  0  0  0  0  1  0  0  0  0  0  0
  182.2860  178.9230  142.7740 C   0  0  0  0  0  0  0  0  0  0  0  0
  190.5890  176.7380  144.2880 C   0  0  0  0  0  0  0  0  0  0  0  0
  189.7160  177.0960  145.0380 C   0  0  0  0  0  0  0  0  0  0  0  0
  191.6460  176.3030  143.3750 C   0  0  0  0  0  2  0  0  0  0  0  0
  191.5450  177.0840  142.0780 C   0  0  0  0  0  2  0  0  0  0  0  0
  190.4180  176.6510  141.3280 O   0  0  0  0  0  0  0  0  0  0  0  0
  190.3350  176.8050  139.9420 C   0  0  0  0  0  0  0  0  0  0  0  0
  189.8020  177.9730  139.4150 O   0  0  0  0  0  1  0  0  0  0  0  0
  190.7370  175.8990  139.1640 O   0  0  0  0  0  0  0  0  0  0  0  0
  187.4590  177.4660  143.1810 N   0  0  0  0  0  2  0  0  0  0  0  0
  187.7150  178.3330  142.1740 O   0  0  0  0  0  1  0  0  0  0  0  0
  1  2  2  0  0  0  0
  2  4  1  0  0  0  0
  3  5  1  0  0  0  0
  4 10  2  0  0  0  0
  5 10  1  0  0  0  0
  6  8  1  0  0  0  0
  7  6  2  0  0  0  0
  7  1  1  0  0  0  0
  8  3  2  0  0  0  0
  8  4  1  0  0  0  0
  9  1  1  0  0  0  0
 11  9  2  0  0  0  0
 12 11  1  0  0  0  0
 12  7  1  0  0  0  0
 13 15  2  0  0  0  0
 15 14  1  0  0  0  0
 15 11  1  0  0  0  0
 16 17  3  0  0  0  0
 17  3  1  0  0  0  0
 18 16  1  0  0  0  0
 19 18  1  0  0  0  0
 20 19  1  0  0  0  0
 21 20  1  0  0  0  0
 22 21  1  0  0  0  0
 23 21  2  0  0  0  0
 24  6  1  0  0  0  0
 25 24  1  0  0  0  0
M  END
>  <MODEL>
3

>  <REMARK>
 VINA RESULT:      -8.1      2.993      5.717
  Name = 
  7 active torsions:
  status: ('A' for Active; 'I' for Inactive)
    1  A    between atoms: C_1  and  O_24
    2  A    between atoms: C_4  and  C_19
    3  A    between atoms: C_11  and  N_14
    4  A    between atoms: C_13  and  C_22
    5  A    between atoms: C_15  and  C_22
    6  A    between atoms: C_15  and  O_24
    7  A    between atoms: C_17  and  C_23
                            x       y       z     vdW  Elec       q    Type
                         _______ _______ _______ _____ _____    ______ ____

>  <TORSDO>
F 7

$$$$
=
 OpenBabel11062418083D

 25 27  0  0  0  0  0  0  0  0999 V2000
  183.3520  178.8120  143.9950 C   0  0  0  0  0  0  0  0  0  0  0  0
  183.6060  178.9010  145.3630 C   0  0  0  0  0  3  0  0  0  0  0  0
  187.1640  178.0370  145.4620 C   0  0  0  0  0  0  0  0  0  0  0  0
  184.9130  178.6260  145.7860 C   0  0  0  0  0  0  0  0  0  0  0  0
  186.8950  178.2860  147.0890 S   0  0  0  0  0  0  0  0  0  0  0  0
  185.6440  178.1890  143.4660 C   0  0  0  0  0  0  0  0  0  0  0  0
  184.3250  178.4710  143.0840 C   0  0  0  0  0  0  0  0  0  0  0  0
  185.9340  178.2700  144.8480 C   0  0  0  0  0  0  0  0  0  0  0  0
  182.1750  179.0250  143.3100 C   0  0  0  0  0  3  0  0  0  0  0  0
  185.2790  178.6830  147.0930 N   0  0  0  0  0  0  0  0  0  0  0  0
  182.5430  178.7870  141.9840 C   0  0  0  0  0  0  0  0  0  0  0  0
  183.8180  178.4620  141.8790 O   0  0  0  0  0  0  0  0  0  0  0  0
  180.2650  178.7600  141.0160 O   0  0  0  0  0  1  0  0  0  0  0  0
  182.0990  179.0770  139.6820 O   0  0  0  0  0  0  0  0  0  0  0  0
  181.6370  178.8830  140.8370 C   0  0  0  0  0  0  0  0  0  0  0  0
  189.4710  177.3730  144.3570 C   0  0  0  0  0  0  0  0  0  0  0  0
  188.4190  177.6730  144.8620 C   0  0  0  0  0  0  0  0  0  0  0  0
  190.7480  177.0120  143.7390 C   0  0  0  0  0  2  0  0  0  0  0  0
  191.6220  176.3090  144.7620 C   0  0  0  0  0  2  0  0  0  0  0  0
  191.8080  177.1360  145.9030 O   0  0  0  0  0  0  0  0  0  0  0  0
  191.5490  176.6900  147.2010 C   0  0  0  0  0  0  0  0  0  0  0  0
  192.5660  176.0920  147.9340 O   0  0  0  0  0  1  0  0  0  0  0  0
  190.4070  176.8220  147.7160 O   0  0  0  0  0  0  0  0  0  0  0  0
  186.6510  177.8340  142.5110 N   0  0  0  0  0  2  0  0  0  0  0  0
  187.1990  178.7430  141.6720 O   0  0  0  0  0  1  0  0  0  0  0  0
  1  2  2  0  0  0  0
  2  4  1  0  0  0  0
  3  5  1  0  0  0  0
  4 10  2  0  0  0  0
  5 10  1  0  0  0  0
  6  8  1  0  0  0  0
  7  6  2  0  0  0  0
  7  1  1  0  0  0  0
  8  3  2  0  0  0  0
  8  4  1  0  0  0  0
  9  1  1  0  0  0  0
 11  9  2  0  0  0  0
 12 11  1  0  0  0  0
 12  7  1  0  0  0  0
 14 15  2  0  0  0  0
 15 13  1  0  0  0  0
 15 11  1  0  0  0  0
 16 17  3  0  0  0  0
 17  3  1  0  0  0  0
 18 16  1  0  0  0  0
 18 19  1  0  0  0  0
 19 20  1  0  0  0  0
 20 21  1  0  0  0  0
 21 23  2  0  0  0  0
 21 22  1  0  0  0  0
 24  6  1  0  0  0  0
 25 24  1  0  0  0  0
M  END
>  <MODEL>
4

>  <REMARK>
 VINA RESULT:      -8.0      2.768      7.103
  Name = 
  7 active torsions:
  status: ('A' for Active; 'I' for Inactive)
    1  A    between atoms: C_1  and  O_24
    2  A    between atoms: C_4  and  C_19
    3  A    between atoms: C_11  and  N_14
    4  A    between atoms: C_13  and  C_22
    5  A    between atoms: C_15  and  C_22
    6  A    between atoms: C_15  and  O_24
    7  A    between atoms: C_17  and  C_23
                            x       y       z     vdW  Elec       q    Type
                         _______ _______ _______ _____ _____    ______ ____

>  <TORSDO>
F 7

$$$$
=
 OpenBabel11062418083D

 25 27  0  0  0  0  0  0  0  0999 V2000
  183.7000  178.7080  143.8000 C   0  0  0  0  0  0  0  0  0  0  0  0
  183.7830  178.8980  145.1790 C   0  0  0  0  0  3  0  0  0  0  0  0
  187.2710  177.9640  145.7930 C   0  0  0  0  0  0  0  0  0  0  0  0
  185.0180  178.6270  145.7840 C   0  0  0  0  0  0  0  0  0  0  0  0
  186.8090  178.3450  147.3500 S   0  0  0  0  0  0  0  0  0  0  0  0
  186.0190  177.9950  143.6150 C   0  0  0  0  0  0  0  0  0  0  0  0
  184.7680  178.2760  143.0480 C   0  0  0  0  0  0  0  0  0  0  0  0
  186.1360  178.1760  145.0120 C   0  0  0  0  0  0  0  0  0  0  0  0
  182.6250  178.8940  142.9570 C   0  0  0  0  0  3  0  0  0  0  0  0
  185.2190  178.7770  147.1190 N   0  0  0  0  0  0  0  0  0  0  0  0
  183.1480  178.5460  141.7100 C   0  0  0  0  0  0  0  0  0  0  0  0
  184.4150  178.1840  141.7930 O   0  0  0  0  0  0  0  0  0  0  0  0
  183.0430  178.8450  139.2550 O   0  0  0  0  0  0  0  0  0  0  0  0
  181.1570  178.3480  140.4550 O   0  0  0  0  0  1  0  0  0  0  0  0
  182.3960  178.5720  140.4530 C   0  0  0  0  0  0  0  0  0  0  0  0
  189.6770  177.1610  145.0490 C   0  0  0  0  0  0  0  0  0  0  0  0
  188.5790  177.5260  145.3860 C   0  0  0  0  0  0  0  0  0  0  0  0
  191.0130  176.7220  144.6440 C   0  0  0  0  0  2  0  0  0  0  0  0
  191.6840  177.8230  143.8430 C   0  0  0  0  0  2  0  0  0  0  0  0
  190.9660  178.0660  142.6400 O   0  0  0  0  0  0  0  0  0  0  0  0
  191.1680  177.3120  141.4820 C   0  0  0  0  0  0  0  0  0  0  0  0
  190.3180  176.2510  141.1990 O   0  0  0  0  0  1  0  0  0  0  0  0
  192.1110  177.5800  140.6910 O   0  0  0  0  0  0  0  0  0  0  0  0
  187.1250  177.5440  142.8250 N   0  0  0  0  0  2  0  0  0  0  0  0
  187.7630  178.3560  141.9500 O   0  0  0  0  0  1  0  0  0  0  0  0
  1  2  2  0  0  0  0
  2  4  1  0  0  0  0
  3  5  1  0  0  0  0
  4 10  2  0  0  0  0
  6  8  1  0  0  0  0
  7  6  2  0  0  0  0
  7  1  1  0  0  0  0
  8  4  1  0  0  0  0
  8  3  2  0  0  0  0
  9  1  1  0  0  0  0
 10  5  1  0  0  0  0
 11 12  1  0  0  0  0
 11  9  2  0  0  0  0
 12  7  1  0  0  0  0
 13 15  2  0  0  0  0
 15 14  1  0  0  0  0
 15 11  1  0  0  0  0
 16 17  3  0  0  0  0
 17  3  1  0  0  0  0
 18 16  1  0  0  0  0
 19 18  1  0  0  0  0
 20 19  1  0  0  0  0
 21 20  1  0  0  0  0
 22 21  1  0  0  0  0
 23 21  2  0  0  0  0
 24  6  1  0  0  0  0
 25 24  1  0  0  0  0
M  END
>  <MODEL>
5

>  <REMARK>
 VINA RESULT:      -7.9      2.685      6.175
  Name = 
  7 active torsions:
  status: ('A' for Active; 'I' for Inactive)
    1  A    between atoms: C_1  and  O_24
    2  A    between atoms: C_4  and  C_19
    3  A    between atoms: C_11  and  N_14
    4  A    between atoms: C_13  and  C_22
    5  A    between atoms: C_15  and  C_22
    6  A    between atoms: C_15  and  O_24
    7  A    between atoms: C_17  and  C_23
                            x       y       z     vdW  Elec       q    Type
                         _______ _______ _______ _____ _____    ______ ____

>  <TORSDO>
F 7

$$$$
=
 OpenBabel11062418083D

 25 27  0  0  0  0  0  0  0  0999 V2000
  184.6100  178.8460  143.0740 C   0  0  0  0  0  0  0  0  0  0  0  0
  184.1170  178.9650  144.3720 C   0  0  0  0  0  3  0  0  0  0  0  0
  187.0240  177.8740  146.3140 C   0  0  0  0  0  0  0  0  0  0  0  0
  184.9860  178.6190  145.4160 C   0  0  0  0  0  0  0  0  0  0  0  0
  185.9640  178.1950  147.5620 S   0  0  0  0  0  0  0  0  0  0  0  0
  186.7870  178.0580  143.8200 C   0  0  0  0  0  0  0  0  0  0  0  0
  185.8870  178.4130  142.8050 C   0  0  0  0  0  0  0  0  0  0  0  0
  186.3180  178.1660  145.1490 C   0  0  0  0  0  0  0  0  0  0  0  0
  183.9830  179.1130  141.8750 C   0  0  0  0  0  3  0  0  0  0  0  0
  184.6180  178.6970  146.7210 N   0  0  0  0  0  0  0  0  0  0  0  0
  184.9710  178.8070  140.9360 C   0  0  0  0  0  0  0  0  0  0  0  0
  186.0850  178.3960  141.5130 O   0  0  0  0  0  0  0  0  0  0  0  0
  184.3590  180.1120  138.9230 O   0  0  0  0  0  1  0  0  0  0  0  0
  185.0720  177.9430  138.7410 O   0  0  0  0  0  0  0  0  0  0  0  0
  184.8070  178.9230  139.4850 C   0  0  0  0  0  0  0  0  0  0  0  0
  189.5130  177.0240  146.5790 C   0  0  0  0  0  0  0  0  0  0  0  0
  188.3770  177.4090  146.4580 C   0  0  0  0  0  0  0  0  0  0  0  0
  190.8940  176.5620  146.7250 C   0  0  0  0  0  2  0  0  0  0  0  0
  191.5800  176.5910  145.3720 C   0  0  0  0  0  2  0  0  0  0  0  0
  191.9640  177.9190  145.0430 O   0  0  0  0  0  0  0  0  0  0  0  0
  191.5080  178.5680  143.8930 C   0  0  0  0  0  0  0  0  0  0  0  0
  190.9230  179.8230  144.0010 O   0  0  0  0  0  1  0  0  0  0  0  0
  191.6180  178.0300  142.7590 O   0  0  0  0  0  0  0  0  0  0  0  0
  188.1150  177.6060  143.5310 N   0  0  0  0  0  2  0  0  0  0  0  0
  188.3540  176.4460  142.8760 O   0  0  0  0  0  1  0  0  0  0  0  0
  1  2  2  0  0  0  0
  2  4  1  0  0  0  0
  3 17  1  0  0  0  0
  3  5  1  0  0  0  0
  4 10  2  0  0  0  0
  6  8  1  0  0  0  0
  7  1  1  0  0  0  0
  7  6  2  0  0  0  0
  8  4  1  0  0  0  0
  8  3  2  0  0  0  0
  9  1  1  0  0  0  0
 10  5  1  0  0  0  0
 11 12  1  0  0  0  0
 11  9  2  0  0  0  0
 12  7  1  0  0  0  0
 13 15  1  0  0  0  0
 14 15  2  0  0  0  0
 15 11  1  0  0  0  0
 16 18  1  0  0  0  0
 17 16  3  0  0  0  0
 19 18  1  0  0  0  0
 20 19  1  0  0  0  0
 21 22  1  0  0  0  0
 21 20  1  0  0  0  0
 23 21  2  0  0  0  0
 24  6  1  0  0  0  0
 25 24  1  0  0  0  0
M  END
>  <MODEL>
6

>  <REMARK>
 VINA RESULT:      -7.8      1.992      6.210
  Name = 
  7 active torsions:
  status: ('A' for Active; 'I' for Inactive)
    1  A    between atoms: C_1  and  O_24
    2  A    between atoms: C_4  and  C_19
    3  A    between atoms: C_11  and  N_14
    4  A    between atoms: C_13  and  C_22
    5  A    between atoms: C_15  and  C_22
    6  A    between atoms: C_15  and  O_24
    7  A    between atoms: C_17  and  C_23
                            x       y       z     vdW  Elec       q    Type
                         _______ _______ _______ _____ _____    ______ ____

>  <TORSDO>
F 7

$$$$
=
 OpenBabel11062418083D

 25 27  0  0  0  0  0  0  0  0999 V2000
  188.0190  177.6340  146.6250 C   0  0  0  0  0  0  0  0  0  0  0  0
  186.7600  178.0460  147.0570 C   0  0  0  0  0  3  0  0  0  0  0  0
  185.0810  178.6060  143.8500 C   0  0  0  0  0  0  0  0  0  0  0  0
  185.8190  178.3580  146.0670 C   0  0  0  0  0  0  0  0  0  0  0  0
  183.8370  179.0090  144.8870 S   0  0  0  0  0  0  0  0  0  0  0  0
  187.4340  177.8320  144.2720 C   0  0  0  0  0  0  0  0  0  0  0  0
  188.3460  177.5290  145.2930 C   0  0  0  0  0  0  0  0  0  0  0  0
  186.1470  178.2540  144.6770 C   0  0  0  0  0  0  0  0  0  0  0  0
  189.1210  177.2700  147.3690 C   0  0  0  0  0  3  0  0  0  0  0  0
  184.5600  178.7690  146.3670 N   0  0  0  0  0  0  0  0  0  0  0  0
  190.0670  176.9620  146.3900 C   0  0  0  0  0  0  0  0  0  0  0  0
  189.5830  177.1240  145.1720 O   0  0  0  0  0  0  0  0  0  0  0  0
  192.0560  176.8440  147.8590 O   0  0  0  0  0  1  0  0  0  0  0  0
  192.0530  175.8230  145.8090 O   0  0  0  0  0  0  0  0  0  0  0  0
  191.4340  176.5120  146.6620 C   0  0  0  0  0  0  0  0  0  0  0  0
  184.9680  178.6270  141.2100 C   0  0  0  0  0  0  0  0  0  0  0  0
  185.0170  178.6180  142.4140 C   0  0  0  0  0  0  0  0  0  0  0  0
  184.9140  178.6370  139.7480 C   0  0  0  0  0  2  0  0  0  0  0  0
  183.7060  179.4350  139.2930 C   0  0  0  0  0  2  0  0  0  0  0  0
  182.6370  178.5600  138.9540 O   0  0  0  0  0  0  0  0  0  0  0  0
  181.8080  177.9820  139.9180 C   0  0  0  0  0  0  0  0  0  0  0  0
  181.3750  178.7440  140.9950 O   0  0  0  0  0  1  0  0  0  0  0  0
  181.4480  176.7780  139.8260 O   0  0  0  0  0  0  0  0  0  0  0  0
  187.7830  177.7220  142.8870 N   0  0  0  0  0  2  0  0  0  0  0  0
  188.6660  178.5610  142.2990 O   0  0  0  0  0  1  0  0  0  0  0  0
  1  2  2  0  0  0  0
  1  9  1  0  0  0  0
  3  8  2  0  0  0  0
  3  5  1  0  0  0  0
  4 10  2  0  0  0  0
  4  2  1  0  0  0  0
  5 10  1  0  0  0  0
  6  8  1  0  0  0  0
  6  7  2  0  0  0  0
  7  1  1  0  0  0  0
  8  4  1  0  0  0  0
 11 15  1  0  0  0  0
 11  9  2  0  0  0  0
 12  7  1  0  0  0  0
 12 11  1  0  0  0  0
 14 15  2  0  0  0  0
 15 13  1  0  0  0  0
 16 17  3  0  0  0  0
 17  3  1  0  0  0  0
 18 16  1  0  0  0  0
 19 18  1  0  0  0  0
 20 19  1  0  0  0  0
 20 21  1  0  0  0  0
 21 22  1  0  0  0  0
 23 21  2  0  0  0  0
 24  6  1  0  0  0  0
 25 24  1  0  0  0  0
M  END
>  <MODEL>
7

>  <REMARK>
 VINA RESULT:      -7.7      2.264      3.047
  Name = 
  7 active torsions:
  status: ('A' for Active; 'I' for Inactive)
    1  A    between atoms: C_1  and  O_24
    2  A    between atoms: C_4  and  C_19
    3  A    between atoms: C_11  and  N_14
    4  A    between atoms: C_13  and  C_22
    5  A    between atoms: C_15  and  C_22
    6  A    between atoms: C_15  and  O_24
    7  A    between atoms: C_17  and  C_23
                            x       y       z     vdW  Elec       q    Type
                         _______ _______ _______ _____ _____    ______ ____

>  <TORSDO>
F 7

$$$$
=
 OpenBabel11062418083D

 25 27  0  0  0  0  0  0  0  0999 V2000
  183.7980  178.6880  142.3190 C   0  0  0  0  0  0  0  0  0  0  0  0
  184.9250  178.4870  141.5250 C   0  0  0  0  0  3  0  0  0  0  0  0
  187.4700  177.8610  144.0840 C   0  0  0  0  0  0  0  0  0  0  0  0
  186.1300  178.2140  142.1870 C   0  0  0  0  0  0  0  0  0  0  0  0
  188.4140  177.7180  142.7160 S   0  0  0  0  0  0  0  0  0  0  0  0
  185.0250  178.3530  144.3940 C   0  0  0  0  0  0  0  0  0  0  0  0
  183.8410  178.6250  143.6930 C   0  0  0  0  0  0  0  0  0  0  0  0
  186.1870  178.1450  143.6160 C   0  0  0  0  0  0  0  0  0  0  0  0
  182.5030  178.9700  141.9410 C   0  0  0  0  0  3  0  0  0  0  0  0
  187.2920  177.9980  141.5190 N   0  0  0  0  0  0  0  0  0  0  0  0
  181.8370  179.0590  143.1650 C   0  0  0  0  0  0  0  0  0  0  0  0
  182.6510  178.8510  144.1830 O   0  0  0  0  0  0  0  0  0  0  0  0
  179.5380  178.3620  143.7650 O   0  0  0  0  0  1  0  0  0  0  0  0
  179.9640  180.4940  143.0460 O   0  0  0  0  0  0  0  0  0  0  0  0
  180.4090  179.3480  143.3190 C   0  0  0  0  0  0  0  0  0  0  0  0
  188.3050  177.5730  146.5750 C   0  0  0  0  0  0  0  0  0  0  0  0
  187.9220  177.7030  145.4400 C   0  0  0  0  0  0  0  0  0  0  0  0
  188.7740  177.4180  147.9530 C   0  0  0  0  0  2  0  0  0  0  0  0
  190.2900  177.4930  147.9800 C   0  0  0  0  0  2  0  0  0  0  0  0
  190.8430  176.6250  146.9990 O   0  0  0  0  0  0  0  0  0  0  0  0
  192.0520  175.9520  147.1920 C   0  0  0  0  0  0  0  0  0  0  0  0
  192.4790  175.0280  146.2470 O   0  0  0  0  0  0  0  0  0  0  0  0
  192.7600  176.1690  148.2110 O   0  0  0  0  0  1  0  0  0  0  0  0
  185.0610  178.2900  145.8240 N   0  0  0  0  0  2  0  0  0  0  0  0
  185.3240  179.3780  146.5850 O   0  0  0  0  0  1  0  0  0  0  0  0
  1  7  1  0  0  0  0
  2  4  1  0  0  0  0
  2  1  2  0  0  0  0
  3 17  1  0  0  0  0
  4  8  1  0  0  0  0
  5  3  1  0  0  0  0
  6 24  1  0  0  0  0
  7 12  1  0  0  0  0
  7  6  2  0  0  0  0
  8  3  2  0  0  0  0
  8  6  1  0  0  0  0
  9  1  1  0  0  0  0
  9 11  2  0  0  0  0
 10  4  2  0  0  0  0
 10  5  1  0  0  0  0
 11 15  1  0  0  0  0
 11 12  1  0  0  0  0
 14 15  2  0  0  0  0
 15 13  1  0  0  0  0
 16 18  1  0  0  0  0
 17 16  3  0  0  0  0
 18 19  1  0  0  0  0
 20 21  1  0  0  0  0
 20 19  1  0  0  0  0
 21 23  1  0  0  0  0
 22 21  2  0  0  0  0
 24 25  1  0  0  0  0
M  END
>  <MODEL>
8

>  <REMARK>
 VINA RESULT:      -7.4      3.509      7.796
  Name = 
  7 active torsions:
  status: ('A' for Active; 'I' for Inactive)
    1  A    between atoms: C_1  and  O_24
    2  A    between atoms: C_4  and  C_19
    3  A    between atoms: C_11  and  N_14
    4  A    between atoms: C_13  and  C_22
    5  A    between atoms: C_15  and  C_22
    6  A    between atoms: C_15  and  O_24
    7  A    between atoms: C_17  and  C_23
                            x       y       z     vdW  Elec       q    Type
                         _______ _______ _______ _____ _____    ______ ____

>  <TORSDO>
F 7

$$$$
=
 OpenBabel11062418083D

 25 27  0  0  0  0  0  0  0  0999 V2000
  186.2910  178.5940  141.0450 C   0  0  0  0  0  0  0  0  0  0  0  0
  185.0100  178.8140  141.5490 C   0  0  0  0  0  3  0  0  0  0  0  0
  185.5930  178.3570  145.1360 C   0  0  0  0  0  0  0  0  0  0  0  0
  184.8480  178.7170  142.9380 C   0  0  0  0  0  0  0  0  0  0  0  0
  183.9600  178.6970  145.1630 S   0  0  0  0  0  0  0  0  0  0  0  0
  187.2430  178.1900  143.2480 C   0  0  0  0  0  0  0  0  0  0  0  0
  187.3630  178.2950  141.8550 C   0  0  0  0  0  0  0  0  0  0  0  0
  185.9550  178.4060  143.7910 C   0  0  0  0  0  0  0  0  0  0  0  0
  186.7330  178.6240  139.7400 C   0  0  0  0  0  3  0  0  0  0  0  0
  183.6480  178.9130  143.5430 N   0  0  0  0  0  0  0  0  0  0  0  0
  188.0910  178.3290  139.8660 C   0  0  0  0  0  0  0  0  0  0  0  0
  188.4370  178.1390  141.1260 O   0  0  0  0  0  0  0  0  0  0  0  0
  190.1660  177.4400  138.8500 O   0  0  0  0  0  1  0  0  0  0  0  0
  188.8180  178.8810  137.6880 O   0  0  0  0  0  0  0  0  0  0  0  0
  189.0330  178.2370  138.7480 C   0  0  0  0  0  0  0  0  0  0  0  0
  187.1040  177.8630  147.2480 C   0  0  0  0  0  0  0  0  0  0  0  0
  186.4170  178.0900  146.2840 C   0  0  0  0  0  0  0  0  0  0  0  0
  187.9330  177.5860  148.4220 C   0  0  0  0  0  2  0  0  0  0  0  0
  189.3850  177.8810  148.0950 C   0  0  0  0  0  2  0  0  0  0  0  0
  189.9170  176.8640  147.2560 O   0  0  0  0  0  0  0  0  0  0  0  0
  191.2900  176.6770  147.0840 C   0  0  0  0  0  0  0  0  0  0  0  0
  191.7900  176.3980  145.8190 O   0  0  0  0  0  0  0  0  0  0  0  0
  192.0820  176.7560  148.0610 O   0  0  0  0  0  1  0  0  0  0  0  0
  188.3630  177.8770  144.0830 N   0  0  0  0  0  2  0  0  0  0  0  0
  188.9240  176.6450  144.1030 O   0  0  0  0  0  1  0  0  0  0  0  0
  1  2  2  0  0  0  0
  1  7  1  0  0  0  0
  2  4  1  0  0  0  0
  3  5  1  0  0  0  0
  3 17  1  0  0  0  0
  4 10  2  0  0  0  0
  4  8  1  0  0  0  0
  6  8  1  0  0  0  0
  6 24  1  0  0  0  0
  7  6  2  0  0  0  0
  8  3  2  0  0  0  0
  9 11  2  0  0  0  0
  9  1  1  0  0  0  0
 10  5  1  0  0  0  0
 11 12  1  0  0  0  0
 12  7  1  0  0  0  0
 14 15  2  0  0  0  0
 15 13  1  0  0  0  0
 15 11  1  0  0  0  0
 16 18  1  0  0  0  0
 17 16  3  0  0  0  0
 19 18  1  0  0  0  0
 20 19  1  0  0  0  0
 21 20  1  0  0  0  0
 21 23  1  0  0  0  0
 22 21  2  0  0  0  0
 24 25  1  0  0  0  0
M  END
>  <MODEL>
9

>  <REMARK>
 VINA RESULT:      -7.3      1.207      6.449
  Name = 
  7 active torsions:
  status: ('A' for Active; 'I' for Inactive)
    1  A    between atoms: C_1  and  O_24
    2  A    between atoms: C_4  and  C_19
    3  A    between atoms: C_11  and  N_14
    4  A    between atoms: C_13  and  C_22
    5  A    between atoms: C_15  and  C_22
    6  A    between atoms: C_15  and  O_24
    7  A    between atoms: C_17  and  C_23
                            x       y       z     vdW  Elec       q    Type
                         _______ _______ _______ _____ _____    ______ ____

>  <TORSDO>
F 7

$$$$
