=
 OpenBabel11062412013D

 48 51  0  0  1  0  0  0  0  0999 V2000
  185.6830  179.6960  142.4170 N   0  0  0  0  0  2  0  0  0  0  0  0
  184.4230  177.9640  141.5530 C   0  0  1  0  0  3  0  0  0  0  0  0
  185.2600  179.1300  141.1580 C   0  0  2  0  0  3  0  0  0  0  0  0
  184.6910  179.3680  143.3660 N   0  0  0  0  0  2  0  0  0  0  0  0
  183.9130  178.2960  142.8680 N   0  0  0  0  0  2  0  0  0  0  0  0
  182.5640  178.8180  140.0510 N   0  0  0  0  0  2  0  0  0  0  0  0
  183.0380  176.5400  140.2520 O   0  0  0  0  0  0  0  0  0  0  0  0
  183.3080  177.7230  140.5910 C   0  0  0  0  0  0  0  0  0  0  0  0
  180.9710  179.4000  136.8760 C   0  0  0  0  0  2  0  0  0  0  0  0
  180.3530  180.4280  137.8120 C   0  0  1  0  0  3  0  0  0  0  0  0
  179.1470  179.3650  139.7110 C   0  0  0  0  0  2  0  0  0  0  0  0
  179.4400  181.6600  140.2600 O   0  0  0  0  0  1  0  0  0  0  0  0
  179.9670  180.3870  140.4800 C   0  0  2  0  0  3  0  0  0  0  0  0
  181.4370  178.6060  139.1520 C   0  0  1  0  0  3  0  0  0  0  0  0
  180.5020  179.7940  139.1790 C   0  0  2  0  0  0  0  0  0  0  0  0
  181.9330  178.5570  137.7170 C   0  0  0  0  0  2  0  0  0  0  0  0
  181.1100  181.7260  137.7210 C   0  0  0  0  0  0  0  0  0  0  0  0
  182.1030  181.9260  138.4770 O   0  0  0  0  0  0  0  0  0  0  0  0
  179.8020  182.4640  135.7230 C   0  0  0  0  0  3  0  0  0  0  0  0
  179.9520  184.7450  134.9140 C   0  0  0  0  0  3  0  0  0  0  0  0
  180.7090  182.7600  136.7520 C   0  0  0  0  0  0  0  0  0  0  0  0
  180.8560  185.0470  135.9350 C   0  0  0  0  0  3  0  0  0  0  0  0
  181.2320  184.0600  136.8510 C   0  0  0  0  0  3  0  0  0  0  0  0
  179.4240  183.4540  134.8100 C   0  0  0  0  0  3  0  0  0  0  0  0
  187.6380  178.6500  140.9390 C   0  0  0  0  0  3  0  0  0  0  0  0
  186.4390  178.6790  140.3700 C   0  0  0  0  0  3  0  0  0  0  0  0
  189.0620  178.7660  139.0130 C   0  0  0  0  0  2  0  0  0  0  0  0
  188.8620  178.2580  140.2240 C   0  0  0  0  0  0  0  0  0  0  0  0
  190.3360  175.7850  142.4770 O   0  0  0  0  0  0  0  0  0  0  0  0
  189.8060  177.3210  140.7850 N   0  0  0  0  0  0  0  0  0  0  0  0
  189.6300  176.7660  142.1060 C   0  0  0  0  0  0  0  0  0  0  0  0
  187.5770  176.4140  143.5200 C   0  0  0  0  0  1  0  0  0  0  0  0
  188.6640  177.3870  143.0800 C   0  0  1  0  0  3  0  0  0  0  0  0
  189.3780  178.0570  144.2560 C   0  0  0  0  0  2  0  0  0  0  0  0
  189.4580  177.1750  145.5040 C   0  0  0  0  0  2  0  0  0  0  0  0
  191.8180  177.4600  145.2990 O   0  0  0  0  0  0  0  0  0  0  0  0
  190.8570  177.1200  146.0400 C   0  0  0  0  0  0  0  0  0  0  0  0
  192.2020  175.7900  147.6230 C   0  0  0  0  0  1  0  0  0  0  0  0
  191.1250  176.6690  147.3330 O   0  0  0  0  0  0  0  0  0  0  0  0
  190.9090  176.8380  139.9620 C   0  0  0  0  0  2  0  0  0  0  0  0
  190.3670  176.1280  138.7290 C   0  0  0  0  0  2  0  0  0  0  0  0
  191.1650  176.4540  137.4630 C   0  0  2  0  0  3  0  0  0  0  0  0
  190.4320  176.0850  136.2020 C   0  0  0  0  0  0  0  0  0  0  0  0
  191.1080  175.9490  134.9920 O   0  0  0  0  0  0  0  0  0  0  0  0
  189.1810  175.9500  136.2280 O   0  0  0  0  0  1  0  0  0  0  0  0
  193.5280  176.7150  137.5280 O   0  0  0  0  0  0  0  0  0  0  0  0
  192.5810  175.9440  137.5090 C   0  0  0  0  0  0  0  0  0  0  0  0
  192.8270  174.4760  137.5560 C   0  0  0  0  0  1  0  0  0  0  0  0
  1  4  1  0  0  0  0
  2  8  1  6  0  0  0
  2  5  1  0  0  0  0
  3 26  1  6  0  0  0
  3  2  1  0  0  0  0
  3  1  1  0  0  0  0
  5  4  1  0  0  0  0
  6  8  1  0  0  0  0
  7  8  2  0  0  0  0
  9 16  1  0  0  0  0
  9 10  1  0  0  0  0
 10 17  1  1  0  0  0
 10 15  1  0  0  0  0
 11 13  1  0  0  0  0
 13 12  1  6  0  0  0
 14 15  1  0  0  0  0
 14  6  1  1  0  0  0
 15 11  1  6  0  0  0
 15 13  1  0  0  0  0
 16 14  1  0  0  0  0
 17 18  2  0  0  0  0
 19 21  1  0  0  0  0
 20 22  2  0  0  0  0
 21 23  2  0  0  0  0
 21 17  1  0  0  0  0
 22 23  1  0  0  0  0
 24 20  1  0  0  0  0
 24 19  2  0  0  0  0
 26 25  2  0  0  0  0
 27 28  2  0  0  0  0
 28 30  1  0  0  0  0
 28 25  1  0  0  0  0
 30 31  1  0  0  0  0
 31 29  2  0  0  0  0
 31 33  1  0  0  0  0
 33 32  1  1  0  0  0
 33 34  1  0  0  0  0
 34 35  1  0  0  0  0
 35 37  1  0  0  0  0
 36 37  2  0  0  0  0
 37 39  1  0  0  0  0
 39 38  1  0  0  0  0
 40 30  1  0  0  0  0
 41 40  1  0  0  0  0
 42 47  1  0  0  0  0
 42 41  1  1  0  0  0
 43 45  1  0  0  0  0
 43 42  1  0  0  0  0
 44 43  2  0  0  0  0
 47 46  2  0  0  0  0
 47 48  1  0  0  0  0
M  END
>  <MODEL>
1

>  <REMARK>
 VINA RESULT:      -8.0      0.000      0.000
  Name = 
  17 active torsions:
  status: ('A' for Active; 'I' for Inactive)
    1  A    between atoms: C_1  and  C_45
    2  A    between atoms: C_5  and  C_8
    3  A    between atoms: C_6  and  C_41
    4  A    between atoms: C_6  and  C_42
    5  A    between atoms: C_8  and  C_17
    6  A    between atoms: C_9  and  C_11
    7  A    between atoms: C_9  and  C_12
    8  A    between atoms: C_9  and  C_31
    9  A    between atoms: C_12  and  C_20
   10  A    between atoms: N_16  and  C_20
   11  A    between atoms: N_16  and  C_45
   12  A    between atoms: N_21  and  C_38
   13  A    between atoms: C_22  and  C_48
   14  A    between atoms: O_23  and  C_42
   15  A    between atoms: C_24  and  C_43
   16  A    between atoms: C_28  and  C_29
   17  A    between atoms: C_41  and  C_43
                            x       y       z     vdW  Elec       q    Type
                         _______ _______ _______ _____ _____    ______ ____

>  <TORSDO>
F 17

$$$$
=
 OpenBabel11062412013D

 48 51  0  0  1  0  0  0  0  0999 V2000
  184.8980  179.4130  143.9220 N   0  0  0  0  0  2  0  0  0  0  0  0
  183.7530  178.4300  142.1740 C   0  0  1  0  0  3  0  0  0  0  0  0
  185.0710  179.0150  142.5450 C   0  0  2  0  0  3  0  0  0  0  0  0
  183.5240  179.6820  144.0990 N   0  0  0  0  0  2  0  0  0  0  0  0
  182.7960  179.0760  143.0490 N   0  0  0  0  0  2  0  0  0  0  0  0
  182.3450  177.9600  140.1150 N   0  0  0  0  0  2  0  0  0  0  0  0
  184.0810  179.5220  140.0910 O   0  0  0  0  0  0  0  0  0  0  0  0
  183.4160  178.6720  140.7400 C   0  0  0  0  0  0  0  0  0  0  0  0
  180.1220  177.4260  137.3360 C   0  0  0  0  0  2  0  0  0  0  0  0
  181.1560  176.3160  137.2210 C   0  0  1  0  0  3  0  0  0  0  0  0
  183.4580  177.2070  136.9080 C   0  0  0  0  0  2  0  0  0  0  0  0
  183.6660  174.9130  137.4970 O   0  0  0  0  0  1  0  0  0  0  0  0
  183.7290  176.2060  138.0170 C   0  0  2  0  0  3  0  0  0  0  0  0
  182.0300  178.1400  138.7040 C   0  0  1  0  0  3  0  0  0  0  0  0
  182.3700  176.8930  137.9180 C   0  0  2  0  0  0  0  0  0  0  0  0
  180.5290  178.2900  138.5320 C   0  0  0  0  0  2  0  0  0  0  0  0
  180.6590  175.0770  137.9150 C   0  0  0  0  0  0  0  0  0  0  0  0
  180.4830  175.0880  139.1660 O   0  0  0  0  0  0  0  0  0  0  0  0
  180.2810  173.8920  135.7470 C   0  0  0  0  0  3  0  0  0  0  0  0
  179.8150  171.5120  135.6970 C   0  0  0  0  0  3  0  0  0  0  0  0
  180.3690  173.8540  137.1470 C   0  0  0  0  0  0  0  0  0  0  0  0
  179.8990  171.4670  137.0900 C   0  0  0  0  0  3  0  0  0  0  0  0
  180.1760  172.6320  137.8120 C   0  0  0  0  0  3  0  0  0  0  0  0
  180.0070  172.7240  135.0260 C   0  0  0  0  0  3  0  0  0  0  0  0
  187.1660  178.0120  143.2790 C   0  0  0  0  0  3  0  0  0  0  0  0
  186.1430  177.9900  142.4320 C   0  0  0  0  0  3  0  0  0  0  0  0
  188.0310  175.7820  143.4440 C   0  0  0  0  0  2  0  0  0  0  0  0
  188.2890  177.0650  143.2150 C   0  0  0  0  0  0  0  0  0  0  0  0
  191.9030  177.4750  143.5730 O   0  0  0  0  0  0  0  0  0  0  0  0
  189.6400  177.5010  142.9580 N   0  0  0  0  0  0  0  0  0  0  0  0
  190.7000  177.2940  143.9160 C   0  0  0  0  0  0  0  0  0  0  0  0
  191.6450  176.7280  146.1790 C   0  0  0  0  0  1  0  0  0  0  0  0
  190.3870  176.9360  145.3440 C   0  0  1  0  0  3  0  0  0  0  0  0
  189.4010  177.9170  145.9840 C   0  0  0  0  0  2  0  0  0  0  0  0
  188.2930  177.2310  146.7860 C   0  0  0  0  0  2  0  0  0  0  0  0
  188.0100  178.3780  148.8600 O   0  0  0  0  0  0  0  0  0  0  0  0
  187.5920  178.2060  147.6840 C   0  0  0  0  0  0  0  0  0  0  0  0
  185.1950  178.2880  147.1070 C   0  0  0  0  0  1  0  0  0  0  0  0
  186.4640  178.9080  147.2570 O   0  0  0  0  0  0  0  0  0  0  0  0
  189.9720  178.0690  141.6560 C   0  0  0  0  0  2  0  0  0  0  0  0
  189.7830  177.0220  140.5660 C   0  0  0  0  0  2  0  0  0  0  0  0
  189.9900  177.5920  139.1590 C   0  0  2  0  0  3  0  0  0  0  0  0
  188.8040  178.3770  138.6700 C   0  0  0  0  0  0  0  0  0  0  0  0
  188.9730  179.5630  137.9580 O   0  0  0  0  0  0  0  0  0  0  0  0
  187.6420  177.9890  138.9550 O   0  0  0  0  0  1  0  0  0  0  0  0
  191.0290  175.5410  138.5520 O   0  0  0  0  0  0  0  0  0  0  0  0
  190.4830  176.5660  138.1740 C   0  0  0  0  0  0  0  0  0  0  0  0
  190.2790  176.7950  136.7160 C   0  0  0  0  0  1  0  0  0  0  0  0
  1  4  1  0  0  0  0
  2  8  1  6  0  0  0
  2  3  1  0  0  0  0
  2  5  1  0  0  0  0
  3 26  1  1  0  0  0
  3  1  1  0  0  0  0
  5  4  1  0  0  0  0
  6  8  1  0  0  0  0
  7  8  2  0  0  0  0
  9 16  1  0  0  0  0
 10  9  1  0  0  0  0
 10 17  1  1  0  0  0
 10 15  1  0  0  0  0
 11 13  1  0  0  0  0
 13 12  1  6  0  0  0
 14  6  1  1  0  0  0
 15 11  1  6  0  0  0
 15 13  1  0  0  0  0
 15 14  1  0  0  0  0
 16 14  1  0  0  0  0
 17 18  2  0  0  0  0
 19 21  1  0  0  0  0
 20 22  2  0  0  0  0
 21 23  2  0  0  0  0
 21 17  1  0  0  0  0
 22 23  1  0  0  0  0
 24 20  1  0  0  0  0
 24 19  2  0  0  0  0
 26 25  2  0  0  0  0
 28 25  1  0  0  0  0
 28 27  2  0  0  0  0
 29 31  2  0  0  0  0
 30 28  1  0  0  0  0
 30 31  1  0  0  0  0
 31 33  1  0  0  0  0
 33 34  1  0  0  0  0
 33 32  1  1  0  0  0
 34 35  1  0  0  0  0
 35 37  1  0  0  0  0
 37 36  2  0  0  0  0
 38 39  1  0  0  0  0
 39 37  1  0  0  0  0
 40 30  1  0  0  0  0
 41 40  1  0  0  0  0
 42 41  1  1  0  0  0
 43 45  1  0  0  0  0
 43 42  1  0  0  0  0
 44 43  2  0  0  0  0
 47 46  2  0  0  0  0
 47 42  1  0  0  0  0
 48 47  1  0  0  0  0
M  END
>  <MODEL>
2

>  <REMARK>
 VINA RESULT:      -7.9      3.142      5.373
  Name = 
  17 active torsions:
  status: ('A' for Active; 'I' for Inactive)
    1  A    between atoms: C_1  and  C_45
    2  A    between atoms: C_5  and  C_8
    3  A    between atoms: C_6  and  C_41
    4  A    between atoms: C_6  and  C_42
    5  A    between atoms: C_8  and  C_17
    6  A    between atoms: C_9  and  C_11
    7  A    between atoms: C_9  and  C_12
    8  A    between atoms: C_9  and  C_31
    9  A    between atoms: C_12  and  C_20
   10  A    between atoms: N_16  and  C_20
   11  A    between atoms: N_16  and  C_45
   12  A    between atoms: N_21  and  C_38
   13  A    between atoms: C_22  and  C_48
   14  A    between atoms: O_23  and  C_42
   15  A    between atoms: C_24  and  C_43
   16  A    between atoms: C_28  and  C_29
   17  A    between atoms: C_41  and  C_43
                            x       y       z     vdW  Elec       q    Type
                         _______ _______ _______ _____ _____    ______ ____

>  <TORSDO>
F 17

$$$$
=
 OpenBabel11062412013D

 48 51  0  0  1  0  0  0  0  0999 V2000
  189.3160  176.8100  141.6260 N   0  0  0  0  0  2  0  0  0  0  0  0
  189.1120  177.9710  139.6410 C   0  0  1  0  0  3  0  0  0  0  0  0
  188.3190  177.3900  140.7580 C   0  0  2  0  0  3  0  0  0  0  0  0
  190.4180  176.4720  140.8120 N   0  0  0  0  0  2  0  0  0  0  0  0
  190.3270  177.1830  139.5930 N   0  0  0  0  0  2  0  0  0  0  0  0
  187.8340  176.6700  137.8760 N   0  0  0  0  0  2  0  0  0  0  0  0
  188.2400  178.9600  137.6660 O   0  0  0  0  0  0  0  0  0  0  0  0
  188.3810  177.9060  138.3410 C   0  0  0  0  0  0  0  0  0  0  0  0
  185.0400  175.5400  135.9090 C   0  0  0  0  0  2  0  0  0  0  0  0
  186.1030  174.4680  135.7190 C   0  0  1  0  0  3  0  0  0  0  0  0
  188.1690  175.3710  134.6680 C   0  0  0  0  0  2  0  0  0  0  0  0
  188.7110  173.2370  135.5670 O   0  0  0  0  0  1  0  0  0  0  0  0
  188.7930  174.6070  135.8220 C   0  0  2  0  0  3  0  0  0  0  0  0
  187.1620  176.5700  136.5860 C   0  0  1  0  0  3  0  0  0  0  0  0
  187.3990  175.2110  135.9650 C   0  0  2  0  0  0  0  0  0  0  0  0
  185.6580  176.6280  136.7900 C   0  0  0  0  0  2  0  0  0  0  0  0
  185.9020  173.3640  136.7220 C   0  0  0  0  0  0  0  0  0  0  0  0
  186.4670  173.4310  137.8500 O   0  0  0  0  0  0  0  0  0  0  0  0
  183.7970  172.0500  137.0200 C   0  0  0  0  0  3  0  0  0  0  0  0
  183.4250  170.0010  135.7770 C   0  0  0  0  0  3  0  0  0  0  0  0
  185.0450  172.2090  136.4010 C   0  0  0  0  0  0  0  0  0  0  0  0
  184.6670  170.1520  135.1580 C   0  0  0  0  0  3  0  0  0  0  0  0
  185.4740  171.2510  135.4670 C   0  0  0  0  0  3  0  0  0  0  0  0
  182.9890  170.9510  136.7070 C   0  0  0  0  0  3  0  0  0  0  0  0
  186.5070  178.1400  142.2040 C   0  0  0  0  0  3  0  0  0  0  0  0
  187.5680  178.4580  141.4720 C   0  0  0  0  0  3  0  0  0  0  0  0
  186.0040  180.4150  142.7680 C   0  0  0  0  0  2  0  0  0  0  0  0
  185.6840  179.1340  142.9090 C   0  0  0  0  0  0  0  0  0  0  0  0
  183.7130  178.5540  145.9320 O   0  0  0  0  0  0  0  0  0  0  0  0
  184.5880  178.7480  143.7640 N   0  0  0  0  0  0  0  0  0  0  0  0
  184.7360  178.6670  145.1980 C   0  0  0  0  0  0  0  0  0  0  0  0
  186.0950  179.2010  147.2480 C   0  0  0  0  0  1  0  0  0  0  0  0
  186.1020  178.6440  145.8310 C   0  0  1  0  0  3  0  0  0  0  0  0
  186.7600  177.2650  145.7350 C   0  0  0  0  0  2  0  0  0  0  0  0
  188.2270  177.3180  145.3020 C   0  0  0  0  0  2  0  0  0  0  0  0
  188.6590  176.8060  147.5920 O   0  0  0  0  0  0  0  0  0  0  0  0
  189.1440  177.1090  146.4690 C   0  0  0  0  0  0  0  0  0  0  0  0
  191.4510  176.4190  147.0040 C   0  0  0  0  0  1  0  0  0  0  0  0
  190.5240  177.2740  146.3500 O   0  0  0  0  0  0  0  0  0  0  0  0
  183.2680  178.5350  143.1820 C   0  0  0  0  0  2  0  0  0  0  0  0
  183.4030  178.0890  141.7320 C   0  0  0  0  0  2  0  0  0  0  0  0
  182.7150  179.0460  140.7540 C   0  0  2  0  0  3  0  0  0  0  0  0
  181.2770  178.6840  140.5010 C   0  0  0  0  0  0  0  0  0  0  0  0
  180.8210  177.3810  140.6900 O   0  0  0  0  0  1  0  0  0  0  0  0
  180.4850  179.5560  140.0590 O   0  0  0  0  0  0  0  0  0  0  0  0
  184.5450  179.9260  139.5170 O   0  0  0  0  0  0  0  0  0  0  0  0
  183.5090  179.2770  139.4970 C   0  0  0  0  0  0  0  0  0  0  0  0
  183.0370  178.6860  138.2140 C   0  0  0  0  0  1  0  0  0  0  0  0
  2  8  1  6  0  0  0
  2  3  1  0  0  0  0
  3 26  1  1  0  0  0
  3  1  1  0  0  0  0
  4  1  1  0  0  0  0
  5  2  1  0  0  0  0
  5  4  1  0  0  0  0
  6  8  1  0  0  0  0
  7  8  2  0  0  0  0
  9 16  1  0  0  0  0
 10  9  1  0  0  0  0
 10 15  1  0  0  0  0
 10 17  1  1  0  0  0
 11 13  1  0  0  0  0
 13 12  1  6  0  0  0
 13 15  1  0  0  0  0
 14 16  1  0  0  0  0
 14  6  1  1  0  0  0
 15 11  1  6  0  0  0
 15 14  1  0  0  0  0
 17 18  2  0  0  0  0
 20 24  2  0  0  0  0
 21 17  1  0  0  0  0
 21 19  2  0  0  0  0
 22 23  2  0  0  0  0
 22 20  1  0  0  0  0
 23 21  1  0  0  0  0
 24 19  1  0  0  0  0
 25 28  1  0  0  0  0
 26 25  2  0  0  0  0
 27 28  2  0  0  0  0
 28 30  1  0  0  0  0
 30 31  1  0  0  0  0
 31 33  1  0  0  0  0
 31 29  2  0  0  0  0
 33 32  1  1  0  0  0
 34 33  1  0  0  0  0
 35 34  1  0  0  0  0
 35 37  1  0  0  0  0
 37 36  2  0  0  0  0
 39 37  1  0  0  0  0
 39 38  1  0  0  0  0
 40 30  1  0  0  0  0
 41 40  1  0  0  0  0
 42 41  1  6  0  0  0
 43 44  1  0  0  0  0
 43 42  1  0  0  0  0
 45 43  2  0  0  0  0
 47 46  2  0  0  0  0
 47 42  1  0  0  0  0
 48 47  1  0  0  0  0
M  END
>  <MODEL>
3

>  <REMARK>
 VINA RESULT:      -7.8      3.751      8.363
  Name = 
  17 active torsions:
  status: ('A' for Active; 'I' for Inactive)
    1  A    between atoms: C_1  and  C_45
    2  A    between atoms: C_5  and  C_8
    3  A    between atoms: C_6  and  C_41
    4  A    between atoms: C_6  and  C_42
    5  A    between atoms: C_8  and  C_17
    6  A    between atoms: C_9  and  C_11
    7  A    between atoms: C_9  and  C_12
    8  A    between atoms: C_9  and  C_31
    9  A    between atoms: C_12  and  C_20
   10  A    between atoms: N_16  and  C_20
   11  A    between atoms: N_16  and  C_45
   12  A    between atoms: N_21  and  C_38
   13  A    between atoms: C_22  and  C_48
   14  A    between atoms: O_23  and  C_42
   15  A    between atoms: C_24  and  C_43
   16  A    between atoms: C_28  and  C_29
   17  A    between atoms: C_41  and  C_43
                            x       y       z     vdW  Elec       q    Type
                         _______ _______ _______ _____ _____    ______ ____

>  <TORSDO>
F 17

$$$$
=
 OpenBabel11062412013D

 48 51  0  0  1  0  0  0  0  0999 V2000
  189.9070  173.8710  135.2890 N   0  0  0  0  0  2  0  0  0  0  0  0
  189.5240  175.0120  137.2600 C   0  0  1  0  0  3  0  0  0  0  0  0
  189.5060  175.1690  135.7800 C   0  0  2  0  0  3  0  0  0  0  0  0
  190.7130  173.2870  136.2900 N   0  0  0  0  0  2  0  0  0  0  0  0
  190.4850  173.9580  137.5150 N   0  0  0  0  0  2  0  0  0  0  0  0
  190.0220  176.3190  139.3780 N   0  0  0  0  0  2  0  0  0  0  0  0
  190.1710  177.2970  137.2630 O   0  0  0  0  0  0  0  0  0  0  0  0
  189.9180  176.2740  137.9530 C   0  0  0  0  0  0  0  0  0  0  0  0
  191.7940  178.0120  142.0140 C   0  0  0  0  0  2  0  0  0  0  0  0
  190.4020  177.7700  142.5790 C   0  0  1  0  0  3  0  0  0  0  0  0
  188.6360  178.9060  141.2430 C   0  0  0  0  0  2  0  0  0  0  0  0
  187.5480  177.3320  142.6550 O   0  0  0  0  0  1  0  0  0  0  0  0
  188.0130  177.5250  141.3530 C   0  0  2  0  0  3  0  0  0  0  0  0
  190.3540  177.5520  140.0810 C   0  0  1  0  0  3  0  0  0  0  0  0
  189.5310  177.6850  141.3430 C   0  0  2  0  0  0  0  0  0  0  0  0
  191.7880  177.4860  140.5770 C   0  0  0  0  0  2  0  0  0  0  0  0
  190.3810  176.4830  143.3580 C   0  0  0  0  0  0  0  0  0  0  0  0
  190.1720  175.3910  142.7580 O   0  0  0  0  0  0  0  0  0  0  0  0
  189.6510  177.0160  145.6880 C   0  0  0  0  0  3  0  0  0  0  0  0
  191.0650  176.4810  147.5850 C   0  0  0  0  0  3  0  0  0  0  0  0
  190.6110  176.4850  144.8130 C   0  0  0  0  0  0  0  0  0  0  0  0
  192.0250  175.9520  146.7200 C   0  0  0  0  0  3  0  0  0  0  0  0
  191.7990  175.9530  145.3400 C   0  0  0  0  0  3  0  0  0  0  0  0
  189.8780  177.0110  147.0690 C   0  0  0  0  0  3  0  0  0  0  0  0
  187.2830  176.1000  136.1340 C   0  0  0  0  0  3  0  0  0  0  0  0
  188.1340  175.5000  135.3100 C   0  0  0  0  0  3  0  0  0  0  0  0
  185.6960  177.1020  134.6420 C   0  0  0  0  0  2  0  0  0  0  0  0
  185.8970  176.4260  135.7680 C   0  0  0  0  0  0  0  0  0  0  0  0
  183.6240  174.4190  137.8080 O   0  0  0  0  0  0  0  0  0  0  0  0
  184.7820  176.0710  136.6120 N   0  0  0  0  0  0  0  0  0  0  0  0
  184.4510  174.6940  136.8930 C   0  0  0  0  0  0  0  0  0  0  0  0
  185.5640  172.4370  136.9100 C   0  0  0  0  0  1  0  0  0  0  0  0
  185.0240  173.5790  136.0590 C   0  0  1  0  0  3  0  0  0  0  0  0
  184.0510  173.1080  134.9750 C   0  0  0  0  0  2  0  0  0  0  0  0
  183.2870  171.8380  135.3510 C   0  0  0  0  0  2  0  0  0  0  0  0
  181.2630  171.2840  136.4880 O   0  0  0  0  0  0  0  0  0  0  0  0
  181.9150  172.1620  135.8610 C   0  0  0  0  0  0  0  0  0  0  0  0
  180.3130  173.9360  136.4720 C   0  0  0  0  0  1  0  0  0  0  0  0
  181.3270  173.4060  135.6300 O   0  0  0  0  0  0  0  0  0  0  0  0
  184.0310  177.1250  137.2860 C   0  0  0  0  0  2  0  0  0  0  0  0
  184.8650  177.7180  138.4140 C   0  0  0  0  0  2  0  0  0  0  0  0
  184.1570  177.6450  139.7710 C   0  0  2  0  0  3  0  0  0  0  0  0
  182.6730  177.4340  139.6410 C   0  0  0  0  0  0  0  0  0  0  0  0
  181.8130  178.5060  139.4150 O   0  0  0  0  0  0  0  0  0  0  0  0
  182.1940  176.2800  139.7930 O   0  0  0  0  0  1  0  0  0  0  0  0
  185.1230  179.7580  140.2750 O   0  0  0  0  0  0  0  0  0  0  0  0
  184.5270  178.7760  140.6920 C   0  0  0  0  0  0  0  0  0  0  0  0
  184.1390  178.7060  142.1280 C   0  0  0  0  0  1  0  0  0  0  0  0
  1  3  1  0  0  0  0
  1  4  1  0  0  0  0
  2  5  1  0  0  0  0
  2  8  1  1  0  0  0
  3 26  1  6  0  0  0
  3  2  1  0  0  0  0
  4  5  1  0  0  0  0
  7  8  2  0  0  0  0
  8  6  1  0  0  0  0
  9 10  1  0  0  0  0
 10 17  1  6  0  0  0
 11 13  1  0  0  0  0
 13 12  1  1  0  0  0
 14  6  1  1  0  0  0
 14 16  1  0  0  0  0
 14 15  1  0  0  0  0
 15 11  1  6  0  0  0
 15 13  1  0  0  0  0
 15 10  1  0  0  0  0
 16  9  1  0  0  0  0
 17 21  1  0  0  0  0
 18 17  2  0  0  0  0
 19 24  1  0  0  0  0
 21 23  1  0  0  0  0
 21 19  2  0  0  0  0
 22 20  1  0  0  0  0
 23 22  2  0  0  0  0
 24 20  2  0  0  0  0
 26 25  2  0  0  0  0
 27 28  2  0  0  0  0
 28 25  1  0  0  0  0
 28 30  1  0  0  0  0
 30 31  1  0  0  0  0
 30 40  1  0  0  0  0
 31 29  2  0  0  0  0
 33 31  1  0  0  0  0
 33 32  1  1  0  0  0
 34 35  1  0  0  0  0
 34 33  1  0  0  0  0
 35 37  1  0  0  0  0
 37 36  2  0  0  0  0
 39 37  1  0  0  0  0
 39 38  1  0  0  0  0
 40 41  1  0  0  0  0
 42 41  1  6  0  0  0
 42 47  1  0  0  0  0
 43 42  1  0  0  0  0
 43 45  1  0  0  0  0
 44 43  2  0  0  0  0
 46 47  2  0  0  0  0
 47 48  1  0  0  0  0
M  END
>  <MODEL>
4

>  <REMARK>
 VINA RESULT:      -7.6      4.043     10.920
  Name = 
  17 active torsions:
  status: ('A' for Active; 'I' for Inactive)
    1  A    between atoms: C_1  and  C_45
    2  A    between atoms: C_5  and  C_8
    3  A    between atoms: C_6  and  C_41
    4  A    between atoms: C_6  and  C_42
    5  A    between atoms: C_8  and  C_17
    6  A    between atoms: C_9  and  C_11
    7  A    between atoms: C_9  and  C_12
    8  A    between atoms: C_9  and  C_31
    9  A    between atoms: C_12  and  C_20
   10  A    between atoms: N_16  and  C_20
   11  A    between atoms: N_16  and  C_45
   12  A    between atoms: N_21  and  C_38
   13  A    between atoms: C_22  and  C_48
   14  A    between atoms: O_23  and  C_42
   15  A    between atoms: C_24  and  C_43
   16  A    between atoms: C_28  and  C_29
   17  A    between atoms: C_41  and  C_43
                            x       y       z     vdW  Elec       q    Type
                         _______ _______ _______ _____ _____    ______ ____

>  <TORSDO>
F 17

$$$$
=
 OpenBabel11062412013D

 48 51  0  0  1  0  0  0  0  0999 V2000
  189.0180  176.3560  142.6790 N   0  0  0  0  0  2  0  0  0  0  0  0
  189.4810  177.7210  140.8750 C   0  0  1  0  0  3  0  0  0  0  0  0
  188.3590  177.1220  141.6470 C   0  0  2  0  0  3  0  0  0  0  0  0
  190.2800  175.9830  142.1670 N   0  0  0  0  0  2  0  0  0  0  0  0
  190.5960  176.8170  141.0690 N   0  0  0  0  0  2  0  0  0  0  0  0
  189.1840  176.7270  138.5590 N   0  0  0  0  0  2  0  0  0  0  0  0
  188.8330  178.9960  138.9800 O   0  0  0  0  0  0  0  0  0  0  0  0
  189.1520  177.8630  139.4260 C   0  0  0  0  0  0  0  0  0  0  0  0
  187.4700  178.3540  135.8450 C   0  0  0  0  0  2  0  0  0  0  0  0
  186.6270  177.1260  136.1520 C   0  0  1  0  0  3  0  0  0  0  0  0
  187.8950  175.0100  135.8240 C   0  0  0  0  0  2  0  0  0  0  0  0
  185.9360  174.4720  137.0600 O   0  0  0  0  0  1  0  0  0  0  0  0
  187.3010  174.7320  137.1930 C   0  0  2  0  0  3  0  0  0  0  0  0
  188.9190  176.8470  137.1310 C   0  0  1  0  0  3  0  0  0  0  0  0
  187.6190  176.1640  136.7700 C   0  0  2  0  0  0  0  0  0  0  0  0
  188.6820  178.3060  136.7790 C   0  0  0  0  0  2  0  0  0  0  0  0
  185.5310  177.4840  137.1190 C   0  0  0  0  0  0  0  0  0  0  0  0
  185.8260  177.8630  138.2880 O   0  0  0  0  0  0  0  0  0  0  0  0
  183.7680  176.9860  135.4190 C   0  0  0  0  0  3  0  0  0  0  0  0
  181.4180  177.2600  135.9490 C   0  0  0  0  0  3  0  0  0  0  0  0
  184.1170  177.4050  136.7110 C   0  0  0  0  0  0  0  0  0  0  0  0
  181.7580  177.6800  137.2370 C   0  0  0  0  0  3  0  0  0  0  0  0
  183.1010  177.7510  137.6170 C   0  0  0  0  0  3  0  0  0  0  0  0
  182.4220  176.9120  135.0410 C   0  0  0  0  0  3  0  0  0  0  0  0
  186.4090  177.8600  142.9070 C   0  0  0  0  0  3  0  0  0  0  0  0
  187.5170  178.1880  142.2520 C   0  0  0  0  0  3  0  0  0  0  0  0
  185.5580  180.0980  143.0470 C   0  0  0  0  0  2  0  0  0  0  0  0
  185.4970  178.8510  143.5000 C   0  0  0  0  0  0  0  0  0  0  0  0
  184.0960  178.5380  146.8610 O   0  0  0  0  0  0  0  0  0  0  0  0
  184.5900  178.5080  144.5680 N   0  0  0  0  0  0  0  0  0  0  0  0
  184.9740  178.6220  145.9560 C   0  0  0  0  0  0  0  0  0  0  0  0
  186.6050  179.6520  147.5720 C   0  0  0  0  0  1  0  0  0  0  0  0
  186.4200  178.7690  146.3450 C   0  0  1  0  0  3  0  0  0  0  0  0
  187.1250  177.4160  146.4710 C   0  0  0  0  0  2  0  0  0  0  0  0
  188.5570  177.4210  145.9320 C   0  0  0  0  0  2  0  0  0  0  0  0
  189.2000  177.5060  148.2290 O   0  0  0  0  0  0  0  0  0  0  0  0
  189.5540  177.2720  147.0420 C   0  0  0  0  0  0  0  0  0  0  0  0
  191.4150  176.8640  145.4750 C   0  0  0  0  0  1  0  0  0  0  0  0
  190.8780  176.9110  146.7890 O   0  0  0  0  0  0  0  0  0  0  0  0
  183.2160  178.1370  144.2480 C   0  0  0  0  0  2  0  0  0  0  0  0
  182.5120  179.2950  143.5530 C   0  0  0  0  0  2  0  0  0  0  0  0
  181.2640  178.8490  142.7840 C   0  0  2  0  0  3  0  0  0  0  0  0
  181.5380  178.6060  141.3250 C   0  0  0  0  0  0  0  0  0  0  0  0
  182.7490  178.9830  140.7490 O   0  0  0  0  0  1  0  0  0  0  0  0
  180.6400  178.1060  140.5990 O   0  0  0  0  0  0  0  0  0  0  0  0
  180.0010  180.8500  142.5540 O   0  0  0  0  0  0  0  0  0  0  0  0
  180.0700  179.7290  143.0360 C   0  0  0  0  0  0  0  0  0  0  0  0
  178.9450  179.2160  143.8660 C   0  0  0  0  0  1  0  0  0  0  0  0
  2  8  1  6  0  0  0
  2  5  1  0  0  0  0
  2  3  1  0  0  0  0
  3 26  1  1  0  0  0
  3  1  1  0  0  0  0
  4  1  1  0  0  0  0
  5  4  1  0  0  0  0
  6  8  1  0  0  0  0
  7  8  2  0  0  0  0
  9 10  1  0  0  0  0
  9 16  1  0  0  0  0
 10 15  1  0  0  0  0
 10 17  1  1  0  0  0
 11 13  1  0  0  0  0
 13 12  1  6  0  0  0
 14  6  1  1  0  0  0
 15 11  1  6  0  0  0
 15 14  1  0  0  0  0
 15 13  1  0  0  0  0
 16 14  1  0  0  0  0
 17 18  2  0  0  0  0
 19 21  1  0  0  0  0
 20 22  2  0  0  0  0
 21 17  1  0  0  0  0
 21 23  2  0  0  0  0
 22 23  1  0  0  0  0
 24 19  2  0  0  0  0
 24 20  1  0  0  0  0
 25 28  1  0  0  0  0
 26 25  2  0  0  0  0
 27 28  2  0  0  0  0
 28 30  1  0  0  0  0
 30 31  1  0  0  0  0
 31 33  1  0  0  0  0
 31 29  2  0  0  0  0
 33 34  1  0  0  0  0
 33 32  1  1  0  0  0
 35 34  1  0  0  0  0
 35 37  1  0  0  0  0
 37 36  2  0  0  0  0
 38 39  1  0  0  0  0
 39 37  1  0  0  0  0
 40 30  1  0  0  0  0
 41 40  1  0  0  0  0
 42 47  1  0  0  0  0
 42 41  1  6  0  0  0
 43 42  1  0  0  0  0
 44 43  1  0  0  0  0
 45 43  2  0  0  0  0
 46 47  2  0  0  0  0
 47 48  1  0  0  0  0
M  END
>  <MODEL>
5

>  <REMARK>
 VINA RESULT:      -7.6      3.458      7.693
  Name = 
  17 active torsions:
  status: ('A' for Active; 'I' for Inactive)
    1  A    between atoms: C_1  and  C_45
    2  A    between atoms: C_5  and  C_8
    3  A    between atoms: C_6  and  C_41
    4  A    between atoms: C_6  and  C_42
    5  A    between atoms: C_8  and  C_17
    6  A    between atoms: C_9  and  C_11
    7  A    between atoms: C_9  and  C_12
    8  A    between atoms: C_9  and  C_31
    9  A    between atoms: C_12  and  C_20
   10  A    between atoms: N_16  and  C_20
   11  A    between atoms: N_16  and  C_45
   12  A    between atoms: N_21  and  C_38
   13  A    between atoms: C_22  and  C_48
   14  A    between atoms: O_23  and  C_42
   15  A    between atoms: C_24  and  C_43
   16  A    between atoms: C_28  and  C_29
   17  A    between atoms: C_41  and  C_43
                            x       y       z     vdW  Elec       q    Type
                         _______ _______ _______ _____ _____    ______ ____

>  <TORSDO>
F 17

$$$$
=
 OpenBabel11062412013D

 48 51  0  0  1  0  0  0  0  0999 V2000
  191.1970  176.0060  139.1070 N   0  0  0  0  0  2  0  0  0  0  0  0
  190.1690  177.0060  137.2970 C   0  0  1  0  0  3  0  0  0  0  0  0
  189.8890  176.3550  138.6060 C   0  0  2  0  0  3  0  0  0  0  0  0
  192.0300  175.8240  137.9810 N   0  0  0  0  0  2  0  0  0  0  0  0
  191.4300  176.4420  136.8590 N   0  0  0  0  0  2  0  0  0  0  0  0
  187.8000  176.2990  136.7230 N   0  0  0  0  0  2  0  0  0  0  0  0
  189.3300  176.9330  135.0770 O   0  0  0  0  0  0  0  0  0  0  0  0
  189.0910  176.7440  136.2990 C   0  0  0  0  0  0  0  0  0  0  0  0
  184.5150  176.9380  135.3980 C   0  0  0  0  0  2  0  0  0  0  0  0
  184.3210  175.7810  136.3670 C   0  0  1  0  0  3  0  0  0  0  0  0
  185.6350  173.7740  135.7080 C   0  0  0  0  0  2  0  0  0  0  0  0
  184.9310  173.4470  137.9550 O   0  0  0  0  0  1  0  0  0  0  0  0
  186.0170  173.8480  137.1760 C   0  0  2  0  0  3  0  0  0  0  0  0
  186.7470  175.9860  135.7650 C   0  0  1  0  0  3  0  0  0  0  0  0
  185.6840  175.1210  136.4040 C   0  0  2  0  0  0  0  0  0  0  0  0
  186.0110  177.2590  135.3830 C   0  0  0  0  0  2  0  0  0  0  0  0
  183.9270  176.3070  137.7210 C   0  0  0  0  0  0  0  0  0  0  0  0
  184.7140  177.0680  138.3510 O   0  0  0  0  0  0  0  0  0  0  0  0
  181.8260  174.9530  137.7330 C   0  0  0  0  0  3  0  0  0  0  0  0
  180.1510  175.2740  139.4570 C   0  0  0  0  0  3  0  0  0  0  0  0
  182.6270  175.9480  138.3140 C   0  0  0  0  0  0  0  0  0  0  0  0
  180.9420  176.2660  140.0400 C   0  0  0  0  0  3  0  0  0  0  0  0
  182.1750  176.6010  139.4720 C   0  0  0  0  0  3  0  0  0  0  0  0
  180.5940  174.6160  138.3050 C   0  0  0  0  0  3  0  0  0  0  0  0
  189.0630  176.9910  140.8070 C   0  0  0  0  0  3  0  0  0  0  0  0
  189.2190  177.3110  139.5280 C   0  0  0  0  0  3  0  0  0  0  0  0
  187.7680  178.9430  141.3180 C   0  0  0  0  0  2  0  0  0  0  0  0
  188.3770  177.8570  141.7790 C   0  0  0  0  0  0  0  0  0  0  0  0
  189.3030  178.0070  145.3110 O   0  0  0  0  0  0  0  0  0  0  0  0
  188.3910  177.5750  143.1940 N   0  0  0  0  0  0  0  0  0  0  0  0
  189.4380  178.0720  144.0560 C   0  0  0  0  0  0  0  0  0  0  0  0
  191.3000  179.7470  144.3020 C   0  0  0  0  0  1  0  0  0  0  0  0
  190.7230  178.6020  143.4790 C   0  0  1  0  0  3  0  0  0  0  0  0
  191.7390  177.4890  143.2110 C   0  0  0  0  0  2  0  0  0  0  0  0
  191.2430  176.0990  143.6150 C   0  0  0  0  0  2  0  0  0  0  0  0
  192.4190  174.4450  144.8700 O   0  0  0  0  0  0  0  0  0  0  0  0
  191.9420  175.6110  144.8480 C   0  0  0  0  0  0  0  0  0  0  0  0
  192.0350  175.8660  147.3000 C   0  0  0  0  0  1  0  0  0  0  0  0
  192.0510  176.4090  145.9870 O   0  0  0  0  0  0  0  0  0  0  0  0
  187.2680  176.8620  143.7920 C   0  0  0  0  0  2  0  0  0  0  0  0
  185.9550  177.5090  143.3710 C   0  0  0  0  0  2  0  0  0  0  0  0
  185.5280  178.6410  144.3100 C   0  0  2  0  0  3  0  0  0  0  0  0
  185.4570  178.2060  145.7480 C   0  0  0  0  0  0  0  0  0  0  0  0
  184.4820  178.7150  146.6040 O   0  0  0  0  0  1  0  0  0  0  0  0
  186.3220  177.4130  146.2010 O   0  0  0  0  0  0  0  0  0  0  0  0
  184.0310  180.4870  144.2460 O   0  0  0  0  0  0  0  0  0  0  0  0
  184.2970  179.3670  143.8370 C   0  0  0  0  0  0  0  0  0  0  0  0
  183.4030  178.7180  142.8380 C   0  0  0  0  0  1  0  0  0  0  0  0
  2  8  1  6  0  0  0
  2  3  1  0  0  0  0
  3  1  1  0  0  0  0
  3 26  1  1  0  0  0
  4  1  1  0  0  0  0
  5  2  1  0  0  0  0
  5  4  1  0  0  0  0
  7  8  2  0  0  0  0
  8  6  1  0  0  0  0
  9 10  1  0  0  0  0
 10 15  1  0  0  0  0
 10 17  1  1  0  0  0
 11 13  1  0  0  0  0
 13 12  1  1  0  0  0
 14 15  1  0  0  0  0
 14  6  1  1  0  0  0
 15 11  1  6  0  0  0
 15 13  1  0  0  0  0
 16  9  1  0  0  0  0
 16 14  1  0  0  0  0
 17 21  1  0  0  0  0
 17 18  2  0  0  0  0
 19 24  2  0  0  0  0
 19 21  1  0  0  0  0
 20 22  2  0  0  0  0
 21 23  2  0  0  0  0
 23 22  1  0  0  0  0
 24 20  1  0  0  0  0
 25 28  1  0  0  0  0
 26 25  2  0  0  0  0
 27 28  2  0  0  0  0
 28 30  1  0  0  0  0
 30 40  1  0  0  0  0
 30 31  1  0  0  0  0
 31 29  2  0  0  0  0
 33 31  1  0  0  0  0
 33 32  1  1  0  0  0
 34 33  1  0  0  0  0
 34 35  1  0  0  0  0
 35 37  1  0  0  0  0
 37 36  2  0  0  0  0
 37 39  1  0  0  0  0
 39 38  1  0  0  0  0
 41 40  1  0  0  0  0
 42 41  1  6  0  0  0
 42 43  1  0  0  0  0
 43 45  2  0  0  0  0
 43 44  1  0  0  0  0
 47 46  2  0  0  0  0
 47 42  1  0  0  0  0
 48 47  1  0  0  0  0
M  END
>  <MODEL>
6

>  <REMARK>
 VINA RESULT:      -7.5      4.081      7.365
  Name = 
  17 active torsions:
  status: ('A' for Active; 'I' for Inactive)
    1  A    between atoms: C_1  and  C_45
    2  A    between atoms: C_5  and  C_8
    3  A    between atoms: C_6  and  C_41
    4  A    between atoms: C_6  and  C_42
    5  A    between atoms: C_8  and  C_17
    6  A    between atoms: C_9  and  C_11
    7  A    between atoms: C_9  and  C_12
    8  A    between atoms: C_9  and  C_31
    9  A    between atoms: C_12  and  C_20
   10  A    between atoms: N_16  and  C_20
   11  A    between atoms: N_16  and  C_45
   12  A    between atoms: N_21  and  C_38
   13  A    between atoms: C_22  and  C_48
   14  A    between atoms: O_23  and  C_42
   15  A    between atoms: C_24  and  C_43
   16  A    between atoms: C_28  and  C_29
   17  A    between atoms: C_41  and  C_43
                            x       y       z     vdW  Elec       q    Type
                         _______ _______ _______ _____ _____    ______ ____

>  <TORSDO>
F 17

$$$$
=
 OpenBabel11062412013D

 48 51  0  0  1  0  0  0  0  0999 V2000
  189.6440  174.0590  135.3850 N   0  0  0  0  0  2  0  0  0  0  0  0
  189.4240  175.0920  137.4390 C   0  0  1  0  0  3  0  0  0  0  0  0
  189.3060  175.3330  135.9740 C   0  0  2  0  0  3  0  0  0  0  0  0
  190.5050  173.4050  136.2930 N   0  0  0  0  0  2  0  0  0  0  0  0
  190.3780  174.0090  137.5660 N   0  0  0  0  0  2  0  0  0  0  0  0
  189.9670  176.3100  139.5980 N   0  0  0  0  0  2  0  0  0  0  0  0
  190.2320  177.3240  137.5110 O   0  0  0  0  0  0  0  0  0  0  0  0
  189.8920  176.3060  138.1700 C   0  0  0  0  0  0  0  0  0  0  0  0
  191.1070  177.8280  142.6560 C   0  0  0  0  0  2  0  0  0  0  0  0
  189.5990  178.0300  142.6640 C   0  0  1  0  0  3  0  0  0  0  0  0
  188.8220  179.3910  140.7320 C   0  0  0  0  0  2  0  0  0  0  0  0
  186.9040  178.3530  141.6770 O   0  0  0  0  0  1  0  0  0  0  0  0
  187.8310  178.2450  140.6400 C   0  0  2  0  0  3  0  0  0  0  0  0
  190.3710  177.4990  140.3380 C   0  0  1  0  0  3  0  0  0  0  0  0
  189.2330  178.0060  141.1950 C   0  0  2  0  0  0  0  0  0  0  0  0
  191.4550  177.1340  141.3370 C   0  0  0  0  0  2  0  0  0  0  0  0
  188.9350  176.9070  143.4150 C   0  0  0  0  0  0  0  0  0  0  0  0
  188.8550  175.7620  142.8880 O   0  0  0  0  0  0  0  0  0  0  0  0
  189.2330  177.1760  145.8830 C   0  0  0  0  0  3  0  0  0  0  0  0
  187.3250  177.5590  147.3290 C   0  0  0  0  0  3  0  0  0  0  0  0
  188.3870  177.1310  144.7640 C   0  0  0  0  0  0  0  0  0  0  0  0
  186.4760  177.5130  146.2210 C   0  0  0  0  0  3  0  0  0  0  0  0
  187.0040  177.3010  144.9440 C   0  0  0  0  0  3  0  0  0  0  0  0
  188.7030  177.3920  147.1600 C   0  0  0  0  0  3  0  0  0  0  0  0
  187.1050  176.1980  136.5590 C   0  0  0  0  0  3  0  0  0  0  0  0
  187.9120  175.7130  135.6220 C   0  0  0  0  0  3  0  0  0  0  0  0
  185.3770  176.9760  135.0890 C   0  0  0  0  0  2  0  0  0  0  0  0
  185.7020  176.5610  136.3080 C   0  0  0  0  0  0  0  0  0  0  0  0
  183.3070  175.2300  138.7270 O   0  0  0  0  0  0  0  0  0  0  0  0
  184.7050  176.5150  137.3510 N   0  0  0  0  0  0  0  0  0  0  0  0
  183.9970  175.2980  137.6710 C   0  0  0  0  0  0  0  0  0  0  0  0
  184.4800  172.8430  137.3940 C   0  0  0  0  0  1  0  0  0  0  0  0
  184.0110  174.1280  136.7230 C   0  0  1  0  0  3  0  0  0  0  0  0
  182.6790  173.9650  135.9870 C   0  0  0  0  0  2  0  0  0  0  0  0
  181.8080  172.8360  136.5420 C   0  0  0  0  0  2  0  0  0  0  0  0
  180.3570  174.6160  137.1890 O   0  0  0  0  0  0  0  0  0  0  0  0
  180.5340  173.3700  137.1240 C   0  0  0  0  0  0  0  0  0  0  0  0
  178.9690  171.4840  136.8450 C   0  0  0  0  0  1  0  0  0  0  0  0
  179.5490  172.5190  137.6260 O   0  0  0  0  0  0  0  0  0  0  0  0
  184.4790  177.6960  138.1760 C   0  0  0  0  0  2  0  0  0  0  0  0
  183.0960  178.2700  137.8960 C   0  0  0  0  0  2  0  0  0  0  0  0
  182.6720  179.3170  138.9310 C   0  0  2  0  0  3  0  0  0  0  0  0
  181.9810  178.7090  140.1210 C   0  0  0  0  0  0  0  0  0  0  0  0
  182.6900  178.3920  141.2780 O   0  0  0  0  0  1  0  0  0  0  0  0
  180.7560  178.4310  140.0540 O   0  0  0  0  0  0  0  0  0  0  0  0
  182.1520  181.6230  138.6810 O   0  0  0  0  0  0  0  0  0  0  0  0
  181.9260  180.4760  138.3270 C   0  0  0  0  0  0  0  0  0  0  0  0
  180.9130  180.2200  137.2650 C   0  0  0  0  0  1  0  0  0  0  0  0
  1  3  1  0  0  0  0
  1  4  1  0  0  0  0
  2  5  1  0  0  0  0
  2  8  1  1  0  0  0
  3 26  1  1  0  0  0
  3  2  1  0  0  0  0
  4  5  1  0  0  0  0
  7  8  2  0  0  0  0
  8  6  1  0  0  0  0
  9 10  1  0  0  0  0
 10 17  1  1  0  0  0
 13 11  1  0  0  0  0
 13 15  1  0  0  0  0
 13 12  1  1  0  0  0
 14  6  1  1  0  0  0
 14 15  1  0  0  0  0
 14 16  1  0  0  0  0
 15 11  1  6  0  0  0
 15 10  1  0  0  0  0
 16  9  1  0  0  0  0
 17 21  1  0  0  0  0
 18 17  2  0  0  0  0
 19 24  1  0  0  0  0
 21 23  1  0  0  0  0
 21 19  2  0  0  0  0
 22 20  1  0  0  0  0
 23 22  2  0  0  0  0
 24 20  2  0  0  0  0
 26 25  2  0  0  0  0
 27 28  2  0  0  0  0
 28 25  1  0  0  0  0
 28 30  1  0  0  0  0
 30 31  1  0  0  0  0
 30 40  1  0  0  0  0
 31 29  2  0  0  0  0
 33 32  1  1  0  0  0
 33 31  1  0  0  0  0
 34 35  1  0  0  0  0
 34 33  1  0  0  0  0
 35 37  1  0  0  0  0
 37 36  2  0  0  0  0
 37 39  1  0  0  0  0
 38 39  1  0  0  0  0
 41 40  1  0  0  0  0
 42 41  1  6  0  0  0
 42 43  1  0  0  0  0
 43 44  1  0  0  0  0
 45 43  2  0  0  0  0
 47 46  2  0  0  0  0
 47 42  1  0  0  0  0
 48 47  1  0  0  0  0
M  END
>  <MODEL>
7

>  <REMARK>
 VINA RESULT:      -7.4      3.408     10.623
  Name = 
  17 active torsions:
  status: ('A' for Active; 'I' for Inactive)
    1  A    between atoms: C_1  and  C_45
    2  A    between atoms: C_5  and  C_8
    3  A    between atoms: C_6  and  C_41
    4  A    between atoms: C_6  and  C_42
    5  A    between atoms: C_8  and  C_17
    6  A    between atoms: C_9  and  C_11
    7  A    between atoms: C_9  and  C_12
    8  A    between atoms: C_9  and  C_31
    9  A    between atoms: C_12  and  C_20
   10  A    between atoms: N_16  and  C_20
   11  A    between atoms: N_16  and  C_45
   12  A    between atoms: N_21  and  C_38
   13  A    between atoms: C_22  and  C_48
   14  A    between atoms: O_23  and  C_42
   15  A    between atoms: C_24  and  C_43
   16  A    between atoms: C_28  and  C_29
   17  A    between atoms: C_41  and  C_43
                            x       y       z     vdW  Elec       q    Type
                         _______ _______ _______ _____ _____    ______ ____

>  <TORSDO>
F 17

$$$$
=
 OpenBabel11062412013D

 48 51  0  0  1  0  0  0  0  0999 V2000
  190.1680  176.7750  140.7030 N   0  0  0  0  0  2  0  0  0  0  0  0
  189.6320  177.7250  138.6680 C   0  0  1  0  0  3  0  0  0  0  0  0
  189.0280  177.1460  139.8990 C   0  0  2  0  0  3  0  0  0  0  0  0
  191.2290  176.5120  139.8090 N   0  0  0  0  0  2  0  0  0  0  0  0
  190.9330  177.0980  138.5560 N   0  0  0  0  0  2  0  0  0  0  0  0
  187.6270  176.6470  137.5450 N   0  0  0  0  0  2  0  0  0  0  0  0
  189.1470  177.9610  136.3550 O   0  0  0  0  0  0  0  0  0  0  0  0
  188.8020  177.4560  137.4560 C   0  0  0  0  0  0  0  0  0  0  0  0
  184.6430  177.1220  135.5900 C   0  0  0  0  0  2  0  0  0  0  0  0
  184.3620  175.8820  136.4260 C   0  0  1  0  0  3  0  0  0  0  0  0
  185.9680  174.0430  135.9460 C   0  0  0  0  0  2  0  0  0  0  0  0
  184.8470  173.4890  137.9680 O   0  0  0  0  0  1  0  0  0  0  0  0
  186.0280  174.0340  137.4630 C   0  0  2  0  0  3  0  0  0  0  0  0
  186.8300  176.3260  136.3680 C   0  0  1  0  0  3  0  0  0  0  0  0
  185.7440  175.3320  136.7140 C   0  0  2  0  0  0  0  0  0  0  0  0
  186.0720  177.5610  135.9130 C   0  0  0  0  0  2  0  0  0  0  0  0
  183.6480  176.2680  137.6930 C   0  0  0  0  0  0  0  0  0  0  0  0
  184.2500  176.9520  138.5680 O   0  0  0  0  0  0  0  0  0  0  0  0
  181.7710  175.6290  139.2150 C   0  0  0  0  0  3  0  0  0  0  0  0
  179.5800  175.0920  138.3260 C   0  0  0  0  0  3  0  0  0  0  0  0
  182.2490  175.8630  137.9170 C   0  0  0  0  0  0  0  0  0  0  0  0
  180.0490  175.3210  137.0310 C   0  0  0  0  0  3  0  0  0  0  0  0
  181.3770  175.7060  136.8270 C   0  0  0  0  0  3  0  0  0  0  0  0
  180.4400  175.2470  139.4180 C   0  0  0  0  0  3  0  0  0  0  0  0
  187.1970  177.7810  141.3750 C   0  0  0  0  0  3  0  0  0  0  0  0
  188.2070  178.1670  140.6040 C   0  0  0  0  0  3  0  0  0  0  0  0
  186.6880  179.9930  142.1490 C   0  0  0  0  0  2  0  0  0  0  0  0
  186.3100  178.7220  142.0750 C   0  0  0  0  0  0  0  0  0  0  0  0
  183.7540  178.1900  144.6330 O   0  0  0  0  0  0  0  0  0  0  0  0
  185.0850  178.2900  142.7050 N   0  0  0  0  0  0  0  0  0  0  0  0
  184.9040  178.3550  144.1360 C   0  0  0  0  0  0  0  0  0  0  0  0
  185.6720  179.0670  146.4240 C   0  0  0  0  0  1  0  0  0  0  0  0
  186.0820  178.5440  145.0530 C   0  0  1  0  0  3  0  0  0  0  0  0
  186.9630  177.2950  145.1300 C   0  0  0  0  0  2  0  0  0  0  0  0
  188.4550  177.5890  144.9630 C   0  0  0  0  0  2  0  0  0  0  0  0
  188.5950  177.0900  147.2930 O   0  0  0  0  0  0  0  0  0  0  0  0
  189.2170  177.2460  146.2080 C   0  0  0  0  0  0  0  0  0  0  0  0
  191.3100  176.3830  147.1870 C   0  0  0  0  0  1  0  0  0  0  0  0
  190.6070  177.1260  146.2020 O   0  0  0  0  0  0  0  0  0  0  0  0
  183.9610  177.8760  141.8730 C   0  0  0  0  0  2  0  0  0  0  0  0
  183.2910  179.0970  141.2560 C   0  0  0  0  0  2  0  0  0  0  0  0
  181.9150  178.7770  140.6630 C   0  0  2  0  0  3  0  0  0  0  0  0
  181.7230  179.3640  139.2920 C   0  0  0  0  0  0  0  0  0  0  0  0
  180.6360  179.0010  138.5010 O   0  0  0  0  0  0  0  0  0  0  0  0
  182.5860  180.1540  138.8280 O   0  0  0  0  0  1  0  0  0  0  0  0
  180.7310  180.1270  142.2210 O   0  0  0  0  0  0  0  0  0  0  0  0
  180.7820  179.0710  141.6090 C   0  0  0  0  0  0  0  0  0  0  0  0
  179.6950  178.0680  141.7830 C   0  0  0  0  0  1  0  0  0  0  0  0
  2  8  1  6  0  0  0
  2  3  1  0  0  0  0
  3 26  1  1  0  0  0
  3  1  1  0  0  0  0
  4  1  1  0  0  0  0
  5  2  1  0  0  0  0
  5  4  1  0  0  0  0
  7  8  2  0  0  0  0
  8  6  1  0  0  0  0
  9 16  1  0  0  0  0
  9 10  1  0  0  0  0
 10 15  1  0  0  0  0
 10 17  1  1  0  0  0
 11 13  1  0  0  0  0
 13 12  1  1  0  0  0
 14 15  1  0  0  0  0
 14  6  1  1  0  0  0
 15 11  1  6  0  0  0
 15 13  1  0  0  0  0
 16 14  1  0  0  0  0
 17 21  1  0  0  0  0
 17 18  2  0  0  0  0
 19 24  1  0  0  0  0
 20 24  2  0  0  0  0
 21 19  2  0  0  0  0
 22 20  1  0  0  0  0
 23 22  2  0  0  0  0
 23 21  1  0  0  0  0
 25 28  1  0  0  0  0
 26 25  2  0  0  0  0
 28 27  2  0  0  0  0
 28 30  1  0  0  0  0
 30 31  1  0  0  0  0
 31 29  2  0  0  0  0
 31 33  1  0  0  0  0
 33 34  1  0  0  0  0
 33 32  1  1  0  0  0
 35 34  1  0  0  0  0
 35 37  1  0  0  0  0
 37 36  2  0  0  0  0
 39 37  1  0  0  0  0
 39 38  1  0  0  0  0
 40 30  1  0  0  0  0
 41 40  1  0  0  0  0
 42 41  1  1  0  0  0
 42 47  1  0  0  0  0
 43 42  1  0  0  0  0
 44 43  2  0  0  0  0
 45 43  1  0  0  0  0
 47 48  1  0  0  0  0
 47 46  2  0  0  0  0
M  END
>  <MODEL>
8

>  <REMARK>
 VINA RESULT:      -7.2      2.956      7.397
  Name = 
  17 active torsions:
  status: ('A' for Active; 'I' for Inactive)
    1  A    between atoms: C_1  and  C_45
    2  A    between atoms: C_5  and  C_8
    3  A    between atoms: C_6  and  C_41
    4  A    between atoms: C_6  and  C_42
    5  A    between atoms: C_8  and  C_17
    6  A    between atoms: C_9  and  C_11
    7  A    between atoms: C_9  and  C_12
    8  A    between atoms: C_9  and  C_31
    9  A    between atoms: C_12  and  C_20
   10  A    between atoms: N_16  and  C_20
   11  A    between atoms: N_16  and  C_45
   12  A    between atoms: N_21  and  C_38
   13  A    between atoms: C_22  and  C_48
   14  A    between atoms: O_23  and  C_42
   15  A    between atoms: C_24  and  C_43
   16  A    between atoms: C_28  and  C_29
   17  A    between atoms: C_41  and  C_43
                            x       y       z     vdW  Elec       q    Type
                         _______ _______ _______ _____ _____    ______ ____

>  <TORSDO>
F 17

$$$$
=
 OpenBabel11062412013D

 48 51  0  0  1  0  0  0  0  0999 V2000
  189.3050  176.4340  142.1830 N   0  0  0  0  0  2  0  0  0  0  0  0
  189.6800  177.5610  140.2030 C   0  0  1  0  0  3  0  0  0  0  0  0
  188.5970  177.0350  141.0780 C   0  0  2  0  0  3  0  0  0  0  0  0
  190.5670  176.0350  141.6910 N   0  0  0  0  0  2  0  0  0  0  0  0
  190.8300  176.7250  140.4840 N   0  0  0  0  0  2  0  0  0  0  0  0
  188.0130  177.0610  138.3560 N   0  0  0  0  0  2  0  0  0  0  0  0
  190.1630  177.8480  137.8960 O   0  0  0  0  0  0  0  0  0  0  0  0
  189.3130  177.4980  138.7580 C   0  0  0  0  0  0  0  0  0  0  0  0
  185.5960  177.5010  135.7260 C   0  0  0  0  0  2  0  0  0  0  0  0
  185.4470  176.0470  136.1470 C   0  0  1  0  0  3  0  0  0  0  0  0
  187.5420  174.7500  135.8020 C   0  0  0  0  0  2  0  0  0  0  0  0
  186.1340  173.4510  137.2100 O   0  0  0  0  0  1  0  0  0  0  0  0
  187.2200  174.3260  137.2240 C   0  0  2  0  0  3  0  0  0  0  0  0
  187.6470  176.9410  136.9500 C   0  0  1  0  0  3  0  0  0  0  0  0
  186.8060  175.7060  136.7210 C   0  0  2  0  0  0  0  0  0  0  0  0
  186.7340  178.0910  136.5610 C   0  0  0  0  0  2  0  0  0  0  0  0
  184.3630  175.9210  137.1830 C   0  0  0  0  0  0  0  0  0  0  0  0
  184.5370  176.4120  138.3340 O   0  0  0  0  0  0  0  0  0  0  0  0
  182.9680  174.4840  135.6880 C   0  0  0  0  0  3  0  0  0  0  0  0
  180.6780  173.9410  136.2700 C   0  0  0  0  0  3  0  0  0  0  0  0
  183.0970  175.2380  136.8640 C   0  0  0  0  0  0  0  0  0  0  0  0
  180.7990  174.6900  137.4420 C   0  0  0  0  0  3  0  0  0  0  0  0
  182.0030  175.3350  137.7390 C   0  0  0  0  0  3  0  0  0  0  0  0
  181.7630  173.8370  135.3940 C   0  0  0  0  0  3  0  0  0  0  0  0
  186.7380  177.8900  142.4010 C   0  0  0  0  0  3  0  0  0  0  0  0
  187.7330  178.1470  141.5600 C   0  0  0  0  0  3  0  0  0  0  0  0
  186.0530  180.1820  142.5600 C   0  0  0  0  0  2  0  0  0  0  0  0
  185.8120  178.9200  142.8940 C   0  0  0  0  0  0  0  0  0  0  0  0
  183.7390  178.6340  145.8910 O   0  0  0  0  0  0  0  0  0  0  0  0
  184.6970  178.5950  143.7500 N   0  0  0  0  0  0  0  0  0  0  0  0
  184.7870  178.7010  145.1880 C   0  0  0  0  0  0  0  0  0  0  0  0
  186.0610  179.6660  147.1320 C   0  0  0  0  0  1  0  0  0  0  0  0
  186.1240  178.8180  145.8680 C   0  0  1  0  0  3  0  0  0  0  0  0
  186.7780  177.4530  146.0980 C   0  0  0  0  0  2  0  0  0  0  0  0
  187.8740  177.4730  147.1660 C   0  0  0  0  0  2  0  0  0  0  0  0
  190.0250  176.4530  147.3350 O   0  0  0  0  0  0  0  0  0  0  0  0
  189.1930  177.0460  146.5960 C   0  0  0  0  0  0  0  0  0  0  0  0
  189.9260  178.6150  144.8400 C   0  0  0  0  0  1  0  0  0  0  0  0
  189.5370  177.3190  145.2720 O   0  0  0  0  0  0  0  0  0  0  0  0
  183.4120  178.2510  143.1510 C   0  0  0  0  0  2  0  0  0  0  0  0
  183.5770  178.0290  141.6530 C   0  0  0  0  0  2  0  0  0  0  0  0
  182.7570  179.0160  140.8170 C   0  0  2  0  0  3  0  0  0  0  0  0
  181.3140  178.6090  140.6900 C   0  0  0  0  0  0  0  0  0  0  0  0
  180.2950  179.5600  140.7130 O   0  0  0  0  0  1  0  0  0  0  0  0
  181.0160  177.3890  140.6170 O   0  0  0  0  0  0  0  0  0  0  0  0
  184.5470  179.7900  139.4580 O   0  0  0  0  0  0  0  0  0  0  0  0
  183.4050  179.3580  139.5030 C   0  0  0  0  0  0  0  0  0  0  0  0
  182.6500  179.1440  138.2370 C   0  0  0  0  0  1  0  0  0  0  0  0
  2  8  1  6  0  0  0
  2  5  1  0  0  0  0
  2  3  1  0  0  0  0
  3 26  1  1  0  0  0
  3  1  1  0  0  0  0
  4  1  1  0  0  0  0
  5  4  1  0  0  0  0
  6  8  1  0  0  0  0
  7  8  2  0  0  0  0
  9 10  1  0  0  0  0
  9 16  1  0  0  0  0
 10 15  1  0  0  0  0
 10 17  1  1  0  0  0
 11 13  1  0  0  0  0
 13 12  1  6  0  0  0
 14  6  1  1  0  0  0
 15 11  1  6  0  0  0
 15 14  1  0  0  0  0
 15 13  1  0  0  0  0
 16 14  1  0  0  0  0
 17 18  2  0  0  0  0
 19 21  1  0  0  0  0
 20 22  2  0  0  0  0
 21 17  1  0  0  0  0
 21 23  2  0  0  0  0
 22 23  1  0  0  0  0
 24 19  2  0  0  0  0
 24 20  1  0  0  0  0
 25 28  1  0  0  0  0
 26 25  2  0  0  0  0
 27 28  2  0  0  0  0
 28 30  1  0  0  0  0
 30 31  1  0  0  0  0
 31 33  1  0  0  0  0
 31 29  2  0  0  0  0
 33 34  1  0  0  0  0
 33 32  1  1  0  0  0
 34 35  1  0  0  0  0
 37 35  1  0  0  0  0
 37 36  2  0  0  0  0
 38 39  1  0  0  0  0
 39 37  1  0  0  0  0
 40 30  1  0  0  0  0
 41 40  1  0  0  0  0
 42 41  1  6  0  0  0
 43 44  1  0  0  0  0
 43 42  1  0  0  0  0
 45 43  2  0  0  0  0
 46 47  2  0  0  0  0
 47 42  1  0  0  0  0
 48 47  1  0  0  0  0
M  END
>  <MODEL>
9

>  <REMARK>
 VINA RESULT:      -7.2      3.035      7.417
  Name = 
  17 active torsions:
  status: ('A' for Active; 'I' for Inactive)
    1  A    between atoms: C_1  and  C_45
    2  A    between atoms: C_5  and  C_8
    3  A    between atoms: C_6  and  C_41
    4  A    between atoms: C_6  and  C_42
    5  A    between atoms: C_8  and  C_17
    6  A    between atoms: C_9  and  C_11
    7  A    between atoms: C_9  and  C_12
    8  A    between atoms: C_9  and  C_31
    9  A    between atoms: C_12  and  C_20
   10  A    between atoms: N_16  and  C_20
   11  A    between atoms: N_16  and  C_45
   12  A    between atoms: N_21  and  C_38
   13  A    between atoms: C_22  and  C_48
   14  A    between atoms: O_23  and  C_42
   15  A    between atoms: C_24  and  C_43
   16  A    between atoms: C_28  and  C_29
   17  A    between atoms: C_41  and  C_43
                            x       y       z     vdW  Elec       q    Type
                         _______ _______ _______ _____ _____    ______ ____

>  <TORSDO>
F 17

$$$$
