=
 OpenBabel11062414093D

 32 35  0  0  1  0  0  0  0  0999 V2000
  186.3620  177.5420  146.0230 C   0  0  0  0  0  2  0  0  0  0  0  0
  185.7420  179.5970  147.0870 F   0  0  0  0  0  0  0  0  0  0  0  0
  186.8270  178.1710  144.8500 O   0  0  0  0  0  0  0  0  0  0  0  0
  186.7430  178.1250  138.7630 N   0  0  0  0  0  2  0  0  0  0  0  0
  184.6380  178.5060  137.6380 C   0  0  0  0  0  2  0  0  0  0  0  0
  183.6360  179.6970  143.6160 C   0  0  2  0  0  3  0  0  0  0  0  0
  184.6610  180.4970  144.4100 C   0  0  0  0  0  2  0  0  0  0  0  0
  185.7490  178.1510  143.9470 C   0  0  1  0  0  3  0  0  0  0  0  0
  181.3160  178.8140  142.0620 C   0  0  0  0  0  2  0  0  0  0  0  0
  185.9160  177.6880  137.6520 C   0  0  0  0  0  2  0  0  0  0  0  0
  185.1950  177.8180  141.5490 C   0  0  0  0  0  2  0  0  0  0  0  0
  182.1710  177.6870  141.5030 C   0  0  0  0  0  2  0  0  0  0  0  0
  183.4200  177.6140  137.8430 C   0  0  1  0  0  3  0  0  0  0  0  0
  187.5620  178.0160  142.1970 C   0  0  0  0  0  2  0  0  0  0  0  0
  188.2200  178.8980  141.1520 C   0  0  0  0  0  2  0  0  0  0  0  0
  181.3220  178.7500  143.5860 C   0  0  0  0  0  2  0  0  0  0  0  0
  183.0090  178.1760  140.3190 C   0  0  2  0  0  3  0  0  0  0  0  0
  184.1300  178.5660  145.8120 O   0  0  0  0  0  0  0  0  0  0  0  0
  182.2340  179.8140  144.1930 C   0  0  0  0  0  2  0  0  0  0  0  0
  188.5870  176.8220  138.1690 O   0  0  0  0  0  0  0  0  0  0  0  0
  188.8150  178.0700  140.1160 N   0  0  0  0  0  2  0  0  0  0  0  0
  188.0660  177.6320  138.9820 C   0  0  0  0  0  0  0  0  0  0  0  0
  184.6010  178.9850  144.5460 C   0  0  2  0  0  0  0  0  0  0  0  0
  184.8010  177.6920  147.8030 F   0  0  0  0  0  0  0  0  0  0  0  0
  183.2930  177.0730  139.2770 C   0  0  1  0  0  3  0  0  0  0  0  0
  186.1570  178.5140  142.5070 C   0  0  2  0  0  3  0  0  0  0  0  0
  185.2370  178.3720  146.6820 C   0  0  0  0  0  0  0  0  0  0  0  0
  184.3090  178.8210  140.8130 C   0  0  0  0  0  2  0  0  0  0  0  0
  182.3160  176.0730  139.3060 O   0  0  0  0  0  1  0  0  0  0  0  0
  181.3220  177.6550  136.7060 O   0  0  0  0  0  0  0  0  0  0  0  0
  181.9370  179.6330  137.6860 O   0  0  0  0  0  1  0  0  0  0  0  0
  182.1730  178.3000  137.3730 C   0  0  0  0  0  0  0  0  0  0  0  0
  1 27  1  0  0  0  0
  3  1  1  0  0  0  0
  4 22  1  0  0  0  0
  5 10  1  0  0  0  0
  5 13  1  0  0  0  0
  6 19  1  1  0  0  0
  6  7  1  0  0  0  0
  6 23  1  0  0  0  0
  8 23  1  0  0  0  0
  8  3  1  1  0  0  0
  9 16  1  0  0  0  0
 10  4  1  0  0  0  0
 12  9  1  0  0  0  0
 13 32  1  1  0  0  0
 13 25  1  0  0  0  0
 14 26  1  0  0  0  0
 15 14  1  0  0  0  0
 16 19  1  0  0  0  0
 17 28  1  1  0  0  0
 17 12  1  0  0  0  0
 18 27  1  0  0  0  0
 20 22  2  0  0  0  0
 21 15  1  0  0  0  0
 22 21  1  0  0  0  0
 23  7  1  1  0  0  0
 23 18  1  0  0  0  0
 25 29  1  6  0  0  0
 25 17  1  0  0  0  0
 26 11  1  6  0  0  0
 26  8  1  0  0  0  0
 27  2  1  0  0  0  0
 27 24  1  0  0  0  0
 28 11  1  0  0  0  0
 30 32  2  0  0  0  0
 32 31  1  0  0  0  0
M  END
>  <MODEL>
1

>  <REMARK>
 VINA RESULT:      -7.0      0.000      0.000
  Name = 
  1 active torsions:
  status: ('A' for Active; 'I' for Inactive)
    1  A    between atoms: C_14  and  C_26
                            x       y       z     vdW  Elec       q    Type
                         _______ _______ _______ _____ _____    ______ ____

>  <TORSDO>
F 1

$$$$
=
 OpenBabel11062414093D

 32 35  0  0  1  0  0  0  0  0999 V2000
  181.2480  180.1520  137.3750 C   0  0  0  0  0  2  0  0  0  0  0  0
  179.5730  178.4440  137.2450 F   0  0  0  0  0  0  0  0  0  0  0  0
  182.3020  179.2440  137.6030 O   0  0  0  0  0  0  0  0  0  0  0  0
  187.2040  177.9980  140.9920 N   0  0  0  0  0  2  0  0  0  0  0  0
  186.8970  177.5980  143.3550 C   0  0  0  0  0  2  0  0  0  0  0  0
  181.2340  177.8150  140.8970 C   0  0  2  0  0  3  0  0  0  0  0  0
  180.9550  177.1050  139.5780 C   0  0  0  0  0  2  0  0  0  0  0  0
  182.4600  179.1780  138.9990 C   0  0  1  0  0  3  0  0  0  0  0  0
  181.4550  178.5730  143.7170 C   0  0  0  0  0  2  0  0  0  0  0  0
  187.7620  178.2680  142.3050 C   0  0  0  0  0  2  0  0  0  0  0  0
  184.1860  179.0450  140.7810 C   0  0  0  0  0  2  0  0  0  0  0  0
  182.6300  179.4640  143.3440 C   0  0  0  0  0  2  0  0  0  0  0  0
  186.2850  178.6300  144.2940 C   0  0  1  0  0  3  0  0  0  0  0  0
  184.8840  178.7560  138.4380 C   0  0  0  0  0  2  0  0  0  0  0  0
  185.8790  177.6110  138.4260 C   0  0  0  0  0  2  0  0  0  0  0  0
  180.2370  178.9600  142.8840 C   0  0  0  0  0  2  0  0  0  0  0  0
  183.9260  178.6520  143.2710 C   0  0  2  0  0  3  0  0  0  0  0  0
  179.9830  179.3330  139.3250 O   0  0  0  0  0  0  0  0  0  0  0  0
  179.9870  177.9640  141.7530 C   0  0  0  0  0  2  0  0  0  0  0  0
  188.9780  178.9550  139.8150 O   0  0  0  0  0  0  0  0  0  0  0  0
  187.2320  178.1350  138.5200 N   0  0  0  0  0  2  0  0  0  0  0  0
  187.8520  178.3930  139.7800 C   0  0  0  0  0  0  0  0  0  0  0  0
  181.1640  178.6100  139.6060 C   0  0  2  0  0  0  0  0  0  0  0  0
  178.9310  180.5410  137.7080 F   0  0  0  0  0  0  0  0  0  0  0  0
  185.1800  179.4740  143.6370 C   0  0  1  0  0  3  0  0  0  0  0  0
  183.7630  178.4780  139.4300 C   0  0  2  0  0  3  0  0  0  0  0  0
  179.9160  179.5980  137.9290 C   0  0  0  0  0  0  0  0  0  0  0  0
  184.0730  178.0020  141.8900 C   0  0  0  0  0  2  0  0  0  0  0  0
  184.8650  180.5500  144.4740 O   0  0  0  0  0  1  0  0  0  0  0  0
  186.2590  176.8410  145.8730 O   0  0  0  0  0  0  0  0  0  0  0  0
  184.9770  178.6540  146.4370 O   0  0  0  0  0  1  0  0  0  0  0  0
  185.8370  177.9870  145.5720 C   0  0  0  0  0  0  0  0  0  0  0  0
  1  3  1  0  0  0  0
  1 27  1  0  0  0  0
  2 27  1  0  0  0  0
  4 10  1  0  0  0  0
  5 13  1  0  0  0  0
  6  7  1  6  0  0  0
  6 19  1  0  0  0  0
  8  3  1  6  0  0  0
  8 26  1  0  0  0  0
  8 23  1  0  0  0  0
 10  5  1  0  0  0  0
 11 28  1  0  0  0  0
 12  9  1  0  0  0  0
 13 32  1  1  0  0  0
 15 14  1  0  0  0  0
 15 21  1  0  0  0  0
 16  9  1  0  0  0  0
 17 28  1  6  0  0  0
 17 12  1  0  0  0  0
 17 25  1  0  0  0  0
 18 23  1  0  0  0  0
 19 16  1  0  0  0  0
 21 22  1  0  0  0  0
 22 20  2  0  0  0  0
 22  4  1  0  0  0  0
 23  7  1  6  0  0  0
 23  6  1  0  0  0  0
 24 27  1  0  0  0  0
 25 13  1  0  0  0  0
 25 29  1  1  0  0  0
 26 14  1  6  0  0  0
 26 11  1  0  0  0  0
 27 18  1  0  0  0  0
 32 30  2  0  0  0  0
 32 31  1  0  0  0  0
M  END
>  <MODEL>
2

>  <REMARK>
 VINA RESULT:      -6.8      3.271      6.498
  Name = 
  1 active torsions:
  status: ('A' for Active; 'I' for Inactive)
    1  A    between atoms: C_14  and  C_26
                            x       y       z     vdW  Elec       q    Type
                         _______ _______ _______ _____ _____    ______ ____

>  <TORSDO>
F 1

$$$$
=
 OpenBabel11062414093D

 32 35  0  0  1  0  0  0  0  0999 V2000
  190.3040  179.1820  144.3790 C   0  0  0  0  0  2  0  0  0  0  0  0
  191.5440  177.1830  144.8330 F   0  0  0  0  0  0  0  0  0  0  0  0
  189.1140  178.4950  144.0640 O   0  0  0  0  0  0  0  0  0  0  0  0
  184.4990  178.0030  140.1240 N   0  0  0  0  0  2  0  0  0  0  0  0
  184.9920  177.3480  137.8510 C   0  0  0  0  0  2  0  0  0  0  0  0
  190.2340  176.6010  141.0330 C   0  0  2  0  0  3  0  0  0  0  0  0
  190.1950  175.9640  142.4160 C   0  0  0  0  0  2  0  0  0  0  0  0
  189.1130  178.3440  142.6660 C   0  0  1  0  0  3  0  0  0  0  0  0
  190.5200  177.1440  138.1690 C   0  0  0  0  0  2  0  0  0  0  0  0
  184.1730  178.2690  138.7350 C   0  0  0  0  0  2  0  0  0  0  0  0
  187.6250  178.4190  140.6780 C   0  0  0  0  0  2  0  0  0  0  0  0
  189.5290  178.2860  138.3280 C   0  0  0  0  0  2  0  0  0  0  0  0
  185.9200  178.1470  136.9440 C   0  0  1  0  0  3  0  0  0  0  0  0
  186.6060  178.4810  142.9180 C   0  0  0  0  0  2  0  0  0  0  0  0
  185.3940  177.5710  142.8630 C   0  0  0  0  0  2  0  0  0  0  0  0
  191.6840  177.3410  139.1350 C   0  0  0  0  0  2  0  0  0  0  0  0
  188.0890  177.7690  138.2740 C   0  0  2  0  0  3  0  0  0  0  0  0
  191.5870  177.9570  142.6680 O   0  0  0  0  0  0  0  0  0  0  0  0
  191.5770  176.4160  140.3450 C   0  0  0  0  0  2  0  0  0  0  0  0
  182.8450  179.4020  140.9940 O   0  0  0  0  0  0  0  0  0  0  0  0
  184.2060  178.3530  142.5570 N   0  0  0  0  0  2  0  0  0  0  0  0
  183.8120  178.6250  141.2120 C   0  0  0  0  0  0  0  0  0  0  0  0
  190.3200  177.4710  142.2730 C   0  0  2  0  0  0  0  0  0  0  0  0
  192.6730  179.0550  144.3400 F   0  0  0  0  0  0  0  0  0  0  0  0
  187.0950  178.7980  137.6940 C   0  0  1  0  0  3  0  0  0  0  0  0
  187.7510  177.8940  142.1050 C   0  0  2  0  0  3  0  0  0  0  0  0
  191.5420  178.3200  144.0420 C   0  0  0  0  0  0  0  0  0  0  0  0
  187.6420  177.2840  139.6570 C   0  0  0  0  0  2  0  0  0  0  0  0
  187.7320  179.7100  136.8470 O   0  0  0  0  0  1  0  0  0  0  0  0
  186.3600  176.0640  135.8670 O   0  0  0  0  0  1  0  0  0  0  0  0
  186.7720  177.9230  134.5940 O   0  0  0  0  0  0  0  0  0  0  0  0
  186.3690  177.3190  135.7780 C   0  0  0  0  0  0  0  0  0  0  0  0
  3  1  1  0  0  0  0
  4 22  1  0  0  0  0
  5 10  1  0  0  0  0
  6 19  1  6  0  0  0
  6 23  1  0  0  0  0
  6  7  1  0  0  0  0
  8  3  1  1  0  0  0
  9 12  1  0  0  0  0
  9 16  1  0  0  0  0
 10  4  1  0  0  0  0
 13 32  1  6  0  0  0
 13 25  1  0  0  0  0
 13  5  1  0  0  0  0
 15 14  1  0  0  0  0
 16 19  1  0  0  0  0
 17 12  1  1  0  0  0
 17 28  1  0  0  0  0
 18 27  1  0  0  0  0
 20 22  2  0  0  0  0
 21 15  1  0  0  0  0
 22 21  1  0  0  0  0
 23  7  1  1  0  0  0
 23  8  1  0  0  0  0
 23 18  1  0  0  0  0
 25 29  1  6  0  0  0
 25 17  1  0  0  0  0
 26 11  1  6  0  0  0
 26  8  1  0  0  0  0
 26 14  1  0  0  0  0
 27 24  1  0  0  0  0
 27  1  1  0  0  0  0
 27  2  1  0  0  0  0
 28 11  1  0  0  0  0
 31 32  2  0  0  0  0
 32 30  1  0  0  0  0
M  END
>  <MODEL>
3

>  <REMARK>
 VINA RESULT:      -5.9      3.208      6.075
  Name = 
  1 active torsions:
  status: ('A' for Active; 'I' for Inactive)
    1  A    between atoms: C_14  and  C_26
                            x       y       z     vdW  Elec       q    Type
                         _______ _______ _______ _____ _____    ______ ____

>  <TORSDO>
F 1

$$$$
=
 OpenBabel11062414093D

 32 35  0  0  1  0  0  0  0  0999 V2000
  185.7380  177.1880  136.7940 C   0  0  0  0  0  2  0  0  0  0  0  0
  186.8510  178.7640  135.3720 F   0  0  0  0  0  0  0  0  0  0  0  0
  185.7300  178.0480  137.9110 O   0  0  0  0  0  0  0  0  0  0  0  0
  186.8230  178.5250  143.8810 N   0  0  0  0  0  2  0  0  0  0  0  0
  189.0860  178.2010  144.6650 C   0  0  0  0  0  2  0  0  0  0  0  0
  189.4130  178.3920  138.5000 C   0  0  2  0  0  3  0  0  0  0  0  0
  188.6150  179.4390  137.7320 C   0  0  0  0  0  2  0  0  0  0  0  0
  186.8690  177.7130  138.6650 C   0  0  1  0  0  3  0  0  0  0  0  0
  191.5030  176.8590  139.8630 C   0  0  0  0  0  2  0  0  0  0  0  0
  187.6200  177.9150  144.9310 C   0  0  0  0  0  2  0  0  0  0  0  0
  187.6690  177.4170  140.9980 C   0  0  0  0  0  2  0  0  0  0  0  0
  190.4150  176.1830  140.6840 C   0  0  0  0  0  2  0  0  0  0  0  0
  189.8600  176.9070  144.4420 C   0  0  1  0  0  3  0  0  0  0  0  0
  185.4490  178.4150  140.6290 C   0  0  0  0  0  2  0  0  0  0  0  0
  185.3300  179.5680  141.6080 C   0  0  0  0  0  2  0  0  0  0  0  0
  191.2170  176.6640  138.3780 C   0  0  0  0  0  2  0  0  0  0  0  0
  190.0160  177.0520  141.8790 C   0  0  2  0  0  3  0  0  0  0  0  0
  188.1890  177.3310  136.5720 O   0  0  0  0  0  0  0  0  0  0  0  0
  190.6470  177.9310  137.7420 C   0  0  0  0  0  2  0  0  0  0  0  0
  184.7690  178.0540  144.8840 O   0  0  0  0  0  0  0  0  0  0  0  0
  184.6660  179.1160  142.8210 N   0  0  0  0  0  2  0  0  0  0  0  0
  185.3940  178.5370  143.9040 C   0  0  0  0  0  0  0  0  0  0  0  0
  188.1180  178.0060  137.8120 C   0  0  2  0  0  0  0  0  0  0  0  0
  186.9270  176.5900  134.8290 F   0  0  0  0  0  0  0  0  0  0  0  0
  189.5430  176.2310  143.0980 C   0  0  1  0  0  3  0  0  0  0  0  0
  186.8650  178.3290  140.0770 C   0  0  2  0  0  3  0  0  0  0  0  0
  186.9540  177.4810  135.8850 C   0  0  0  0  0  0  0  0  0  0  0  0
  188.9610  178.0840  141.4630 C   0  0  0  0  0  2  0  0  0  0  0  0
  190.0870  174.9420  143.0930 O   0  0  0  0  0  1  0  0  0  0  0  0
  191.9980  176.2750  145.2910 O   0  0  0  0  0  1  0  0  0  0  0  0
  191.9620  178.2400  144.1140 O   0  0  0  0  0  0  0  0  0  0  0  0
  191.3290  177.1240  144.6470 C   0  0  0  0  0  0  0  0  0  0  0  0
  1  3  1  0  0  0  0
  2 27  1  0  0  0  0
  4 22  1  0  0  0  0
  4 10  1  0  0  0  0
  5 10  1  0  0  0  0
  6  7  1  6  0  0  0
  8  3  1  6  0  0  0
  8 26  1  0  0  0  0
  9 12  1  0  0  0  0
 11 28  1  0  0  0  0
 13 32  1  6  0  0  0
 13  5  1  0  0  0  0
 14 15  1  0  0  0  0
 15 21  1  0  0  0  0
 16  9  1  0  0  0  0
 17 12  1  6  0  0  0
 17 25  1  0  0  0  0
 18 23  1  0  0  0  0
 19 16  1  0  0  0  0
 19  6  1  0  0  0  0
 21 22  1  0  0  0  0
 22 20  2  0  0  0  0
 23  7  1  6  0  0  0
 23  6  1  0  0  0  0
 23  8  1  0  0  0  0
 24 27  1  0  0  0  0
 25 29  1  1  0  0  0
 25 13  1  0  0  0  0
 26 14  1  1  0  0  0
 26 11  1  0  0  0  0
 27 18  1  0  0  0  0
 27  1  1  0  0  0  0
 28 17  1  0  0  0  0
 31 32  2  0  0  0  0
 32 30  1  0  0  0  0
M  END
>  <MODEL>
4

>  <REMARK>
 VINA RESULT:      -5.9      4.198      8.613
  Name = 
  1 active torsions:
  status: ('A' for Active; 'I' for Inactive)
    1  A    between atoms: C_14  and  C_26
                            x       y       z     vdW  Elec       q    Type
                         _______ _______ _______ _____ _____    ______ ____

>  <TORSDO>
F 1

$$$$
=
 OpenBabel11062414093D

 32 35  0  0  1  0  0  0  0  0999 V2000
  186.9730  176.6420  135.7570 C   0  0  0  0  0  2  0  0  0  0  0  0
  188.5930  178.1190  134.7900 F   0  0  0  0  0  0  0  0  0  0  0  0
  186.4360  177.6260  136.6120 O   0  0  0  0  0  0  0  0  0  0  0  0
  184.6370  178.8980  142.2870 N   0  0  0  0  0  2  0  0  0  0  0  0
  186.2850  178.8500  144.0540 C   0  0  0  0  0  2  0  0  0  0  0  0
  189.4240  178.3280  138.7600 C   0  0  2  0  0  3  0  0  0  0  0  0
  189.0550  179.2090  137.5720 C   0  0  0  0  0  2  0  0  0  0  0  0
  187.1020  177.4750  137.8410 C   0  0  1  0  0  3  0  0  0  0  0  0
  190.6680  177.1380  141.1290 C   0  0  0  0  0  2  0  0  0  0  0  0
  184.8660  178.4840  143.6600 C   0  0  0  0  0  2  0  0  0  0  0  0
  186.7360  177.5240  140.2980 C   0  0  0  0  0  2  0  0  0  0  0  0
  189.3340  176.4820  141.4500 C   0  0  0  0  0  2  0  0  0  0  0  0
  187.0930  177.6040  144.3950 C   0  0  1  0  0  3  0  0  0  0  0  0
  184.9240  178.2920  138.8190 C   0  0  0  0  0  2  0  0  0  0  0  0
  184.3490  179.5410  139.4600 C   0  0  0  0  0  2  0  0  0  0  0  0
  191.1040  176.7460  139.7210 C   0  0  0  0  0  2  0  0  0  0  0  0
  188.4150  177.4530  142.1940 C   0  0  2  0  0  3  0  0  0  0  0  0
  189.2450  176.9500  136.6590 O   0  0  0  0  0  0  0  0  0  0  0  0
  190.8750  177.8780  138.7220 C   0  0  0  0  0  2  0  0  0  0  0  0
  182.3590  178.3900  142.2990 O   0  0  0  0  0  0  0  0  0  0  0  0
  183.2060  179.1870  140.2880 N   0  0  0  0  0  2  0  0  0  0  0  0
  183.3590  178.8000  141.6540 C   0  0  0  0  0  0  0  0  0  0  0  0
  188.5990  177.7610  137.6190 C   0  0  2  0  0  0  0  0  0  0  0  0
  188.9440  175.9090  134.6580 F   0  0  0  0  0  0  0  0  0  0  0  0
  187.4440  176.7490  143.1660 C   0  0  1  0  0  3  0  0  0  0  0  0
  186.4360  178.2530  138.9920 C   0  0  2  0  0  3  0  0  0  0  0  0
  188.4660  176.9200  135.4700 C   0  0  0  0  0  0  0  0  0  0  0  0
  187.6560  178.3410  141.2000 C   0  0  0  0  0  2  0  0  0  0  0  0
  187.9470  175.5160  143.5940 O   0  0  0  0  0  1  0  0  0  0  0  0
  188.2420  177.8780  146.4690 O   0  0  0  0  0  1  0  0  0  0  0  0
  189.4800  178.3550  144.6010 O   0  0  0  0  0  0  0  0  0  0  0  0
  188.2970  177.9590  145.2140 C   0  0  0  0  0  0  0  0  0  0  0  0
  1  3  1  0  0  0  0
  2 27  1  0  0  0  0
  4 10  1  0  0  0  0
  5 13  1  0  0  0  0
  6  7  1  6  0  0  0
  8  3  1  6  0  0  0
  8 26  1  0  0  0  0
  9 12  1  0  0  0  0
 10  5  1  0  0  0  0
 11 28  1  0  0  0  0
 12 17  1  0  0  0  0
 13 32  1  6  0  0  0
 14 15  1  0  0  0  0
 15 21  1  0  0  0  0
 16  9  1  0  0  0  0
 17 28  1  6  0  0  0
 17 25  1  0  0  0  0
 18 23  1  0  0  0  0
 19  6  1  0  0  0  0
 19 16  1  0  0  0  0
 21 22  1  0  0  0  0
 22  4  1  0  0  0  0
 22 20  2  0  0  0  0
 23  7  1  6  0  0  0
 23  8  1  0  0  0  0
 23  6  1  0  0  0  0
 24 27  1  0  0  0  0
 25 29  1  1  0  0  0
 25 13  1  0  0  0  0
 26 14  1  6  0  0  0
 26 11  1  0  0  0  0
 27  1  1  0  0  0  0
 27 18  1  0  0  0  0
 31 32  2  0  0  0  0
 32 30  1  0  0  0  0
M  END
>  <MODEL>
5

>  <REMARK>
 VINA RESULT:      -5.7      4.147      8.265
  Name = 
  1 active torsions:
  status: ('A' for Active; 'I' for Inactive)
    1  A    between atoms: C_14  and  C_26
                            x       y       z     vdW  Elec       q    Type
                         _______ _______ _______ _____ _____    ______ ____

>  <TORSDO>
F 1

$$$$
=
 OpenBabel11062414093D

 32 35  0  0  1  0  0  0  0  0999 V2000
  187.0470  178.8920  145.8200 C   0  0  0  0  0  2  0  0  0  0  0  0
  187.5620  176.7610  146.7870 F   0  0  0  0  0  0  0  0  0  0  0  0
  186.1990  178.3530  144.8320 O   0  0  0  0  0  0  0  0  0  0  0  0
  184.7310  178.3780  138.9240 N   0  0  0  0  0  2  0  0  0  0  0  0
  186.3830  177.6340  137.3250 C   0  0  0  0  0  2  0  0  0  0  0  0
  188.6630  176.2910  142.9070 C   0  0  2  0  0  3  0  0  0  0  0  0
  187.7550  175.6830  143.9680 C   0  0  0  0  0  2  0  0  0  0  0  0
  186.9970  178.1830  143.6870 C   0  0  1  0  0  3  0  0  0  0  0  0
  190.6240  176.7530  140.7810 C   0  0  0  0  0  2  0  0  0  0  0  0
  185.3090  178.6620  137.6220 C   0  0  0  0  0  2  0  0  0  0  0  0
  186.9680  178.4120  141.2140 C   0  0  0  0  0  2  0  0  0  0  0  0
  189.8570  178.0120  140.4030 C   0  0  0  0  0  2  0  0  0  0  0  0
  187.7460  178.2990  137.1760 C   0  0  1  0  0  3  0  0  0  0  0  0
  184.8480  178.6320  142.4450 C   0  0  0  0  0  2  0  0  0  0  0  0
  183.8050  177.8780  141.6410 C   0  0  0  0  0  2  0  0  0  0  0  0
  191.0180  176.8190  142.2530 C   0  0  0  0  0  2  0  0  0  0  0  0
  188.6740  177.6760  139.4920 C   0  0  2  0  0  3  0  0  0  0  0  0
  188.9450  177.4920  145.1020 O   0  0  0  0  0  0  0  0  0  0  0  0
  190.1250  175.9310  143.1170 C   0  0  0  0  0  2  0  0  0  0  0  0
  183.0450  179.9830  138.7540 O   0  0  0  0  0  0  0  0  0  0  0  0
  183.1130  178.7960  140.7500 N   0  0  0  0  0  2  0  0  0  0  0  0
  183.6100  179.0960  139.4460 C   0  0  0  0  0  0  0  0  0  0  0  0
  188.1030  177.1610  144.0160 C   0  0  2  0  0  0  0  0  0  0  0  0
  188.9630  178.4720  147.1560 F   0  0  0  0  0  0  0  0  0  0  0  0
  188.3240  178.8110  138.5060 C   0  0  1  0  0  3  0  0  0  0  0  0
  186.1800  177.8960  142.4140 C   0  0  2  0  0  3  0  0  0  0  0  0
  188.1460  177.8780  146.2130 C   0  0  0  0  0  0  0  0  0  0  0  0
  187.4540  177.2690  140.3260 C   0  0  0  0  0  2  0  0  0  0  0  0
  189.4300  179.6250  138.2430 O   0  0  0  0  0  1  0  0  0  0  0  0
  189.4300  177.8870  135.5370 O   0  0  0  0  0  0  0  0  0  0  0  0
  188.7920  176.0560  136.7590 O   0  0  0  0  0  1  0  0  0  0  0  0
  188.6970  177.4050  136.4400 C   0  0  0  0  0  0  0  0  0  0  0  0
  1 27  1  0  0  0  0
  3  1  1  0  0  0  0
  4 22  1  0  0  0  0
  5 10  1  0  0  0  0
  6 19  1  1  0  0  0
  6  7  1  0  0  0  0
  6 23  1  0  0  0  0
  8 23  1  0  0  0  0
  8  3  1  1  0  0  0
  9 16  1  0  0  0  0
 10  4  1  0  0  0  0
 12  9  1  0  0  0  0
 13 32  1  1  0  0  0
 13  5  1  0  0  0  0
 13 25  1  0  0  0  0
 15 14  1  0  0  0  0
 16 19  1  0  0  0  0
 17 28  1  1  0  0  0
 17 12  1  0  0  0  0
 18 27  1  0  0  0  0
 20 22  2  0  0  0  0
 21 15  1  0  0  0  0
 22 21  1  0  0  0  0
 23  7  1  1  0  0  0
 23 18  1  0  0  0  0
 25 29  1  6  0  0  0
 25 17  1  0  0  0  0
 26 11  1  6  0  0  0
 26 14  1  0  0  0  0
 26  8  1  0  0  0  0
 27  2  1  0  0  0  0
 27 24  1  0  0  0  0
 28 11  1  0  0  0  0
 30 32  2  0  0  0  0
 32 31  1  0  0  0  0
M  END
>  <MODEL>
6

>  <REMARK>
 VINA RESULT:      -5.5      2.274      5.461
  Name = 
  1 active torsions:
  status: ('A' for Active; 'I' for Inactive)
    1  A    between atoms: C_14  and  C_26
                            x       y       z     vdW  Elec       q    Type
                         _______ _______ _______ _____ _____    ______ ____

>  <TORSDO>
F 1

$$$$
=
 OpenBabel11062414093D

 32 35  0  0  1  0  0  0  0  0999 V2000
  186.1740  179.6380  147.3580 C   0  0  0  0  0  2  0  0  0  0  0  0
  187.1310  177.5860  148.1430 F   0  0  0  0  0  0  0  0  0  0  0  0
  185.0730  179.0070  146.7420 O   0  0  0  0  0  0  0  0  0  0  0  0
  181.6560  178.6690  141.7150 N   0  0  0  0  0  2  0  0  0  0  0  0
  182.7000  177.9370  139.6610 C   0  0  0  0  0  2  0  0  0  0  0  0
  186.8520  176.9870  144.1360 C   0  0  2  0  0  3  0  0  0  0  0  0
  186.4080  176.3850  145.4630 C   0  0  0  0  0  2  0  0  0  0  0  0
  185.4370  178.8240  145.3950 C   0  0  1  0  0  3  0  0  0  0  0  0
  187.9220  177.4500  141.4490 C   0  0  0  0  0  2  0  0  0  0  0  0
  181.7280  178.9200  140.2860 C   0  0  0  0  0  2  0  0  0  0  0  0
  184.5400  178.9320  143.0820 C   0  0  0  0  0  2  0  0  0  0  0  0
  186.9900  178.6460  141.3280 C   0  0  0  0  0  2  0  0  0  0  0  0
  183.8800  178.6650  139.0300 C   0  0  1  0  0  3  0  0  0  0  0  0
  182.9650  179.0990  144.9670 C   0  0  0  0  0  2  0  0  0  0  0  0
  181.7620  178.2530  144.5960 C   0  0  0  0  0  2  0  0  0  0  0  0
  188.7950  177.6070  142.6890 C   0  0  0  0  0  2  0  0  0  0  0  0
  185.5910  178.2040  140.8940 C   0  0  2  0  0  3  0  0  0  0  0  0
  187.7940  178.3070  146.0630 O   0  0  0  0  0  0  0  0  0  0  0  0
  188.3170  176.7160  143.8340 C   0  0  0  0  0  2  0  0  0  0  0  0
  179.9130  180.1730  142.0990 O   0  0  0  0  0  0  0  0  0  0  0  0
  180.7450  179.0900  143.9780 N   0  0  0  0  0  2  0  0  0  0  0  0
  180.7400  179.3510  142.5740 C   0  0  0  0  0  0  0  0  0  0  0  0
  186.6530  177.8800  145.3470 C   0  0  2  0  0  0  0  0  0  0  0  0
  188.4560  179.3840  147.9550 F   0  0  0  0  0  0  0  0  0  0  0  0
  184.8470  179.2700  140.0610 C   0  0  1  0  0  3  0  0  0  0  0  0
  184.2510  178.4340  144.4940 C   0  0  2  0  0  3  0  0  0  0  0  0
  187.4050  178.7030  147.3720 C   0  0  0  0  0  0  0  0  0  0  0  0
  184.7630  177.7750  142.1110 C   0  0  0  0  0  2  0  0  0  0  0  0
  185.7370  180.1280  139.4080 O   0  0  0  0  0  1  0  0  0  0  0  0
  184.1380  176.6290  137.8140 O   0  0  0  0  0  1  0  0  0  0  0  0
  185.6830  178.2510  137.3330 O   0  0  0  0  0  0  0  0  0  0  0  0
  184.5750  177.7880  138.0330 C   0  0  0  0  0  0  0  0  0  0  0  0
  1 27  1  0  0  0  0
  3  1  1  0  0  0  0
  4 22  1  0  0  0  0
  5 10  1  0  0  0  0
  6 19  1  1  0  0  0
  6 23  1  0  0  0  0
  6  7  1  0  0  0  0
  8  3  1  1  0  0  0
  9 16  1  0  0  0  0
 10  4  1  0  0  0  0
 12  9  1  0  0  0  0
 13 32  1  1  0  0  0
 13  5  1  0  0  0  0
 13 25  1  0  0  0  0
 15 14  1  0  0  0  0
 16 19  1  0  0  0  0
 17 12  1  1  0  0  0
 17 28  1  0  0  0  0
 18 27  1  0  0  0  0
 20 22  2  0  0  0  0
 21 15  1  0  0  0  0
 22 21  1  0  0  0  0
 23  8  1  0  0  0  0
 23  7  1  1  0  0  0
 23 18  1  0  0  0  0
 25 29  1  6  0  0  0
 25 17  1  0  0  0  0
 26 11  1  6  0  0  0
 26 14  1  0  0  0  0
 26  8  1  0  0  0  0
 27 24  1  0  0  0  0
 27  2  1  0  0  0  0
 28 11  1  0  0  0  0
 30 32  1  0  0  0  0
 31 32  2  0  0  0  0
M  END
>  <MODEL>
7

>  <REMARK>
 VINA RESULT:      -5.2      2.579      4.927
  Name = 
  1 active torsions:
  status: ('A' for Active; 'I' for Inactive)
    1  A    between atoms: C_14  and  C_26
                            x       y       z     vdW  Elec       q    Type
                         _______ _______ _______ _____ _____    ______ ____

>  <TORSDO>
F 1

$$$$
=
 OpenBabel11062414093D

 32 35  0  0  1  0  0  0  0  0999 V2000
  187.4440  176.4210  136.1810 C   0  0  0  0  0  2  0  0  0  0  0  0
  189.2260  177.8510  135.4590 F   0  0  0  0  0  0  0  0  0  0  0  0
  186.7250  177.4610  136.8050 O   0  0  0  0  0  0  0  0  0  0  0  0
  183.7150  179.1770  141.8100 N   0  0  0  0  0  2  0  0  0  0  0  0
  184.9350  179.3310  143.8910 C   0  0  0  0  0  2  0  0  0  0  0  0
  189.1630  178.4320  139.4780 C   0  0  2  0  0  3  0  0  0  0  0  0
  189.0580  179.1940  138.1630 C   0  0  0  0  0  2  0  0  0  0  0  0
  187.1060  177.4370  138.1580 C   0  0  1  0  0  3  0  0  0  0  0  0
  189.8670  177.4910  142.1600 C   0  0  0  0  0  2  0  0  0  0  0  0
  183.6410  178.8920  143.2320 C   0  0  0  0  0  2  0  0  0  0  0  0
  186.2100  177.6920  140.4610 C   0  0  0  0  0  2  0  0  0  0  0  0
  188.5000  176.8280  142.2420 C   0  0  0  0  0  2  0  0  0  0  0  0
  185.6590  178.1430  144.5130 C   0  0  1  0  0  3  0  0  0  0  0  0
  184.7610  178.2760  138.5590 C   0  0  0  0  0  2  0  0  0  0  0  0
  184.0490  179.5610  138.9420 C   0  0  0  0  0  2  0  0  0  0  0  0
  190.6040  176.9880  140.9240 C   0  0  0  0  0  2  0  0  0  0  0  0
  187.4320  177.8360  142.6750 C   0  0  2  0  0  3  0  0  0  0  0  0
  189.4610  176.8700  137.5250 O   0  0  0  0  0  0  0  0  0  0  0  0
  190.5910  178.0210  139.7980 C   0  0  0  0  0  2  0  0  0  0  0  0
  181.4940  178.6090  141.3720 O   0  0  0  0  0  0  0  0  0  0  0  0
  182.7560  179.2490  139.5290 N   0  0  0  0  0  2  0  0  0  0  0  0
  182.6080  178.9890  140.9260 C   0  0  0  0  0  0  0  0  0  0  0  0
  188.6130  177.7440  138.2420 C   0  0  2  0  0  0  0  0  0  0  0  0
  189.6140  175.6490  135.6100 F   0  0  0  0  0  0  0  0  0  0  0  0
  186.2780  177.1930  143.4740 C   0  0  1  0  0  3  0  0  0  0  0  0
  186.1980  178.2940  139.0590 C   0  0  2  0  0  3  0  0  0  0  0  0
  188.9620  176.7130  136.2030 C   0  0  0  0  0  0  0  0  0  0  0  0
  186.9040  178.6110  141.4630 C   0  0  0  0  0  2  0  0  0  0  0  0
  186.6840  176.0170  144.1120 O   0  0  0  0  0  1  0  0  0  0  0  0
  186.2800  179.3700  146.4620 O   0  0  0  0  0  1  0  0  0  0  0  0
  187.9710  178.1690  145.4900 O   0  0  0  0  0  0  0  0  0  0  0  0
  186.6510  178.6020  145.5380 C   0  0  0  0  0  0  0  0  0  0  0  0
  1 27  1  0  0  0  0
  1  3  1  0  0  0  0
  2 27  1  0  0  0  0
  4 10  1  0  0  0  0
  5 13  1  0  0  0  0
  6  7  1  6  0  0  0
  6 19  1  0  0  0  0
  8  3  1  6  0  0  0
  8 23  1  0  0  0  0
  8 26  1  0  0  0  0
  9 12  1  0  0  0  0
 10  5  1  0  0  0  0
 11 28  1  0  0  0  0
 12 17  1  0  0  0  0
 13 32  1  1  0  0  0
 14 15  1  0  0  0  0
 15 21  1  0  0  0  0
 16  9  1  0  0  0  0
 17 28  1  6  0  0  0
 17 25  1  0  0  0  0
 18 23  1  0  0  0  0
 19 16  1  0  0  0  0
 21 22  1  0  0  0  0
 22 20  2  0  0  0  0
 22  4  1  0  0  0  0
 23  7  1  6  0  0  0
 23  6  1  0  0  0  0
 24 27  1  0  0  0  0
 25 29  1  1  0  0  0
 25 13  1  0  0  0  0
 26 14  1  6  0  0  0
 26 11  1  0  0  0  0
 27 18  1  0  0  0  0
 31 32  2  0  0  0  0
 32 30  1  0  0  0  0
M  END
>  <MODEL>
8

>  <REMARK>
 VINA RESULT:      -5.2      3.868      7.861
  Name = 
  1 active torsions:
  status: ('A' for Active; 'I' for Inactive)
    1  A    between atoms: C_14  and  C_26
                            x       y       z     vdW  Elec       q    Type
                         _______ _______ _______ _____ _____    ______ ____

>  <TORSDO>
F 1

$$$$
=
 OpenBabel11062414093D

 32 35  0  0  1  0  0  0  0  0999 V2000
  189.0570  178.7930  137.4430 C   0  0  0  0  0  2  0  0  0  0  0  0
  189.5390  176.6350  136.5200 F   0  0  0  0  0  0  0  0  0  0  0  0
  188.4800  178.2740  138.6190 O   0  0  0  0  0  0  0  0  0  0  0  0
  183.7690  178.6040  142.4620 N   0  0  0  0  0  2  0  0  0  0  0  0
  181.5670  178.0550  141.6310 C   0  0  0  0  0  2  0  0  0  0  0  0
  185.5320  176.4780  137.1650 C   0  0  2  0  0  3  0  0  0  0  0  0
  186.8250  175.7550  137.5220 C   0  0  0  0  0  2  0  0  0  0  0  0
  187.0950  178.2220  138.3800 C   0  0  1  0  0  3  0  0  0  0  0  0
  182.8230  177.1830  136.3050 C   0  0  0  0  0  2  0  0  0  0  0  0
  182.3740  179.0030  142.4990 C   0  0  0  0  0  2  0  0  0  0  0  0
  184.8940  178.6100  139.4640 C   0  0  0  0  0  2  0  0  0  0  0  0
  182.9080  178.4190  137.1860 C   0  0  0  0  0  2  0  0  0  0  0  0
  180.9110  178.8020  140.4760 C   0  0  1  0  0  3  0  0  0  0  0  0
  186.9190  178.6350  140.8630 C   0  0  0  0  0  2  0  0  0  0  0  0
  186.5720  177.8790  142.1320 C   0  0  0  0  0  2  0  0  0  0  0  0
  183.9900  177.1730  135.3240 C   0  0  0  0  0  2  0  0  0  0  0  0
  182.5580  178.0800  138.6370 C   0  0  2  0  0  3  0  0  0  0  0  0
  187.4930  177.5480  136.0020 O   0  0  0  0  0  0  0  0  0  0  0  0
  185.0750  176.1850  135.7450 C   0  0  0  0  0  2  0  0  0  0  0  0
  184.4600  180.1230  144.0940 O   0  0  0  0  0  0  0  0  0  0  0  0
  186.1360  178.8150  143.1570 N   0  0  0  0  0  2  0  0  0  0  0  0
  184.7720  179.2250  143.2690 C   0  0  0  0  0  0  0  0  0  0  0  0
  186.8410  177.2430  137.2190 C   0  0  2  0  0  0  0  0  0  0  0  0
  189.4190  178.3920  135.1320 F   0  0  0  0  0  0  0  0  0  0  0  0
  181.9090  179.2560  139.3970 C   0  0  1  0  0  3  0  0  0  0  0  0
  186.2680  177.9750  139.6550 C   0  0  2  0  0  3  0  0  0  0  0  0
  188.8650  177.8170  136.2600 C   0  0  0  0  0  0  0  0  0  0  0  0
  183.7940  177.5550  139.3780 C   0  0  0  0  0  2  0  0  0  0  0  0
  181.2710  180.1440  138.5260 O   0  0  0  0  0  1  0  0  0  0  0  0
  178.9310  178.5760  139.1640 O   0  0  0  0  0  0  0  0  0  0  0  0
  179.6470  176.6530  140.1820 O   0  0  0  0  0  1  0  0  0  0  0  0
  179.7710  178.0100  139.9100 C   0  0  0  0  0  0  0  0  0  0  0  0
  1  3  1  0  0  0  0
  4 10  1  0  0  0  0
  4 22  1  0  0  0  0
  5 10  1  0  0  0  0
  6 19  1  6  0  0  0
  6 23  1  0  0  0  0
  6  7  1  0  0  0  0
  8  3  1  1  0  0  0
  8 26  1  0  0  0  0
  9 12  1  0  0  0  0
 13 32  1  6  0  0  0
 13  5  1  0  0  0  0
 14 15  1  0  0  0  0
 15 21  1  0  0  0  0
 16 19  1  0  0  0  0
 16  9  1  0  0  0  0
 17 12  1  6  0  0  0
 17 28  1  0  0  0  0
 17 25  1  0  0  0  0
 18 27  1  0  0  0  0
 18 23  1  0  0  0  0
 21 22  1  0  0  0  0
 22 20  2  0  0  0  0
 23  7  1  1  0  0  0
 23  8  1  0  0  0  0
 24 27  1  0  0  0  0
 25 29  1  6  0  0  0
 25 13  1  0  0  0  0
 26 11  1  6  0  0  0
 26 14  1  0  0  0  0
 27  2  1  0  0  0  0
 27  1  1  0  0  0  0
 28 11  1  0  0  0  0
 30 32  2  0  0  0  0
 32 31  1  0  0  0  0
M  END
>  <MODEL>
9

>  <REMARK>
 VINA RESULT:      -5.2      3.689      6.698
  Name = 
  1 active torsions:
  status: ('A' for Active; 'I' for Inactive)
    1  A    between atoms: C_14  and  C_26
                            x       y       z     vdW  Elec       q    Type
                         _______ _______ _______ _____ _____    ______ ____

>  <TORSDO>
F 1

$$$$
