=
 OpenBabel11062415403D

 34 38  0  0  1  0  0  0  0  0999 V2000
  191.3410  175.8290  143.7580 C   0  0  0  0  0  1  0  0  0  0  0  0
  185.8790  178.7470  141.6230 C   0  0  0  0  0  0  0  0  0  0  0  0
  188.1320  177.8710  141.3210 C   0  0  0  0  0  0  0  0  0  0  0  0
  185.9480  178.4680  142.9820 C   0  0  0  0  0  3  0  0  0  0  0  0
  187.0920  177.8780  143.5220 C   0  0  0  0  0  0  0  0  0  0  0  0
  189.0540  177.6640  140.3900 C   0  0  0  0  0  3  0  0  0  0  0  0
  188.3550  175.9790  137.9440 O   0  0  0  0  0  0  0  0  0  0  0  0
  186.6100  174.1350  136.8830 O   0  0  0  0  0  1  0  0  0  0  0  0
  184.9100  176.6610  137.5940 N   0  0  2  0  0  0  0  0  0  0  0  0
  182.8340  177.5860  136.9280 C   0  0  0  0  0  3  0  0  0  0  0  0
  184.0850  177.8710  137.6880 C   0  0  1  0  0  3  0  0  0  0  0  0
  190.3740  177.0320  140.3790 C   0  0  0  0  0  0  0  0  0  0  0  0
  186.9740  178.4580  140.8140 C   0  0  0  0  0  3  0  0  0  0  0  0
  188.0290  175.6870  135.3510 O   0  0  0  0  0  0  0  0  0  0  0  0
  182.8000  176.3230  136.5620 C   0  0  0  0  0  3  0  0  0  0  0  0
  187.2800  175.6720  136.6670 P   0  0  2  0  0  0  0  0  0  0  0  0
  191.1130  176.9560  139.0710 C   0  0  0  0  0  0  0  0  0  0  0  0
  183.0110  179.4650  139.3100 C   0  0  0  0  0  2  0  0  0  0  0  0
  184.4870  179.3780  139.6220 C   0  0  1  0  0  3  0  0  0  0  0  0
  189.0330  177.1510  137.5950 C   0  0  0  0  0  2  0  0  0  0  0  0
  190.5000  177.0130  137.8700 C   0  0  0  0  0  3  0  0  0  0  0  0
  184.6800  179.2850  141.0620 N   0  0  0  0  0  2  0  0  0  0  0  0
  190.4600  176.4580  142.7930 N   0  0  0  0  0  0  0  0  0  0  0  0
  183.7430  178.1420  139.1510 C   0  0  2  0  0  3  0  0  0  0  0  0
  187.1110  177.6120  144.8900 O   0  0  0  0  0  1  0  0  0  0  0  0
  188.2000  177.5460  142.7010 C   0  0  0  0  0  0  0  0  0  0  0  0
  189.2210  176.9410  143.3180 C   0  0  0  0  0  3  0  0  0  0  0  0
  185.9500  176.9270  136.6020 C   0  0  0  0  0  2  0  0  0  0  0  0
  184.0260  175.6340  137.0330 C   0  0  0  0  0  2  0  0  0  0  0  0
  190.9510  176.5010  141.4540 C   0  0  0  0  0  3  0  0  0  0  0  0
  193.3080  177.5080  139.8440 O   0  0  0  0  0  0  0  0  0  0  0  0
  192.5990  176.8350  139.0500 C   0  0  0  0  0  0  0  0  0  0  0  0
  193.9300  176.7530  137.0970 O   0  0  0  0  0  1  0  0  0  0  0  0
  193.2940  175.9610  138.0540 C   0  0  0  0  0  2  0  0  0  0  0  0
  2  4  1  0  0  0  0
  3 26  1  0  0  0  0
  4  5  2  0  0  0  0
  5 25  1  0  0  0  0
  6  3  2  0  0  0  0
  9 28  1  6  0  0  0
  9 11  1  0  0  0  0
 11 10  1  6  0  0  0
 11 24  1  0  0  0  0
 12  6  1  0  0  0  0
 12 30  2  0  0  0  0
 13  3  1  0  0  0  0
 13  2  2  0  0  0  0
 15 10  2  0  0  0  0
 15 29  1  0  0  0  0
 16 14  2  6  0  0  0
 16  8  1  0  0  0  0
 16  7  1  0  0  0  0
 17 12  1  0  0  0  0
 19 18  1  1  0  0  0
 19 22  1  0  0  0  0
 20 21  1  0  0  0  0
 20  7  1  0  0  0  0
 21 17  2  0  0  0  0
 22  2  1  0  0  0  0
 23 27  1  0  0  0  0
 23  1  1  0  0  0  0
 24 18  1  6  0  0  0
 24 19  1  0  0  0  0
 26 27  2  0  0  0  0
 26  5  1  0  0  0  0
 28 16  1  0  0  0  0
 29  9  1  0  0  0  0
 30 23  1  0  0  0  0
 32 17  1  0  0  0  0
 32 31  2  0  0  0  0
 33 34  1  0  0  0  0
 34 32  1  0  0  0  0
M  END
>  <MODEL>
1

>  <REMARK>
 VINA RESULT:      -8.9      0.000      0.000
  Name = 
  2 active torsions:
  status: ('A' for Active; 'I' for Inactive)
    1  A    between atoms: C_19  and  C_33
    2  A    between atoms: C_20  and  C_33
                            x       y       z     vdW  Elec       q    Type
                         _______ _______ _______ _____ _____    ______ ____

>  <TORSDO>
F 2

$$$$
=
 OpenBabel11062415403D

 34 38  0  0  1  0  0  0  0  0999 V2000
  190.0410  176.7210  142.0410 C   0  0  0  0  0  1  0  0  0  0  0  0
  184.0350  178.8370  143.5750 C   0  0  0  0  0  0  0  0  0  0  0  0
  185.8590  178.4300  142.0140 C   0  0  0  0  0  0  0  0  0  0  0  0
  184.8340  178.4090  144.6280 C   0  0  0  0  0  3  0  0  0  0  0  0
  186.1390  177.9750  144.3890 C   0  0  0  0  0  0  0  0  0  0  0  0
  186.1670  178.5120  140.7260 C   0  0  0  0  0  3  0  0  0  0  0  0
  184.4410  177.0440  138.6820 O   0  0  0  0  0  0  0  0  0  0  0  0
  182.5750  175.0580  138.2960 O   0  0  0  0  0  1  0  0  0  0  0  0
  181.2830  177.1250  140.2550 N   0  0  2  0  0  0  0  0  0  0  0  0
  179.0940  177.7320  140.9250 C   0  0  0  0  0  3  0  0  0  0  0  0
  180.5250  178.1430  140.9920 C   0  0  1  0  0  3  0  0  0  0  0  0
  187.3340  178.1370  139.9270 C   0  0  0  0  0  0  0  0  0  0  0  0
  184.5600  178.8550  142.2870 C   0  0  0  0  0  3  0  0  0  0  0  0
  182.8260  177.0210  136.6070 O   0  0  0  0  0  0  0  0  0  0  0  0
  178.9870  176.5390  140.3800 C   0  0  0  0  0  3  0  0  0  0  0  0
  182.8880  176.7070  138.0860 P   0  0  2  0  0  0  0  0  0  0  0  0
  187.2770  178.3600  138.4400 C   0  0  0  0  0  0  0  0  0  0  0  0
  180.3270  179.3020  143.2150 C   0  0  0  0  0  2  0  0  0  0  0  0
  181.7460  179.4470  142.7190 C   0  0  1  0  0  3  0  0  0  0  0  0
  184.7230  178.3540  138.2830 C   0  0  0  0  0  2  0  0  0  0  0  0
  186.1210  178.4520  137.7500 C   0  0  0  0  0  3  0  0  0  0  0  0
  182.6770  179.2130  143.8140 N   0  0  0  0  0  2  0  0  0  0  0  0
  188.7300  177.2940  141.7990 N   0  0  0  0  0  0  0  0  0  0  0  0
  180.9820  178.1640  142.4490 C   0  0  2  0  0  3  0  0  0  0  0  0
  186.9000  177.5500  145.4760 O   0  0  0  0  0  1  0  0  0  0  0  0
  186.6730  177.9550  143.0750 C   0  0  0  0  0  0  0  0  0  0  0  0
  187.9170  177.4750  142.9600 C   0  0  0  0  0  3  0  0  0  0  0  0
  181.6150  177.6960  138.9520 C   0  0  0  0  0  2  0  0  0  0  0  0
  180.3340  176.0310  140.0220 C   0  0  0  0  0  2  0  0  0  0  0  0
  188.4370  177.5910  140.4350 C   0  0  0  0  0  3  0  0  0  0  0  0
  189.0590  179.6490  137.5020 O   0  0  0  0  0  0  0  0  0  0  0  0
  188.5320  178.5150  137.6510 C   0  0  0  0  0  0  0  0  0  0  0  0
  190.4170  177.0920  137.5390 O   0  0  0  0  0  1  0  0  0  0  0  0
  189.1710  177.3470  136.9670 C   0  0  0  0  0  2  0  0  0  0  0  0
  2 22  1  0  0  0  0
  2  4  1  0  0  0  0
  3 13  1  0  0  0  0
  3 26  1  0  0  0  0
  5  4  2  0  0  0  0
  5 25  1  0  0  0  0
  6  3  2  0  0  0  0
  9 28  1  6  0  0  0
  9 11  1  0  0  0  0
 11 10  1  1  0  0  0
 11 24  1  0  0  0  0
 12 30  2  0  0  0  0
 12  6  1  0  0  0  0
 13  2  2  0  0  0  0
 15 10  2  0  0  0  0
 16 14  2  6  0  0  0
 16  8  1  0  0  0  0
 16  7  1  0  0  0  0
 16 28  1  0  0  0  0
 17 12  1  0  0  0  0
 19 18  1  1  0  0  0
 19 22  1  0  0  0  0
 20  7  1  0  0  0  0
 21 20  1  0  0  0  0
 21 17  2  0  0  0  0
 23  1  1  0  0  0  0
 23 27  1  0  0  0  0
 24 19  1  0  0  0  0
 24 18  1  1  0  0  0
 26  5  1  0  0  0  0
 27 26  2  0  0  0  0
 29  9  1  0  0  0  0
 29 15  1  0  0  0  0
 30 23  1  0  0  0  0
 31 32  2  0  0  0  0
 32 17  1  0  0  0  0
 34 33  1  0  0  0  0
 34 32  1  0  0  0  0
M  END
>  <MODEL>
2

>  <REMARK>
 VINA RESULT:      -8.7      2.936      3.915
  Name = 
  2 active torsions:
  status: ('A' for Active; 'I' for Inactive)
    1  A    between atoms: C_19  and  C_33
    2  A    between atoms: C_20  and  C_33
                            x       y       z     vdW  Elec       q    Type
                         _______ _______ _______ _____ _____    ______ ____

>  <TORSDO>
F 2

$$$$
=
 OpenBabel11062415403D

 34 38  0  0  1  0  0  0  0  0999 V2000
  189.9100  176.6010  144.6590 C   0  0  0  0  0  1  0  0  0  0  0  0
  184.7850  178.9800  141.3440 C   0  0  0  0  0  0  0  0  0  0  0  0
  187.1030  178.2550  141.5290 C   0  0  0  0  0  0  0  0  0  0  0  0
  184.6120  178.7870  142.7090 C   0  0  0  0  0  3  0  0  0  0  0  0
  185.6660  178.3150  143.4930 C   0  0  0  0  0  0  0  0  0  0  0  0
  188.1970  178.0620  140.8020 C   0  0  0  0  0  3  0  0  0  0  0  0
  188.0780  176.1890  138.3960 O   0  0  0  0  0  0  0  0  0  0  0  0
  186.6810  174.1620  137.1650 O   0  0  0  0  0  1  0  0  0  0  0  0
  184.7270  176.5940  137.3650 N   0  0  2  0  0  0  0  0  0  0  0  0
  182.7630  177.3240  136.2620 C   0  0  0  0  0  3  0  0  0  0  0  0
  183.8270  177.7440  137.2180 C   0  0  1  0  0  3  0  0  0  0  0  0
  189.5300  177.5290  141.0810 C   0  0  0  0  0  0  0  0  0  0  0  0
  186.0290  178.7250  140.7750 C   0  0  0  0  0  3  0  0  0  0  0  0
  188.2680  175.7210  135.8150 O   0  0  0  0  0  0  0  0  0  0  0  0
  182.8750  176.0420  135.9870 C   0  0  0  0  0  3  0  0  0  0  0  0
  187.2860  175.7290  136.9670 P   0  0  2  0  0  0  0  0  0  0  0  0
  190.5070  177.4300  139.9410 C   0  0  0  0  0  0  0  0  0  0  0  0
  182.3700  179.3480  138.4940 C   0  0  0  0  0  2  0  0  0  0  0  0
  183.7620  179.3880  139.0800 C   0  0  1  0  0  3  0  0  0  0  0  0
  188.7370  177.3840  138.0950 C   0  0  0  0  0  2  0  0  0  0  0  0
  190.1310  177.3710  138.6470 C   0  0  0  0  0  3  0  0  0  0  0  0
  183.6840  179.3940  140.5330 N   0  0  0  0  0  2  0  0  0  0  0  0
  189.1910  177.1050  143.5040 N   0  0  0  0  0  0  0  0  0  0  0  0
  183.1980  178.0750  138.5690 C   0  0  2  0  0  3  0  0  0  0  0  0
  185.4420  178.1330  144.8560 O   0  0  0  0  0  1  0  0  0  0  0  0
  186.9270  178.0170  142.9170 C   0  0  0  0  0  0  0  0  0  0  0  0
  187.8490  177.5270  143.7550 C   0  0  0  0  0  3  0  0  0  0  0  0
  185.9180  176.8760  136.5670 C   0  0  0  0  0  2  0  0  0  0  0  0
  184.0300  175.4740  136.7260 C   0  0  0  0  0  2  0  0  0  0  0  0
  189.9240  177.1050  142.2800 C   0  0  0  0  0  3  0  0  0  0  0  0
  192.4330  177.8370  141.3000 O   0  0  0  0  0  0  0  0  0  0  0  0
  191.9750  177.4170  140.2050 C   0  0  0  0  0  0  0  0  0  0  0  0
  194.1880  176.7170  139.7530 O   0  0  0  0  0  1  0  0  0  0  0  0
  192.9480  176.9640  139.1630 C   0  0  0  0  0  2  0  0  0  0  0  0
  2  4  1  0  0  0  0
  3 26  1  0  0  0  0
  4  5  2  0  0  0  0
  5 25  1  0  0  0  0
  6 12  1  0  0  0  0
  6  3  2  0  0  0  0
  9 28  1  6  0  0  0
 11 10  1  6  0  0  0
 11  9  1  0  0  0  0
 11 24  1  0  0  0  0
 12 30  2  0  0  0  0
 13  2  2  0  0  0  0
 13  3  1  0  0  0  0
 15 10  2  0  0  0  0
 15 29  1  0  0  0  0
 16 14  2  6  0  0  0
 16  8  1  0  0  0  0
 16  7  1  0  0  0  0
 17 32  1  0  0  0  0
 17 12  1  0  0  0  0
 19 18  1  6  0  0  0
 19 22  1  0  0  0  0
 20  7  1  0  0  0  0
 20 21  1  0  0  0  0
 21 17  2  0  0  0  0
 22  2  1  0  0  0  0
 23 27  1  0  0  0  0
 23  1  1  0  0  0  0
 24 18  1  6  0  0  0
 24 19  1  0  0  0  0
 26  5  1  0  0  0  0
 26 27  2  0  0  0  0
 28 16  1  0  0  0  0
 29  9  1  0  0  0  0
 30 23  1  0  0  0  0
 32 31  2  0  0  0  0
 34 33  1  0  0  0  0
 34 32  1  0  0  0  0
M  END
>  <MODEL>
3

>  <REMARK>
 VINA RESULT:      -8.1      1.039      1.199
  Name = 
  2 active torsions:
  status: ('A' for Active; 'I' for Inactive)
    1  A    between atoms: C_19  and  C_33
    2  A    between atoms: C_20  and  C_33
                            x       y       z     vdW  Elec       q    Type
                         _______ _______ _______ _____ _____    ______ ____

>  <TORSDO>
F 2

$$$$
=
 OpenBabel11062415403D

 34 38  0  0  1  0  0  0  0  0999 V2000
  179.7410  176.1540  139.6430 C   0  0  0  0  0  1  0  0  0  0  0  0
  185.7360  177.7190  137.5170 C   0  0  0  0  0  0  0  0  0  0  0  0
  183.8970  177.8420  139.1100 C   0  0  0  0  0  0  0  0  0  0  0  0
  184.9570  176.9390  136.6710 C   0  0  0  0  0  3  0  0  0  0  0  0
  183.6550  176.5910  137.0360 C   0  0  0  0  0  0  0  0  0  0  0  0
  183.5710  178.3580  140.2890 C   0  0  0  0  0  3  0  0  0  0  0  0
  185.2910  177.7170  142.7260 O   0  0  0  0  0  0  0  0  0  0  0  0
  187.1810  176.0200  143.7870 O   0  0  0  0  0  0  0  0  0  0  0  0
  188.4680  177.3070  141.2450 N   0  0  2  0  0  0  0  0  0  0  0  0
  190.6570  177.6850  140.4230 C   0  0  0  0  0  3  0  0  0  0  0  0
  189.2210  178.0220  140.2070 C   0  0  1  0  0  3  0  0  0  0  0  0
  182.3990  178.2610  141.1590 C   0  0  0  0  0  0  0  0  0  0  0  0
  185.1940  178.1700  138.7160 C   0  0  0  0  0  3  0  0  0  0  0  0
  186.8790  178.4400  144.6930 O   0  0  0  0  0  1  0  0  0  0  0  0
  190.7740  176.7550  141.3460 C   0  0  0  0  0  3  0  0  0  0  0  0
  186.8410  177.6330  143.4130 P   0  0  2  0  0  0  0  0  0  0  0  0
  182.4340  178.9830  142.4780 C   0  0  0  0  0  0  0  0  0  0  0  0
  189.4310  178.3460  137.7220 C   0  0  0  0  0  2  0  0  0  0  0  0
  188.0030  178.6280  138.1280 C   0  0  1  0  0  3  0  0  0  0  0  0
  184.9850  179.0780  142.6470 C   0  0  0  0  0  2  0  0  0  0  0  0
  183.5790  179.3290  143.1020 C   0  0  0  0  0  3  0  0  0  0  0  0
  187.0910  178.0140  137.1740 N   0  0  0  0  0  2  0  0  0  0  0  0
  181.0400  176.7980  139.6830 N   0  0  0  0  0  0  0  0  0  0  0  0
  188.7830  177.5310  138.8290 C   0  0  2  0  0  3  0  0  0  0  0  0
  182.9150  175.8030  136.1570 O   0  0  0  0  0  1  0  0  0  0  0  0
  183.1040  177.0150  138.2720 C   0  0  0  0  0  0  0  0  0  0  0  0
  181.8660  176.5820  138.5370 C   0  0  0  0  0  3  0  0  0  0  0  0
  188.1110  178.2870  142.2680 C   0  0  0  0  0  2  0  0  0  0  0  0
  189.4300  176.3780  141.8480 C   0  0  0  0  0  2  0  0  0  0  0  0
  181.3110  177.5530  140.8630 C   0  0  0  0  0  3  0  0  0  0  0  0
  180.5210  180.3890  142.7700 O   0  0  0  0  0  0  0  0  0  0  0  0
  181.1660  179.3780  143.1550 C   0  0  0  0  0  0  0  0  0  0  0  0
  179.6800  177.7130  143.9370 O   0  0  0  0  0  1  0  0  0  0  0  0
  180.6510  178.6280  144.3430 C   0  0  0  0  0  2  0  0  0  0  0  0
  1 23  1  0  0  0  0
  2 13  2  0  0  0  0
  3  6  2  0  0  0  0
  4  5  2  0  0  0  0
  4  2  1  0  0  0  0
  5 26  1  0  0  0  0
  6 12  1  0  0  0  0
  7 16  1  0  0  0  0
  9 29  1  1  0  0  0
  9 28  1  0  0  0  0
 10 15  2  0  0  0  0
 11 10  1  1  0  0  0
 11  9  1  0  0  0  0
 12 17  1  0  0  0  0
 13  3  1  0  0  0  0
 15 29  1  0  0  0  0
 16  8  2  1  0  0  0
 16 14  1  0  0  0  0
 17 21  2  0  0  0  0
 17 32  1  0  0  0  0
 19 18  1  6  0  0  0
 19 24  1  0  0  0  0
 20  7  1  0  0  0  0
 20 21  1  0  0  0  0
 22  2  1  0  0  0  0
 22 19  1  0  0  0  0
 23 30  1  0  0  0  0
 24 18  1  6  0  0  0
 24 11  1  0  0  0  0
 25  5  1  0  0  0  0
 26 27  2  0  0  0  0
 26  3  1  0  0  0  0
 27 23  1  0  0  0  0
 28 16  1  0  0  0  0
 30 12  2  0  0  0  0
 31 32  2  0  0  0  0
 32 34  1  0  0  0  0
 33 34  1  0  0  0  0
M  END
>  <MODEL>
4

>  <REMARK>
 VINA RESULT:      -7.6      3.289      8.521
  Name = 
  2 active torsions:
  status: ('A' for Active; 'I' for Inactive)
    1  A    between atoms: C_19  and  C_33
    2  A    between atoms: C_20  and  C_33
                            x       y       z     vdW  Elec       q    Type
                         _______ _______ _______ _____ _____    ______ ____

>  <TORSDO>
F 2

$$$$
=
 OpenBabel11062415403D

 34 38  0  0  1  0  0  0  0  0999 V2000
  191.6470  177.5020  141.9490 C   0  0  0  0  0  1  0  0  0  0  0  0
  186.2100  177.9610  138.3240 C   0  0  0  0  0  0  0  0  0  0  0  0
  188.5570  177.3990  138.6540 C   0  0  0  0  0  0  0  0  0  0  0  0
  186.1480  178.4780  139.6110 C   0  0  0  0  0  3  0  0  0  0  0  0
  187.2730  178.4500  140.4360 C   0  0  0  0  0  0  0  0  0  0  0  0
  189.5970  176.8570  138.0340 C   0  0  0  0  0  3  0  0  0  0  0  0
  189.3540  174.0330  136.9030 O   0  0  0  0  0  0  0  0  0  0  0  0
  187.9310  171.6780  136.9680 O   0  0  0  0  0  1  0  0  0  0  0  0
  185.9230  173.9060  136.0870 N   0  0  2  0  0  0  0  0  0  0  0  0
  183.8570  174.0080  134.9330 C   0  0  0  0  0  3  0  0  0  0  0  0
  184.9770  174.8380  135.4600 C   0  0  1  0  0  3  0  0  0  0  0  0
  190.9640  176.5200  138.4310 C   0  0  0  0  0  0  0  0  0  0  0  0
  187.4140  177.4410  137.8580 C   0  0  0  0  0  3  0  0  0  0  0  0
  189.3600  172.3360  134.8950 O   0  0  0  0  0  0  0  0  0  0  0  0
  183.9890  172.7590  135.3260 C   0  0  0  0  0  3  0  0  0  0  0  0
  188.4690  172.9290  135.9650 P   0  0  2  0  0  0  0  0  0  0  0  0
  191.8540  175.8540  137.4170 C   0  0  0  0  0  0  0  0  0  0  0  0
  183.5730  176.8810  135.8800 C   0  0  0  0  0  2  0  0  0  0  0  0
  185.0040  177.1930  136.2510 C   0  0  1  0  0  3  0  0  0  0  0  0
  189.9500  174.9110  135.9930 C   0  0  0  0  0  2  0  0  0  0  0  0
  191.3810  175.1600  136.3610 C   0  0  0  0  0  3  0  0  0  0  0  0
  185.0370  177.9260  137.5080 N   0  0  0  0  0  2  0  0  0  0  0  0
  190.8260  177.3690  140.7600 N   0  0  0  0  0  0  0  0  0  0  0  0
  184.4440  175.8070  136.5120 C   0  0  2  0  0  3  0  0  0  0  0  0
  187.1600  178.9760  141.7220 O   0  0  0  0  0  1  0  0  0  0  0  0
  188.4960  177.8900  139.9850 C   0  0  0  0  0  0  0  0  0  0  0  0
  189.4930  177.8740  140.8770 C   0  0  0  0  0  3  0  0  0  0  0  0
  187.0390  173.7380  135.1590 C   0  0  0  0  0  2  0  0  0  0  0  0
  185.2140  172.6230  136.1520 C   0  0  0  0  0  2  0  0  0  0  0  0
  191.4620  176.7490  139.6440 C   0  0  0  0  0  3  0  0  0  0  0  0
  193.9300  177.0230  137.2130 O   0  0  0  0  0  0  0  0  0  0  0  0
  193.3370  175.9580  137.5300 C   0  0  0  0  0  0  0  0  0  0  0  0
  195.3380  175.2500  138.5720 O   0  0  0  0  0  1  0  0  0  0  0  0
  194.1680  174.7930  137.9650 C   0  0  0  0  0  2  0  0  0  0  0  0
  2  4  1  0  0  0  0
  3 26  1  0  0  0  0
  4  5  2  0  0  0  0
  5 25  1  0  0  0  0
  6 12  1  0  0  0  0
  6  3  2  0  0  0  0
  9 28  1  6  0  0  0
  9 29  1  0  0  0  0
 10 15  2  0  0  0  0
 11 10  1  1  0  0  0
 11  9  1  0  0  0  0
 11 24  1  0  0  0  0
 12 30  2  0  0  0  0
 13  2  2  0  0  0  0
 13  3  1  0  0  0  0
 15 29  1  0  0  0  0
 16 14  2  6  0  0  0
 16  7  1  0  0  0  0
 16  8  1  0  0  0  0
 17 32  1  0  0  0  0
 17 12  1  0  0  0  0
 19 18  1  6  0  0  0
 19 24  1  0  0  0  0
 19 22  1  0  0  0  0
 20 21  1  0  0  0  0
 20  7  1  0  0  0  0
 21 17  2  0  0  0  0
 22  2  1  0  0  0  0
 23 27  1  0  0  0  0
 23  1  1  0  0  0  0
 24 18  1  6  0  0  0
 26  5  1  0  0  0  0
 26 27  2  0  0  0  0
 28 16  1  0  0  0  0
 30 23  1  0  0  0  0
 31 32  2  0  0  0  0
 32 34  1  0  0  0  0
 34 33  1  0  0  0  0
M  END
>  <MODEL>
5

>  <REMARK>
 VINA RESULT:      -7.0      2.148      3.090
  Name = 
  2 active torsions:
  status: ('A' for Active; 'I' for Inactive)
    1  A    between atoms: C_19  and  C_33
    2  A    between atoms: C_20  and  C_33
                            x       y       z     vdW  Elec       q    Type
                         _______ _______ _______ _____ _____    ______ ____

>  <TORSDO>
F 2

$$$$
=
 OpenBabel11062415403D

 34 38  0  0  1  0  0  0  0  0999 V2000
  181.2680  174.8640  136.3320 C   0  0  0  0  0  1  0  0  0  0  0  0
  187.7420  175.7160  136.8570 C   0  0  0  0  0  0  0  0  0  0  0  0
  185.4300  176.4420  137.1060 C   0  0  0  0  0  0  0  0  0  0  0  0
  187.3140  174.5530  136.2300 C   0  0  0  0  0  3  0  0  0  0  0  0
  185.9510  174.3120  136.0480 C   0  0  0  0  0  0  0  0  0  0  0  0
  184.6960  177.4400  137.5800 C   0  0  0  0  0  3  0  0  0  0  0  0
  184.9890  178.2500  140.5070 O   0  0  0  0  0  0  0  0  0  0  0  0
  185.8800  177.4830  142.9960 O   0  0  0  0  0  1  0  0  0  0  0  0
  188.3740  177.4560  141.1110 N   0  0  2  0  0  0  0  0  0  0  0  0
  190.7260  177.5780  141.3610 C   0  0  0  0  0  3  0  0  0  0  0  0
  189.6230  177.6300  140.3600 C   0  0  1  0  0  3  0  0  0  0  0  0
  183.2580  177.6790  137.7160 C   0  0  0  0  0  0  0  0  0  0  0  0
  186.7980  176.6500  137.2740 C   0  0  0  0  0  3  0  0  0  0  0  0
  185.6070  179.9940  142.3750 O   0  0  0  0  0  0  0  0  0  0  0  0
  190.2550  177.2420  142.5420 C   0  0  0  0  0  3  0  0  0  0  0  0
  186.0210  178.6610  141.7910 P   0  0  2  0  0  0  0  0  0  0  0  0
  182.8110  178.9590  138.3670 C   0  0  0  0  0  0  0  0  0  0  0  0
  190.9880  176.7000  138.4640 C   0  0  0  0  0  2  0  0  0  0  0  0
  189.6010  177.0120  137.9530 C   0  0  1  0  0  3  0  0  0  0  0  0
  184.9830  179.3590  139.6570 C   0  0  0  0  0  2  0  0  0  0  0  0
  183.5880  179.6720  139.2090 C   0  0  0  0  0  3  0  0  0  0  0  0
  189.1330  175.9260  137.1050 N   0  0  0  0  0  2  0  0  0  0  0  0
  182.4950  175.5600  136.6720 N   0  0  0  0  0  0  0  0  0  0  0  0
  189.7830  176.4840  139.3640 C   0  0  2  0  0  3  0  0  0  0  0  0
  185.5700  173.1280  135.4200 O   0  0  0  0  0  1  0  0  0  0  0  0
  184.9780  175.2390  136.5020 C   0  0  0  0  0  0  0  0  0  0  0  0
  183.7020  174.8820  136.3170 C   0  0  0  0  0  3  0  0  0  0  0  0
  187.7600  178.7760  141.2350 C   0  0  0  0  0  2  0  0  0  0  0  0
  188.7880  177.0400  142.4550 C   0  0  0  0  0  2  0  0  0  0  0  0
  182.3230  176.8210  137.3160 C   0  0  0  0  0  3  0  0  0  0  0  0
  181.2110  180.0580  136.9690 O   0  0  0  0  0  0  0  0  0  0  0  0
  181.4590  179.5190  138.0800 C   0  0  0  0  0  0  0  0  0  0  0  0
  180.4020  178.3040  139.8110 O   0  0  0  0  0  1  0  0  0  0  0  0
  180.3780  179.5120  139.1140 C   0  0  0  0  0  2  0  0  0  0  0  0
  1 23  1  0  0  0  0
  2 22  1  0  0  0  0
  2 13  2  0  0  0  0
  3 13  1  0  0  0  0
  3  6  2  0  0  0  0
  4  2  1  0  0  0  0
  5  4  2  0  0  0  0
  5 26  1  0  0  0  0
  6 12  1  0  0  0  0
  7 16  1  0  0  0  0
  9 28  1  1  0  0  0
  9 29  1  0  0  0  0
 10 15  2  0  0  0  0
 11  9  1  0  0  0  0
 11 10  1  1  0  0  0
 12 17  1  0  0  0  0
 16 14  2  1  0  0  0
 16  8  1  0  0  0  0
 17 21  2  0  0  0  0
 19 18  1  6  0  0  0
 19 24  1  0  0  0  0
 20  7  1  0  0  0  0
 21 20  1  0  0  0  0
 22 19  1  0  0  0  0
 23 30  1  0  0  0  0
 24 18  1  6  0  0  0
 24 11  1  0  0  0  0
 25  5  1  0  0  0  0
 26  3  1  0  0  0  0
 27 26  2  0  0  0  0
 27 23  1  0  0  0  0
 28 16  1  0  0  0  0
 29 15  1  0  0  0  0
 30 12  2  0  0  0  0
 31 32  2  0  0  0  0
 32 17  1  0  0  0  0
 32 34  1  0  0  0  0
 34 33  1  0  0  0  0
M  END
>  <MODEL>
6

>  <REMARK>
 VINA RESULT:      -6.8      3.011      8.426
  Name = 
  2 active torsions:
  status: ('A' for Active; 'I' for Inactive)
    1  A    between atoms: C_19  and  C_33
    2  A    between atoms: C_20  and  C_33
                            x       y       z     vdW  Elec       q    Type
                         _______ _______ _______ _____ _____    ______ ____

>  <TORSDO>
F 2

$$$$
=
 OpenBabel11062415403D

 34 38  0  0  1  0  0  0  0  0999 V2000
  189.7650  177.9680  142.8080 C   0  0  0  0  0  1  0  0  0  0  0  0
  184.4490  178.7340  139.0570 C   0  0  0  0  0  0  0  0  0  0  0  0
  186.7740  178.1100  139.4240 C   0  0  0  0  0  0  0  0  0  0  0  0
  184.3570  179.1800  140.3700 C   0  0  0  0  0  3  0  0  0  0  0  0
  185.4570  179.0840  141.2240 C   0  0  0  0  0  0  0  0  0  0  0  0
  187.8230  177.5830  138.8040 C   0  0  0  0  0  3  0  0  0  0  0  0
  187.5640  174.8320  137.5090 O   0  0  0  0  0  0  0  0  0  0  0  0
  186.0990  172.5050  137.3990 O   0  0  0  0  0  1  0  0  0  0  0  0
  184.1570  174.8170  136.5880 N   0  0  2  0  0  0  0  0  0  0  0  0
  182.1300  175.0230  135.3810 C   0  0  0  0  0  3  0  0  0  0  0  0
  183.2480  175.8010  135.9870 C   0  0  1  0  0  3  0  0  0  0  0  0
  189.1720  177.1980  139.2220 C   0  0  0  0  0  0  0  0  0  0  0  0
  185.6570  178.2190  138.5980 C   0  0  0  0  0  3  0  0  0  0  0  0
  187.6000  173.2500  135.4100 O   0  0  0  0  0  0  0  0  0  0  0  0
  182.2270  173.7530  135.7070 C   0  0  0  0  0  3  0  0  0  0  0  0
  186.6880  173.7990  136.4850 P   0  0  2  0  0  0  0  0  0  0  0  0
  190.0790  176.5720  138.1980 C   0  0  0  0  0  0  0  0  0  0  0  0
  181.8680  177.8440  136.4800 C   0  0  0  0  0  2  0  0  0  0  0  0
  183.2920  178.1070  136.9100 C   0  0  1  0  0  3  0  0  0  0  0  0
  188.2030  175.7470  136.6680 C   0  0  0  0  0  2  0  0  0  0  0  0
  189.6260  175.9480  137.0910 C   0  0  0  0  0  3  0  0  0  0  0  0
  183.3010  178.7680  138.2070 N   0  0  0  0  0  2  0  0  0  0  0  0
  188.9780  177.9180  141.5900 N   0  0  0  0  0  0  0  0  0  0  0  0
  182.7000  176.7200  137.0760 C   0  0  2  0  0  3  0  0  0  0  0  0
  185.3140  179.5390  142.5330 O   0  0  0  0  0  1  0  0  0  0  0  0
  186.6820  178.5270  140.7780 C   0  0  0  0  0  0  0  0  0  0  0  0
  187.6520  178.4420  141.6960 C   0  0  0  0  0  3  0  0  0  0  0  0
  185.2980  174.6800  135.6850 C   0  0  0  0  0  2  0  0  0  0  0  0
  183.4240  173.5470  136.5600 C   0  0  0  0  0  2  0  0  0  0  0  0
  189.6360  177.3490  140.4600 C   0  0  0  0  0  3  0  0  0  0  0  0
  192.0680  177.0980  139.4180 O   0  0  0  0  0  0  0  0  0  0  0  0
  191.5600  176.6420  138.3600 C   0  0  0  0  0  0  0  0  0  0  0  0
  193.6890  176.9200  137.3710 O   0  0  0  0  0  1  0  0  0  0  0  0
  192.4830  176.2300  137.2570 C   0  0  0  0  0  2  0  0  0  0  0  0
  2  4  1  0  0  0  0
  3 26  1  0  0  0  0
  4  5  2  0  0  0  0
  5 25  1  0  0  0  0
  6 12  1  0  0  0  0
  6  3  2  0  0  0  0
  9 28  1  6  0  0  0
 10 15  2  0  0  0  0
 11 10  1  1  0  0  0
 11  9  1  0  0  0  0
 11 24  1  0  0  0  0
 12 30  2  0  0  0  0
 13  2  2  0  0  0  0
 13  3  1  0  0  0  0
 15 29  1  0  0  0  0
 16 14  2  6  0  0  0
 16  8  1  0  0  0  0
 16  7  1  0  0  0  0
 17 32  1  0  0  0  0
 17 12  1  0  0  0  0
 19 18  1  6  0  0  0
 19 24  1  0  0  0  0
 19 22  1  0  0  0  0
 20 21  1  0  0  0  0
 20  7  1  0  0  0  0
 21 17  2  0  0  0  0
 22  2  1  0  0  0  0
 23 27  1  0  0  0  0
 23  1  1  0  0  0  0
 24 18  1  6  0  0  0
 26  5  1  0  0  0  0
 26 27  2  0  0  0  0
 28 16  1  0  0  0  0
 29  9  1  0  0  0  0
 30 23  1  0  0  0  0
 32 31  2  0  0  0  0
 34 33  1  0  0  0  0
 34 32  1  0  0  0  0
M  END
>  <MODEL>
7

>  <REMARK>
 VINA RESULT:      -6.4      1.663      2.429
  Name = 
  2 active torsions:
  status: ('A' for Active; 'I' for Inactive)
    1  A    between atoms: C_19  and  C_33
    2  A    between atoms: C_20  and  C_33
                            x       y       z     vdW  Elec       q    Type
                         _______ _______ _______ _____ _____    ______ ____

>  <TORSDO>
F 2

$$$$
=
 OpenBabel11062415403D

 34 38  0  0  1  0  0  0  0  0999 V2000
  187.9300  178.7790  142.3490 C   0  0  0  0  0  1  0  0  0  0  0  0
  181.8150  178.3980  140.0320 C   0  0  0  0  0  0  0  0  0  0  0  0
  184.2360  178.4210  139.7720 C   0  0  0  0  0  0  0  0  0  0  0  0
  181.9530  178.6620  141.3890 C   0  0  0  0  0  3  0  0  0  0  0  0
  183.2230  178.7920  141.9540 C   0  0  0  0  0  0  0  0  0  0  0  0
  185.1890  178.2780  138.8590 C   0  0  0  0  0  3  0  0  0  0  0  0
  185.3000  175.7150  137.2070 O   0  0  0  0  0  0  0  0  0  0  0  0
  184.4820  173.0930  137.0280 O   0  0  0  0  0  1  0  0  0  0  0  0
  181.8850  174.8350  137.0610 N   0  0  2  0  0  0  0  0  0  0  0  0
  179.6320  174.5850  136.3780 C   0  0  0  0  0  3  0  0  0  0  0  0
  180.6380  175.5790  136.8480 C   0  0  1  0  0  3  0  0  0  0  0  0
  186.6510  178.2490  138.9010 C   0  0  0  0  0  0  0  0  0  0  0  0
  182.9540  178.2950  139.2400 C   0  0  0  0  0  3  0  0  0  0  0  0
  185.1910  174.4340  134.9130 O   0  0  0  0  0  0  0  0  0  0  0  0
  180.1220  173.3670  136.4550 C   0  0  0  0  0  3  0  0  0  0  0  0
  184.4770  174.5890  136.2390 P   0  0  2  0  0  0  0  0  0  0  0  0
  187.3930  178.0140  137.6140 C   0  0  0  0  0  0  0  0  0  0  0  0
  178.9670  177.0880  137.9670 C   0  0  0  0  0  2  0  0  0  0  0  0
  180.3420  177.6960  138.1140 C   0  0  1  0  0  3  0  0  0  0  0  0
  185.4540  176.8560  136.4130 C   0  0  0  0  0  2  0  0  0  0  0  0
  186.8430  177.4040  136.5430 C   0  0  0  0  0  3  0  0  0  0  0  0
  180.5170  178.1950  139.4700 N   0  0  0  0  0  2  0  0  0  0  0  0
  186.8960  178.6360  141.3420 N   0  0  0  0  0  0  0  0  0  0  0  0
  180.1760  176.1890  138.1690 C   0  0  2  0  0  3  0  0  0  0  0  0
  183.3110  179.0510  143.3200 O   0  0  0  0  0  1  0  0  0  0  0  0
  184.3920  178.6530  141.1640 C   0  0  0  0  0  0  0  0  0  0  0  0
  185.5540  178.7500  141.8210 C   0  0  0  0  0  3  0  0  0  0  0  0
  182.7550  175.1190  135.9210 C   0  0  0  0  0  2  0  0  0  0  0  0
  181.5090  173.4200  136.9800 C   0  0  0  0  0  2  0  0  0  0  0  0
  187.3640  178.3960  140.0160 C   0  0  0  0  0  3  0  0  0  0  0  0
  189.0490  179.6770  137.1510 O   0  0  0  0  0  0  0  0  0  0  0  0
  188.8010  178.4810  137.4580 C   0  0  0  0  0  0  0  0  0  0  0  0
  190.1840  176.8870  136.3920 O   0  0  0  0  0  1  0  0  0  0  0  0
  189.9540  177.5380  137.6040 C   0  0  0  0  0  2  0  0  0  0  0  0
  2  4  1  0  0  0  0
  3 26  1  0  0  0  0
  4  5  2  0  0  0  0
  5 25  1  0  0  0  0
  6 12  1  0  0  0  0
  6  3  2  0  0  0  0
  9 28  1  6  0  0  0
 10 15  2  0  0  0  0
 11 10  1  1  0  0  0
 11  9  1  0  0  0  0
 11 24  1  0  0  0  0
 12 30  2  0  0  0  0
 13  3  1  0  0  0  0
 13  2  2  0  0  0  0
 15 29  1  0  0  0  0
 16 14  2  6  0  0  0
 16  8  1  0  0  0  0
 16  7  1  0  0  0  0
 17 12  1  0  0  0  0
 19 18  1  1  0  0  0
 19 24  1  0  0  0  0
 19 22  1  0  0  0  0
 20 21  1  0  0  0  0
 20  7  1  0  0  0  0
 21 17  2  0  0  0  0
 22  2  1  0  0  0  0
 23 27  1  0  0  0  0
 23  1  1  0  0  0  0
 24 18  1  6  0  0  0
 26 27  2  0  0  0  0
 26  5  1  0  0  0  0
 28 16  1  0  0  0  0
 29  9  1  0  0  0  0
 30 23  1  0  0  0  0
 31 32  2  0  0  0  0
 32 34  1  0  0  0  0
 32 17  1  0  0  0  0
 33 34  1  0  0  0  0
M  END
>  <MODEL>
8

>  <REMARK>
 VINA RESULT:      -6.4      2.604      4.128
  Name = 
  2 active torsions:
  status: ('A' for Active; 'I' for Inactive)
    1  A    between atoms: C_19  and  C_33
    2  A    between atoms: C_20  and  C_33
                            x       y       z     vdW  Elec       q    Type
                         _______ _______ _______ _____ _____    ______ ____

>  <TORSDO>
F 2

$$$$
=
 OpenBabel11062415403D

 34 38  0  0  1  0  0  0  0  0999 V2000
  189.5270  177.6510  140.0380 C   0  0  0  0  0  1  0  0  0  0  0  0
  183.4020  178.2530  137.7950 C   0  0  0  0  0  0  0  0  0  0  0  0
  185.6990  177.4570  137.6470 C   0  0  0  0  0  0  0  0  0  0  0  0
  183.7160  178.9570  138.9510 C   0  0  0  0  0  3  0  0  0  0  0  0
  185.0090  178.9090  139.4750 C   0  0  0  0  0  0  0  0  0  0  0  0
  186.4950  176.7040  136.8980 C   0  0  0  0  0  3  0  0  0  0  0  0
  185.7320  173.7980  136.3630 O   0  0  0  0  0  0  0  0  0  0  0  0
  184.1790  171.6740  137.1720 O   0  0  0  0  0  1  0  0  0  0  0  0
  182.2080  173.9840  136.4260 N   0  0  2  0  0  0  0  0  0  0  0  0
  179.9320  174.1740  135.8000 C   0  0  0  0  0  3  0  0  0  0  0  0
  181.2160  174.9250  135.8930 C   0  0  1  0  0  3  0  0  0  0  0  0
  187.8850  176.2600  137.0090 C   0  0  0  0  0  0  0  0  0  0  0  0
  184.3970  177.5250  137.1520 C   0  0  0  0  0  3  0  0  0  0  0  0
  185.0790  171.8390  134.7360 O   0  0  0  0  0  0  0  0  0  0  0  0
  180.0540  172.9900  136.3600 C   0  0  0  0  0  3  0  0  0  0  0  0
  184.5460  172.6890  135.8690 P   0  0  2  0  0  0  0  0  0  0  0  0
  188.4250  175.3470  135.9420 C   0  0  0  0  0  0  0  0  0  0  0  0
  180.1450  177.1670  136.2770 C   0  0  0  0  0  2  0  0  0  0  0  0
  181.6440  177.3490  136.2360 C   0  0  1  0  0  3  0  0  0  0  0  0
  186.1470  174.4520  135.2000 C   0  0  0  0  0  2  0  0  0  0  0  0
  187.6400  174.5710  135.1660 C   0  0  0  0  0  3  0  0  0  0  0  0
  182.0610  178.2470  137.3020 N   0  0  0  0  0  2  0  0  0  0  0  0
  188.4210  177.4500  139.1220 N   0  0  0  0  0  0  0  0  0  0  0  0
  181.0540  176.0970  136.8580 C   0  0  2  0  0  3  0  0  0  0  0  0
  185.2740  179.6260  140.6400 O   0  0  0  0  0  1  0  0  0  0  0  0
  186.0230  178.1400  138.8480 C   0  0  0  0  0  0  0  0  0  0  0  0
  187.2110  178.1300  139.4640 C   0  0  0  0  0  3  0  0  0  0  0  0
  183.0310  173.5440  135.3020 C   0  0  0  0  0  2  0  0  0  0  0  0
  181.4340  172.8240  136.8800 C   0  0  0  0  0  2  0  0  0  0  0  0
  188.6950  176.5990  138.0100 C   0  0  0  0  0  3  0  0  0  0  0  0
  190.4530  176.1510  134.9610 O   0  0  0  0  0  0  0  0  0  0  0  0
  189.8910  175.2800  135.6780 C   0  0  0  0  0  0  0  0  0  0  0  0
  190.1440  173.6370  137.3580 O   0  0  0  0  0  1  0  0  0  0  0  0
  190.7260  174.1550  136.2010 C   0  0  0  0  0  2  0  0  0  0  0  0
  2  4  1  0  0  0  0
  3 26  1  0  0  0  0
  4  5  2  0  0  0  0
  5 25  1  0  0  0  0
  6 12  1  0  0  0  0
  6  3  2  0  0  0  0
  9 28  1  6  0  0  0
  9 29  1  0  0  0  0
 10 15  2  0  0  0  0
 11 10  1  1  0  0  0
 11  9  1  0  0  0  0
 11 24  1  0  0  0  0
 12 30  2  0  0  0  0
 13  3  1  0  0  0  0
 13  2  2  0  0  0  0
 15 29  1  0  0  0  0
 16 14  2  6  0  0  0
 16  7  1  0  0  0  0
 16  8  1  0  0  0  0
 17 12  1  0  0  0  0
 19 18  1  6  0  0  0
 19 24  1  0  0  0  0
 19 22  1  0  0  0  0
 20  7  1  0  0  0  0
 21 20  1  0  0  0  0
 21 17  2  0  0  0  0
 22  2  1  0  0  0  0
 23 27  1  0  0  0  0
 23  1  1  0  0  0  0
 24 18  1  6  0  0  0
 26 27  2  0  0  0  0
 26  5  1  0  0  0  0
 28 16  1  0  0  0  0
 30 23  1  0  0  0  0
 31 32  2  0  0  0  0
 32 17  1  0  0  0  0
 32 34  1  0  0  0  0
 34 33  1  0  0  0  0
M  END
>  <MODEL>
9

>  <REMARK>
 VINA RESULT:      -6.1      2.917      4.484
  Name = 
  2 active torsions:
  status: ('A' for Active; 'I' for Inactive)
    1  A    between atoms: C_19  and  C_33
    2  A    between atoms: C_20  and  C_33
                            x       y       z     vdW  Elec       q    Type
                         _______ _______ _______ _____ _____    ______ ____

>  <TORSDO>
F 2

$$$$
