=
 OpenBabel11062414033D

 49 56  0  0  1  0  0  0  0  0999 V2000
  179.7510  178.4070  141.8080 O   0  0  0  0  0  0  0  0  0  0  0  0
  179.7570  179.1080  138.5410 C   0  0  0  0  0  3  0  0  0  0  0  0
  180.0290  173.7710  138.9350 O   0  0  0  0  0  0  0  0  0  0  0  0
  179.8530  174.8100  139.8280 C   0  0  0  0  0  0  0  0  0  0  0  0
  179.8990  178.9410  137.2230 C   0  0  0  0  0  0  0  0  0  0  0  0
  180.2590  177.1650  139.9790 C   0  0  0  0  0  0  0  0  0  0  0  0
  179.2300  175.9790  141.8430 C   0  0  0  0  0  3  0  0  0  0  0  0
  182.3490  179.0350  136.7520 C   0  0  1  0  0  3  0  0  0  0  0  0
  180.3240  175.9640  139.2740 C   0  0  0  0  0  0  0  0  0  0  0  0
  183.5330  178.2000  136.3050 C   0  0  0  0  0  1  0  0  0  0  0  0
  181.0680  178.2120  136.6500 C   0  0  0  0  0  2  0  0  0  0  0  0
  182.2120  178.7390  139.3320 C   0  0  2  0  0  3  0  0  0  0  0  0
  180.6800  178.5610  139.6100 C   0  0  1  0  0  0  0  0  0  0  0  0
  180.3550  179.3380  140.9090 C   0  0  0  0  0  2  0  0  0  0  0  0
  180.8310  175.7010  138.0170 O   0  0  0  0  0  0  0  0  0  0  0  0
  182.5960  179.6430  138.1430 C   0  0  0  0  0  2  0  0  0  0  0  0
  179.2940  174.7710  141.1140 C   0  0  0  0  0  3  0  0  0  0  0  0
  180.6690  174.2970  137.7570 C   0  0  1  0  0  0  0  0  0  0  0  0
  181.9260  173.7060  137.6060 O   0  0  0  0  0  1  0  0  0  0  0  0
  179.7220  177.1540  141.2440 C   0  0  0  0  0  0  0  0  0  0  0  0
  178.9590  179.4970  136.3640 O   0  0  0  0  0  1  0  0  0  0  0  0
  183.1180  177.0480  141.0190 C   0  0  0  0  0  2  0  0  0  0  0  0
  184.3150  177.8300  140.5430 C   0  0  1  0  0  0  0  0  0  0  0  0
  184.4750  177.7930  139.1490 O   0  0  0  0  0  0  0  0  0  0  0  0
  183.1610  177.5350  139.5870 C   0  0  2  0  0  0  0  0  0  0  0  0
  184.3370  179.2680  141.0640 C   0  0  0  0  0  2  0  0  0  0  0  0
  185.4740  179.4810  141.8510 O   0  0  0  0  0  0  0  0  0  0  0  0
  185.1620  178.9480  143.1050 C   0  0  1  0  0  3  0  0  0  0  0  0
  188.1600  176.4750  143.7070 C   0  0  2  0  0  3  0  0  0  0  0  0
  185.0280  177.5630  145.5580 O   0  0  0  0  0  0  0  0  0  0  0  0
  187.0280  177.1960  142.9540 C   0  0  2  0  0  3  0  0  0  0  0  0
  189.4270  178.0970  146.7170 O   0  0  0  0  0  0  0  0  0  0  0  0
  186.1800  177.9200  145.1920 C   0  0  0  0  0  0  0  0  0  0  0  0
  187.2250  177.8830  146.1200 O   0  0  0  0  0  0  0  0  0  0  0  0
  188.5960  177.8230  145.8110 C   0  0  0  0  0  0  0  0  0  0  0  0
  187.4990  177.6570  141.7230 O   0  0  0  0  0  1  0  0  0  0  0  0
  189.1290  177.3980  144.4640 C   0  0  2  0  0  3  0  0  0  0  0  0
  188.8600  175.6140  142.8590 O   0  0  0  0  0  1  0  0  0  0  0  0
  186.4230  178.3530  143.7670 C   0  0  2  0  0  3  0  0  0  0  0  0
  189.6290  178.5940  143.6510 C   0  0  0  0  0  3  0  0  0  0  0  0
  190.7300  178.1530  142.7060 C   0  0  0  0  0  2  0  0  0  0  0  0
  191.0820  178.8670  143.9940 C   0  0  0  0  0  2  0  0  0  0  0  0
  184.5710  180.0620  143.9680 C   0  0  0  0  0  2  0  0  0  0  0  0
  182.6780  178.7150  144.1750 C   0  0  0  0  0  1  0  0  0  0  0  0
  183.1230  180.0610  143.8590 N   0  0  0  0  0  2  0  0  0  0  0  0
  178.9850  175.1770  136.2930 O   0  0  0  0  0  1  0  0  0  0  0  0
  179.8080  174.0690  136.5020 C   0  0  0  0  0  0  0  0  0  0  0  0
  178.9340  172.8360  136.6580 C   0  0  0  0  0  1  0  0  0  0  0  0
  180.6900  173.8790  135.2800 C   0  0  0  0  0  1  0  0  0  0  0  0
  3  4  1  0  0  0  0
  4 17  1  0  0  0  0
  5  2  2  0  0  0  0
  6 20  2  0  0  0  0
  8 10  1  1  0  0  0
  8 16  1  0  0  0  0
  9  4  2  0  0  0  0
  9  6  1  0  0  0  0
 11  8  1  0  0  0  0
 11  5  1  0  0  0  0
 12 16  1  6  0  0  0
 12 25  1  0  0  0  0
 12 13  1  0  0  0  0
 13  2  1  6  0  0  0
 13  6  1  0  0  0  0
 13 14  1  0  0  0  0
 14  1  1  0  0  0  0
 15  9  1  0  0  0  0
 17  7  2  0  0  0  0
 18 19  1  6  0  0  0
 18 15  1  0  0  0  0
 18  3  1  0  0  0  0
 20  1  1  0  0  0  0
 20  7  1  0  0  0  0
 21  5  1  0  0  0  0
 23 22  1  0  0  0  0
 23 26  1  1  0  0  0
 24 25  1  0  0  0  0
 24 23  1  0  0  0  0
 25 23  1  0  0  0  0
 25 22  1  6  0  0  0
 26 27  1  0  0  0  0
 27 28  1  0  0  0  0
 28 43  1  1  0  0  0
 29 38  1  6  0  0  0
 29 37  1  0  0  0  0
 31 36  1  6  0  0  0
 31 29  1  0  0  0  0
 31 39  1  0  0  0  0
 33 30  2  0  0  0  0
 33 34  1  0  0  0  0
 35 34  1  0  0  0  0
 35 32  2  0  0  0  0
 37 40  1  6  0  0  0
 37 35  1  0  0  0  0
 39 28  1  6  0  0  0
 39 33  1  0  0  0  0
 40 42  1  0  0  0  0
 41 40  1  0  0  0  0
 41 42  1  0  0  0  0
 45 43  1  0  0  0  0
 45 44  1  0  0  0  0
 46 47  1  0  0  0  0
 47 48  1  0  0  0  0
 47 18  1  0  0  0  0
 49 47  1  0  0  0  0
M  END
>  <MODEL>
1

>  <REMARK>
 VINA RESULT:      -5.4      0.000      0.000
  Name = 
  9 active torsions:
  status: ('A' for Active; 'I' for Inactive)
    1  A    between atoms: C_3  and  C_8
    2  A    between atoms: C_3  and  N_44
    3  A    between atoms: C_8  and  O_43
    4  A    between atoms: C_8  and  C_47
    5  A    between atoms: C_13  and  C_42
    6  A    between atoms: C_15  and  C_37
    7  A    between atoms: C_16  and  C_48
    8  A    between atoms: C_25  and  C_40
    9  A    between atoms: O_43  and  C_48
                            x       y       z     vdW  Elec       q    Type
                         _______ _______ _______ _____ _____    ______ ____

>  <TORSDO>
F 9

$$$$
=
 OpenBabel11062414033D

 49 56  0  0  1  0  0  0  0  0999 V2000
  184.0850  175.0790  137.3500 O   0  0  0  0  0  0  0  0  0  0  0  0
  181.3740  175.8540  139.1420 C   0  0  0  0  0  3  0  0  0  0  0  0
  181.6690  179.4850  135.2140 O   0  0  0  0  0  0  0  0  0  0  0  0
  182.3570  178.3310  135.5320 C   0  0  0  0  0  0  0  0  0  0  0  0
  180.3410  176.5590  139.6120 C   0  0  0  0  0  0  0  0  0  0  0  0
  182.7860  176.9360  137.4310 C   0  0  0  0  0  0  0  0  0  0  0  0
  183.7470  176.3800  135.2610 C   0  0  0  0  0  3  0  0  0  0  0  0
  181.2830  178.2190  141.2220 C   0  0  1  0  0  3  0  0  0  0  0  0
  182.1890  178.0580  136.8580 C   0  0  0  0  0  0  0  0  0  0  0  0
  181.5240  179.6990  141.4380 C   0  0  0  0  0  1  0  0  0  0  0  0
  180.4720  178.0070  139.9470 C   0  0  0  0  0  2  0  0  0  0  0  0
  183.3610  177.3480  139.9220 C   0  0  2  0  0  3  0  0  0  0  0  0
  182.7540  176.3980  138.8340 C   0  0  1  0  0  0  0  0  0  0  0  0
  183.6930  175.1720  138.7200 C   0  0  0  0  0  2  0  0  0  0  0  0
  181.4020  179.0350  137.4350 O   0  0  0  0  0  0  0  0  0  0  0  0
  182.6040  177.4320  141.2640 C   0  0  0  0  0  2  0  0  0  0  0  0
  183.1300  177.5150  134.6930 C   0  0  0  0  0  3  0  0  0  0  0  0
  181.0480  179.9830  136.4140 C   0  0  1  0  0  0  0  0  0  0  0  0
  181.5850  181.2320  136.7350 O   0  0  0  0  0  1  0  0  0  0  0  0
  183.5540  176.1230  136.6320 C   0  0  0  0  0  0  0  0  0  0  0  0
  179.1290  175.9180  139.8360 O   0  0  0  0  0  1  0  0  0  0  0  0
  185.4310  178.4320  138.8900 C   0  0  0  0  0  2  0  0  0  0  0  0
  185.2960  179.0380  140.2630 C   0  0  1  0  0  0  0  0  0  0  0  0
  184.0470  179.6450  140.4740 O   0  0  0  0  0  0  0  0  0  0  0  0
  184.0500  178.6630  139.4630 C   0  0  2  0  0  0  0  0  0  0  0  0
  185.6300  178.0560  141.3870 C   0  0  0  0  0  2  0  0  0  0  0  0
  186.9200  178.2960  141.8720 O   0  0  0  0  0  0  0  0  0  0  0  0
  187.0480  177.4850  143.0030 C   0  0  1  0  0  3  0  0  0  0  0  0
  190.7940  178.2570  143.9180 C   0  0  2  0  0  3  0  0  0  0  0  0
  188.8820  176.8380  140.9600 O   0  0  0  0  0  0  0  0  0  0  0  0
  189.2750  178.4720  143.8050 C   0  0  2  0  0  3  0  0  0  0  0  0
  191.9930  174.8240  143.6500 O   0  0  0  0  0  0  0  0  0  0  0  0
  189.2680  176.6090  142.1370 C   0  0  0  0  0  0  0  0  0  0  0  0
  190.3960  175.8050  142.3340 O   0  0  0  0  0  0  0  0  0  0  0  0
  191.2050  175.7920  143.4830 C   0  0  0  0  0  0  0  0  0  0  0  0
  188.7630  178.8850  145.0370 O   0  0  0  0  0  1  0  0  0  0  0  0
  191.2170  176.9010  144.5070 C   0  0  2  0  0  3  0  0  0  0  0  0
  191.4010  179.3070  144.6100 O   0  0  0  0  0  1  0  0  0  0  0  0
  188.5370  177.2170  143.3090 C   0  0  2  0  0  3  0  0  0  0  0  0
  190.4680  176.5030  145.7810 C   0  0  0  0  0  3  0  0  0  0  0  0
  190.7400  177.5150  146.8780 C   0  0  0  0  0  2  0  0  0  0  0  0
  191.4680  176.1870  146.8770 C   0  0  0  0  0  2  0  0  0  0  0  0
  186.3710  178.1880  144.1780 C   0  0  0  0  0  2  0  0  0  0  0  0
  185.4170  177.9520  146.2940 C   0  0  0  0  0  1  0  0  0  0  0  0
  186.1880  177.2570  145.2790 N   0  0  0  0  0  2  0  0  0  0  0  0
  178.9470  178.8360  136.5590 O   0  0  0  0  0  1  0  0  0  0  0  0
  179.5190  180.0720  136.2590 C   0  0  0  0  0  0  0  0  0  0  0  0
  179.1380  180.4550  134.8390 C   0  0  0  0  0  1  0  0  0  0  0  0
  178.9500  181.1170  137.2040 C   0  0  0  0  0  1  0  0  0  0  0  0
  1 14  1  0  0  0  0
  2  5  2  0  0  0  0
  3  4  1  0  0  0  0
  3 18  1  0  0  0  0
  4  9  1  0  0  0  0
  5 21  1  0  0  0  0
  5 11  1  0  0  0  0
  6 13  1  0  0  0  0
  7 20  2  0  0  0  0
  8 16  1  0  0  0  0
  8 10  1  6  0  0  0
  9  6  2  0  0  0  0
  9 15  1  0  0  0  0
 11  8  1  0  0  0  0
 12 16  1  1  0  0  0
 13 14  1  6  0  0  0
 13  2  1  0  0  0  0
 13 12  1  0  0  0  0
 17  7  1  0  0  0  0
 17  4  2  0  0  0  0
 18 19  1  1  0  0  0
 18 15  1  0  0  0  0
 20  1  1  0  0  0  0
 20  6  1  0  0  0  0
 22 23  1  0  0  0  0
 23 24  1  0  0  0  0
 23 26  1  1  0  0  0
 25 22  1  6  0  0  0
 25 12  1  0  0  0  0
 25 23  1  0  0  0  0
 25 24  1  0  0  0  0
 26 27  1  0  0  0  0
 27 28  1  0  0  0  0
 28 43  1  1  0  0  0
 29 37  1  0  0  0  0
 29 38  1  1  0  0  0
 30 33  2  0  0  0  0
 31 29  1  0  0  0  0
 31 36  1  1  0  0  0
 33 34  1  0  0  0  0
 33 39  1  0  0  0  0
 34 35  1  0  0  0  0
 35 32  2  0  0  0  0
 35 37  1  0  0  0  0
 37 40  1  1  0  0  0
 39 28  1  6  0  0  0
 39 31  1  0  0  0  0
 40 42  1  0  0  0  0
 40 41  1  0  0  0  0
 42 41  1  0  0  0  0
 43 45  1  0  0  0  0
 45 44  1  0  0  0  0
 47 18  1  0  0  0  0
 47 46  1  0  0  0  0
 47 49  1  0  0  0  0
 48 47  1  0  0  0  0
M  END
>  <MODEL>
2

>  <REMARK>
 VINA RESULT:      -3.8      2.157      4.712
  Name = 
  9 active torsions:
  status: ('A' for Active; 'I' for Inactive)
    1  A    between atoms: C_3  and  C_8
    2  A    between atoms: C_3  and  N_44
    3  A    between atoms: C_8  and  O_43
    4  A    between atoms: C_8  and  C_47
    5  A    between atoms: C_13  and  C_42
    6  A    between atoms: C_15  and  C_37
    7  A    between atoms: C_16  and  C_48
    8  A    between atoms: C_25  and  C_40
    9  A    between atoms: O_43  and  C_48
                            x       y       z     vdW  Elec       q    Type
                         _______ _______ _______ _____ _____    ______ ____

>  <TORSDO>
F 9

$$$$
=
 OpenBabel11062414033D

 49 56  0  0  1  0  0  0  0  0999 V2000
  183.4390  175.6660  136.7130 O   0  0  0  0  0  0  0  0  0  0  0  0
  181.6890  176.3950  139.4640 C   0  0  0  0  0  3  0  0  0  0  0  0
  181.1610  180.6010  136.1860 O   0  0  0  0  0  0  0  0  0  0  0  0
  181.7240  179.3440  136.0820 C   0  0  0  0  0  0  0  0  0  0  0  0
  181.0130  177.1110  140.3670 C   0  0  0  0  0  0  0  0  0  0  0  0
  182.5640  177.6050  137.4980 C   0  0  0  0  0  0  0  0  0  0  0  0
  182.6010  177.3360  135.0760 C   0  0  0  0  0  3  0  0  0  0  0  0
  182.7120  178.3620  141.7030 C   0  0  1  0  0  3  0  0  0  0  0  0
  181.9910  178.8650  137.3300 C   0  0  0  0  0  0  0  0  0  0  0  0
  183.2450  179.7500  141.9940 C   0  0  0  0  0  1  0  0  0  0  0  0
  181.4820  178.4590  140.8050 C   0  0  0  0  0  2  0  0  0  0  0  0
  184.0340  177.5190  139.6280 C   0  0  2  0  0  3  0  0  0  0  0  0
  182.9410  176.8390  138.7350 C   0  0  1  0  0  0  0  0  0  0  0  0
  183.5720  175.5610  138.1300 C   0  0  0  0  0  2  0  0  0  0  0  0
  181.6230  179.8030  138.2740 O   0  0  0  0  0  0  0  0  0  0  0  0
  183.8200  177.4480  141.1550 C   0  0  0  0  0  2  0  0  0  0  0  0
  182.0120  178.6100  134.9220 C   0  0  0  0  0  3  0  0  0  0  0  0
  181.0880  180.9440  137.5830 C   0  0  1  0  0  0  0  0  0  0  0  0
  181.8960  182.0570  137.8320 O   0  0  0  0  0  1  0  0  0  0  0  0
  182.8630  176.8680  136.3780 C   0  0  0  0  0  0  0  0  0  0  0  0
  179.8710  176.5710  140.9430 O   0  0  0  0  0  1  0  0  0  0  0  0
  185.5760  178.5780  137.8890 C   0  0  0  0  0  2  0  0  0  0  0  0
  186.2420  178.8140  139.2200 C   0  0  1  0  0  0  0  0  0  0  0  0
  185.4170  179.4900  140.1330 O   0  0  0  0  0  0  0  0  0  0  0  0
  184.7180  178.8150  139.1120 C   0  0  2  0  0  0  0  0  0  0  0  0
  186.8180  177.5380  139.8360 C   0  0  0  0  0  2  0  0  0  0  0  0
  188.0080  177.8240  140.5150 O   0  0  0  0  0  0  0  0  0  0  0  0
  188.9220  176.8590  140.0830 C   0  0  1  0  0  3  0  0  0  0  0  0
  190.7960  176.6240  136.6330 C   0  0  2  0  0  3  0  0  0  0  0  0
  189.3530  179.3550  138.8430 O   0  0  0  0  0  0  0  0  0  0  0  0
  190.4740  176.3340  138.1100 C   0  0  2  0  0  3  0  0  0  0  0  0
  188.1250  178.0750  134.6210 O   0  0  0  0  0  0  0  0  0  0  0  0
  189.0660  178.4000  138.0710 C   0  0  0  0  0  0  0  0  0  0  0  0
  188.6950  178.6860  136.7530 O   0  0  0  0  0  0  0  0  0  0  0  0
  188.7620  177.7920  135.6700 C   0  0  0  0  0  0  0  0  0  0  0  0
  190.4460  174.9550  138.3260 O   0  0  0  0  0  1  0  0  0  0  0  0
  189.5970  176.5350  135.6760 C   0  0  2  0  0  3  0  0  0  0  0  0
  191.8490  175.8250  136.1820 O   0  0  0  0  0  1  0  0  0  0  0  0
  189.1510  176.9760  138.5610 C   0  0  2  0  0  3  0  0  0  0  0  0
  188.7330  175.2840  135.8570 C   0  0  0  0  0  3  0  0  0  0  0  0
  189.0820  174.2570  134.7960 C   0  0  0  0  0  2  0  0  0  0  0  0
  187.8390  175.1070  134.6440 C   0  0  0  0  0  2  0  0  0  0  0  0
  190.2310  177.0590  140.8450 C   0  0  0  0  0  2  0  0  0  0  0  0
  191.2000  177.2300  142.9610 C   0  0  0  0  0  1  0  0  0  0  0  0
  189.9540  177.3920  142.2320 N   0  0  0  0  0  2  0  0  0  0  0  0
  178.9410  180.0120  138.1020 O   0  0  0  0  0  1  0  0  0  0  0  0
  179.6370  181.2170  138.0190 C   0  0  0  0  0  0  0  0  0  0  0  0
  178.9310  182.1210  137.0220 C   0  0  0  0  0  1  0  0  0  0  0  0
  179.6100  181.8920  139.3790 C   0  0  0  0  0  1  0  0  0  0  0  0
  1 14  1  0  0  0  0
  2  5  2  0  0  0  0
  3 18  1  0  0  0  0
  4  3  1  0  0  0  0
  4  9  1  0  0  0  0
  5 11  1  0  0  0  0
  5 21  1  0  0  0  0
  6 13  1  0  0  0  0
  7 20  2  0  0  0  0
  8 10  1  6  0  0  0
  9  6  2  0  0  0  0
  9 15  1  0  0  0  0
 11  8  1  0  0  0  0
 12 16  1  1  0  0  0
 13 14  1  6  0  0  0
 13  2  1  0  0  0  0
 13 12  1  0  0  0  0
 16  8  1  0  0  0  0
 17  7  1  0  0  0  0
 17  4  2  0  0  0  0
 18 19  1  1  0  0  0
 18 47  1  0  0  0  0
 18 15  1  0  0  0  0
 20  1  1  0  0  0  0
 20  6  1  0  0  0  0
 22 23  1  0  0  0  0
 23 26  1  1  0  0  0
 23 24  1  0  0  0  0
 25 22  1  6  0  0  0
 25 23  1  0  0  0  0
 25 12  1  0  0  0  0
 25 24  1  0  0  0  0
 26 27  1  0  0  0  0
 28 27  1  0  0  0  0
 28 43  1  1  0  0  0
 29 38  1  6  0  0  0
 29 31  1  0  0  0  0
 31 36  1  6  0  0  0
 31 39  1  0  0  0  0
 32 35  2  0  0  0  0
 33 39  1  0  0  0  0
 33 30  2  0  0  0  0
 34 33  1  0  0  0  0
 35 37  1  0  0  0  0
 35 34  1  0  0  0  0
 37 40  1  1  0  0  0
 37 29  1  0  0  0  0
 39 28  1  1  0  0  0
 41 40  1  0  0  0  0
 42 41  1  0  0  0  0
 42 40  1  0  0  0  0
 43 45  1  0  0  0  0
 45 44  1  0  0  0  0
 47 46  1  0  0  0  0
 47 49  1  0  0  0  0
 48 47  1  0  0  0  0
M  END
>  <MODEL>
3

>  <REMARK>
 VINA RESULT:      -3.3      3.649      6.677
  Name = 
  9 active torsions:
  status: ('A' for Active; 'I' for Inactive)
    1  A    between atoms: C_3  and  C_8
    2  A    between atoms: C_3  and  N_44
    3  A    between atoms: C_8  and  O_43
    4  A    between atoms: C_8  and  C_47
    5  A    between atoms: C_13  and  C_42
    6  A    between atoms: C_15  and  C_37
    7  A    between atoms: C_16  and  C_48
    8  A    between atoms: C_25  and  C_40
    9  A    between atoms: O_43  and  C_48
                            x       y       z     vdW  Elec       q    Type
                         _______ _______ _______ _____ _____    ______ ____

>  <TORSDO>
F 9

$$$$
=
 OpenBabel11062414033D

 49 56  0  0  1  0  0  0  0  0999 V2000
  184.0880  175.1780  137.0800 O   0  0  0  0  0  0  0  0  0  0  0  0
  181.6230  175.9460  139.2000 C   0  0  0  0  0  3  0  0  0  0  0  0
  181.4720  179.6360  135.3170 O   0  0  0  0  0  0  0  0  0  0  0  0
  182.1830  178.4710  135.5330 C   0  0  0  0  0  0  0  0  0  0  0  0
  180.6620  176.6520  139.8020 C   0  0  0  0  0  0  0  0  0  0  0  0
  182.8270  177.0440  137.3450 C   0  0  0  0  0  0  0  0  0  0  0  0
  183.5110  176.5130  135.0670 C   0  0  0  0  0  3  0  0  0  0  0  0
  181.8090  178.2790  141.3090 C   0  0  1  0  0  3  0  0  0  0  0  0
  182.1760  178.1790  136.8650 C   0  0  0  0  0  0  0  0  0  0  0  0
  182.0880  179.7540  141.5150 C   0  0  0  0  0  1  0  0  0  0  0  0
  180.8460  178.0940  140.1390 C   0  0  0  0  0  2  0  0  0  0  0  0
  183.7040  177.4130  139.7530 C   0  0  2  0  0  3  0  0  0  0  0  0
  182.9600  176.4840  138.7340 C   0  0  1  0  0  0  0  0  0  0  0  0
  183.8660  175.2530  138.4880 C   0  0  0  0  0  2  0  0  0  0  0  0
  181.4740  179.1530  137.5480 O   0  0  0  0  0  0  0  0  0  0  0  0
  183.1170  177.4820  141.1780 C   0  0  0  0  0  2  0  0  0  0  0  0
  182.8400  177.6630  134.5940 C   0  0  0  0  0  3  0  0  0  0  0  0
  181.0070  180.1190  136.5910 C   0  0  1  0  0  0  0  0  0  0  0  0
  181.5920  181.3590  136.8620 O   0  0  0  0  0  1  0  0  0  0  0  0
  183.4840  176.2370  136.4470 C   0  0  0  0  0  0  0  0  0  0  0  0
  179.4790  176.0180  140.1620 O   0  0  0  0  0  1  0  0  0  0  0  0
  185.2290  178.5130  138.0240 C   0  0  0  0  0  2  0  0  0  0  0  0
  185.8650  178.7880  139.3620 C   0  0  1  0  0  0  0  0  0  0  0  0
  185.0020  179.4410  140.2560 O   0  0  0  0  0  0  0  0  0  0  0  0
  184.3450  178.7290  139.2330 C   0  0  2  0  0  0  0  0  0  0  0  0
  186.4820  177.5420  140.0000 C   0  0  0  0  0  2  0  0  0  0  0  0
  187.7190  177.2580  139.4100 O   0  0  0  0  0  0  0  0  0  0  0  0
  188.5960  178.2280  139.9020 C   0  0  1  0  0  3  0  0  0  0  0  0
  190.8860  178.2830  143.0990 C   0  0  2  0  0  3  0  0  0  0  0  0
  190.9630  176.7170  139.6400 O   0  0  0  0  0  0  0  0  0  0  0  0
  189.9670  178.8190  141.9870 C   0  0  2  0  0  3  0  0  0  0  0  0
  190.7660  174.6960  143.7450 O   0  0  0  0  0  0  0  0  0  0  0  0
  190.4100  176.6790  140.7720 C   0  0  0  0  0  0  0  0  0  0  0  0
  190.8090  175.6990  141.6860 O   0  0  0  0  0  0  0  0  0  0  0  0
  190.6390  175.7590  143.0800 C   0  0  0  0  0  0  0  0  0  0  0  0
  188.9630  179.6120  142.5460 O   0  0  0  0  0  1  0  0  0  0  0  0
  190.3610  177.0370  143.8320 C   0  0  2  0  0  3  0  0  0  0  0  0
  191.2150  179.2890  144.0090 O   0  0  0  0  0  1  0  0  0  0  0  0
  189.3540  177.6940  141.1360 C   0  0  2  0  0  3  0  0  0  0  0  0
  188.8980  177.1300  144.2690 C   0  0  0  0  0  3  0  0  0  0  0  0
  188.7340  178.2320  145.2990 C   0  0  0  0  0  2  0  0  0  0  0  0
  188.7870  176.7860  145.7430 C   0  0  0  0  0  2  0  0  0  0  0  0
  189.5710  178.6050  138.7880 C   0  0  0  0  0  2  0  0  0  0  0  0
  188.7060  178.5710  136.6210 C   0  0  0  0  0  1  0  0  0  0  0  0
  188.8960  179.4150  137.7880 N   0  0  0  0  0  2  0  0  0  0  0  0
  178.9310  179.4830  135.5740 O   0  0  0  0  0  1  0  0  0  0  0  0
  179.4720  180.2230  136.6250 C   0  0  0  0  0  0  0  0  0  0  0  0
  179.0210  181.6680  136.4860 C   0  0  0  0  0  1  0  0  0  0  0  0
  178.9310  179.6780  137.9360 C   0  0  0  0  0  1  0  0  0  0  0  0
  1 14  1  0  0  0  0
  2  5  2  0  0  0  0
  3  4  1  0  0  0  0
  3 18  1  0  0  0  0
  4  9  1  0  0  0  0
  5 11  1  0  0  0  0
  5 21  1  0  0  0  0
  6 13  1  0  0  0  0
  7 20  2  0  0  0  0
  8 10  1  6  0  0  0
  9  6  2  0  0  0  0
  9 15  1  0  0  0  0
 11  8  1  0  0  0  0
 12 16  1  1  0  0  0
 13 14  1  6  0  0  0
 13  2  1  0  0  0  0
 13 12  1  0  0  0  0
 16  8  1  0  0  0  0
 17  7  1  0  0  0  0
 17  4  2  0  0  0  0
 18 47  1  0  0  0  0
 18 19  1  1  0  0  0
 18 15  1  0  0  0  0
 20  1  1  0  0  0  0
 20  6  1  0  0  0  0
 22 23  1  0  0  0  0
 23 26  1  1  0  0  0
 23 24  1  0  0  0  0
 25 22  1  6  0  0  0
 25 23  1  0  0  0  0
 25 12  1  0  0  0  0
 25 24  1  0  0  0  0
 27 28  1  0  0  0  0
 27 26  1  0  0  0  0
 28 43  1  6  0  0  0
 29 37  1  0  0  0  0
 29 38  1  1  0  0  0
 30 33  2  0  0  0  0
 31 36  1  1  0  0  0
 31 29  1  0  0  0  0
 33 39  1  0  0  0  0
 33 34  1  0  0  0  0
 34 35  1  0  0  0  0
 35 32  2  0  0  0  0
 35 37  1  0  0  0  0
 37 40  1  6  0  0  0
 39 28  1  6  0  0  0
 39 31  1  0  0  0  0
 40 41  1  0  0  0  0
 40 42  1  0  0  0  0
 41 42  1  0  0  0  0
 44 45  1  0  0  0  0
 45 43  1  0  0  0  0
 46 47  1  0  0  0  0
 47 49  1  0  0  0  0
 48 47  1  0  0  0  0
M  END
>  <MODEL>
4

>  <REMARK>
 VINA RESULT:      -2.8      2.680      5.293
  Name = 
  9 active torsions:
  status: ('A' for Active; 'I' for Inactive)
    1  A    between atoms: C_3  and  C_8
    2  A    between atoms: C_3  and  N_44
    3  A    between atoms: C_8  and  O_43
    4  A    between atoms: C_8  and  C_47
    5  A    between atoms: C_13  and  C_42
    6  A    between atoms: C_15  and  C_37
    7  A    between atoms: C_16  and  C_48
    8  A    between atoms: C_25  and  C_40
    9  A    between atoms: O_43  and  C_48
                            x       y       z     vdW  Elec       q    Type
                         _______ _______ _______ _____ _____    ______ ____

>  <TORSDO>
F 9

$$$$
=
 OpenBabel11062414033D

 49 56  0  0  1  0  0  0  0  0999 V2000
  185.8580  178.6670  137.6780 O   0  0  0  0  0  0  0  0  0  0  0  0
  183.1410  178.2220  135.7850 C   0  0  0  0  0  3  0  0  0  0  0  0
  181.8370  176.5450  140.7040 O   0  0  0  0  0  0  0  0  0  0  0  0
  182.9300  177.1760  140.1430 C   0  0  0  0  0  0  0  0  0  0  0  0
  181.9390  177.7850  135.4000 C   0  0  0  0  0  0  0  0  0  0  0  0
  183.9490  177.4850  137.9980 C   0  0  0  0  0  0  0  0  0  0  0  0
  184.9510  178.4820  139.9830 C   0  0  0  0  0  3  0  0  0  0  0  0
  182.2410  175.4170  134.6690 C   0  0  1  0  0  3  0  0  0  0  0  0
  182.9410  176.9500  138.7980 C   0  0  0  0  0  0  0  0  0  0  0  0
  181.9020  173.9830  135.0260 C   0  0  0  0  0  1  0  0  0  0  0  0
  181.5170  176.3700  135.6160 C   0  0  0  0  0  2  0  0  0  0  0  0
  184.4320  175.9660  135.9570 C   0  0  2  0  0  3  0  0  0  0  0  0
  184.1900  177.4090  136.5160 C   0  0  1  0  0  0  0  0  0  0  0  0
  185.5220  178.1860  136.3770 C   0  0  0  0  0  2  0  0  0  0  0  0
  181.8650  176.1550  138.4550 O   0  0  0  0  0  0  0  0  0  0  0  0
  183.7630  175.6270  134.6090 C   0  0  0  0  0  2  0  0  0  0  0  0
  183.9190  177.9400  140.7810 C   0  0  0  0  0  3  0  0  0  0  0  0
  181.1280  175.8610  139.6530 C   0  0  1  0  0  0  0  0  0  0  0  0
  181.1560  174.4850  139.8900 O   0  0  0  0  0  1  0  0  0  0  0  0
  184.9330  178.2330  138.5980 C   0  0  0  0  0  0  0  0  0  0  0  0
  181.0780  178.6570  134.7450 O   0  0  0  0  0  1  0  0  0  0  0  0
  185.7450  174.8960  137.8700 C   0  0  0  0  0  2  0  0  0  0  0  0
  185.7560  173.8840  136.7540 C   0  0  1  0  0  0  0  0  0  0  0  0
  184.4680  173.5330  136.3210 O   0  0  0  0  0  0  0  0  0  0  0  0
  184.5400  174.7860  136.9620 C   0  0  2  0  0  0  0  0  0  0  0  0
  186.6400  174.2990  135.5770 C   0  0  0  0  0  2  0  0  0  0  0  0
  187.8810  174.7520  136.0390 O   0  0  0  0  0  0  0  0  0  0  0  0
  188.7950  174.4180  135.0360 C   0  0  1  0  0  3  0  0  0  0  0  0
  191.8040  175.4950  137.3280 C   0  0  2  0  0  3  0  0  0  0  0  0
  189.5800  177.1070  134.7050 O   0  0  0  0  0  0  0  0  0  0  0  0
  190.4730  174.8330  136.9300 C   0  0  2  0  0  3  0  0  0  0  0  0
  194.0940  176.3410  134.6200 O   0  0  0  0  0  0  0  0  0  0  0  0
  190.5140  176.2810  134.8920 C   0  0  0  0  0  0  0  0  0  0  0  0
  191.8290  176.6780  134.6300 O   0  0  0  0  0  0  0  0  0  0  0  0
  192.9870  176.0870  135.1640 C   0  0  0  0  0  0  0  0  0  0  0  0
  190.4540  173.5080  137.3720 O   0  0  0  0  0  1  0  0  0  0  0  0
  192.9840  175.2020  136.3860 C   0  0  2  0  0  3  0  0  0  0  0  0
  192.1400  175.1950  138.6490 O   0  0  0  0  0  1  0  0  0  0  0  0
  190.2120  174.8980  135.4160 C   0  0  2  0  0  3  0  0  0  0  0  0
  193.1460  173.7260  136.0160 C   0  0  0  0  0  3  0  0  0  0  0  0
  193.9130  173.0010  137.1060 C   0  0  0  0  0  2  0  0  0  0  0  0
  194.6190  173.4110  135.8310 C   0  0  0  0  0  2  0  0  0  0  0  0
  188.7690  172.9020  134.8460 C   0  0  0  0  0  2  0  0  0  0  0  0
  190.1270  171.0150  135.0370 C   0  0  0  0  0  1  0  0  0  0  0  0
  190.1150  172.4050  134.6170 N   0  0  0  0  0  2  0  0  0  0  0  0
  178.9330  175.8910  140.6190 O   0  0  0  0  0  1  0  0  0  0  0  0
  179.6770  176.3630  139.5380 C   0  0  0  0  0  0  0  0  0  0  0  0
  179.0330  175.8730  138.2520 C   0  0  0  0  0  1  0  0  0  0  0  0
  179.6380  177.8810  139.5440 C   0  0  0  0  0  1  0  0  0  0  0  0
  1 20  1  0  0  0  0
  4  3  1  0  0  0  0
  4 17  1  0  0  0  0
  5 11  1  0  0  0  0
  5  2  2  0  0  0  0
  6 20  2  0  0  0  0
  6  9  1  0  0  0  0
  7 17  2  0  0  0  0
  8 10  1  1  0  0  0
  8 11  1  0  0  0  0
  9  4  2  0  0  0  0
 12 16  1  6  0  0  0
 12 13  1  0  0  0  0
 12 25  1  0  0  0  0
 13  2  1  6  0  0  0
 13  6  1  0  0  0  0
 14 13  1  0  0  0  0
 14  1  1  0  0  0  0
 15  9  1  0  0  0  0
 15 18  1  0  0  0  0
 16  8  1  0  0  0  0
 18 19  1  1  0  0  0
 18  3  1  0  0  0  0
 20  7  1  0  0  0  0
 21  5  1  0  0  0  0
 23 26  1  6  0  0  0
 23 25  1  0  0  0  0
 23 22  1  0  0  0  0
 24 23  1  0  0  0  0
 24 25  1  0  0  0  0
 25 22  1  1  0  0  0
 26 27  1  0  0  0  0
 28 43  1  1  0  0  0
 28 27  1  0  0  0  0
 29 38  1  1  0  0  0
 30 33  2  0  0  0  0
 31 29  1  0  0  0  0
 31 36  1  6  0  0  0
 32 35  2  0  0  0  0
 33 39  1  0  0  0  0
 34 33  1  0  0  0  0
 34 35  1  0  0  0  0
 35 37  1  0  0  0  0
 37 40  1  6  0  0  0
 37 29  1  0  0  0  0
 39 28  1  1  0  0  0
 39 31  1  0  0  0  0
 40 41  1  0  0  0  0
 42 40  1  0  0  0  0
 42 41  1  0  0  0  0
 45 43  1  0  0  0  0
 45 44  1  0  0  0  0
 47 49  1  0  0  0  0
 47 18  1  0  0  0  0
 47 46  1  0  0  0  0
 48 47  1  0  0  0  0
M  END
>  <MODEL>
5

>  <REMARK>
 VINA RESULT:      -2.4      5.357      7.481
  Name = 
  9 active torsions:
  status: ('A' for Active; 'I' for Inactive)
    1  A    between atoms: C_3  and  C_8
    2  A    between atoms: C_3  and  N_44
    3  A    between atoms: C_8  and  O_43
    4  A    between atoms: C_8  and  C_47
    5  A    between atoms: C_13  and  C_42
    6  A    between atoms: C_15  and  C_37
    7  A    between atoms: C_16  and  C_48
    8  A    between atoms: C_25  and  C_40
    9  A    between atoms: O_43  and  C_48
                            x       y       z     vdW  Elec       q    Type
                         _______ _______ _______ _____ _____    ______ ____

>  <TORSDO>
F 9

$$$$
=
 OpenBabel11062414033D

 49 56  0  0  1  0  0  0  0  0999 V2000
  190.6480  176.2490  134.8760 O   0  0  0  0  0  0  0  0  0  0  0  0
  188.4240  178.4870  135.9750 C   0  0  0  0  0  3  0  0  0  0  0  0
  190.7040  176.3670  140.3350 O   0  0  0  0  0  0  0  0  0  0  0  0
  190.9170  176.2680  138.9740 C   0  0  0  0  0  0  0  0  0  0  0  0
  187.6190  179.1480  136.8110 C   0  0  0  0  0  0  0  0  0  0  0  0
  189.7390  176.6240  136.9190 C   0  0  0  0  0  0  0  0  0  0  0  0
  192.0460  175.8380  136.8870 C   0  0  0  0  0  3  0  0  0  0  0  0
  185.6100  177.7060  137.1560 C   0  0  1  0  0  3  0  0  0  0  0  0
  189.7820  176.6350  138.3130 C   0  0  0  0  0  0  0  0  0  0  0  0
  184.8790  176.8680  138.1860 C   0  0  0  0  0  1  0  0  0  0  0  0
  186.7790  178.4320  137.8160 C   0  0  0  0  0  2  0  0  0  0  0  0
  187.3500  176.1150  136.0590 C   0  0  2  0  0  3  0  0  0  0  0  0
  188.6470  176.9890  135.9540 C   0  0  1  0  0  0  0  0  0  0  0  0
  189.3110  176.6630  134.5940 C   0  0  0  0  0  2  0  0  0  0  0  0
  188.8010  176.9660  139.2270 O   0  0  0  0  0  0  0  0  0  0  0  0
  186.0050  176.8600  135.9340 C   0  0  0  0  0  2  0  0  0  0  0  0
  192.0780  175.8620  138.2990 C   0  0  0  0  0  3  0  0  0  0  0  0
  189.3470  176.8010  140.5460 C   0  0  1  0  0  0  0  0  0  0  0  0
  188.6380  175.8040  141.2200 O   0  0  0  0  0  1  0  0  0  0  0  0
  190.8600  176.2240  136.2330 C   0  0  0  0  0  0  0  0  0  0  0  0
  187.5280  180.5310  136.7140 O   0  0  0  0  0  1  0  0  0  0  0  0
  187.8070  173.6190  136.3500 C   0  0  0  0  0  2  0  0  0  0  0  0
  186.3440  173.8040  136.6600 C   0  0  1  0  0  0  0  0  0  0  0  0
  186.1140  174.7400  137.6810 O   0  0  0  0  0  0  0  0  0  0  0  0
  187.3490  174.8950  137.0210 C   0  0  2  0  0  0  0  0  0  0  0  0
  185.5040  174.1200  135.4210 C   0  0  0  0  0  2  0  0  0  0  0  0
  184.5400  173.1250  135.2230 O   0  0  0  0  0  0  0  0  0  0  0  0
  183.8450  173.0350  136.4330 C   0  0  1  0  0  3  0  0  0  0  0  0
  180.5920  174.8260  137.7280 C   0  0  2  0  0  3  0  0  0  0  0  0
  181.5040  172.3010  135.0410 O   0  0  0  0  0  0  0  0  0  0  0  0
  181.9390  174.0840  137.7900 C   0  0  2  0  0  3  0  0  0  0  0  0
  179.7940  176.5270  134.6030 O   0  0  0  0  0  0  0  0  0  0  0  0
  181.5840  173.5120  135.3810 C   0  0  0  0  0  0  0  0  0  0  0  0
  180.7010  174.4340  134.8100 O   0  0  0  0  0  0  0  0  0  0  0  0
  180.3530  175.6830  135.3530 C   0  0  0  0  0  0  0  0  0  0  0  0
  182.7960  174.7340  138.6800 O   0  0  0  0  0  1  0  0  0  0  0  0
  180.5670  176.0520  136.8000 C   0  0  2  0  0  3  0  0  0  0  0  0
  180.1450  175.1650  139.0060 O   0  0  0  0  0  1  0  0  0  0  0  0
  182.6010  173.9480  136.4080 C   0  0  2  0  0  3  0  0  0  0  0  0
  181.7570  177.0000  136.9720 C   0  0  0  0  0  3  0  0  0  0  0  0
  181.4560  178.0150  138.0590 C   0  0  0  0  0  2  0  0  0  0  0  0
  181.3360  178.4110  136.6020 C   0  0  0  0  0  2  0  0  0  0  0  0
  183.4450  171.5770  136.6510 C   0  0  0  0  0  2  0  0  0  0  0  0
  183.6130  169.6510  135.3450 C   0  0  0  0  0  1  0  0  0  0  0  0
  184.3910  170.6960  135.9880 N   0  0  0  0  0  2  0  0  0  0  0  0
  189.3740  179.1960  140.4370 O   0  0  0  0  0  1  0  0  0  0  0  0
  189.2970  178.1260  141.3280 C   0  0  0  0  0  0  0  0  0  0  0  0
  190.4550  178.2240  142.3070 C   0  0  0  0  0  1  0  0  0  0  0  0
  187.9990  178.2320  142.1090 C   0  0  0  0  0  1  0  0  0  0  0  0
  1 20  1  0  0  0  0
  2  5  2  0  0  0  0
  3 18  1  0  0  0  0
  4  3  1  0  0  0  0
  5 11  1  0  0  0  0
  6  9  2  0  0  0  0
  7 17  1  0  0  0  0
  8 11  1  0  0  0  0
  8 10  1  1  0  0  0
  9  4  1  0  0  0  0
  9 15  1  0  0  0  0
 12 16  1  1  0  0  0
 12 25  1  0  0  0  0
 13 14  1  6  0  0  0
 13  2  1  0  0  0  0
 13 12  1  0  0  0  0
 13  6  1  0  0  0  0
 14  1  1  0  0  0  0
 15 18  1  0  0  0  0
 16  8  1  0  0  0  0
 17  4  2  0  0  0  0
 18 19  1  1  0  0  0
 18 47  1  0  0  0  0
 20  7  2  0  0  0  0
 20  6  1  0  0  0  0
 21  5  1  0  0  0  0
 22 23  1  0  0  0  0
 23 26  1  6  0  0  0
 23 25  1  0  0  0  0
 23 24  1  0  0  0  0
 25 22  1  1  0  0  0
 25 24  1  0  0  0  0
 27 26  1  0  0  0  0
 27 28  1  0  0  0  0
 28 43  1  6  0  0  0
 29 31  1  0  0  0  0
 29 38  1  1  0  0  0
 30 33  2  0  0  0  0
 31 36  1  1  0  0  0
 32 35  2  0  0  0  0
 33 39  1  0  0  0  0
 34 35  1  0  0  0  0
 34 33  1  0  0  0  0
 35 37  1  0  0  0  0
 37 40  1  6  0  0  0
 37 29  1  0  0  0  0
 39 28  1  1  0  0  0
 39 31  1  0  0  0  0
 40 41  1  0  0  0  0
 42 40  1  0  0  0  0
 42 41  1  0  0  0  0
 44 45  1  0  0  0  0
 45 43  1  0  0  0  0
 46 47  1  0  0  0  0
 47 49  1  0  0  0  0
 47 48  1  0  0  0  0
M  END
>  <MODEL>
6

>  <REMARK>
 VINA RESULT:      -2.4      4.199     10.143
  Name = 
  9 active torsions:
  status: ('A' for Active; 'I' for Inactive)
    1  A    between atoms: C_3  and  C_8
    2  A    between atoms: C_3  and  N_44
    3  A    between atoms: C_8  and  O_43
    4  A    between atoms: C_8  and  C_47
    5  A    between atoms: C_13  and  C_42
    6  A    between atoms: C_15  and  C_37
    7  A    between atoms: C_16  and  C_48
    8  A    between atoms: C_25  and  C_40
    9  A    between atoms: O_43  and  C_48
                            x       y       z     vdW  Elec       q    Type
                         _______ _______ _______ _____ _____    ______ ____

>  <TORSDO>
F 9

$$$$
