=
 OpenBabel11062415533D

 41 44  0  0  1  0  0  0  0  0999 V2000
  185.3640  178.9900  144.0300 C   0  0  1  0  0  3  0  0  0  0  0  0
  183.3230  179.0930  145.2310 N   0  0  0  0  0  0  0  0  0  0  0  0
  184.2040  178.7350  143.1170 C   0  0  0  0  0  0  0  0  0  0  0  0
  186.8510  177.5970  145.4410 C   0  0  0  0  0  3  0  0  0  0  0  0
  181.7870  178.7570  143.2880 C   0  0  0  0  0  3  0  0  0  0  0  0
  184.1460  178.6550  141.7180 C   0  0  0  0  0  0  0  0  0  0  0  0
  185.2810  179.0480  146.5770 N   0  0  0  0  0  0  0  0  0  0  0  0
  184.6120  179.1920  145.3240 C   0  0  0  0  0  0  0  0  0  0  0  0
  183.0510  178.8440  143.8640 C   0  0  0  0  0  0  0  0  0  0  0  0
  186.3540  178.3140  146.6400 C   0  0  0  0  0  3  0  0  0  0  0  0
  186.3420  177.8430  144.2200 C   0  0  0  0  0  0  0  0  0  0  0  0
  181.7040  178.5850  141.8990 C   0  0  0  0  0  0  0  0  0  0  0  0
  182.8730  178.5670  141.1160 C   0  0  0  0  0  3  0  0  0  0  0  0
  185.3730  178.8440  140.8760 C   0  0  2  0  0  3  0  0  0  0  0  0
  186.1610  179.8460  141.4460 O   0  0  0  0  0  1  0  0  0  0  0  0
  185.0230  179.2010  139.4270 C   0  0  2  0  0  3  0  0  0  0  0  0
  183.8520  179.9620  139.3900 O   0  0  0  0  0  1  0  0  0  0  0  0
  184.8790  177.9560  138.5490 C   0  0  2  0  0  3  0  0  0  0  0  0
  186.8040  176.7490  137.5310 C   0  0  0  0  0  2  0  0  0  0  0  0
  187.3010  178.0810  138.0520 C   0  0  0  0  0  2  0  0  0  0  0  0
  185.9190  177.9780  137.4380 C   0  0  0  0  0  3  0  0  0  0  0  0
  183.5930  177.8840  138.0030 O   0  0  0  0  0  0  0  0  0  0  0  0
  183.2400  176.5390  138.0850 C   0  0  0  0  0  1  0  0  0  0  0  0
  179.3180  177.5880  142.0780 O   0  0  0  0  0  0  0  0  0  0  0  0
  180.1200  178.4580  141.1190 S   0  0  0  0  0  3  0  0  0  0  0  0
  186.8570  177.0700  143.0490 C   0  0  0  0  0  2  0  0  0  0  0  0
  187.9860  176.1350  143.4610 C   0  0  0  0  0  2  0  0  0  0  0  0
  189.1600  177.2740  141.5870 C   0  0  0  0  0  1  0  0  0  0  0  0
  189.3300  176.6520  142.9680 C   0  0  1  0  0  3  0  0  0  0  0  0
  191.1410  176.7250  146.1540 C   0  0  0  0  0  0  0  0  0  0  0  0
  189.9770  177.5840  143.9680 C   0  0  0  0  0  0  0  0  0  0  0  0
  190.5640  177.1420  145.0540 C   0  0  0  0  0  0  0  0  0  0  0  0
  192.1810  174.9160  145.0430 O   0  0  0  0  0  0  0  0  0  0  0  0
  192.7850  175.1980  147.2350 O   0  0  0  0  0  1  0  0  0  0  0  0
  192.0520  175.5710  146.1120 C   0  0  0  0  0  0  0  0  0  0  0  0
  191.3470  179.6440  144.0230 C   0  0  0  0  0  1  0  0  0  0  0  0
  189.9800  179.0560  143.7230 C   0  0  0  0  0  2  0  0  0  0  0  0
  190.9500  177.3900  147.3780 O   0  0  0  0  0  0  0  0  0  0  0  0
  189.7260  177.5110  148.0520 C   0  0  0  0  0  0  0  0  0  0  0  0
  189.4160  178.5730  148.6550 O   0  0  0  0  0  1  0  0  0  0  0  0
  188.8140  176.4670  147.9980 O   0  0  0  0  0  0  0  0  0  0  0  0
  1  3  1  6  0  0  0
  1 11  1  0  0  0  0
  1  8  1  0  0  0  0
  2  8  2  0  0  0  0
  3  9  1  0  0  0  0
  4 10  1  0  0  0  0
  5  9  2  0  0  0  0
  6  3  2  0  0  0  0
  7 10  2  0  0  0  0
  8  7  1  0  0  0  0
  9  2  1  0  0  0  0
 11  4  2  0  0  0  0
 12  5  1  0  0  0  0
 13  6  1  0  0  0  0
 13 12  2  0  0  0  0
 14 15  1  1  0  0  0
 14  6  1  0  0  0  0
 16 17  1  1  0  0  0
 16 14  1  0  0  0  0
 18 22  1  6  0  0  0
 18 16  1  0  0  0  0
 19 20  1  0  0  0  0
 21 19  1  0  0  0  0
 21 20  1  0  0  0  0
 21 18  1  0  0  0  0
 22 23  1  0  0  0  0
 25 12  1  0  0  0  0
 25 24  2  0  0  0  0
 26 27  1  0  0  0  0
 26 11  1  0  0  0  0
 29 28  1  6  0  0  0
 29 27  1  0  0  0  0
 29 31  1  0  0  0  0
 30 38  1  0  0  0  0
 31 32  2  0  0  0  0
 32 30  2  0  0  0  0
 33 35  2  0  0  0  0
 35 30  1  0  0  0  0
 35 34  1  0  0  0  0
 37 31  1  0  0  0  0
 37 36  1  0  0  0  0
 38 39  1  0  0  0  0
 39 40  1  0  0  0  0
 41 39  2  0  0  0  0
M  END
>  <MODEL>
1

>  <REMARK>
 VINA RESULT:      -8.6      0.000      0.000
  Name = 
  14 active torsions:
  status: ('A' for Active; 'I' for Inactive)
    1  A    between atoms: C_4  and  C_9
    2  A    between atoms: C_4  and  C_18
    3  A    between atoms: O_6  and  C_14
    4  A    between atoms: C_9  and  C_14
    5  A    between atoms: C_12  and  O_35
    6  A    between atoms: C_14  and  C_30
    7  A    between atoms: C_20  and  O_35
    8  A    between atoms: C_20  and  C_39
    9  A    between atoms: C_21  and  C_34
   10  A    between atoms: C_21  and  C_36
   11  A    between atoms: C_22  and  C_25
   12  A    between atoms: C_22  and  C_37
   13  A    between atoms: C_25  and  C_36
   14  A    between atoms: S_33  and  C_38
                            x       y       z     vdW  Elec       q    Type
                         _______ _______ _______ _____ _____    ______ ____

>  <TORSDO>
F 14

$$$$
=
 OpenBabel11062415533D

 41 44  0  0  1  0  0  0  0  0999 V2000
  182.7290  178.7930  141.0420 C   0  0  1  0  0  3  0  0  0  0  0  0
  180.8200  177.4270  140.7140 N   0  0  0  0  0  0  0  0  0  0  0  0
  182.9970  177.7590  139.9920 C   0  0  0  0  0  0  0  0  0  0  0  0
  182.9860  178.9300  143.5030 C   0  0  0  0  0  3  0  0  0  0  0  0
  181.7310  176.0410  138.8450 C   0  0  0  0  0  3  0  0  0  0  0  0
  184.0680  177.6280  139.0950 C   0  0  0  0  0  0  0  0  0  0  0  0
  180.7320  178.8370  142.6250 N   0  0  0  0  0  0  0  0  0  0  0  0
  181.3050  178.4240  141.3840 C   0  0  0  0  0  0  0  0  0  0  0  0
  181.8440  177.0240  139.8230 C   0  0  0  0  0  0  0  0  0  0  0  0
  181.5180  179.1000  143.6280 C   0  0  0  0  0  3  0  0  0  0  0  0
  183.5630  178.7050  142.3080 C   0  0  0  0  0  0  0  0  0  0  0  0
  182.8250  175.8270  137.9940 C   0  0  0  0  0  0  0  0  0  0  0  0
  183.9720  176.6370  138.0960 C   0  0  0  0  0  3  0  0  0  0  0  0
  185.1920  178.6210  139.0740 C   0  0  2  0  0  3  0  0  0  0  0  0
  184.9280  179.5790  138.0940 O   0  0  0  0  0  1  0  0  0  0  0  0
  186.5440  177.9480  138.8120 C   0  0  2  0  0  3  0  0  0  0  0  0
  187.4920  178.3980  139.7330 O   0  0  0  0  0  1  0  0  0  0  0  0
  187.0340  178.1860  137.3820 C   0  0  2  0  0  3  0  0  0  0  0  0
  187.1240  176.2500  135.8180 C   0  0  0  0  0  2  0  0  0  0  0  0
  187.1270  175.7160  137.2350 C   0  0  0  0  0  2  0  0  0  0  0  0
  187.8640  177.0000  136.9090 C   0  0  0  0  0  3  0  0  0  0  0  0
  187.7890  179.3600  137.3090 O   0  0  0  0  0  0  0  0  0  0  0  0
  189.0820  178.9410  136.9990 C   0  0  0  0  0  1  0  0  0  0  0  0
  183.9630  174.8510  135.8790 O   0  0  0  0  0  0  0  0  0  0  0  0
  182.7360  174.5800  136.7400 S   0  0  0  0  0  3  0  0  0  0  0  0
  185.0430  178.5100  142.2420 C   0  0  0  0  0  2  0  0  0  0  0  0
  185.5140  177.5110  143.2900 C   0  0  0  0  0  2  0  0  0  0  0  0
  185.9050  178.4210  145.5720 C   0  0  0  0  0  1  0  0  0  0  0  0
  186.5450  178.1380  144.2180 C   0  0  1  0  0  3  0  0  0  0  0  0
  189.4820  177.4950  146.3150 C   0  0  0  0  0  0  0  0  0  0  0  0
  187.8000  177.3000  144.3140 C   0  0  0  0  0  0  0  0  0  0  0  0
  188.6300  177.4000  145.3240 C   0  0  0  0  0  0  0  0  0  0  0  0
  188.0180  176.8290  148.0460 O   0  0  0  0  0  0  0  0  0  0  0  0
  189.5980  178.3770  148.6410 O   0  0  0  0  0  1  0  0  0  0  0  0
  188.9920  177.5490  147.7010 C   0  0  0  0  0  0  0  0  0  0  0  0
  189.5700  176.4210  142.8240 C   0  0  0  0  0  1  0  0  0  0  0  0
  188.1160  176.3050  143.2470 C   0  0  0  0  0  2  0  0  0  0  0  0
  190.8700  177.4950  146.0890 O   0  0  0  0  0  0  0  0  0  0  0  0
  191.7340  176.4230  146.3540 C   0  0  0  0  0  0  0  0  0  0  0  0
  192.0240  175.5830  145.4600 O   0  0  0  0  0  0  0  0  0  0  0  0
  192.3330  176.3230  147.6020 O   0  0  0  0  0  1  0  0  0  0  0  0
  1  3  1  6  0  0  0
  1  8  1  0  0  0  0
  1 11  1  0  0  0  0
  2  8  2  0  0  0  0
  4 10  1  0  0  0  0
  5  9  2  0  0  0  0
  6  3  2  0  0  0  0
  7 10  2  0  0  0  0
  8  7  1  0  0  0  0
  9  3  1  0  0  0  0
  9  2  1  0  0  0  0
 11  4  2  0  0  0  0
 12 13  2  0  0  0  0
 12  5  1  0  0  0  0
 13  6  1  0  0  0  0
 14 15  1  6  0  0  0
 14  6  1  0  0  0  0
 16 14  1  0  0  0  0
 16 17  1  1  0  0  0
 18 22  1  1  0  0  0
 18 16  1  0  0  0  0
 19 21  1  0  0  0  0
 19 20  1  0  0  0  0
 21 20  1  0  0  0  0
 21 18  1  0  0  0  0
 23 22  1  0  0  0  0
 24 25  2  0  0  0  0
 25 12  1  0  0  0  0
 26 11  1  0  0  0  0
 26 27  1  0  0  0  0
 27 29  1  0  0  0  0
 29 31  1  0  0  0  0
 29 28  1  1  0  0  0
 30 35  1  0  0  0  0
 31 32  2  0  0  0  0
 32 30  2  0  0  0  0
 35 33  2  0  0  0  0
 35 34  1  0  0  0  0
 36 37  1  0  0  0  0
 37 31  1  0  0  0  0
 38 30  1  0  0  0  0
 38 39  1  0  0  0  0
 39 41  1  0  0  0  0
 40 39  2  0  0  0  0
M  END
>  <MODEL>
2

>  <REMARK>
 VINA RESULT:      -8.5      2.273      4.179
  Name = 
  14 active torsions:
  status: ('A' for Active; 'I' for Inactive)
    1  A    between atoms: C_4  and  C_9
    2  A    between atoms: C_4  and  C_18
    3  A    between atoms: O_6  and  C_14
    4  A    between atoms: C_9  and  C_14
    5  A    between atoms: C_12  and  O_35
    6  A    between atoms: C_14  and  C_30
    7  A    between atoms: C_20  and  O_35
    8  A    between atoms: C_20  and  C_39
    9  A    between atoms: C_21  and  C_34
   10  A    between atoms: C_21  and  C_36
   11  A    between atoms: C_22  and  C_25
   12  A    between atoms: C_22  and  C_37
   13  A    between atoms: C_25  and  C_36
   14  A    between atoms: S_33  and  C_38
                            x       y       z     vdW  Elec       q    Type
                         _______ _______ _______ _____ _____    ______ ____

>  <TORSDO>
F 14

$$$$
=
 OpenBabel11062415533D

 41 44  0  0  1  0  0  0  0  0999 V2000
  182.7130  178.7530  141.0890 C   0  0  1  0  0  3  0  0  0  0  0  0
  180.7730  177.4640  140.6480 N   0  0  0  0  0  0  0  0  0  0  0  0
  182.9760  177.7630  139.9950 C   0  0  0  0  0  0  0  0  0  0  0  0
  182.9110  178.7610  143.5590 C   0  0  0  0  0  3  0  0  0  0  0  0
  181.6890  176.1430  138.7340 C   0  0  0  0  0  3  0  0  0  0  0  0
  184.0650  177.6430  139.1200 C   0  0  0  0  0  0  0  0  0  0  0  0
  180.6780  178.7810  142.6240 N   0  0  0  0  0  0  0  0  0  0  0  0
  181.2700  178.4120  141.3780 C   0  0  0  0  0  0  0  0  0  0  0  0
  181.8060  177.0740  139.7630 C   0  0  0  0  0  0  0  0  0  0  0  0
  181.4460  178.9710  143.6570 C   0  0  0  0  0  3  0  0  0  0  0  0
  183.5110  178.5760  142.3690 C   0  0  0  0  0  0  0  0  0  0  0  0
  182.7980  175.9370  137.9000 C   0  0  0  0  0  0  0  0  0  0  0  0
  183.9650  176.7050  138.0700 C   0  0  0  0  0  3  0  0  0  0  0  0
  185.2190  178.6000  139.1750 C   0  0  2  0  0  3  0  0  0  0  0  0
  184.9530  179.6760  138.3260 O   0  0  0  0  0  1  0  0  0  0  0  0
  186.5390  177.9260  138.7840 C   0  0  2  0  0  3  0  0  0  0  0  0
  187.5610  178.3330  139.6460 O   0  0  0  0  0  1  0  0  0  0  0  0
  186.9210  178.2150  137.3300 C   0  0  2  0  0  3  0  0  0  0  0  0
  186.8030  176.2950  135.7500 C   0  0  0  0  0  2  0  0  0  0  0  0
  186.9870  175.7470  137.1500 C   0  0  0  0  0  2  0  0  0  0  0  0
  187.6790  177.0320  136.7440 C   0  0  0  0  0  3  0  0  0  0  0  0
  187.6980  179.3740  137.2460 O   0  0  0  0  0  0  0  0  0  0  0  0
  188.9660  178.9340  136.8690 C   0  0  0  0  0  1  0  0  0  0  0  0
  183.1910  175.5360  135.3700 O   0  0  0  0  0  0  0  0  0  0  0  0
  182.7030  174.7570  136.5840 S   0  0  0  0  0  3  0  0  0  0  0  0
  184.9860  178.3390  142.3290 C   0  0  0  0  0  2  0  0  0  0  0  0
  185.6190  178.5820  143.6920 C   0  0  0  0  0  2  0  0  0  0  0  0
  187.5010  177.1860  142.8590 C   0  0  0  0  0  1  0  0  0  0  0  0
  186.5920  177.4660  144.0490 C   0  0  1  0  0  3  0  0  0  0  0  0
  189.8570  177.0860  145.6720 C   0  0  0  0  0  0  0  0  0  0  0  0
  187.3490  177.7650  145.3230 C   0  0  0  0  0  0  0  0  0  0  0  0
  188.6060  177.4280  145.4830 C   0  0  0  0  0  0  0  0  0  0  0  0
  191.0390  176.4460  143.7270 O   0  0  0  0  0  0  0  0  0  0  0  0
  191.5750  178.5100  144.5660 O   0  0  0  0  0  1  0  0  0  0  0  0
  190.8490  177.3220  144.6120 C   0  0  0  0  0  0  0  0  0  0  0  0
  187.3260  178.1440  147.7690 C   0  0  0  0  0  1  0  0  0  0  0  0
  186.6720  178.4860  146.4420 C   0  0  0  0  0  2  0  0  0  0  0  0
  190.2900  176.5390  146.8930 O   0  0  0  0  0  0  0  0  0  0  0  0
  191.6280  176.3340  147.2600 C   0  0  0  0  0  0  0  0  0  0  0  0
  192.1910  177.0730  148.1110 O   0  0  0  0  0  1  0  0  0  0  0  0
  192.3230  175.2590  146.7250 O   0  0  0  0  0  0  0  0  0  0  0  0
  1  3  1  6  0  0  0
  1  8  1  0  0  0  0
  1 11  1  0  0  0  0
  2  8  2  0  0  0  0
  4 10  1  0  0  0  0
  5  9  2  0  0  0  0
  6 14  1  0  0  0  0
  6  3  2  0  0  0  0
  7 10  2  0  0  0  0
  8  7  1  0  0  0  0
  9  3  1  0  0  0  0
  9  2  1  0  0  0  0
 11  4  2  0  0  0  0
 12 13  2  0  0  0  0
 12  5  1  0  0  0  0
 13  6  1  0  0  0  0
 14 15  1  6  0  0  0
 16 14  1  0  0  0  0
 16 17  1  1  0  0  0
 18 22  1  1  0  0  0
 18 16  1  0  0  0  0
 19 21  1  0  0  0  0
 19 20  1  0  0  0  0
 21 20  1  0  0  0  0
 21 18  1  0  0  0  0
 23 22  1  0  0  0  0
 24 25  2  0  0  0  0
 25 12  1  0  0  0  0
 26 11  1  0  0  0  0
 26 27  1  0  0  0  0
 27 29  1  0  0  0  0
 29 28  1  6  0  0  0
 29 31  1  0  0  0  0
 30 38  1  0  0  0  0
 31 32  2  0  0  0  0
 31 37  1  0  0  0  0
 32 30  2  0  0  0  0
 33 35  2  0  0  0  0
 34 35  1  0  0  0  0
 35 30  1  0  0  0  0
 37 36  1  0  0  0  0
 38 39  1  0  0  0  0
 39 40  1  0  0  0  0
 41 39  2  0  0  0  0
M  END
>  <MODEL>
3

>  <REMARK>
 VINA RESULT:      -8.5      2.317      4.025
  Name = 
  14 active torsions:
  status: ('A' for Active; 'I' for Inactive)
    1  A    between atoms: C_4  and  C_9
    2  A    between atoms: C_4  and  C_18
    3  A    between atoms: O_6  and  C_14
    4  A    between atoms: C_9  and  C_14
    5  A    between atoms: C_12  and  O_35
    6  A    between atoms: C_14  and  C_30
    7  A    between atoms: C_20  and  O_35
    8  A    between atoms: C_20  and  C_39
    9  A    between atoms: C_21  and  C_34
   10  A    between atoms: C_21  and  C_36
   11  A    between atoms: C_22  and  C_25
   12  A    between atoms: C_22  and  C_37
   13  A    between atoms: C_25  and  C_36
   14  A    between atoms: S_33  and  C_38
                            x       y       z     vdW  Elec       q    Type
                         _______ _______ _______ _____ _____    ______ ____

>  <TORSDO>
F 14

$$$$
=
 OpenBabel11062415533D

 41 44  0  0  1  0  0  0  0  0999 V2000
  185.5620  178.9000  144.4010 C   0  0  1  0  0  3  0  0  0  0  0  0
  183.6020  179.0730  145.7230 N   0  0  0  0  0  0  0  0  0  0  0  0
  184.3410  178.6560  143.5670 C   0  0  0  0  0  0  0  0  0  0  0  0
  187.1020  177.4980  145.7450 C   0  0  0  0  0  3  0  0  0  0  0  0
  181.9410  178.7380  143.8850 C   0  0  0  0  0  3  0  0  0  0  0  0
  184.1960  178.5530  142.1760 C   0  0  0  0  0  0  0  0  0  0  0  0
  185.6380  179.0050  146.9470 N   0  0  0  0  0  0  0  0  0  0  0  0
  184.8950  179.1420  145.7350 C   0  0  0  0  0  0  0  0  0  0  0  0
  183.2400  178.8060  144.3810 C   0  0  0  0  0  0  0  0  0  0  0  0
  186.6960  178.2480  146.9580 C   0  0  0  0  0  3  0  0  0  0  0  0
  186.5230  177.7340  144.5530 C   0  0  0  0  0  0  0  0  0  0  0  0
  181.7690  178.5430  142.5070 C   0  0  0  0  0  0  0  0  0  0  0  0
  182.8870  178.4850  141.6550 C   0  0  0  0  0  3  0  0  0  0  0  0
  185.3720  178.6980  141.2560 C   0  0  2  0  0  3  0  0  0  0  0  0
  185.8380  180.0130  141.3240 O   0  0  0  0  0  1  0  0  0  0  0  0
  185.0170  178.3330  139.8110 C   0  0  2  0  0  3  0  0  0  0  0  0
  186.0780  178.6490  138.9600 O   0  0  0  0  0  1  0  0  0  0  0  0
  183.7340  179.0260  139.3440 C   0  0  2  0  0  3  0  0  0  0  0  0
  181.9110  177.5520  138.5060 C   0  0  0  0  0  2  0  0  0  0  0  0
  183.2240  176.8130  138.3560 C   0  0  0  0  0  2  0  0  0  0  0  0
  183.1680  178.3100  138.1250 C   0  0  0  0  0  3  0  0  0  0  0  0
  183.9810  180.3680  139.0420 O   0  0  0  0  0  0  0  0  0  0  0  0
  182.7280  180.9150  138.7690 C   0  0  0  0  0  1  0  0  0  0  0  0
  179.6870  179.8930  141.7580 O   0  0  0  0  0  0  0  0  0  0  0  0
  180.1370  178.4400  141.8290 S   0  0  0  0  0  3  0  0  0  0  0  0
  186.9480  176.9290  143.3680 C   0  0  0  0  0  2  0  0  0  0  0  0
  188.1240  177.5810  142.6530 C   0  0  0  0  0  2  0  0  0  0  0  0
  189.3280  175.4710  143.1870 C   0  0  0  0  0  1  0  0  0  0  0  0
  189.4450  176.9890  143.1230 C   0  0  1  0  0  3  0  0  0  0  0  0
  190.6670  177.1970  139.6730 C   0  0  0  0  0  0  0  0  0  0  0  0
  190.6070  177.4640  142.2800 C   0  0  0  0  0  0  0  0  0  0  0  0
  190.6220  177.3330  140.9760 C   0  0  0  0  0  0  0  0  0  0  0  0
  189.3070  178.7160  138.4780 O   0  0  0  0  0  0  0  0  0  0  0  0
  188.5690  176.5470  138.4990 O   0  0  0  0  0  1  0  0  0  0  0  0
  189.4870  177.5290  138.8610 C   0  0  0  0  0  0  0  0  0  0  0  0
  191.3140  179.0890  144.0090 C   0  0  0  0  0  1  0  0  0  0  0  0
  191.7770  178.1270  142.9280 C   0  0  0  0  0  2  0  0  0  0  0  0
  191.8420  176.7850  139.0200 O   0  0  0  0  0  0  0  0  0  0  0  0
  191.8950  175.9290  137.9110 C   0  0  0  0  0  0  0  0  0  0  0  0
  192.2990  176.3390  136.7890 O   0  0  0  0  0  0  0  0  0  0  0  0
  191.5610  174.5920  138.0660 O   0  0  0  0  0  1  0  0  0  0  0  0
  1  3  1  6  0  0  0
  1 11  1  0  0  0  0
  1  8  1  0  0  0  0
  2  8  2  0  0  0  0
  3  9  1  0  0  0  0
  4 10  1  0  0  0  0
  5  9  2  0  0  0  0
  6  3  2  0  0  0  0
  7 10  2  0  0  0  0
  8  7  1  0  0  0  0
  9  2  1  0  0  0  0
 11  4  2  0  0  0  0
 12  5  1  0  0  0  0
 13  6  1  0  0  0  0
 13 12  2  0  0  0  0
 14 15  1  6  0  0  0
 14  6  1  0  0  0  0
 16 17  1  6  0  0  0
 16 14  1  0  0  0  0
 18 22  1  6  0  0  0
 18 16  1  0  0  0  0
 20 19  1  0  0  0  0
 21 20  1  0  0  0  0
 21 19  1  0  0  0  0
 21 18  1  0  0  0  0
 23 22  1  0  0  0  0
 24 25  2  0  0  0  0
 25 12  1  0  0  0  0
 26 11  1  0  0  0  0
 27 29  1  0  0  0  0
 27 26  1  0  0  0  0
 29 28  1  6  0  0  0
 30 32  2  0  0  0  0
 31 37  1  0  0  0  0
 31 29  1  0  0  0  0
 32 31  2  0  0  0  0
 33 35  2  0  0  0  0
 34 35  1  0  0  0  0
 35 30  1  0  0  0  0
 37 36  1  0  0  0  0
 38 30  1  0  0  0  0
 39 41  1  0  0  0  0
 39 38  1  0  0  0  0
 40 39  2  0  0  0  0
M  END
>  <MODEL>
4

>  <REMARK>
 VINA RESULT:      -8.5      3.151      4.542
  Name = 
  14 active torsions:
  status: ('A' for Active; 'I' for Inactive)
    1  A    between atoms: C_4  and  C_9
    2  A    between atoms: C_4  and  C_18
    3  A    between atoms: O_6  and  C_14
    4  A    between atoms: C_9  and  C_14
    5  A    between atoms: C_12  and  O_35
    6  A    between atoms: C_14  and  C_30
    7  A    between atoms: C_20  and  O_35
    8  A    between atoms: C_20  and  C_39
    9  A    between atoms: C_21  and  C_34
   10  A    between atoms: C_21  and  C_36
   11  A    between atoms: C_22  and  C_25
   12  A    between atoms: C_22  and  C_37
   13  A    between atoms: C_25  and  C_36
   14  A    between atoms: S_33  and  C_38
                            x       y       z     vdW  Elec       q    Type
                         _______ _______ _______ _____ _____    ______ ____

>  <TORSDO>
F 14

$$$$
=
 OpenBabel11062415533D

 41 44  0  0  1  0  0  0  0  0999 V2000
  185.1060  177.9940  144.4040 C   0  0  1  0  0  3  0  0  0  0  0  0
  184.8720  178.4500  146.7180 N   0  0  0  0  0  0  0  0  0  0  0  0
  186.4460  178.0240  145.0720 C   0  0  0  0  0  0  0  0  0  0  0  0
  183.6430  179.6540  143.2870 C   0  0  0  0  0  3  0  0  0  0  0  0
  187.2860  178.2460  147.3340 C   0  0  0  0  0  3  0  0  0  0  0  0
  187.7100  177.6430  144.5960 C   0  0  0  0  0  0  0  0  0  0  0  0
  182.9070  178.7850  145.4230 N   0  0  0  0  0  0  0  0  0  0  0  0
  184.2340  178.2890  145.6020 C   0  0  0  0  0  0  0  0  0  0  0  0
  186.2410  178.2560  146.4140 C   0  0  0  0  0  0  0  0  0  0  0  0
  182.6100  179.4120  144.3230 C   0  0  0  0  0  3  0  0  0  0  0  0
  184.8490  179.0610  143.3530 C   0  0  0  0  0  0  0  0  0  0  0  0
  188.5760  177.9580  146.8650 C   0  0  0  0  0  0  0  0  0  0  0  0
  188.7810  177.6260  145.5130 C   0  0  0  0  0  3  0  0  0  0  0  0
  187.8870  177.0930  143.2110 C   0  0  2  0  0  3  0  0  0  0  0  0
  187.9200  175.6990  143.2810 O   0  0  0  0  0  1  0  0  0  0  0  0
  189.1610  177.6240  142.5440 C   0  0  2  0  0  3  0  0  0  0  0  0
  188.8310  178.4510  141.4680 O   0  0  0  0  0  1  0  0  0  0  0  0
  190.0810  176.4910  142.0850 C   0  0  2  0  0  3  0  0  0  0  0  0
  191.7060  175.9930  143.9040 C   0  0  0  0  0  2  0  0  0  0  0  0
  191.4320  177.4830  143.9070 C   0  0  0  0  0  2  0  0  0  0  0  0
  191.4960  176.7280  142.5940 C   0  0  0  0  0  3  0  0  0  0  0  0
  190.0830  176.3920  140.6900 O   0  0  0  0  0  0  0  0  0  0  0  0
  191.2980  176.9450  140.2890 C   0  0  0  0  0  1  0  0  0  0  0  0
  190.8210  176.8140  147.4750 O   0  0  0  0  0  0  0  0  0  0  0  0
  189.9400  177.9430  147.9930 S   0  0  0  0  0  3  0  0  0  0  0  0
  185.8650  179.3620  142.2990 C   0  0  0  0  0  2  0  0  0  0  0  0
  185.6870  178.4570  141.0880 C   0  0  0  0  0  2  0  0  0  0  0  0
  185.4830  179.0180  138.6740 C   0  0  0  0  0  1  0  0  0  0  0  0
  184.8080  179.1190  140.0360 C   0  0  1  0  0  3  0  0  0  0  0  0
  181.3070  180.0120  139.4140 C   0  0  0  0  0  0  0  0  0  0  0  0
  183.4000  178.5660  140.0490 C   0  0  0  0  0  0  0  0  0  0  0  0
  182.3620  179.2960  139.7210 C   0  0  0  0  0  0  0  0  0  0  0  0
  181.7770  182.0540  138.3220 O   0  0  0  0  0  1  0  0  0  0  0  0
  180.8760  180.4180  136.9950 O   0  0  0  0  0  0  0  0  0  0  0  0
  181.3310  180.8800  138.2270 C   0  0  0  0  0  0  0  0  0  0  0  0
  182.7130  176.3410  139.2120 C   0  0  0  0  0  1  0  0  0  0  0  0
  183.1620  177.1410  140.4220 C   0  0  0  0  0  2  0  0  0  0  0  0
  180.1230  179.9310  140.1690 O   0  0  0  0  0  0  0  0  0  0  0  0
  180.0590  179.7760  141.5610 C   0  0  0  0  0  0  0  0  0  0  0  0
  180.0400  180.7760  142.3280 O   0  0  0  0  0  1  0  0  0  0  0  0
  179.9480  178.5030  142.1000 O   0  0  0  0  0  0  0  0  0  0  0  0
  1 11  1  6  0  0  0
  1  3  1  0  0  0  0
  1  8  1  0  0  0  0
  3  9  1  0  0  0  0
  4 11  2  0  0  0  0
  4 10  1  0  0  0  0
  6  3  2  0  0  0  0
  6 13  1  0  0  0  0
  7  8  1  0  0  0  0
  8  2  2  0  0  0  0
  9  2  1  0  0  0  0
  9  5  2  0  0  0  0
 10  7  2  0  0  0  0
 12  5  1  0  0  0  0
 12 25  1  0  0  0  0
 13 12  2  0  0  0  0
 14 15  1  1  0  0  0
 14  6  1  0  0  0  0
 16 17  1  6  0  0  0
 16 14  1  0  0  0  0
 18 22  1  6  0  0  0
 18 16  1  0  0  0  0
 18 21  1  0  0  0  0
 19 20  1  0  0  0  0
 21 19  1  0  0  0  0
 21 20  1  0  0  0  0
 23 22  1  0  0  0  0
 24 25  2  0  0  0  0
 26 11  1  0  0  0  0
 27 26  1  0  0  0  0
 29 28  1  6  0  0  0
 29 31  1  0  0  0  0
 29 27  1  0  0  0  0
 30 32  2  0  0  0  0
 30 38  1  0  0  0  0
 31 37  1  0  0  0  0
 32 31  2  0  0  0  0
 34 35  2  0  0  0  0
 35 33  1  0  0  0  0
 35 30  1  0  0  0  0
 36 37  1  0  0  0  0
 38 39  1  0  0  0  0
 39 41  2  0  0  0  0
 39 40  1  0  0  0  0
M  END
>  <MODEL>
5

>  <REMARK>
 VINA RESULT:      -8.2      2.809      8.326
  Name = 
  14 active torsions:
  status: ('A' for Active; 'I' for Inactive)
    1  A    between atoms: C_4  and  C_9
    2  A    between atoms: C_4  and  C_18
    3  A    between atoms: O_6  and  C_14
    4  A    between atoms: C_9  and  C_14
    5  A    between atoms: C_12  and  O_35
    6  A    between atoms: C_14  and  C_30
    7  A    between atoms: C_20  and  O_35
    8  A    between atoms: C_20  and  C_39
    9  A    between atoms: C_21  and  C_34
   10  A    between atoms: C_21  and  C_36
   11  A    between atoms: C_22  and  C_25
   12  A    between atoms: C_22  and  C_37
   13  A    between atoms: C_25  and  C_36
   14  A    between atoms: S_33  and  C_38
                            x       y       z     vdW  Elec       q    Type
                         _______ _______ _______ _____ _____    ______ ____

>  <TORSDO>
F 14

$$$$
=
 OpenBabel11062415533D

 41 44  0  0  1  0  0  0  0  0999 V2000
  185.5650  179.0000  141.2110 C   0  0  1  0  0  3  0  0  0  0  0  0
  183.7060  178.7140  139.7690 N   0  0  0  0  0  0  0  0  0  0  0  0
  185.9670  178.2530  139.9760 C   0  0  0  0  0  0  0  0  0  0  0  0
  184.7160  178.3860  143.4570 C   0  0  0  0  0  3  0  0  0  0  0  0
  184.9200  177.5930  137.8930 C   0  0  0  0  0  3  0  0  0  0  0  0
  187.2390  177.9070  139.4950 C   0  0  0  0  0  0  0  0  0  0  0  0
  183.1760  179.4920  141.9510 N   0  0  0  0  0  0  0  0  0  0  0  0
  184.1010  179.2020  140.9020 C   0  0  0  0  0  0  0  0  0  0  0  0
  184.8570  178.1520  139.1670 C   0  0  0  0  0  0  0  0  0  0  0  0
  183.4670  179.1310  143.1670 C   0  0  0  0  0  3  0  0  0  0  0  0
  185.6760  178.2450  142.5250 C   0  0  0  0  0  0  0  0  0  0  0  0
  186.1670  177.1550  137.4250 C   0  0  0  0  0  0  0  0  0  0  0  0
  187.3220  177.3400  138.2050 C   0  0  0  0  0  3  0  0  0  0  0  0
  188.4840  178.2920  140.2370 C   0  0  2  0  0  3  0  0  0  0  0  0
  189.0600  179.3980  139.6080 O   0  0  0  0  0  1  0  0  0  0  0  0
  189.4880  177.1360  140.3080 C   0  0  2  0  0  3  0  0  0  0  0  0
  189.6680  176.7350  141.6340 O   0  0  0  0  0  1  0  0  0  0  0  0
  190.8320  177.5050  139.6740 C   0  0  2  0  0  3  0  0  0  0  0  0
  191.1630  176.6800  137.3490 C   0  0  0  0  0  2  0  0  0  0  0  0
  190.1810  175.7600  138.0420 C   0  0  0  0  0  2  0  0  0  0  0  0
  191.3400  176.3520  138.8180 C   0  0  0  0  0  3  0  0  0  0  0  0
  191.7710  177.8220  140.6600 O   0  0  0  0  0  0  0  0  0  0  0  0
  192.9700  177.2750  140.2080 C   0  0  0  0  0  1  0  0  0  0  0  0
  185.0570  176.9350  135.0920 O   0  0  0  0  0  0  0  0  0  0  0  0
  186.2970  176.4280  135.8150 S   0  0  0  0  0  3  0  0  0  0  0  0
  186.9020  177.4590  142.8590 C   0  0  0  0  0  2  0  0  0  0  0  0
  186.7990  176.8430  144.2480 C   0  0  0  0  0  2  0  0  0  0  0  0
  185.8950  178.0680  146.2140 C   0  0  0  0  0  1  0  0  0  0  0  0
  187.1160  177.8700  145.3260 C   0  0  1  0  0  3  0  0  0  0  0  0
  190.7580  177.5700  145.0280 C   0  0  0  0  0  0  0  0  0  0  0  0
  188.3650  177.5080  146.0980 C   0  0  0  0  0  0  0  0  0  0  0  0
  189.5580  177.5510  145.5550 C   0  0  0  0  0  0  0  0  0  0  0  0
  190.3770  179.1990  143.3590 O   0  0  0  0  0  0  0  0  0  0  0  0
  192.4450  179.2680  144.3430 O   0  0  0  0  0  1  0  0  0  0  0  0
  191.1770  178.7110  144.2010 C   0  0  0  0  0  0  0  0  0  0  0  0
  188.6950  178.2490  148.4360 C   0  0  0  0  0  1  0  0  0  0  0  0
  188.2660  177.1070  147.5330 C   0  0  0  0  0  2  0  0  0  0  0  0
  191.6830  176.5400  145.2780 O   0  0  0  0  0  0  0  0  0  0  0  0
  192.0480  176.0700  146.5480 C   0  0  0  0  0  0  0  0  0  0  0  0
  192.4600  174.8900  146.7120 O   0  0  0  0  0  0  0  0  0  0  0  0
  192.0170  176.9380  147.6300 O   0  0  0  0  0  1  0  0  0  0  0  0
  1  3  1  6  0  0  0
  1 11  1  0  0  0  0
  2  8  2  0  0  0  0
  5  9  1  0  0  0  0
  6  3  1  0  0  0  0
  6 14  1  0  0  0  0
  7 10  2  0  0  0  0
  8  1  1  0  0  0  0
  8  7  1  0  0  0  0
  9  2  1  0  0  0  0
  9  3  2  0  0  0  0
 10  4  1  0  0  0  0
 11 26  1  0  0  0  0
 11  4  2  0  0  0  0
 12  5  2  0  0  0  0
 12 13  1  0  0  0  0
 13  6  2  0  0  0  0
 14 15  1  6  0  0  0
 14 16  1  0  0  0  0
 16 17  1  1  0  0  0
 18 16  1  0  0  0  0
 18 22  1  1  0  0  0
 19 20  1  0  0  0  0
 19 21  1  0  0  0  0
 20 21  1  0  0  0  0
 21 18  1  0  0  0  0
 23 22  1  0  0  0  0
 24 25  2  0  0  0  0
 25 12  1  0  0  0  0
 26 27  1  0  0  0  0
 27 29  1  0  0  0  0
 29 31  1  0  0  0  0
 29 28  1  1  0  0  0
 30 38  1  0  0  0  0
 30 32  2  0  0  0  0
 31 37  1  0  0  0  0
 32 31  2  0  0  0  0
 33 35  2  0  0  0  0
 35 34  1  0  0  0  0
 35 30  1  0  0  0  0
 37 36  1  0  0  0  0
 38 39  1  0  0  0  0
 39 40  2  0  0  0  0
 39 41  1  0  0  0  0
M  END
>  <MODEL>
6

>  <REMARK>
 VINA RESULT:      -8.0      2.784      5.023
  Name = 
  14 active torsions:
  status: ('A' for Active; 'I' for Inactive)
    1  A    between atoms: C_4  and  C_9
    2  A    between atoms: C_4  and  C_18
    3  A    between atoms: O_6  and  C_14
    4  A    between atoms: C_9  and  C_14
    5  A    between atoms: C_12  and  O_35
    6  A    between atoms: C_14  and  C_30
    7  A    between atoms: C_20  and  O_35
    8  A    between atoms: C_20  and  C_39
    9  A    between atoms: C_21  and  C_34
   10  A    between atoms: C_21  and  C_36
   11  A    between atoms: C_22  and  C_25
   12  A    between atoms: C_22  and  C_37
   13  A    between atoms: C_25  and  C_36
   14  A    between atoms: S_33  and  C_38
                            x       y       z     vdW  Elec       q    Type
                         _______ _______ _______ _____ _____    ______ ____

>  <TORSDO>
F 14

$$$$
=
 OpenBabel11062415533D

 41 44  0  0  1  0  0  0  0  0999 V2000
  184.9960  177.8590  142.1270 C   0  0  1  0  0  3  0  0  0  0  0  0
  183.4830  178.6130  143.7880 N   0  0  0  0  0  0  0  0  0  0  0  0
  185.7060  178.0690  143.4300 C   0  0  0  0  0  0  0  0  0  0  0  0
  184.4890  179.2500  140.1390 C   0  0  0  0  0  3  0  0  0  0  0  0
  185.0930  178.6550  145.6990 C   0  0  0  0  0  3  0  0  0  0  0  0
  187.0030  177.7090  143.8280 C   0  0  0  0  0  0  0  0  0  0  0  0
  182.6340  178.6360  141.5680 N   0  0  0  0  0  0  0  0  0  0  0  0
  183.6020  178.2580  142.5480 C   0  0  0  0  0  0  0  0  0  0  0  0
  184.7710  178.4690  144.3580 C   0  0  0  0  0  0  0  0  0  0  0  0
  183.0420  179.0860  140.4180 C   0  0  0  0  0  3  0  0  0  0  0  0
  185.4200  178.7510  140.9730 C   0  0  0  0  0  0  0  0  0  0  0  0
  186.4090  178.3900  146.1050 C   0  0  0  0  0  0  0  0  0  0  0  0
  187.3480  177.8900  145.1840 C   0  0  0  0  0  3  0  0  0  0  0  0
  187.9310  176.9870  142.8970 C   0  0  2  0  0  3  0  0  0  0  0  0
  187.9300  175.6290  143.2240 O   0  0  0  0  0  1  0  0  0  0  0  0
  189.3560  177.5490  142.9610 C   0  0  2  0  0  3  0  0  0  0  0  0
  189.3870  178.8420  142.4320 O   0  0  0  0  0  1  0  0  0  0  0  0
  190.3600  176.6510  142.2350 C   0  0  2  0  0  3  0  0  0  0  0  0
  191.6690  175.4320  143.9670 C   0  0  0  0  0  2  0  0  0  0  0  0
  191.3940  176.8310  144.4770 C   0  0  0  0  0  2  0  0  0  0  0  0
  191.6720  176.6040  143.0050 C   0  0  0  0  0  3  0  0  0  0  0  0
  190.5810  177.1110  140.9330 O   0  0  0  0  0  0  0  0  0  0  0  0
  191.9560  177.3260  140.8550 C   0  0  0  0  0  1  0  0  0  0  0  0
  188.3510  178.2570  147.8170 O   0  0  0  0  0  0  0  0  0  0  0  0
  186.8730  178.6210  147.7980 S   0  0  0  0  0  3  0  0  0  0  0  0
  186.8650  178.9710  140.6620 C   0  0  0  0  0  2  0  0  0  0  0  0
  187.3710  177.9520  139.6510 C   0  0  0  0  0  2  0  0  0  0  0  0
  189.1970  179.0050  138.3310 C   0  0  0  0  0  1  0  0  0  0  0  0
  187.7230  178.6210  138.3290 C   0  0  1  0  0  3  0  0  0  0  0  0
  185.2450  176.1770  137.1770 C   0  0  0  0  0  0  0  0  0  0  0  0
  187.3280  177.7700  137.1440 C   0  0  0  0  0  0  0  0  0  0  0  0
  186.2790  176.9830  137.1690 C   0  0  0  0  0  0  0  0  0  0  0  0
  183.4340  176.0330  138.6890 O   0  0  0  0  0  1  0  0  0  0  0  0
  183.3170  177.7530  137.1800 O   0  0  0  0  0  0  0  0  0  0  0  0
  183.9590  176.6410  137.7190 C   0  0  0  0  0  0  0  0  0  0  0  0
  188.7200  176.4620  135.5700 C   0  0  0  0  0  1  0  0  0  0  0  0
  188.1290  177.8250  135.8850 C   0  0  0  0  0  2  0  0  0  0  0  0
  185.3210  174.8850  136.6290 O   0  0  0  0  0  0  0  0  0  0  0  0
  185.9620  173.7890  137.2250 C   0  0  0  0  0  0  0  0  0  0  0  0
  185.3360  173.0000  137.9840 O   0  0  0  0  0  1  0  0  0  0  0  0
  187.2910  173.5300  136.9200 O   0  0  0  0  0  0  0  0  0  0  0  0
  1 11  1  6  0  0  0
  1  8  1  0  0  0  0
  1  3  1  0  0  0  0
  2  9  1  0  0  0  0
  3  6  2  0  0  0  0
  3  9  1  0  0  0  0
  4 10  1  0  0  0  0
  4 11  2  0  0  0  0
  5 12  1  0  0  0  0
  6 13  1  0  0  0  0
  7  8  1  0  0  0  0
  8  2  2  0  0  0  0
  9  5  2  0  0  0  0
 10  7  2  0  0  0  0
 12 25  1  0  0  0  0
 13 12  2  0  0  0  0
 14 16  1  0  0  0  0
 14 15  1  1  0  0  0
 14  6  1  0  0  0  0
 16 17  1  6  0  0  0
 18 22  1  6  0  0  0
 18 16  1  0  0  0  0
 18 21  1  0  0  0  0
 19 20  1  0  0  0  0
 21 19  1  0  0  0  0
 21 20  1  0  0  0  0
 23 22  1  0  0  0  0
 25 24  2  0  0  0  0
 26 11  1  0  0  0  0
 27 26  1  0  0  0  0
 29 28  1  1  0  0  0
 29 27  1  0  0  0  0
 30 35  1  0  0  0  0
 31 32  2  0  0  0  0
 31 29  1  0  0  0  0
 32 30  2  0  0  0  0
 34 35  2  0  0  0  0
 35 33  1  0  0  0  0
 36 37  1  0  0  0  0
 37 31  1  0  0  0  0
 38 30  1  0  0  0  0
 38 39  1  0  0  0  0
 39 40  1  0  0  0  0
 41 39  2  0  0  0  0
M  END
>  <MODEL>
7

>  <REMARK>
 VINA RESULT:      -7.9      2.768      7.778
  Name = 
  14 active torsions:
  status: ('A' for Active; 'I' for Inactive)
    1  A    between atoms: C_4  and  C_9
    2  A    between atoms: C_4  and  C_18
    3  A    between atoms: O_6  and  C_14
    4  A    between atoms: C_9  and  C_14
    5  A    between atoms: C_12  and  O_35
    6  A    between atoms: C_14  and  C_30
    7  A    between atoms: C_20  and  O_35
    8  A    between atoms: C_20  and  C_39
    9  A    between atoms: C_21  and  C_34
   10  A    between atoms: C_21  and  C_36
   11  A    between atoms: C_22  and  C_25
   12  A    between atoms: C_22  and  C_37
   13  A    between atoms: C_25  and  C_36
   14  A    between atoms: S_33  and  C_38
                            x       y       z     vdW  Elec       q    Type
                         _______ _______ _______ _____ _____    ______ ____

>  <TORSDO>
F 14

$$$$
=
 OpenBabel11062415533D

 41 44  0  0  1  0  0  0  0  0999 V2000
  184.7990  177.9910  143.9730 C   0  0  1  0  0  3  0  0  0  0  0  0
  184.2750  178.4580  146.2380 N   0  0  0  0  0  0  0  0  0  0  0  0
  186.0500  178.0970  144.7920 C   0  0  0  0  0  0  0  0  0  0  0  0
  183.3950  179.5620  142.6690 C   0  0  0  0  0  3  0  0  0  0  0  0
  186.6080  178.3850  147.1310 C   0  0  0  0  0  3  0  0  0  0  0  0
  187.3770  177.7770  144.4710 C   0  0  0  0  0  0  0  0  0  0  0  0
  182.4600  178.6770  144.7190 N   0  0  0  0  0  0  0  0  0  0  0  0
  183.7810  178.2520  145.0580 C   0  0  0  0  0  0  0  0  0  0  0  0
  185.6790  178.3310  146.0970 C   0  0  0  0  0  0  0  0  0  0  0  0
  182.2620  179.2780  143.5820 C   0  0  0  0  0  3  0  0  0  0  0  0
  184.6130  179.0320  142.8830 C   0  0  0  0  0  0  0  0  0  0  0  0
  187.9570  178.1590  146.8200 C   0  0  0  0  0  0  0  0  0  0  0  0
  188.3340  177.8240  145.5060 C   0  0  0  0  0  3  0  0  0  0  0  0
  187.7410  177.2230  143.1250 C   0  0  2  0  0  3  0  0  0  0  0  0
  187.8430  175.8330  143.2220 O   0  0  0  0  0  1  0  0  0  0  0  0
  189.0520  177.8170  142.5980 C   0  0  2  0  0  3  0  0  0  0  0  0
  188.7910  178.7110  141.5560 O   0  0  0  0  0  1  0  0  0  0  0  0
  190.0300  176.7330  142.1390 C   0  0  2  0  0  3  0  0  0  0  0  0
  191.6770  176.0360  143.8710 C   0  0  0  0  0  2  0  0  0  0  0  0
  191.2640  177.4650  144.1560 C   0  0  0  0  0  2  0  0  0  0  0  0
  191.4110  176.9920  142.7240 C   0  0  0  0  0  3  0  0  0  0  0  0
  190.0990  176.6910  140.7430 O   0  0  0  0  0  0  0  0  0  0  0  0
  191.3830  177.1340  140.4300 C   0  0  0  0  0  1  0  0  0  0  0  0
  190.2390  177.2360  147.6320 O   0  0  0  0  0  0  0  0  0  0  0  0
  189.1800  178.2260  148.0980 S   0  0  0  0  0  3  0  0  0  0  0  0
  185.7280  179.3750  141.9490 C   0  0  0  0  0  2  0  0  0  0  0  0
  185.5810  178.6410  140.6240 C   0  0  0  0  0  2  0  0  0  0  0  0
  184.1780  180.0080  139.0910 C   0  0  0  0  0  1  0  0  0  0  0  0
  184.1820  178.8240  140.0500 C   0  0  1  0  0  3  0  0  0  0  0  0
  184.5240  176.6300  137.1330 C   0  0  0  0  0  0  0  0  0  0  0  0
  183.6560  177.5490  139.4310 C   0  0  0  0  0  0  0  0  0  0  0  0
  184.1040  177.0950  138.2850 C   0  0  0  0  0  0  0  0  0  0  0  0
  186.4180  175.7230  136.0510 O   0  0  0  0  0  0  0  0  0  0  0  0
  186.8340  177.5170  137.4130 O   0  0  0  0  0  1  0  0  0  0  0  0
  185.9640  176.5930  136.8390 C   0  0  0  0  0  0  0  0  0  0  0  0
  181.3240  177.5520  140.2590 C   0  0  0  0  0  1  0  0  0  0  0  0
  182.6090  176.7530  140.1360 C   0  0  0  0  0  2  0  0  0  0  0  0
  183.6270  176.1140  136.1820 O   0  0  0  0  0  0  0  0  0  0  0  0
  182.8760  174.9380  136.3300 C   0  0  0  0  0  0  0  0  0  0  0  0
  183.3970  173.8860  136.7870 O   0  0  0  0  0  1  0  0  0  0  0  0
  181.5210  174.9540  136.0320 O   0  0  0  0  0  0  0  0  0  0  0  0
  1 11  1  6  0  0  0
  1  3  1  0  0  0  0
  1  8  1  0  0  0  0
  3  9  1  0  0  0  0
  4 11  2  0  0  0  0
  4 10  1  0  0  0  0
  6  3  2  0  0  0  0
  6 13  1  0  0  0  0
  7  8  1  0  0  0  0
  8  2  2  0  0  0  0
  9  2  1  0  0  0  0
  9  5  2  0  0  0  0
 10  7  2  0  0  0  0
 12  5  1  0  0  0  0
 12 25  1  0  0  0  0
 13 12  2  0  0  0  0
 14 15  1  1  0  0  0
 14  6  1  0  0  0  0
 16 17  1  6  0  0  0
 16 14  1  0  0  0  0
 18 22  1  6  0  0  0
 18 16  1  0  0  0  0
 18 21  1  0  0  0  0
 19 20  1  0  0  0  0
 21 19  1  0  0  0  0
 21 20  1  0  0  0  0
 23 22  1  0  0  0  0
 24 25  2  0  0  0  0
 26 11  1  0  0  0  0
 27 26  1  0  0  0  0
 29 28  1  6  0  0  0
 29 27  1  0  0  0  0
 30 32  2  0  0  0  0
 31 29  1  0  0  0  0
 31 37  1  0  0  0  0
 32 31  2  0  0  0  0
 33 35  2  0  0  0  0
 35 30  1  0  0  0  0
 35 34  1  0  0  0  0
 37 36  1  0  0  0  0
 38 39  1  0  0  0  0
 38 30  1  0  0  0  0
 39 40  1  0  0  0  0
 41 39  2  0  0  0  0
M  END
>  <MODEL>
8

>  <REMARK>
 VINA RESULT:      -7.8      2.776      8.108
  Name = 
  14 active torsions:
  status: ('A' for Active; 'I' for Inactive)
    1  A    between atoms: C_4  and  C_9
    2  A    between atoms: C_4  and  C_18
    3  A    between atoms: O_6  and  C_14
    4  A    between atoms: C_9  and  C_14
    5  A    between atoms: C_12  and  O_35
    6  A    between atoms: C_14  and  C_30
    7  A    between atoms: C_20  and  O_35
    8  A    between atoms: C_20  and  C_39
    9  A    between atoms: C_21  and  C_34
   10  A    between atoms: C_21  and  C_36
   11  A    between atoms: C_22  and  C_25
   12  A    between atoms: C_22  and  C_37
   13  A    between atoms: C_25  and  C_36
   14  A    between atoms: S_33  and  C_38
                            x       y       z     vdW  Elec       q    Type
                         _______ _______ _______ _____ _____    ______ ____

>  <TORSDO>
F 14

$$$$
=
 OpenBabel11062415533D

 41 44  0  0  1  0  0  0  0  0999 V2000
  186.1080  177.4930  144.9740 C   0  0  1  0  0  3  0  0  0  0  0  0
  186.5130  178.0130  147.2510 N   0  0  0  0  0  0  0  0  0  0  0  0
  187.5740  177.4290  145.2750 C   0  0  0  0  0  0  0  0  0  0  0  0
  184.5300  179.2420  144.2040 C   0  0  0  0  0  3  0  0  0  0  0  0
  188.9820  177.6290  147.2360 C   0  0  0  0  0  3  0  0  0  0  0  0
  188.6410  176.9390  144.5070 C   0  0  0  0  0  0  0  0  0  0  0  0
  184.3100  178.4770  146.4900 N   0  0  0  0  0  0  0  0  0  0  0  0
  185.5990  177.8800  146.3430 C   0  0  0  0  0  0  0  0  0  0  0  0
  187.7390  177.7040  146.6150 C   0  0  0  0  0  0  0  0  0  0  0  0
  183.7840  179.1040  145.4790 C   0  0  0  0  0  3  0  0  0  0  0  0
  185.6650  178.5550  143.9820 C   0  0  0  0  0  0  0  0  0  0  0  0
  190.0840  177.2300  146.4650 C   0  0  0  0  0  0  0  0  0  0  0  0
  189.9080  176.8550  145.1200 C   0  0  0  0  0  3  0  0  0  0  0  0
  188.4140  176.3490  143.1470 C   0  0  2  0  0  3  0  0  0  0  0  0
  187.7680  175.1200  143.2900 O   0  0  0  0  0  1  0  0  0  0  0  0
  189.7260  176.1750  142.3740 C   0  0  2  0  0  3  0  0  0  0  0  0
  190.6630  175.5020  143.1630 O   0  0  0  0  0  1  0  0  0  0  0  0
  190.2930  177.5140  141.8970 C   0  0  2  0  0  3  0  0  0  0  0  0
  188.8810  178.6290  140.1760 C   0  0  0  0  0  2  0  0  0  0  0  0
  188.6770  177.1330  140.0610 C   0  0  0  0  0  2  0  0  0  0  0  0
  190.0460  177.6850  140.4050 C   0  0  0  0  0  3  0  0  0  0  0  0
  191.6620  177.5950  142.1700 O   0  0  0  0  0  0  0  0  0  0  0  0
  192.2860  177.4930  140.9280 C   0  0  0  0  0  1  0  0  0  0  0  0
  192.0500  175.6550  147.0760 O   0  0  0  0  0  0  0  0  0  0  0  0
  191.6890  177.1290  147.2060 S   0  0  0  0  0  3  0  0  0  0  0  0
  186.3940  178.7540  142.6930 C   0  0  0  0  0  2  0  0  0  0  0  0
  185.4880  179.3780  141.6400 C   0  0  0  0  0  2  0  0  0  0  0  0
  183.5810  177.8540  141.1650 C   0  0  0  0  0  1  0  0  0  0  0  0
  184.9500  178.3200  140.6860 C   0  0  1  0  0  3  0  0  0  0  0  0
  186.2430  177.5570  137.3420 C   0  0  0  0  0  0  0  0  0  0  0  0
  184.9500  178.8020  139.2530 C   0  0  0  0  0  0  0  0  0  0  0  0
  185.5940  178.1660  138.3040 C   0  0  0  0  0  0  0  0  0  0  0  0
  187.2270  175.4150  137.1600 O   0  0  0  0  0  0  0  0  0  0  0  0
  184.9360  175.4440  137.1780 O   0  0  0  0  0  1  0  0  0  0  0  0
  186.1670  176.0930  137.2190 C   0  0  0  0  0  0  0  0  0  0  0  0
  182.7060  179.7050  138.7280 C   0  0  0  0  0  1  0  0  0  0  0  0
  184.1830  180.0260  138.8770 C   0  0  0  0  0  2  0  0  0  0  0  0
  186.9780  178.2780  136.3840 O   0  0  0  0  0  0  0  0  0  0  0  0
  188.3330  178.6220  136.4940 C   0  0  0  0  0  0  0  0  0  0  0  0
  189.2240  177.9600  135.8970 O   0  0  0  0  0  0  0  0  0  0  0  0
  188.6920  179.7510  137.2170 O   0  0  0  0  0  1  0  0  0  0  0  0
  1 11  1  6  0  0  0
  1  3  1  0  0  0  0
  1  8  1  0  0  0  0
  3  9  1  0  0  0  0
  4 10  1  0  0  0  0
  6 13  1  0  0  0  0
  6  3  2  0  0  0  0
  8  7  1  0  0  0  0
  8  2  2  0  0  0  0
  9  5  2  0  0  0  0
  9  2  1  0  0  0  0
 10  7  2  0  0  0  0
 11  4  2  0  0  0  0
 12 25  1  0  0  0  0
 12  5  1  0  0  0  0
 13 12  2  0  0  0  0
 14 15  1  1  0  0  0
 14  6  1  0  0  0  0
 16 14  1  0  0  0  0
 16 17  1  1  0  0  0
 18 22  1  6  0  0  0
 18 16  1  0  0  0  0
 19 21  1  0  0  0  0
 20 19  1  0  0  0  0
 20 21  1  0  0  0  0
 21 18  1  0  0  0  0
 23 22  1  0  0  0  0
 24 25  2  0  0  0  0
 26 11  1  0  0  0  0
 27 26  1  0  0  0  0
 29 28  1  1  0  0  0
 29 27  1  0  0  0  0
 30 32  2  0  0  0  0
 31 29  1  0  0  0  0
 32 31  2  0  0  0  0
 33 35  2  0  0  0  0
 34 35  1  0  0  0  0
 35 30  1  0  0  0  0
 36 37  1  0  0  0  0
 37 31  1  0  0  0  0
 38 39  1  0  0  0  0
 38 30  1  0  0  0  0
 39 41  1  0  0  0  0
 40 39  2  0  0  0  0
M  END
>  <MODEL>
9

>  <REMARK>
 VINA RESULT:      -7.8      3.122      7.873
  Name = 
  14 active torsions:
  status: ('A' for Active; 'I' for Inactive)
    1  A    between atoms: C_4  and  C_9
    2  A    between atoms: C_4  and  C_18
    3  A    between atoms: O_6  and  C_14
    4  A    between atoms: C_9  and  C_14
    5  A    between atoms: C_12  and  O_35
    6  A    between atoms: C_14  and  C_30
    7  A    between atoms: C_20  and  O_35
    8  A    between atoms: C_20  and  C_39
    9  A    between atoms: C_21  and  C_34
   10  A    between atoms: C_21  and  C_36
   11  A    between atoms: C_22  and  C_25
   12  A    between atoms: C_22  and  C_37
   13  A    between atoms: C_25  and  C_36
   14  A    between atoms: S_33  and  C_38
                            x       y       z     vdW  Elec       q    Type
                         _______ _______ _______ _____ _____    ______ ____

>  <TORSDO>
F 14

$$$$
