=
 OpenBabel11062412063D

 48 53  0  0  1  0  0  0  0  0999 V2000
  188.3140  177.6370  142.4190 N   0  0  0  0  0  0  0  0  0  0  0  0
  187.3030  178.2210  141.8220 C   0  0  0  0  0  0  0  0  0  0  0  0
  186.0670  178.6000  145.8410 N   0  0  0  0  0  0  0  0  0  0  0  0
  186.3590  177.8330  144.7770 C   0  0  0  0  0  0  0  0  0  0  0  0
  188.3940  176.8800  143.6730 C   0  0  2  0  0  3  0  0  0  0  0  0
  185.4880  177.5600  143.6130 C   0  0  0  0  0  2  0  0  0  0  0  0
  185.9240  178.4480  142.4520 C   0  0  2  0  0  3  0  0  0  0  0  0
  187.6870  177.5770  144.7870 C   0  0  0  0  0  0  0  0  0  0  0  0
  188.2190  178.1630  145.8740 N   0  0  0  0  0  0  0  0  0  0  0  0
  187.2100  178.7640  146.4970 N   0  0  0  0  0  2  0  0  0  0  0  0
  184.9100  179.4630  140.2520 C   0  0  0  0  0  2  0  0  0  0  0  0
  182.5310  177.5920  138.0630 N   0  0  0  0  0  2  0  0  0  0  0  0
  184.8460  178.4970  141.4110 C   0  0  0  0  0  0  0  0  0  0  0  0
  183.1600  178.1570  139.2120 C   0  0  0  0  0  0  0  0  0  0  0  0
  183.7500  177.7390  141.5600 C   0  0  0  0  0  3  0  0  0  0  0  0
  184.2300  178.8900  139.0850 N   0  0  0  0  0  0  0  0  0  0  0  0
  182.5910  177.8680  140.5870 C   0  0  1  0  0  3  0  0  0  0  0  0
  181.6800  178.9550  140.9910 N   0  0  0  0  0  0  0  0  0  0  0  0
  180.3380  179.9060  142.8450 C   0  0  0  0  0  2  0  0  0  0  0  0
  181.3390  178.8230  142.4150 C   0  0  0  0  0  2  0  0  0  0  0  0
  180.4290  178.8210  140.2330 C   0  0  0  0  0  2  0  0  0  0  0  0
  179.4200  179.9060  140.6390 C   0  0  0  0  0  2  0  0  0  0  0  0
  179.9370  180.7490  141.7170 N   0  0  0  0  0  2  0  0  0  0  0  0
  183.0150  177.8350  136.7720 N   0  0  0  0  0  2  0  0  0  0  0  0
  183.7600  176.8400  136.0750 C   0  0  0  0  0  0  0  0  0  0  0  0
  184.0150  175.7340  136.6200 O   0  0  0  0  0  0  0  0  0  0  0  0
  184.2410  177.1130  134.6980 C   0  0  0  0  0  1  0  0  0  0  0  0
  188.1310  178.4230  139.5170 C   0  0  0  0  0  3  0  0  0  0  0  0
  187.5380  178.8940  140.5760 N   0  0  0  0  0  0  0  0  0  0  0  0
  192.4160  177.3160  139.9580 C   0  0  0  0  0  3  0  0  0  0  0  0
  191.8470  176.3770  137.7810 C   0  0  0  0  0  3  0  0  0  0  0  0
  192.8140  176.7810  138.7180 C   0  0  0  0  0  3  0  0  0  0  0  0
  190.4990  176.5370  138.1120 C   0  0  0  0  0  0  0  0  0  0  0  0
  191.0530  177.4430  140.2640 C   0  0  0  0  0  3  0  0  0  0  0  0
  188.6500  177.0280  139.3920 C   0  0  1  0  0  3  0  0  0  0  0  0
  188.1670  176.4450  138.1900 O   0  0  0  0  0  0  0  0  0  0  0  0
  189.2870  176.1630  137.3480 C   0  0  1  0  0  3  0  0  0  0  0  0
  190.1210  177.0400  139.3030 C   0  0  0  0  0  0  0  0  0  0  0  0
  189.5290  178.2490  136.1690 O   0  0  0  0  0  1  0  0  0  0  0  0
  189.1590  176.9130  136.0020 C   0  0  2  0  0  0  0  0  0  0  0  0
  187.7130  176.8780  135.5270 C   0  0  0  0  0  1  0  0  0  0  0  0
  190.0090  174.7670  134.9250 C   0  0  0  0  0  1  0  0  0  0  0  0
  190.0540  176.2910  134.9250 C   0  0  0  0  0  2  0  0  0  0  0  0
  189.8500  176.6020  144.0020 C   0  0  0  0  0  2  0  0  0  0  0  0
  190.0580  176.5900  145.4760 C   0  0  0  0  0  3  0  0  0  0  0  0
  191.2340  176.7530  145.9610 N   0  0  0  0  0  0  0  0  0  0  0  0
  192.4310  175.6280  147.7380 C   0  0  0  0  0  1  0  0  0  0  0  0
  191.4500  176.7320  147.3800 C   0  0  0  0  0  2  0  0  0  0  0  0
  1  5  1  0  0  0  0
  2  1  2  0  0  0  0
  2  7  1  0  0  0  0
  3 10  1  0  0  0  0
  4  8  1  0  0  0  0
  4  3  2  0  0  0  0
  5 44  1  1  0  0  0
  5  8  1  0  0  0  0
  6  4  1  0  0  0  0
  7 13  1  6  0  0  0
  7  6  1  0  0  0  0
  8  9  2  0  0  0  0
  9 10  1  0  0  0  0
 11 13  1  0  0  0  0
 12 14  1  0  0  0  0
 13 15  2  0  0  0  0
 14 17  1  0  0  0  0
 16 14  2  0  0  0  0
 16 11  1  0  0  0  0
 17 18  1  1  0  0  0
 17 15  1  0  0  0  0
 18 20  1  0  0  0  0
 20 19  1  0  0  0  0
 21 22  1  0  0  0  0
 21 18  1  0  0  0  0
 22 23  1  0  0  0  0
 23 19  1  0  0  0  0
 24 12  1  0  0  0  0
 25 26  2  0  0  0  0
 25 24  1  0  0  0  0
 27 25  1  0  0  0  0
 28 29  2  0  0  0  0
 29  2  1  0  0  0  0
 30 34  1  0  0  0  0
 31 33  2  0  0  0  0
 31 32  1  0  0  0  0
 32 30  2  0  0  0  0
 33 38  1  0  0  0  0
 35 28  1  6  0  0  0
 36 35  1  0  0  0  0
 37 40  1  6  0  0  0
 37 33  1  0  0  0  0
 37 36  1  0  0  0  0
 38 35  1  0  0  0  0
 38 34  2  0  0  0  0
 40 41  1  6  0  0  0
 40 39  1  0  0  0  0
 43 42  1  0  0  0  0
 43 40  1  0  0  0  0
 44 45  1  0  0  0  0
 45 46  2  0  0  0  0
 46 48  1  0  0  0  0
 48 47  1  0  0  0  0
M  END
>  <MODEL>
1

>  <REMARK>
 VINA RESULT:      -8.4      0.000      0.000
  Name = 
  10 active torsions:
  status: ('A' for Active; 'I' for Inactive)
    1  A    between atoms: N_1  and  N_9
    2  A    between atoms: C_3  and  C_43
    3  A    between atoms: N_7  and  C_47
    4  A    between atoms: N_16  and  C_25
    5  A    between atoms: C_18  and  C_34
    6  A    between atoms: C_18  and  C_38
    7  A    between atoms: C_20  and  N_42
    8  A    between atoms: C_23  and  C_32
    9  A    between atoms: C_27  and  C_31
   10  A    between atoms: C_29  and  C_43
                            x       y       z     vdW  Elec       q    Type
                         _______ _______ _______ _____ _____    ______ ____

>  <TORSDO>
F 10

$$$$
=
 OpenBabel11062412063D

 48 53  0  0  1  0  0  0  0  0999 V2000
  184.0100  178.7420  140.6630 N   0  0  0  0  0  0  0  0  0  0  0  0
  185.0190  178.5800  139.8410 C   0  0  0  0  0  0  0  0  0  0  0  0
  181.9130  179.1670  137.0430 N   0  0  0  0  0  0  0  0  0  0  0  0
  182.4830  178.4390  138.0170 C   0  0  1  0  0  3  0  0  0  0  0  0
  182.5830  178.4320  140.5190 C   0  0  2  0  0  3  0  0  0  0  0  0
  183.6260  177.5090  137.8790 C   0  0  0  0  0  2  0  0  0  0  0  0
  184.8930  178.2100  138.3590 C   0  0  2  0  0  3  0  0  0  0  0  0
  182.0440  178.9020  139.2090 C   0  0  0  0  0  0  0  0  0  0  0  0
  181.1770  179.9040  138.9760 N   0  0  0  0  0  0  0  0  0  0  0  0
  181.1120  180.0310  137.6550 N   0  0  0  0  0  0  0  0  0  0  0  0
  186.1830  175.9620  137.9320 C   0  0  0  0  0  2  0  0  0  0  0  0
  188.8710  175.6220  135.3600 N   0  0  0  0  0  2  0  0  0  0  0  0
  186.1030  177.4700  137.8730 C   0  0  0  0  0  0  0  0  0  0  0  0
  188.0810  176.1170  136.4400 C   0  0  0  0  0  0  0  0  0  0  0  0
  187.1810  178.1580  137.4700 C   0  0  0  0  0  3  0  0  0  0  0  0
  187.0270  175.4640  136.8390 N   0  0  0  0  0  0  0  0  0  0  0  0
  188.4610  177.4300  137.0970 C   0  0  1  0  0  3  0  0  0  0  0  0
  189.2880  177.1730  138.2890 N   0  0  0  0  0  0  0  0  0  0  0  0
  190.2990  178.1680  140.3220 C   0  0  0  0  0  2  0  0  0  0  0  0
  189.3850  178.3910  139.1080 C   0  0  0  0  0  2  0  0  0  0  0  0
  190.6500  176.8390  137.8480 C   0  0  0  0  0  2  0  0  0  0  0  0
  191.5750  176.5970  139.0510 C   0  0  0  0  0  2  0  0  0  0  0  0
  190.8830  176.8250  140.3190 N   0  0  0  0  0  2  0  0  0  0  0  0
  188.5650  174.4130  134.7260 N   0  0  0  0  0  2  0  0  0  0  0  0
  189.0010  173.1730  135.2760 C   0  0  0  0  0  0  0  0  0  0  0  0
  189.6890  173.1480  136.3300 O   0  0  0  0  0  0  0  0  0  0  0  0
  188.6440  171.9020  134.5970 C   0  0  0  0  0  1  0  0  0  0  0  0
  186.9790  178.5690  141.3240 C   0  0  0  0  0  3  0  0  0  0  0  0
  186.3280  178.9800  140.2740 N   0  0  0  0  0  0  0  0  0  0  0  0
  184.6430  179.4800  144.9980 C   0  0  0  0  0  3  0  0  0  0  0  0
  186.4860  178.1380  145.8610 C   0  0  0  0  0  3  0  0  0  0  0  0
  185.4200  179.0270  146.0810 C   0  0  0  0  0  3  0  0  0  0  0  0
  186.7540  177.7380  144.5490 C   0  0  0  0  0  0  0  0  0  0  0  0
  184.9280  179.0410  143.6960 C   0  0  0  0  0  3  0  0  0  0  0  0
  186.4760  177.5300  142.2730 C   0  0  1  0  0  3  0  0  0  0  0  0
  187.5380  176.6580  142.6330 O   0  0  0  0  0  0  0  0  0  0  0  0
  187.7700  176.7900  144.0370 C   0  0  1  0  0  3  0  0  0  0  0  0
  186.0020  178.1650  143.5150 C   0  0  0  0  0  0  0  0  0  0  0  0
  189.4140  178.5350  143.8060 O   0  0  0  0  0  1  0  0  0  0  0  0
  189.2210  177.2470  144.3100 C   0  0  2  0  0  0  0  0  0  0  0  0
  190.1970  176.3130  143.6080 C   0  0  0  0  0  1  0  0  0  0  0  0
  190.9250  176.7240  146.1310 C   0  0  0  0  0  1  0  0  0  0  0  0
  189.5340  177.2600  145.8110 C   0  0  0  0  0  2  0  0  0  0  0  0
  181.8200  179.0150  141.6960 C   0  0  0  0  0  2  0  0  0  0  0  0
  180.5180  178.3150  141.8700 C   0  0  0  0  0  3  0  0  0  0  0  0
  180.2630  177.2540  141.1960 N   0  0  0  0  0  0  0  0  0  0  0  0
  178.9390  175.3940  140.3930 C   0  0  0  0  0  1  0  0  0  0  0  0
  179.0060  176.5760  141.3450 C   0  0  0  0  0  2  0  0  0  0  0  0
  2 29  1  0  0  0  0
  2  1  2  0  0  0  0
  3 10  2  0  0  0  0
  3  4  1  0  0  0  0
  4  6  1  1  0  0  0
  4  8  1  0  0  0  0
  5  1  1  0  0  0  0
  5 44  1  1  0  0  0
  6  7  1  0  0  0  0
  7 13  1  1  0  0  0
  7  2  1  0  0  0  0
  8  5  1  0  0  0  0
  9  8  2  0  0  0  0
 10  9  1  0  0  0  0
 12 14  1  0  0  0  0
 13 11  1  0  0  0  0
 14 16  2  0  0  0  0
 14 17  1  0  0  0  0
 15 13  2  0  0  0  0
 16 11  1  0  0  0  0
 17 15  1  1  0  0  0
 17 18  1  0  0  0  0
 18 20  1  0  0  0  0
 20 19  1  0  0  0  0
 21 18  1  0  0  0  0
 21 22  1  0  0  0  0
 22 23  1  0  0  0  0
 23 19  1  0  0  0  0
 24 25  1  0  0  0  0
 24 12  1  0  0  0  0
 25 26  2  0  0  0  0
 27 25  1  0  0  0  0
 29 28  2  0  0  0  0
 30 32  1  0  0  0  0
 31 32  2  0  0  0  0
 33 31  1  0  0  0  0
 34 30  2  0  0  0  0
 35 28  1  6  0  0  0
 35 36  1  0  0  0  0
 35 38  1  0  0  0  0
 36 37  1  0  0  0  0
 37 40  1  6  0  0  0
 37 33  1  0  0  0  0
 38 34  1  0  0  0  0
 38 33  2  0  0  0  0
 39 40  1  0  0  0  0
 40 41  1  6  0  0  0
 40 43  1  0  0  0  0
 43 42  1  0  0  0  0
 44 45  1  0  0  0  0
 46 48  1  0  0  0  0
 46 45  2  0  0  0  0
 47 48  1  0  0  0  0
M  END
>  <MODEL>
2

>  <REMARK>
 VINA RESULT:      -8.1      2.635      8.376
  Name = 
  10 active torsions:
  status: ('A' for Active; 'I' for Inactive)
    1  A    between atoms: N_1  and  N_9
    2  A    between atoms: C_3  and  C_43
    3  A    between atoms: N_7  and  C_47
    4  A    between atoms: N_16  and  C_25
    5  A    between atoms: C_18  and  C_34
    6  A    between atoms: C_18  and  C_38
    7  A    between atoms: C_20  and  N_42
    8  A    between atoms: C_23  and  C_32
    9  A    between atoms: C_27  and  C_31
   10  A    between atoms: C_29  and  C_43
                            x       y       z     vdW  Elec       q    Type
                         _______ _______ _______ _____ _____    ______ ____

>  <TORSDO>
F 10

$$$$
=
 OpenBabel11062412063D

 48 53  0  0  1  0  0  0  0  0999 V2000
  187.6660  177.5690  142.3140 N   0  0  0  0  0  0  0  0  0  0  0  0
  186.7860  178.2600  141.6290 C   0  0  0  0  0  0  0  0  0  0  0  0
  185.2840  178.8700  145.5270 N   0  0  0  0  0  0  0  0  0  0  0  0
  185.5640  178.0510  144.4990 C   0  0  0  0  0  0  0  0  0  0  0  0
  187.5480  176.8330  143.5780 C   0  0  2  0  0  3  0  0  0  0  0  0
  184.7640  177.8630  143.2690 C   0  0  0  0  0  2  0  0  0  0  0  0
  185.4000  178.6680  142.1400 C   0  0  2  0  0  3  0  0  0  0  0  0
  186.8450  177.6340  144.6220 C   0  0  0  0  0  0  0  0  0  0  0  0
  187.3550  178.1730  145.7440 N   0  0  0  0  0  0  0  0  0  0  0  0
  186.3820  178.9060  146.2740 N   0  0  0  0  0  2  0  0  0  0  0  0
  182.9460  178.5870  141.2070 C   0  0  0  0  0  2  0  0  0  0  0  0
  181.8450  180.5390  138.2190 N   0  0  0  0  0  2  0  0  0  0  0  0
  184.4240  178.8260  141.0120 C   0  0  0  0  0  0  0  0  0  0  0  0
  182.6000  179.6930  139.0840 C   0  0  0  0  0  0  0  0  0  0  0  0
  184.8780  179.0880  139.7780 C   0  0  0  0  0  3  0  0  0  0  0  0
  182.1770  179.4340  140.2880 N   0  0  0  0  0  0  0  0  0  0  0  0
  183.9200  179.1240  138.6000 C   0  0  1  0  0  3  0  0  0  0  0  0
  183.7120  177.7740  138.0460 N   0  0  0  0  0  0  0  0  0  0  0  0
  184.7960  175.8220  136.9700 C   0  0  0  0  0  2  0  0  0  0  0  0
  184.9950  177.2040  137.6130 C   0  0  0  0  0  2  0  0  0  0  0  0
  182.8630  177.8860  136.8530 C   0  0  0  0  0  2  0  0  0  0  0  0
  182.6390  176.5100  136.2050 C   0  0  0  0  0  2  0  0  0  0  0  0
  183.3800  175.4580  136.9020 N   0  0  0  0  0  2  0  0  0  0  0  0
  180.6180  181.0820  138.6170 N   0  0  0  0  0  2  0  0  0  0  0  0
  180.2480  182.4030  138.2290 C   0  0  0  0  0  0  0  0  0  0  0  0
  181.0300  183.1100  137.5420 O   0  0  0  0  0  0  0  0  0  0  0  0
  178.9310  182.9470  138.6440 C   0  0  0  0  0  1  0  0  0  0  0  0
  187.9850  178.3740  139.4860 C   0  0  0  0  0  3  0  0  0  0  0  0
  187.2030  178.8740  140.4000 N   0  0  0  0  0  0  0  0  0  0  0  0
  192.2400  177.5160  140.4550 C   0  0  0  0  0  3  0  0  0  0  0  0
  191.9410  176.3740  138.3220 C   0  0  0  0  0  3  0  0  0  0  0  0
  192.7870  176.9010  139.3130 C   0  0  0  0  0  3  0  0  0  0  0  0
  190.5600  176.4940  138.4980 C   0  0  0  0  0  0  0  0  0  0  0  0
  190.8480  177.6010  140.6080 C   0  0  0  0  0  3  0  0  0  0  0  0
  188.5680  176.9990  139.5370 C   0  0  1  0  0  3  0  0  0  0  0  0
  188.2390  176.2960  138.3480 O   0  0  0  0  0  0  0  0  0  0  0  0
  189.4510  176.0010  137.6510 C   0  0  1  0  0  3  0  0  0  0  0  0
  190.0390  177.0760  139.5970 C   0  0  0  0  0  0  0  0  0  0  0  0
  190.5770  176.2370  135.5350 O   0  0  0  0  0  1  0  0  0  0  0  0
  189.4360  176.6290  136.2390 C   0  0  2  0  0  0  0  0  0  0  0  0
  189.4470  178.1470  136.3490 C   0  0  0  0  0  1  0  0  0  0  0  0
  187.5300  177.3520  134.7110 C   0  0  0  0  0  1  0  0  0  0  0  0
  188.2000  176.1950  135.4440 C   0  0  0  0  0  2  0  0  0  0  0  0
  188.9280  176.3860  144.0300 C   0  0  0  0  0  2  0  0  0  0  0  0
  189.8410  177.5550  144.1490 C   0  0  0  0  0  3  0  0  0  0  0  0
  191.1080  177.3740  144.2390 N   0  0  0  0  0  0  0  0  0  0  0  0
  191.2810  179.7730  143.9740 C   0  0  0  0  0  1  0  0  0  0  0  0
  191.9990  178.4930  144.3660 C   0  0  0  0  0  2  0  0  0  0  0  0
  1  5  1  0  0  0  0
  2  7  1  0  0  0  0
  2  1  2  0  0  0  0
  3 10  1  0  0  0  0
  4  8  1  0  0  0  0
  4  3  2  0  0  0  0
  5 44  1  1  0  0  0
  5  8  1  0  0  0  0
  6  4  1  0  0  0  0
  7 13  1  6  0  0  0
  7  6  1  0  0  0  0
  8  9  2  0  0  0  0
  9 10  1  0  0  0  0
 12 24  1  0  0  0  0
 12 14  1  0  0  0  0
 13 11  1  0  0  0  0
 14 16  2  0  0  0  0
 15 13  2  0  0  0  0
 16 11  1  0  0  0  0
 17 18  1  1  0  0  0
 17 14  1  0  0  0  0
 17 15  1  0  0  0  0
 19 20  1  0  0  0  0
 20 18  1  0  0  0  0
 21 18  1  0  0  0  0
 22 21  1  0  0  0  0
 22 23  1  0  0  0  0
 23 19  1  0  0  0  0
 25 24  1  0  0  0  0
 25 27  1  0  0  0  0
 26 25  2  0  0  0  0
 28 29  2  0  0  0  0
 29  2  1  0  0  0  0
 30 34  1  0  0  0  0
 31 33  2  0  0  0  0
 31 32  1  0  0  0  0
 32 30  2  0  0  0  0
 33 38  1  0  0  0  0
 35 28  1  6  0  0  0
 35 38  1  0  0  0  0
 36 35  1  0  0  0  0
 37 40  1  6  0  0  0
 37 36  1  0  0  0  0
 37 33  1  0  0  0  0
 38 34  2  0  0  0  0
 39 40  1  0  0  0  0
 40 41  1  1  0  0  0
 42 43  1  0  0  0  0
 43 40  1  0  0  0  0
 44 45  1  0  0  0  0
 45 46  2  0  0  0  0
 46 48  1  0  0  0  0
 47 48  1  0  0  0  0
M  END
>  <MODEL>
3

>  <REMARK>
 VINA RESULT:      -8.1      1.921      3.483
  Name = 
  10 active torsions:
  status: ('A' for Active; 'I' for Inactive)
    1  A    between atoms: N_1  and  N_9
    2  A    between atoms: C_3  and  C_43
    3  A    between atoms: N_7  and  C_47
    4  A    between atoms: N_16  and  C_25
    5  A    between atoms: C_18  and  C_34
    6  A    between atoms: C_18  and  C_38
    7  A    between atoms: C_20  and  N_42
    8  A    between atoms: C_23  and  C_32
    9  A    between atoms: C_27  and  C_31
   10  A    between atoms: C_29  and  C_43
                            x       y       z     vdW  Elec       q    Type
                         _______ _______ _______ _____ _____    ______ ____

>  <TORSDO>
F 10

$$$$
=
 OpenBabel11062412063D

 48 53  0  0  1  0  0  0  0  0999 V2000
  187.3180  178.0480  142.8500 N   0  0  0  0  0  0  0  0  0  0  0  0
  186.5380  178.5690  141.9330 C   0  0  0  0  0  0  0  0  0  0  0  0
  184.0470  179.0060  145.3130 N   0  0  0  0  0  0  0  0  0  0  0  0
  184.6950  178.2230  144.4340 C   0  0  0  0  0  0  0  0  0  0  0  0
  187.0080  177.3290  144.0900 C   0  0  2  0  0  3  0  0  0  0  0  0
  184.2610  177.8790  143.0620 C   0  0  0  0  0  2  0  0  0  0  0  0
  185.0230  178.7540  142.0710 C   0  0  2  0  0  3  0  0  0  0  0  0
  185.9540  178.0260  144.8850 C   0  0  0  0  0  0  0  0  0  0  0  0
  186.0830  178.6650  146.0620 N   0  0  0  0  0  0  0  0  0  0  0  0
  184.9080  179.2380  146.2970 N   0  0  0  0  0  2  0  0  0  0  0  0
  185.0200  179.2550  139.4930 C   0  0  0  0  0  2  0  0  0  0  0  0
  182.8750  177.3940  137.0660 N   0  0  0  0  0  2  0  0  0  0  0  0
  184.3430  178.7250  140.7350 C   0  0  0  0  0  0  0  0  0  0  0  0
  183.3070  178.1240  138.2130 C   0  0  0  0  0  0  0  0  0  0  0  0
  183.0690  178.3150  140.6510 C   0  0  0  0  0  3  0  0  0  0  0  0
  184.5430  178.5240  138.3130 N   0  0  0  0  0  0  0  0  0  0  0  0
  182.3210  178.4010  139.3310 C   0  0  1  0  0  3  0  0  0  0  0  0
  181.7190  179.7340  139.1510 N   0  0  0  0  0  0  0  0  0  0  0  0
  179.8860  181.2540  139.8390 C   0  0  0  0  0  2  0  0  0  0  0  0
  180.5720  179.8960  140.0560 C   0  0  0  0  0  2  0  0  0  0  0  0
  181.2050  179.8310  137.7780 C   0  0  0  0  0  2  0  0  0  0  0  0
  180.5280  181.1900  137.5380 C   0  0  0  0  0  2  0  0  0  0  0  0
  180.5120  182.0070  138.7520 N   0  0  0  0  0  2  0  0  0  0  0  0
  183.7450  177.1190  136.0040 N   0  0  0  0  0  2  0  0  0  0  0  0
  184.1710  175.7850  135.7400 C   0  0  0  0  0  0  0  0  0  0  0  0
  183.7900  174.8360  136.4730 O   0  0  0  0  0  0  0  0  0  0  0  0
  185.0750  175.5170  134.5940 C   0  0  0  0  0  1  0  0  0  0  0  0
  187.9770  178.7040  139.9440 C   0  0  0  0  0  3  0  0  0  0  0  0
  187.1450  179.2180  140.8040 N   0  0  0  0  0  0  0  0  0  0  0  0
  192.2240  177.4390  140.3280 C   0  0  0  0  0  3  0  0  0  0  0  0
  191.5120  176.2970  138.2950 C   0  0  0  0  0  3  0  0  0  0  0  0
  192.5390  176.7520  139.1390 C   0  0  0  0  0  3  0  0  0  0  0  0
  190.1890  176.5590  138.6610 C   0  0  0  0  0  0  0  0  0  0  0  0
  190.8830  177.6660  140.6740 C   0  0  0  0  0  3  0  0  0  0  0  0
  188.4250  177.2780  139.9540 C   0  0  1  0  0  3  0  0  0  0  0  0
  187.8620  176.5930  138.8460 O   0  0  0  0  0  0  0  0  0  0  0  0
  188.9270  176.1650  137.9950 C   0  0  1  0  0  3  0  0  0  0  0  0
  189.8900  177.2080  139.8040 C   0  0  0  0  0  0  0  0  0  0  0  0
  189.7880  177.6960  136.3470 O   0  0  0  0  0  1  0  0  0  0  0  0
  188.7700  176.7690  136.5800 C   0  0  2  0  0  0  0  0  0  0  0  0
  187.4360  177.4930  136.4730 C   0  0  0  0  0  1  0  0  0  0  0  0
  189.2010  174.3140  136.0530 C   0  0  0  0  0  1  0  0  0  0  0  0
  188.8400  175.6870  135.4960 C   0  0  0  0  0  2  0  0  0  0  0  0
  188.2860  177.1250  144.8870 C   0  0  0  0  0  2  0  0  0  0  0  0
  189.4320  177.7970  144.2130 C   0  0  0  0  0  3  0  0  0  0  0  0
  190.6290  177.5890  144.6240 N   0  0  0  0  0  0  0  0  0  0  0  0
  191.6130  179.7460  144.1380 C   0  0  0  0  0  1  0  0  0  0  0  0
  191.7420  178.2390  143.9910 C   0  0  0  0  0  2  0  0  0  0  0  0
  1  5  1  0  0  0  0
  2  7  1  0  0  0  0
  2  1  2  0  0  0  0
  3 10  1  0  0  0  0
  4  8  1  0  0  0  0
  4  3  2  0  0  0  0
  5  8  1  0  0  0  0
  5 44  1  1  0  0  0
  6  4  1  0  0  0  0
  7 13  1  6  0  0  0
  7  6  1  0  0  0  0
  8  9  2  0  0  0  0
  9 10  1  0  0  0  0
 11 13  1  0  0  0  0
 12 14  1  0  0  0  0
 14 16  2  0  0  0  0
 14 17  1  0  0  0  0
 15 13  2  0  0  0  0
 16 11  1  0  0  0  0
 17 18  1  6  0  0  0
 17 15  1  0  0  0  0
 18 20  1  0  0  0  0
 19 20  1  0  0  0  0
 21 18  1  0  0  0  0
 22 21  1  0  0  0  0
 22 23  1  0  0  0  0
 23 19  1  0  0  0  0
 24 12  1  0  0  0  0
 25 24  1  0  0  0  0
 25 26  2  0  0  0  0
 27 25  1  0  0  0  0
 28 29  2  0  0  0  0
 29  2  1  0  0  0  0
 30 34  1  0  0  0  0
 31 33  2  0  0  0  0
 31 32  1  0  0  0  0
 32 30  2  0  0  0  0
 33 38  1  0  0  0  0
 35 28  1  6  0  0  0
 36 35  1  0  0  0  0
 37 40  1  6  0  0  0
 37 33  1  0  0  0  0
 37 36  1  0  0  0  0
 38 35  1  0  0  0  0
 38 34  2  0  0  0  0
 39 40  1  0  0  0  0
 40 41  1  6  0  0  0
 43 42  1  0  0  0  0
 43 40  1  0  0  0  0
 45 46  2  0  0  0  0
 45 44  1  0  0  0  0
 48 47  1  0  0  0  0
 48 46  1  0  0  0  0
M  END
>  <MODEL>
4

>  <REMARK>
 VINA RESULT:      -8.0      1.513      1.834
  Name = 
  10 active torsions:
  status: ('A' for Active; 'I' for Inactive)
    1  A    between atoms: N_1  and  N_9
    2  A    between atoms: C_3  and  C_43
    3  A    between atoms: N_7  and  C_47
    4  A    between atoms: N_16  and  C_25
    5  A    between atoms: C_18  and  C_34
    6  A    between atoms: C_18  and  C_38
    7  A    between atoms: C_20  and  N_42
    8  A    between atoms: C_23  and  C_32
    9  A    between atoms: C_27  and  C_31
   10  A    between atoms: C_29  and  C_43
                            x       y       z     vdW  Elec       q    Type
                         _______ _______ _______ _____ _____    ______ ____

>  <TORSDO>
F 10

$$$$
=
 OpenBabel11062412063D

 48 53  0  0  1  0  0  0  0  0999 V2000
  186.1690  177.8140  137.9450 N   0  0  0  0  0  0  0  0  0  0  0  0
  185.1840  178.3750  138.6040 C   0  0  0  0  0  0  0  0  0  0  0  0
  183.4970  174.5680  137.9120 N   0  0  0  0  0  0  0  0  0  0  0  0
  183.9620  175.7400  137.4480 C   0  0  0  0  0  0  0  0  0  0  0  0
  186.1750  176.7790  136.9060 C   0  0  2  0  0  3  0  0  0  0  0  0
  183.2460  177.0340  137.4260 C   0  0  0  0  0  2  0  0  0  0  0  0
  183.7320  177.8850  138.5960 C   0  0  2  0  0  3  0  0  0  0  0  0
  185.2980  175.6270  137.2680 C   0  0  0  0  0  0  0  0  0  0  0  0
  185.6610  174.3730  137.5940 N   0  0  0  0  0  0  0  0  0  0  0  0
  184.5450  173.7550  137.9680 N   0  0  0  0  0  2  0  0  0  0  0  0
  183.2500  180.4310  139.0280 C   0  0  0  0  0  2  0  0  0  0  0  0
  179.9790  182.0430  138.2190 N   0  0  0  0  0  2  0  0  0  0  0  0
  182.7710  179.0100  138.8440 C   0  0  0  0  0  0  0  0  0  0  0  0
  180.9550  181.1260  138.7110 C   0  0  0  0  0  0  0  0  0  0  0  0
  181.4680  178.7420  139.0080 C   0  0  0  0  0  3  0  0  0  0  0  0
  182.2250  181.3680  138.5540 N   0  0  0  0  0  0  0  0  0  0  0  0
  180.4990  179.8480  139.3880 C   0  0  1  0  0  3  0  0  0  0  0  0
  180.4620  180.0390  140.8480 N   0  0  0  0  0  0  0  0  0  0  0  0
  180.7630  178.9520  143.0560 C   0  0  0  0  0  2  0  0  0  0  0  0
  180.8580  178.7980  141.5300 C   0  0  0  0  0  2  0  0  0  0  0  0
  179.0780  180.3290  141.2460 C   0  0  0  0  0  2  0  0  0  0  0  0
  178.9670  180.5020  142.7690 C   0  0  0  0  0  2  0  0  0  0  0  0
  180.2490  180.2690  143.4340 N   0  0  0  0  0  2  0  0  0  0  0  0
  180.3490  183.2390  137.5940 N   0  0  0  0  0  2  0  0  0  0  0  0
  180.4340  183.3210  136.1740 C   0  0  0  0  0  0  0  0  0  0  0  0
  180.2000  182.3110  135.4600 O   0  0  0  0  0  0  0  0  0  0  0  0
  180.8060  184.6070  135.5330 C   0  0  0  0  0  1  0  0  0  0  0  0
  185.7100  179.2220  140.8510 C   0  0  0  0  0  3  0  0  0  0  0  0
  185.4960  179.3840  139.5770 N   0  0  0  0  0  0  0  0  0  0  0  0
  184.5070  178.6270  145.0910 C   0  0  0  0  0  3  0  0  0  0  0  0
  186.7310  177.6320  145.0260 C   0  0  0  0  0  3  0  0  0  0  0  0
  185.6480  178.1450  145.7600 C   0  0  0  0  0  3  0  0  0  0  0  0
  186.6450  177.6310  143.6320 C   0  0  0  0  0  0  0  0  0  0  0  0
  184.4460  178.5910  143.6900 C   0  0  0  0  0  3  0  0  0  0  0  0
  185.7170  177.8970  141.5420 C   0  0  1  0  0  3  0  0  0  0  0  0
  186.9730  177.2650  141.3500 O   0  0  0  0  0  0  0  0  0  0  0  0
  187.6010  177.1190  142.6250 C   0  0  1  0  0  3  0  0  0  0  0  0
  185.5470  178.0830  142.9940 C   0  0  0  0  0  0  0  0  0  0  0  0
  188.8920  179.0040  141.8640 O   0  0  0  0  0  1  0  0  0  0  0  0
  188.9630  177.8510  142.6490 C   0  0  2  0  0  0  0  0  0  0  0  0
  190.0440  176.9500  142.0700 C   0  0  0  0  0  1  0  0  0  0  0  0
  190.7330  178.9100  144.1430 C   0  0  0  0  0  1  0  0  0  0  0  0
  189.3580  178.2550  144.0730 C   0  0  0  0  0  2  0  0  0  0  0  0
  187.6050  176.3470  136.6320 C   0  0  0  0  0  2  0  0  0  0  0  0
  188.4770  176.6660  137.7960 C   0  0  0  0  0  3  0  0  0  0  0  0
  189.6160  177.2250  137.6110 N   0  0  0  0  0  0  0  0  0  0  0  0
  191.6830  176.6090  138.7100 C   0  0  0  0  0  1  0  0  0  0  0  0
  190.4720  177.5270  138.7240 C   0  0  0  0  0  2  0  0  0  0  0  0
  1  2  2  0  0  0  0
  2 29  1  0  0  0  0
  3 10  1  0  0  0  0
  4  3  2  0  0  0  0
  5 44  1  1  0  0  0
  5  8  1  0  0  0  0
  5  1  1  0  0  0  0
  6  4  1  0  0  0  0
  6  7  1  0  0  0  0
  7  2  1  0  0  0  0
  7 13  1  6  0  0  0
  8  4  1  0  0  0  0
  8  9  2  0  0  0  0
  9 10  1  0  0  0  0
 12 14  1  0  0  0  0
 13 15  2  0  0  0  0
 13 11  1  0  0  0  0
 14 17  1  0  0  0  0
 16 14  2  0  0  0  0
 16 11  1  0  0  0  0
 17 15  1  1  0  0  0
 17 18  1  0  0  0  0
 18 21  1  0  0  0  0
 18 20  1  0  0  0  0
 19 23  1  0  0  0  0
 20 19  1  0  0  0  0
 21 22  1  0  0  0  0
 22 23  1  0  0  0  0
 24 12  1  0  0  0  0
 25 24  1  0  0  0  0
 26 25  2  0  0  0  0
 27 25  1  0  0  0  0
 29 28  2  0  0  0  0
 30 32  1  0  0  0  0
 31 32  2  0  0  0  0
 33 31  1  0  0  0  0
 34 30  2  0  0  0  0
 35 28  1  6  0  0  0
 35 38  1  0  0  0  0
 36 35  1  0  0  0  0
 36 37  1  0  0  0  0
 37 40  1  6  0  0  0
 37 33  1  0  0  0  0
 38 33  2  0  0  0  0
 38 34  1  0  0  0  0
 39 40  1  0  0  0  0
 40 41  1  6  0  0  0
 40 43  1  0  0  0  0
 43 42  1  0  0  0  0
 44 45  1  0  0  0  0
 46 45  2  0  0  0  0
 46 48  1  0  0  0  0
 47 48  1  0  0  0  0
M  END
>  <MODEL>
5

>  <REMARK>
 VINA RESULT:      -8.0      3.132      6.525
  Name = 
  10 active torsions:
  status: ('A' for Active; 'I' for Inactive)
    1  A    between atoms: N_1  and  N_9
    2  A    between atoms: C_3  and  C_43
    3  A    between atoms: N_7  and  C_47
    4  A    between atoms: N_16  and  C_25
    5  A    between atoms: C_18  and  C_34
    6  A    between atoms: C_18  and  C_38
    7  A    between atoms: C_20  and  N_42
    8  A    between atoms: C_23  and  C_32
    9  A    between atoms: C_27  and  C_31
   10  A    between atoms: C_29  and  C_43
                            x       y       z     vdW  Elec       q    Type
                         _______ _______ _______ _____ _____    ______ ____

>  <TORSDO>
F 10

$$$$
=
 OpenBabel11062412063D

 48 53  0  0  1  0  0  0  0  0999 V2000
  188.2060  177.3120  138.6570 N   0  0  0  0  0  0  0  0  0  0  0  0
  187.6430  178.0130  139.6120 C   0  0  0  0  0  0  0  0  0  0  0  0
  191.4860  177.5020  141.2810 N   0  0  0  0  0  0  0  0  0  0  0  0
  190.3200  176.9870  140.8590 C   0  0  1  0  0  3  0  0  0  0  0  0
  189.2650  176.2980  138.6960 C   0  0  2  0  0  3  0  0  0  0  0  0
  189.0350  176.9770  141.5930 C   0  0  0  0  0  2  0  0  0  0  0  0
  188.1520  178.0980  141.0550 C   0  0  2  0  0  3  0  0  0  0  0  0
  190.4190  176.7340  139.5340 C   0  0  0  0  0  0  0  0  0  0  0  0
  191.6600  177.0670  139.1360 N   0  0  0  0  0  0  0  0  0  0  0  0
  192.2840  177.5180  140.2200 N   0  0  0  0  0  0  0  0  0  0  0  0
  186.4260  179.7510  142.1460 C   0  0  0  0  0  2  0  0  0  0  0  0
  183.2260  178.6110  143.6980 N   0  0  0  0  0  0  0  0  0  0  0  0
  187.0340  178.3740  142.0160 C   0  0  0  0  0  0  0  0  0  0  0  0
  184.6060  178.7120  143.3530 C   0  0  0  0  0  0  0  0  0  0  0  0
  186.6270  177.4080  142.8520 C   0  0  0  0  0  3  0  0  0  0  0  0
  185.0160  179.6400  142.5370 N   0  0  0  0  0  0  0  0  0  0  0  0
  185.5880  177.7040  143.9190 C   0  0  1  0  0  3  0  0  0  0  0  0
  186.2190  178.2480  145.1350 N   0  0  0  0  0  0  0  0  0  0  0  0
  187.9750  177.9010  146.8500 C   0  0  0  0  0  2  0  0  0  0  0  0
  187.3420  177.3920  145.5460 C   0  0  0  0  0  2  0  0  0  0  0  0
  185.2330  178.2200  146.2240 C   0  0  0  0  0  2  0  0  0  0  0  0
  185.8440  178.7410  147.5340 C   0  0  0  0  0  2  0  0  0  0  0  0
  187.2620  179.0660  147.3770 N   0  0  0  0  0  2  0  0  0  0  0  0
  182.2820  179.5210  143.2070 N   0  0  0  0  0  0  0  0  0  0  0  0
  180.8860  179.2710  143.3530 C   0  0  0  0  0  0  0  0  0  0  0  0
  180.4810  178.2150  143.9060 O   0  0  0  0  0  0  0  0  0  0  0  0
  179.9060  180.2630  142.8450 C   0  0  0  0  0  1  0  0  0  0  0  0
  185.4310  178.6760  138.7690 C   0  0  0  0  0  3  0  0  0  0  0  0
  186.6070  178.9440  139.2600 N   0  0  0  0  0  0  0  0  0  0  0  0
  184.8640  176.9290  134.7180 C   0  0  0  0  0  3  0  0  0  0  0  0
  182.6690  176.6330  135.7360 C   0  0  0  0  0  3  0  0  0  0  0  0
  183.4870  176.6630  134.5940 C   0  0  0  0  0  3  0  0  0  0  0  0
  183.2560  176.8870  136.9780 C   0  0  0  0  0  0  0  0  0  0  0  0
  185.4240  177.1600  135.9840 C   0  0  0  0  0  3  0  0  0  0  0  0
  184.9160  177.2960  138.5200 C   0  0  1  0  0  3  0  0  0  0  0  0
  183.7190  177.0930  139.2570 O   0  0  0  0  0  0  0  0  0  0  0  0
  182.6530  176.8770  138.3300 C   0  0  1  0  0  3  0  0  0  0  0  0
  184.5760  177.1320  137.0950 C   0  0  0  0  0  0  0  0  0  0  0  0
  181.4740  178.3210  139.8550 O   0  0  0  0  0  1  0  0  0  0  0  0
  181.5470  177.9410  138.5130 C   0  0  2  0  0  0  0  0  0  0  0  0
  180.1990  177.3600  138.1110 C   0  0  0  0  0  1  0  0  0  0  0  0
  181.9240  180.4610  138.5050 C   0  0  0  0  0  1  0  0  0  0  0  0
  181.8240  179.1900  137.6680 C   0  0  0  0  0  2  0  0  0  0  0  0
  189.6840  175.9540  137.2760 C   0  0  0  0  0  2  0  0  0  0  0  0
  188.5290  175.4130  136.5080 C   0  0  0  0  0  3  0  0  0  0  0  0
  187.9770  174.3130  136.8680 N   0  0  0  0  0  0  0  0  0  0  0  0
  185.7670  173.3500  137.0850 C   0  0  0  0  0  1  0  0  0  0  0  0
  186.8690  173.7740  136.1290 C   0  0  0  0  0  2  0  0  0  0  0  0
  1  5  1  0  0  0  0
  1  2  2  0  0  0  0
  2  7  1  0  0  0  0
  4  3  1  0  0  0  0
  4  6  1  6  0  0  0
  5 44  1  6  0  0  0
  5  8  1  0  0  0  0
  7  6  1  0  0  0  0
  7 13  1  1  0  0  0
  8  4  1  0  0  0  0
  9  8  2  0  0  0  0
  9 10  1  0  0  0  0
 10  3  2  0  0  0  0
 11 16  1  0  0  0  0
 13 11  1  0  0  0  0
 13 15  2  0  0  0  0
 14 12  1  0  0  0  0
 14 17  1  0  0  0  0
 16 14  2  0  0  0  0
 17 15  1  6  0  0  0
 17 18  1  0  0  0  0
 18 20  1  0  0  0  0
 18 21  1  0  0  0  0
 19 23  1  0  0  0  0
 20 19  1  0  0  0  0
 21 22  1  0  0  0  0
 23 22  1  0  0  0  0
 24 25  1  0  0  0  0
 24 12  2  0  0  0  0
 25 26  2  0  0  0  0
 27 25  1  0  0  0  0
 28 29  2  0  0  0  0
 29  2  1  0  0  0  0
 30 34  1  0  0  0  0
 31 33  2  0  0  0  0
 32 30  2  0  0  0  0
 32 31  1  0  0  0  0
 33 38  1  0  0  0  0
 33 37  1  0  0  0  0
 34 38  2  0  0  0  0
 35 28  1  6  0  0  0
 35 36  1  0  0  0  0
 37 40  1  6  0  0  0
 37 36  1  0  0  0  0
 38 35  1  0  0  0  0
 40 41  1  6  0  0  0
 40 39  1  0  0  0  0
 43 42  1  0  0  0  0
 43 40  1  0  0  0  0
 45 46  2  0  0  0  0
 45 44  1  0  0  0  0
 48 46  1  0  0  0  0
 48 47  1  0  0  0  0
M  END
>  <MODEL>
6

>  <REMARK>
 VINA RESULT:      -8.0      2.642      7.304
  Name = 
  10 active torsions:
  status: ('A' for Active; 'I' for Inactive)
    1  A    between atoms: N_1  and  N_9
    2  A    between atoms: C_3  and  C_43
    3  A    between atoms: N_7  and  C_47
    4  A    between atoms: N_16  and  C_25
    5  A    between atoms: C_18  and  C_34
    6  A    between atoms: C_18  and  C_38
    7  A    between atoms: C_20  and  N_42
    8  A    between atoms: C_23  and  C_32
    9  A    between atoms: C_27  and  C_31
   10  A    between atoms: C_29  and  C_43
                            x       y       z     vdW  Elec       q    Type
                         _______ _______ _______ _____ _____    ______ ____

>  <TORSDO>
F 10

$$$$
=
 OpenBabel11062412063D

 48 53  0  0  1  0  0  0  0  0999 V2000
  183.2530  177.8840  138.8600 N   0  0  0  0  0  0  0  0  0  0  0  0
  184.5440  178.0820  138.7430 C   0  0  0  0  0  0  0  0  0  0  0  0
  183.5360  177.5720  134.6760 N   0  0  0  0  0  0  0  0  0  0  0  0
  183.6400  177.0820  135.9220 C   0  0  1  0  0  3  0  0  0  0  0  0
  182.3150  177.1020  138.0470 C   0  0  2  0  0  3  0  0  0  0  0  0
  184.8720  176.6030  136.5890 C   0  0  0  0  0  2  0  0  0  0  0  0
  185.3840  177.6960  137.5210 C   0  0  2  0  0  3  0  0  0  0  0  0
  182.4970  177.3620  136.5890 C   0  0  0  0  0  0  0  0  0  0  0  0
  181.6680  178.0040  135.7460 N   0  0  0  0  0  0  0  0  0  0  0  0
  182.3220  178.1050  134.5940 N   0  0  0  0  0  0  0  0  0  0  0  0
  187.4300  176.0580  137.6950 C   0  0  0  0  0  2  0  0  0  0  0  0
  190.9730  177.2380  137.7830 N   0  0  0  0  0  2  0  0  0  0  0  0
  186.8090  177.4200  137.8990 C   0  0  0  0  0  0  0  0  0  0  0  0
  189.5790  177.1090  138.0560 C   0  0  0  0  0  0  0  0  0  0  0  0
  187.5210  178.3670  138.5250 C   0  0  0  0  0  3  0  0  0  0  0  0
  188.8710  176.1980  137.4510 N   0  0  0  0  0  0  0  0  0  0  0  0
  188.9210  178.0650  139.0320 C   0  0  1  0  0  3  0  0  0  0  0  0
  188.8770  177.4590  140.3750 N   0  0  0  0  0  0  0  0  0  0  0  0
  188.5010  177.8770  142.7890 C   0  0  0  0  0  2  0  0  0  0  0  0
  188.4890  178.4680  141.3710 C   0  0  0  0  0  2  0  0  0  0  0  0
  190.2290  177.0030  140.7250 C   0  0  0  0  0  2  0  0  0  0  0  0
  190.2570  176.3930  142.1350 C   0  0  0  0  0  2  0  0  0  0  0  0
  188.9510  176.4840  142.7890 N   0  0  0  0  0  2  0  0  0  0  0  0
  191.6270  176.3760  136.8960 N   0  0  0  0  0  2  0  0  0  0  0  0
  192.9840  176.0000  137.1150 C   0  0  0  0  0  0  0  0  0  0  0  0
  193.6230  176.4560  138.0980 O   0  0  0  0  0  0  0  0  0  0  0  0
  193.6480  175.0650  136.1720 C   0  0  0  0  0  1  0  0  0  0  0  0
  185.0620  178.8770  141.0110 C   0  0  0  0  0  3  0  0  0  0  0  0
  185.2020  178.9080  139.7170 N   0  0  0  0  0  0  0  0  0  0  0  0
  180.7610  179.5720  141.9080 C   0  0  0  0  0  3  0  0  0  0  0  0
  181.6880  179.0740  144.1070 C   0  0  0  0  0  3  0  0  0  0  0  0
  180.6490  179.5880  143.3110 C   0  0  0  0  0  3  0  0  0  0  0  0
  182.8240  178.5700  143.4680 C   0  0  0  0  0  0  0  0  0  0  0  0
  181.9080  179.0400  141.3000 C   0  0  0  0  0  3  0  0  0  0  0  0
  184.1940  177.9050  141.7420 C   0  0  1  0  0  3  0  0  0  0  0  0
  184.8330  177.5030  142.9440 O   0  0  0  0  0  0  0  0  0  0  0  0
  184.0310  177.9370  144.0450 C   0  0  1  0  0  3  0  0  0  0  0  0
  182.9240  178.5480  142.1240 C   0  0  0  0  0  0  0  0  0  0  0  0
  184.1870  179.0060  146.1970 O   0  0  0  0  0  1  0  0  0  0  0  0
  184.8350  178.8830  144.9660 C   0  0  2  0  0  0  0  0  0  0  0  0
  184.9210  180.2660  144.3370 C   0  0  0  0  0  1  0  0  0  0  0  0
  186.6080  178.2820  146.6930 C   0  0  0  0  0  1  0  0  0  0  0  0
  186.2530  178.3570  145.2120 C   0  0  0  0  0  2  0  0  0  0  0  0
  180.8950  177.3820  138.5060 C   0  0  0  0  0  2  0  0  0  0  0  0
  180.0750  176.1400  138.4520 C   0  0  0  0  0  3  0  0  0  0  0  0
  180.6300  175.0160  138.1840 N   0  0  0  0  0  0  0  0  0  0  0  0
  180.7100  172.6640  137.6160 C   0  0  0  0  0  1  0  0  0  0  0  0
  179.8490  173.8120  138.1170 C   0  0  0  0  0  2  0  0  0  0  0  0
  2  1  2  0  0  0  0
  2 29  1  0  0  0  0
  3  4  1  0  0  0  0
  4  6  1  1  0  0  0
  4  8  1  0  0  0  0
  5 44  1  1  0  0  0
  5  1  1  0  0  0  0
  6  7  1  0  0  0  0
  7 13  1  1  0  0  0
  7  2  1  0  0  0  0
  8  5  1  0  0  0  0
  9  8  2  0  0  0  0
 10  3  2  0  0  0  0
 10  9  1  0  0  0  0
 11 13  1  0  0  0  0
 12 14  1  0  0  0  0
 13 15  2  0  0  0  0
 14 17  1  0  0  0  0
 16 11  1  0  0  0  0
 16 14  2  0  0  0  0
 17 15  1  6  0  0  0
 17 18  1  0  0  0  0
 18 21  1  0  0  0  0
 18 20  1  0  0  0  0
 20 19  1  0  0  0  0
 21 22  1  0  0  0  0
 22 23  1  0  0  0  0
 23 19  1  0  0  0  0
 24 25  1  0  0  0  0
 24 12  1  0  0  0  0
 25 26  2  0  0  0  0
 27 25  1  0  0  0  0
 29 28  2  0  0  0  0
 30 32  1  0  0  0  0
 32 31  2  0  0  0  0
 33 37  1  0  0  0  0
 33 31  1  0  0  0  0
 34 30  2  0  0  0  0
 34 38  1  0  0  0  0
 35 28  1  1  0  0  0
 35 38  1  0  0  0  0
 35 36  1  0  0  0  0
 36 37  1  0  0  0  0
 37 40  1  6  0  0  0
 38 33  2  0  0  0  0
 40 41  1  6  0  0  0
 40 43  1  0  0  0  0
 40 39  1  0  0  0  0
 43 42  1  0  0  0  0
 45 44  1  0  0  0  0
 46 45  2  0  0  0  0
 47 48  1  0  0  0  0
 48 46  1  0  0  0  0
M  END
>  <MODEL>
7

>  <REMARK>
 VINA RESULT:      -7.5      2.896      9.508
  Name = 
  10 active torsions:
  status: ('A' for Active; 'I' for Inactive)
    1  A    between atoms: N_1  and  N_9
    2  A    between atoms: C_3  and  C_43
    3  A    between atoms: N_7  and  C_47
    4  A    between atoms: N_16  and  C_25
    5  A    between atoms: C_18  and  C_34
    6  A    between atoms: C_18  and  C_38
    7  A    between atoms: C_20  and  N_42
    8  A    between atoms: C_23  and  C_32
    9  A    between atoms: C_27  and  C_31
   10  A    between atoms: C_29  and  C_43
                            x       y       z     vdW  Elec       q    Type
                         _______ _______ _______ _____ _____    ______ ____

>  <TORSDO>
F 10

$$$$
=
 OpenBabel11062412063D

 48 53  0  0  1  0  0  0  0  0999 V2000
  188.9790  176.9600  137.0470 N   0  0  0  0  0  0  0  0  0  0  0  0
  188.8410  177.5060  138.2310 C   0  0  0  0  0  0  0  0  0  0  0  0
  192.9090  176.3970  138.4350 N   0  0  0  0  0  0  0  0  0  0  0  0
  191.6110  176.0610  138.3470 C   0  0  1  0  0  3  0  0  0  0  0  0
  189.8520  175.8800  136.5740 C   0  0  2  0  0  3  0  0  0  0  0  0
  190.6300  176.0080  139.4530 C   0  0  0  0  0  2  0  0  0  0  0  0
  189.7810  177.2750  139.4200 C   0  0  2  0  0  3  0  0  0  0  0  0
  191.2580  176.0590  137.0420 C   0  0  0  0  0  0  0  0  0  0  0  0
  192.3460  176.3670  136.3130 N   0  0  0  0  0  0  0  0  0  0  0  0
  193.3300  176.5540  137.1860 N   0  0  0  0  0  0  0  0  0  0  0  0
  188.4610  178.7720  141.1280 C   0  0  0  0  0  2  0  0  0  0  0  0
  186.1030  177.3640  143.6600 N   0  0  0  0  0  2  0  0  0  0  0  0
  189.0650  177.4470  140.7270 C   0  0  0  0  0  0  0  0  0  0  0  0
  187.2600  177.5740  142.8520 C   0  0  0  0  0  0  0  0  0  0  0  0
  189.0450  176.4350  141.6060 C   0  0  0  0  0  3  0  0  0  0  0  0
  187.2930  178.5480  141.9880 N   0  0  0  0  0  0  0  0  0  0  0  0
  188.4390  176.6300  142.9850 C   0  0  1  0  0  3  0  0  0  0  0  0
  189.4280  177.1910  143.9220 N   0  0  0  0  0  0  0  0  0  0  0  0
  191.6680  176.8950  144.9430 C   0  0  0  0  0  2  0  0  0  0  0  0
  190.6460  176.3680  143.9230 C   0  0  0  0  0  2  0  0  0  0  0  0
  188.8680  177.1370  145.2790 C   0  0  0  0  0  2  0  0  0  0  0  0
  189.8710  177.6760  146.3110 C   0  0  0  0  0  2  0  0  0  0  0  0
  191.1440  178.0400  145.6890 N   0  0  0  0  0  2  0  0  0  0  0  0
  184.9920  178.2120  143.5790 N   0  0  0  0  0  2  0  0  0  0  0  0
  184.4220  178.7780  144.7560 C   0  0  0  0  0  0  0  0  0  0  0  0
  184.8950  178.5050  145.8900 O   0  0  0  0  0  0  0  0  0  0  0  0
  183.2590  179.6930  144.6420 C   0  0  0  0  0  1  0  0  0  0  0  0
  186.5830  178.4630  138.4020 C   0  0  0  0  0  3  0  0  0  0  0  0
  187.8810  178.5620  138.3910 N   0  0  0  0  0  0  0  0  0  0  0  0
  184.9370  176.8580  134.5940 C   0  0  0  0  0  3  0  0  0  0  0  0
  182.9850  176.8680  136.0540 C   0  0  0  0  0  3  0  0  0  0  0  0
  183.5410  176.7930  134.7650 C   0  0  0  0  0  3  0  0  0  0  0  0
  183.8490  177.0220  137.1400 C   0  0  0  0  0  0  0  0  0  0  0  0
  185.7770  176.9930  135.7100 C   0  0  0  0  0  3  0  0  0  0  0  0
  185.8360  177.1730  138.2930 C   0  0  1  0  0  3  0  0  0  0  0  0
  184.8040  177.1350  139.2680 O   0  0  0  0  0  0  0  0  0  0  0  0
  183.5480  177.0830  138.5890 C   0  0  1  0  0  3  0  0  0  0  0  0
  185.1860  177.0740  136.9740 C   0  0  0  0  0  0  0  0  0  0  0  0
  183.0970  179.4300  138.2900 O   0  0  0  0  0  1  0  0  0  0  0  0
  182.6670  178.2930  138.9770 C   0  0  2  0  0  0  0  0  0  0  0  0
  182.7950  178.5660  140.4700 C   0  0  0  0  0  1  0  0  0  0  0  0
  180.4700  177.2270  139.7010 C   0  0  0  0  0  1  0  0  0  0  0  0
  181.1930  178.0470  138.6380 C   0  0  0  0  0  2  0  0  0  0  0  0
  189.7590  175.7820  135.0610 C   0  0  0  0  0  2  0  0  0  0  0  0
  189.3830  174.4010  134.6500 C   0  0  0  0  0  3  0  0  0  0  0  0
  189.2000  173.4950  135.5390 N   0  0  0  0  0  0  0  0  0  0  0  0
  187.6890  171.6620  136.0040 C   0  0  0  0  0  1  0  0  0  0  0  0
  188.8490  172.1560  135.1550 C   0  0  0  0  0  2  0  0  0  0  0  0
  1  2  2  0  0  0  0
  2 29  1  0  0  0  0
  2  7  1  0  0  0  0
  4  3  1  0  0  0  0
  4  6  1  1  0  0  0
  5 44  1  6  0  0  0
  5  8  1  0  0  0  0
  5  1  1  0  0  0  0
  7  6  1  0  0  0  0
  7 13  1  1  0  0  0
  8  4  1  0  0  0  0
  9  8  2  0  0  0  0
  9 10  1  0  0  0  0
 10  3  2  0  0  0  0
 11 16  1  0  0  0  0
 13 11  1  0  0  0  0
 13 15  2  0  0  0  0
 14 17  1  0  0  0  0
 14 12  1  0  0  0  0
 16 14  2  0  0  0  0
 17 15  1  6  0  0  0
 17 18  1  0  0  0  0
 18 20  1  0  0  0  0
 18 21  1  0  0  0  0
 19 23  1  0  0  0  0
 20 19  1  0  0  0  0
 21 22  1  0  0  0  0
 23 22  1  0  0  0  0
 24 12  1  0  0  0  0
 24 25  1  0  0  0  0
 25 26  2  0  0  0  0
 27 25  1  0  0  0  0
 29 28  2  0  0  0  0
 30 32  2  0  0  0  0
 30 34  1  0  0  0  0
 31 33  2  0  0  0  0
 32 31  1  0  0  0  0
 33 37  1  0  0  0  0
 34 38  2  0  0  0  0
 35 28  1  6  0  0  0
 35 36  1  0  0  0  0
 37 40  1  6  0  0  0
 37 36  1  0  0  0  0
 38 33  1  0  0  0  0
 38 35  1  0  0  0  0
 39 40  1  0  0  0  0
 40 41  1  1  0  0  0
 43 40  1  0  0  0  0
 43 42  1  0  0  0  0
 45 44  1  0  0  0  0
 45 46  2  0  0  0  0
 48 46  1  0  0  0  0
 48 47  1  0  0  0  0
M  END
>  <MODEL>
8

>  <REMARK>
 VINA RESULT:      -7.2      2.999      8.417
  Name = 
  10 active torsions:
  status: ('A' for Active; 'I' for Inactive)
    1  A    between atoms: N_1  and  N_9
    2  A    between atoms: C_3  and  C_43
    3  A    between atoms: N_7  and  C_47
    4  A    between atoms: N_16  and  C_25
    5  A    between atoms: C_18  and  C_34
    6  A    between atoms: C_18  and  C_38
    7  A    between atoms: C_20  and  N_42
    8  A    between atoms: C_23  and  C_32
    9  A    between atoms: C_27  and  C_31
   10  A    between atoms: C_29  and  C_43
                            x       y       z     vdW  Elec       q    Type
                         _______ _______ _______ _____ _____    ______ ____

>  <TORSDO>
F 10

$$$$
=
 OpenBabel11062412063D

 48 53  0  0  1  0  0  0  0  0999 V2000
  186.0880  177.6530  137.0160 N   0  0  0  0  0  0  0  0  0  0  0  0
  186.5380  178.0770  138.1720 C   0  0  0  0  0  0  0  0  0  0  0  0
  190.1960  177.1030  136.3040 N   0  0  0  0  0  0  0  0  0  0  0  0
  189.0080  176.7300  136.8090 C   0  0  1  0  0  3  0  0  0  0  0  0
  186.6150  176.6560  136.0780 C   0  0  2  0  0  3  0  0  0  0  0  0
  188.6720  176.5350  138.2370 C   0  0  0  0  0  2  0  0  0  0  0  0
  187.9270  177.7670  138.7410 C   0  0  2  0  0  3  0  0  0  0  0  0
  188.0760  176.8410  135.8360 C   0  0  0  0  0  0  0  0  0  0  0  0
  188.6890  177.2580  134.7140 N   0  0  0  0  0  0  0  0  0  0  0  0
  189.9740  177.3950  135.0280 N   0  0  0  0  0  0  0  0  0  0  0  0
  187.4090  178.9770  141.0140 C   0  0  0  0  0  2  0  0  0  0  0  0
  186.8140  177.1290  144.2060 N   0  0  0  0  0  2  0  0  0  0  0  0
  187.9230  177.7860  140.2410 C   0  0  0  0  0  0  0  0  0  0  0  0
  187.3860  177.5540  142.9700 C   0  0  0  0  0  0  0  0  0  0  0  0
  188.4800  176.7690  140.9150 C   0  0  0  0  0  3  0  0  0  0  0  0
  186.8540  178.5350  142.2990 N   0  0  0  0  0  0  0  0  0  0  0  0
  188.6020  176.8280  142.4270 C   0  0  1  0  0  3  0  0  0  0  0  0
  189.8300  177.5370  142.8310 N   0  0  0  0  0  0  0  0  0  0  0  0
  192.2630  177.7920  142.4270 C   0  0  0  0  0  2  0  0  0  0  0  0
  190.9560  177.1170  141.9830 C   0  0  0  0  0  2  0  0  0  0  0  0
  190.1600  177.1500  144.2090 C   0  0  0  0  0  2  0  0  0  0  0  0
  191.4570  177.8290  144.6760 C   0  0  0  0  0  2  0  0  0  0  0  0
  192.0630  178.6280  143.6110 N   0  0  0  0  0  2  0  0  0  0  0  0
  185.6960  177.7710  144.7510 N   0  0  0  0  0  2  0  0  0  0  0  0
  185.7190  178.2600  146.0900 C   0  0  0  0  0  0  0  0  0  0  0  0
  186.7390  178.1020  146.8100 O   0  0  0  0  0  0  0  0  0  0  0  0
  184.5290  178.9580  146.6370 C   0  0  0  0  0  1  0  0  0  0  0  0
  184.6030  178.9550  139.4070 C   0  0  0  0  0  3  0  0  0  0  0  0
  185.7850  179.0770  138.8760 N   0  0  0  0  0  0  0  0  0  0  0  0
  181.4660  177.9590  136.4140 C   0  0  0  0  0  3  0  0  0  0  0  0
  180.2820  177.7030  138.5300 C   0  0  0  0  0  3  0  0  0  0  0  0
  180.2600  177.8450  137.1320 C   0  0  0  0  0  3  0  0  0  0  0  0
  181.5210  177.6930  139.1750 C   0  0  0  0  0  0  0  0  0  0  0  0
  182.6940  177.9260  137.0940 C   0  0  0  0  0  3  0  0  0  0  0  0
  183.8110  177.6880  139.4180 C   0  0  1  0  0  3  0  0  0  0  0  0
  183.2650  177.4780  140.7120 O   0  0  0  0  0  0  0  0  0  0  0  0
  181.8400  177.5160  140.6100 C   0  0  1  0  0  3  0  0  0  0  0  0
  182.6750  177.7930  138.4850 C   0  0  0  0  0  0  0  0  0  0  0  0
  181.0310  179.7800  140.7430 O   0  0  0  0  0  1  0  0  0  0  0  0
  181.2590  178.6330  141.5060 C   0  0  2  0  0  0  0  0  0  0  0  0
  182.2530  178.9850  142.6040 C   0  0  0  0  0  1  0  0  0  0  0  0
  180.0600  177.9490  143.6470 C   0  0  0  0  0  1  0  0  0  0  0  0
  179.9350  178.2050  142.1490 C   0  0  0  0  0  2  0  0  0  0  0  0
  185.8100  176.7020  134.7900 C   0  0  0  0  0  2  0  0  0  0  0  0
  184.4890  176.0410  134.9780 C   0  0  0  0  0  3  0  0  0  0  0  0
  184.4070  174.9460  135.6390 N   0  0  0  0  0  0  0  0  0  0  0  0
  182.8170  174.1860  137.2990 C   0  0  0  0  0  1  0  0  0  0  0  0
  183.1410  174.2930  135.8180 C   0  0  0  0  0  2  0  0  0  0  0  0
  1  2  2  0  0  0  0
  2  7  1  0  0  0  0
  2 29  1  0  0  0  0
  3  4  1  0  0  0  0
  4  6  1  1  0  0  0
  5 44  1  6  0  0  0
  5  1  1  0  0  0  0
  6  7  1  0  0  0  0
  7 13  1  1  0  0  0
  8  5  1  0  0  0  0
  8  4  1  0  0  0  0
  9 10  1  0  0  0  0
  9  8  2  0  0  0  0
 10  3  2  0  0  0  0
 11 16  1  0  0  0  0
 12 24  1  0  0  0  0
 13 15  2  0  0  0  0
 13 11  1  0  0  0  0
 14 12  1  0  0  0  0
 16 14  2  0  0  0  0
 17 15  1  6  0  0  0
 17 18  1  0  0  0  0
 17 14  1  0  0  0  0
 18 21  1  0  0  0  0
 19 23  1  0  0  0  0
 20 19  1  0  0  0  0
 20 18  1  0  0  0  0
 21 22  1  0  0  0  0
 23 22  1  0  0  0  0
 24 25  1  0  0  0  0
 25 27  1  0  0  0  0
 25 26  2  0  0  0  0
 29 28  2  0  0  0  0
 30 34  2  0  0  0  0
 30 32  1  0  0  0  0
 31 33  1  0  0  0  0
 32 31  2  0  0  0  0
 33 37  1  0  0  0  0
 34 38  1  0  0  0  0
 35 28  1  1  0  0  0
 35 36  1  0  0  0  0
 37 36  1  0  0  0  0
 37 40  1  1  0  0  0
 38 33  2  0  0  0  0
 38 35  1  0  0  0  0
 39 40  1  0  0  0  0
 40 43  1  0  0  0  0
 40 41  1  1  0  0  0
 43 42  1  0  0  0  0
 44 45  1  0  0  0  0
 45 46  2  0  0  0  0
 46 48  1  0  0  0  0
 48 47  1  0  0  0  0
M  END
>  <MODEL>
9

>  <REMARK>
 VINA RESULT:      -7.2      2.861      9.460
  Name = 
  10 active torsions:
  status: ('A' for Active; 'I' for Inactive)
    1  A    between atoms: N_1  and  N_9
    2  A    between atoms: C_3  and  C_43
    3  A    between atoms: N_7  and  C_47
    4  A    between atoms: N_16  and  C_25
    5  A    between atoms: C_18  and  C_34
    6  A    between atoms: C_18  and  C_38
    7  A    between atoms: C_20  and  N_42
    8  A    between atoms: C_23  and  C_32
    9  A    between atoms: C_27  and  C_31
   10  A    between atoms: C_29  and  C_43
                            x       y       z     vdW  Elec       q    Type
                         _______ _______ _______ _____ _____    ______ ____

>  <TORSDO>
F 10

$$$$
