=
 OpenBabel11062412373D

 51 56  0  0  1  0  0  0  0  0999 V2000
  184.7530  178.2400  143.4260 C   0  0  0  0  0  0  0  0  0  0  0  0
  183.8220  178.1700  141.2070 C   0  0  0  0  0  0  0  0  0  0  0  0
  183.7850  177.9470  139.8090 N   0  0  0  0  0  0  0  0  0  0  0  0
  181.1760  179.3580  143.5220 N   0  0  0  0  0  1  0  0  0  0  0  0
  182.5810  178.2620  139.4310 C   0  0  0  0  0  0  0  0  0  0  0  0
  183.5100  178.7000  143.9090 C   0  0  0  0  0  3  0  0  0  0  0  0
  181.6760  178.7360  140.5390 C   0  0  0  0  0  2  0  0  0  0  0  0
  182.4280  178.8890  143.0340 C   0  0  0  0  0  0  0  0  0  0  0  0
  182.6190  178.6180  141.6800 C   0  0  0  0  0  0  0  0  0  0  0  0
  184.9170  177.9840  142.0460 C   0  0  0  0  0  3  0  0  0  0  0  0
  188.4250  177.7100  144.4780 C   0  0  1  0  0  3  0  0  0  0  0  0
  189.5190  177.5770  147.9720 N   0  0  0  0  0  2  0  0  0  0  0  0
  188.1210  177.3870  148.0550 C   0  0  0  0  0  0  0  0  0  0  0  0
  189.8520  177.9230  146.6010 C   0  0  0  0  0  2  0  0  0  0  0  0
  185.8920  178.1010  144.3920 C   0  0  2  0  0  3  0  0  0  0  0  0
  187.4310  177.6000  146.7670 C   0  0  2  0  0  3  0  0  0  0  0  0
  187.5490  177.0080  149.1090 O   0  0  0  0  0  0  0  0  0  0  0  0
  188.5180  178.2460  145.9090 C   0  0  2  0  0  3  0  0  0  0  0  0
  186.2020  178.4990  146.9010 C   0  0  0  0  0  2  0  0  0  0  0  0
  185.6990  179.0630  145.5660 C   0  0  0  0  0  2  0  0  0  0  0  0
  187.2540  178.3570  143.7300 C   0  0  0  0  0  2  0  0  0  0  0  0
  189.6190  177.9880  143.7830 O   0  0  0  0  0  0  0  0  0  0  0  0
  191.3010  176.2040  143.5970 C   0  0  0  0  0  1  0  0  0  0  0  0
  190.0400  176.8600  143.0310 C   0  0  0  0  0  0  0  0  0  0  0  0
  188.9340  175.8150  142.9540 C   0  0  0  0  0  1  0  0  0  0  0  0
  190.3210  177.3100  141.5990 C   0  0  0  0  0  2  0  0  0  0  0  0
  189.1650  177.0330  140.6360 C   0  0  0  0  0  2  0  0  0  0  0  0
  188.4620  178.3150  140.2180 C   0  0  0  0  0  2  0  0  0  0  0  0
  187.6900  178.0960  138.9290 C   0  0  0  0  0  2  0  0  0  0  0  0
  188.3570  177.0070  138.1180 C   0  0  0  0  0  2  0  0  0  0  0  0
  187.3140  176.2850  137.2940 C   0  0  0  0  0  1  0  0  0  0  0  0
  182.1600  178.1700  138.1050 O   0  0  0  0  0  0  0  0  0  0  0  0
  181.7570  174.1020  137.0750 C   0  0  2  0  0  3  0  0  0  0  0  0
  180.7990  177.4670  136.2000 C   0  0  1  0  0  3  0  0  0  0  0  0
  181.0220  176.1300  138.2410 O   0  0  0  0  0  0  0  0  0  0  0  0
  180.9900  177.4480  137.7280 C   0  0  1  0  0  3  0  0  0  0  0  0
  180.8810  176.0650  135.5990 C   0  0  0  0  0  2  0  0  0  0  0  0
  182.1400  175.4450  137.7060 C   0  0  2  0  0  3  0  0  0  0  0  0
  182.0820  175.3040  136.1780 C   0  0  1  0  0  3  0  0  0  0  0  0
  179.6930  173.4180  138.3970 N   0  0  0  0  0  1  0  0  0  0  0  0
  180.2970  173.7290  137.1460 C   0  0  0  0  0  0  0  0  0  0  0  0
  179.6310  173.5950  136.0860 O   0  0  0  0  0  0  0  0  0  0  0  0
  179.5080  178.1720  135.7970 C   0  0  0  0  0  2  0  0  0  0  0  0
  179.6950  179.0840  134.5940 C   0  0  0  0  0  2  0  0  0  0  0  0
  179.5920  180.5290  135.0460 C   0  0  0  0  0  2  0  0  0  0  0  0
  180.6750  180.8540  136.0630 C   0  0  0  0  0  2  0  0  0  0  0  0
  180.3010  182.0650  136.8980 C   0  0  0  0  0  2  0  0  0  0  0  0
  180.7760  183.2810  136.2640 N   0  0  0  0  0  2  0  0  0  0  0  0
  179.7220  185.5170  137.2060 S   0  0  0  0  0  0  0  0  0  0  0  0
  180.9710  184.4900  136.9990 C   0  0  0  0  0  0  0  0  0  0  0  0
  182.2350  184.7950  137.5770 N   0  0  0  0  0  1  0  0  0  0  0  0
  1  6  1  0  0  0  0
  2  9  2  0  0  0  0
  2 10  1  0  0  0  0
  3  2  1  0  0  0  0
  5  3  2  0  0  0  0
  5  7  1  0  0  0  0
  7  9  1  0  0  0  0
  8  4  1  0  0  0  0
  8  6  2  0  0  0  0
  9  8  1  0  0  0  0
 10  1  2  0  0  0  0
 11 22  1  6  0  0  0
 11 18  1  0  0  0  0
 12 13  1  0  0  0  0
 13 17  2  0  0  0  0
 14 12  1  0  0  0  0
 15  1  1  6  0  0  0
 15 20  1  0  0  0  0
 16 19  1  1  0  0  0
 16 13  1  0  0  0  0
 18 14  1  1  0  0  0
 18 16  1  0  0  0  0
 20 19  1  0  0  0  0
 21 15  1  0  0  0  0
 21 11  1  0  0  0  0
 24 23  1  0  0  0  0
 24 22  1  0  0  0  0
 25 24  1  0  0  0  0
 26 24  1  0  0  0  0
 27 26  1  0  0  0  0
 28 27  1  0  0  0  0
 29 28  1  0  0  0  0
 30 29  1  0  0  0  0
 31 30  1  0  0  0  0
 32  5  1  0  0  0  0
 33 41  1  1  0  0  0
 33 38  1  0  0  0  0
 34 43  1  1  0  0  0
 34 36  1  0  0  0  0
 36 32  1  6  0  0  0
 36 35  1  0  0  0  0
 37 34  1  0  0  0  0
 38 35  1  1  0  0  0
 39 37  1  1  0  0  0
 39 33  1  0  0  0  0
 39 38  1  0  0  0  0
 41 40  1  0  0  0  0
 42 41  2  0  0  0  0
 44 45  1  0  0  0  0
 44 43  1  0  0  0  0
 45 46  1  0  0  0  0
 46 47  1  0  0  0  0
 48 47  1  0  0  0  0
 48 50  1  0  0  0  0
 50 49  2  0  0  0  0
 50 51  1  0  0  0  0
M  END
>  <MODEL>
1

>  <REMARK>
 VINA RESULT:      -7.4      0.000      0.000
  Name = 
  18 active torsions:
  status: ('A' for Active; 'I' for Inactive)
    1  A    between atoms: C_1  and  N_5
    2  A    between atoms: C_1  and  C_23
    3  A    between atoms: C_2  and  C_25
    4  A    between atoms: C_4  and  C_24
    5  A    between atoms: N_5  and  C_14
    6  A    between atoms: C_8  and  C_20
    7  A    between atoms: C_8  and  C_39
    8  A    between atoms: C_9  and  O_15
    9  A    between atoms: C_10  and  C_36
   10  A    between atoms: O_13  and  C_18
   11  A    between atoms: O_13  and  C_32
   12  A    between atoms: O_15  and  C_21
   13  A    between atoms: C_21  and  C_28
   14  A    between atoms: C_23  and  C_49
   15  A    between atoms: C_28  and  C_33
   16  A    between atoms: C_33  and  C_42
   17  A    between atoms: C_36  and  C_42
   18  A    between atoms: C_39  and  C_49
                            x       y       z     vdW  Elec       q    Type
                         _______ _______ _______ _____ _____    ______ ____

>  <TORSDO>
F 18

$$$$
=
 OpenBabel11062412373D

 51 56  0  0  1  0  0  0  0  0999 V2000
  188.1270  177.9870  141.4230 C   0  0  0  0  0  0  0  0  0  0  0  0
  189.8090  177.3950  139.8060 C   0  0  0  0  0  0  0  0  0  0  0  0
  190.3490  177.0720  138.5380 N   0  0  0  0  0  0  0  0  0  0  0  0
  191.4680  177.7500  143.1060 N   0  0  0  0  0  1  0  0  0  0  0  0
  191.6230  176.8910  138.7300 C   0  0  0  0  0  0  0  0  0  0  0  0
  189.1250  178.0120  142.4200 C   0  0  0  0  0  3  0  0  0  0  0  0
  192.0770  177.0720  140.1560 C   0  0  0  0  0  2  0  0  0  0  0  0
  190.4630  177.7300  142.0990 C   0  0  0  0  0  0  0  0  0  0  0  0
  190.7730  177.4190  140.7750 C   0  0  0  0  0  0  0  0  0  0  0  0
  188.4720  177.6590  140.0940 C   0  0  0  0  0  3  0  0  0  0  0  0
  185.2590  178.8110  143.8660 C   0  0  1  0  0  3  0  0  0  0  0  0
  181.7410  178.9780  142.8570 N   0  0  0  0  0  2  0  0  0  0  0  0
  182.3590  178.2860  141.7920 C   0  0  0  0  0  0  0  0  0  0  0  0
  182.7800  179.4660  143.7480 C   0  0  0  0  0  2  0  0  0  0  0  0
  186.7050  178.2460  141.8250 C   0  0  2  0  0  3  0  0  0  0  0  0
  183.8320  178.2710  141.8880 C   0  0  2  0  0  3  0  0  0  0  0  0
  181.7030  177.6900  140.8990 O   0  0  0  0  0  0  0  0  0  0  0  0
  184.1040  179.2970  142.9860 C   0  0  2  0  0  3  0  0  0  0  0  0
  184.5110  178.6510  140.5720 C   0  0  0  0  0  2  0  0  0  0  0  0
  185.9880  179.0320  140.7250 C   0  0  0  0  0  2  0  0  0  0  0  0
  186.6030  179.0050  143.1560 C   0  0  0  0  0  2  0  0  0  0  0  0
  185.2750  179.5300  145.0780 O   0  0  0  0  0  0  0  0  0  0  0  0
  186.0550  179.3890  147.4060 C   0  0  0  0  0  1  0  0  0  0  0  0
  185.5060  178.6620  146.1770 C   0  0  0  0  0  0  0  0  0  0  0  0
  184.2280  177.9300  146.5690 C   0  0  0  0  0  1  0  0  0  0  0  0
  186.5110  177.5940  145.7490 C   0  0  0  0  0  2  0  0  0  0  0  0
  187.6510  177.3950  146.7490 C   0  0  0  0  0  2  0  0  0  0  0  0
  189.0110  177.4700  146.0740 C   0  0  0  0  0  2  0  0  0  0  0  0
  190.1170  177.2330  147.0870 C   0  0  0  0  0  2  0  0  0  0  0  0
  191.3230  176.6410  146.3920 C   0  0  0  0  0  2  0  0  0  0  0  0
  191.9960  175.6490  147.3140 C   0  0  0  0  0  1  0  0  0  0  0  0
  192.5010  176.5560  137.6990 O   0  0  0  0  0  0  0  0  0  0  0  0
  195.4440  175.0730  135.0700 C   0  0  2  0  0  3  0  0  0  0  0  0
  192.0470  174.6700  136.2120 C   0  0  1  0  0  3  0  0  0  0  0  0
  194.2470  175.0770  137.2110 O   0  0  0  0  0  0  0  0  0  0  0  0
  192.8520  175.2050  137.4110 C   0  0  1  0  0  3  0  0  0  0  0  0
  192.9500  174.3110  135.0340 C   0  0  0  0  0  2  0  0  0  0  0  0
  194.6360  175.8680  136.1030 C   0  0  2  0  0  3  0  0  0  0  0  0
  193.9770  175.4260  134.7880 C   0  0  1  0  0  3  0  0  0  0  0  0
  196.4280  173.2770  136.5800 N   0  0  0  0  0  1  0  0  0  0  0  0
  195.7040  173.6250  135.4050 C   0  0  0  0  0  0  0  0  0  0  0  0
  195.3680  172.7230  134.5940 O   0  0  0  0  0  0  0  0  0  0  0  0
  191.1520  173.4990  136.6060 C   0  0  0  0  0  2  0  0  0  0  0  0
  189.8920  173.4200  135.7570 C   0  0  0  0  0  2  0  0  0  0  0  0
  188.7350  172.9680  136.6270 C   0  0  0  0  0  2  0  0  0  0  0  0
  187.4110  173.4580  136.0620 C   0  0  0  0  0  2  0  0  0  0  0  0
  186.6660  174.3150  137.0690 C   0  0  0  0  0  2  0  0  0  0  0  0
  187.3780  175.5600  137.2950 N   0  0  0  0  0  2  0  0  0  0  0  0
  185.3290  177.2250  137.1160 S   0  0  0  0  0  0  0  0  0  0  0  0
  186.8790  176.8120  136.8230 C   0  0  0  0  0  0  0  0  0  0  0  0
  187.7260  177.7170  136.1240 N   0  0  0  0  0  1  0  0  0  0  0  0
  1  6  1  0  0  0  0
  2 10  1  0  0  0  0
  2  9  2  0  0  0  0
  3  5  2  0  0  0  0
  3  2  1  0  0  0  0
  5  7  1  0  0  0  0
  7  9  1  0  0  0  0
  8  6  2  0  0  0  0
  8  4  1  0  0  0  0
  9  8  1  0  0  0  0
 10  1  2  0  0  0  0
 11 22  1  1  0  0  0
 12 14  1  0  0  0  0
 13 16  1  0  0  0  0
 13 12  1  0  0  0  0
 15  1  1  6  0  0  0
 15 21  1  0  0  0  0
 16 19  1  6  0  0  0
 16 18  1  0  0  0  0
 17 13  2  0  0  0  0
 18 14  1  1  0  0  0
 18 11  1  0  0  0  0
 19 20  1  0  0  0  0
 20 15  1  0  0  0  0
 21 11  1  0  0  0  0
 22 24  1  0  0  0  0
 24 25  1  0  0  0  0
 24 23  1  0  0  0  0
 26 24  1  0  0  0  0
 26 27  1  0  0  0  0
 28 27  1  0  0  0  0
 28 29  1  0  0  0  0
 30 29  1  0  0  0  0
 30 31  1  0  0  0  0
 32  5  1  0  0  0  0
 33 41  1  1  0  0  0
 33 38  1  0  0  0  0
 34 43  1  1  0  0  0
 34 36  1  0  0  0  0
 35 36  1  0  0  0  0
 36 32  1  6  0  0  0
 37 34  1  0  0  0  0
 38 35  1  1  0  0  0
 39 37  1  1  0  0  0
 39 33  1  0  0  0  0
 39 38  1  0  0  0  0
 41 40  1  0  0  0  0
 42 41  2  0  0  0  0
 44 43  1  0  0  0  0
 44 45  1  0  0  0  0
 46 45  1  0  0  0  0
 46 47  1  0  0  0  0
 47 48  1  0  0  0  0
 50 49  2  0  0  0  0
 50 48  1  0  0  0  0
 51 50  1  0  0  0  0
M  END
>  <MODEL>
2

>  <REMARK>
 VINA RESULT:      -7.2      4.758      9.498
  Name = 
  18 active torsions:
  status: ('A' for Active; 'I' for Inactive)
    1  A    between atoms: C_1  and  N_5
    2  A    between atoms: C_1  and  C_23
    3  A    between atoms: C_2  and  C_25
    4  A    between atoms: C_4  and  C_24
    5  A    between atoms: N_5  and  C_14
    6  A    between atoms: C_8  and  C_20
    7  A    between atoms: C_8  and  C_39
    8  A    between atoms: C_9  and  O_15
    9  A    between atoms: C_10  and  C_36
   10  A    between atoms: O_13  and  C_18
   11  A    between atoms: O_13  and  C_32
   12  A    between atoms: O_15  and  C_21
   13  A    between atoms: C_21  and  C_28
   14  A    between atoms: C_23  and  C_49
   15  A    between atoms: C_28  and  C_33
   16  A    between atoms: C_33  and  C_42
   17  A    between atoms: C_36  and  C_42
   18  A    between atoms: C_39  and  C_49
                            x       y       z     vdW  Elec       q    Type
                         _______ _______ _______ _____ _____    ______ ____

>  <TORSDO>
F 18

$$$$
=
 OpenBabel11062412373D

 51 56  0  0  1  0  0  0  0  0999 V2000
  182.7420  178.6980  140.6160 C   0  0  0  0  0  0  0  0  0  0  0  0
  184.6360  178.3970  142.0720 C   0  0  0  0  0  0  0  0  0  0  0  0
  185.9890  178.1910  142.4340 N   0  0  0  0  0  0  0  0  0  0  0  0
  181.6280  178.8830  144.1900 N   0  0  0  0  0  1  0  0  0  0  0  0
  186.0120  178.1860  143.7340 C   0  0  0  0  0  0  0  0  0  0  0  0
  181.9170  178.8330  141.7520 C   0  0  0  0  0  3  0  0  0  0  0  0
  184.6690  178.3860  144.3890 C   0  0  0  0  0  2  0  0  0  0  0  0
  182.4620  178.7520  143.0440 C   0  0  0  0  0  0  0  0  0  0  0  0
  183.8320  178.5280  143.1700 C   0  0  0  0  0  0  0  0  0  0  0  0
  184.1250  178.4610  140.7780 C   0  0  0  0  0  3  0  0  0  0  0  0
  181.5130  177.2460  137.2610 C   0  0  1  0  0  3  0  0  0  0  0  0
  179.9680  179.2780  134.6340 N   0  0  0  0  0  2  0  0  0  0  0  0
  180.5960  180.2330  135.4640 C   0  0  0  0  0  0  0  0  0  0  0  0
  180.0510  177.9820  135.2840 C   0  0  0  0  0  2  0  0  0  0  0  0
  182.1060  178.7420  139.2580 C   0  0  2  0  0  3  0  0  0  0  0  0
  181.1260  179.6530  136.7140 C   0  0  2  0  0  3  0  0  0  0  0  0
  180.7420  181.4350  135.1270 O   0  0  0  0  0  0  0  0  0  0  0  0
  180.4980  178.2600  136.7280 C   0  0  2  0  0  3  0  0  0  0  0  0
  180.7390  180.4650  137.9500 C   0  0  0  0  0  2  0  0  0  0  0  0
  180.9180  179.7060  139.2700 C   0  0  0  0  0  2  0  0  0  0  0  0
  181.6440  177.3560  138.7840 C   0  0  0  0  0  2  0  0  0  0  0  0
  181.1040  175.9380  136.9320 O   0  0  0  0  0  0  0  0  0  0  0  0
  181.7660  174.5030  135.0470 C   0  0  0  0  0  1  0  0  0  0  0  0
  182.1700  175.2080  136.3440 C   0  0  0  0  0  0  0  0  0  0  0  0
  183.3590  176.1170  136.0590 C   0  0  0  0  0  1  0  0  0  0  0  0
  182.6490  174.1590  137.3440 C   0  0  0  0  0  2  0  0  0  0  0  0
  182.6800  172.7410  136.7710 C   0  0  0  0  0  2  0  0  0  0  0  0
  184.0210  172.0650  137.0140 C   0  0  0  0  0  2  0  0  0  0  0  0
  184.9420  172.9860  137.7940 C   0  0  0  0  0  2  0  0  0  0  0  0
  186.3490  172.8750  137.2510 C   0  0  0  0  0  2  0  0  0  0  0  0
  186.3000  172.3470  135.8340 C   0  0  0  0  0  1  0  0  0  0  0  0
  187.1850  178.0080  144.4670 O   0  0  0  0  0  0  0  0  0  0  0  0
  191.1650  177.7050  145.8240 C   0  0  2  0  0  3  0  0  0  0  0  0
  189.0450  177.7280  142.9060 C   0  0  1  0  0  3  0  0  0  0  0  0
  189.0220  176.7260  145.1420 O   0  0  0  0  0  0  0  0  0  0  0  0
  188.2130  177.1150  144.0480 C   0  0  1  0  0  3  0  0  0  0  0  0
  190.5030  177.9360  143.3120 C   0  0  0  0  0  2  0  0  0  0  0  0
  189.6470  177.8710  145.6940 C   0  0  2  0  0  3  0  0  0  0  0  0
  190.5840  178.5790  144.7040 C   0  0  1  0  0  3  0  0  0  0  0  0
  191.7880  176.0500  143.9930 N   0  0  0  0  0  1  0  0  0  0  0  0
  191.7270  176.3770  145.3770 C   0  0  0  0  0  0  0  0  0  0  0  0
  192.0520  175.5140  146.2340 O   0  0  0  0  0  0  0  0  0  0  0  0
  188.9360  176.9120  141.6220 C   0  0  0  0  0  2  0  0  0  0  0  0
  189.8130  177.4630  140.5080 C   0  0  0  0  0  2  0  0  0  0  0  0
  189.0100  177.5140  139.2220 C   0  0  0  0  0  2  0  0  0  0  0  0
  189.9220  177.3950  138.0110 C   0  0  0  0  0  2  0  0  0  0  0  0
  190.7050  176.0960  138.0350 C   0  0  0  0  0  2  0  0  0  0  0  0
  191.9840  176.2670  137.3710 N   0  0  0  0  0  2  0  0  0  0  0  0
  194.2590  174.9310  137.5840 S   0  0  0  0  0  0  0  0  0  0  0  0
  193.2230  176.0960  138.0610 C   0  0  0  0  0  0  0  0  0  0  0  0
  193.5760  176.9490  139.1450 N   0  0  0  0  0  1  0  0  0  0  0  0
  1 10  2  0  0  0  0
  1  6  1  0  0  0  0
  2  3  1  0  0  0  0
  2  9  2  0  0  0  0
  3  5  2  0  0  0  0
  5  7  1  0  0  0  0
  5 32  1  0  0  0  0
  6  8  2  0  0  0  0
  8  9  1  0  0  0  0
  8  4  1  0  0  0  0
  9  7  1  0  0  0  0
 10  2  1  0  0  0  0
 11 22  1  1  0  0  0
 11 21  1  0  0  0  0
 12 14  1  0  0  0  0
 12 13  1  0  0  0  0
 13 16  1  0  0  0  0
 15 20  1  0  0  0  0
 15  1  1  1  0  0  0
 16 18  1  0  0  0  0
 16 19  1  1  0  0  0
 17 13  2  0  0  0  0
 18 14  1  6  0  0  0
 18 11  1  0  0  0  0
 19 20  1  0  0  0  0
 21 15  1  0  0  0  0
 23 24  1  0  0  0  0
 24 22  1  0  0  0  0
 24 26  1  0  0  0  0
 25 24  1  0  0  0  0
 27 28  1  0  0  0  0
 27 26  1  0  0  0  0
 28 29  1  0  0  0  0
 30 29  1  0  0  0  0
 31 30  1  0  0  0  0
 33 41  1  6  0  0  0
 34 43  1  6  0  0  0
 34 37  1  0  0  0  0
 34 36  1  0  0  0  0
 36 32  1  1  0  0  0
 36 35  1  0  0  0  0
 38 35  1  6  0  0  0
 38 33  1  0  0  0  0
 39 37  1  6  0  0  0
 39 38  1  0  0  0  0
 39 33  1  0  0  0  0
 40 41  1  0  0  0  0
 41 42  2  0  0  0  0
 44 43  1  0  0  0  0
 45 44  1  0  0  0  0
 46 47  1  0  0  0  0
 46 45  1  0  0  0  0
 48 47  1  0  0  0  0
 48 50  1  0  0  0  0
 49 50  2  0  0  0  0
 50 51  1  0  0  0  0
M  END
>  <MODEL>
3

>  <REMARK>
 VINA RESULT:      -6.7      3.783     10.588
  Name = 
  18 active torsions:
  status: ('A' for Active; 'I' for Inactive)
    1  A    between atoms: C_1  and  N_5
    2  A    between atoms: C_1  and  C_23
    3  A    between atoms: C_2  and  C_25
    4  A    between atoms: C_4  and  C_24
    5  A    between atoms: N_5  and  C_14
    6  A    between atoms: C_8  and  C_20
    7  A    between atoms: C_8  and  C_39
    8  A    between atoms: C_9  and  O_15
    9  A    between atoms: C_10  and  C_36
   10  A    between atoms: O_13  and  C_18
   11  A    between atoms: O_13  and  C_32
   12  A    between atoms: O_15  and  C_21
   13  A    between atoms: C_21  and  C_28
   14  A    between atoms: C_23  and  C_49
   15  A    between atoms: C_28  and  C_33
   16  A    between atoms: C_33  and  C_42
   17  A    between atoms: C_36  and  C_42
   18  A    between atoms: C_39  and  C_49
                            x       y       z     vdW  Elec       q    Type
                         _______ _______ _______ _____ _____    ______ ____

>  <TORSDO>
F 18

$$$$
=
 OpenBabel11062412373D

 51 56  0  0  1  0  0  0  0  0999 V2000
  182.5050  178.6900  140.5400 C   0  0  0  0  0  0  0  0  0  0  0  0
  184.4800  178.4430  141.8940 C   0  0  0  0  0  0  0  0  0  0  0  0
  185.8550  178.2670  142.1840 N   0  0  0  0  0  0  0  0  0  0  0  0
  181.5830  178.8950  144.1680 N   0  0  0  0  0  1  0  0  0  0  0  0
  185.9480  178.2780  143.4810 C   0  0  0  0  0  0  0  0  0  0  0  0
  181.7400  178.8220  141.7190 C   0  0  0  0  0  3  0  0  0  0  0  0
  184.6390  178.4590  144.2060 C   0  0  0  0  0  2  0  0  0  0  0  0
  182.3560  178.7670  142.9800 C   0  0  0  0  0  0  0  0  0  0  0  0
  183.7350  178.5700  143.0330 C   0  0  0  0  0  0  0  0  0  0  0  0
  183.8990  178.4820  140.6290 C   0  0  0  0  0  3  0  0  0  0  0  0
  180.4530  177.2010  137.6330 C   0  0  1  0  0  3  0  0  0  0  0  0
  179.5560  179.0930  134.6280 N   0  0  0  0  0  2  0  0  0  0  0  0
  180.5930  179.8590  135.2040 C   0  0  0  0  0  0  0  0  0  0  0  0
  179.1940  178.0400  135.5610 C   0  0  0  0  0  2  0  0  0  0  0  0
  181.7950  178.7060  139.2180 C   0  0  2  0  0  3  0  0  0  0  0  0
  180.9840  179.3870  136.5470 C   0  0  2  0  0  3  0  0  0  0  0  0
  181.1610  180.8010  134.5940 O   0  0  0  0  0  0  0  0  0  0  0  0
  179.8660  178.4060  136.8940 C   0  0  2  0  0  3  0  0  0  0  0  0
  181.0810  180.5230  137.5650 C   0  0  0  0  0  2  0  0  0  0  0  0
  181.0890  180.0490  139.0230 C   0  0  0  0  0  2  0  0  0  0  0  0
  180.7800  177.5610  139.0870 C   0  0  0  0  0  2  0  0  0  0  0  0
  179.5320  176.1350  137.6240 O   0  0  0  0  0  0  0  0  0  0  0  0
  180.1800  173.9060  138.4380 C   0  0  0  0  0  1  0  0  0  0  0  0
  180.1750  174.9150  137.2880 C   0  0  0  0  0  0  0  0  0  0  0  0
  179.5170  174.2710  136.0730 C   0  0  0  0  0  1  0  0  0  0  0  0
  181.6190  175.2200  136.8960 C   0  0  0  0  0  2  0  0  0  0  0  0
  182.0980  174.4320  135.6750 C   0  0  0  0  0  2  0  0  0  0  0  0
  183.3790  173.6660  135.9660 C   0  0  0  0  0  2  0  0  0  0  0  0
  183.7680  173.8250  137.4250 C   0  0  0  0  0  2  0  0  0  0  0  0
  184.9560  172.9400  137.7320 C   0  0  0  0  0  2  0  0  0  0  0  0
  185.6230  172.5290  136.4380 C   0  0  0  0  0  1  0  0  0  0  0  0
  187.1630  178.1310  144.1510 O   0  0  0  0  0  0  0  0  0  0  0  0
  191.0930  177.6260  145.5900 C   0  0  2  0  0  3  0  0  0  0  0  0
  189.0670  177.9700  142.6260 C   0  0  1  0  0  3  0  0  0  0  0  0
  188.9590  176.7570  144.7530 O   0  0  0  0  0  0  0  0  0  0  0  0
  188.1910  177.2640  143.6780 C   0  0  1  0  0  3  0  0  0  0  0  0
  190.5140  178.1120  143.0940 C   0  0  0  0  0  2  0  0  0  0  0  0
  189.5830  177.8320  145.4310 C   0  0  2  0  0  3  0  0  0  0  0  0
  190.5610  178.6160  144.5440 C   0  0  1  0  0  3  0  0  0  0  0  0
  192.0450  175.2880  145.9080 N   0  0  0  0  0  1  0  0  0  0  0  0
  191.6490  176.3390  145.0330 C   0  0  0  0  0  0  0  0  0  0  0  0
  191.8570  176.2280  143.7970 O   0  0  0  0  0  0  0  0  0  0  0  0
  188.9860  177.2840  141.2660 C   0  0  0  0  0  2  0  0  0  0  0  0
  190.1040  177.7190  140.3300 C   0  0  0  0  0  2  0  0  0  0  0  0
  190.4300  176.5780  139.3850 C   0  0  0  0  0  2  0  0  0  0  0  0
  189.2830  176.3320  138.4180 C   0  0  0  0  0  2  0  0  0  0  0  0
  189.7940  175.9940  137.0300 C   0  0  0  0  0  2  0  0  0  0  0  0
  188.7990  176.3360  136.0300 N   0  0  0  0  0  2  0  0  0  0  0  0
  187.4370  178.5650  136.4520 S   0  0  0  0  0  0  0  0  0  0  0  0
  187.5540  176.9400  136.3790 C   0  0  0  0  0  0  0  0  0  0  0  0
  186.4040  176.1410  136.6390 N   0  0  0  0  0  1  0  0  0  0  0  0
  1 10  2  0  0  0  0
  1  6  1  0  0  0  0
  2  3  1  0  0  0  0
  2  9  2  0  0  0  0
  3  5  2  0  0  0  0
  5 32  1  0  0  0  0
  5  7  1  0  0  0  0
  6  8  2  0  0  0  0
  8  9  1  0  0  0  0
  8  4  1  0  0  0  0
  9  7  1  0  0  0  0
 10  2  1  0  0  0  0
 11 22  1  1  0  0  0
 11 21  1  0  0  0  0
 12 13  1  0  0  0  0
 12 14  1  0  0  0  0
 13 16  1  0  0  0  0
 15  1  1  1  0  0  0
 16 18  1  0  0  0  0
 16 19  1  1  0  0  0
 17 13  2  0  0  0  0
 18 14  1  6  0  0  0
 18 11  1  0  0  0  0
 19 20  1  0  0  0  0
 20 15  1  0  0  0  0
 21 15  1  0  0  0  0
 24 22  1  0  0  0  0
 24 23  1  0  0  0  0
 25 24  1  0  0  0  0
 26 24  1  0  0  0  0
 27 28  1  0  0  0  0
 27 26  1  0  0  0  0
 28 29  1  0  0  0  0
 29 30  1  0  0  0  0
 31 30  1  0  0  0  0
 33 41  1  6  0  0  0
 34 43  1  6  0  0  0
 34 37  1  0  0  0  0
 34 36  1  0  0  0  0
 36 32  1  1  0  0  0
 36 35  1  0  0  0  0
 38 35  1  6  0  0  0
 38 33  1  0  0  0  0
 39 37  1  6  0  0  0
 39 38  1  0  0  0  0
 39 33  1  0  0  0  0
 41 40  1  0  0  0  0
 42 41  2  0  0  0  0
 44 43  1  0  0  0  0
 45 44  1  0  0  0  0
 46 45  1  0  0  0  0
 47 46  1  0  0  0  0
 48 50  1  0  0  0  0
 48 47  1  0  0  0  0
 50 49  2  0  0  0  0
 50 51  1  0  0  0  0
M  END
>  <MODEL>
4

>  <REMARK>
 VINA RESULT:      -6.3      2.778     10.247
  Name = 
  18 active torsions:
  status: ('A' for Active; 'I' for Inactive)
    1  A    between atoms: C_1  and  N_5
    2  A    between atoms: C_1  and  C_23
    3  A    between atoms: C_2  and  C_25
    4  A    between atoms: C_4  and  C_24
    5  A    between atoms: N_5  and  C_14
    6  A    between atoms: C_8  and  C_20
    7  A    between atoms: C_8  and  C_39
    8  A    between atoms: C_9  and  O_15
    9  A    between atoms: C_10  and  C_36
   10  A    between atoms: O_13  and  C_18
   11  A    between atoms: O_13  and  C_32
   12  A    between atoms: O_15  and  C_21
   13  A    between atoms: C_21  and  C_28
   14  A    between atoms: C_23  and  C_49
   15  A    between atoms: C_28  and  C_33
   16  A    between atoms: C_33  and  C_42
   17  A    between atoms: C_36  and  C_42
   18  A    between atoms: C_39  and  C_49
                            x       y       z     vdW  Elec       q    Type
                         _______ _______ _______ _____ _____    ______ ____

>  <TORSDO>
F 18

$$$$
=
 OpenBabel11062412373D

 51 56  0  0  1  0  0  0  0  0999 V2000
  183.0540  178.9080  140.0740 C   0  0  0  0  0  0  0  0  0  0  0  0
  185.2000  178.7900  141.1590 C   0  0  0  0  0  0  0  0  0  0  0  0
  186.6110  178.7900  141.2720 N   0  0  0  0  0  0  0  0  0  0  0  0
  182.5800  178.4930  143.7700 N   0  0  0  0  0  1  0  0  0  0  0  0
  186.8660  178.6440  142.5390 C   0  0  0  0  0  0  0  0  0  0  0  0
  182.4340  178.7660  141.3340 C   0  0  0  0  0  3  0  0  0  0  0  0
  185.6470  178.5280  143.4180 C   0  0  0  0  0  2  0  0  0  0  0  0
  183.2060  178.6410  142.5000 C   0  0  0  0  0  0  0  0  0  0  0  0
  184.5950  178.6520  142.3770 C   0  0  0  0  0  0  0  0  0  0  0  0
  184.4640  178.9050  139.9830 C   0  0  0  0  0  3  0  0  0  0  0  0
  180.8060  177.5250  137.2620 C   0  0  1  0  0  3  0  0  0  0  0  0
  179.3680  179.6190  134.6230 N   0  0  0  0  0  2  0  0  0  0  0  0
  180.3910  180.4270  135.1650 C   0  0  0  0  0  0  0  0  0  0  0  0
  179.2250  178.4400  135.4590 C   0  0  0  0  0  2  0  0  0  0  0  0
  182.1870  178.9880  138.8520 C   0  0  2  0  0  3  0  0  0  0  0  0
  180.9890  179.8590  136.3900 C   0  0  2  0  0  3  0  0  0  0  0  0
  180.7880  181.4840  134.6110 O   0  0  0  0  0  0  0  0  0  0  0  0
  180.0200  178.7310  136.7410 C   0  0  2  0  0  3  0  0  0  0  0  0
  181.1040  180.8840  137.5180 C   0  0  0  0  0  2  0  0  0  0  0  0
  181.3390  180.2600  138.8990 C   0  0  0  0  0  2  0  0  0  0  0  0
  181.2760  177.7610  138.7020 C   0  0  0  0  0  2  0  0  0  0  0  0
  179.9960  176.3730  137.2300 O   0  0  0  0  0  0  0  0  0  0  0  0
  180.8430  174.1080  137.6770 C   0  0  0  0  0  1  0  0  0  0  0  0
  180.7070  175.2690  136.6910 C   0  0  0  0  0  0  0  0  0  0  0  0
  180.0390  174.7600  135.4200 C   0  0  0  0  0  1  0  0  0  0  0  0
  182.1050  175.7410  136.2930 C   0  0  0  0  0  2  0  0  0  0  0  0
  183.2280  174.9880  137.0090 C   0  0  0  0  0  2  0  0  0  0  0  0
  184.5970  175.5460  136.6510 C   0  0  0  0  0  2  0  0  0  0  0  0
  184.6080  177.0560  136.8080 C   0  0  0  0  0  2  0  0  0  0  0  0
  185.9640  177.5960  136.4120 C   0  0  0  0  0  2  0  0  0  0  0  0
  186.8560  177.6570  137.6320 C   0  0  0  0  0  1  0  0  0  0  0  0
  188.1650  178.5990  143.0460 O   0  0  0  0  0  0  0  0  0  0  0  0
  191.5110  177.4860  145.3570 C   0  0  2  0  0  3  0  0  0  0  0  0
  190.1730  177.6670  142.0120 C   0  0  1  0  0  3  0  0  0  0  0  0
  189.3870  176.9950  144.2340 O   0  0  0  0  0  0  0  0  0  0  0  0
  188.9760  177.4310  142.9520 C   0  0  1  0  0  3  0  0  0  0  0  0
  191.5060  177.5550  142.7500 C   0  0  0  0  0  2  0  0  0  0  0  0
  190.1620  178.0080  144.8470 C   0  0  2  0  0  3  0  0  0  0  0  0
  191.4510  178.3290  144.0750 C   0  0  1  0  0  3  0  0  0  0  0  0
  192.1160  175.1820  146.2510 N   0  0  0  0  0  1  0  0  0  0  0  0
  191.7730  176.0150  145.1490 C   0  0  0  0  0  0  0  0  0  0  0  0
  191.7870  175.5400  143.9830 O   0  0  0  0  0  0  0  0  0  0  0  0
  190.1310  176.7480  140.7960 C   0  0  0  0  0  2  0  0  0  0  0  0
  191.0770  177.2010  139.6930 C   0  0  0  0  0  2  0  0  0  0  0  0
  190.4940  176.8140  138.3480 C   0  0  0  0  0  2  0  0  0  0  0  0
  191.0630  175.4860  137.8740 C   0  0  0  0  0  2  0  0  0  0  0  0
  191.9430  175.6680  136.6520 C   0  0  0  0  0  2  0  0  0  0  0  0
  193.1650  174.8960  136.7920 N   0  0  0  0  0  2  0  0  0  0  0  0
  192.7730  173.3440  134.6840 S   0  0  0  0  0  0  0  0  0  0  0  0
  193.3140  173.6050  136.2000 C   0  0  0  0  0  0  0  0  0  0  0  0
  193.9540  172.5490  136.9090 N   0  0  0  0  0  1  0  0  0  0  0  0
  1  6  1  0  0  0  0
  2  3  1  0  0  0  0
  2  9  2  0  0  0  0
  3  5  2  0  0  0  0
  5 32  1  0  0  0  0
  5  7  1  0  0  0  0
  6  8  2  0  0  0  0
  8  4  1  0  0  0  0
  9  8  1  0  0  0  0
  9  7  1  0  0  0  0
 10  1  2  0  0  0  0
 10  2  1  0  0  0  0
 11 22  1  1  0  0  0
 11 21  1  0  0  0  0
 12 13  1  0  0  0  0
 12 14  1  0  0  0  0
 13 16  1  0  0  0  0
 15 20  1  0  0  0  0
 15  1  1  1  0  0  0
 16 18  1  0  0  0  0
 16 19  1  1  0  0  0
 17 13  2  0  0  0  0
 18 14  1  6  0  0  0
 18 11  1  0  0  0  0
 19 20  1  0  0  0  0
 21 15  1  0  0  0  0
 24 22  1  0  0  0  0
 24 23  1  0  0  0  0
 25 24  1  0  0  0  0
 26 24  1  0  0  0  0
 26 27  1  0  0  0  0
 28 29  1  0  0  0  0
 28 27  1  0  0  0  0
 30 29  1  0  0  0  0
 30 31  1  0  0  0  0
 33 41  1  6  0  0  0
 34 43  1  6  0  0  0
 34 37  1  0  0  0  0
 34 36  1  0  0  0  0
 36 32  1  1  0  0  0
 36 35  1  0  0  0  0
 38 35  1  6  0  0  0
 38 33  1  0  0  0  0
 39 37  1  6  0  0  0
 39 38  1  0  0  0  0
 39 33  1  0  0  0  0
 41 40  1  0  0  0  0
 42 41  2  0  0  0  0
 44 43  1  0  0  0  0
 45 44  1  0  0  0  0
 46 45  1  0  0  0  0
 47 48  1  0  0  0  0
 47 46  1  0  0  0  0
 49 50  2  0  0  0  0
 50 48  1  0  0  0  0
 50 51  1  0  0  0  0
M  END
>  <MODEL>
5

>  <REMARK>
 VINA RESULT:      -6.0      3.981     10.952
  Name = 
  18 active torsions:
  status: ('A' for Active; 'I' for Inactive)
    1  A    between atoms: C_1  and  N_5
    2  A    between atoms: C_1  and  C_23
    3  A    between atoms: C_2  and  C_25
    4  A    between atoms: C_4  and  C_24
    5  A    between atoms: N_5  and  C_14
    6  A    between atoms: C_8  and  C_20
    7  A    between atoms: C_8  and  C_39
    8  A    between atoms: C_9  and  O_15
    9  A    between atoms: C_10  and  C_36
   10  A    between atoms: O_13  and  C_18
   11  A    between atoms: O_13  and  C_32
   12  A    between atoms: O_15  and  C_21
   13  A    between atoms: C_21  and  C_28
   14  A    between atoms: C_23  and  C_49
   15  A    between atoms: C_28  and  C_33
   16  A    between atoms: C_33  and  C_42
   17  A    between atoms: C_36  and  C_42
   18  A    between atoms: C_39  and  C_49
                            x       y       z     vdW  Elec       q    Type
                         _______ _______ _______ _____ _____    ______ ____

>  <TORSDO>
F 18

$$$$
=
 OpenBabel11062412373D

 51 56  0  0  1  0  0  0  0  0999 V2000
  184.8680  178.3200  143.5970 C   0  0  0  0  0  0  0  0  0  0  0  0
  184.2020  178.3740  141.2830 C   0  0  0  0  0  0  0  0  0  0  0  0
  184.3440  178.2770  139.8780 N   0  0  0  0  0  0  0  0  0  0  0  0
  181.2110  179.1060  143.3530 N   0  0  0  0  0  1  0  0  0  0  0  0
  183.1650  178.5190  139.3850 C   0  0  0  0  0  0  0  0  0  0  0  0
  183.5390  178.6230  143.9630 C   0  0  0  0  0  3  0  0  0  0  0  0
  182.0990  178.8070  140.4110 C   0  0  0  0  0  2  0  0  0  0  0  0
  182.5500  178.7960  142.9820 C   0  0  0  0  0  0  0  0  0  0  0  0
  182.9170  178.6680  141.6430 C   0  0  0  0  0  0  0  0  0  0  0  0
  185.2100  178.2070  142.2310 C   0  0  0  0  0  3  0  0  0  0  0  0
  188.4020  177.7560  145.0350 C   0  0  1  0  0  3  0  0  0  0  0  0
  189.1330  177.7280  148.6240 N   0  0  0  0  0  2  0  0  0  0  0  0
  187.7300  177.5700  148.5710 C   0  0  0  0  0  0  0  0  0  0  0  0
  189.6110  178.0180  147.2830 C   0  0  0  0  0  2  0  0  0  0  0  0
  185.9000  178.1940  144.6780 C   0  0  2  0  0  3  0  0  0  0  0  0
  187.1790  177.7490  147.2130 C   0  0  2  0  0  3  0  0  0  0  0  0
  187.0450  177.2410  149.5730 O   0  0  0  0  0  0  0  0  0  0  0  0
  188.3620  178.3410  146.4490 C   0  0  2  0  0  3  0  0  0  0  0  0
  185.9640  178.6770  147.1900 C   0  0  0  0  0  2  0  0  0  0  0  0
  185.6120  179.2010  145.7930 C   0  0  0  0  0  2  0  0  0  0  0  0
  187.3270  178.3980  144.1500 C   0  0  0  0  0  2  0  0  0  0  0  0
  189.6660  177.9840  144.4550 O   0  0  0  0  0  0  0  0  0  0  0  0
  188.9390  176.0030  143.1930 C   0  0  0  0  0  1  0  0  0  0  0  0
  189.8010  177.2660  143.2390 C   0  0  0  0  0  0  0  0  0  0  0  0
  189.4480  178.1460  142.0460 C   0  0  0  0  0  1  0  0  0  0  0  0
  191.2660  176.8670  143.0720 C   0  0  0  0  0  2  0  0  0  0  0  0
  191.6800  175.6900  143.9570 C   0  0  0  0  0  2  0  0  0  0  0  0
  191.9090  176.1230  145.3970 C   0  0  0  0  0  2  0  0  0  0  0  0
  191.9350  174.9120  146.3130 C   0  0  0  0  0  2  0  0  0  0  0  0
  192.5560  175.2930  147.6390 C   0  0  0  0  0  2  0  0  0  0  0  0
  192.2850  176.7550  147.9180 C   0  0  0  0  0  1  0  0  0  0  0  0
  182.9050  178.5120  138.0150 O   0  0  0  0  0  0  0  0  0  0  0  0
  183.1870  174.8330  135.9750 C   0  0  2  0  0  3  0  0  0  0  0  0
  181.6420  178.0920  135.9650 C   0  0  1  0  0  3  0  0  0  0  0  0
  182.1410  176.3390  137.6030 O   0  0  0  0  0  0  0  0  0  0  0  0
  181.8690  177.7190  137.4420 C   0  0  1  0  0  3  0  0  0  0  0  0
  181.9500  176.9260  135.0290 C   0  0  0  0  0  2  0  0  0  0  0  0
  183.3470  176.0170  136.9350 C   0  0  2  0  0  3  0  0  0  0  0  0
  183.2780  176.2620  135.4200 C   0  0  1  0  0  3  0  0  0  0  0  0
  181.4640  173.1590  136.8140 N   0  0  0  0  0  1  0  0  0  0  0  0
  181.8150  174.2080  135.9170 C   0  0  0  0  0  0  0  0  0  0  0  0
  181.0100  174.5440  135.0100 O   0  0  0  0  0  0  0  0  0  0  0  0
  180.2390  178.6420  135.7270 C   0  0  0  0  0  2  0  0  0  0  0  0
  180.2560  180.0590  135.1740 C   0  0  0  0  0  2  0  0  0  0  0  0
  179.6540  181.0000  136.2000 C   0  0  0  0  0  2  0  0  0  0  0  0
  180.3580  180.8600  137.5400 C   0  0  0  0  0  2  0  0  0  0  0  0
  180.6380  182.2160  138.1600 C   0  0  0  0  0  2  0  0  0  0  0  0
  179.8940  183.2510  137.4640 N   0  0  0  0  0  2  0  0  0  0  0  0
  179.3630  185.8380  137.2950 S   0  0  0  0  0  0  0  0  0  0  0  0
  180.3990  184.5800  137.3240 C   0  0  0  0  0  0  0  0  0  0  0  0
  181.8000  184.8200  137.2370 N   0  0  0  0  0  1  0  0  0  0  0  0
  1  6  1  0  0  0  0
  2  9  2  0  0  0  0
  2 10  1  0  0  0  0
  3  2  1  0  0  0  0
  5  3  2  0  0  0  0
  5  7  1  0  0  0  0
  7  9  1  0  0  0  0
  8  4  1  0  0  0  0
  8  6  2  0  0  0  0
  9  8  1  0  0  0  0
 10  1  2  0  0  0  0
 11 22  1  6  0  0  0
 11 18  1  0  0  0  0
 13 12  1  0  0  0  0
 13 17  2  0  0  0  0
 14 12  1  0  0  0  0
 15  1  1  6  0  0  0
 15 20  1  0  0  0  0
 16 19  1  1  0  0  0
 16 13  1  0  0  0  0
 18 16  1  0  0  0  0
 18 14  1  1  0  0  0
 20 19  1  0  0  0  0
 21 15  1  0  0  0  0
 21 11  1  0  0  0  0
 23 24  1  0  0  0  0
 24 22  1  0  0  0  0
 25 24  1  0  0  0  0
 26 24  1  0  0  0  0
 26 27  1  0  0  0  0
 27 28  1  0  0  0  0
 28 29  1  0  0  0  0
 29 30  1  0  0  0  0
 30 31  1  0  0  0  0
 32  5  1  0  0  0  0
 33 41  1  1  0  0  0
 33 38  1  0  0  0  0
 34 43  1  1  0  0  0
 34 36  1  0  0  0  0
 36 35  1  0  0  0  0
 36 32  1  6  0  0  0
 37 34  1  0  0  0  0
 38 35  1  1  0  0  0
 39 37  1  1  0  0  0
 39 33  1  0  0  0  0
 39 38  1  0  0  0  0
 41 40  1  0  0  0  0
 42 41  2  0  0  0  0
 44 43  1  0  0  0  0
 44 45  1  0  0  0  0
 45 46  1  0  0  0  0
 46 47  1  0  0  0  0
 48 47  1  0  0  0  0
 49 50  2  0  0  0  0
 50 48  1  0  0  0  0
 51 50  1  0  0  0  0
M  END
>  <MODEL>
6

>  <REMARK>
 VINA RESULT:      -5.9      1.380      2.992
  Name = 
  18 active torsions:
  status: ('A' for Active; 'I' for Inactive)
    1  A    between atoms: C_1  and  N_5
    2  A    between atoms: C_1  and  C_23
    3  A    between atoms: C_2  and  C_25
    4  A    between atoms: C_4  and  C_24
    5  A    between atoms: N_5  and  C_14
    6  A    between atoms: C_8  and  C_20
    7  A    between atoms: C_8  and  C_39
    8  A    between atoms: C_9  and  O_15
    9  A    between atoms: C_10  and  C_36
   10  A    between atoms: O_13  and  C_18
   11  A    between atoms: O_13  and  C_32
   12  A    between atoms: O_15  and  C_21
   13  A    between atoms: C_21  and  C_28
   14  A    between atoms: C_23  and  C_49
   15  A    between atoms: C_28  and  C_33
   16  A    between atoms: C_33  and  C_42
   17  A    between atoms: C_36  and  C_42
   18  A    between atoms: C_39  and  C_49
                            x       y       z     vdW  Elec       q    Type
                         _______ _______ _______ _____ _____    ______ ____

>  <TORSDO>
F 18

$$$$
=
 OpenBabel11062412373D

 51 56  0  0  1  0  0  0  0  0999 V2000
  185.1650  176.5740  137.5990 C   0  0  0  0  0  0  0  0  0  0  0  0
  187.3840  176.3760  136.6860 C   0  0  0  0  0  0  0  0  0  0  0  0
  188.6640  176.7980  136.2550 N   0  0  0  0  0  0  0  0  0  0  0  0
  185.8670  172.9900  136.7560 N   0  0  0  0  0  1  0  0  0  0  0  0
  189.2710  175.7250  135.8410 C   0  0  0  0  0  0  0  0  0  0  0  0
  185.0010  175.1810  137.4450 C   0  0  0  0  0  3  0  0  0  0  0  0
  188.4580  174.4600  135.9470 C   0  0  0  0  0  2  0  0  0  0  0  0
  186.0350  174.3940  136.9150 C   0  0  0  0  0  0  0  0  0  0  0  0
  187.2200  175.0260  136.5380 C   0  0  0  0  0  0  0  0  0  0  0  0
  186.3730  177.1860  137.1990 C   0  0  0  0  0  3  0  0  0  0  0  0
  181.6630  177.1230  139.1180 C   0  0  1  0  0  3  0  0  0  0  0  0
  180.2400  180.4390  139.7500 N   0  0  0  0  0  2  0  0  0  0  0  0
  181.3080  180.7000  138.8630 C   0  0  0  0  0  0  0  0  0  0  0  0
  180.3100  179.0450  140.1500 C   0  0  0  0  0  2  0  0  0  0  0  0
  184.0120  177.3790  138.1240 C   0  0  2  0  0  3  0  0  0  0  0  0
  182.1600  179.5200  138.6190 C   0  0  2  0  0  3  0  0  0  0  0  0
  181.4610  181.8120  138.2930 O   0  0  0  0  0  0  0  0  0  0  0  0
  181.6890  178.5410  139.6940 C   0  0  2  0  0  3  0  0  0  0  0  0
  183.6500  179.8340  138.7500 C   0  0  0  0  0  2  0  0  0  0  0  0
  184.5340  178.5900  138.9000 C   0  0  0  0  0  2  0  0  0  0  0  0
  183.0810  176.5500  139.0190 C   0  0  0  0  0  2  0  0  0  0  0  0
  180.8880  176.2830  139.9430 O   0  0  0  0  0  0  0  0  0  0  0  0
  178.9310  174.7970  140.0160 C   0  0  0  0  0  1  0  0  0  0  0  0
  179.9940  175.4990  139.1690 C   0  0  0  0  0  0  0  0  0  0  0  0
  179.2980  176.3510  138.1140 C   0  0  0  0  0  1  0  0  0  0  0  0
  180.8010  174.4420  138.4190 C   0  0  0  0  0  2  0  0  0  0  0  0
  180.9020  174.7070  136.9150 C   0  0  0  0  0  2  0  0  0  0  0  0
  181.4600  173.5050  136.1680 C   0  0  0  0  0  2  0  0  0  0  0  0
  180.6840  172.2520  136.5330 C   0  0  0  0  0  2  0  0  0  0  0  0
  181.5090  171.0300  136.1930 C   0  0  0  0  0  2  0  0  0  0  0  0
  182.9760  171.3490  136.3730 C   0  0  0  0  0  1  0  0  0  0  0  0
  190.5720  175.7420  135.3370 O   0  0  0  0  0  0  0  0  0  0  0  0
  194.4070  174.1110  135.9710 C   0  0  2  0  0  3  0  0  0  0  0  0
  191.6300  175.7940  137.5390 C   0  0  1  0  0  3  0  0  0  0  0  0
  192.8980  175.9720  135.4500 O   0  0  0  0  0  0  0  0  0  0  0  0
  191.6660  176.2760  136.0770 C   0  0  1  0  0  3  0  0  0  0  0  0
  192.8510  174.9460  137.8890 C   0  0  0  0  0  2  0  0  0  0  0  0
  193.0610  174.5660  135.3950 C   0  0  2  0  0  3  0  0  0  0  0  0
  193.1200  173.9140  136.7850 C   0  0  1  0  0  3  0  0  0  0  0  0
  196.0570  175.0370  137.6720 N   0  0  0  0  0  1  0  0  0  0  0  0
  195.3210  175.2050  136.4660 C   0  0  0  0  0  0  0  0  0  0  0  0
  195.3580  176.3100  135.8650 O   0  0  0  0  0  0  0  0  0  0  0  0
  191.4580  176.9530  138.5160 C   0  0  0  0  0  2  0  0  0  0  0  0
  190.3860  176.6790  139.5600 C   0  0  0  0  0  2  0  0  0  0  0  0
  189.4300  177.8550  139.6110 C   0  0  0  0  0  2  0  0  0  0  0  0
  188.2230  177.5330  140.4770 C   0  0  0  0  0  2  0  0  0  0  0  0
  188.3990  178.0600  141.8890 C   0  0  0  0  0  2  0  0  0  0  0  0
  187.6630  177.2350  142.8300 N   0  0  0  0  0  2  0  0  0  0  0  0
  189.2760  177.2310  144.9280 S   0  0  0  0  0  0  0  0  0  0  0  0
  187.8050  177.3910  144.2420 C   0  0  0  0  0  0  0  0  0  0  0  0
  186.6820  177.7120  145.0560 N   0  0  0  0  0  1  0  0  0  0  0  0
  2 10  1  0  0  0  0
  3  2  1  0  0  0  0
  4  8  1  0  0  0  0
  5  7  1  0  0  0  0
  5  3  2  0  0  0  0
  6  1  1  0  0  0  0
  7  9  1  0  0  0  0
  8  6  2  0  0  0  0
  9  2  2  0  0  0  0
  9  8  1  0  0  0  0
 10  1  2  0  0  0  0
 11 18  1  0  0  0  0
 11 22  1  1  0  0  0
 12 14  1  0  0  0  0
 13 12  1  0  0  0  0
 15  1  1  1  0  0  0
 15 20  1  0  0  0  0
 15 21  1  0  0  0  0
 16 19  1  1  0  0  0
 16 13  1  0  0  0  0
 16 18  1  0  0  0  0
 17 13  2  0  0  0  0
 18 14  1  6  0  0  0
 19 20  1  0  0  0  0
 21 11  1  0  0  0  0
 24 22  1  0  0  0  0
 24 23  1  0  0  0  0
 25 24  1  0  0  0  0
 26 24  1  0  0  0  0
 27 26  1  0  0  0  0
 28 29  1  0  0  0  0
 28 27  1  0  0  0  0
 30 31  1  0  0  0  0
 30 29  1  0  0  0  0
 32  5  1  0  0  0  0
 33 41  1  1  0  0  0
 33 39  1  0  0  0  0
 34 37  1  0  0  0  0
 34 43  1  1  0  0  0
 35 36  1  0  0  0  0
 36 32  1  6  0  0  0
 36 34  1  0  0  0  0
 38 35  1  1  0  0  0
 38 33  1  0  0  0  0
 38 39  1  0  0  0  0
 39 37  1  1  0  0  0
 41 40  1  0  0  0  0
 42 41  2  0  0  0  0
 43 44  1  0  0  0  0
 44 45  1  0  0  0  0
 45 46  1  0  0  0  0
 46 47  1  0  0  0  0
 47 48  1  0  0  0  0
 48 50  1  0  0  0  0
 50 49  2  0  0  0  0
 50 51  1  0  0  0  0
M  END
>  <MODEL>
7

>  <REMARK>
 VINA RESULT:      -5.6      4.733     10.561
  Name = 
  18 active torsions:
  status: ('A' for Active; 'I' for Inactive)
    1  A    between atoms: C_1  and  N_5
    2  A    between atoms: C_1  and  C_23
    3  A    between atoms: C_2  and  C_25
    4  A    between atoms: C_4  and  C_24
    5  A    between atoms: N_5  and  C_14
    6  A    between atoms: C_8  and  C_20
    7  A    between atoms: C_8  and  C_39
    8  A    between atoms: C_9  and  O_15
    9  A    between atoms: C_10  and  C_36
   10  A    between atoms: O_13  and  C_18
   11  A    between atoms: O_13  and  C_32
   12  A    between atoms: O_15  and  C_21
   13  A    between atoms: C_21  and  C_28
   14  A    between atoms: C_23  and  C_49
   15  A    between atoms: C_28  and  C_33
   16  A    between atoms: C_33  and  C_42
   17  A    between atoms: C_36  and  C_42
   18  A    between atoms: C_39  and  C_49
                            x       y       z     vdW  Elec       q    Type
                         _______ _______ _______ _____ _____    ______ ____

>  <TORSDO>
F 18

$$$$
=
 OpenBabel11062412373D

 51 56  0  0  1  0  0  0  0  0999 V2000
  185.1530  177.3180  137.9010 C   0  0  0  0  0  0  0  0  0  0  0  0
  186.6900  178.1420  139.5600 C   0  0  0  0  0  0  0  0  0  0  0  0
  187.1140  178.7940  140.7430 N   0  0  0  0  0  0  0  0  0  0  0  0
  188.6540  176.3610  136.9640 N   0  0  0  0  0  1  0  0  0  0  0  0
  188.4080  178.6710  140.7730 C   0  0  0  0  0  0  0  0  0  0  0  0
  186.2440  176.7690  137.1940 C   0  0  0  0  0  3  0  0  0  0  0  0
  188.9970  177.9220  139.6050 C   0  0  0  0  0  2  0  0  0  0  0  0
  187.5530  176.9100  137.6800 C   0  0  0  0  0  0  0  0  0  0  0  0
  187.7450  177.6100  138.8710 C   0  0  0  0  0  0  0  0  0  0  0  0
  185.3810  178.0300  139.0990 C   0  0  0  0  0  3  0  0  0  0  0  0
  182.0710  175.4250  136.5610 C   0  0  1  0  0  3  0  0  0  0  0  0
  179.1030  177.1040  135.2210 N   0  0  0  0  0  2  0  0  0  0  0  0
  180.0880  178.1170  135.2170 C   0  0  0  0  0  0  0  0  0  0  0  0
  179.6430  175.9470  135.9160 C   0  0  0  0  0  2  0  0  0  0  0  0
  183.7780  177.1840  137.3150 C   0  0  2  0  0  3  0  0  0  0  0  0
  181.3320  177.7190  135.9050 C   0  0  2  0  0  3  0  0  0  0  0  0
  179.9300  179.2140  134.6210 O   0  0  0  0  0  0  0  0  0  0  0  0
  180.9200  176.4330  136.6190 C   0  0  2  0  0  3  0  0  0  0  0  0
  181.8260  178.7820  136.8870 C   0  0  0  0  0  2  0  0  0  0  0  0
  182.8590  178.2620  137.8930 C   0  0  0  0  0  2  0  0  0  0  0  0
  183.1700  175.7960  137.5630 C   0  0  0  0  0  2  0  0  0  0  0  0
  181.5960  174.1340  136.8640 O   0  0  0  0  0  0  0  0  0  0  0  0
  181.2100  171.9720  135.7570 C   0  0  0  0  0  1  0  0  0  0  0  0
  182.1320  173.1740  135.9660 C   0  0  0  0  0  0  0  0  0  0  0  0
  182.4310  173.8050  134.6110 C   0  0  0  0  0  1  0  0  0  0  0  0
  183.4650  172.6790  136.5240 C   0  0  0  0  0  2  0  0  0  0  0  0
  183.6500  171.1660  136.4050 C   0  0  0  0  0  2  0  0  0  0  0  0
  184.6200  170.8040  135.2900 C   0  0  0  0  0  2  0  0  0  0  0  0
  185.5470  171.9700  134.9990 C   0  0  0  0  0  2  0  0  0  0  0  0
  186.9810  171.4880  134.9940 C   0  0  0  0  0  2  0  0  0  0  0  0
  187.6470  171.8820  136.2930 C   0  0  0  0  0  1  0  0  0  0  0  0
  189.1910  179.1920  141.8030 O   0  0  0  0  0  0  0  0  0  0  0  0
  191.6940  176.3080  143.5880 C   0  0  2  0  0  3  0  0  0  0  0  0
  188.2790  177.3980  143.1890 C   0  0  1  0  0  3  0  0  0  0  0  0
  190.4620  178.4280  143.6130 O   0  0  0  0  0  0  0  0  0  0  0  0
  189.1550  178.6640  143.1260 C   0  0  1  0  0  3  0  0  0  0  0  0
  189.0900  176.1650  143.5830 C   0  0  0  0  0  2  0  0  0  0  0  0
  191.1050  177.4740  142.7870 C   0  0  2  0  0  3  0  0  0  0  0  0
  190.4010  176.1100  142.7850 C   0  0  1  0  0  3  0  0  0  0  0  0
  191.6390  177.6200  145.7680 N   0  0  0  0  0  1  0  0  0  0  0  0
  191.5170  176.3760  145.0850 C   0  0  0  0  0  0  0  0  0  0  0  0
  191.3600  175.3170  145.7470 O   0  0  0  0  0  0  0  0  0  0  0  0
  187.0730  177.5870  144.1040 C   0  0  0  0  0  2  0  0  0  0  0  0
  185.8000  177.8920  143.3290 C   0  0  0  0  0  2  0  0  0  0  0  0
  185.1320  179.1130  143.9320 C   0  0  0  0  0  2  0  0  0  0  0  0
  183.7030  178.7970  144.3460 C   0  0  0  0  0  2  0  0  0  0  0  0
  182.7860  178.7080  143.1400 C   0  0  0  0  0  2  0  0  0  0  0  0
  181.4140  178.9780  143.5300 N   0  0  0  0  0  2  0  0  0  0  0  0
  180.6560  179.6840  141.0950 S   0  0  0  0  0  0  0  0  0  0  0  0
  180.3590  179.0590  142.5710 C   0  0  0  0  0  0  0  0  0  0  0  0
  179.0560  178.5750  142.8800 N   0  0  0  0  0  1  0  0  0  0  0  0
  1 10  1  0  0  0  0
  2  3  1  0  0  0  0
  3  5  2  0  0  0  0
  4  8  1  0  0  0  0
  5 32  1  0  0  0  0
  6  8  1  0  0  0  0
  6  1  2  0  0  0  0
  7  5  1  0  0  0  0
  8  9  2  0  0  0  0
  9  2  1  0  0  0  0
  9  7  1  0  0  0  0
 10  2  2  0  0  0  0
 11 18  1  0  0  0  0
 11 22  1  1  0  0  0
 11 21  1  0  0  0  0
 12 14  1  0  0  0  0
 13 12  1  0  0  0  0
 13 16  1  0  0  0  0
 15 21  1  0  0  0  0
 15 20  1  0  0  0  0
 15  1  1  1  0  0  0
 16 18  1  0  0  0  0
 16 19  1  1  0  0  0
 17 13  2  0  0  0  0
 18 14  1  6  0  0  0
 19 20  1  0  0  0  0
 23 24  1  0  0  0  0
 24 26  1  0  0  0  0
 24 22  1  0  0  0  0
 25 24  1  0  0  0  0
 27 26  1  0  0  0  0
 28 27  1  0  0  0  0
 29 28  1  0  0  0  0
 30 29  1  0  0  0  0
 30 31  1  0  0  0  0
 33 41  1  1  0  0  0
 34 37  1  0  0  0  0
 34 43  1  1  0  0  0
 36 32  1  6  0  0  0
 36 34  1  0  0  0  0
 36 35  1  0  0  0  0
 38 33  1  0  0  0  0
 38 35  1  1  0  0  0
 39 38  1  0  0  0  0
 39 37  1  1  0  0  0
 39 33  1  0  0  0  0
 41 42  2  0  0  0  0
 41 40  1  0  0  0  0
 44 45  1  0  0  0  0
 44 43  1  0  0  0  0
 45 46  1  0  0  0  0
 47 48  1  0  0  0  0
 47 46  1  0  0  0  0
 49 50  2  0  0  0  0
 50 51  1  0  0  0  0
 50 48  1  0  0  0  0
M  END
>  <MODEL>
8

>  <REMARK>
 VINA RESULT:      -5.6      2.873     10.245
  Name = 
  18 active torsions:
  status: ('A' for Active; 'I' for Inactive)
    1  A    between atoms: C_1  and  N_5
    2  A    between atoms: C_1  and  C_23
    3  A    between atoms: C_2  and  C_25
    4  A    between atoms: C_4  and  C_24
    5  A    between atoms: N_5  and  C_14
    6  A    between atoms: C_8  and  C_20
    7  A    between atoms: C_8  and  C_39
    8  A    between atoms: C_9  and  O_15
    9  A    between atoms: C_10  and  C_36
   10  A    between atoms: O_13  and  C_18
   11  A    between atoms: O_13  and  C_32
   12  A    between atoms: O_15  and  C_21
   13  A    between atoms: C_21  and  C_28
   14  A    between atoms: C_23  and  C_49
   15  A    between atoms: C_28  and  C_33
   16  A    between atoms: C_33  and  C_42
   17  A    between atoms: C_36  and  C_42
   18  A    between atoms: C_39  and  C_49
                            x       y       z     vdW  Elec       q    Type
                         _______ _______ _______ _____ _____    ______ ____

>  <TORSDO>
F 18

$$$$
=
 OpenBabel11062412373D

 51 57  0  0  1  0  0  0  0  0999 V2000
  190.0030  177.4110  141.3630 C   0  0  0  0  0  0  0  0  0  0  0  0
  188.7820  177.8480  139.3340 C   0  0  0  0  0  0  0  0  0  0  0  0
  187.6850  178.2220  138.5220 N   0  0  0  0  0  0  0  0  0  0  0  0
  192.2220  176.8160  138.4000 N   0  0  0  0  0  1  0  0  0  0  0  0
  188.1030  178.1260  137.2930 C   0  0  0  0  0  0  0  0  0  0  0  0
  191.1350  177.0860  140.5850 C   0  0  0  0  0  3  0  0  0  0  0  0
  189.5330  177.6720  137.1480 C   0  0  0  0  0  2  0  0  0  0  0  0
  191.0810  177.1480  139.1840 C   0  0  0  0  0  0  0  0  0  0  0  0
  189.8820  177.5310  138.5850 C   0  0  0  0  0  0  0  0  0  0  0  0
  188.7990  177.7850  140.7250 C   0  0  0  0  0  3  0  0  0  0  0  0
  189.0620  178.1790  145.0230 C   0  0  1  0  0  3  0  0  0  0  0  0
  190.7490  176.6570  147.8960 N   0  0  0  0  0  2  0  0  0  0  0  0
  191.6370  176.4140  146.8250 C   0  0  0  0  0  0  0  0  0  0  0  0
  189.5200  177.2100  147.3550 C   0  0  0  0  0  2  0  0  0  0  0  0
  190.0950  177.2800  142.8540 C   0  0  2  0  0  3  0  0  0  0  0  0
  191.0690  176.7730  145.5100 C   0  0  2  0  0  3  0  0  0  0  0  0
  192.8120  176.0010  146.9970 O   0  0  0  0  0  0  0  0  0  0  0  0
  189.5920  176.9940  145.8340 C   0  0  2  0  0  3  0  0  0  0  0  0
  191.2630  175.6730  144.4660 C   0  0  0  0  0  2  0  0  0  0  0  0
  190.3630  175.8230  143.2340 C   0  0  0  0  0  2  0  0  0  0  0  0
  188.8260  177.7760  143.5630 C   0  0  1  0  0  3  0  0  0  0  0  0
  187.8470  178.6340  145.5720 O   0  0  0  0  0  0  0  0  0  0  0  0
  187.1730  176.8340  144.0380 C   0  0  0  0  0  2  0  0  0  0  0  0
  186.7530  177.8800  145.0730 C   0  0  1  0  0  0  0  0  0  0  0  0
  186.0130  177.1800  146.2060 C   0  0  0  0  0  1  0  0  0  0  0  0
  185.7580  178.8400  144.4250 C   0  0  0  0  0  2  0  0  0  0  0  0
  184.3270  178.6700  144.9370 C   0  0  0  0  0  2  0  0  0  0  0  0
  183.3100  178.7820  143.8120 C   0  0  0  0  0  2  0  0  0  0  0  0
  183.8960  178.2500  142.5160 C   0  0  0  0  0  2  0  0  0  0  0  0
  182.9740  178.5890  141.3660 C   0  0  0  0  0  2  0  0  0  0  0  0
  183.2340  177.6390  140.2180 C   0  0  0  0  0  1  0  0  0  0  0  0
  187.2930  178.4180  136.1960 O   0  0  0  0  0  0  0  0  0  0  0  0
  183.6720  176.3070  136.6550 C   0  0  2  0  0  3  0  0  0  0  0  0
  187.1740  176.0020  135.8490 C   0  0  1  0  0  3  0  0  0  0  0  0
  185.3260  177.5160  135.3060 O   0  0  0  0  0  0  0  0  0  0  0  0
  186.7340  177.3980  135.3720 C   0  0  1  0  0  3  0  0  0  0  0  0
  185.9880  175.1580  136.3110 C   0  0  0  0  0  2  0  0  0  0  0  0
  184.7810  177.3640  136.6050 C   0  0  2  0  0  3  0  0  0  0  0  0
  185.0640  175.9840  137.2170 C   0  0  1  0  0  3  0  0  0  0  0  0
  184.0800  174.5080  134.9030 N   0  0  0  0  0  1  0  0  0  0  0  0
  183.3350  175.6370  135.3460 C   0  0  0  0  0  0  0  0  0  0  0  0
  182.4580  176.1360  134.5940 O   0  0  0  0  0  0  0  0  0  0  0  0
  187.9980  175.2730  134.7920 C   0  0  0  0  0  2  0  0  0  0  0  0
  188.8530  174.1640  135.3860 C   0  0  0  0  0  2  0  0  0  0  0  0
  190.2340  174.7120  135.6940 C   0  0  0  0  0  2  0  0  0  0  0  0
  191.1720  173.5980  136.1290 C   0  0  0  0  0  2  0  0  0  0  0  0
  192.6240  173.9860  135.9180 C   0  0  0  0  0  2  0  0  0  0  0  0
  193.3800  173.7940  137.1430 N   0  0  0  0  0  2  0  0  0  0  0  0
  195.4770  174.1110  138.7250 S   0  0  0  0  0  0  0  0  0  0  0  0
  194.6800  174.3550  137.3240 C   0  0  0  0  0  0  0  0  0  0  0  0
  195.3020  175.1020  136.2830 N   0  0  0  0  0  1  0  0  0  0  0  0
  2 10  2  0  0  0  0
  3  2  1  0  0  0  0
  4  8  1  0  0  0  0
  5  3  2  0  0  0  0
  6  1  2  0  0  0  0
  7  5  1  0  0  0  0
  7  9  1  0  0  0  0
  8  6  1  0  0  0  0
  9  8  2  0  0  0  0
  9  2  1  0  0  0  0
 10  1  1  0  0  0  0
 11 22  1  1  0  0  0
 11 18  1  0  0  0  0
 13 17  2  0  0  0  0
 13 12  1  0  0  0  0
 14 12  1  0  0  0  0
 15  1  1  6  0  0  0
 15 20  1  0  0  0  0
 15 21  1  0  0  0  0
 16 19  1  6  0  0  0
 16 18  1  0  0  0  0
 16 13  1  0  0  0  0
 18 14  1  1  0  0  0
 20 19  1  0  0  0  0
 21 23  1  1  0  0  0
 21 11  1  0  0  0  0
 23 24  1  0  0  0  0
 24 22  1  0  0  0  0
 24 25  1  1  0  0  0
 26 27  1  0  0  0  0
 26 24  1  0  0  0  0
 28 27  1  0  0  0  0
 29 28  1  0  0  0  0
 30 29  1  0  0  0  0
 31 30  1  0  0  0  0
 32  5  1  0  0  0  0
 33 41  1  6  0  0  0
 33 39  1  0  0  0  0
 34 43  1  6  0  0  0
 34 37  1  0  0  0  0
 35 36  1  0  0  0  0
 36 34  1  0  0  0  0
 36 32  1  1  0  0  0
 38 35  1  6  0  0  0
 38 33  1  0  0  0  0
 38 39  1  0  0  0  0
 39 37  1  6  0  0  0
 40 41  1  0  0  0  0
 42 41  2  0  0  0  0
 43 44  1  0  0  0  0
 44 45  1  0  0  0  0
 45 46  1  0  0  0  0
 47 46  1  0  0  0  0
 47 48  1  0  0  0  0
 48 50  1  0  0  0  0
 50 49  2  0  0  0  0
 51 50  1  0  0  0  0
M  END
>  <MODEL>
9

>  <REMARK>
 VINA RESULT:      -5.5      4.603      7.923
  Name = 
  18 active torsions:
  status: ('A' for Active; 'I' for Inactive)
    1  A    between atoms: C_1  and  N_5
    2  A    between atoms: C_1  and  C_23
    3  A    between atoms: C_2  and  C_25
    4  A    between atoms: C_4  and  C_24
    5  A    between atoms: N_5  and  C_14
    6  A    between atoms: C_8  and  C_20
    7  A    between atoms: C_8  and  C_39
    8  A    between atoms: C_9  and  O_15
    9  A    between atoms: C_10  and  C_36
   10  A    between atoms: O_13  and  C_18
   11  A    between atoms: O_13  and  C_32
   12  A    between atoms: O_15  and  C_21
   13  A    between atoms: C_21  and  C_28
   14  A    between atoms: C_23  and  C_49
   15  A    between atoms: C_28  and  C_33
   16  A    between atoms: C_33  and  C_42
   17  A    between atoms: C_36  and  C_42
   18  A    between atoms: C_39  and  C_49
                            x       y       z     vdW  Elec       q    Type
                         _______ _______ _______ _____ _____    ______ ____

>  <TORSDO>
F 18

$$$$
