=
 OpenBabel11062414353D

 38 42  0  0  1  0  0  0  0  0999 V2000
  187.5680  178.5970  139.7900 N   0  0  0  0  0  2  0  0  0  0  0  0
  189.7940  177.8280  139.2010 C   0  0  0  0  0  3  0  0  0  0  0  0
  189.1590  177.7430  141.5250 C   0  0  0  0  0  0  0  0  0  0  0  0
  191.0010  177.3050  139.5330 N   0  0  0  0  0  0  0  0  0  0  0  0
  188.8350  178.0520  140.1870 C   0  0  0  0  0  0  0  0  0  0  0  0
  191.3010  176.9970  140.7960 N   0  0  0  0  0  0  0  0  0  0  0  0
  190.4160  177.2040  141.8030 C   0  0  0  0  0  3  0  0  0  0  0  0
  188.2360  178.0100  142.6710 C   0  0  0  0  0  2  0  0  0  0  0  0
  188.0660  176.7690  143.5420 C   0  0  0  0  0  2  0  0  0  0  0  0
  189.6880  177.3120  145.4470 C   0  0  2  0  0  3  0  0  0  0  0  0
  187.1600  177.4670  147.2570 C   0  0  0  0  0  2  0  0  0  0  0  0
  188.1450  178.5570  147.6450 C   0  0  0  0  0  2  0  0  0  0  0  0
  187.1740  177.1990  145.7760 C   0  0  0  0  0  3  0  0  0  0  0  0
  189.5340  177.9760  147.9120 C   0  0  0  0  0  2  0  0  0  0  0  0
  189.9540  176.9040  146.8980 C   0  0  2  0  0  3  0  0  0  0  0  0
  190.0780  178.6170  145.2010 F   0  0  0  0  0  0  0  0  0  0  0  0
  188.2650  177.0850  144.9900 C   0  0  0  0  0  0  0  0  0  0  0  0
  191.3900  176.5450  147.0920 C   0  0  0  0  0  0  0  0  0  0  0  0
  192.0620  175.7830  146.1440 O   0  0  0  0  0  0  0  0  0  0  0  0
  191.9980  176.9460  148.1170 O   0  0  0  0  0  1  0  0  0  0  0  0
  187.1330  178.6210  138.5060 O   0  0  0  0  0  0  0  0  0  0  0  0
  185.9210  177.9260  138.5220 C   0  0  0  0  0  2  0  0  0  0  0  0
  184.5010  179.6160  139.4330 O   0  0  0  0  0  0  0  0  0  0  0  0
  184.7550  178.8790  138.2590 C   0  0  2  0  0  3  0  0  0  0  0  0
  182.6960  178.0690  139.1000 C   0  0  0  0  0  2  0  0  0  0  0  0
  183.2410  179.2110  139.9290 C   0  0  1  0  0  3  0  0  0  0  0  0
  183.4580  178.2060  137.8270 C   0  0  2  0  0  3  0  0  0  0  0  0
  183.3480  178.8140  141.3950 C   0  0  2  0  0  0  0  0  0  0  0  0
  182.0540  179.0160  142.1700 C   0  0  1  0  0  3  0  0  0  0  0  0
  184.6550  179.1020  142.1550 C   0  0  0  0  0  2  0  0  0  0  0  0
  183.4070  178.5870  144.3480 C   0  0  2  0  0  3  0  0  0  0  0  0
  182.5190  177.6060  141.7930 C   0  0  0  0  0  2  0  0  0  0  0  0
  184.7150  178.4850  143.5550 C   0  0  0  0  0  2  0  0  0  0  0  0
  182.3050  179.3880  143.6450 C   0  0  0  0  0  2  0  0  0  0  0  0
  183.6580  179.1350  145.6050 O   0  0  0  0  0  1  0  0  0  0  0  0
  183.7390  176.9100  135.8440 O   0  0  0  0  0  0  0  0  0  0  0  0
  183.5710  175.6950  137.7780 O   0  0  0  0  0  1  0  0  0  0  0  0
  183.5890  176.9050  137.0920 C   0  0  0  0  0  0  0  0  0  0  0  0
  1  5  1  0  0  0  0
  2  4  2  0  0  0  0
  2  5  1  0  0  0  0
  3  7  1  0  0  0  0
  3  8  1  0  0  0  0
  4  6  1  0  0  0  0
  5  3  2  0  0  0  0
  6  7  2  0  0  0  0
  8  9  1  0  0  0  0
  9 17  1  0  0  0  0
 10 16  1  1  0  0  0
 10 15  1  0  0  0  0
 11 12  1  0  0  0  0
 12 14  1  0  0  0  0
 13 11  1  0  0  0  0
 15 18  1  6  0  0  0
 15 14  1  0  0  0  0
 17 10  1  0  0  0  0
 17 13  2  0  0  0  0
 18 20  1  0  0  0  0
 19 18  2  0  0  0  0
 21 22  1  0  0  0  0
 21  1  1  0  0  0  0
 23 26  1  0  0  0  0
 24 22  1  1  0  0  0
 24 23  1  0  0  0  0
 26 25  1  6  0  0  0
 26 28  1  0  0  0  0
 27 38  1  1  0  0  0
 27 24  1  0  0  0  0
 27 25  1  0  0  0  0
 28 32  1  6  0  0  0
 28 30  1  0  0  0  0
 28 29  1  0  0  0  0
 29 32  1  1  0  0  0
 29 34  1  0  0  0  0
 30 33  1  0  0  0  0
 31 35  1  1  0  0  0
 33 31  1  0  0  0  0
 34 31  1  0  0  0  0
 36 38  2  0  0  0  0
 38 37  1  0  0  0  0
M  END
>  <MODEL>
1

>  <REMARK>
 VINA RESULT:      -9.1      0.000      0.000
  Name = 
  10 active torsions:
  status: ('A' for Active; 'I' for Inactive)
    1  A    between atoms: C_2  and  C_28
    2  A    between atoms: C_3  and  C_21
    3  A    between atoms: C_5  and  C_33
    4  A    between atoms: C_9  and  C_19
    5  A    between atoms: C_10  and  C_27
    6  A    between atoms: C_10  and  C_28
    7  A    between atoms: O_15  and  N_17
    8  A    between atoms: O_15  and  C_19
    9  A    between atoms: N_17  and  C_29
   10  A    between atoms: C_34  and  C_35
                            x       y       z     vdW  Elec       q    Type
                         _______ _______ _______ _____ _____    ______ ____

>  <TORSDO>
F 10

$$$$
=
 OpenBabel11062414353D

 38 42  0  0  1  0  0  0  0  0999 V2000
  186.7260  178.8440  141.4770 N   0  0  0  0  0  2  0  0  0  0  0  0
  184.3400  178.6160  141.0920 C   0  0  0  0  0  3  0  0  0  0  0  0
  185.0940  178.7910  143.3750 C   0  0  0  0  0  0  0  0  0  0  0  0
  183.0620  178.5400  141.5420 N   0  0  0  0  0  0  0  0  0  0  0  0
  185.3910  178.7550  141.9970 C   0  0  0  0  0  0  0  0  0  0  0  0
  182.7790  178.5900  142.8450 N   0  0  0  0  0  0  0  0  0  0  0  0
  183.7590  178.7100  143.7760 C   0  0  0  0  0  3  0  0  0  0  0  0
  186.1460  178.8630  144.4360 C   0  0  0  0  0  2  0  0  0  0  0  0
  186.9480  177.5680  144.5050 C   0  0  0  0  0  2  0  0  0  0  0  0
  189.3030  177.5640  145.5080 C   0  0  2  0  0  3  0  0  0  0  0  0
  187.8850  177.4060  148.2740 C   0  0  0  0  0  2  0  0  0  0  0  0
  189.0920  178.3250  148.3600 C   0  0  0  0  0  2  0  0  0  0  0  0
  187.2050  177.4970  146.9340 C   0  0  0  0  0  3  0  0  0  0  0  0
  190.3520  177.6310  147.8390 C   0  0  0  0  0  2  0  0  0  0  0  0
  190.1160  176.8110  146.5640 C   0  0  2  0  0  3  0  0  0  0  0  0
  189.7380  178.8700  145.3600 F   0  0  0  0  0  0  0  0  0  0  0  0
  187.8090  177.5210  145.7270 C   0  0  0  0  0  0  0  0  0  0  0  0
  191.4170  176.3490  146.0000 C   0  0  0  0  0  0  0  0  0  0  0  0
  192.4610  175.9790  146.8400 O   0  0  0  0  0  1  0  0  0  0  0  0
  191.5670  176.2850  144.7530 O   0  0  0  0  0  0  0  0  0  0  0  0
  187.0480  178.5660  140.1900 O   0  0  0  0  0  0  0  0  0  0  0  0
  188.4210  178.3020  140.2100 C   0  0  0  0  0  2  0  0  0  0  0  0
  188.0470  178.7840  137.9020 O   0  0  0  0  0  0  0  0  0  0  0  0
  189.0590  178.6930  138.8780 C   0  0  2  0  0  3  0  0  0  0  0  0
  189.3820  176.8440  137.4350 C   0  0  0  0  0  2  0  0  0  0  0  0
  188.2480  177.7360  136.9760 C   0  0  1  0  0  3  0  0  0  0  0  0
  190.1280  177.7320  138.3700 C   0  0  2  0  0  3  0  0  0  0  0  0
  186.9680  176.9330  136.7940 C   0  0  2  0  0  0  0  0  0  0  0  0
  185.7070  177.7330  137.0870 C   0  0  1  0  0  3  0  0  0  0  0  0
  186.9500  175.4490  137.2040 C   0  0  0  0  0  2  0  0  0  0  0  0
  184.3830  175.4960  136.9910 C   0  0  2  0  0  3  0  0  0  0  0  0
  186.0860  177.3860  135.6440 C   0  0  0  0  0  2  0  0  0  0  0  0
  185.6790  174.7000  136.7940 C   0  0  0  0  0  2  0  0  0  0  0  0
  184.5780  176.8580  137.6700 C   0  0  0  0  0  2  0  0  0  0  0  0
  183.4670  174.7360  137.7160 O   0  0  0  0  0  1  0  0  0  0  0  0
  190.7440  175.7180  139.4900 O   0  0  0  0  0  0  0  0  0  0  0  0
  191.7690  177.6110  140.2700 O   0  0  0  0  0  1  0  0  0  0  0  0
  190.8880  176.9640  139.4090 C   0  0  0  0  0  0  0  0  0  0  0  0
  1  5  1  0  0  0  0
  2  4  2  0  0  0  0
  2  5  1  0  0  0  0
  3  7  1  0  0  0  0
  3  8  1  0  0  0  0
  4  6  1  0  0  0  0
  5  3  2  0  0  0  0
  6  7  2  0  0  0  0
  8  9  1  0  0  0  0
  9 17  1  0  0  0  0
 10 16  1  1  0  0  0
 10 17  1  0  0  0  0
 10 15  1  0  0  0  0
 11 12  1  0  0  0  0
 13 11  1  0  0  0  0
 14 12  1  0  0  0  0
 15 18  1  6  0  0  0
 15 14  1  0  0  0  0
 17 13  2  0  0  0  0
 18 19  1  0  0  0  0
 20 18  2  0  0  0  0
 21 22  1  0  0  0  0
 21  1  1  0  0  0  0
 23 24  1  0  0  0  0
 24 22  1  1  0  0  0
 25 27  1  0  0  0  0
 26 25  1  1  0  0  0
 26 23  1  0  0  0  0
 27 24  1  0  0  0  0
 27 38  1  1  0  0  0
 28 32  1  6  0  0  0
 28 26  1  0  0  0  0
 28 29  1  0  0  0  0
 28 30  1  0  0  0  0
 29 32  1  6  0  0  0
 29 34  1  0  0  0  0
 31 34  1  0  0  0  0
 31 35  1  1  0  0  0
 33 31  1  0  0  0  0
 33 30  1  0  0  0  0
 38 36  2  0  0  0  0
 38 37  1  0  0  0  0
M  END
>  <MODEL>
2

>  <REMARK>
 VINA RESULT:      -8.8      2.189      5.398
  Name = 
  10 active torsions:
  status: ('A' for Active; 'I' for Inactive)
    1  A    between atoms: C_2  and  C_28
    2  A    between atoms: C_3  and  C_21
    3  A    between atoms: C_5  and  C_33
    4  A    between atoms: C_9  and  C_19
    5  A    between atoms: C_10  and  C_27
    6  A    between atoms: C_10  and  C_28
    7  A    between atoms: O_15  and  N_17
    8  A    between atoms: O_15  and  C_19
    9  A    between atoms: N_17  and  C_29
   10  A    between atoms: C_34  and  C_35
                            x       y       z     vdW  Elec       q    Type
                         _______ _______ _______ _____ _____    ______ ____

>  <TORSDO>
F 10

$$$$
=
 OpenBabel11062414353D

 38 42  0  0  1  0  0  0  0  0999 V2000
  189.6600  176.5730  138.2150 N   0  0  0  0  0  2  0  0  0  0  0  0
  192.0380  176.5810  137.7260 C   0  0  0  0  0  3  0  0  0  0  0  0
  191.3560  177.1200  139.9740 C   0  0  0  0  0  0  0  0  0  0  0  0
  193.3320  176.7360  138.1040 N   0  0  0  0  0  0  0  0  0  0  0  0
  191.0130  176.7590  138.6550 C   0  0  0  0  0  0  0  0  0  0  0  0
  193.6560  177.0630  139.3560 N   0  0  0  0  0  0  0  0  0  0  0  0
  192.7050  177.2630  140.3020 C   0  0  0  0  0  3  0  0  0  0  0  0
  190.3380  177.4080  141.0320 C   0  0  0  0  0  2  0  0  0  0  0  0
  190.8260  176.9520  142.4030 C   0  0  0  0  0  2  0  0  0  0  0  0
  190.1180  177.5900  144.7800 C   0  0  2  0  0  3  0  0  0  0  0  0
  187.2750  176.6280  143.9520 C   0  0  0  0  0  2  0  0  0  0  0  0
  187.1720  177.8720  144.8200 C   0  0  0  0  0  2  0  0  0  0  0  0
  188.4910  176.6620  143.0670 C   0  0  0  0  0  3  0  0  0  0  0  0
  187.9470  177.6990  146.1270 C   0  0  0  0  0  2  0  0  0  0  0  0
  189.3090  177.0150  145.9450 C   0  0  2  0  0  3  0  0  0  0  0  0
  190.0860  178.9740  144.7660 F   0  0  0  0  0  0  0  0  0  0  0  0
  189.7380  177.0340  143.4270 C   0  0  0  0  0  0  0  0  0  0  0  0
  190.0910  177.0790  147.2140 C   0  0  0  0  0  0  0  0  0  0  0  0
  191.2760  176.3660  147.3510 O   0  0  0  0  0  0  0  0  0  0  0  0
  189.6780  177.7920  148.1640 O   0  0  0  0  0  1  0  0  0  0  0  0
  188.9230  177.5460  137.6260 O   0  0  0  0  0  0  0  0  0  0  0  0
  187.6960  177.5250  138.2950 C   0  0  0  0  0  2  0  0  0  0  0  0
  185.7870  178.9540  138.2010 O   0  0  0  0  0  0  0  0  0  0  0  0
  186.5960  178.1120  137.4120 C   0  0  2  0  0  3  0  0  0  0  0  0
  184.5270  176.9860  137.6480 C   0  0  0  0  0  2  0  0  0  0  0  0
  184.5140  178.3490  138.3060 C   0  0  1  0  0  3  0  0  0  0  0  0
  185.6990  177.0850  136.7330 C   0  0  2  0  0  3  0  0  0  0  0  0
  184.0930  178.2420  139.7650 C   0  0  2  0  0  0  0  0  0  0  0  0
  182.5990  178.4390  139.9780 C   0  0  1  0  0  3  0  0  0  0  0  0
  185.0220  178.8070  140.8550 C   0  0  0  0  0  2  0  0  0  0  0  0
  183.0800  178.5690  142.5300 C   0  0  2  0  0  3  0  0  0  0  0  0
  183.2200  177.0440  140.0930 C   0  0  0  0  0  2  0  0  0  0  0  0
  184.5900  178.4670  142.2850 C   0  0  0  0  0  2  0  0  0  0  0  0
  182.2820  179.1020  141.3340 C   0  0  0  0  0  2  0  0  0  0  0  0
  182.8360  179.3630  143.6490 O   0  0  0  0  0  1  0  0  0  0  0  0
  185.9520  174.7400  137.0960 O   0  0  0  0  0  1  0  0  0  0  0  0
  187.2590  175.6070  135.4280 O   0  0  0  0  0  0  0  0  0  0  0  0
  186.3120  175.7490  136.4370 C   0  0  0  0  0  0  0  0  0  0  0  0
  1  5  1  0  0  0  0
  2  4  2  0  0  0  0
  2  5  1  0  0  0  0
  3  7  1  0  0  0  0
  3  8  1  0  0  0  0
  4  6  1  0  0  0  0
  5  3  2  0  0  0  0
  6  7  2  0  0  0  0
  8  9  1  0  0  0  0
  9 17  1  0  0  0  0
 10 16  1  6  0  0  0
 10 15  1  0  0  0  0
 11 12  1  0  0  0  0
 12 14  1  0  0  0  0
 13 17  2  0  0  0  0
 13 11  1  0  0  0  0
 15 14  1  0  0  0  0
 15 18  1  1  0  0  0
 17 10  1  0  0  0  0
 18 19  2  0  0  0  0
 18 20  1  0  0  0  0
 21  1  1  0  0  0  0
 21 22  1  0  0  0  0
 23 26  1  0  0  0  0
 24 23  1  0  0  0  0
 24 22  1  1  0  0  0
 26 25  1  1  0  0  0
 26 28  1  0  0  0  0
 27 38  1  1  0  0  0
 27 24  1  0  0  0  0
 27 25  1  0  0  0  0
 28 29  1  0  0  0  0
 28 32  1  1  0  0  0
 28 30  1  0  0  0  0
 29 32  1  1  0  0  0
 29 34  1  0  0  0  0
 30 33  1  0  0  0  0
 31 35  1  1  0  0  0
 33 31  1  0  0  0  0
 34 31  1  0  0  0  0
 37 38  2  0  0  0  0
 38 36  1  0  0  0  0
M  END
>  <MODEL>
3

>  <REMARK>
 VINA RESULT:      -8.8      1.783      2.482
  Name = 
  10 active torsions:
  status: ('A' for Active; 'I' for Inactive)
    1  A    between atoms: C_2  and  C_28
    2  A    between atoms: C_3  and  C_21
    3  A    between atoms: C_5  and  C_33
    4  A    between atoms: C_9  and  C_19
    5  A    between atoms: C_10  and  C_27
    6  A    between atoms: C_10  and  C_28
    7  A    between atoms: O_15  and  N_17
    8  A    between atoms: O_15  and  C_19
    9  A    between atoms: N_17  and  C_29
   10  A    between atoms: C_34  and  C_35
                            x       y       z     vdW  Elec       q    Type
                         _______ _______ _______ _____ _____    ______ ____

>  <TORSDO>
F 10

$$$$
=
 OpenBabel11062414353D

 38 42  0  0  1  0  0  0  0  0999 V2000
  187.8950  178.0100  139.3650 N   0  0  0  0  0  2  0  0  0  0  0  0
  188.6250  177.9810  137.0500 C   0  0  0  0  0  3  0  0  0  0  0  0
  186.2680  177.7180  137.4840 C   0  0  0  0  0  0  0  0  0  0  0  0
  188.3680  177.8970  135.7200 N   0  0  0  0  0  0  0  0  0  0  0  0
  187.5790  177.9040  137.9690 C   0  0  0  0  0  0  0  0  0  0  0  0
  187.1260  177.7370  135.2610 N   0  0  0  0  0  0  0  0  0  0  0  0
  186.0670  177.6410  136.1040 C   0  0  0  0  0  3  0  0  0  0  0  0
  185.0820  177.5500  138.3790 C   0  0  0  0  0  2  0  0  0  0  0  0
  184.5410  178.9000  138.8370 C   0  0  0  0  0  2  0  0  0  0  0  0
  182.9230  178.4780  140.7760 C   0  0  2  0  0  3  0  0  0  0  0  0
  185.2510  179.3940  142.6270 C   0  0  0  0  0  2  0  0  0  0  0  0
  184.5070  178.2320  143.2630 C   0  0  0  0  0  2  0  0  0  0  0  0
  185.3080  179.2710  141.1290 C   0  0  0  0  0  3  0  0  0  0  0  0
  183.0040  178.5090  143.3310 C   0  0  0  0  0  2  0  0  0  0  0  0
  182.4440  179.1600  142.0600 C   0  0  2  0  0  3  0  0  0  0  0  0
  182.8600  177.0990  140.8730 F   0  0  0  0  0  0  0  0  0  0  0  0
  184.2920  178.9190  140.3120 C   0  0  0  0  0  0  0  0  0  0  0  0
  180.9540  179.1990  142.1140 C   0  0  0  0  0  0  0  0  0  0  0  0
  180.2040  178.0850  141.7550 O   0  0  0  0  0  0  0  0  0  0  0  0
  180.3730  180.2450  142.4980 O   0  0  0  0  0  1  0  0  0  0  0  0
  188.6150  179.0280  139.8950 O   0  0  0  0  0  0  0  0  0  0  0  0
  188.7750  178.6940  141.2430 C   0  0  0  0  0  2  0  0  0  0  0  0
  187.9260  176.8960  142.5630 O   0  0  0  0  0  0  0  0  0  0  0  0
  188.7110  177.1790  141.4280 C   0  0  2  0  0  3  0  0  0  0  0  0
  190.2160  176.3900  143.0780 C   0  0  0  0  0  2  0  0  0  0  0  0
  188.7790  176.3530  143.5510 C   0  0  1  0  0  3  0  0  0  0  0  0
  190.0620  176.4940  141.5990 C   0  0  2  0  0  3  0  0  0  0  0  0
  188.6210  177.1070  144.8640 C   0  0  2  0  0  0  0  0  0  0  0  0
  189.8040  176.9310  145.8060 C   0  0  1  0  0  3  0  0  0  0  0  0
  187.2300  177.1880  145.5180 C   0  0  0  0  0  2  0  0  0  0  0  0
  188.3680  178.0540  147.6600 C   0  0  2  0  0  3  0  0  0  0  0  0
  189.5940  178.2550  145.0640 C   0  0  0  0  0  2  0  0  0  0  0  0
  187.1570  178.1320  146.7220 C   0  0  0  0  0  2  0  0  0  0  0  0
  189.3840  176.9670  147.2890 C   0  0  0  0  0  2  0  0  0  0  0  0
  187.9370  177.8680  148.9730 O   0  0  0  0  0  1  0  0  0  0  0  0
  192.1460  177.6550  141.6570 O   0  0  0  0  0  1  0  0  0  0  0  0
  191.3470  177.2040  139.5590 O   0  0  0  0  0  0  0  0  0  0  0  0
  191.2380  177.1560  140.9440 C   0  0  0  0  0  0  0  0  0  0  0  0
  1 21  1  0  0  0  0
  2  5  1  0  0  0  0
  3  5  2  0  0  0  0
  3  8  1  0  0  0  0
  4  2  2  0  0  0  0
  5  1  1  0  0  0  0
  6  4  1  0  0  0  0
  6  7  2  0  0  0  0
  7  3  1  0  0  0  0
  8  9  1  0  0  0  0
  9 17  1  0  0  0  0
 10 16  1  1  0  0  0
 10 15  1  0  0  0  0
 11 12  1  0  0  0  0
 12 14  1  0  0  0  0
 13 11  1  0  0  0  0
 15 18  1  1  0  0  0
 15 14  1  0  0  0  0
 17 10  1  0  0  0  0
 17 13  2  0  0  0  0
 18 20  1  0  0  0  0
 19 18  2  0  0  0  0
 21 22  1  0  0  0  0
 23 26  1  0  0  0  0
 24 22  1  1  0  0  0
 24 27  1  0  0  0  0
 24 23  1  0  0  0  0
 26 25  1  6  0  0  0
 26 28  1  0  0  0  0
 27 38  1  1  0  0  0
 27 25  1  0  0  0  0
 28 32  1  6  0  0  0
 28 30  1  0  0  0  0
 28 29  1  0  0  0  0
 29 32  1  1  0  0  0
 29 34  1  0  0  0  0
 30 33  1  0  0  0  0
 31 35  1  1  0  0  0
 33 31  1  0  0  0  0
 34 31  1  0  0  0  0
 37 38  2  0  0  0  0
 38 36  1  0  0  0  0
M  END
>  <MODEL>
4

>  <REMARK>
 VINA RESULT:      -8.8      2.807      7.254
  Name = 
  10 active torsions:
  status: ('A' for Active; 'I' for Inactive)
    1  A    between atoms: C_2  and  C_28
    2  A    between atoms: C_3  and  C_21
    3  A    between atoms: C_5  and  C_33
    4  A    between atoms: C_9  and  C_19
    5  A    between atoms: C_10  and  C_27
    6  A    between atoms: C_10  and  C_28
    7  A    between atoms: O_15  and  N_17
    8  A    between atoms: O_15  and  C_19
    9  A    between atoms: N_17  and  C_29
   10  A    between atoms: C_34  and  C_35
                            x       y       z     vdW  Elec       q    Type
                         _______ _______ _______ _____ _____    ______ ____

>  <TORSDO>
F 10

$$$$
=
 OpenBabel11062414353D

 38 42  0  0  1  0  0  0  0  0999 V2000
  190.1580  177.0820  140.3820 N   0  0  0  0  0  2  0  0  0  0  0  0
  188.2580  177.9930  139.1770 C   0  0  0  0  0  3  0  0  0  0  0  0
  188.1690  178.0140  141.5860 C   0  0  0  0  0  0  0  0  0  0  0  0
  187.0380  178.5870  139.1480 N   0  0  0  0  0  0  0  0  0  0  0  0
  188.8620  177.6990  140.3980 C   0  0  0  0  0  0  0  0  0  0  0  0
  186.3900  178.8980  140.2710 N   0  0  0  0  0  0  0  0  0  0  0  0
  186.9190  178.6260  141.4910 C   0  0  0  0  0  3  0  0  0  0  0  0
  188.6890  177.6780  142.9470 C   0  0  0  0  0  2  0  0  0  0  0  0
  187.5530  177.2980  143.8920 C   0  0  0  0  0  2  0  0  0  0  0  0
  189.4390  177.5760  145.6010 C   0  0  2  0  0  3  0  0  0  0  0  0
  187.1870  177.6070  147.7490 C   0  0  0  0  0  2  0  0  0  0  0  0
  188.2640  178.6170  148.1100 C   0  0  0  0  0  2  0  0  0  0  0  0
  186.9900  177.5050  146.2610 C   0  0  0  0  0  3  0  0  0  0  0  0
  189.6490  177.9680  148.1190 C   0  0  0  0  0  2  0  0  0  0  0  0
  189.8800  177.0020  146.9490 C   0  0  2  0  0  3  0  0  0  0  0  0
  189.8520  178.8880  145.4420 F   0  0  0  0  0  0  0  0  0  0  0  0
  187.9590  177.4450  145.3240 C   0  0  0  0  0  0  0  0  0  0  0  0
  191.3110  176.5820  146.9030 C   0  0  0  0  0  0  0  0  0  0  0  0
  191.8440  176.0120  145.7520 O   0  0  0  0  0  0  0  0  0  0  0  0
  192.0420  176.7530  147.9110 O   0  0  0  0  0  1  0  0  0  0  0  0
  191.1460  177.4360  139.5240 O   0  0  0  0  0  0  0  0  0  0  0  0
  191.3740  176.2980  138.7460 C   0  0  0  0  0  2  0  0  0  0  0  0
  190.2770  176.7270  136.6700 O   0  0  0  0  0  0  0  0  0  0  0  0
  191.5470  176.6810  137.2770 C   0  0  2  0  0  3  0  0  0  0  0  0
  191.4550  174.8150  135.8220 C   0  0  0  0  0  2  0  0  0  0  0  0
  190.2080  175.6680  135.7380 C   0  0  1  0  0  3  0  0  0  0  0  0
  192.4300  175.7390  136.4660 C   0  0  2  0  0  3  0  0  0  0  0  0
  188.9600  174.8280  135.9770 C   0  0  2  0  0  0  0  0  0  0  0  0
  187.7000  175.6600  136.1650 C   0  0  1  0  0  3  0  0  0  0  0  0
  189.0710  173.5480  136.8250 C   0  0  0  0  0  2  0  0  0  0  0  0
  186.4980  173.4860  136.9340 C   0  0  2  0  0  3  0  0  0  0  0  0
  187.9280  174.8840  134.8650 C   0  0  0  0  0  2  0  0  0  0  0  0
  187.8030  172.6880  136.8310 C   0  0  0  0  0  2  0  0  0  0  0  0
  186.6960  174.9940  137.1280 C   0  0  0  0  0  2  0  0  0  0  0  0
  185.7140  172.9780  137.9690 O   0  0  0  0  0  1  0  0  0  0  0  0
  194.5600  175.6140  137.5340 O   0  0  0  0  0  0  0  0  0  0  0  0
  193.3330  173.6820  137.5930 O   0  0  0  0  0  1  0  0  0  0  0  0
  193.5030  175.0100  137.2190 C   0  0  0  0  0  0  0  0  0  0  0  0
  1  5  1  0  0  0  0
  2  5  1  0  0  0  0
  3  8  1  0  0  0  0
  4  2  2  0  0  0  0
  4  6  1  0  0  0  0
  5  3  2  0  0  0  0
  6  7  2  0  0  0  0
  7  3  1  0  0  0  0
  8  9  1  0  0  0  0
  9 17  1  0  0  0  0
 10 16  1  1  0  0  0
 10 15  1  0  0  0  0
 11 12  1  0  0  0  0
 12 14  1  0  0  0  0
 13 11  1  0  0  0  0
 15 18  1  6  0  0  0
 15 14  1  0  0  0  0
 17 10  1  0  0  0  0
 17 13  2  0  0  0  0
 18 20  1  0  0  0  0
 19 18  2  0  0  0  0
 21  1  1  0  0  0  0
 22 21  1  0  0  0  0
 23 24  1  0  0  0  0
 24 22  1  1  0  0  0
 25 27  1  0  0  0  0
 26 25  1  1  0  0  0
 26 28  1  0  0  0  0
 26 23  1  0  0  0  0
 27 38  1  1  0  0  0
 27 24  1  0  0  0  0
 28 32  1  6  0  0  0
 28 29  1  0  0  0  0
 28 30  1  0  0  0  0
 29 32  1  6  0  0  0
 29 34  1  0  0  0  0
 30 33  1  0  0  0  0
 31 34  1  0  0  0  0
 31 35  1  1  0  0  0
 33 31  1  0  0  0  0
 38 36  2  0  0  0  0
 38 37  1  0  0  0  0
M  END
>  <MODEL>
5

>  <REMARK>
 VINA RESULT:      -8.5      3.392      6.274
  Name = 
  10 active torsions:
  status: ('A' for Active; 'I' for Inactive)
    1  A    between atoms: C_2  and  C_28
    2  A    between atoms: C_3  and  C_21
    3  A    between atoms: C_5  and  C_33
    4  A    between atoms: C_9  and  C_19
    5  A    between atoms: C_10  and  C_27
    6  A    between atoms: C_10  and  C_28
    7  A    between atoms: O_15  and  N_17
    8  A    between atoms: O_15  and  C_19
    9  A    between atoms: N_17  and  C_29
   10  A    between atoms: C_34  and  C_35
                            x       y       z     vdW  Elec       q    Type
                         _______ _______ _______ _____ _____    ______ ____

>  <TORSDO>
F 10

$$$$
=
 OpenBabel11062414353D

 38 42  0  0  1  0  0  0  0  0999 V2000
  187.1730  178.8230  140.4970 N   0  0  0  0  0  2  0  0  0  0  0  0
  188.6760  177.6080  139.0300 C   0  0  0  0  0  3  0  0  0  0  0  0
  189.1510  177.5770  141.3930 C   0  0  0  0  0  0  0  0  0  0  0  0
  189.7620  176.8200  138.8230 N   0  0  0  0  0  0  0  0  0  0  0  0
  188.3350  178.0000  140.3230 C   0  0  0  0  0  0  0  0  0  0  0  0
  190.5250  176.4070  139.8370 N   0  0  0  0  0  0  0  0  0  0  0  0
  190.2530  176.7660  141.1170 C   0  0  0  0  0  3  0  0  0  0  0  0
  188.9220  177.9970  142.8100 C   0  0  0  0  0  2  0  0  0  0  0  0
  188.2890  176.8720  143.6220 C   0  0  0  0  0  2  0  0  0  0  0  0
  189.8000  177.3260  145.6380 C   0  0  2  0  0  3  0  0  0  0  0  0
  187.1740  177.4140  147.3060 C   0  0  0  0  0  2  0  0  0  0  0  0
  188.1370  178.4830  147.7960 C   0  0  0  0  0  2  0  0  0  0  0  0
  187.2710  177.2100  145.8190 C   0  0  0  0  0  3  0  0  0  0  0  0
  189.5080  177.8840  148.1160 C   0  0  0  0  0  2  0  0  0  0  0  0
  189.9830  176.8550  147.0830 C   0  0  2  0  0  3  0  0  0  0  0  0
  190.2070  178.6380  145.4710 F   0  0  0  0  0  0  0  0  0  0  0  0
  188.4050  177.1250  145.0920 C   0  0  0  0  0  0  0  0  0  0  0  0
  191.4040  176.4820  147.3420 C   0  0  0  0  0  0  0  0  0  0  0  0
  192.0020  175.4420  146.6400 O   0  0  0  0  0  0  0  0  0  0  0  0
  192.0690  177.1220  148.1960 O   0  0  0  0  0  1  0  0  0  0  0  0
  186.0200  178.6460  139.8070 O   0  0  0  0  0  0  0  0  0  0  0  0
  185.0180  179.1480  140.6420 C   0  0  0  0  0  2  0  0  0  0  0  0
  183.0350  177.9900  139.9890 O   0  0  0  0  0  0  0  0  0  0  0  0
  184.0180  178.0480  140.9970 C   0  0  2  0  0  3  0  0  0  0  0  0
  182.0340  178.8890  141.9780 C   0  0  0  0  0  2  0  0  0  0  0  0
  181.8140  178.4180  140.5570 C   0  0  1  0  0  3  0  0  0  0  0  0
  183.3170  178.2230  142.3390 C   0  0  2  0  0  3  0  0  0  0  0  0
  181.1900  179.5190  139.7110 C   0  0  2  0  0  0  0  0  0  0  0  0
  182.1470  180.1060  138.6830 C   0  0  1  0  0  3  0  0  0  0  0  0
  180.2060  180.5020  140.3710 C   0  0  0  0  0  2  0  0  0  0  0  0
  180.4000  181.9890  138.2760 C   0  0  2  0  0  3  0  0  0  0  0  0
  181.0110  179.1760  138.2430 C   0  0  0  0  0  2  0  0  0  0  0  0
  179.4970  181.4360  139.3850 C   0  0  0  0  0  2  0  0  0  0  0  0
  181.8770  181.6000  138.4150 C   0  0  0  0  0  2  0  0  0  0  0  0
  180.2820  183.3760  138.2180 O   0  0  0  0  0  1  0  0  0  0  0  0
  185.1940  178.5420  143.7780 O   0  0  0  0  0  0  0  0  0  0  0  0
  183.5610  180.1380  143.9500 O   0  0  0  0  0  1  0  0  0  0  0  0
  184.0730  178.9680  143.3980 C   0  0  0  0  0  0  0  0  0  0  0  0
  2  5  1  0  0  0  0
  3  8  1  0  0  0  0
  4  2  2  0  0  0  0
  4  6  1  0  0  0  0
  5  1  1  0  0  0  0
  5  3  2  0  0  0  0
  6  7  2  0  0  0  0
  7  3  1  0  0  0  0
  8  9  1  0  0  0  0
  9 17  1  0  0  0  0
 10 16  1  1  0  0  0
 10 15  1  0  0  0  0
 11 12  1  0  0  0  0
 12 14  1  0  0  0  0
 13 11  1  0  0  0  0
 15 18  1  1  0  0  0
 15 14  1  0  0  0  0
 17 10  1  0  0  0  0
 17 13  2  0  0  0  0
 18 20  1  0  0  0  0
 19 18  2  0  0  0  0
 21  1  1  0  0  0  0
 21 22  1  0  0  0  0
 23 26  1  0  0  0  0
 23 24  1  0  0  0  0
 24 22  1  6  0  0  0
 24 27  1  0  0  0  0
 25 27  1  0  0  0  0
 26 25  1  1  0  0  0
 27 38  1  1  0  0  0
 28 32  1  6  0  0  0
 28 30  1  0  0  0  0
 28 26  1  0  0  0  0
 29 32  1  6  0  0  0
 29 28  1  0  0  0  0
 31 35  1  1  0  0  0
 31 34  1  0  0  0  0
 31 33  1  0  0  0  0
 33 30  1  0  0  0  0
 34 29  1  0  0  0  0
 38 36  2  0  0  0  0
 38 37  1  0  0  0  0
M  END
>  <MODEL>
6

>  <REMARK>
 VINA RESULT:      -8.5      1.895      3.719
  Name = 
  10 active torsions:
  status: ('A' for Active; 'I' for Inactive)
    1  A    between atoms: C_2  and  C_28
    2  A    between atoms: C_3  and  C_21
    3  A    between atoms: C_5  and  C_33
    4  A    between atoms: C_9  and  C_19
    5  A    between atoms: C_10  and  C_27
    6  A    between atoms: C_10  and  C_28
    7  A    between atoms: O_15  and  N_17
    8  A    between atoms: O_15  and  C_19
    9  A    between atoms: N_17  and  C_29
   10  A    between atoms: C_34  and  C_35
                            x       y       z     vdW  Elec       q    Type
                         _______ _______ _______ _____ _____    ______ ____

>  <TORSDO>
F 10

$$$$
=
 OpenBabel11062414353D

 38 42  0  0  1  0  0  0  0  0999 V2000
  186.7390  178.9320  141.4560 N   0  0  0  0  0  2  0  0  0  0  0  0
  184.3380  178.6900  141.2000 C   0  0  0  0  0  3  0  0  0  0  0  0
  185.2150  178.8360  143.4410 C   0  0  0  0  0  0  0  0  0  0  0  0
  183.0870  178.5950  141.7190 N   0  0  0  0  0  0  0  0  0  0  0  0
  185.4360  178.8230  142.0480 C   0  0  0  0  0  0  0  0  0  0  0  0
  182.8770  178.6230  143.0360 N   0  0  0  0  0  0  0  0  0  0  0  0
  183.9050  178.7380  143.9140 C   0  0  0  0  0  3  0  0  0  0  0  0
  186.3240  178.9010  144.4430 C   0  0  0  0  0  2  0  0  0  0  0  0
  186.9970  177.5430  144.6080 C   0  0  0  0  0  2  0  0  0  0  0  0
  189.3480  177.5300  145.6220 C   0  0  2  0  0  3  0  0  0  0  0  0
  187.9150  177.4100  148.3830 C   0  0  0  0  0  2  0  0  0  0  0  0
  189.1300  178.3200  148.4660 C   0  0  0  0  0  2  0  0  0  0  0  0
  187.2430  177.4930  147.0400 C   0  0  0  0  0  3  0  0  0  0  0  0
  190.3860  177.6100  147.9580 C   0  0  0  0  0  2  0  0  0  0  0  0
  190.1490  176.7800  146.6890 C   0  0  2  0  0  3  0  0  0  0  0  0
  189.7940  178.8310  145.4650 F   0  0  0  0  0  0  0  0  0  0  0  0
  187.8520  177.5000  145.8350 C   0  0  0  0  0  0  0  0  0  0  0  0
  191.4490  176.3020  146.1360 C   0  0  0  0  0  0  0  0  0  0  0  0
  192.4270  175.7820  146.9750 O   0  0  0  0  0  1  0  0  0  0  0  0
  191.6570  176.3620  144.8970 O   0  0  0  0  0  0  0  0  0  0  0  0
  186.9580  178.9190  140.1190 O   0  0  0  0  0  0  0  0  0  0  0  0
  187.7950  177.8210  139.9000 C   0  0  0  0  0  2  0  0  0  0  0  0
  189.1690  177.9840  137.9550 O   0  0  0  0  0  0  0  0  0  0  0  0
  189.1380  178.2780  139.3320 C   0  0  2  0  0  3  0  0  0  0  0  0
  190.6840  176.5030  139.0840 C   0  0  0  0  0  2  0  0  0  0  0  0
  190.1370  176.9740  137.7540 C   0  0  1  0  0  3  0  0  0  0  0  0
  190.3610  177.6450  139.9850 C   0  0  2  0  0  3  0  0  0  0  0  0
  189.5400  175.8120  136.9720 C   0  0  2  0  0  0  0  0  0  0  0  0
  188.0410  175.9440  136.7440 C   0  0  1  0  0  3  0  0  0  0  0  0
  190.0740  174.3900  137.2210 C   0  0  0  0  0  2  0  0  0  0  0  0
  188.0500  173.4810  135.9130 C   0  0  2  0  0  3  0  0  0  0  0  0
  189.0230  176.1700  135.5900 C   0  0  0  0  0  2  0  0  0  0  0  0
  189.5410  173.3400  136.2420 C   0  0  0  0  0  2  0  0  0  0  0  0
  187.3300  174.5770  136.7090 C   0  0  0  0  0  2  0  0  0  0  0  0
  187.4060  172.2590  136.1060 O   0  0  0  0  0  1  0  0  0  0  0  0
  190.2460  176.0030  141.7120 O   0  0  0  0  0  0  0  0  0  0  0  0
  190.0720  178.1720  142.4250 O   0  0  0  0  0  1  0  0  0  0  0  0
  190.2160  177.2250  141.4170 C   0  0  0  0  0  0  0  0  0  0  0  0
  1  5  1  0  0  0  0
  2  4  2  0  0  0  0
  2  5  1  0  0  0  0
  3  7  1  0  0  0  0
  3  8  1  0  0  0  0
  4  6  1  0  0  0  0
  5  3  2  0  0  0  0
  6  7  2  0  0  0  0
  8  9  1  0  0  0  0
  9 17  1  0  0  0  0
 10 16  1  1  0  0  0
 10 17  1  0  0  0  0
 10 15  1  0  0  0  0
 11 12  1  0  0  0  0
 13 11  1  0  0  0  0
 14 12  1  0  0  0  0
 15 18  1  6  0  0  0
 15 14  1  0  0  0  0
 17 13  2  0  0  0  0
 18 19  1  0  0  0  0
 20 18  2  0  0  0  0
 21  1  1  0  0  0  0
 22 21  1  0  0  0  0
 23 24  1  0  0  0  0
 24 22  1  1  0  0  0
 24 27  1  0  0  0  0
 25 27  1  0  0  0  0
 26 23  1  0  0  0  0
 26 25  1  1  0  0  0
 27 38  1  1  0  0  0
 28 32  1  6  0  0  0
 28 30  1  0  0  0  0
 28 26  1  0  0  0  0
 29 32  1  6  0  0  0
 29 28  1  0  0  0  0
 31 35  1  1  0  0  0
 31 33  1  0  0  0  0
 31 34  1  0  0  0  0
 33 30  1  0  0  0  0
 34 29  1  0  0  0  0
 38 36  2  0  0  0  0
 38 37  1  0  0  0  0
M  END
>  <MODEL>
7

>  <REMARK>
 VINA RESULT:      -8.5      2.796      6.313
  Name = 
  10 active torsions:
  status: ('A' for Active; 'I' for Inactive)
    1  A    between atoms: C_2  and  C_28
    2  A    between atoms: C_3  and  C_21
    3  A    between atoms: C_5  and  C_33
    4  A    between atoms: C_9  and  C_19
    5  A    between atoms: C_10  and  C_27
    6  A    between atoms: C_10  and  C_28
    7  A    between atoms: O_15  and  N_17
    8  A    between atoms: O_15  and  C_19
    9  A    between atoms: N_17  and  C_29
   10  A    between atoms: C_34  and  C_35
                            x       y       z     vdW  Elec       q    Type
                         _______ _______ _______ _____ _____    ______ ____

>  <TORSDO>
F 10

$$$$
=
 OpenBabel11062414353D

 38 42  0  0  1  0  0  0  0  0999 V2000
  188.3210  177.6200  139.6140 N   0  0  0  0  0  2  0  0  0  0  0  0
  190.7070  177.1960  139.4680 C   0  0  0  0  0  3  0  0  0  0  0  0
  189.8140  177.8410  141.6130 C   0  0  0  0  0  0  0  0  0  0  0  0
  191.9390  177.1110  140.0310 N   0  0  0  0  0  0  0  0  0  0  0  0
  189.6070  177.5540  140.2480 C   0  0  0  0  0  0  0  0  0  0  0  0
  192.1310  177.3670  141.3260 N   0  0  0  0  0  0  0  0  0  0  0  0
  191.1050  177.7340  142.1340 C   0  0  0  0  0  3  0  0  0  0  0  0
  188.7220  178.3050  142.5240 C   0  0  0  0  0  2  0  0  0  0  0  0
  188.1330  177.1410  143.3140 C   0  0  0  0  0  2  0  0  0  0  0  0
  187.0520  177.5760  145.5940 C   0  0  2  0  0  3  0  0  0  0  0  0
  189.9420  177.4310  146.7420 C   0  0  0  0  0  2  0  0  0  0  0  0
  188.9690  176.7550  147.6950 C   0  0  0  0  0  2  0  0  0  0  0  0
  189.5500  177.2290  145.3040 C   0  0  0  0  0  3  0  0  0  0  0  0
  187.8000  177.6800  148.0370 C   0  0  0  0  0  2  0  0  0  0  0  0
  187.2590  178.4560  146.8290 C   0  0  2  0  0  3  0  0  0  0  0  0
  186.4390  176.3770  145.9140 F   0  0  0  0  0  0  0  0  0  0  0  0
  188.3070  177.3340  144.7870 C   0  0  0  0  0  0  0  0  0  0  0  0
  185.9960  179.1620  147.1930 C   0  0  0  0  0  0  0  0  0  0  0  0
  184.7600  178.5970  146.8980 O   0  0  0  0  0  0  0  0  0  0  0  0
  186.0510  180.2720  147.7810 O   0  0  0  0  0  1  0  0  0  0  0  0
  188.1380  178.0150  138.3310 O   0  0  0  0  0  0  0  0  0  0  0  0
  187.1000  177.2100  137.8510 C   0  0  0  0  0  2  0  0  0  0  0  0
  185.5200  178.9540  138.2540 O   0  0  0  0  0  0  0  0  0  0  0  0
  185.9870  178.0730  137.2580 C   0  0  2  0  0  3  0  0  0  0  0  0
  183.8230  177.3070  137.8380 C   0  0  0  0  0  2  0  0  0  0  0  0
  184.1980  178.5730  138.5780 C   0  0  1  0  0  3  0  0  0  0  0  0
  184.7950  177.2970  136.7090 C   0  0  2  0  0  3  0  0  0  0  0  0
  184.0510  178.3860  140.0820 C   0  0  2  0  0  0  0  0  0  0  0  0
  182.6060  178.4380  140.5580 C   0  0  1  0  0  3  0  0  0  0  0  0
  185.1050  179.0030  141.0190 C   0  0  0  0  0  2  0  0  0  0  0  0
  183.5150  178.5390  142.9920 C   0  0  2  0  0  3  0  0  0  0  0  0
  183.3560  177.1030  140.5020 C   0  0  0  0  0  2  0  0  0  0  0  0
  184.9610  178.5840  142.4860 C   0  0  0  0  0  2  0  0  0  0  0  0
  182.4760  179.0290  141.9760 C   0  0  0  0  0  2  0  0  0  0  0  0
  183.4040  179.2740  144.1710 O   0  0  0  0  0  1  0  0  0  0  0  0
  185.6460  175.7620  135.0930 O   0  0  0  0  0  0  0  0  0  0  0  0
  184.7200  174.7960  136.9510 O   0  0  0  0  0  1  0  0  0  0  0  0
  185.0710  175.9140  136.2010 C   0  0  0  0  0  0  0  0  0  0  0  0
  1  5  1  0  0  0  0
  2  4  2  0  0  0  0
  2  5  1  0  0  0  0
  3  7  1  0  0  0  0
  3  8  1  0  0  0  0
  4  6  1  0  0  0  0
  5  3  2  0  0  0  0
  6  7  2  0  0  0  0
  8  9  1  0  0  0  0
  9 17  1  0  0  0  0
 10 16  1  1  0  0  0
 10 15  1  0  0  0  0
 11 12  1  0  0  0  0
 12 14  1  0  0  0  0
 13 11  1  0  0  0  0
 15 18  1  1  0  0  0
 15 14  1  0  0  0  0
 17 13  2  0  0  0  0
 17 10  1  0  0  0  0
 18 20  1  0  0  0  0
 19 18  2  0  0  0  0
 21  1  1  0  0  0  0
 22 21  1  0  0  0  0
 23 26  1  0  0  0  0
 24 22  1  1  0  0  0
 24 23  1  0  0  0  0
 26 25  1  6  0  0  0
 26 28  1  0  0  0  0
 27 38  1  1  0  0  0
 27 24  1  0  0  0  0
 27 25  1  0  0  0  0
 28 32  1  1  0  0  0
 28 29  1  0  0  0  0
 28 30  1  0  0  0  0
 29 32  1  1  0  0  0
 29 34  1  0  0  0  0
 30 33  1  0  0  0  0
 31 35  1  1  0  0  0
 33 31  1  0  0  0  0
 34 31  1  0  0  0  0
 36 38  2  0  0  0  0
 38 37  1  0  0  0  0
M  END
>  <MODEL>
8

>  <REMARK>
 VINA RESULT:      -8.4      2.123      2.611
  Name = 
  10 active torsions:
  status: ('A' for Active; 'I' for Inactive)
    1  A    between atoms: C_2  and  C_28
    2  A    between atoms: C_3  and  C_21
    3  A    between atoms: C_5  and  C_33
    4  A    between atoms: C_9  and  C_19
    5  A    between atoms: C_10  and  C_27
    6  A    between atoms: C_10  and  C_28
    7  A    between atoms: O_15  and  N_17
    8  A    between atoms: O_15  and  C_19
    9  A    between atoms: N_17  and  C_29
   10  A    between atoms: C_34  and  C_35
                            x       y       z     vdW  Elec       q    Type
                         _______ _______ _______ _____ _____    ______ ____

>  <TORSDO>
F 10

$$$$
=
 OpenBabel11062414353D

 38 42  0  0  1  0  0  0  0  0999 V2000
  186.7760  178.6420  139.8230 N   0  0  0  0  0  2  0  0  0  0  0  0
  188.6660  177.9090  138.4880 C   0  0  0  0  0  3  0  0  0  0  0  0
  188.8810  177.8020  140.8870 C   0  0  0  0  0  0  0  0  0  0  0  0
  189.9200  177.4010  138.3750 N   0  0  0  0  0  0  0  0  0  0  0  0
  188.1080  178.1140  139.7490 C   0  0  0  0  0  0  0  0  0  0  0  0
  190.6450  177.0910  139.4500 N   0  0  0  0  0  0  0  0  0  0  0  0
  190.1630  177.2800  140.7050 C   0  0  0  0  0  3  0  0  0  0  0  0
  188.4120  178.0490  142.2860 C   0  0  0  0  0  2  0  0  0  0  0  0
  189.5030  177.7170  143.2990 C   0  0  0  0  0  2  0  0  0  0  0  0
  187.4630  177.6670  144.8450 C   0  0  2  0  0  3  0  0  0  0  0  0
  189.5140  177.6740  147.1850 C   0  0  0  0  0  2  0  0  0  0  0  0
  188.3510  176.7520  147.5150 C   0  0  0  0  0  2  0  0  0  0  0  0
  189.8460  177.6550  145.7180 C   0  0  0  0  0  3  0  0  0  0  0  0
  187.0130  177.4740  147.3540 C   0  0  0  0  0  2  0  0  0  0  0  0
  186.9420  178.3620  146.1050 C   0  0  2  0  0  3  0  0  0  0  0  0
  186.9870  176.3720  144.7390 F   0  0  0  0  0  0  0  0  0  0  0  0
  188.9660  177.6980  144.6950 C   0  0  0  0  0  0  0  0  0  0  0  0
  185.5490  178.8550  145.9000 C   0  0  0  0  0  0  0  0  0  0  0  0
  185.2050  179.5410  144.7420 O   0  0  0  0  0  0  0  0  0  0  0  0
  184.6780  178.6390  146.7800 O   0  0  0  0  0  1  0  0  0  0  0  0
  185.9510  178.7440  138.7530 O   0  0  0  0  0  0  0  0  0  0  0  0
  184.7170  179.1300  139.2840 C   0  0  0  0  0  2  0  0  0  0  0  0
  182.8810  178.2090  138.0680 O   0  0  0  0  0  0  0  0  0  0  0  0
  183.7110  177.9840  139.1830 C   0  0  2  0  0  3  0  0  0  0  0  0
  181.5840  178.5460  140.0610 C   0  0  0  0  0  2  0  0  0  0  0  0
  181.5790  178.4790  138.5490 C   0  0  1  0  0  3  0  0  0  0  0  0
  182.8240  177.7960  140.4090 C   0  0  2  0  0  3  0  0  0  0  0  0
  181.0470  179.7730  137.9510 C   0  0  2  0  0  0  0  0  0  0  0  0
  180.5860  179.6270  136.5080 C   0  0  1  0  0  3  0  0  0  0  0  0
  181.7260  181.1040  138.3220 C   0  0  0  0  0  2  0  0  0  0  0  0
  180.4270  182.2200  136.3980 C   0  0  2  0  0  3  0  0  0  0  0  0
  179.5610  179.7710  137.6380 C   0  0  0  0  0  2  0  0  0  0  0  0
  180.9860  182.3470  137.8200 C   0  0  0  0  0  2  0  0  0  0  0  0
  180.8040  180.9140  135.6880 C   0  0  0  0  0  2  0  0  0  0  0  0
  180.8360  183.3090  135.6300 O   0  0  0  0  0  1  0  0  0  0  0  0
  184.5710  177.8730  142.0320 O   0  0  0  0  0  0  0  0  0  0  0  0
  182.6680  179.0110  142.6040 O   0  0  0  0  0  1  0  0  0  0  0  0
  183.4020  178.2200  141.7260 C   0  0  0  0  0  0  0  0  0  0  0  0
  2  5  1  0  0  0  0
  3  8  1  0  0  0  0
  4  2  2  0  0  0  0
  4  6  1  0  0  0  0
  5  1  1  0  0  0  0
  5  3  2  0  0  0  0
  6  7  2  0  0  0  0
  7  3  1  0  0  0  0
  8  9  1  0  0  0  0
  9 17  1  0  0  0  0
 10 16  1  1  0  0  0
 10 15  1  0  0  0  0
 11 12  1  0  0  0  0
 13 11  1  0  0  0  0
 14 12  1  0  0  0  0
 15 18  1  6  0  0  0
 15 14  1  0  0  0  0
 17 10  1  0  0  0  0
 17 13  2  0  0  0  0
 18 20  1  0  0  0  0
 19 18  2  0  0  0  0
 21 22  1  0  0  0  0
 21  1  1  0  0  0  0
 23 26  1  0  0  0  0
 23 24  1  0  0  0  0
 24 22  1  1  0  0  0
 24 27  1  0  0  0  0
 25 27  1  0  0  0  0
 26 25  1  1  0  0  0
 27 38  1  1  0  0  0
 28 32  1  1  0  0  0
 28 30  1  0  0  0  0
 28 26  1  0  0  0  0
 29 34  1  6  0  0  0
 29 32  1  0  0  0  0
 29 28  1  0  0  0  0
 31 35  1  6  0  0  0
 31 33  1  0  0  0  0
 33 30  1  0  0  0  0
 34 31  1  0  0  0  0
 38 36  2  0  0  0  0
 38 37  1  0  0  0  0
M  END
>  <MODEL>
9

>  <REMARK>
 VINA RESULT:      -8.2      2.450      4.614
  Name = 
  10 active torsions:
  status: ('A' for Active; 'I' for Inactive)
    1  A    between atoms: C_2  and  C_28
    2  A    between atoms: C_3  and  C_21
    3  A    between atoms: C_5  and  C_33
    4  A    between atoms: C_9  and  C_19
    5  A    between atoms: C_10  and  C_27
    6  A    between atoms: C_10  and  C_28
    7  A    between atoms: O_15  and  N_17
    8  A    between atoms: O_15  and  C_19
    9  A    between atoms: N_17  and  C_29
   10  A    between atoms: C_34  and  C_35
                            x       y       z     vdW  Elec       q    Type
                         _______ _______ _______ _____ _____    ______ ____

>  <TORSDO>
F 10

$$$$
