=
 OpenBabel11062416103D

 59 65  0  0  1  0  0  0  0  0999 V2000
  188.1160  173.4910  135.1580 C   0  0  0  0  0  1  0  0  0  0  0  0
  188.8620  174.3810  136.1400 C   0  0  1  0  0  3  0  0  0  0  0  0
  187.6600  175.1740  138.0120 O   0  0  0  0  0  0  0  0  0  0  0  0
  187.8910  175.3150  136.8210 C   0  0  0  0  0  0  0  0  0  0  0  0
  187.1770  176.4000  136.0680 C   0  0  0  0  0  2  0  0  0  0  0  0
  185.9370  176.6680  136.6540 O   0  0  0  0  0  0  0  0  0  0  0  0
  183.9530  176.7100  135.3930 C   0  0  0  0  0  0  0  0  0  0  0  0
  182.6920  176.3530  135.8160 O   0  0  0  0  0  0  0  0  0  0  0  0
  184.2350  174.9940  136.9500 C   0  0  1  0  0  3  0  0  0  0  0  0
  184.7130  173.5480  136.8970 C   0  0  0  0  0  1  0  0  0  0  0  0
  185.0170  175.8660  135.9670 C   0  0  2  0  0  3  0  0  0  0  0  0
  182.7230  175.2150  136.6610 C   0  0  2  0  0  0  0  0  0  0  0  0
  184.1600  177.6620  134.5970 O   0  0  0  0  0  0  0  0  0  0  0  0
  182.0850  174.0490  135.9010 C   0  0  0  0  0  1  0  0  0  0  0  0
  181.9910  175.5130  137.9920 C   0  0  2  0  0  3  0  0  0  0  0  0
  180.4230  174.5240  139.4800 O   0  0  0  0  0  0  0  0  0  0  0  0
  181.0750  174.4130  138.4540 C   0  0  0  0  0  3  0  0  0  0  0  0
  181.3360  176.8950  138.1370 C   0  0  2  0  0  3  0  0  0  0  0  0
  180.5610  177.2540  136.9560 N   0  0  0  0  0  2  0  0  0  0  0  0
  179.3500  177.9060  137.4250 C   0  0  0  0  0  1  0  0  0  0  0  0
  182.3890  177.9540  138.4430 C   0  0  0  0  0  2  0  0  0  0  0  0
  182.5600  178.1520  139.9150 C   0  0  0  0  0  0  0  0  0  0  0  0
  180.4550  179.3080  140.1310 N   0  0  0  0  0  2  0  0  0  0  0  0
  183.8870  177.8380  141.9910 C   0  0  0  0  0  2  0  0  0  0  0  0
  181.7430  179.1430  142.1610 C   0  0  0  0  0  2  0  0  0  0  0  0
  183.6680  177.6990  140.5130 C   0  0  0  0  0  3  0  0  0  0  0  0
  181.5460  178.9020  140.6940 C   0  0  0  0  0  0  0  0  0  0  0  0
  183.2360  179.1180  142.5170 C   0  0  1  0  0  3  0  0  0  0  0  0
  183.4880  179.2820  144.0150 C   0  0  0  0  0  3  0  0  0  0  0  0
  182.3190  178.7490  144.8230 C   0  0  0  0  0  1  0  0  0  0  0  0
  184.7790  178.6180  144.4710 C   0  0  0  0  0  1  0  0  0  0  0  0
  189.6200  173.5130  137.1410 C   0  0  0  0  0  2  0  0  0  0  0  0
  191.3430  175.1740  137.7460 C   0  0  0  0  0  0  0  0  0  0  0  0
  191.6000  173.8540  135.8340 O   0  0  0  0  0  0  0  0  0  0  0  0
  191.1100  173.8340  137.1570 C   0  0  2  0  0  3  0  0  0  0  0  0
  191.9920  176.0440  136.7440 C   0  0  2  0  0  3  0  0  0  0  0  0
  191.8760  175.1990  135.4900 C   0  0  2  0  0  3  0  0  0  0  0  0
  190.7760  175.7430  134.5950 C   0  0  0  0  0  1  0  0  0  0  0  0
  190.9000  175.5060  138.9800 C   0  0  0  0  0  3  0  0  0  0  0  0
  189.2370  176.4540  142.8870 C   0  0  1  0  0  3  0  0  0  0  0  0
  190.9210  176.8320  139.7110 C   0  0  2  0  0  3  0  0  0  0  0  0
  192.2470  177.2300  140.1800 C   0  0  0  0  0  2  0  0  0  0  0  0
  187.8910  177.6960  140.6430 O   0  0  0  0  0  0  0  0  0  0  0  0
  187.9040  177.1690  143.0510 C   0  0  0  0  0  2  0  0  0  0  0  0
  191.2410  176.6730  141.2150 C   0  0  2  0  0  0  0  0  0  0  0  0
  187.8200  178.2130  141.9460 C   0  0  1  0  0  0  0  0  0  0  0  0
  189.0040  175.1430  142.4650 O   0  0  0  0  0  1  0  0  0  0  0  0
  189.0620  178.3010  141.1640 C   0  0  1  0  0  3  0  0  0  0  0  0
  189.9630  177.2340  141.7840 C   0  0  1  0  0  0  0  0  0  0  0  0
  186.9860  179.4720  142.0670 C   0  0  0  0  0  1  0  0  0  0  0  0
  191.2370  177.8390  142.1500 N   0  0  0  0  0  0  0  0  0  0  0  0
  191.7840  177.3500  143.4160 C   0  0  0  0  0  2  0  0  0  0  0  0
  191.4200  178.3040  144.5460 C   0  0  0  0  0  2  0  0  0  0  0  0
  191.3530  177.5780  145.8840 C   0  0  0  0  0  2  0  0  0  0  0  0
  189.9600  177.3750  146.2930 C   0  0  0  0  0  0  0  0  0  0  0  0
  188.8180  177.2060  146.6330 C   0  0  0  0  0  3  0  0  0  0  0  0
  193.4500  176.2740  137.0400 C   0  0  0  0  0  0  0  0  0  0  0  0
  194.3080  175.2130  137.6530 C   0  0  0  0  0  1  0  0  0  0  0  0
  193.9600  177.3390  136.7290 O   0  0  0  0  0  0  0  0  0  0  0  0
  2  1  1  6  0  0  0
  2  4  1  0  0  0  0
  2 32  1  0  0  0  0
  4  3  2  0  0  0  0
  5  6  1  0  0  0  0
  5  4  1  0  0  0  0
  7  8  1  0  0  0  0
  7 11  1  0  0  0  0
  8 12  1  0  0  0  0
  9 10  1  6  0  0  0
 11  6  1  1  0  0  0
 11  9  1  0  0  0  0
 12 14  1  6  0  0  0
 12  9  1  0  0  0  0
 12 15  1  0  0  0  0
 13  7  2  0  0  0  0
 15 18  1  0  0  0  0
 15 17  1  6  0  0  0
 17 16  2  0  0  0  0
 18 21  1  6  0  0  0
 19 20  1  0  0  0  0
 19 18  1  0  0  0  0
 21 22  1  0  0  0  0
 22 26  2  0  0  0  0
 22 27  1  0  0  0  0
 23 27  2  0  0  0  0
 24 28  1  0  0  0  0
 25 28  1  0  0  0  0
 26 24  1  0  0  0  0
 27 25  1  0  0  0  0
 28 29  1  1  0  0  0
 29 31  1  0  0  0  0
 29 30  1  0  0  0  0
 33 39  2  0  0  0  0
 34 35  1  0  0  0  0
 35 32  1  6  0  0  0
 35 33  1  0  0  0  0
 36 57  1  1  0  0  0
 36 33  1  0  0  0  0
 37 38  1  6  0  0  0
 37 34  1  0  0  0  0
 37 36  1  0  0  0  0
 40 47  1  6  0  0  0
 40 44  1  0  0  0  0
 41 39  1  6  0  0  0
 41 42  1  0  0  0  0
 41 45  1  0  0  0  0
 43 46  1  0  0  0  0
 45 42  1  1  0  0  0
 45 49  1  0  0  0  0
 45 51  1  0  0  0  0
 46 50  1  1  0  0  0
 46 44  1  0  0  0  0
 48 43  1  6  0  0  0
 48 49  1  0  0  0  0
 48 46  1  0  0  0  0
 49 51  1  1  0  0  0
 49 40  1  0  0  0  0
 51 52  1  0  0  0  0
 52 53  1  0  0  0  0
 53 54  1  0  0  0  0
 54 55  1  0  0  0  0
 55 56  3  0  0  0  0
 57 58  1  0  0  0  0
 59 57  2  0  0  0  0
M  END
>  <MODEL>
1

>  <REMARK>
 VINA RESULT:      -5.4      0.000      0.000
  Name = 
  19 active torsions:
  status: ('A' for Active; 'I' for Inactive)
    1  A    between atoms: C_4  and  C_13
    2  A    between atoms: C_4  and  C_34
    3  A    between atoms: C_6  and  C_57
    4  A    between atoms: C_8  and  C_27
    5  A    between atoms: C_8  and  C_29
    6  A    between atoms: C_8  and  C_42
    7  A    between atoms: C_9  and  C_25
    8  A    between atoms: C_9  and  C_29
    9  A    between atoms: C_11  and  C_34
   10  A    between atoms: N_12  and  C_29
   11  A    between atoms: C_13  and  N_59
   12  A    between atoms: C_14  and  C_56
   13  A    between atoms: C_21  and  C_45
   14  A    between atoms: C_26  and  O_38
   15  A    between atoms: C_32  and  O_38
   16  A    between atoms: C_32  and  C_55
   17  A    between atoms: C_35  and  C_40
   18  A    between atoms: C_35  and  C_51
   19  A    between atoms: C_51  and  C_55
                            x       y       z     vdW  Elec       q    Type
                         _______ _______ _______ _____ _____    ______ ____

>  <TORSDO>
F 19

$$$$
=
 OpenBabel11062416103D

 59 65  0  0  1  0  0  0  0  0999 V2000
  187.6570  177.5650  144.9020 C   0  0  0  0  0  1  0  0  0  0  0  0
  186.6880  177.2420  143.7750 C   0  0  1  0  0  3  0  0  0  0  0  0
  184.9500  178.3390  144.9390 O   0  0  0  0  0  0  0  0  0  0  0  0
  185.4870  178.1520  143.8580 C   0  0  0  0  0  0  0  0  0  0  0  0
  184.9140  178.8170  142.6390 C   0  0  0  0  0  2  0  0  0  0  0  0
  183.7470  178.1650  142.2300 O   0  0  0  0  0  0  0  0  0  0  0  0
  184.3960  179.1510  140.1960 C   0  0  0  0  0  0  0  0  0  0  0  0
  183.5720  179.5760  139.1790 O   0  0  0  0  0  0  0  0  0  0  0  0
  182.5550  177.7160  140.1890 C   0  0  1  0  0  3  0  0  0  0  0  0
  182.3270  176.2440  139.8670 C   0  0  0  0  0  1  0  0  0  0  0  0
  183.9130  177.9250  140.8600 C   0  0  2  0  0  3  0  0  0  0  0  0
  182.4830  178.6900  138.9800 C   0  0  2  0  0  0  0  0  0  0  0  0
  185.4520  179.7560  140.5160 O   0  0  0  0  0  0  0  0  0  0  0  0
  182.6880  177.9870  137.6350 C   0  0  0  0  0  1  0  0  0  0  0  0
  181.1430  179.4650  139.0320 C   0  0  2  0  0  3  0  0  0  0  0  0
  180.0490  180.5880  140.8190 O   0  0  0  0  0  0  0  0  0  0  0  0
  180.5280  179.5450  140.4030 C   0  0  0  0  0  3  0  0  0  0  0  0
  180.0970  179.1270  137.9600 C   0  0  2  0  0  3  0  0  0  0  0  0
  179.5030  180.3270  137.3850 N   0  0  0  0  0  2  0  0  0  0  0  0
  180.3680  180.7510  136.2970 C   0  0  0  0  0  1  0  0  0  0  0  0
  179.0260  178.2060  138.5310 C   0  0  0  0  0  2  0  0  0  0  0  0
  179.1790  176.8050  138.0300 C   0  0  0  0  0  0  0  0  0  0  0  0
  178.9310  175.8570  140.2330 N   0  0  0  0  0  2  0  0  0  0  0  0
  179.5170  175.2130  136.1540 C   0  0  0  0  0  2  0  0  0  0  0  0
  179.3730  174.2650  138.4800 C   0  0  0  0  0  2  0  0  0  0  0  0
  179.3870  176.5950  136.7250 C   0  0  0  0  0  3  0  0  0  0  0  0
  179.1700  175.6640  138.9770 C   0  0  0  0  0  0  0  0  0  0  0  0
  180.1670  174.2680  137.1660 C   0  0  1  0  0  3  0  0  0  0  0  0
  180.3360  172.8690  136.5750 C   0  0  0  0  0  3  0  0  0  0  0  0
  180.3270  172.9170  135.0580 C   0  0  0  0  0  1  0  0  0  0  0  0
  181.5970  172.1710  137.0640 C   0  0  0  0  0  1  0  0  0  0  0  0
  187.4070  177.3610  142.4350 C   0  0  0  0  0  2  0  0  0  0  0  0
  189.5870  177.7150  141.3310 C   0  0  0  0  0  0  0  0  0  0  0  0
  189.4930  177.1220  143.5900 O   0  0  0  0  0  0  0  0  0  0  0  0
  188.8330  177.8760  142.5970 C   0  0  2  0  0  3  0  0  0  0  0  0
  190.7450  176.8260  141.5580 C   0  0  2  0  0  3  0  0  0  0  0  0
  190.4510  176.2980  142.9490 C   0  0  2  0  0  3  0  0  0  0  0  0
  189.9370  174.8710  142.8680 C   0  0  0  0  0  1  0  0  0  0  0  0
  189.1550  178.2430  140.1630 C   0  0  0  0  0  3  0  0  0  0  0  0
  188.3150  175.1120  137.2620 C   0  0  1  0  0  3  0  0  0  0  0  0
  189.6960  178.0990  138.7560 C   0  0  2  0  0  3  0  0  0  0  0  0
  189.1900  179.1010  137.8200 C   0  0  0  0  0  2  0  0  0  0  0  0
  191.0120  175.1210  138.3140 O   0  0  0  0  0  0  0  0  0  0  0  0
  189.2750  173.9580  137.0100 C   0  0  0  0  0  2  0  0  0  0  0  0
  188.6080  177.6690  137.7450 C   0  0  2  0  0  0  0  0  0  0  0  0
  190.6840  174.5280  137.0860 C   0  0  1  0  0  0  0  0  0  0  0  0
  187.6960  174.9300  138.5010 O   0  0  0  0  0  1  0  0  0  0  0  0
  190.6890  175.9900  137.2430 C   0  0  1  0  0  3  0  0  0  0  0  0
  189.2070  176.3580  137.3050 C   0  0  1  0  0  0  0  0  0  0  0  0
  191.8630  173.9040  136.3660 C   0  0  0  0  0  1  0  0  0  0  0  0
  188.9300  177.3880  136.3140 N   0  0  0  0  0  0  0  0  0  0  0  0
  187.6460  177.2240  135.6310 C   0  0  0  0  0  2  0  0  0  0  0  0
  186.5100  177.2180  136.6450 C   0  0  0  0  0  2  0  0  0  0  0  0
  185.1790  176.8820  135.9860 C   0  0  0  0  0  2  0  0  0  0  0  0
  184.8350  175.4740  136.2030 C   0  0  0  0  0  0  0  0  0  0  0  0
  184.5570  174.3160  136.3790 C   0  0  0  0  0  3  0  0  0  0  0  0
  192.0490  177.5770  141.5910 C   0  0  0  0  0  0  0  0  0  0  0  0
  192.9690  177.6110  140.4110 C   0  0  0  0  0  1  0  0  0  0  0  0
  192.3440  178.2140  142.5880 O   0  0  0  0  0  0  0  0  0  0  0  0
  2  4  1  0  0  0  0
  2  1  1  1  0  0  0
  4  3  2  0  0  0  0
  5  4  1  0  0  0  0
  6  5  1  0  0  0  0
  7 13  2  0  0  0  0
  7 11  1  0  0  0  0
  8  7  1  0  0  0  0
  9 10  1  6  0  0  0
  9 11  1  0  0  0  0
 11  6  1  1  0  0  0
 12 14  1  6  0  0  0
 12 15  1  0  0  0  0
 12  8  1  0  0  0  0
 12  9  1  0  0  0  0
 15 17  1  1  0  0  0
 17 16  2  0  0  0  0
 18 21  1  1  0  0  0
 18 15  1  0  0  0  0
 19 18  1  0  0  0  0
 20 19  1  0  0  0  0
 22 21  1  0  0  0  0
 22 27  1  0  0  0  0
 24 26  1  0  0  0  0
 24 28  1  0  0  0  0
 25 27  1  0  0  0  0
 26 22  2  0  0  0  0
 27 23  2  0  0  0  0
 28 29  1  6  0  0  0
 28 25  1  0  0  0  0
 29 31  1  0  0  0  0
 30 29  1  0  0  0  0
 32  2  1  0  0  0  0
 33 36  1  0  0  0  0
 33 35  1  0  0  0  0
 35 32  1  6  0  0  0
 35 34  1  0  0  0  0
 36 57  1  1  0  0  0
 36 37  1  0  0  0  0
 37 38  1  6  0  0  0
 37 34  1  0  0  0  0
 39 33  2  0  0  0  0
 40 49  1  0  0  0  0
 40 47  1  1  0  0  0
 41 39  1  1  0  0  0
 42 41  1  0  0  0  0
 44 46  1  0  0  0  0
 44 40  1  0  0  0  0
 45 42  1  1  0  0  0
 45 41  1  0  0  0  0
 46 50  1  6  0  0  0
 46 48  1  0  0  0  0
 46 43  1  0  0  0  0
 48 49  1  0  0  0  0
 48 43  1  1  0  0  0
 49 51  1  6  0  0  0
 49 45  1  0  0  0  0
 51 45  1  0  0  0  0
 52 51  1  0  0  0  0
 52 53  1  0  0  0  0
 54 55  1  0  0  0  0
 54 53  1  0  0  0  0
 55 56  3  0  0  0  0
 57 59  2  0  0  0  0
 58 57  1  0  0  0  0
M  END
>  <MODEL>
2

>  <REMARK>
 VINA RESULT:      -5.0      2.379      6.780
  Name = 
  19 active torsions:
  status: ('A' for Active; 'I' for Inactive)
    1  A    between atoms: C_4  and  C_13
    2  A    between atoms: C_4  and  C_34
    3  A    between atoms: C_6  and  C_57
    4  A    between atoms: C_8  and  C_27
    5  A    between atoms: C_8  and  C_29
    6  A    between atoms: C_8  and  C_42
    7  A    between atoms: C_9  and  C_25
    8  A    between atoms: C_9  and  C_29
    9  A    between atoms: C_11  and  C_34
   10  A    between atoms: N_12  and  C_29
   11  A    between atoms: C_13  and  N_59
   12  A    between atoms: C_14  and  C_56
   13  A    between atoms: C_21  and  C_45
   14  A    between atoms: C_26  and  O_38
   15  A    between atoms: C_32  and  O_38
   16  A    between atoms: C_32  and  C_55
   17  A    between atoms: C_35  and  C_40
   18  A    between atoms: C_35  and  C_51
   19  A    between atoms: C_51  and  C_55
                            x       y       z     vdW  Elec       q    Type
                         _______ _______ _______ _____ _____    ______ ____

>  <TORSDO>
F 19

$$$$
=
 OpenBabel11062416103D

 59 65  0  0  1  0  0  0  0  0999 V2000
  190.4830  178.1960  142.3440 C   0  0  0  0  0  1  0  0  0  0  0  0
  189.0340  177.8820  142.0060 C   0  0  1  0  0  3  0  0  0  0  0  0
  187.7100  178.6470  140.2050 O   0  0  0  0  0  0  0  0  0  0  0  0
  188.7790  178.1620  140.5450 C   0  0  0  0  0  0  0  0  0  0  0  0
  189.7930  177.8340  139.4880 C   0  0  0  0  0  2  0  0  0  0  0  0
  189.7180  176.4820  139.1400 O   0  0  0  0  0  0  0  0  0  0  0  0
  189.4340  177.4310  137.0070 C   0  0  0  0  0  0  0  0  0  0  0  0
  188.7380  176.8970  135.9460 O   0  0  0  0  0  0  0  0  0  0  0  0
  189.6620  175.1140  137.1620 C   0  0  1  0  0  3  0  0  0  0  0  0
  190.8100  174.1230  137.0100 C   0  0  0  0  0  1  0  0  0  0  0  0
  190.1420  176.4140  137.8070 C   0  0  2  0  0  3  0  0  0  0  0  0
  188.9230  175.4950  135.8480 C   0  0  2  0  0  0  0  0  0  0  0  0
  189.4550  178.6640  137.2570 O   0  0  0  0  0  0  0  0  0  0  0  0
  189.7560  175.2170  134.5940 C   0  0  0  0  0  1  0  0  0  0  0  0
  187.5540  174.7730  135.8090 C   0  0  2  0  0  3  0  0  0  0  0  0
  187.3590  172.4630  135.2860 O   0  0  0  0  0  0  0  0  0  0  0  0
  187.4990  173.6010  134.8680 C   0  0  0  0  0  3  0  0  0  0  0  0
  186.3010  175.6540  135.6930 C   0  0  2  0  0  3  0  0  0  0  0  0
  185.8890  176.1850  136.9860 N   0  0  0  0  0  2  0  0  0  0  0  0
  185.6880  177.6140  136.8150 C   0  0  0  0  0  1  0  0  0  0  0  0
  185.1660  174.8820  135.0320 C   0  0  0  0  0  2  0  0  0  0  0  0
  183.9040  174.9670  135.8310 C   0  0  0  0  0  0  0  0  0  0  0  0
  184.5260  173.1180  137.2480 N   0  0  0  0  0  2  0  0  0  0  0  0
  181.7190  176.0530  136.2970 C   0  0  0  0  0  2  0  0  0  0  0  0
  182.3460  174.0470  137.6800 C   0  0  0  0  0  2  0  0  0  0  0  0
  182.9910  175.8950  135.5170 C   0  0  0  0  0  3  0  0  0  0  0  0
  183.6330  173.9910  136.9140 C   0  0  0  0  0  0  0  0  0  0  0  0
  181.2440  174.7040  136.8380 C   0  0  1  0  0  3  0  0  0  0  0  0
  179.9280  174.8550  137.6010 C   0  0  0  0  0  3  0  0  0  0  0  0
  178.9310  173.7920  137.1790 C   0  0  0  0  0  1  0  0  0  0  0  0
  180.1160  174.8180  139.1110 C   0  0  0  0  0  1  0  0  0  0  0  0
  188.7260  176.4340  142.3740 C   0  0  0  0  0  2  0  0  0  0  0  0
  186.9750  177.4280  143.8020 C   0  0  0  0  0  0  0  0  0  0  0  0
  188.8700  176.4590  144.7660 O   0  0  0  0  0  0  0  0  0  0  0  0
  187.9650  176.3310  143.6920 C   0  0  2  0  0  3  0  0  0  0  0  0
  187.2900  178.2590  144.9830 C   0  0  2  0  0  3  0  0  0  0  0  0
  188.6530  177.7200  145.3750 C   0  0  2  0  0  3  0  0  0  0  0  0
  189.7400  178.6940  144.9540 C   0  0  0  0  0  1  0  0  0  0  0  0
  186.0230  177.6370  142.8640 C   0  0  0  0  0  3  0  0  0  0  0  0
  182.4100  177.6940  140.4410 C   0  0  1  0  0  3  0  0  0  0  0  0
  185.0080  178.7520  142.7210 C   0  0  2  0  0  3  0  0  0  0  0  0
  184.2060  178.9820  143.9210 C   0  0  0  0  0  2  0  0  0  0  0  0
  184.5140  179.4760  139.5540 O   0  0  0  0  0  0  0  0  0  0  0  0
  182.3470  178.3960  139.0920 C   0  0  0  0  0  2  0  0  0  0  0  0
  183.5520  178.2320  142.7360 C   0  0  2  0  0  0  0  0  0  0  0  0
  183.1660  179.6730  139.2170 C   0  0  1  0  0  0  0  0  0  0  0  0
  183.1690  176.5290  140.3150 O   0  0  0  0  0  1  0  0  0  0  0  0
  183.6440  179.9000  140.5880 C   0  0  1  0  0  3  0  0  0  0  0  0
  183.1300  178.6860  141.3620 C   0  0  1  0  0  0  0  0  0  0  0  0
  182.9160  180.8970  138.3580 C   0  0  0  0  0  1  0  0  0  0  0  0
  182.3870  179.1440  142.5290 N   0  0  0  0  0  0  0  0  0  0  0  0
  181.1910  178.3520  142.8180 C   0  0  0  0  0  2  0  0  0  0  0  0
  180.2030  179.1750  143.6350 C   0  0  0  0  0  2  0  0  0  0  0  0
  179.6200  180.3170  142.8130 C   0  0  0  0  0  2  0  0  0  0  0  0
  179.2570  179.8550  141.4700 C   0  0  0  0  0  0  0  0  0  0  0  0
  178.9550  179.4760  140.3670 C   0  0  0  0  0  3  0  0  0  0  0  0
  186.3330  178.0290  146.1210 C   0  0  0  0  0  0  0  0  0  0  0  0
  186.0250  179.0970  147.1210 C   0  0  0  0  0  1  0  0  0  0  0  0
  185.7550  176.9570  146.2050 O   0  0  0  0  0  0  0  0  0  0  0  0
  2  1  1  6  0  0  0
  2 32  1  0  0  0  0
  3  4  2  0  0  0  0
  4  2  1  0  0  0  0
  5  4  1  0  0  0  0
  6  5  1  0  0  0  0
  7 13  2  0  0  0  0
  7 11  1  0  0  0  0
  8  7  1  0  0  0  0
  9 10  1  6  0  0  0
  9 11  1  0  0  0  0
 11  6  1  1  0  0  0
 12 14  1  6  0  0  0
 12  8  1  0  0  0  0
 12  9  1  0  0  0  0
 15 17  1  6  0  0  0
 15 12  1  0  0  0  0
 17 16  2  0  0  0  0
 18 21  1  1  0  0  0
 18 15  1  0  0  0  0
 18 19  1  0  0  0  0
 20 19  1  0  0  0  0
 21 22  1  0  0  0  0
 22 27  1  0  0  0  0
 24 28  1  0  0  0  0
 26 22  2  0  0  0  0
 26 24  1  0  0  0  0
 27 23  2  0  0  0  0
 27 25  1  0  0  0  0
 28 29  1  1  0  0  0
 28 25  1  0  0  0  0
 29 31  1  0  0  0  0
 30 29  1  0  0  0  0
 33 36  1  0  0  0  0
 34 37  1  0  0  0  0
 35 32  1  6  0  0  0
 35 33  1  0  0  0  0
 35 34  1  0  0  0  0
 36 37  1  0  0  0  0
 36 57  1  1  0  0  0
 37 38  1  6  0  0  0
 39 33  2  0  0  0  0
 40 47  1  6  0  0  0
 40 49  1  0  0  0  0
 41 45  1  0  0  0  0
 41 39  1  1  0  0  0
 41 42  1  0  0  0  0
 44 46  1  0  0  0  0
 44 40  1  0  0  0  0
 45 42  1  1  0  0  0
 46 50  1  6  0  0  0
 46 43  1  0  0  0  0
 46 48  1  0  0  0  0
 48 43  1  6  0  0  0
 48 49  1  0  0  0  0
 49 51  1  1  0  0  0
 49 45  1  0  0  0  0
 51 45  1  0  0  0  0
 51 52  1  0  0  0  0
 52 53  1  0  0  0  0
 54 53  1  0  0  0  0
 55 54  1  0  0  0  0
 56 55  3  0  0  0  0
 57 59  2  0  0  0  0
 57 58  1  0  0  0  0
M  END
>  <MODEL>
3

>  <REMARK>
 VINA RESULT:      -4.9      2.418      7.905
  Name = 
  19 active torsions:
  status: ('A' for Active; 'I' for Inactive)
    1  A    between atoms: C_4  and  C_13
    2  A    between atoms: C_4  and  C_34
    3  A    between atoms: C_6  and  C_57
    4  A    between atoms: C_8  and  C_27
    5  A    between atoms: C_8  and  C_29
    6  A    between atoms: C_8  and  C_42
    7  A    between atoms: C_9  and  C_25
    8  A    between atoms: C_9  and  C_29
    9  A    between atoms: C_11  and  C_34
   10  A    between atoms: N_12  and  C_29
   11  A    between atoms: C_13  and  N_59
   12  A    between atoms: C_14  and  C_56
   13  A    between atoms: C_21  and  C_45
   14  A    between atoms: C_26  and  O_38
   15  A    between atoms: C_32  and  O_38
   16  A    between atoms: C_32  and  C_55
   17  A    between atoms: C_35  and  C_40
   18  A    between atoms: C_35  and  C_51
   19  A    between atoms: C_51  and  C_55
                            x       y       z     vdW  Elec       q    Type
                         _______ _______ _______ _____ _____    ______ ____

>  <TORSDO>
F 19

$$$$
=
 OpenBabel11062416103D

 59 65  0  0  1  0  0  0  0  0999 V2000
  183.3870  178.0970  143.1720 C   0  0  0  0  0  1  0  0  0  0  0  0
  184.6920  178.7730  142.7810 C   0  0  1  0  0  3  0  0  0  0  0  0
  185.7160  179.2780  140.7140 O   0  0  0  0  0  0  0  0  0  0  0  0
  184.6630  179.1310  141.3150 C   0  0  0  0  0  0  0  0  0  0  0  0
  183.3720  179.3410  140.5780 C   0  0  0  0  0  2  0  0  0  0  0  0
  182.8620  178.1190  140.1270 O   0  0  0  0  0  0  0  0  0  0  0  0
  180.5390  177.8280  140.3480 C   0  0  0  0  0  0  0  0  0  0  0  0
  179.7370  176.9740  139.6250 O   0  0  0  0  0  0  0  0  0  0  0  0
  181.4710  177.6880  138.2130 C   0  0  1  0  0  3  0  0  0  0  0  0
  181.6450  178.6460  137.0400 C   0  0  0  0  0  1  0  0  0  0  0  0
  181.6250  178.4220  139.5450 C   0  0  2  0  0  3  0  0  0  0  0  0
  180.1190  176.9210  138.2620 C   0  0  2  0  0  0  0  0  0  0  0  0
  180.3530  178.0680  141.5700 O   0  0  0  0  0  0  0  0  0  0  0  0
  179.0200  177.5970  137.4380 C   0  0  0  0  0  1  0  0  0  0  0  0
  180.3540  175.4540  137.8250 C   0  0  2  0  0  3  0  0  0  0  0  0
  179.9800  173.3540  138.8740 O   0  0  0  0  0  0  0  0  0  0  0  0
  180.4500  174.4770  138.9650 C   0  0  0  0  0  3  0  0  0  0  0  0
  181.4410  175.2030  136.7690 C   0  0  2  0  0  3  0  0  0  0  0  0
  180.8920  174.6170  135.5540 N   0  0  0  0  0  2  0  0  0  0  0  0
  181.8650  173.6530  135.0690 C   0  0  0  0  0  1  0  0  0  0  0  0
  182.5510  174.3320  137.3440 C   0  0  0  0  0  2  0  0  0  0  0  0
  183.9050  174.8880  137.0350 C   0  0  0  0  0  0  0  0  0  0  0  0
  185.0360  172.9060  137.8130 N   0  0  0  0  0  2  0  0  0  0  0  0
  185.3310  176.7250  136.1620 C   0  0  0  0  0  2  0  0  0  0  0  0
  186.4840  174.6920  137.0910 C   0  0  0  0  0  2  0  0  0  0  0  0
  184.0050  176.1210  136.5230 C   0  0  0  0  0  3  0  0  0  0  0  0
  185.1270  174.1120  137.3550 C   0  0  0  0  0  0  0  0  0  0  0  0
  186.4280  176.2250  137.1020 C   0  0  1  0  0  3  0  0  0  0  0  0
  187.7720  176.8670  136.7610 C   0  0  0  0  0  3  0  0  0  0  0  0
  188.2070  176.4990  135.3550 C   0  0  0  0  0  1  0  0  0  0  0  0
  187.7590  178.3810  136.9190 C   0  0  0  0  0  1  0  0  0  0  0  0
  184.9180  179.9950  143.6660 C   0  0  0  0  0  2  0  0  0  0  0  0
  186.7520  178.5010  144.3730 C   0  0  0  0  0  0  0  0  0  0  0  0
  185.5140  179.6820  145.9660 O   0  0  0  0  0  0  0  0  0  0  0  0
  186.0500  179.7730  144.6640 C   0  0  2  0  0  3  0  0  0  0  0  0
  186.6360  177.5990  145.5380 C   0  0  2  0  0  3  0  0  0  0  0  0
  185.6180  178.3340  146.3880 C   0  0  2  0  0  3  0  0  0  0  0  0
  184.2640  177.6530  146.2880 C   0  0  0  0  0  1  0  0  0  0  0  0
  187.2970  178.2380  143.1640 C   0  0  0  0  0  3  0  0  0  0  0  0
  191.4570  177.5930  142.0690 C   0  0  1  0  0  3  0  0  0  0  0  0
  187.9400  176.9780  142.6250 C   0  0  2  0  0  3  0  0  0  0  0  0
  188.0290  175.8930  143.6010 C   0  0  0  0  0  2  0  0  0  0  0  0
  189.5920  177.6060  139.8550 O   0  0  0  0  0  0  0  0  0  0  0  0
  191.9330  177.6290  140.6240 C   0  0  0  0  0  2  0  0  0  0  0  0
  189.3140  176.6900  143.2730 C   0  0  2  0  0  0  0  0  0  0  0  0
  190.8440  176.9780  139.7820 C   0  0  1  0  0  0  0  0  0  0  0  0
  191.1670  178.8940  142.4870 O   0  0  0  0  0  1  0  0  0  0  0  0
  189.7620  176.4150  140.6030 C   0  0  1  0  0  3  0  0  0  0  0  0
  190.1720  176.7590  142.0360 C   0  0  1  0  0  0  0  0  0  0  0  0
  191.1240  176.3090  138.4520 C   0  0  0  0  0  1  0  0  0  0  0  0
  190.1660  175.5430  142.8380 N   0  0  0  0  0  0  0  0  0  0  0  0
  191.2650  175.4630  143.8000 C   0  0  0  0  0  2  0  0  0  0  0  0
  190.8150  175.9930  145.1550 C   0  0  0  0  0  2  0  0  0  0  0  0
  191.9450  176.7290  145.8650 C   0  0  0  0  0  2  0  0  0  0  0  0
  192.1750  176.1620  147.1970 C   0  0  0  0  0  0  0  0  0  0  0  0
  192.3620  175.6910  148.2890 C   0  0  0  0  0  3  0  0  0  0  0  0
  187.9230  177.4870  146.3100 C   0  0  0  0  0  0  0  0  0  0  0  0
  188.1210  176.4470  147.3670 C   0  0  0  0  0  1  0  0  0  0  0  0
  188.8480  178.2350  146.0370 O   0  0  0  0  0  0  0  0  0  0  0  0
  2  1  1  1  0  0  0
  2 32  1  0  0  0  0
  3  4  2  0  0  0  0
  4  2  1  0  0  0  0
  5  4  1  0  0  0  0
  6  5  1  0  0  0  0
  7 13  2  0  0  0  0
  8  7  1  0  0  0  0
  9 10  1  6  0  0  0
  9 12  1  0  0  0  0
  9 11  1  0  0  0  0
 11  6  1  1  0  0  0
 11  7  1  0  0  0  0
 12 14  1  6  0  0  0
 12  8  1  0  0  0  0
 15 12  1  0  0  0  0
 15 17  1  1  0  0  0
 16 17  2  0  0  0  0
 18 21  1  1  0  0  0
 18 15  1  0  0  0  0
 19 18  1  0  0  0  0
 20 19  1  0  0  0  0
 22 21  1  0  0  0  0
 22 27  1  0  0  0  0
 24 26  1  0  0  0  0
 24 28  1  0  0  0  0
 25 28  1  0  0  0  0
 25 27  1  0  0  0  0
 26 22  2  0  0  0  0
 27 23  2  0  0  0  0
 28 29  1  6  0  0  0
 29 31  1  0  0  0  0
 30 29  1  0  0  0  0
 33 35  1  0  0  0  0
 33 36  1  0  0  0  0
 34 37  1  0  0  0  0
 35 32  1  6  0  0  0
 35 34  1  0  0  0  0
 36 57  1  1  0  0  0
 36 37  1  0  0  0  0
 37 38  1  6  0  0  0
 39 33  2  0  0  0  0
 40 47  1  6  0  0  0
 41 39  1  1  0  0  0
 41 45  1  0  0  0  0
 41 42  1  0  0  0  0
 44 40  1  0  0  0  0
 45 42  1  1  0  0  0
 46 50  1  6  0  0  0
 46 43  1  0  0  0  0
 46 48  1  0  0  0  0
 46 44  1  0  0  0  0
 48 43  1  6  0  0  0
 48 49  1  0  0  0  0
 49 40  1  0  0  0  0
 49 51  1  1  0  0  0
 49 45  1  0  0  0  0
 51 45  1  0  0  0  0
 51 52  1  0  0  0  0
 52 53  1  0  0  0  0
 53 54  1  0  0  0  0
 54 55  1  0  0  0  0
 55 56  3  0  0  0  0
 57 58  1  0  0  0  0
 59 57  2  0  0  0  0
M  END
>  <MODEL>
4

>  <REMARK>
 VINA RESULT:      -4.9      2.498      6.842
  Name = 
  19 active torsions:
  status: ('A' for Active; 'I' for Inactive)
    1  A    between atoms: C_4  and  C_13
    2  A    between atoms: C_4  and  C_34
    3  A    between atoms: C_6  and  C_57
    4  A    between atoms: C_8  and  C_27
    5  A    between atoms: C_8  and  C_29
    6  A    between atoms: C_8  and  C_42
    7  A    between atoms: C_9  and  C_25
    8  A    between atoms: C_9  and  C_29
    9  A    between atoms: C_11  and  C_34
   10  A    between atoms: N_12  and  C_29
   11  A    between atoms: C_13  and  N_59
   12  A    between atoms: C_14  and  C_56
   13  A    between atoms: C_21  and  C_45
   14  A    between atoms: C_26  and  O_38
   15  A    between atoms: C_32  and  O_38
   16  A    between atoms: C_32  and  C_55
   17  A    between atoms: C_35  and  C_40
   18  A    between atoms: C_35  and  C_51
   19  A    between atoms: C_51  and  C_55
                            x       y       z     vdW  Elec       q    Type
                         _______ _______ _______ _____ _____    ______ ____

>  <TORSDO>
F 19

$$$$
=
 OpenBabel11062416103D

 59 65  0  0  1  0  0  0  0  0999 V2000
  188.3650  178.1350  145.0900 C   0  0  0  0  0  1  0  0  0  0  0  0
  187.2380  177.3040  144.4960 C   0  0  1  0  0  3  0  0  0  0  0  0
  185.3380  178.3480  145.4340 O   0  0  0  0  0  0  0  0  0  0  0  0
  185.9800  178.1340  144.4170 C   0  0  0  0  0  0  0  0  0  0  0  0
  185.4760  178.6840  143.1140 C   0  0  0  0  0  2  0  0  0  0  0  0
  184.2980  178.0340  142.7320 O   0  0  0  0  0  0  0  0  0  0  0  0
  184.8250  179.1870  140.7510 C   0  0  0  0  0  0  0  0  0  0  0  0
  183.9410  179.7020  139.8290 O   0  0  0  0  0  0  0  0  0  0  0  0
  182.9730  177.7670  140.7420 C   0  0  1  0  0  3  0  0  0  0  0  0
  182.7090  176.3290  140.3110 C   0  0  0  0  0  1  0  0  0  0  0  0
  184.3730  177.9120  141.3390 C   0  0  2  0  0  3  0  0  0  0  0  0
  182.8320  178.8420  139.6270 C   0  0  2  0  0  0  0  0  0  0  0  0
  185.9050  179.7580  141.0520 O   0  0  0  0  0  0  0  0  0  0  0  0
  182.9440  178.2550  138.2170 C   0  0  0  0  0  1  0  0  0  0  0  0
  181.5070  179.6150  139.8320 C   0  0  2  0  0  3  0  0  0  0  0  0
  180.4450  180.2930  141.8480 O   0  0  0  0  0  0  0  0  0  0  0  0
  180.8450  179.3670  141.1600 C   0  0  0  0  0  3  0  0  0  0  0  0
  180.4930  179.5850  138.6780 C   0  0  2  0  0  3  0  0  0  0  0  0
  180.0970  180.9260  138.2690 N   0  0  0  0  0  2  0  0  0  0  0  0
  181.3180  181.6900  138.0770 C   0  0  0  0  0  1  0  0  0  0  0  0
  179.2780  178.7480  139.0580 C   0  0  0  0  0  2  0  0  0  0  0  0
  179.3480  177.3750  138.4680 C   0  0  0  0  0  0  0  0  0  0  0  0
  179.0980  176.3030  140.6130 N   0  0  0  0  0  2  0  0  0  0  0  0
  179.5640  175.8910  136.4880 C   0  0  0  0  0  2  0  0  0  0  0  0
  179.4200  174.8050  138.7530 C   0  0  0  0  0  2  0  0  0  0  0  0
  179.5170  177.2380  137.1470 C   0  0  0  0  0  3  0  0  0  0  0  0
  179.3000  176.1790  139.3420 C   0  0  0  0  0  0  0  0  0  0  0  0
  180.1850  174.8520  137.4230 C   0  0  1  0  0  3  0  0  0  0  0  0
  180.2680  173.4860  136.7420 C   0  0  0  0  0  3  0  0  0  0  0  0
  181.7010  172.9870  136.7040 C   0  0  0  0  0  1  0  0  0  0  0  0
  179.3740  172.4450  137.3990 C   0  0  0  0  0  1  0  0  0  0  0  0
  187.6610  176.7720  143.1300 C   0  0  0  0  0  2  0  0  0  0  0  0
  189.2680  176.9600  141.2660 C   0  0  0  0  0  0  0  0  0  0  0  0
  189.9350  177.4590  143.4500 O   0  0  0  0  0  0  0  0  0  0  0  0
  188.8440  177.5470  142.5590 C   0  0  2  0  0  3  0  0  0  0  0  0
  190.6660  176.4930  141.3730 C   0  0  2  0  0  3  0  0  0  0  0  0
  190.9110  176.6170  142.8650 C   0  0  2  0  0  3  0  0  0  0  0  0
  190.8720  175.2450  143.5170 C   0  0  0  0  0  1  0  0  0  0  0  0
  188.4150  176.8100  140.2280 C   0  0  0  0  0  3  0  0  0  0  0  0
  186.7290  177.9470  136.3820 C   0  0  1  0  0  3  0  0  0  0  0  0
  188.6040  176.1360  138.8850 C   0  0  2  0  0  3  0  0  0  0  0  0
  189.9510  176.2760  138.3350 C   0  0  0  0  0  2  0  0  0  0  0  0
  185.7020  175.4780  137.4930 O   0  0  0  0  0  0  0  0  0  0  0  0
  185.5150  177.2470  135.7870 C   0  0  0  0  0  2  0  0  0  0  0  0
  188.8220  177.1500  137.7390 C   0  0  2  0  0  0  0  0  0  0  0  0
  185.6470  175.7680  136.1210 C   0  0  1  0  0  0  0  0  0  0  0  0
  186.3180  178.7480  137.4490 O   0  0  0  0  0  1  0  0  0  0  0  0
  186.9240  175.4540  136.7780 C   0  0  1  0  0  3  0  0  0  0  0  0
  187.6190  176.8100  136.8970 C   0  0  1  0  0  0  0  0  0  0  0  0
  185.0120  174.6770  135.2830 C   0  0  0  0  0  1  0  0  0  0  0  0
  188.9510  176.7160  136.3160 N   0  0  0  0  0  0  0  0  0  0  0  0
  189.3540  177.9030  135.5610 C   0  0  0  0  0  2  0  0  0  0  0  0
  190.4800  177.5530  134.5960 C   0  0  0  0  0  2  0  0  0  0  0  0
  190.8080  176.0660  134.6420 C   0  0  0  0  0  2  0  0  0  0  0  0
  192.2040  175.8560  135.0360 C   0  0  0  0  0  0  0  0  0  0  0  0
  193.3510  175.6800  135.3570 C   0  0  0  0  0  3  0  0  0  0  0  0
  191.6310  177.3910  140.6470 C   0  0  0  0  0  0  0  0  0  0  0  0
  192.9840  176.9160  140.2220 C   0  0  0  0  0  1  0  0  0  0  0  0
  191.2840  178.5240  140.3550 O   0  0  0  0  0  0  0  0  0  0  0  0
  2  1  1  6  0  0  0
  4  2  1  0  0  0  0
  4  3  2  0  0  0  0
  5  4  1  0  0  0  0
  6  5  1  0  0  0  0
  7 13  2  0  0  0  0
  7 11  1  0  0  0  0
  8  7  1  0  0  0  0
  9 10  1  6  0  0  0
  9 11  1  0  0  0  0
 11  6  1  1  0  0  0
 12 14  1  6  0  0  0
 12  8  1  0  0  0  0
 12 15  1  0  0  0  0
 12  9  1  0  0  0  0
 15 17  1  1  0  0  0
 17 16  2  0  0  0  0
 18 21  1  1  0  0  0
 18 15  1  0  0  0  0
 19 18  1  0  0  0  0
 20 19  1  0  0  0  0
 22 21  1  0  0  0  0
 22 27  1  0  0  0  0
 24 26  1  0  0  0  0
 24 28  1  0  0  0  0
 25 27  1  0  0  0  0
 26 22  2  0  0  0  0
 27 23  2  0  0  0  0
 28 29  1  6  0  0  0
 28 25  1  0  0  0  0
 29 31  1  0  0  0  0
 30 29  1  0  0  0  0
 32  2  1  0  0  0  0
 33 36  1  0  0  0  0
 33 35  1  0  0  0  0
 35 32  1  1  0  0  0
 35 34  1  0  0  0  0
 36 57  1  6  0  0  0
 36 37  1  0  0  0  0
 37 34  1  0  0  0  0
 37 38  1  1  0  0  0
 39 33  2  0  0  0  0
 40 49  1  0  0  0  0
 40 47  1  1  0  0  0
 41 39  1  1  0  0  0
 42 41  1  0  0  0  0
 44 46  1  0  0  0  0
 44 40  1  0  0  0  0
 45 42  1  1  0  0  0
 45 41  1  0  0  0  0
 46 50  1  6  0  0  0
 46 48  1  0  0  0  0
 46 43  1  0  0  0  0
 48 49  1  0  0  0  0
 48 43  1  1  0  0  0
 49 51  1  6  0  0  0
 49 45  1  0  0  0  0
 51 45  1  0  0  0  0
 52 51  1  0  0  0  0
 53 54  1  0  0  0  0
 53 52  1  0  0  0  0
 54 55  1  0  0  0  0
 55 56  3  0  0  0  0
 58 57  1  0  0  0  0
 59 57  2  0  0  0  0
M  END
>  <MODEL>
5

>  <REMARK>
 VINA RESULT:      -4.6      2.449      6.851
  Name = 
  19 active torsions:
  status: ('A' for Active; 'I' for Inactive)
    1  A    between atoms: C_4  and  C_13
    2  A    between atoms: C_4  and  C_34
    3  A    between atoms: C_6  and  C_57
    4  A    between atoms: C_8  and  C_27
    5  A    between atoms: C_8  and  C_29
    6  A    between atoms: C_8  and  C_42
    7  A    between atoms: C_9  and  C_25
    8  A    between atoms: C_9  and  C_29
    9  A    between atoms: C_11  and  C_34
   10  A    between atoms: N_12  and  C_29
   11  A    between atoms: C_13  and  N_59
   12  A    between atoms: C_14  and  C_56
   13  A    between atoms: C_21  and  C_45
   14  A    between atoms: C_26  and  O_38
   15  A    between atoms: C_32  and  O_38
   16  A    between atoms: C_32  and  C_55
   17  A    between atoms: C_35  and  C_40
   18  A    between atoms: C_35  and  C_51
   19  A    between atoms: C_51  and  C_55
                            x       y       z     vdW  Elec       q    Type
                         _______ _______ _______ _____ _____    ______ ____

>  <TORSDO>
F 19

$$$$
=
 OpenBabel11062416103D

 59 65  0  0  1  0  0  0  0  0999 V2000
  187.3250  179.7140  141.7720 C   0  0  0  0  0  1  0  0  0  0  0  0
  187.2470  178.3530  141.0960 C   0  0  1  0  0  3  0  0  0  0  0  0
  188.3570  178.9250  139.0910 O   0  0  0  0  0  0  0  0  0  0  0  0
  187.3210  178.5220  139.5980 C   0  0  0  0  0  0  0  0  0  0  0  0
  186.1440  178.2350  138.7100 C   0  0  0  0  0  2  0  0  0  0  0  0
  184.9860  178.0660  139.4740 O   0  0  0  0  0  0  0  0  0  0  0  0
  183.0450  179.1890  138.7670 C   0  0  0  0  0  0  0  0  0  0  0  0
  181.7390  178.8320  139.0200 O   0  0  0  0  0  0  0  0  0  0  0  0
  182.9990  176.8570  138.8570 C   0  0  1  0  0  3  0  0  0  0  0  0
  183.1980  175.7280  137.8530 C   0  0  0  0  0  1  0  0  0  0  0  0
  183.9320  178.0300  138.5530 C   0  0  2  0  0  3  0  0  0  0  0  0
  181.5560  177.4280  138.9540 C   0  0  2  0  0  0  0  0  0  0  0  0
  183.4280  180.3870  138.7250 O   0  0  0  0  0  0  0  0  0  0  0  0
  180.7100  177.1220  137.7140 C   0  0  0  0  0  1  0  0  0  0  0  0
  180.8930  176.9100  140.2530 C   0  0  2  0  0  3  0  0  0  0  0  0
  180.4120  174.5990  139.9670 O   0  0  0  0  0  0  0  0  0  0  0  0
  179.9740  175.7360  140.0530 C   0  0  0  0  0  3  0  0  0  0  0  0
  180.2780  177.9590  141.1910 C   0  0  2  0  0  3  0  0  0  0  0  0
  178.9790  178.4180  140.7150 N   0  0  0  0  0  2  0  0  0  0  0  0
  178.9620  179.8640  140.8510 C   0  0  0  0  0  1  0  0  0  0  0  0
  181.2350  179.1290  141.3820 C   0  0  0  0  0  2  0  0  0  0  0  0
  182.2660  178.8340  142.4240 C   0  0  0  0  0  0  0  0  0  0  0  0
  180.6770  179.0110  144.2280 N   0  0  0  0  0  2  0  0  0  0  0  0
  184.6100  178.2890  143.0410 C   0  0  0  0  0  2  0  0  0  0  0  0
  182.9510  178.5970  144.9070 C   0  0  0  0  0  2  0  0  0  0  0  0
  183.5330  178.6200  142.0490 C   0  0  0  0  0  3  0  0  0  0  0  0
  181.9060  178.8450  143.8620 C   0  0  0  0  0  0  0  0  0  0  0  0
  184.3420  178.9760  144.3810 C   0  0  1  0  0  3  0  0  0  0  0  0
  185.4560  178.6700  145.3820 C   0  0  0  0  0  3  0  0  0  0  0  0
  184.8950  178.5100  146.7830 C   0  0  0  0  0  1  0  0  0  0  0  0
  186.2660  177.4390  145.0040 C   0  0  0  0  0  1  0  0  0  0  0  0
  188.3600  177.4550  141.6270 C   0  0  0  0  0  2  0  0  0  0  0  0
  190.5160  177.0170  140.5070 C   0  0  0  0  0  0  0  0  0  0  0  0
  190.4490  178.2480  142.4920 O   0  0  0  0  0  0  0  0  0  0  0  0
  189.7430  178.0060  141.2960 C   0  0  2  0  0  3  0  0  0  0  0  0
  191.7340  176.6390  141.2510 C   0  0  2  0  0  3  0  0  0  0  0  0
  191.4700  177.2730  142.6030 C   0  0  2  0  0  3  0  0  0  0  0  0
  191.0630  176.2080  143.6090 C   0  0  0  0  0  1  0  0  0  0  0  0
  190.0550  176.5050  139.3430 C   0  0  0  0  0  3  0  0  0  0  0  0
  189.3160  175.8310  135.1090 C   0  0  1  0  0  3  0  0  0  0  0  0
  190.6150  175.4140  138.4550 C   0  0  2  0  0  3  0  0  0  0  0  0
  192.0460  175.5460  138.1840 C   0  0  0  0  0  2  0  0  0  0  0  0
  188.2000  173.8350  136.8850 O   0  0  0  0  0  0  0  0  0  0  0  0
  188.3350  174.7790  134.6120 C   0  0  0  0  0  2  0  0  0  0  0  0
  191.0490  175.9420  137.0690 C   0  0  2  0  0  0  0  0  0  0  0  0
  188.4720  173.5740  135.5330 C   0  0  1  0  0  0  0  0  0  0  0  0
  188.6010  176.9000  135.6550 O   0  0  0  0  0  1  0  0  0  0  0  0
  189.5610  173.7350  136.5070 C   0  0  1  0  0  3  0  0  0  0  0  0
  190.1180  175.1270  136.2090 C   0  0  1  0  0  0  0  0  0  0  0  0
  188.1360  172.1630  135.0950 C   0  0  0  0  0  1  0  0  0  0  0  0
  191.5570  175.0300  136.0010 N   0  0  0  0  0  0  0  0  0  0  0  0
  192.0610  175.8930  134.9320 C   0  0  0  0  0  2  0  0  0  0  0  0
  193.3960  176.5030  135.3360 C   0  0  0  0  0  2  0  0  0  0  0  0
  194.5060  175.4590  135.3340 C   0  0  0  0  0  2  0  0  0  0  0  0
  195.7800  176.0600  134.9290 C   0  0  0  0  0  0  0  0  0  0  0  0
  196.8250  176.5580  134.5970 C   0  0  0  0  0  3  0  0  0  0  0  0
  192.9790  177.2490  140.6660 C   0  0  0  0  0  0  0  0  0  0  0  0
  194.2590  176.4820  140.5610 C   0  0  0  0  0  1  0  0  0  0  0  0
  192.9330  178.3840  140.2210 O   0  0  0  0  0  0  0  0  0  0  0  0
  2 32  1  0  0  0  0
  2  1  1  1  0  0  0
  3  4  2  0  0  0  0
  4  2  1  0  0  0  0
  5  6  1  0  0  0  0
  5  4  1  0  0  0  0
  7  8  1  0  0  0  0
  9 10  1  6  0  0  0
  9 12  1  0  0  0  0
 11  7  1  0  0  0  0
 11  9  1  0  0  0  0
 11  6  1  1  0  0  0
 12 14  1  6  0  0  0
 12  8  1  0  0  0  0
 12 15  1  0  0  0  0
 13  7  2  0  0  0  0
 15 17  1  6  0  0  0
 15 18  1  0  0  0  0
 16 17  2  0  0  0  0
 18 21  1  6  0  0  0
 19 20  1  0  0  0  0
 19 18  1  0  0  0  0
 21 22  1  0  0  0  0
 22 27  1  0  0  0  0
 24 28  1  0  0  0  0
 26 22  2  0  0  0  0
 26 24  1  0  0  0  0
 27 23  2  0  0  0  0
 27 25  1  0  0  0  0
 28 25  1  0  0  0  0
 28 29  1  1  0  0  0
 29 30  1  0  0  0  0
 31 29  1  0  0  0  0
 33 36  1  0  0  0  0
 33 35  1  0  0  0  0
 34 37  1  0  0  0  0
 35 32  1  1  0  0  0
 35 34  1  0  0  0  0
 36 57  1  6  0  0  0
 36 37  1  0  0  0  0
 37 38  1  1  0  0  0
 39 33  2  0  0  0  0
 40 47  1  1  0  0  0
 40 49  1  0  0  0  0
 41 39  1  1  0  0  0
 42 41  1  0  0  0  0
 44 40  1  0  0  0  0
 44 46  1  0  0  0  0
 45 42  1  6  0  0  0
 45 41  1  0  0  0  0
 46 50  1  6  0  0  0
 46 48  1  0  0  0  0
 46 43  1  0  0  0  0
 48 43  1  1  0  0  0
 49 51  1  6  0  0  0
 49 48  1  0  0  0  0
 49 45  1  0  0  0  0
 51 45  1  0  0  0  0
 52 53  1  0  0  0  0
 52 51  1  0  0  0  0
 54 53  1  0  0  0  0
 55 54  1  0  0  0  0
 56 55  3  0  0  0  0
 58 57  1  0  0  0  0
 59 57  2  0  0  0  0
M  END
>  <MODEL>
6

>  <REMARK>
 VINA RESULT:      -4.3      2.205      5.811
  Name = 
  19 active torsions:
  status: ('A' for Active; 'I' for Inactive)
    1  A    between atoms: C_4  and  C_13
    2  A    between atoms: C_4  and  C_34
    3  A    between atoms: C_6  and  C_57
    4  A    between atoms: C_8  and  C_27
    5  A    between atoms: C_8  and  C_29
    6  A    between atoms: C_8  and  C_42
    7  A    between atoms: C_9  and  C_25
    8  A    between atoms: C_9  and  C_29
    9  A    between atoms: C_11  and  C_34
   10  A    between atoms: N_12  and  C_29
   11  A    between atoms: C_13  and  N_59
   12  A    between atoms: C_14  and  C_56
   13  A    between atoms: C_21  and  C_45
   14  A    between atoms: C_26  and  O_38
   15  A    between atoms: C_32  and  O_38
   16  A    between atoms: C_32  and  C_55
   17  A    between atoms: C_35  and  C_40
   18  A    between atoms: C_35  and  C_51
   19  A    between atoms: C_51  and  C_55
                            x       y       z     vdW  Elec       q    Type
                         _______ _______ _______ _____ _____    ______ ____

>  <TORSDO>
F 19

$$$$
=
 OpenBabel11062416103D

 59 65  0  0  1  0  0  0  0  0999 V2000
  185.9400  179.0040  141.7200 C   0  0  0  0  0  1  0  0  0  0  0  0
  184.5770  178.4320  142.0760 C   0  0  1  0  0  3  0  0  0  0  0  0
  183.2270  179.4840  143.7040 O   0  0  0  0  0  0  0  0  0  0  0  0
  184.2210  178.8060  143.4950 C   0  0  0  0  0  0  0  0  0  0  0  0
  185.0720  178.3890  144.6600 C   0  0  0  0  0  2  0  0  0  0  0  0
  186.4220  178.6390  144.3940 O   0  0  0  0  0  0  0  0  0  0  0  0
  187.8600  178.2420  146.2110 C   0  0  0  0  0  0  0  0  0  0  0  0
  189.2170  178.0110  146.1610 O   0  0  0  0  0  0  0  0  0  0  0  0
  188.2690  177.1100  144.2110 C   0  0  1  0  0  3  0  0  0  0  0  0
  187.9330  175.7300  143.6560 C   0  0  0  0  0  1  0  0  0  0  0  0
  187.1290  177.6430  145.0780 C   0  0  2  0  0  3  0  0  0  0  0  0
  189.5720  177.1980  145.0550 C   0  0  2  0  0  0  0  0  0  0  0  0
  187.3140  178.8980  147.1350 O   0  0  0  0  0  0  0  0  0  0  0  0
  190.0240  175.8380  145.5970 C   0  0  0  0  0  1  0  0  0  0  0  0
  190.6750  177.8850  144.2140 C   0  0  2  0  0  3  0  0  0  0  0  0
  191.3030  180.1720  144.3600 O   0  0  0  0  0  0  0  0  0  0  0  0
  190.4650  179.3590  144.0040 C   0  0  0  0  0  3  0  0  0  0  0  0
  191.1060  177.1820  142.9180 C   0  0  2  0  0  3  0  0  0  0  0  0
  192.3540  176.4480  143.0880 N   0  0  0  0  0  2  0  0  0  0  0  0
  192.0540  175.2820  143.9030 C   0  0  0  0  0  1  0  0  0  0  0  0
  191.2140  178.1870  141.7780 C   0  0  0  0  0  2  0  0  0  0  0  0
  191.4020  177.5060  140.4590 C   0  0  0  0  0  0  0  0  0  0  0  0
  189.0490  177.0360  140.2250 N   0  0  0  0  0  2  0  0  0  0  0  0
  192.8860  176.7510  138.6160 C   0  0  0  0  0  2  0  0  0  0  0  0
  190.4430  176.1730  138.4600 C   0  0  0  0  0  2  0  0  0  0  0  0
  192.6340  177.3950  139.9490 C   0  0  0  0  0  3  0  0  0  0  0  0
  190.2460  176.8980  139.7570 C   0  0  0  0  0  0  0  0  0  0  0  0
  191.8760  175.6330  138.3550 C   0  0  1  0  0  3  0  0  0  0  0  0
  192.1530  174.9510  137.0160 C   0  0  0  0  0  3  0  0  0  0  0  0
  193.2320  173.8930  137.1600 C   0  0  0  0  0  1  0  0  0  0  0  0
  190.9050  174.3360  136.3990 C   0  0  0  0  0  1  0  0  0  0  0  0
  183.5380  178.9280  141.0750 C   0  0  0  0  0  2  0  0  0  0  0  0
  182.4760  177.5800  139.3000 C   0  0  0  0  0  0  0  0  0  0  0  0
  181.2200  178.3240  141.1260 O   0  0  0  0  0  0  0  0  0  0  0  0
  182.4990  177.8580  140.7560 C   0  0  2  0  0  3  0  0  0  0  0  0
  181.1360  177.8920  138.7620 C   0  0  2  0  0  3  0  0  0  0  0  0
  180.4940  178.5980  139.9410 C   0  0  2  0  0  3  0  0  0  0  0  0
  180.4540  180.0970  139.6930 C   0  0  0  0  0  1  0  0  0  0  0  0
  183.5830  177.2060  138.6200 C   0  0  0  0  0  3  0  0  0  0  0  0
  184.8560  173.5820  136.5760 C   0  0  1  0  0  3  0  0  0  0  0  0
  183.8050  176.9950  137.1370 C   0  0  2  0  0  3  0  0  0  0  0  0
  182.5770  177.0090  136.3450 C   0  0  0  0  0  2  0  0  0  0  0  0
  186.7880  175.7380  136.5740 O   0  0  0  0  0  0  0  0  0  0  0  0
  186.2920  173.3680  136.1210 C   0  0  0  0  0  2  0  0  0  0  0  0
  183.2410  175.6430  136.6410 C   0  0  2  0  0  0  0  0  0  0  0  0
  186.8040  174.7100  135.6190 C   0  0  1  0  0  0  0  0  0  0  0  0
  184.7950  173.4670  137.9670 O   0  0  0  0  0  1  0  0  0  0  0  0
  185.7550  175.7400  135.6050 C   0  0  1  0  0  3  0  0  0  0  0  0
  184.5260  175.0200  136.1590 C   0  0  1  0  0  0  0  0  0  0  0  0
  187.9130  174.8350  134.5940 C   0  0  0  0  0  1  0  0  0  0  0  0
  183.4170  175.1870  135.2290 N   0  0  0  0  0  0  0  0  0  0  0  0
  182.5840  173.9930  135.0790 C   0  0  0  0  0  2  0  0  0  0  0  0
  181.6290  173.8690  136.2590 C   0  0  0  0  0  2  0  0  0  0  0  0
  180.2200  173.5180  135.7970 C   0  0  0  0  0  2  0  0  0  0  0  0
  179.8140  172.2110  136.3220 C   0  0  0  0  0  0  0  0  0  0  0  0
  179.4770  171.1390  136.7530 C   0  0  0  0  0  3  0  0  0  0  0  0
  180.3390  176.6550  138.4470 C   0  0  0  0  0  0  0  0  0  0  0  0
  180.3020  175.4830  139.3760 C   0  0  0  0  0  1  0  0  0  0  0  0
  179.6680  176.6230  137.4290 O   0  0  0  0  0  0  0  0  0  0  0  0
  2  1  1  6  0  0  0
  2  4  1  0  0  0  0
  4  3  2  0  0  0  0
  4  5  1  0  0  0  0
  6  5  1  0  0  0  0
  7 13  2  0  0  0  0
  8  7  1  0  0  0  0
  9 10  1  1  0  0  0
  9 12  1  0  0  0  0
  9 11  1  0  0  0  0
 11  6  1  6  0  0  0
 11  7  1  0  0  0  0
 12 14  1  1  0  0  0
 12  8  1  0  0  0  0
 15 17  1  6  0  0  0
 15 12  1  0  0  0  0
 17 16  2  0  0  0  0
 18 21  1  6  0  0  0
 18 19  1  0  0  0  0
 18 15  1  0  0  0  0
 19 20  1  0  0  0  0
 22 21  1  0  0  0  0
 24 26  1  0  0  0  0
 25 27  1  0  0  0  0
 26 22  2  0  0  0  0
 27 23  2  0  0  0  0
 27 22  1  0  0  0  0
 28 29  1  6  0  0  0
 28 25  1  0  0  0  0
 28 24  1  0  0  0  0
 29 30  1  0  0  0  0
 31 29  1  0  0  0  0
 32  2  1  0  0  0  0
 33 35  1  0  0  0  0
 35 32  1  6  0  0  0
 35 34  1  0  0  0  0
 36 57  1  1  0  0  0
 36 33  1  0  0  0  0
 36 37  1  0  0  0  0
 37 38  1  6  0  0  0
 37 34  1  0  0  0  0
 39 33  2  0  0  0  0
 40 47  1  1  0  0  0
 41 39  1  1  0  0  0
 42 41  1  0  0  0  0
 44 40  1  0  0  0  0
 45 42  1  1  0  0  0
 45 41  1  0  0  0  0
 46 50  1  6  0  0  0
 46 44  1  0  0  0  0
 46 43  1  0  0  0  0
 48 46  1  0  0  0  0
 48 49  1  0  0  0  0
 48 43  1  1  0  0  0
 49 51  1  6  0  0  0
 49 40  1  0  0  0  0
 49 45  1  0  0  0  0
 51 45  1  0  0  0  0
 52 51  1  0  0  0  0
 52 53  1  0  0  0  0
 54 53  1  0  0  0  0
 54 55  1  0  0  0  0
 55 56  3  0  0  0  0
 57 58  1  0  0  0  0
 59 57  2  0  0  0  0
M  END
>  <MODEL>
7

>  <REMARK>
 VINA RESULT:      -4.1      2.345     10.784
  Name = 
  19 active torsions:
  status: ('A' for Active; 'I' for Inactive)
    1  A    between atoms: C_4  and  C_13
    2  A    between atoms: C_4  and  C_34
    3  A    between atoms: C_6  and  C_57
    4  A    between atoms: C_8  and  C_27
    5  A    between atoms: C_8  and  C_29
    6  A    between atoms: C_8  and  C_42
    7  A    between atoms: C_9  and  C_25
    8  A    between atoms: C_9  and  C_29
    9  A    between atoms: C_11  and  C_34
   10  A    between atoms: N_12  and  C_29
   11  A    between atoms: C_13  and  N_59
   12  A    between atoms: C_14  and  C_56
   13  A    between atoms: C_21  and  C_45
   14  A    between atoms: C_26  and  O_38
   15  A    between atoms: C_32  and  O_38
   16  A    between atoms: C_32  and  C_55
   17  A    between atoms: C_35  and  C_40
   18  A    between atoms: C_35  and  C_51
   19  A    between atoms: C_51  and  C_55
                            x       y       z     vdW  Elec       q    Type
                         _______ _______ _______ _____ _____    ______ ____

>  <TORSDO>
F 19

$$$$
=
 OpenBabel11062416103D

 59 65  0  0  1  0  0  0  0  0999 V2000
  192.0280  176.3940  142.0810 C   0  0  0  0  0  1  0  0  0  0  0  0
  190.5830  176.4190  141.6050 C   0  0  1  0  0  3  0  0  0  0  0  0
  190.0120  176.9480  143.8350 O   0  0  0  0  0  0  0  0  0  0  0  0
  189.7100  177.0590  142.6570 C   0  0  0  0  0  0  0  0  0  0  0  0
  188.4590  177.8080  142.2970 C   0  0  0  0  0  2  0  0  0  0  0  0
  187.3430  177.2090  142.8900 O   0  0  0  0  0  0  0  0  0  0  0  0
  185.8670  177.6860  144.6570 C   0  0  0  0  0  0  0  0  0  0  0  0
  184.5290  177.9950  144.5610 O   0  0  0  0  0  0  0  0  0  0  0  0
  185.5940  178.8420  142.6480 C   0  0  1  0  0  3  0  0  0  0  0  0
  186.0270  180.2000  142.1090 C   0  0  0  0  0  1  0  0  0  0  0  0
  186.6710  178.2430  143.5520 C   0  0  2  0  0  3  0  0  0  0  0  0
  184.2600  178.8280  143.4460 C   0  0  2  0  0  0  0  0  0  0  0  0
  186.3430  176.9980  145.5970 O   0  0  0  0  0  0  0  0  0  0  0  0
  183.8680  180.2100  143.9760 C   0  0  0  0  0  1  0  0  0  0  0  0
  183.1490  178.2060  142.5650 C   0  0  2  0  0  3  0  0  0  0  0  0
  184.4170  178.3430  140.5600 O   0  0  0  0  0  0  0  0  0  0  0  0
  183.6270  177.7000  141.2320 C   0  0  0  0  0  3  0  0  0  0  0  0
  181.8360  178.9930  142.4370 C   0  0  2  0  0  3  0  0  0  0  0  0
  181.0790  178.9930  143.6820 N   0  0  0  0  0  2  0  0  0  0  0  0
  180.5870  177.6410  143.8820 C   0  0  0  0  0  1  0  0  0  0  0  0
  180.9970  178.4450  141.2880 C   0  0  0  0  0  2  0  0  0  0  0  0
  180.7050  179.4990  140.2680 C   0  0  0  0  0  0  0  0  0  0  0  0
  181.9030  178.3290  138.5330 N   0  0  0  0  0  2  0  0  0  0  0  0
  179.6440  181.6560  139.6410 C   0  0  0  0  0  2  0  0  0  0  0  0
  181.0000  180.4680  137.8870 C   0  0  0  0  0  2  0  0  0  0  0  0
  179.9980  180.5780  140.6240 C   0  0  0  0  0  3  0  0  0  0  0  0
  181.2520  179.3860  138.8940 C   0  0  0  0  0  0  0  0  0  0  0  0
  180.7420  181.8090  138.5870 C   0  0  1  0  0  3  0  0  0  0  0  0
  180.4030  182.9310  137.6070 C   0  0  0  0  0  3  0  0  0  0  0  0
  180.2560  182.3920  136.1960 C   0  0  0  0  0  1  0  0  0  0  0  0
  179.1500  183.6990  138.0010 C   0  0  0  0  0  1  0  0  0  0  0  0
  190.4990  177.1490  140.2680 C   0  0  0  0  0  2  0  0  0  0  0  0
  189.8380  176.4300  138.0010 C   0  0  0  0  0  0  0  0  0  0  0  0
  188.3090  177.5390  139.3770 O   0  0  0  0  0  0  0  0  0  0  0  0
  189.3710  176.6100  139.3960 C   0  0  2  0  0  3  0  0  0  0  0  0
  189.0370  177.2850  137.1000 C   0  0  2  0  0  3  0  0  0  0  0  0
  188.2730  178.1380  138.0940 C   0  0  2  0  0  3  0  0  0  0  0  0
  188.8730  179.5320  138.1550 C   0  0  0  0  0  1  0  0  0  0  0  0
  190.9120  175.6680  137.6930 C   0  0  0  0  0  3  0  0  0  0  0  0
  194.7500  173.7460  136.9820 C   0  0  1  0  0  3  0  0  0  0  0  0
  191.6220  175.4510  136.3730 C   0  0  2  0  0  3  0  0  0  0  0  0
  190.9710  174.4720  135.5040 C   0  0  0  0  0  2  0  0  0  0  0  0
  194.6970  176.6010  136.5000 O   0  0  0  0  0  0  0  0  0  0  0  0
  196.0260  174.5410  136.7490 C   0  0  0  0  0  2  0  0  0  0  0  0
  192.2490  174.0420  136.2630 C   0  0  2  0  0  0  0  0  0  0  0  0
  195.6480  175.7540  135.9110 C   0  0  1  0  0  0  0  0  0  0  0  0
  194.3930  173.8380  138.3290 O   0  0  0  0  0  1  0  0  0  0  0  0
  194.2410  175.7240  135.4860 C   0  0  1  0  0  3  0  0  0  0  0  0
  193.6940  174.4430  136.1160 C   0  0  1  0  0  0  0  0  0  0  0  0
  196.6320  176.4650  135.0040 C   0  0  0  0  0  1  0  0  0  0  0  0
  193.0660  173.6330  135.0810 N   0  0  0  0  0  0  0  0  0  0  0  0
  193.3040  172.1970  135.2260 C   0  0  0  0  0  2  0  0  0  0  0  0
  192.0360  171.5010  135.7000 C   0  0  0  0  0  2  0  0  0  0  0  0
  191.5070  170.5340  134.6480 C   0  0  0  0  0  2  0  0  0  0  0  0
  190.0780  170.2770  134.8540 C   0  0  0  0  0  0  0  0  0  0  0  0
  188.9050  170.0690  135.0260 C   0  0  0  0  0  3  0  0  0  0  0  0
  188.0510  176.4940  136.2820 C   0  0  0  0  0  0  0  0  0  0  0  0
  188.0830  176.4990  134.7870 C   0  0  0  0  0  1  0  0  0  0  0  0
  187.2330  175.7920  136.8530 O   0  0  0  0  0  0  0  0  0  0  0  0
  2  1  1  1  0  0  0
  2  4  1  0  0  0  0
  4  3  2  0  0  0  0
  5  4  1  0  0  0  0
  5  6  1  0  0  0  0
  7 13  2  0  0  0  0
  8  7  1  0  0  0  0
  9 10  1  1  0  0  0
  9 12  1  0  0  0  0
  9 11  1  0  0  0  0
 11  6  1  6  0  0  0
 11  7  1  0  0  0  0
 12 14  1  1  0  0  0
 12  8  1  0  0  0  0
 15 17  1  6  0  0  0
 15 12  1  0  0  0  0
 16 17  2  0  0  0  0
 18 21  1  6  0  0  0
 18 15  1  0  0  0  0
 18 19  1  0  0  0  0
 19 20  1  0  0  0  0
 22 26  2  0  0  0  0
 22 21  1  0  0  0  0
 23 27  2  0  0  0  0
 24 26  1  0  0  0  0
 25 28  1  0  0  0  0
 25 27  1  0  0  0  0
 27 22  1  0  0  0  0
 28 29  1  6  0  0  0
 28 24  1  0  0  0  0
 29 31  1  0  0  0  0
 30 29  1  0  0  0  0
 32  2  1  0  0  0  0
 33 35  1  0  0  0  0
 34 35  1  0  0  0  0
 35 32  1  1  0  0  0
 36 57  1  1  0  0  0
 36 33  1  0  0  0  0
 36 37  1  0  0  0  0
 37 38  1  1  0  0  0
 37 34  1  0  0  0  0
 39 33  2  0  0  0  0
 40 47  1  1  0  0  0
 41 39  1  1  0  0  0
 42 41  1  0  0  0  0
 44 40  1  0  0  0  0
 45 42  1  1  0  0  0
 45 41  1  0  0  0  0
 46 50  1  6  0  0  0
 46 43  1  0  0  0  0
 46 44  1  0  0  0  0
 48 46  1  0  0  0  0
 48 49  1  0  0  0  0
 48 43  1  1  0  0  0
 49 51  1  6  0  0  0
 49 45  1  0  0  0  0
 49 40  1  0  0  0  0
 51 52  1  0  0  0  0
 51 45  1  0  0  0  0
 52 53  1  0  0  0  0
 54 55  1  0  0  0  0
 54 53  1  0  0  0  0
 55 56  3  0  0  0  0
 57 59  2  0  0  0  0
 58 57  1  0  0  0  0
M  END
>  <MODEL>
8

>  <REMARK>
 VINA RESULT:      -3.3      2.850      7.573
  Name = 
  19 active torsions:
  status: ('A' for Active; 'I' for Inactive)
    1  A    between atoms: C_4  and  C_13
    2  A    between atoms: C_4  and  C_34
    3  A    between atoms: C_6  and  C_57
    4  A    between atoms: C_8  and  C_27
    5  A    between atoms: C_8  and  C_29
    6  A    between atoms: C_8  and  C_42
    7  A    between atoms: C_9  and  C_25
    8  A    between atoms: C_9  and  C_29
    9  A    between atoms: C_11  and  C_34
   10  A    between atoms: N_12  and  C_29
   11  A    between atoms: C_13  and  N_59
   12  A    between atoms: C_14  and  C_56
   13  A    between atoms: C_21  and  C_45
   14  A    between atoms: C_26  and  O_38
   15  A    between atoms: C_32  and  O_38
   16  A    between atoms: C_32  and  C_55
   17  A    between atoms: C_35  and  C_40
   18  A    between atoms: C_35  and  C_51
   19  A    between atoms: C_51  and  C_55
                            x       y       z     vdW  Elec       q    Type
                         _______ _______ _______ _____ _____    ______ ____

>  <TORSDO>
F 19

$$$$
=
 OpenBabel11062416103D

 59 65  0  0  1  0  0  0  0  0999 V2000
  192.0050  176.6690  142.0120 C   0  0  0  0  0  1  0  0  0  0  0  0
  190.5890  176.5060  141.4790 C   0  0  1  0  0  3  0  0  0  0  0  0
  189.7950  177.0650  143.6320 O   0  0  0  0  0  0  0  0  0  0  0  0
  189.6090  177.1520  142.4280 C   0  0  0  0  0  0  0  0  0  0  0  0
  188.3910  177.8780  141.9330 C   0  0  0  0  0  2  0  0  0  0  0  0
  187.2290  177.2780  142.4280 O   0  0  0  0  0  0  0  0  0  0  0  0
  185.5870  177.8540  144.0090 C   0  0  0  0  0  0  0  0  0  0  0  0
  184.2430  178.0420  143.7790 O   0  0  0  0  0  0  0  0  0  0  0  0
  185.3970  178.7250  141.8520 C   0  0  1  0  0  3  0  0  0  0  0  0
  185.7770  180.0350  141.1730 C   0  0  0  0  0  1  0  0  0  0  0  0
  186.4370  178.3310  142.9010 C   0  0  2  0  0  3  0  0  0  0  0  0
  184.0070  178.7060  142.5490 C   0  0  2  0  0  0  0  0  0  0  0  0
  186.0320  177.3290  145.0630 O   0  0  0  0  0  0  0  0  0  0  0  0
  183.4800  180.1090  142.8650 C   0  0  0  0  0  1  0  0  0  0  0  0
  183.0160  177.8940  141.6810 C   0  0  2  0  0  3  0  0  0  0  0  0
  183.0220  176.2610  139.9530 O   0  0  0  0  0  0  0  0  0  0  0  0
  183.6680  177.0600  140.6130 C   0  0  0  0  0  3  0  0  0  0  0  0
  181.7820  178.6370  141.1460 C   0  0  2  0  0  3  0  0  0  0  0  0
  180.5770  178.2920  141.8900 N   0  0  0  0  0  2  0  0  0  0  0  0
  179.7790  177.4320  141.0320 C   0  0  0  0  0  1  0  0  0  0  0  0
  181.6020  178.3680  139.6570 C   0  0  0  0  0  2  0  0  0  0  0  0
  181.1000  179.5780  138.9360 C   0  0  0  0  0  0  0  0  0  0  0  0
  180.6130  178.3350  136.9280 N   0  0  0  0  0  2  0  0  0  0  0  0
  180.5910  182.0090  138.9020 C   0  0  0  0  0  2  0  0  0  0  0  0
  180.2050  180.7050  136.7860 C   0  0  0  0  0  2  0  0  0  0  0  0
  181.1090  180.7630  139.5580 C   0  0  0  0  0  3  0  0  0  0  0  0
  180.6610  179.4820  137.5230 C   0  0  0  0  0  0  0  0  0  0  0  0
  180.8330  181.9670  137.3920 C   0  0  1  0  0  3  0  0  0  0  0  0
  180.3410  183.2510  136.7250 C   0  0  0  0  0  3  0  0  0  0  0  0
  180.7610  184.4720  137.5220 C   0  0  0  0  0  1  0  0  0  0  0  0
  180.8130  183.3850  135.2850 C   0  0  0  0  0  1  0  0  0  0  0  0
  190.5020  177.0960  140.0750 C   0  0  0  0  0  2  0  0  0  0  0  0
  190.0230  175.9830  137.9240 C   0  0  0  0  0  0  0  0  0  0  0  0
  188.3860  177.2860  138.9660 O   0  0  0  0  0  0  0  0  0  0  0  0
  189.4470  176.3940  139.2270 C   0  0  2  0  0  3  0  0  0  0  0  0
  189.2900  176.6530  136.8300 C   0  0  2  0  0  3  0  0  0  0  0  0
  188.4470  177.6520  137.6000 C   0  0  2  0  0  3  0  0  0  0  0  0
  189.0340  179.0470  137.4610 C   0  0  0  0  0  1  0  0  0  0  0  0
  191.1210  175.1990  137.8370 C   0  0  0  0  0  3  0  0  0  0  0  0
  195.2930  173.9720  137.6970 C   0  0  1  0  0  3  0  0  0  0  0  0
  191.9310  174.7680  136.6330 C   0  0  2  0  0  3  0  0  0  0  0  0
  191.5330  173.4740  136.0810 C   0  0  0  0  0  2  0  0  0  0  0  0
  194.7120  176.5050  136.4190 O   0  0  0  0  0  0  0  0  0  0  0  0
  196.4010  174.9110  137.2430 C   0  0  0  0  0  2  0  0  0  0  0  0
  192.8260  173.5420  136.9280 C   0  0  2  0  0  0  0  0  0  0  0  0
  195.8410  175.7380  136.0950 C   0  0  1  0  0  0  0  0  0  0  0  0
  194.8500  174.3640  138.9620 O   0  0  0  0  0  1  0  0  0  0  0  0
  194.4930  175.3060  135.6980 C   0  0  1  0  0  3  0  0  0  0  0  0
  194.1710  174.1700  136.6700 C   0  0  1  0  0  0  0  0  0  0  0  0
  196.7170  176.3500  135.0200 C   0  0  0  0  0  1  0  0  0  0  0  0
  193.7720  172.9930  135.9110 N   0  0  0  0  0  0  0  0  0  0  0  0
  194.2770  171.7340  136.4610 C   0  0  0  0  0  2  0  0  0  0  0  0
  195.3360  171.1470  135.5370 C   0  0  0  0  0  2  0  0  0  0  0  0
  196.6530  170.9300  136.2720 C   0  0  0  0  0  2  0  0  0  0  0  0
  197.7860  171.3330  135.4340 C   0  0  0  0  0  0  0  0  0  0  0  0
  198.7190  171.6650  134.7490 C   0  0  0  0  0  3  0  0  0  0  0  0
  188.3740  175.7140  136.0910 C   0  0  0  0  0  0  0  0  0  0  0  0
  187.3200  176.2150  135.1550 C   0  0  0  0  0  1  0  0  0  0  0  0
  188.5250  174.5110  136.2220 O   0  0  0  0  0  0  0  0  0  0  0  0
  2  1  1  1  0  0  0
  2  4  1  0  0  0  0
  4  3  2  0  0  0  0
  5  6  1  0  0  0  0
  5  4  1  0  0  0  0
  7 13  2  0  0  0  0
  8  7  1  0  0  0  0
  9 10  1  1  0  0  0
  9 12  1  0  0  0  0
  9 11  1  0  0  0  0
 11  6  1  6  0  0  0
 11  7  1  0  0  0  0
 12 14  1  1  0  0  0
 12  8  1  0  0  0  0
 15 17  1  6  0  0  0
 15 12  1  0  0  0  0
 16 17  2  0  0  0  0
 18 21  1  6  0  0  0
 18 15  1  0  0  0  0
 18 19  1  0  0  0  0
 20 19  1  0  0  0  0
 22 26  2  0  0  0  0
 22 21  1  0  0  0  0
 23 27  2  0  0  0  0
 24 26  1  0  0  0  0
 25 28  1  0  0  0  0
 25 27  1  0  0  0  0
 27 22  1  0  0  0  0
 28 29  1  6  0  0  0
 28 24  1  0  0  0  0
 29 30  1  0  0  0  0
 31 29  1  0  0  0  0
 32  2  1  0  0  0  0
 33 35  1  0  0  0  0
 34 35  1  0  0  0  0
 35 32  1  1  0  0  0
 36 57  1  1  0  0  0
 36 37  1  0  0  0  0
 36 33  1  0  0  0  0
 37 38  1  1  0  0  0
 37 34  1  0  0  0  0
 39 33  2  0  0  0  0
 40 47  1  1  0  0  0
 41 45  1  0  0  0  0
 41 39  1  1  0  0  0
 42 41  1  0  0  0  0
 44 40  1  0  0  0  0
 45 42  1  1  0  0  0
 46 50  1  6  0  0  0
 46 43  1  0  0  0  0
 46 44  1  0  0  0  0
 48 46  1  0  0  0  0
 48 43  1  1  0  0  0
 48 49  1  0  0  0  0
 49 51  1  6  0  0  0
 49 45  1  0  0  0  0
 49 40  1  0  0  0  0
 51 52  1  0  0  0  0
 51 45  1  0  0  0  0
 53 54  1  0  0  0  0
 53 52  1  0  0  0  0
 55 54  1  0  0  0  0
 56 55  3  0  0  0  0
 57 59  2  0  0  0  0
 58 57  1  0  0  0  0
M  END
>  <MODEL>
9

>  <REMARK>
 VINA RESULT:      -3.2      3.043      7.488
  Name = 
  19 active torsions:
  status: ('A' for Active; 'I' for Inactive)
    1  A    between atoms: C_4  and  C_13
    2  A    between atoms: C_4  and  C_34
    3  A    between atoms: C_6  and  C_57
    4  A    between atoms: C_8  and  C_27
    5  A    between atoms: C_8  and  C_29
    6  A    between atoms: C_8  and  C_42
    7  A    between atoms: C_9  and  C_25
    8  A    between atoms: C_9  and  C_29
    9  A    between atoms: C_11  and  C_34
   10  A    between atoms: N_12  and  C_29
   11  A    between atoms: C_13  and  N_59
   12  A    between atoms: C_14  and  C_56
   13  A    between atoms: C_21  and  C_45
   14  A    between atoms: C_26  and  O_38
   15  A    between atoms: C_32  and  O_38
   16  A    between atoms: C_32  and  C_55
   17  A    between atoms: C_35  and  C_40
   18  A    between atoms: C_35  and  C_51
   19  A    between atoms: C_51  and  C_55
                            x       y       z     vdW  Elec       q    Type
                         _______ _______ _______ _____ _____    ______ ____

>  <TORSDO>
F 19

$$$$
