=
 OpenBabel11062414323D

 31 33  0  0  1  0  0  0  0  0999 V2000
  188.0850  178.4960  147.1060 F   0  0  0  0  0  0  0  0  0  0  0  0
  188.4440  177.4160  145.0300 C   0  0  0  0  0  0  0  0  0  0  0  0
  191.6310  176.9380  145.6260 C   0  0  0  0  0  2  0  0  0  0  0  0
  190.8330  177.5960  146.7310 C   0  0  1  0  0  3  0  0  0  0  0  0
  190.8140  178.1750  145.3070 C   0  0  2  0  0  3  0  0  0  0  0  0
  189.6420  176.7020  147.0770 C   0  0  0  0  0  2  0  0  0  0  0  0
  187.3140  176.3970  146.8560 F   0  0  0  0  0  0  0  0  0  0  0  0
  189.6060  177.8200  144.4680 C   0  0  0  0  0  0  0  0  0  0  0  0
  188.3390  177.2660  146.5260 C   0  0  0  0  0  0  0  0  0  0  0  0
  187.2450  177.1670  144.2030 C   0  0  0  0  0  0  0  0  0  0  0  0
  187.1860  176.1150  143.5110 O   0  0  0  0  0  0  0  0  0  0  0  0
  185.4310  178.3630  145.2370 N   0  0  0  0  0  2  0  0  0  0  0  0
  186.1230  178.1210  144.1770 C   0  0  2  0  0  3  0  0  0  0  0  0
  184.2990  179.2460  145.0360 C   0  0  0  0  0  2  0  0  0  0  0  0
  183.9730  179.2210  143.5520 C   0  0  0  0  0  2  0  0  0  0  0  0
  185.5270  178.8770  142.6730 S   0  0  0  0  0  0  0  0  0  0  0  0
  189.6890  178.0840  142.9870 C   0  0  0  0  0  2  0  0  0  0  0  0
  191.8680  177.3580  142.0100 C   0  0  0  0  0  1  0  0  0  0  0  0
  190.4050  176.9890  142.1940 C   0  0  1  0  0  0  0  0  0  0  0  0
  190.3120  175.7600  142.8540 O   0  0  0  0  0  1  0  0  0  0  0  0
  189.7330  176.8810  140.8320 C   0  0  0  0  0  2  0  0  0  0  0  0
  188.7130  177.8630  140.6870 O   0  0  0  0  0  0  0  0  0  0  0  0
  188.1950  178.2230  139.4420 C   0  0  0  0  0  0  0  0  0  0  0  0
  186.9610  178.4590  139.3370 O   0  0  0  0  0  0  0  0  0  0  0  0
  189.0070  179.6070  137.6960 O   0  0  0  0  0  1  0  0  0  0  0  0
  189.0750  178.3200  138.2330 C   0  0  2  0  0  3  0  0  0  0  0  0
  188.6520  177.2980  137.1940 C   0  0  0  0  0  2  0  0  0  0  0  0
  190.9300  175.7730  136.2740 O   0  0  0  0  0  0  0  0  0  0  0  0
  190.0580  175.2170  137.2020 C   0  0  0  0  0  0  0  0  0  0  0  0
  188.9350  175.9560  137.6750 N   0  0  0  0  0  2  0  0  0  0  0  0
  190.2630  174.0520  137.6310 O   0  0  0  0  0  1  0  0  0  0  0  0
  2  9  1  0  0  0  0
  4  3  1  6  0  0  0
  4  6  1  0  0  0  0
  5  3  1  6  0  0  0
  5  4  1  0  0  0  0
  8  2  2  0  0  0  0
  8  5  1  0  0  0  0
  9  7  1  0  0  0  0
  9  6  1  0  0  0  0
  9  1  1  0  0  0  0
 10  2  1  0  0  0  0
 11 10  2  0  0  0  0
 13 10  1  6  0  0  0
 13 12  1  0  0  0  0
 14 12  1  0  0  0  0
 15 14  1  0  0  0  0
 16 15  1  0  0  0  0
 16 13  1  0  0  0  0
 17  8  1  0  0  0  0
 19 18  1  6  0  0  0
 19 20  1  0  0  0  0
 19 17  1  0  0  0  0
 21 19  1  0  0  0  0
 22 21  1  0  0  0  0
 23 22  1  0  0  0  0
 24 23  2  0  0  0  0
 26 25  1  6  0  0  0
 26 23  1  0  0  0  0
 27 30  1  0  0  0  0
 27 26  1  0  0  0  0
 28 29  2  0  0  0  0
 29 31  1  0  0  0  0
 29 30  1  0  0  0  0
M  END
>  <MODEL>
1

>  <REMARK>
 VINA RESULT:      -7.4      0.000      0.000
  Name = 
  10 active torsions:
  status: ('A' for Active; 'I' for Inactive)
    1  A    between atoms: C_4  and  N_18
    2  A    between atoms: C_4  and  C_23
    3  A    between atoms: C_6  and  C_22
    4  A    between atoms: C_7  and  C_12
    5  A    between atoms: C_7  and  C_28
    6  A    between atoms: C_9  and  C_22
    7  A    between atoms: C_12  and  C_14
    8  A    between atoms: C_14  and  O_15
    9  A    between atoms: O_15  and  C_24
   10  A    between atoms: C_23  and  C_24
                            x       y       z     vdW  Elec       q    Type
                         _______ _______ _______ _____ _____    ______ ____

>  <TORSDO>
F 10

$$$$
=
 OpenBabel11062414323D

 31 33  0  0  1  0  0  0  0  0999 V2000
  188.1810  178.5520  147.0380 F   0  0  0  0  0  0  0  0  0  0  0  0
  188.4550  177.4270  144.9730 C   0  0  0  0  0  0  0  0  0  0  0  0
  191.6760  177.0140  145.4200 C   0  0  0  0  0  2  0  0  0  0  0  0
  190.9220  177.6860  146.5480 C   0  0  1  0  0  3  0  0  0  0  0  0
  190.8230  178.2300  145.1130 C   0  0  2  0  0  3  0  0  0  0  0  0
  189.7660  176.7820  146.9740 C   0  0  0  0  0  2  0  0  0  0  0  0
  187.4350  176.4340  146.8770 F   0  0  0  0  0  0  0  0  0  0  0  0
  189.5810  177.8350  144.3450 C   0  0  0  0  0  0  0  0  0  0  0  0
  188.4280  177.3120  146.4760 C   0  0  0  0  0  0  0  0  0  0  0  0
  187.2210  177.1390  144.2130 C   0  0  0  0  0  0  0  0  0  0  0  0
  187.1360  176.0570  143.5720 O   0  0  0  0  0  0  0  0  0  0  0  0
  185.3900  178.3020  145.2530 N   0  0  0  0  0  2  0  0  0  0  0  0
  186.0950  178.0880  144.1960 C   0  0  2  0  0  3  0  0  0  0  0  0
  184.2560  179.1850  145.0590 C   0  0  0  0  0  2  0  0  0  0  0  0
  183.9480  179.1920  143.5710 C   0  0  0  0  0  2  0  0  0  0  0  0
  185.5140  178.8760  142.7030 S   0  0  0  0  0  0  0  0  0  0  0  0
  189.5860  178.0640  142.8550 C   0  0  0  0  0  2  0  0  0  0  0  0
  191.7050  177.3720  141.7320 C   0  0  0  0  0  1  0  0  0  0  0  0
  190.2780  176.9600  142.0540 C   0  0  1  0  0  0  0  0  0  0  0  0
  190.2870  175.7600  142.7710 O   0  0  0  0  0  1  0  0  0  0  0  0
  189.5020  176.7660  140.7580 C   0  0  0  0  0  2  0  0  0  0  0  0
  189.7920  177.8050  139.8290 O   0  0  0  0  0  0  0  0  0  0  0  0
  189.8680  177.5780  138.4540 C   0  0  0  0  0  0  0  0  0  0  0  0
  190.8090  176.8720  138.0010 O   0  0  0  0  0  0  0  0  0  0  0  0
  188.8950  179.5610  137.5940 O   0  0  0  0  0  1  0  0  0  0  0  0
  188.8630  178.1680  137.5130 C   0  0  2  0  0  3  0  0  0  0  0  0
  187.4720  177.6570  137.8430 C   0  0  0  0  0  2  0  0  0  0  0  0
  184.5840  177.7040  137.9450 O   0  0  0  0  0  0  0  0  0  0  0  0
  185.3140  178.6750  138.6210 C   0  0  0  0  0  0  0  0  0  0  0  0
  186.7380  178.6640  138.5900 N   0  0  0  0  0  2  0  0  0  0  0  0
  184.7110  179.5710  139.2670 O   0  0  0  0  0  1  0  0  0  0  0  0
  2  9  1  0  0  0  0
  4  3  1  6  0  0  0
  4  6  1  0  0  0  0
  5  3  1  6  0  0  0
  5  4  1  0  0  0  0
  8  2  2  0  0  0  0
  8  5  1  0  0  0  0
  9  7  1  0  0  0  0
  9  6  1  0  0  0  0
  9  1  1  0  0  0  0
 10  2  1  0  0  0  0
 11 10  2  0  0  0  0
 13 10  1  6  0  0  0
 13 12  1  0  0  0  0
 14 12  1  0  0  0  0
 15 14  1  0  0  0  0
 16 15  1  0  0  0  0
 16 13  1  0  0  0  0
 17  8  1  0  0  0  0
 19 18  1  6  0  0  0
 19 20  1  0  0  0  0
 19 17  1  0  0  0  0
 21 19  1  0  0  0  0
 22 21  1  0  0  0  0
 23 22  1  0  0  0  0
 24 23  2  0  0  0  0
 26 25  1  1  0  0  0
 26 27  1  0  0  0  0
 26 23  1  0  0  0  0
 27 30  1  0  0  0  0
 28 29  2  0  0  0  0
 29 31  1  0  0  0  0
 30 29  1  0  0  0  0
M  END
>  <MODEL>
2

>  <REMARK>
 VINA RESULT:      -7.4      1.232      2.466
  Name = 
  10 active torsions:
  status: ('A' for Active; 'I' for Inactive)
    1  A    between atoms: C_4  and  N_18
    2  A    between atoms: C_4  and  C_23
    3  A    between atoms: C_6  and  C_22
    4  A    between atoms: C_7  and  C_12
    5  A    between atoms: C_7  and  C_28
    6  A    between atoms: C_9  and  C_22
    7  A    between atoms: C_12  and  C_14
    8  A    between atoms: C_14  and  O_15
    9  A    between atoms: O_15  and  C_24
   10  A    between atoms: C_23  and  C_24
                            x       y       z     vdW  Elec       q    Type
                         _______ _______ _______ _____ _____    ______ ____

>  <TORSDO>
F 10

$$$$
=
 OpenBabel11062414323D

 31 33  0  0  1  0  0  0  0  0999 V2000
  187.9930  178.5210  147.0890 F   0  0  0  0  0  0  0  0  0  0  0  0
  188.4200  177.4100  145.0430 C   0  0  0  0  0  0  0  0  0  0  0  0
  191.5820  176.9240  145.7580 C   0  0  0  0  0  2  0  0  0  0  0  0
  190.7480  177.6020  146.8250 C   0  0  1  0  0  3  0  0  0  0  0  0
  190.7830  178.1610  145.3930 C   0  0  2  0  0  3  0  0  0  0  0  0
  189.5410  176.7180  147.1410 C   0  0  0  0  0  2  0  0  0  0  0  0
  187.2200  176.4210  146.8410 F   0  0  0  0  0  0  0  0  0  0  0  0
  189.6040  177.8000  144.5170 C   0  0  0  0  0  0  0  0  0  0  0  0
  188.2620  177.2810  146.5360 C   0  0  0  0  0  0  0  0  0  0  0  0
  187.2500  177.1560  144.1770 C   0  0  0  0  0  0  0  0  0  0  0  0
  187.2130  176.0970  143.4930 O   0  0  0  0  0  0  0  0  0  0  0  0
  185.4260  178.3920  145.1450 N   0  0  0  0  0  2  0  0  0  0  0  0
  186.1320  178.1110  144.1030 C   0  0  2  0  0  3  0  0  0  0  0  0
  184.3010  179.2700  144.8970 C   0  0  0  0  0  2  0  0  0  0  0  0
  183.9950  179.1950  143.4110 C   0  0  0  0  0  2  0  0  0  0  0  0
  185.5600  178.8170  142.5660 S   0  0  0  0  0  0  0  0  0  0  0  0
  189.7410  178.0430  143.0360 C   0  0  0  0  0  2  0  0  0  0  0  0
  191.9950  177.2830  142.2800 C   0  0  0  0  0  1  0  0  0  0  0  0
  190.5110  176.9520  142.2910 C   0  0  1  0  0  0  0  0  0  0  0  0
  190.3140  175.7070  142.8960 O   0  0  0  0  0  1  0  0  0  0  0  0
  189.9920  176.9050  140.8610 C   0  0  0  0  0  2  0  0  0  0  0  0
  191.0200  177.2340  139.9330 O   0  0  0  0  0  0  0  0  0  0  0  0
  191.1980  176.5360  138.7370 C   0  0  0  0  0  0  0  0  0  0  0  0
  192.2900  176.6500  138.1180 O   0  0  0  0  0  0  0  0  0  0  0  0
  190.6630  174.5060  137.6370 O   0  0  0  0  0  1  0  0  0  0  0  0
  190.1130  175.6710  138.1740 C   0  0  2  0  0  3  0  0  0  0  0  0
  189.3430  176.4250  137.1050 C   0  0  0  0  0  2  0  0  0  0  0  0
  188.8560  179.1120  138.0540 O   0  0  0  0  0  0  0  0  0  0  0  0
  187.8350  178.1710  138.0970 C   0  0  0  0  0  0  0  0  0  0  0  0
  188.0520  176.8440  137.6260 N   0  0  0  0  0  2  0  0  0  0  0  0
  186.7080  178.4940  138.5550 O   0  0  0  0  0  1  0  0  0  0  0  0
  2  9  1  0  0  0  0
  4  3  1  6  0  0  0
  4  6  1  0  0  0  0
  5  3  1  6  0  0  0
  5  4  1  0  0  0  0
  8  2  2  0  0  0  0
  8  5  1  0  0  0  0
  9  7  1  0  0  0  0
  9  1  1  0  0  0  0
  9  6  1  0  0  0  0
 10  2  1  0  0  0  0
 11 10  2  0  0  0  0
 13 10  1  6  0  0  0
 13 12  1  0  0  0  0
 14 12  1  0  0  0  0
 15 14  1  0  0  0  0
 16 15  1  0  0  0  0
 16 13  1  0  0  0  0
 17  8  1  0  0  0  0
 19 18  1  6  0  0  0
 19 20  1  0  0  0  0
 19 17  1  0  0  0  0
 21 19  1  0  0  0  0
 22 21  1  0  0  0  0
 23 22  1  0  0  0  0
 24 23  2  0  0  0  0
 26 25  1  6  0  0  0
 26 23  1  0  0  0  0
 27 30  1  0  0  0  0
 27 26  1  0  0  0  0
 28 29  2  0  0  0  0
 29 31  1  0  0  0  0
 30 29  1  0  0  0  0
M  END
>  <MODEL>
3

>  <REMARK>
 VINA RESULT:      -7.2      0.899      2.259
  Name = 
  10 active torsions:
  status: ('A' for Active; 'I' for Inactive)
    1  A    between atoms: C_4  and  N_18
    2  A    between atoms: C_4  and  C_23
    3  A    between atoms: C_6  and  C_22
    4  A    between atoms: C_7  and  C_12
    5  A    between atoms: C_7  and  C_28
    6  A    between atoms: C_9  and  C_22
    7  A    between atoms: C_12  and  C_14
    8  A    between atoms: C_14  and  O_15
    9  A    between atoms: O_15  and  C_24
   10  A    between atoms: C_23  and  C_24
                            x       y       z     vdW  Elec       q    Type
                         _______ _______ _______ _____ _____    ______ ____

>  <TORSDO>
F 10

$$$$
=
 OpenBabel11062414323D

 31 33  0  0  1  0  0  0  0  0999 V2000
  186.7090  179.3710  145.8550 F   0  0  0  0  0  0  0  0  0  0  0  0
  187.7290  177.3950  145.0440 C   0  0  0  0  0  0  0  0  0  0  0  0
  189.2560  176.8030  147.8830 C   0  0  0  0  0  2  0  0  0  0  0  0
  188.3490  178.0150  147.8480 C   0  0  1  0  0  3  0  0  0  0  0  0
  189.4590  177.8430  146.7980 C   0  0  2  0  0  3  0  0  0  0  0  0
  186.9580  177.5750  147.3900 C   0  0  0  0  0  2  0  0  0  0  0  0
  185.4230  177.5410  145.6010 F   0  0  0  0  0  0  0  0  0  0  0  0
  189.0150  177.3110  145.4530 C   0  0  0  0  0  0  0  0  0  0  0  0
  186.6840  177.9910  145.9520 C   0  0  0  0  0  0  0  0  0  0  0  0
  187.3320  176.9590  143.6890 C   0  0  0  0  0  0  0  0  0  0  0  0
  187.5910  175.7800  143.3240 O   0  0  0  0  0  0  0  0  0  0  0  0
  185.3770  178.1060  142.8810 N   0  0  0  0  0  2  0  0  0  0  0  0
  186.6400  177.8720  142.7640 C   0  0  2  0  0  3  0  0  0  0  0  0
  184.8160  178.9450  141.8410 C   0  0  0  0  0  2  0  0  0  0  0  0
  185.7680  178.8870  140.6590 C   0  0  0  0  0  2  0  0  0  0  0  0
  187.4300  178.5860  141.3320 S   0  0  0  0  0  0  0  0  0  0  0  0
  190.0880  176.8240  144.5130 C   0  0  0  0  0  2  0  0  0  0  0  0
  190.3610  179.2140  143.8500 C   0  0  0  0  0  1  0  0  0  0  0  0
  191.0880  177.9020  144.0910 C   0  0  1  0  0  0  0  0  0  0  0  0
  192.0650  178.0830  145.0760 O   0  0  0  0  0  1  0  0  0  0  0  0
  191.7540  177.4450  142.8000 C   0  0  0  0  0  2  0  0  0  0  0  0
  190.7940  177.2830  141.7610 O   0  0  0  0  0  0  0  0  0  0  0  0
  191.1580  177.1790  140.4180 C   0  0  0  0  0  0  0  0  0  0  0  0
  192.3260  177.5040  140.0730 O   0  0  0  0  0  0  0  0  0  0  0  0
  190.6910  175.5750  138.7360 O   0  0  0  0  0  1  0  0  0  0  0  0
  190.1840  176.7030  139.3840 C   0  0  2  0  0  3  0  0  0  0  0  0
  189.9070  177.8040  138.3770 C   0  0  0  0  0  2  0  0  0  0  0  0
  187.3730  178.8650  137.4780 O   0  0  0  0  0  1  0  0  0  0  0  0
  187.9490  177.7920  136.8070 C   0  0  0  0  0  0  0  0  0  0  0  0
  189.2020  177.2610  137.2290 N   0  0  0  0  0  2  0  0  0  0  0  0
  187.3590  177.2870  135.8160 O   0  0  0  0  0  0  0  0  0  0  0  0
  1  9  1  0  0  0  0
  2  8  2  0  0  0  0
  2  9  1  0  0  0  0
  4  6  1  6  0  0  0
  4  3  1  0  0  0  0
  5  4  1  0  0  0  0
  5  3  1  1  0  0  0
  7  9  1  0  0  0  0
  8  5  1  0  0  0  0
  9  6  1  0  0  0  0
 10  2  1  0  0  0  0
 11 10  2  0  0  0  0
 13 12  1  0  0  0  0
 13 10  1  6  0  0  0
 14 12  1  0  0  0  0
 15 16  1  0  0  0  0
 15 14  1  0  0  0  0
 16 13  1  0  0  0  0
 17  8  1  0  0  0  0
 19 18  1  6  0  0  0
 19 17  1  0  0  0  0
 19 20  1  0  0  0  0
 21 19  1  0  0  0  0
 22 21  1  0  0  0  0
 23 22  1  0  0  0  0
 24 23  2  0  0  0  0
 26 25  1  6  0  0  0
 26 23  1  0  0  0  0
 27 26  1  0  0  0  0
 29 30  1  0  0  0  0
 29 28  1  0  0  0  0
 30 27  1  0  0  0  0
 31 29  2  0  0  0  0
M  END
>  <MODEL>
4

>  <REMARK>
 VINA RESULT:      -7.1      1.899      2.882
  Name = 
  10 active torsions:
  status: ('A' for Active; 'I' for Inactive)
    1  A    between atoms: C_4  and  N_18
    2  A    between atoms: C_4  and  C_23
    3  A    between atoms: C_6  and  C_22
    4  A    between atoms: C_7  and  C_12
    5  A    between atoms: C_7  and  C_28
    6  A    between atoms: C_9  and  C_22
    7  A    between atoms: C_12  and  C_14
    8  A    between atoms: C_14  and  O_15
    9  A    between atoms: O_15  and  C_24
   10  A    between atoms: C_23  and  C_24
                            x       y       z     vdW  Elec       q    Type
                         _______ _______ _______ _____ _____    ______ ____

>  <TORSDO>
F 10

$$$$
=
 OpenBabel11062414323D

 31 33  0  0  1  0  0  0  0  0999 V2000
  187.4000  176.9570  148.6110 F   0  0  0  0  0  0  0  0  0  0  0  0
  188.2960  177.4440  146.4750 C   0  0  0  0  0  0  0  0  0  0  0  0
  185.6870  179.2170  145.5860 C   0  0  0  0  0  2  0  0  0  0  0  0
  185.6720  178.6590  146.9930 C   0  0  1  0  0  3  0  0  0  0  0  0
  185.9050  177.7300  145.7910 C   0  0  2  0  0  3  0  0  0  0  0  0
  186.9440  179.1090  147.7130 C   0  0  0  0  0  2  0  0  0  0  0  0
  189.0760  178.4540  148.4810 F   0  0  0  0  0  0  0  0  0  0  0  0
  187.3450  177.3550  145.5180 C   0  0  0  0  0  0  0  0  0  0  0  0
  187.9460  177.9700  147.8430 C   0  0  0  0  0  0  0  0  0  0  0  0
  189.6770  176.9820  146.2210 C   0  0  0  0  0  0  0  0  0  0  0  0
  190.1470  176.0430  146.9190 O   0  0  0  0  0  0  0  0  0  0  0  0
  190.4930  178.8690  144.9710 N   0  0  0  0  0  2  0  0  0  0  0  0
  190.5070  177.5950  145.1710 C   0  0  2  0  0  3  0  0  0  0  0  0
  191.2830  179.3160  143.8410 C   0  0  0  0  0  2  0  0  0  0  0  0
  191.4840  178.1130  142.9350 C   0  0  0  0  0  2  0  0  0  0  0  0
  191.4520  176.6380  143.9980 S   0  0  0  0  0  0  0  0  0  0  0  0
  187.6560  176.7250  144.1850 C   0  0  0  0  0  2  0  0  0  0  0  0
  186.0550  177.7120  142.5450 C   0  0  0  0  0  1  0  0  0  0  0  0
  187.5070  177.6720  142.9940 C   0  0  1  0  0  0  0  0  0  0  0  0
  187.9270  178.9620  143.3320 O   0  0  0  0  0  1  0  0  0  0  0  0
  188.3730  177.1410  141.8600 C   0  0  0  0  0  2  0  0  0  0  0  0
  188.6030  178.1470  140.8790 O   0  0  0  0  0  0  0  0  0  0  0  0
  188.6660  177.8580  139.5150 C   0  0  0  0  0  0  0  0  0  0  0  0
  187.6090  177.5400  138.9070 O   0  0  0  0  0  0  0  0  0  0  0  0
  189.7240  178.0450  137.4020 O   0  0  0  0  0  1  0  0  0  0  0  0
  189.9650  177.9070  138.7700 C   0  0  2  0  0  3  0  0  0  0  0  0
  190.7690  176.6470  139.0350 C   0  0  0  0  0  2  0  0  0  0  0  0
  193.6160  176.9280  139.4460 O   0  0  0  0  0  1  0  0  0  0  0  0
  193.1320  176.5920  138.1880 C   0  0  0  0  0  0  0  0  0  0  0  0
  191.7320  176.4400  137.9670 N   0  0  0  0  0  2  0  0  0  0  0  0
  193.9360  176.4180  137.2350 O   0  0  0  0  0  0  0  0  0  0  0  0
  2  9  1  0  0  0  0
  4  3  1  6  0  0  0
  4  6  1  0  0  0  0
  5  3  1  6  0  0  0
  5  4  1  0  0  0  0
  6  9  1  0  0  0  0
  8  5  1  0  0  0  0
  8  2  2  0  0  0  0
  9  7  1  0  0  0  0
  9  1  1  0  0  0  0
 10  2  1  0  0  0  0
 10 11  2  0  0  0  0
 12 13  1  0  0  0  0
 13 10  1  6  0  0  0
 14 12  1  0  0  0  0
 15 14  1  0  0  0  0
 15 16  1  0  0  0  0
 16 13  1  0  0  0  0
 17  8  1  0  0  0  0
 19 18  1  6  0  0  0
 19 20  1  0  0  0  0
 19 17  1  0  0  0  0
 21 19  1  0  0  0  0
 22 21  1  0  0  0  0
 23 22  1  0  0  0  0
 24 23  2  0  0  0  0
 26 25  1  6  0  0  0
 26 27  1  0  0  0  0
 26 23  1  0  0  0  0
 29 28  1  0  0  0  0
 30 29  1  0  0  0  0
 30 27  1  0  0  0  0
 31 29  2  0  0  0  0
M  END
>  <MODEL>
5

>  <REMARK>
 VINA RESULT:      -6.7      2.512      4.026
  Name = 
  10 active torsions:
  status: ('A' for Active; 'I' for Inactive)
    1  A    between atoms: C_4  and  N_18
    2  A    between atoms: C_4  and  C_23
    3  A    between atoms: C_6  and  C_22
    4  A    between atoms: C_7  and  C_12
    5  A    between atoms: C_7  and  C_28
    6  A    between atoms: C_9  and  C_22
    7  A    between atoms: C_12  and  C_14
    8  A    between atoms: C_14  and  O_15
    9  A    between atoms: O_15  and  C_24
   10  A    between atoms: C_23  and  C_24
                            x       y       z     vdW  Elec       q    Type
                         _______ _______ _______ _____ _____    ______ ____

>  <TORSDO>
F 10

$$$$
=
 OpenBabel11062414323D

 31 33  0  0  1  0  0  0  0  0999 V2000
  186.9440  179.2840  146.2120 F   0  0  0  0  0  0  0  0  0  0  0  0
  187.7930  177.3290  145.1830 C   0  0  0  0  0  0  0  0  0  0  0  0
  189.8540  176.7050  147.6550 C   0  0  0  0  0  2  0  0  0  0  0  0
  188.9520  177.9100  147.8200 C   0  0  1  0  0  3  0  0  0  0  0  0
  189.8330  177.7630  146.5680 C   0  0  2  0  0  3  0  0  0  0  0  0
  187.5010  177.4660  147.6390 C   0  0  0  0  0  2  0  0  0  0  0  0
  185.6420  177.4480  146.1870 F   0  0  0  0  0  0  0  0  0  0  0  0
  189.1350  177.2480  145.3290 C   0  0  0  0  0  0  0  0  0  0  0  0
  186.9460  177.9020  146.2890 C   0  0  0  0  0  0  0  0  0  0  0  0
  187.1380  176.9100  143.9260 C   0  0  0  0  0  0  0  0  0  0  0  0
  187.1790  175.6960  143.5890 O   0  0  0  0  0  0  0  0  0  0  0  0
  185.1920  178.1520  143.2480 N   0  0  0  0  0  2  0  0  0  0  0  0
  186.4400  177.8820  143.0680 C   0  0  2  0  0  3  0  0  0  0  0  0
  184.6170  179.0510  142.2670 C   0  0  0  0  0  2  0  0  0  0  0  0
  185.5160  179.0080  141.0430 C   0  0  0  0  0  2  0  0  0  0  0  0
  187.1940  178.6250  141.6310 S   0  0  0  0  0  0  0  0  0  0  0  0
  190.0030  176.7840  144.1870 C   0  0  0  0  0  2  0  0  0  0  0  0
  190.6740  179.1250  143.6400 C   0  0  0  0  0  1  0  0  0  0  0  0
  191.1800  177.7110  143.8780 C   0  0  1  0  0  0  0  0  0  0  0  0
  192.0980  177.7140  144.9320 O   0  0  0  0  0  1  0  0  0  0  0  0
  191.8620  177.1980  142.6170 C   0  0  0  0  0  2  0  0  0  0  0  0
  191.3660  177.8640  141.4610 O   0  0  0  0  0  0  0  0  0  0  0  0
  191.3590  177.2660  140.2000 C   0  0  0  0  0  0  0  0  0  0  0  0
  190.2680  177.1620  139.5770 O   0  0  0  0  0  0  0  0  0  0  0  0
  193.6370  177.6850  139.6940 O   0  0  0  0  0  1  0  0  0  0  0  0
  192.6180  176.7360  139.5850 C   0  0  2  0  0  3  0  0  0  0  0  0
  192.3830  176.3860  138.1270 C   0  0  0  0  0  2  0  0  0  0  0  0
  194.0870  174.0580  137.9450 O   0  0  0  0  0  1  0  0  0  0  0  0
  194.4740  175.2450  137.3340 C   0  0  0  0  0  0  0  0  0  0  0  0
  193.6440  176.4010  137.4040 N   0  0  0  0  0  2  0  0  0  0  0  0
  195.5660  175.2990  136.7100 O   0  0  0  0  0  0  0  0  0  0  0  0
  1  9  1  0  0  0  0
  2  8  2  0  0  0  0
  2  9  1  0  0  0  0
  3  4  1  0  0  0  0
  4  6  1  6  0  0  0
  5  3  1  1  0  0  0
  5  4  1  0  0  0  0
  7  9  1  0  0  0  0
  8  5  1  0  0  0  0
  9  6  1  0  0  0  0
 10  2  1  0  0  0  0
 11 10  2  0  0  0  0
 13 12  1  0  0  0  0
 13 10  1  6  0  0  0
 14 12  1  0  0  0  0
 15 16  1  0  0  0  0
 15 14  1  0  0  0  0
 16 13  1  0  0  0  0
 17  8  1  0  0  0  0
 19 18  1  6  0  0  0
 19 17  1  0  0  0  0
 19 20  1  0  0  0  0
 21 19  1  0  0  0  0
 22 21  1  0  0  0  0
 23 22  1  0  0  0  0
 24 23  2  0  0  0  0
 26 25  1  6  0  0  0
 26 23  1  0  0  0  0
 27 26  1  0  0  0  0
 29 30  1  0  0  0  0
 29 28  1  0  0  0  0
 30 27  1  0  0  0  0
 31 29  2  0  0  0  0
M  END
>  <MODEL>
6

>  <REMARK>
 VINA RESULT:      -6.5      2.445      2.967
  Name = 
  10 active torsions:
  status: ('A' for Active; 'I' for Inactive)
    1  A    between atoms: C_4  and  N_18
    2  A    between atoms: C_4  and  C_23
    3  A    between atoms: C_6  and  C_22
    4  A    between atoms: C_7  and  C_12
    5  A    between atoms: C_7  and  C_28
    6  A    between atoms: C_9  and  C_22
    7  A    between atoms: C_12  and  C_14
    8  A    between atoms: C_14  and  O_15
    9  A    between atoms: O_15  and  C_24
   10  A    between atoms: C_23  and  C_24
                            x       y       z     vdW  Elec       q    Type
                         _______ _______ _______ _____ _____    ______ ____

>  <TORSDO>
F 10

$$$$
=
 OpenBabel11062414323D

 31 33  0  0  1  0  0  0  0  0999 V2000
  188.8290  178.8320  146.5040 F   0  0  0  0  0  0  0  0  0  0  0  0
  188.8690  176.9530  145.0650 C   0  0  0  0  0  0  0  0  0  0  0  0
  191.7060  175.8540  146.2850 C   0  0  0  0  0  2  0  0  0  0  0  0
  191.1390  177.1020  146.9260 C   0  0  1  0  0  3  0  0  0  0  0  0
  191.3490  177.0350  145.4040 C   0  0  2  0  0  3  0  0  0  0  0  0
  189.7120  176.8120  147.3900 C   0  0  0  0  0  2  0  0  0  0  0  0
  187.4190  177.1330  146.9410 F   0  0  0  0  0  0  0  0  0  0  0  0
  190.1140  176.7390  144.5820 C   0  0  0  0  0  0  0  0  0  0  0  0
  188.6810  177.4570  146.4740 C   0  0  0  0  0  0  0  0  0  0  0  0
  187.6770  176.7500  144.2160 C   0  0  0  0  0  0  0  0  0  0  0  0
  187.5390  175.6570  143.6040 O   0  0  0  0  0  0  0  0  0  0  0  0
  186.0290  178.2620  145.1040 N   0  0  0  0  0  2  0  0  0  0  0  0
  186.6520  177.7980  144.0750 C   0  0  2  0  0  3  0  0  0  0  0  0
  184.9810  179.2160  144.8000 C   0  0  0  0  0  2  0  0  0  0  0  0
  184.5950  179.0060  143.3460 C   0  0  0  0  0  2  0  0  0  0  0  0
  186.0730  178.3820  142.4900 S   0  0  0  0  0  0  0  0  0  0  0  0
  190.3190  176.3460  143.1410 C   0  0  0  0  0  2  0  0  0  0  0  0
  189.6510  177.3860  140.9730 C   0  0  0  0  0  1  0  0  0  0  0  0
  190.5430  177.5270  142.1950 C   0  0  1  0  0  0  0  0  0  0  0  0
  190.2660  178.7360  142.8400 O   0  0  0  0  0  1  0  0  0  0  0  0
  192.0030  177.5100  141.7630 C   0  0  0  0  0  2  0  0  0  0  0  0
  192.1160  177.5760  140.3450 O   0  0  0  0  0  0  0  0  0  0  0  0
  193.1790  176.9940  139.6530 C   0  0  0  0  0  0  0  0  0  0  0  0
  194.3440  177.0970  140.1210 O   0  0  0  0  0  0  0  0  0  0  0  0
  193.8150  176.7650  137.3810 O   0  0  0  0  0  1  0  0  0  0  0  0
  192.9580  176.2650  138.3630 C   0  0  2  0  0  3  0  0  0  0  0  0
  191.5140  176.4090  137.9190 C   0  0  0  0  0  2  0  0  0  0  0  0
  190.3240  174.9590  135.7200 O   0  0  0  0  0  0  0  0  0  0  0  0
  190.2220  174.4570  137.0120 C   0  0  0  0  0  0  0  0  0  0  0  0
  190.8090  175.1530  138.1090 N   0  0  0  0  0  2  0  0  0  0  0  0
  189.6060  173.3780  137.2160 O   0  0  0  0  0  1  0  0  0  0  0  0
  2  9  1  0  0  0  0
  4  3  1  1  0  0  0
  4  6  1  0  0  0  0
  5  3  1  1  0  0  0
  5  4  1  0  0  0  0
  8  2  2  0  0  0  0
  8  5  1  0  0  0  0
  9  1  1  0  0  0  0
  9  7  1  0  0  0  0
  9  6  1  0  0  0  0
 10  2  1  0  0  0  0
 11 10  2  0  0  0  0
 13 10  1  6  0  0  0
 13 12  1  0  0  0  0
 14 12  1  0  0  0  0
 15 14  1  0  0  0  0
 16 15  1  0  0  0  0
 16 13  1  0  0  0  0
 17  8  1  0  0  0  0
 19 18  1  6  0  0  0
 19 20  1  0  0  0  0
 19 17  1  0  0  0  0
 21 19  1  0  0  0  0
 22 21  1  0  0  0  0
 23 24  2  0  0  0  0
 23 22  1  0  0  0  0
 26 25  1  6  0  0  0
 26 23  1  0  0  0  0
 27 30  1  0  0  0  0
 27 26  1  0  0  0  0
 28 29  2  0  0  0  0
 29 31  1  0  0  0  0
 29 30  1  0  0  0  0
M  END
>  <MODEL>
7

>  <REMARK>
 VINA RESULT:      -6.5      1.815      2.527
  Name = 
  10 active torsions:
  status: ('A' for Active; 'I' for Inactive)
    1  A    between atoms: C_4  and  N_18
    2  A    between atoms: C_4  and  C_23
    3  A    between atoms: C_6  and  C_22
    4  A    between atoms: C_7  and  C_12
    5  A    between atoms: C_7  and  C_28
    6  A    between atoms: C_9  and  C_22
    7  A    between atoms: C_12  and  C_14
    8  A    between atoms: C_14  and  O_15
    9  A    between atoms: O_15  and  C_24
   10  A    between atoms: C_23  and  C_24
                            x       y       z     vdW  Elec       q    Type
                         _______ _______ _______ _____ _____    ______ ____

>  <TORSDO>
F 10

$$$$
=
 OpenBabel11062414323D

 31 33  0  0  1  0  0  0  0  0999 V2000
  187.2200  176.3060  145.0060 F   0  0  0  0  0  0  0  0  0  0  0  0
  188.5230  178.0560  144.0880 C   0  0  0  0  0  0  0  0  0  0  0  0
  186.0770  179.1220  142.1850 C   0  0  0  0  0  2  0  0  0  0  0  0
  185.7580  177.9570  143.0980 C   0  0  1  0  0  3  0  0  0  0  0  0
  186.9590  177.8890  142.1400 C   0  0  2  0  0  3  0  0  0  0  0  0
  186.1040  178.3500  144.5340 C   0  0  0  0  0  2  0  0  0  0  0  0
  187.6490  178.0970  146.2990 F   0  0  0  0  0  0  0  0  0  0  0  0
  188.3110  178.1720  142.7580 C   0  0  0  0  0  0  0  0  0  0  0  0
  187.3870  177.6790  145.0050 C   0  0  0  0  0  0  0  0  0  0  0  0
  189.8720  178.2410  144.6630 C   0  0  0  0  0  0  0  0  0  0  0  0
  190.4930  179.3140  144.4340 O   0  0  0  0  0  0  0  0  0  0  0  0
  190.3100  177.1670  146.7710 N   0  0  0  0  0  2  0  0  0  0  0  0
  190.4970  177.2010  145.4960 C   0  0  2  0  0  3  0  0  0  0  0  0
  191.0670  176.1490  147.4700 C   0  0  0  0  0  2  0  0  0  0  0  0
  192.2260  175.7580  146.5690 C   0  0  0  0  0  2  0  0  0  0  0  0
  191.6790  176.0260  144.8560 S   0  0  0  0  0  0  0  0  0  0  0  0
  189.4600  178.4350  141.8190 C   0  0  0  0  0  2  0  0  0  0  0  0
  191.6120  177.2490  141.3830 C   0  0  0  0  0  1  0  0  0  0  0  0
  190.1000  177.1710  141.2430 C   0  0  1  0  0  0  0  0  0  0  0  0
  189.6280  176.0330  141.9030 O   0  0  0  0  0  1  0  0  0  0  0  0
  189.7310  177.0890  139.7680 C   0  0  0  0  0  2  0  0  0  0  0  0
  189.0490  178.2650  139.3460 O   0  0  0  0  0  0  0  0  0  0  0  0
  188.8420  178.5660  137.9990 C   0  0  0  0  0  0  0  0  0  0  0  0
  189.0590  179.7400  137.5940 O   0  0  0  0  0  0  0  0  0  0  0  0
  189.3590  177.2240  136.1150 O   0  0  0  0  0  1  0  0  0  0  0  0
  188.3550  177.5260  137.0370 C   0  0  2  0  0  3  0  0  0  0  0  0
  187.1140  178.0180  136.3160 C   0  0  0  0  0  2  0  0  0  0  0  0
  185.5650  178.9990  138.5510 O   0  0  0  0  0  1  0  0  0  0  0  0
  185.1960  177.8150  137.9240 C   0  0  0  0  0  0  0  0  0  0  0  0
  185.9410  177.3200  136.8150 N   0  0  0  0  0  2  0  0  0  0  0  0
  184.1940  177.1760  138.3370 O   0  0  0  0  0  0  0  0  0  0  0  0
  2 10  1  0  0  0  0
  2  9  1  0  0  0  0
  4  3  1  6  0  0  0
  4  6  1  0  0  0  0
  5  3  1  6  0  0  0
  5  8  1  0  0  0  0
  5  4  1  0  0  0  0
  6  9  1  0  0  0  0
  8  2  2  0  0  0  0
  9  1  1  0  0  0  0
  9  7  1  0  0  0  0
 11 10  2  0  0  0  0
 12 14  1  0  0  0  0
 13 10  1  1  0  0  0
 13 12  1  0  0  0  0
 15 14  1  0  0  0  0
 16 13  1  0  0  0  0
 16 15  1  0  0  0  0
 17  8  1  0  0  0  0
 19 18  1  1  0  0  0
 19 17  1  0  0  0  0
 19 20  1  0  0  0  0
 21 19  1  0  0  0  0
 22 21  1  0  0  0  0
 23 22  1  0  0  0  0
 24 23  2  0  0  0  0
 26 25  1  6  0  0  0
 26 23  1  0  0  0  0
 27 30  1  0  0  0  0
 27 26  1  0  0  0  0
 29 31  2  0  0  0  0
 29 28  1  0  0  0  0
 30 29  1  0  0  0  0
M  END
>  <MODEL>
8

>  <REMARK>
 VINA RESULT:      -6.4      2.354      4.417
  Name = 
  10 active torsions:
  status: ('A' for Active; 'I' for Inactive)
    1  A    between atoms: C_4  and  N_18
    2  A    between atoms: C_4  and  C_23
    3  A    between atoms: C_6  and  C_22
    4  A    between atoms: C_7  and  C_12
    5  A    between atoms: C_7  and  C_28
    6  A    between atoms: C_9  and  C_22
    7  A    between atoms: C_12  and  C_14
    8  A    between atoms: C_14  and  O_15
    9  A    between atoms: O_15  and  C_24
   10  A    between atoms: C_23  and  C_24
                            x       y       z     vdW  Elec       q    Type
                         _______ _______ _______ _____ _____    ______ ____

>  <TORSDO>
F 10

$$$$
=
 OpenBabel11062414323D

 31 33  0  0  1  0  0  0  0  0999 V2000
  188.1920  176.6410  146.2800 F   0  0  0  0  0  0  0  0  0  0  0  0
  187.6500  177.9640  144.3940 C   0  0  0  0  0  0  0  0  0  0  0  0
  184.8370  179.0110  145.7100 C   0  0  0  0  0  2  0  0  0  0  0  0
  185.6870  178.1040  146.5750 C   0  0  1  0  0  3  0  0  0  0  0  0
  185.2830  177.6720  145.1560 C   0  0  2  0  0  3  0  0  0  0  0  0
  187.0880  178.7050  146.6890 C   0  0  0  0  0  2  0  0  0  0  0  0
  189.3290  178.5580  145.9680 F   0  0  0  0  0  0  0  0  0  0  0  0
  186.3370  177.8560  144.0870 C   0  0  0  0  0  0  0  0  0  0  0  0
  188.0940  177.9470  145.8340 C   0  0  0  0  0  0  0  0  0  0  0  0
  188.6750  178.0460  143.3320 C   0  0  0  0  0  0  0  0  0  0  0  0
  188.5890  178.9590  142.4670 O   0  0  0  0  0  0  0  0  0  0  0  0
  189.5740  175.8200  143.1580 N   0  0  0  0  0  2  0  0  0  0  0  0
  189.7910  177.0860  143.2720 C   0  0  2  0  0  3  0  0  0  0  0  0
  190.7630  174.9930  143.2110 C   0  0  0  0  0  2  0  0  0  0  0  0
  191.8490  175.8160  143.8820 C   0  0  0  0  0  2  0  0  0  0  0  0
  191.4940  177.5620  143.5160 S   0  0  0  0  0  0  0  0  0  0  0  0
  185.8920  177.7560  142.6500 C   0  0  0  0  0  2  0  0  0  0  0  0
  183.5920  178.7200  142.5610 C   0  0  0  0  0  1  0  0  0  0  0  0
  185.0450  178.9370  142.1730 C   0  0  1  0  0  0  0  0  0  0  0  0
  185.5040  180.1330  142.7330 O   0  0  0  0  0  1  0  0  0  0  0  0
  185.1590  179.0140  140.6570 C   0  0  0  0  0  2  0  0  0  0  0  0
  186.4640  178.6440  140.2240 O   0  0  0  0  0  0  0  0  0  0  0  0
  186.7820  178.4690  138.8770 C   0  0  0  0  0  0  0  0  0  0  0  0
  185.8810  178.6260  138.0090 O   0  0  0  0  0  0  0  0  0  0  0  0
  188.1210  177.4480  137.2080 O   0  0  0  0  0  1  0  0  0  0  0  0
  188.1660  178.0860  138.4490 C   0  0  2  0  0  3  0  0  0  0  0  0
  188.8000  177.1740  139.4830 C   0  0  0  0  0  2  0  0  0  0  0  0
  191.1070  175.5620  138.8240 O   0  0  0  0  0  0  0  0  0  0  0  0
  191.2820  176.7960  139.4370 C   0  0  0  0  0  0  0  0  0  0  0  0
  190.1580  177.6100  139.7610 N   0  0  0  0  0  2  0  0  0  0  0  0
  192.4430  177.2000  139.7060 O   0  0  0  0  0  1  0  0  0  0  0  0
  2  9  1  0  0  0  0
  4  3  1  6  0  0  0
  4  6  1  0  0  0  0
  5  3  1  6  0  0  0
  5  4  1  0  0  0  0
  8  2  2  0  0  0  0
  8  5  1  0  0  0  0
  9  7  1  0  0  0  0
  9  1  1  0  0  0  0
  9  6  1  0  0  0  0
 10  2  1  0  0  0  0
 11 10  2  0  0  0  0
 12 14  1  0  0  0  0
 12 13  1  0  0  0  0
 13 10  1  1  0  0  0
 13 16  1  0  0  0  0
 14 15  1  0  0  0  0
 16 15  1  0  0  0  0
 17  8  1  0  0  0  0
 19 18  1  1  0  0  0
 19 17  1  0  0  0  0
 19 20  1  0  0  0  0
 21 19  1  0  0  0  0
 22 21  1  0  0  0  0
 23 22  1  0  0  0  0
 24 23  2  0  0  0  0
 26 25  1  6  0  0  0
 26 23  1  0  0  0  0
 26 27  1  0  0  0  0
 27 30  1  0  0  0  0
 28 29  2  0  0  0  0
 29 31  1  0  0  0  0
 29 30  1  0  0  0  0
M  END
>  <MODEL>
9

>  <REMARK>
 VINA RESULT:      -6.3      2.421      4.509
  Name = 
  10 active torsions:
  status: ('A' for Active; 'I' for Inactive)
    1  A    between atoms: C_4  and  N_18
    2  A    between atoms: C_4  and  C_23
    3  A    between atoms: C_6  and  C_22
    4  A    between atoms: C_7  and  C_12
    5  A    between atoms: C_7  and  C_28
    6  A    between atoms: C_9  and  C_22
    7  A    between atoms: C_12  and  C_14
    8  A    between atoms: C_14  and  O_15
    9  A    between atoms: O_15  and  C_24
   10  A    between atoms: C_23  and  C_24
                            x       y       z     vdW  Elec       q    Type
                         _______ _______ _______ _____ _____    ______ ____

>  <TORSDO>
F 10

$$$$
