=
 OpenBabel11062416163D

 44 47  0  0  1  0  0  0  0  0999 V2000
  180.4780  179.5230  140.4380 C   0  0  0  0  0  0  0  0  0  0  0  0
  178.9310  174.4690  141.6720 C   0  0  0  0  0  2  0  0  0  0  0  0
  183.4850  174.6110  136.8120 C   0  0  2  0  0  3  0  0  0  0  0  0
  182.5860  177.9260  136.8440 S   0  0  0  0  0  0  0  0  0  0  0  0
  179.9410  176.1990  137.7800 O   0  0  0  0  0  1  0  0  0  0  0  0
  178.9800  175.3740  140.4770 C   0  0  2  0  0  3  0  0  0  0  0  0
  179.4540  174.4490  139.3410 C   0  0  1  0  0  3  0  0  0  0  0  0
  181.2050  176.5450  140.2190 O   0  0  0  0  0  0  0  0  0  0  0  0
  180.2920  178.7300  141.6920 C   0  0  0  0  0  2  0  0  0  0  0  0
  183.1070  179.4390  137.7080 C   0  0  0  0  0  2  0  0  0  0  0  0
  181.6750  179.3610  139.6720 N   0  0  0  0  0  2  0  0  0  0  0  0
  181.6590  175.5460  139.3160 C   0  0  0  0  0  2  0  0  0  0  0  0
  181.9270  180.0720  138.4240 C   0  0  1  0  0  3  0  0  0  0  0  0
  184.1600  177.0630  137.1960 C   0  0  1  0  0  3  0  0  0  0  0  0
  180.5110  175.0880  138.4170 C   0  0  2  0  0  0  0  0  0  0  0  0
  179.9090  176.5300  140.7500 C   0  0  0  0  0  0  0  0  0  0  0  0
  181.0480  174.1130  137.3460 C   0  0  2  0  0  3  0  0  0  0  0  0
  182.2540  181.5230  138.7220 C   0  0  0  0  0  1  0  0  0  0  0  0
  184.1920  176.0750  134.8800 C   0  0  0  0  0  1  0  0  0  0  0  0
  179.2070  173.1000  141.1000 C   0  0  0  0  0  2  0  0  0  0  0  0
  182.0220  174.8210  136.4040 C   0  0  0  0  0  2  0  0  0  0  0  0
  179.4790  177.5440  141.4380 N   0  0  0  0  0  0  0  0  0  0  0  0
  184.2700  176.8160  138.5680 O   0  0  0  0  0  1  0  0  0  0  0  0
  184.4240  175.7780  136.3630 C   0  0  2  0  0  0  0  0  0  0  0  0
  179.9340  173.2560  139.9120 O   0  0  0  0  0  0  0  0  0  0  0  0
  179.5650  180.2980  140.0460 O   0  0  0  0  0  0  0  0  0  0  0  0
  186.0280  174.2450  137.4170 O   0  0  0  0  0  1  0  0  0  0  0  0
  185.9140  175.3390  136.5540 C   0  0  2  0  0  3  0  0  0  0  0  0
  188.1980  175.7720  137.5800 C   0  0  0  0  0  2  0  0  0  0  0  0
  189.0590  176.7540  138.3820 C   0  0  1  0  0  0  0  0  0  0  0  0
  187.6850  178.5930  136.1760 O   0  0  0  0  0  0  0  0  0  0  0  0
  188.7780  178.8760  136.9970 C   0  0  0  0  0  0  0  0  0  0  0  0
  189.7130  177.8010  137.4710 C   0  0  0  0  0  2  0  0  0  0  0  0
  188.9840  180.0640  137.3560 O   0  0  0  0  0  0  0  0  0  0  0  0
  188.2420  177.4040  139.4920 C   0  0  0  0  0  1  0  0  0  0  0  0
  186.9790  176.3970  136.9020 C   0  0  1  0  0  3  0  0  0  0  0  0
  190.0810  176.0210  138.9820 O   0  0  0  0  0  1  0  0  0  0  0  0
  187.3750  177.2810  135.7260 C   0  0  0  0  0  2  0  0  0  0  0  0
  179.9280  173.5250  136.4950 C   0  0  0  0  0  2  0  0  0  0  0  0
  180.0070  172.1330  136.4910 O   0  0  0  0  0  1  0  0  0  0  0  0
  183.9490  173.2520  136.2840 C   0  0  0  0  0  2  0  0  0  0  0  0
  183.1520  170.6030  135.6220 O   0  0  0  0  0  0  0  0  0  0  0  0
  183.2480  170.8990  136.8420 C   0  0  0  0  0  3  0  0  0  0  0  0
  183.6430  172.2080  137.2490 N   0  0  0  0  0  2  0  0  0  0  0  0
  1  9  1  0  0  0  0
  3 41  1  6  0  0  0
  4 14  1  0  0  0  0
  4 10  1  0  0  0  0
  6 16  1  0  0  0  0
  6  2  1  1  0  0  0
  7 25  1  1  0  0  0
  7  6  1  0  0  0  0
  8 16  1  0  0  0  0
 10 13  1  0  0  0  0
 11  1  1  0  0  0  0
 12  8  1  0  0  0  0
 13 18  1  1  0  0  0
 13 11  1  0  0  0  0
 14 23  1  1  0  0  0
 15  5  1  6  0  0  0
 15 12  1  0  0  0  0
 15  7  1  0  0  0  0
 16 22  2  0  0  0  0
 17 39  1  6  0  0  0
 17 15  1  0  0  0  0
 20  2  1  0  0  0  0
 21  3  1  0  0  0  0
 21 17  1  0  0  0  0
 22  9  1  0  0  0  0
 24 19  1  6  0  0  0
 24 28  1  0  0  0  0
 24  3  1  0  0  0  0
 24 14  1  0  0  0  0
 25 20  1  0  0  0  0
 26  1  2  0  0  0  0
 28 27  1  1  0  0  0
 29 30  1  0  0  0  0
 30 37  1  0  0  0  0
 30 35  1  1  0  0  0
 31 32  1  0  0  0  0
 32 34  2  0  0  0  0
 32 33  1  0  0  0  0
 33 30  1  0  0  0  0
 36 28  1  6  0  0  0
 36 29  1  0  0  0  0
 38 31  1  0  0  0  0
 38 36  1  0  0  0  0
 40 39  1  0  0  0  0
 41 44  1  0  0  0  0
 42 43  2  0  0  0  0
 43 44  1  0  0  0  0
M  END
>  <MODEL>
1

>  <REMARK>
 VINA RESULT:      -5.5      0.000      0.000
  Name = 
  5 active torsions:
  status: ('A' for Active; 'I' for Inactive)
    1  A    between atoms: C_3  and  C_25
    2  A    between atoms: C_25  and  N_26
    3  A    between atoms: C_28  and  C_34
    4  A    between atoms: C_35  and  C_44
    5  A    between atoms: C_39  and  C_44
                            x       y       z     vdW  Elec       q    Type
                         _______ _______ _______ _____ _____    ______ ____

>  <TORSDO>
F 5

$$$$
=
 OpenBabel11062416163D

 44 47  0  0  1  0  0  0  0  0999 V2000
  187.3250  178.4050  141.5550 C   0  0  0  0  0  0  0  0  0  0  0  0
  182.6880  178.6500  144.3650 C   0  0  0  0  0  2  0  0  0  0  0  0
  181.6830  177.2400  137.9320 C   0  0  2  0  0  3  0  0  0  0  0  0
  184.9500  178.2890  137.7790 S   0  0  0  0  0  0  0  0  0  0  0  0
  183.5270  179.9220  140.2620 O   0  0  0  0  0  1  0  0  0  0  0  0
  183.3160  179.2970  143.1660 C   0  0  2  0  0  3  0  0  0  0  0  0
  182.1610  179.3880  142.1550 C   0  0  1  0  0  3  0  0  0  0  0  0
  184.3510  177.6290  141.5750 O   0  0  0  0  0  0  0  0  0  0  0  0
  186.8210  177.8550  142.8510 C   0  0  0  0  0  2  0  0  0  0  0  0
  186.5990  177.5380  137.9360 C   0  0  0  0  0  2  0  0  0  0  0  0
  186.9750  177.7570  140.3290 N   0  0  0  0  0  2  0  0  0  0  0  0
  183.1730  177.6110  140.7810 C   0  0  0  0  0  2  0  0  0  0  0  0
  187.3980  178.2400  139.0200 C   0  0  1  0  0  3  0  0  0  0  0  0
  184.1430  176.6860  137.4280 C   0  0  1  0  0  3  0  0  0  0  0  0
  182.5630  179.0100  140.7140 C   0  0  2  0  0  0  0  0  0  0  0  0
  184.4820  178.4660  142.6900 C   0  0  0  0  0  0  0  0  0  0  0  0
  181.3690  179.0090  139.7330 C   0  0  2  0  0  3  0  0  0  0  0  0
  188.8700  177.9380  138.8180 C   0  0  0  0  0  1  0  0  0  0  0  0
  182.6850  177.7500  135.6710 C   0  0  0  0  0  1  0  0  0  0  0  0
  181.2220  178.5830  144.0110 C   0  0  0  0  0  2  0  0  0  0  0  0
  181.8370  178.7190  138.3070 C   0  0  0  0  0  2  0  0  0  0  0  0
  185.6280  178.5740  143.2890 N   0  0  0  0  0  0  0  0  0  0  0  0
  184.1910  175.8710  138.5620 O   0  0  0  0  0  1  0  0  0  0  0  0
  182.7040  176.7690  136.8450 C   0  0  2  0  0  0  0  0  0  0  0  0
  181.1040  178.5790  142.6140 O   0  0  0  0  0  0  0  0  0  0  0  0
  188.0220  179.4550  141.5490 O   0  0  0  0  0  0  0  0  0  0  0  0
  181.2860  174.7820  137.1190 O   0  0  0  0  0  1  0  0  0  0  0  0
  182.2790  175.3580  136.3210 C   0  0  2  0  0  3  0  0  0  0  0  0
  182.8760  172.8880  136.2660 C   0  0  0  0  0  2  0  0  0  0  0  0
  183.9920  171.8520  136.4410 C   0  0  1  0  0  0  0  0  0  0  0  0
  185.3210  174.0800  134.5940 O   0  0  0  0  0  0  0  0  0  0  0  0
  185.7550  172.7770  134.8470 C   0  0  0  0  0  0  0  0  0  0  0  0
  184.7910  171.6640  135.1440 C   0  0  0  0  0  2  0  0  0  0  0  0
  186.9880  172.5270  134.8320 O   0  0  0  0  0  0  0  0  0  0  0  0
  184.8950  172.2260  137.6100 C   0  0  0  0  0  1  0  0  0  0  0  0
  183.3630  174.3110  135.9930 C   0  0  1  0  0  3  0  0  0  0  0  0
  183.3880  170.6330  136.7430 O   0  0  0  0  0  1  0  0  0  0  0  0
  183.9490  174.4520  134.5940 C   0  0  0  0  0  2  0  0  0  0  0  0
  180.6420  180.3500  139.7160 C   0  0  0  0  0  2  0  0  0  0  0  0
  180.6000  180.8570  138.4180 O   0  0  0  0  0  1  0  0  0  0  0  0
  180.2310  176.9910  137.5150 C   0  0  0  0  0  2  0  0  0  0  0  0
  178.9540  176.8060  134.9800 O   0  0  0  0  0  0  0  0  0  0  0  0
  179.0980  177.9510  135.4830 C   0  0  0  0  0  3  0  0  0  0  0  0
  179.7280  178.1210  136.7510 N   0  0  0  0  0  2  0  0  0  0  0  0
  1  9  1  0  0  0  0
  3 41  1  6  0  0  0
  3 21  1  0  0  0  0
  4 10  1  0  0  0  0
  6  2  1  1  0  0  0
  7 25  1  1  0  0  0
  7  6  1  0  0  0  0
  8 16  1  0  0  0  0
  9 22  1  0  0  0  0
 10 13  1  0  0  0  0
 11  1  1  0  0  0  0
 12  8  1  0  0  0  0
 13 18  1  6  0  0  0
 13 11  1  0  0  0  0
 14  4  1  0  0  0  0
 14 23  1  1  0  0  0
 15  5  1  6  0  0  0
 15 12  1  0  0  0  0
 15  7  1  0  0  0  0
 16  6  1  0  0  0  0
 16 22  2  0  0  0  0
 17 39  1  6  0  0  0
 17 15  1  0  0  0  0
 20  2  1  0  0  0  0
 21 17  1  0  0  0  0
 24 19  1  6  0  0  0
 24 14  1  0  0  0  0
 24  3  1  0  0  0  0
 25 20  1  0  0  0  0
 26  1  2  0  0  0  0
 28 24  1  0  0  0  0
 28 27  1  1  0  0  0
 29 30  1  0  0  0  0
 30 37  1  0  0  0  0
 30 35  1  1  0  0  0
 31 32  1  0  0  0  0
 32 33  1  0  0  0  0
 33 30  1  0  0  0  0
 34 32  2  0  0  0  0
 36 29  1  0  0  0  0
 36 28  1  6  0  0  0
 38 31  1  0  0  0  0
 38 36  1  0  0  0  0
 40 39  1  0  0  0  0
 42 43  2  0  0  0  0
 43 44  1  0  0  0  0
 44 41  1  0  0  0  0
M  END
>  <MODEL>
2

>  <REMARK>
 VINA RESULT:      -4.6      2.904      5.987
  Name = 
  5 active torsions:
  status: ('A' for Active; 'I' for Inactive)
    1  A    between atoms: C_3  and  C_25
    2  A    between atoms: C_25  and  N_26
    3  A    between atoms: C_28  and  C_34
    4  A    between atoms: C_35  and  C_44
    5  A    between atoms: C_39  and  C_44
                            x       y       z     vdW  Elec       q    Type
                         _______ _______ _______ _____ _____    ______ ____

>  <TORSDO>
F 5

$$$$
=
 OpenBabel11062416163D

 44 47  0  0  1  0  0  0  0  0999 V2000
  185.2780  178.8970  142.1280 C   0  0  0  0  0  0  0  0  0  0  0  0
  179.8940  178.3150  141.7610 C   0  0  0  0  0  2  0  0  0  0  0  0
  183.0210  176.5700  136.1440 C   0  0  2  0  0  3  0  0  0  0  0  0
  185.5800  178.2250  137.7270 S   0  0  0  0  0  0  0  0  0  0  0  0
  182.7660  179.6170  138.7260 O   0  0  0  0  0  1  0  0  0  0  0  0
  181.0010  179.0400  141.0550 C   0  0  2  0  0  3  0  0  0  0  0  0
  180.6490  178.8790  139.5660 C   0  0  1  0  0  3  0  0  0  0  0  0
  182.9920  177.5620  140.5670 O   0  0  0  0  0  0  0  0  0  0  0  0
  184.2010  178.2930  142.9720 C   0  0  0  0  0  2  0  0  0  0  0  0
  186.9190  177.8120  138.8870 C   0  0  0  0  0  2  0  0  0  0  0  0
  185.8010  178.1610  141.0180 N   0  0  0  0  0  2  0  0  0  0  0  0
  182.5100  177.2960  139.2570 C   0  0  0  0  0  2  0  0  0  0  0  0
  186.8310  178.6820  140.1280 C   0  0  1  0  0  3  0  0  0  0  0  0
  185.3650  176.4880  137.1980 C   0  0  1  0  0  3  0  0  0  0  0  0
  181.8610  178.5490  138.6710 C   0  0  2  0  0  0  0  0  0  0  0  0
  182.3310  178.4370  141.4370 C   0  0  0  0  0  0  0  0  0  0  0  0
  181.4730  178.2920  137.1980 C   0  0  2  0  0  3  0  0  0  0  0  0
  188.1720  178.6650  140.8360 C   0  0  0  0  0  1  0  0  0  0  0  0
  185.0640  177.2040  134.8020 C   0  0  0  0  0  1  0  0  0  0  0  0
  178.9330  177.9570  140.6540 C   0  0  0  0  0  2  0  0  0  0  0  0
  182.7170  178.0600  136.3400 C   0  0  0  0  0  2  0  0  0  0  0  0
  182.8870  178.7800  142.5580 N   0  0  0  0  0  0  0  0  0  0  0  0
  184.8610  175.7270  138.2570 O   0  0  0  0  0  1  0  0  0  0  0  0
  184.5370  176.2760  135.8990 C   0  0  2  0  0  0  0  0  0  0  0  0
  179.6500  177.8940  139.4510 O   0  0  0  0  0  0  0  0  0  0  0  0
  185.6910  180.0610  142.3780 O   0  0  0  0  0  0  0  0  0  0  0  0
  183.7580  173.9500  136.0090 O   0  0  0  0  0  1  0  0  0  0  0  0
  184.7020  174.7960  135.4200 C   0  0  2  0  0  3  0  0  0  0  0  0
  186.0220  172.6430  135.1440 C   0  0  0  0  0  2  0  0  0  0  0  0
  187.2290  171.8280  135.6210 C   0  0  1  0  0  0  0  0  0  0  0  0
  188.4190  174.7500  135.1900 O   0  0  0  0  0  0  0  0  0  0  0  0
  189.0980  173.5400  135.3410 C   0  0  0  0  0  0  0  0  0  0  0  0
  188.5100  172.2370  134.8810 C   0  0  0  0  0  2  0  0  0  0  0  0
  190.2340  173.5370  135.8820 O   0  0  0  0  0  0  0  0  0  0  0  0
  187.3910  171.9410  137.1320 C   0  0  0  0  0  1  0  0  0  0  0  0
  186.0950  174.1370  135.4550 C   0  0  1  0  0  3  0  0  0  0  0  0
  186.9780  170.4910  135.3200 O   0  0  0  0  0  1  0  0  0  0  0  0
  187.1320  174.8450  134.5940 C   0  0  0  0  0  2  0  0  0  0  0  0
  180.7090  179.4650  136.5940 C   0  0  0  0  0  2  0  0  0  0  0  0
  181.1590  179.7180  135.2990 O   0  0  0  0  0  1  0  0  0  0  0  0
  182.1340  176.0340  135.0180 C   0  0  0  0  0  2  0  0  0  0  0  0
  179.4010  176.7000  134.5940 O   0  0  0  0  0  0  0  0  0  0  0  0
  179.6570  175.7010  135.3170 C   0  0  0  0  0  3  0  0  0  0  0  0
  181.0030  175.3080  135.5730 N   0  0  0  0  0  2  0  0  0  0  0  0
  1 26  2  0  0  0  0
  1  9  1  0  0  0  0
  3 41  1  6  0  0  0
  3 21  1  0  0  0  0
  4 10  1  0  0  0  0
  6 16  1  0  0  0  0
  6  2  1  1  0  0  0
  7 25  1  1  0  0  0
  7  6  1  0  0  0  0
  8 16  1  0  0  0  0
 10 13  1  0  0  0  0
 11  1  1  0  0  0  0
 12  8  1  0  0  0  0
 13 18  1  1  0  0  0
 13 11  1  0  0  0  0
 14  4  1  0  0  0  0
 14 23  1  1  0  0  0
 15  5  1  1  0  0  0
 15 12  1  0  0  0  0
 15  7  1  0  0  0  0
 16 22  2  0  0  0  0
 17 39  1  6  0  0  0
 17 15  1  0  0  0  0
 20  2  1  0  0  0  0
 21 17  1  0  0  0  0
 22  9  1  0  0  0  0
 24 19  1  6  0  0  0
 24  3  1  0  0  0  0
 24 14  1  0  0  0  0
 25 20  1  0  0  0  0
 28 24  1  0  0  0  0
 28 27  1  1  0  0  0
 29 36  1  0  0  0  0
 29 30  1  0  0  0  0
 30 35  1  1  0  0  0
 31 32  1  0  0  0  0
 32 34  2  0  0  0  0
 33 32  1  0  0  0  0
 33 30  1  0  0  0  0
 36 28  1  6  0  0  0
 37 30  1  0  0  0  0
 38 31  1  0  0  0  0
 38 36  1  0  0  0  0
 40 39  1  0  0  0  0
 41 44  1  0  0  0  0
 42 43  2  0  0  0  0
 43 44  1  0  0  0  0
M  END
>  <MODEL>
3

>  <REMARK>
 VINA RESULT:      -4.5      2.899      4.624
  Name = 
  5 active torsions:
  status: ('A' for Active; 'I' for Inactive)
    1  A    between atoms: C_3  and  C_25
    2  A    between atoms: C_25  and  N_26
    3  A    between atoms: C_28  and  C_34
    4  A    between atoms: C_35  and  C_44
    5  A    between atoms: C_39  and  C_44
                            x       y       z     vdW  Elec       q    Type
                         _______ _______ _______ _____ _____    ______ ____

>  <TORSDO>
F 5

$$$$
=
 OpenBabel11062416163D

 44 47  0  0  1  0  0  0  0  0999 V2000
  183.1810  175.1050  136.4130 C   0  0  0  0  0  0  0  0  0  0  0  0
  186.7340  171.0990  135.5300 C   0  0  0  0  0  2  0  0  0  0  0  0
  189.6360  176.5630  137.9980 C   0  0  2  0  0  3  0  0  0  0  0  0
  186.5980  177.8900  137.1020 S   0  0  0  0  0  0  0  0  0  0  0  0
  187.2240  175.4180  135.0170 O   0  0  0  0  0  1  0  0  0  0  0  0
  186.5180  172.5260  135.1210 C   0  0  2  0  0  3  0  0  0  0  0  0
  187.9300  173.1340  135.1690 C   0  0  1  0  0  3  0  0  0  0  0  0
  185.9860  174.0400  137.0740 O   0  0  0  0  0  0  0  0  0  0  0  0
  183.2490  173.6420  136.7130 C   0  0  0  0  0  2  0  0  0  0  0  0
  184.9650  178.1170  137.8690 C   0  0  0  0  0  2  0  0  0  0  0  0
  183.8770  176.0320  137.2520 N   0  0  0  0  0  2  0  0  0  0  0  0
  187.3510  174.4180  137.1890 C   0  0  0  0  0  2  0  0  0  0  0  0
  183.8860  177.4710  137.0170 C   0  0  1  0  0  3  0  0  0  0  0  0
  187.4390  177.6910  138.7140 C   0  0  1  0  0  3  0  0  0  0  0  0
  187.9830  174.5400  135.8030 C   0  0  2  0  0  0  0  0  0  0  0  0
  185.5380  173.1830  136.0610 C   0  0  0  0  0  0  0  0  0  0  0  0
  189.4200  175.0920  135.9340 C   0  0  2  0  0  3  0  0  0  0  0  0
  182.5410  178.0580  137.3990 C   0  0  0  0  0  1  0  0  0  0  0  0
  189.3890  179.0750  137.9220 C   0  0  0  0  0  1  0  0  0  0  0  0
  188.2350  170.9690  135.6070 C   0  0  0  0  0  2  0  0  0  0  0  0
  189.4060  176.5190  136.4830 C   0  0  0  0  0  2  0  0  0  0  0  0
  184.2650  172.9930  135.8890 N   0  0  0  0  0  0  0  0  0  0  0  0
  187.0270  176.5010  139.3210 O   0  0  0  0  0  1  0  0  0  0  0  0
  188.9890  177.8100  138.6850 C   0  0  2  0  0  0  0  0  0  0  0  0
  188.7760  172.2390  135.8490 O   0  0  0  0  0  0  0  0  0  0  0  0
  182.5420  175.5080  135.4040 O   0  0  0  0  0  0  0  0  0  0  0  0
  190.5450  177.0040  140.4050 O   0  0  0  0  0  1  0  0  0  0  0  0
  189.5240  177.9230  140.1500 C   0  0  2  0  0  3  0  0  0  0  0  0
  189.2380  177.9200  142.6750 C   0  0  0  0  0  2  0  0  0  0  0  0
  188.3750  177.4500  143.8510 C   0  0  1  0  0  0  0  0  0  0  0  0
  186.2550  178.6320  141.7890 O   0  0  0  0  0  0  0  0  0  0  0  0
  186.0870  178.3250  143.1410 C   0  0  0  0  0  0  0  0  0  0  0  0
  187.2200  178.4230  144.1230 C   0  0  0  0  0  2  0  0  0  0  0  0
  184.9580  177.9510  143.5500 O   0  0  0  0  0  0  0  0  0  0  0  0
  187.8720  176.0300  143.6150 C   0  0  0  0  0  1  0  0  0  0  0  0
  188.5240  177.9380  141.3250 C   0  0  1  0  0  3  0  0  0  0  0  0
  189.1840  177.4300  144.9850 O   0  0  0  0  0  1  0  0  0  0  0  0
  187.4960  179.0580  141.2420 C   0  0  0  0  0  2  0  0  0  0  0  0
  190.1460  175.1200  134.5940 C   0  0  0  0  0  2  0  0  0  0  0  0
  191.1400  176.0970  134.6060 O   0  0  0  0  0  1  0  0  0  0  0  0
  191.1400  176.4640  138.2670 C   0  0  0  0  0  2  0  0  0  0  0  0
  193.8710  175.8700  137.7360 O   0  0  0  0  0  0  0  0  0  0  0  0
  193.0290  174.9460  137.5860 C   0  0  0  0  0  3  0  0  0  0  0  0
  191.6420  175.1700  137.8340 N   0  0  0  0  0  2  0  0  0  0  0  0
  1  9  1  0  0  0  0
  1 11  1  0  0  0  0
  2 20  1  0  0  0  0
  3 41  1  6  0  0  0
  3 24  1  0  0  0  0
  4 10  1  0  0  0  0
  4 14  1  0  0  0  0
  6  7  1  0  0  0  0
  6  2  1  1  0  0  0
  6 16  1  0  0  0  0
  7 15  1  0  0  0  0
  7 25  1  1  0  0  0
  8 12  1  0  0  0  0
 13 11  1  0  0  0  0
 13 18  1  1  0  0  0
 13 10  1  0  0  0  0
 14 23  1  6  0  0  0
 15  5  1  6  0  0  0
 15 17  1  0  0  0  0
 15 12  1  0  0  0  0
 16  8  1  0  0  0  0
 17 39  1  6  0  0  0
 17 21  1  0  0  0  0
 20 25  1  0  0  0  0
 21  3  1  0  0  0  0
 22 16  2  0  0  0  0
 22  9  1  0  0  0  0
 24 19  1  6  0  0  0
 24 14  1  0  0  0  0
 24 28  1  0  0  0  0
 26  1  2  0  0  0  0
 28 27  1  1  0  0  0
 29 30  1  0  0  0  0
 30 35  1  6  0  0  0
 30 33  1  0  0  0  0
 30 37  1  0  0  0  0
 31 32  1  0  0  0  0
 32 34  2  0  0  0  0
 32 33  1  0  0  0  0
 36 28  1  6  0  0  0
 36 29  1  0  0  0  0
 38 36  1  0  0  0  0
 38 31  1  0  0  0  0
 39 40  1  0  0  0  0
 43 42  2  0  0  0  0
 43 44  1  0  0  0  0
 44 41  1  0  0  0  0
M  END
>  <MODEL>
4

>  <REMARK>
 VINA RESULT:      -4.1      3.603      7.436
  Name = 
  5 active torsions:
  status: ('A' for Active; 'I' for Inactive)
    1  A    between atoms: C_3  and  C_25
    2  A    between atoms: C_25  and  N_26
    3  A    between atoms: C_28  and  C_34
    4  A    between atoms: C_35  and  C_44
    5  A    between atoms: C_39  and  C_44
                            x       y       z     vdW  Elec       q    Type
                         _______ _______ _______ _____ _____    ______ ____

>  <TORSDO>
F 5

$$$$
=
 OpenBabel11062416163D

 44 47  0  0  1  0  0  0  0  0999 V2000
  186.8530  177.0140  135.9850 C   0  0  0  0  0  0  0  0  0  0  0  0
  191.2980  173.9020  135.9270 C   0  0  0  0  0  2  0  0  0  0  0  0
  190.4110  176.9450  141.7860 C   0  0  2  0  0  3  0  0  0  0  0  0
  188.2000  178.7450  139.8710 S   0  0  0  0  0  0  0  0  0  0  0  0
  190.6300  177.7640  137.8740 O   0  0  0  0  0  1  0  0  0  0  0  0
  190.9260  175.3330  136.1790 C   0  0  2  0  0  3  0  0  0  0  0  0
  191.7860  175.7230  137.3940 C   0  0  1  0  0  3  0  0  0  0  0  0
  188.9400  175.5770  137.7230 O   0  0  0  0  0  0  0  0  0  0  0  0
  187.1850  175.6220  135.5550 C   0  0  0  0  0  2  0  0  0  0  0  0
  186.4490  178.6280  139.3930 C   0  0  0  0  0  2  0  0  0  0  0  0
  186.6170  177.2890  137.3700 N   0  0  0  0  0  2  0  0  0  0  0  0
  189.7960  175.7400  138.8450 C   0  0  0  0  0  2  0  0  0  0  0  0
  186.3140  178.6200  137.8800 C   0  0  1  0  0  3  0  0  0  0  0  0
  187.9820  177.6480  141.3180 C   0  0  1  0  0  3  0  0  0  0  0  0
  191.0300  176.5520  138.4530 C   0  0  2  0  0  0  0  0  0  0  0  0
  189.4410  175.4380  136.4220 C   0  0  0  0  0  0  0  0  0  0  0  0
  191.8780  176.8480  139.7100 C   0  0  2  0  0  3  0  0  0  0  0  0
  184.8910  178.9940  137.5120 C   0  0  0  0  0  1  0  0  0  0  0  0
  189.4900  179.1060  142.7120 C   0  0  0  0  0  1  0  0  0  0  0  0
  192.4370  173.6510  136.8850 C   0  0  0  0  0  2  0  0  0  0  0  0
  191.1140  177.7450  140.6830 C   0  0  0  0  0  2  0  0  0  0  0  0
  188.6290  175.4580  135.4100 N   0  0  0  0  0  0  0  0  0  0  0  0
  187.6900  176.3490  140.8900 O   0  0  0  0  0  1  0  0  0  0  0  0
  189.1420  177.6600  142.3530 C   0  0  2  0  0  0  0  0  0  0  0  0
  192.3180  174.5480  137.9560 O   0  0  0  0  0  0  0  0  0  0  0  0
  186.8180  177.9420  135.1330 O   0  0  0  0  0  0  0  0  0  0  0  0
  188.2620  175.6150  143.3920 O   0  0  0  0  0  1  0  0  0  0  0  0
  188.6770  176.9240  143.6540 C   0  0  2  0  0  3  0  0  0  0  0  0
  186.2350  177.4400  144.1260 C   0  0  0  0  0  2  0  0  0  0  0  0
  185.2440  178.4620  144.6950 C   0  0  1  0  0  0  0  0  0  0  0  0
  187.5280  178.3180  146.9100 O   0  0  0  0  0  0  0  0  0  0  0  0
  186.2430  178.8570  147.0080 C   0  0  0  0  0  0  0  0  0  0  0  0
  185.0910  178.3100  146.2140 C   0  0  0  0  0  2  0  0  0  0  0  0
  186.0430  179.8320  147.7780 O   0  0  0  0  0  0  0  0  0  0  0  0
  185.6520  179.8790  144.3090 C   0  0  0  0  0  1  0  0  0  0  0  0
  187.6760  177.6140  144.6020 C   0  0  1  0  0  3  0  0  0  0  0  0
  184.0010  178.2060  144.1190 O   0  0  0  0  0  1  0  0  0  0  0  0
  187.8430  177.2210  146.0640 C   0  0  0  0  0  2  0  0  0  0  0  0
  193.1870  177.5500  139.3640 C   0  0  0  0  0  2  0  0  0  0  0  0
  194.2050  177.1110  140.2090 O   0  0  0  0  0  1  0  0  0  0  0  0
  191.4320  176.6160  142.8780 C   0  0  0  0  0  2  0  0  0  0  0  0
  191.4290  176.6810  145.7220 O   0  0  0  0  0  0  0  0  0  0  0  0
  191.6800  177.7530  145.1100 C   0  0  0  0  0  3  0  0  0  0  0  0
  191.6990  177.7960  143.6850 N   0  0  0  0  0  2  0  0  0  0  0  0
  1 11  1  0  0  0  0
  2 20  1  0  0  0  0
  3 24  1  0  0  0  0
  3 41  1  1  0  0  0
  4 14  1  0  0  0  0
  6  2  1  1  0  0  0
  6 16  1  0  0  0  0
  6  7  1  0  0  0  0
  7 25  1  1  0  0  0
  7 15  1  0  0  0  0
  8 12  1  0  0  0  0
  9  1  1  0  0  0  0
 10  4  1  0  0  0  0
 11 13  1  0  0  0  0
 13 18  1  1  0  0  0
 13 10  1  0  0  0  0
 14 23  1  6  0  0  0
 14 24  1  0  0  0  0
 15  5  1  6  0  0  0
 15 12  1  0  0  0  0
 15 17  1  0  0  0  0
 16  8  1  0  0  0  0
 17 39  1  6  0  0  0
 17 21  1  0  0  0  0
 20 25  1  0  0  0  0
 21  3  1  0  0  0  0
 22  9  1  0  0  0  0
 22 16  2  0  0  0  0
 24 19  1  1  0  0  0
 24 28  1  0  0  0  0
 26  1  2  0  0  0  0
 28 27  1  6  0  0  0
 29 36  1  0  0  0  0
 29 30  1  0  0  0  0
 30 35  1  6  0  0  0
 30 33  1  0  0  0  0
 31 32  1  0  0  0  0
 32 34  2  0  0  0  0
 33 32  1  0  0  0  0
 36 28  1  6  0  0  0
 36 38  1  0  0  0  0
 37 30  1  0  0  0  0
 38 31  1  0  0  0  0
 39 40  1  0  0  0  0
 41 44  1  0  0  0  0
 43 42  2  0  0  0  0
 44 43  1  0  0  0  0
M  END
>  <MODEL>
5

>  <REMARK>
 VINA RESULT:      -4.1      5.288      9.949
  Name = 
  5 active torsions:
  status: ('A' for Active; 'I' for Inactive)
    1  A    between atoms: C_3  and  C_25
    2  A    between atoms: C_25  and  N_26
    3  A    between atoms: C_28  and  C_34
    4  A    between atoms: C_35  and  C_44
    5  A    between atoms: C_39  and  C_44
                            x       y       z     vdW  Elec       q    Type
                         _______ _______ _______ _____ _____    ______ ____

>  <TORSDO>
F 5

$$$$
=
 OpenBabel11062416163D

 44 47  0  0  1  0  0  0  0  0999 V2000
  182.7320  177.9980  140.3780 C   0  0  0  0  0  0  0  0  0  0  0  0
  184.9170  176.1880  135.7520 C   0  0  0  0  0  2  0  0  0  0  0  0
  189.5140  177.4410  140.4060 C   0  0  2  0  0  3  0  0  0  0  0  0
  186.8240  179.0380  141.8230 S   0  0  0  0  0  0  0  0  0  0  0  0
  186.4270  179.1910  138.5550 O   0  0  0  0  0  1  0  0  0  0  0  0
  185.0170  177.3810  136.6560 C   0  0  2  0  0  3  0  0  0  0  0  0
  186.5270  177.6720  136.7060 C   0  0  1  0  0  3  0  0  0  0  0  0
  185.2310  176.7530  139.0940 O   0  0  0  0  0  0  0  0  0  0  0  0
  182.4640  176.8740  139.4300 C   0  0  0  0  0  2  0  0  0  0  0  0
  185.4570  178.6080  142.9430 C   0  0  0  0  0  2  0  0  0  0  0  0
  183.7750  177.8700  141.3490 N   0  0  0  0  0  2  0  0  0  0  0  0
  186.6470  176.8530  139.0250 C   0  0  0  0  0  2  0  0  0  0  0  0
  184.1220  178.9250  142.2940 C   0  0  1  0  0  3  0  0  0  0  0  0
  187.8390  177.6110  142.3490 C   0  0  1  0  0  3  0  0  0  0  0  0
  187.0490  178.0130  138.1170 C   0  0  2  0  0  0  0  0  0  0  0  0
  184.4120  177.0550  137.9990 C   0  0  0  0  0  0  0  0  0  0  0  0
  188.5810  178.2040  138.1660 C   0  0  2  0  0  3  0  0  0  0  0  0
  183.0590  179.0120  143.3730 C   0  0  0  0  0  1  0  0  0  0  0  0
  189.9230  179.0250  142.3300 C   0  0  0  0  0  1  0  0  0  0  0  0
  186.3230  176.0080  135.2350 C   0  0  0  0  0  2  0  0  0  0  0  0
  189.0330  178.6280  139.5630 C   0  0  0  0  0  2  0  0  0  0  0  0
  183.1240  177.1120  138.1490 N   0  0  0  0  0  0  0  0  0  0  0  0
  187.2370  176.4200  141.9330 O   0  0  0  0  0  1  0  0  0  0  0  0
  189.3390  177.6640  141.9440 C   0  0  2  0  0  0  0  0  0  0  0  0
  187.2100  176.5670  136.1660 O   0  0  0  0  0  0  0  0  0  0  0  0
  182.0630  179.0630  140.2930 O   0  0  0  0  0  0  0  0  0  0  0  0
  189.6580  175.2710  142.3930 O   0  0  0  0  0  1  0  0  0  0  0  0
  190.1200  176.5500  142.7160 C   0  0  2  0  0  3  0  0  0  0  0  0
  188.9740  176.6130  144.9830 C   0  0  0  0  0  2  0  0  0  0  0  0
  189.0010  177.1990  146.3990 C   0  0  1  0  0  0  0  0  0  0  0  0
  192.0100  176.2750  145.9130 O   0  0  0  0  0  0  0  0  0  0  0  0
  191.3780  176.6140  147.1120 C   0  0  0  0  0  0  0  0  0  0  0  0
  189.9100  176.3830  147.3270 C   0  0  0  0  0  2  0  0  0  0  0  0
  192.0560  177.1310  148.0370 O   0  0  0  0  0  0  0  0  0  0  0  0
  189.4040  178.6690  146.3650 C   0  0  0  0  0  1  0  0  0  0  0  0
  190.3090  176.6720  144.2410 C   0  0  1  0  0  3  0  0  0  0  0  0
  187.7060  177.1260  146.9070 O   0  0  0  0  0  1  0  0  0  0  0  0
  191.3220  175.6910  144.8160 C   0  0  0  0  0  2  0  0  0  0  0  0
  189.0570  179.2690  137.1840 C   0  0  0  0  0  2  0  0  0  0  0  0
  189.7030  178.6720  136.1030 O   0  0  0  0  0  1  0  0  0  0  0  0
  190.9630  177.1270  140.0250 C   0  0  0  0  0  2  0  0  0  0  0  0
  192.9470  176.7520  138.0210 O   0  0  0  0  0  0  0  0  0  0  0  0
  192.0320  175.8910  138.1090 C   0  0  0  0  0  3  0  0  0  0  0  0
  191.0040  176.0130  139.0900 N   0  0  0  0  0  2  0  0  0  0  0  0
  1 11  1  0  0  0  0
  3 41  1  1  0  0  0
  3 24  1  0  0  0  0
  4 14  1  0  0  0  0
  4 10  1  0  0  0  0
  6  2  1  6  0  0  0
  6  7  1  0  0  0  0
  6 16  1  0  0  0  0
  7 25  1  1  0  0  0
  7 15  1  0  0  0  0
  9  1  1  0  0  0  0
 11 13  1  0  0  0  0
 12  8  1  0  0  0  0
 13 10  1  0  0  0  0
 13 18  1  1  0  0  0
 14 23  1  6  0  0  0
 15 17  1  0  0  0  0
 15  5  1  1  0  0  0
 15 12  1  0  0  0  0
 16 22  2  0  0  0  0
 16  8  1  0  0  0  0
 17 39  1  6  0  0  0
 17 21  1  0  0  0  0
 20  2  1  0  0  0  0
 20 25  1  0  0  0  0
 21  3  1  0  0  0  0
 22  9  1  0  0  0  0
 24 19  1  1  0  0  0
 24 14  1  0  0  0  0
 24 28  1  0  0  0  0
 26  1  2  0  0  0  0
 28 27  1  1  0  0  0
 29 30  1  0  0  0  0
 30 35  1  6  0  0  0
 30 37  1  0  0  0  0
 30 33  1  0  0  0  0
 31 32  1  0  0  0  0
 32 33  1  0  0  0  0
 32 34  2  0  0  0  0
 36 28  1  6  0  0  0
 36 38  1  0  0  0  0
 36 29  1  0  0  0  0
 38 31  1  0  0  0  0
 40 39  1  0  0  0  0
 42 43  2  0  0  0  0
 43 44  1  0  0  0  0
 44 41  1  0  0  0  0
M  END
>  <MODEL>
6

>  <REMARK>
 VINA RESULT:      -4.0      4.460      7.932
  Name = 
  5 active torsions:
  status: ('A' for Active; 'I' for Inactive)
    1  A    between atoms: C_3  and  C_25
    2  A    between atoms: C_25  and  N_26
    3  A    between atoms: C_28  and  C_34
    4  A    between atoms: C_35  and  C_44
    5  A    between atoms: C_39  and  C_44
                            x       y       z     vdW  Elec       q    Type
                         _______ _______ _______ _____ _____    ______ ____

>  <TORSDO>
F 5

$$$$
=
 OpenBabel11062416163D

 44 47  0  0  1  0  0  0  0  0999 V2000
  181.5440  178.1420  135.6530 C   0  0  0  0  0  0  0  0  0  0  0  0
  178.9420  182.1700  138.1950 C   0  0  0  0  0  2  0  0  0  0  0  0
  183.5170  179.2640  142.0680 C   0  0  2  0  0  3  0  0  0  0  0  0
  183.3370  176.9300  139.5550 S   0  0  0  0  0  0  0  0  0  0  0  0
  180.3700  178.3450  139.7730 O   0  0  0  0  0  1  0  0  0  0  0  0
  179.2050  180.7040  138.3770 C   0  0  2  0  0  3  0  0  0  0  0  0
  179.4940  180.5720  139.8820 C   0  0  1  0  0  3  0  0  0  0  0  0
  181.6310  180.0870  138.0300 O   0  0  0  0  0  0  0  0  0  0  0  0
  181.1710  179.5540  135.3310 C   0  0  0  0  0  2  0  0  0  0  0  0
  184.1490  176.6300  137.9560 C   0  0  0  0  0  2  0  0  0  0  0  0
  182.6950  177.8830  136.4620 N   0  0  0  0  0  2  0  0  0  0  0  0
  181.8810  180.1700  139.4270 C   0  0  0  0  0  2  0  0  0  0  0  0
  183.1150  176.5410  136.8460 C   0  0  1  0  0  3  0  0  0  0  0  0
  184.6860  178.0130  140.1500 C   0  0  1  0  0  3  0  0  0  0  0  0
  180.6800  179.6410  140.2090 C   0  0  2  0  0  0  0  0  0  0  0  0
  180.3510  180.2780  137.4940 C   0  0  0  0  0  0  0  0  0  0  0  0
  181.0200  179.5990  141.7150 C   0  0  2  0  0  3  0  0  0  0  0  0
  183.7350  175.8400  135.6530 C   0  0  0  0  0  1  0  0  0  0  0  0
  184.5540  176.9940  142.4500 C   0  0  0  0  0  1  0  0  0  0  0  0
  178.9340  182.7120  139.6030 C   0  0  0  0  0  2  0  0  0  0  0  0
  182.1390  178.5950  141.9930 C   0  0  0  0  0  2  0  0  0  0  0  0
  180.1320  180.0320  136.2380 N   0  0  0  0  0  0  0  0  0  0  0  0
  184.7150  179.1920  139.4000 O   0  0  0  0  0  1  0  0  0  0  0  0
  184.6900  178.3070  141.6770 C   0  0  2  0  0  0  0  0  0  0  0  0
  179.7010  181.8600  140.4090 O   0  0  0  0  0  0  0  0  0  0  0  0
  180.8240  177.1940  135.2400 O   0  0  0  0  0  0  0  0  0  0  0  0
  186.2470  180.1860  141.3960 O   0  0  0  0  0  1  0  0  0  0  0  0
  186.0490  178.9760  142.0680 C   0  0  2  0  0  3  0  0  0  0  0  0
  188.3500  178.6890  141.0280 C   0  0  0  0  0  2  0  0  0  0  0  0
  189.4200  177.6880  140.5780 C   0  0  1  0  0  0  0  0  0  0  0  0
  188.6000  176.6590  143.4780 O   0  0  0  0  0  0  0  0  0  0  0  0
  189.7150  176.3190  142.7090 C   0  0  0  0  0  0  0  0  0  0  0  0
  190.3360  177.2860  141.7420 C   0  0  0  0  0  2  0  0  0  0  0  0
  190.2130  175.1690  142.8240 O   0  0  0  0  0  0  0  0  0  0  0  0
  188.7770  176.4730  139.9210 C   0  0  0  0  0  1  0  0  0  0  0  0
  187.3440  178.1400  142.0380 C   0  0  1  0  0  3  0  0  0  0  0  0
  190.2100  178.3200  139.6210 O   0  0  0  0  0  1  0  0  0  0  0  0
  187.9730  177.9320  143.4100 C   0  0  0  0  0  2  0  0  0  0  0  0
  179.8180  179.1950  142.5620 C   0  0  0  0  0  2  0  0  0  0  0  0
  180.0130  177.9230  143.0980 O   0  0  0  0  0  1  0  0  0  0  0  0
  183.6940  179.8620  143.4660 C   0  0  0  0  0  2  0  0  0  0  0  0
  185.0890  179.4130  145.9050 O   0  0  0  0  0  0  0  0  0  0  0  0
  184.0630  178.7200  145.6800 C   0  0  0  0  0  3  0  0  0  0  0  0
  183.3130  178.8900  144.4790 N   0  0  0  0  0  2  0  0  0  0  0  0
  1 11  1  0  0  0  0
  2 20  1  0  0  0  0
  3 41  1  1  0  0  0
  4 14  1  0  0  0  0
  6  2  1  1  0  0  0
  6  7  1  0  0  0  0
  7 15  1  0  0  0  0
  7 25  1  6  0  0  0
  8 12  1  0  0  0  0
  9  1  1  0  0  0  0
  9 22  1  0  0  0  0
 10  4  1  0  0  0  0
 11 13  1  0  0  0  0
 12 15  1  0  0  0  0
 13 18  1  6  0  0  0
 13 10  1  0  0  0  0
 14 23  1  6  0  0  0
 14 24  1  0  0  0  0
 15  5  1  6  0  0  0
 15 17  1  0  0  0  0
 16  8  1  0  0  0  0
 16  6  1  0  0  0  0
 17 21  1  0  0  0  0
 17 39  1  1  0  0  0
 20 25  1  0  0  0  0
 21  3  1  0  0  0  0
 22 16  2  0  0  0  0
 24 28  1  0  0  0  0
 24  3  1  0  0  0  0
 24 19  1  1  0  0  0
 26  1  2  0  0  0  0
 28 27  1  6  0  0  0
 29 36  1  0  0  0  0
 30 35  1  6  0  0  0
 30 29  1  0  0  0  0
 30 33  1  0  0  0  0
 32 34  2  0  0  0  0
 32 31  1  0  0  0  0
 33 32  1  0  0  0  0
 36 28  1  1  0  0  0
 36 38  1  0  0  0  0
 37 30  1  0  0  0  0
 38 31  1  0  0  0  0
 39 40  1  0  0  0  0
 41 44  1  0  0  0  0
 43 42  2  0  0  0  0
 44 43  1  0  0  0  0
M  END
>  <MODEL>
7

>  <REMARK>
 VINA RESULT:      -3.6      3.550      6.647
  Name = 
  5 active torsions:
  status: ('A' for Active; 'I' for Inactive)
    1  A    between atoms: C_3  and  C_25
    2  A    between atoms: C_25  and  N_26
    3  A    between atoms: C_28  and  C_34
    4  A    between atoms: C_35  and  C_44
    5  A    between atoms: C_39  and  C_44
                            x       y       z     vdW  Elec       q    Type
                         _______ _______ _______ _____ _____    ______ ____

>  <TORSDO>
F 5

$$$$
=
 OpenBabel11062416163D

 44 47  0  0  1  0  0  0  0  0999 V2000
  181.7740  178.0470  135.8660 C   0  0  0  0  0  0  0  0  0  0  0  0
  178.9380  181.8290  138.5320 C   0  0  0  0  0  2  0  0  0  0  0  0
  183.8550  179.2740  142.2280 C   0  0  2  0  0  3  0  0  0  0  0  0
  183.7840  176.9530  139.6970 S   0  0  0  0  0  0  0  0  0  0  0  0
  180.7210  178.1200  140.0230 O   0  0  0  0  0  1  0  0  0  0  0  0
  179.3240  180.3880  138.6900 C   0  0  2  0  0  3  0  0  0  0  0  0
  179.6720  180.2670  140.1840 C   0  0  1  0  0  3  0  0  0  0  0  0
  181.7800  179.9730  138.2600 O   0  0  0  0  0  0  0  0  0  0  0  0
  181.2780  179.4260  135.5720 C   0  0  0  0  0  2  0  0  0  0  0  0
  184.5660  176.7330  138.0700 C   0  0  0  0  0  2  0  0  0  0  0  0
  182.9680  177.8750  136.6370 N   0  0  0  0  0  2  0  0  0  0  0  0
  182.0670  180.0650  139.6490 C   0  0  0  0  0  2  0  0  0  0  0  0
  183.5080  176.5690  136.9930 C   0  0  1  0  0  3  0  0  0  0  0  0
  185.0600  178.1370  140.2610 C   0  0  1  0  0  3  0  0  0  0  0  0
  180.9390  179.4330  140.4630 C   0  0  2  0  0  0  0  0  0  0  0  0
  180.4720  180.0640  137.7660 C   0  0  0  0  0  0  0  0  0  0  0  0
  181.3290  179.4070  141.9580 C   0  0  2  0  0  3  0  0  0  0  0  0
  184.1440  175.9310  135.7730 C   0  0  0  0  0  1  0  0  0  0  0  0
  185.0840  177.0920  142.5530 C   0  0  0  0  0  1  0  0  0  0  0  0
  178.9310  182.3580  139.9450 C   0  0  0  0  0  2  0  0  0  0  0  0
  182.5350  178.4960  142.1890 C   0  0  0  0  0  2  0  0  0  0  0  0
  180.2330  179.8110  136.5160 N   0  0  0  0  0  0  0  0  0  0  0  0
  184.9690  179.3210  139.5230 O   0  0  0  0  0  1  0  0  0  0  0  0
  185.0880  178.4190  141.7900 C   0  0  2  0  0  0  0  0  0  0  0  0
  179.7900  181.5640  140.7180 O   0  0  0  0  0  0  0  0  0  0  0  0
  181.1200  177.0470  135.4660 O   0  0  0  0  0  0  0  0  0  0  0  0
  186.6890  180.1890  141.2080 O   0  0  0  0  0  1  0  0  0  0  0  0
  186.4010  179.1930  142.1450 C   0  0  2  0  0  3  0  0  0  0  0  0
  187.5720  177.7000  143.8360 C   0  0  0  0  0  2  0  0  0  0  0  0
  188.9130  177.3140  144.4690 C   0  0  1  0  0  0  0  0  0  0  0  0
  189.5410  177.3560  141.3470 O   0  0  0  0  0  0  0  0  0  0  0  0
  190.2920  176.8030  142.3860 C   0  0  0  0  0  0  0  0  0  0  0  0
  189.6480  176.2600  143.6290 C   0  0  0  0  0  2  0  0  0  0  0  0
  191.5450  176.7600  142.2810 O   0  0  0  0  0  0  0  0  0  0  0  0
  189.7740  178.5500  144.6990 C   0  0  0  0  0  1  0  0  0  0  0  0
  187.6810  178.4030  142.4840 C   0  0  1  0  0  3  0  0  0  0  0  0
  188.6430  176.7470  145.7120 O   0  0  0  0  0  1  0  0  0  0  0  0
  188.1230  177.4480  141.3820 C   0  0  0  0  0  2  0  0  0  0  0  0
  180.1910  178.9000  142.8370 C   0  0  0  0  0  2  0  0  0  0  0  0
  179.6670  179.9450  143.5950 O   0  0  0  0  0  1  0  0  0  0  0  0
  184.0280  179.8720  143.6270 C   0  0  0  0  0  2  0  0  0  0  0  0
  185.3600  179.3630  146.0880 O   0  0  0  0  0  0  0  0  0  0  0  0
  184.3030  178.7220  145.8490 C   0  0  0  0  0  3  0  0  0  0  0  0
  183.5810  178.9250  144.6360 N   0  0  0  0  0  2  0  0  0  0  0  0
  1 11  1  0  0  0  0
  2 20  1  0  0  0  0
  3 41  1  1  0  0  0
  4 14  1  0  0  0  0
  6  2  1  1  0  0  0
  6  7  1  0  0  0  0
  7 15  1  0  0  0  0
  7 25  1  6  0  0  0
  8 12  1  0  0  0  0
  9  1  1  0  0  0  0
  9 22  1  0  0  0  0
 10  4  1  0  0  0  0
 11 13  1  0  0  0  0
 12 15  1  0  0  0  0
 13 18  1  6  0  0  0
 13 10  1  0  0  0  0
 14 23  1  6  0  0  0
 14 24  1  0  0  0  0
 15  5  1  6  0  0  0
 15 17  1  0  0  0  0
 16  8  1  0  0  0  0
 16  6  1  0  0  0  0
 17 21  1  0  0  0  0
 17 39  1  1  0  0  0
 20 25  1  0  0  0  0
 21  3  1  0  0  0  0
 22 16  2  0  0  0  0
 24 28  1  0  0  0  0
 24  3  1  0  0  0  0
 24 19  1  1  0  0  0
 26  1  2  0  0  0  0
 28 27  1  6  0  0  0
 29 30  1  0  0  0  0
 30 35  1  1  0  0  0
 30 37  1  0  0  0  0
 31 38  1  0  0  0  0
 31 32  1  0  0  0  0
 32 33  1  0  0  0  0
 33 30  1  0  0  0  0
 34 32  2  0  0  0  0
 36 28  1  6  0  0  0
 36 29  1  0  0  0  0
 38 36  1  0  0  0  0
 39 40  1  0  0  0  0
 41 44  1  0  0  0  0
 43 42  2  0  0  0  0
 44 43  1  0  0  0  0
M  END
>  <MODEL>
8

>  <REMARK>
 VINA RESULT:      -3.5      3.696      6.820
  Name = 
  5 active torsions:
  status: ('A' for Active; 'I' for Inactive)
    1  A    between atoms: C_3  and  C_25
    2  A    between atoms: C_25  and  N_26
    3  A    between atoms: C_28  and  C_34
    4  A    between atoms: C_35  and  C_44
    5  A    between atoms: C_39  and  C_44
                            x       y       z     vdW  Elec       q    Type
                         _______ _______ _______ _____ _____    ______ ____

>  <TORSDO>
F 5

$$$$
=
 OpenBabel11062416163D

 44 47  0  0  1  0  0  0  0  0999 V2000
  182.3110  178.1110  140.0670 C   0  0  0  0  0  0  0  0  0  0  0  0
  184.8600  175.9960  135.7680 C   0  0  0  0  0  2  0  0  0  0  0  0
  189.0610  177.5280  140.7050 C   0  0  2  0  0  3  0  0  0  0  0  0
  186.2760  179.2250  141.7830 S   0  0  0  0  0  0  0  0  0  0  0  0
  186.1580  179.1670  138.4910 O   0  0  0  0  0  1  0  0  0  0  0  0
  184.8950  177.2440  136.5990 C   0  0  2  0  0  3  0  0  0  0  0  0
  186.3980  177.5320  136.7580 C   0  0  1  0  0  3  0  0  0  0  0  0
  184.8970  176.7750  139.0820 O   0  0  0  0  0  0  0  0  0  0  0  0
  182.1130  176.9290  139.1730 C   0  0  0  0  0  2  0  0  0  0  0  0
  184.8160  178.8740  142.8090 C   0  0  0  0  0  2  0  0  0  0  0  0
  183.2670  178.0410  141.1290 N   0  0  0  0  0  2  0  0  0  0  0  0
  186.3140  176.8640  139.1270 C   0  0  0  0  0  2  0  0  0  0  0  0
  183.5430  179.1540  142.0300 C   0  0  1  0  0  3  0  0  0  0  0  0
  187.2290  177.8300  142.4850 C   0  0  1  0  0  3  0  0  0  0  0  0
  186.8030  177.9620  138.1830 C   0  0  2  0  0  0  0  0  0  0  0  0
  184.1760  177.0080  137.9040 C   0  0  0  0  0  0  0  0  0  0  0  0
  188.3270  178.1480  138.3500 C   0  0  2  0  0  3  0  0  0  0  0  0
  182.3940  179.3140  143.0070 C   0  0  0  0  0  1  0  0  0  0  0  0
  189.3220  179.2310  142.5510 C   0  0  0  0  0  1  0  0  0  0  0  0
  186.3030  175.7760  135.3850 C   0  0  0  0  0  2  0  0  0  0  0  0
  188.6630  178.6600  139.7510 C   0  0  0  0  0  2  0  0  0  0  0  0
  182.8810  177.0800  137.9400 N   0  0  0  0  0  0  0  0  0  0  0  0
  186.6530  176.6180  142.0960 O   0  0  0  0  0  1  0  0  0  0  0  0
  188.7580  177.8510  142.2050 C   0  0  2  0  0  0  0  0  0  0  0  0
  187.1140  176.3910  136.3500 O   0  0  0  0  0  0  0  0  0  0  0  0
  181.6620  179.1700  139.8570 O   0  0  0  0  0  0  0  0  0  0  0  0
  189.1590  175.4810  142.7100 O   0  0  0  0  0  1  0  0  0  0  0  0
  189.4610  176.7860  143.1100 C   0  0  2  0  0  3  0  0  0  0  0  0
  190.7130  177.1900  145.2840 C   0  0  0  0  0  2  0  0  0  0  0  0
  190.8040  176.8450  146.7750 C   0  0  1  0  0  0  0  0  0  0  0  0
  187.7070  177.4370  146.3310 O   0  0  0  0  0  0  0  0  0  0  0  0
  188.4220  177.3530  147.5270 C   0  0  0  0  0  0  0  0  0  0  0  0
  189.8720  177.7300  147.6130 C   0  0  0  0  0  2  0  0  0  0  0  0
  187.8360  176.9440  148.5640 O   0  0  0  0  0  0  0  0  0  0  0  0
  190.5300  175.3640  147.0030 C   0  0  0  0  0  1  0  0  0  0  0  0
  189.3560  176.9040  144.6440 C   0  0  1  0  0  3  0  0  0  0  0  0
  192.1110  177.1030  147.1850 O   0  0  0  0  0  1  0  0  0  0  0  0
  188.2890  177.8840  145.1130 C   0  0  0  0  0  2  0  0  0  0  0  0
  188.8940  179.1460  137.3460 C   0  0  0  0  0  2  0  0  0  0  0  0
  189.6660  178.4830  136.3930 O   0  0  0  0  0  1  0  0  0  0  0  0
  190.5330  177.1840  140.4690 C   0  0  0  0  0  2  0  0  0  0  0  0
  192.1710  177.0120  138.1490 O   0  0  0  0  0  0  0  0  0  0  0  0
  191.4860  176.0020  138.4600 C   0  0  0  0  0  3  0  0  0  0  0  0
  190.6420  176.0150  139.6100 N   0  0  0  0  0  2  0  0  0  0  0  0
  1 11  1  0  0  0  0
  3 41  1  1  0  0  0
  3 24  1  0  0  0  0
  4 14  1  0  0  0  0
  4 10  1  0  0  0  0
  6  2  1  6  0  0  0
  6  7  1  0  0  0  0
  6 16  1  0  0  0  0
  7 25  1  1  0  0  0
  7 15  1  0  0  0  0
  8 12  1  0  0  0  0
  9  1  1  0  0  0  0
 11 13  1  0  0  0  0
 13 10  1  0  0  0  0
 13 18  1  1  0  0  0
 14 23  1  6  0  0  0
 15 17  1  0  0  0  0
 15  5  1  1  0  0  0
 15 12  1  0  0  0  0
 16 22  2  0  0  0  0
 16  8  1  0  0  0  0
 17 39  1  6  0  0  0
 17 21  1  0  0  0  0
 20  2  1  0  0  0  0
 20 25  1  0  0  0  0
 21  3  1  0  0  0  0
 22  9  1  0  0  0  0
 24 14  1  0  0  0  0
 24 19  1  1  0  0  0
 24 28  1  0  0  0  0
 26  1  2  0  0  0  0
 28 27  1  6  0  0  0
 29 30  1  0  0  0  0
 30 35  1  1  0  0  0
 30 37  1  0  0  0  0
 30 33  1  0  0  0  0
 31 32  1  0  0  0  0
 32 33  1  0  0  0  0
 32 34  2  0  0  0  0
 36 28  1  6  0  0  0
 36 38  1  0  0  0  0
 36 29  1  0  0  0  0
 38 31  1  0  0  0  0
 40 39  1  0  0  0  0
 42 43  2  0  0  0  0
 43 44  1  0  0  0  0
 44 41  1  0  0  0  0
M  END
>  <MODEL>
9

>  <REMARK>
 VINA RESULT:      -3.4      4.533      7.816
  Name = 
  5 active torsions:
  status: ('A' for Active; 'I' for Inactive)
    1  A    between atoms: C_3  and  C_25
    2  A    between atoms: C_25  and  N_26
    3  A    between atoms: C_28  and  C_34
    4  A    between atoms: C_35  and  C_44
    5  A    between atoms: C_39  and  C_44
                            x       y       z     vdW  Elec       q    Type
                         _______ _______ _______ _____ _____    ______ ____

>  <TORSDO>
F 5

$$$$
