=
 OpenBabel11062417523D

 39 43  0  0  1  0  0  0  0  0999 V2000
  190.0980  176.3590  136.9520 C   0  0  0  0  0  0  0  0  0  0  0  0
  189.0420  177.2860  135.0660 O   0  0  0  0  0  1  0  0  0  0  0  0
  189.4250  176.8160  138.0870 C   0  0  0  0  0  3  0  0  0  0  0  0
  190.6750  175.6290  134.7890 N   0  0  0  0  0  2  0  0  0  0  0  0
  190.1530  176.9920  139.2750 C   0  0  0  0  0  0  0  0  0  0  0  0
  191.4260  176.0700  136.9800 C   0  0  0  0  0  0  0  0  0  0  0  0
  192.1850  176.2380  138.1380 C   0  0  0  0  0  3  0  0  0  0  0  0
  191.8690  175.5940  135.6530 C   0  0  1  0  0  3  0  0  0  0  0  0
  189.5440  176.1010  135.6080 C   0  0  1  0  0  3  0  0  0  0  0  0
  191.5380  176.7030  139.2940 C   0  0  0  0  0  3  0  0  0  0  0  0
  193.4990  172.3130  136.3280 C   0  0  0  0  0  0  0  0  0  0  0  0
  191.9160  173.2260  135.0210 N   0  0  0  0  0  0  0  0  0  0  0  0
  194.2070  171.4310  136.8810 O   0  0  0  0  0  0  0  0  0  0  0  0
  192.4090  174.1980  135.7260 C   0  0  0  0  0  0  0  0  0  0  0  0
  192.5460  172.0190  135.3260 N   0  0  0  0  0  2  0  0  0  0  0  0
  193.5190  173.7690  136.6540 C   0  0  2  0  0  3  0  0  0  0  0  0
  195.8810  174.4870  137.4080 C   0  0  2  0  0  3  0  0  0  0  0  0
  195.9870  176.1900  134.8980 C   0  0  0  0  0  2  0  0  0  0  0  0
  195.2520  174.8640  138.5980 O   0  0  0  0  0  1  0  0  0  0  0  0
  197.2680  175.7570  135.6340 C   0  0  1  0  0  3  0  0  0  0  0  0
  194.6930  175.7740  135.6040 C   0  0  0  0  0  2  0  0  0  0  0  0
  197.0310  175.4680  137.1280 C   0  0  2  0  0  3  0  0  0  0  0  0
  198.2040  175.0380  137.7520 O   0  0  0  0  0  1  0  0  0  0  0  0
  194.8620  174.4010  136.2500 C   0  0  2  0  0  3  0  0  0  0  0  0
  199.1640  174.7090  134.5940 O   0  0  0  0  0  0  0  0  0  0  0  0
  197.2300  173.4870  134.6010 O   0  0  0  0  0  1  0  0  0  0  0  0
  197.9500  174.6290  134.9180 C   0  0  0  0  0  0  0  0  0  0  0  0
  190.0740  177.7290  141.5550 C   0  0  0  0  0  3  0  0  0  0  0  0
  189.4670  177.4540  140.4450 N   0  0  0  0  0  0  0  0  0  0  0  0
  189.3020  178.1950  142.7450 C   0  0  2  0  0  3  0  0  0  0  0  0
  190.8740  176.8940  144.0690 O   0  0  0  0  0  1  0  0  0  0  0  0
  189.1430  178.0420  145.2450 C   0  0  0  0  0  2  0  0  0  0  0  0
  190.1010  178.0600  144.0550 C   0  0  2  0  0  3  0  0  0  0  0  0
  187.9730  176.4300  143.7540 O   0  0  0  0  0  0  0  0  0  0  0  0
  188.0580  176.9540  145.0700 C   0  0  2  0  0  3  0  0  0  0  0  0
  187.9370  177.4940  142.8310 C   0  0  0  0  0  2  0  0  0  0  0  0
  186.6960  177.4160  145.5730 C   0  0  0  0  0  2  0  0  0  0  0  0
  186.8390  178.2010  146.8650 C   0  0  0  0  0  2  0  0  0  0  0  0
  185.4890  178.7490  147.2710 C   0  0  0  0  0  1  0  0  0  0  0  0
  1  6  2  0  0  0  0
  1  3  1  0  0  0  0
  3  5  2  0  0  0  0
  4  9  1  0  0  0  0
  4  8  1  0  0  0  0
  5 10  1  0  0  0  0
  5 29  1  0  0  0  0
  6  7  1  0  0  0  0
  7 10  2  0  0  0  0
  8 14  1  1  0  0  0
  8  6  1  0  0  0  0
  9  2  1  6  0  0  0
  9  1  1  0  0  0  0
 11 16  1  0  0  0  0
 11 13  2  0  0  0  0
 12 15  1  0  0  0  0
 12 14  2  0  0  0  0
 15 11  1  0  0  0  0
 16 14  1  6  0  0  0
 17 19  1  1  0  0  0
 18 21  1  0  0  0  0
 18 20  1  0  0  0  0
 20 27  1  6  0  0  0
 20 22  1  0  0  0  0
 22 17  1  0  0  0  0
 22 23  1  6  0  0  0
 24 21  1  1  0  0  0
 24 16  1  0  0  0  0
 24 17  1  0  0  0  0
 25 27  2  0  0  0  0
 26 27  1  0  0  0  0
 29 28  2  0  0  0  0
 30 28  1  6  0  0  0
 30 36  1  0  0  0  0
 30 33  1  0  0  0  0
 33 31  1  6  0  0  0
 33 32  1  0  0  0  0
 34 35  1  0  0  0  0
 35 32  1  0  0  0  0
 35 37  1  6  0  0  0
 36 34  1  0  0  0  0
 37 38  1  0  0  0  0
 38 39  1  0  0  0  0
M  END
>  <MODEL>
1

>  <REMARK>
 VINA RESULT:      -7.5      0.000      0.000
  Name = 
  7 active torsions:
  status: ('A' for Active; 'I' for Inactive)
    1  A    between atoms: C_3  and  C_8
    2  A    between atoms: C_3  and  C_38
    3  A    between atoms: C_9  and  C_11
    4  A    between atoms: C_14  and  C_37
    5  A    between atoms: N_18  and  C_21
    6  A    between atoms: C_25  and  C_27
    7  A    between atoms: C_29  and  C_36
                            x       y       z     vdW  Elec       q    Type
                         _______ _______ _______ _____ _____    ______ ____

>  <TORSDO>
F 7

$$$$
=
 OpenBabel11062417523D

 39 43  0  0  1  0  0  0  0  0999 V2000
  183.8150  178.3970  142.3370 C   0  0  0  0  0  0  0  0  0  0  0  0
  182.2510  178.9320  144.0090 O   0  0  0  0  0  1  0  0  0  0  0  0
  185.0330  178.1250  142.9610 C   0  0  0  0  0  3  0  0  0  0  0  0
  181.5330  178.6230  141.8000 N   0  0  0  0  0  2  0  0  0  0  0  0
  186.2220  178.4230  142.2760 C   0  0  0  0  0  0  0  0  0  0  0  0
  183.7590  178.9260  141.0850 C   0  0  0  0  0  0  0  0  0  0  0  0
  184.9170  179.2420  140.3750 C   0  0  0  0  0  3  0  0  0  0  0  0
  182.3510  179.0930  140.6680 C   0  0  1  0  0  3  0  0  0  0  0  0
  182.4530  178.1680  142.8580 C   0  0  1  0  0  3  0  0  0  0  0  0
  186.1580  178.9870  140.9800 C   0  0  0  0  0  3  0  0  0  0  0  0
  181.8810  177.5180  137.3250 C   0  0  0  0  0  0  0  0  0  0  0  0
  181.6260  177.0590  139.5090 N   0  0  0  0  0  0  0  0  0  0  0  0
  181.9360  177.3370  136.0800 O   0  0  0  0  0  0  0  0  0  0  0  0
  182.0450  178.2860  139.4430 C   0  0  0  0  0  0  0  0  0  0  0  0
  181.4860  176.5100  138.2340 N   0  0  0  0  0  2  0  0  0  0  0  0
  182.2490  178.7800  138.0320 C   0  0  2  0  0  3  0  0  0  0  0  0
  181.9040  181.3130  137.6710 C   0  0  2  0  0  3  0  0  0  0  0  0
  178.9310  180.7880  137.9940 C   0  0  0  0  0  2  0  0  0  0  0  0
  182.8040  181.4610  138.7290 O   0  0  0  0  0  1  0  0  0  0  0  0
  179.4550  182.0500  137.2830 C   0  0  1  0  0  3  0  0  0  0  0  0
  180.0330  179.9100  138.5950 C   0  0  0  0  0  2  0  0  0  0  0  0
  180.8700  182.4500  137.7410 C   0  0  2  0  0  3  0  0  0  0  0  0
  181.3290  183.5710  137.0460 O   0  0  0  0  0  1  0  0  0  0  0  0
  181.2600  179.9080  137.6870 C   0  0  2  0  0  3  0  0  0  0  0  0
  179.1460  182.9380  135.0730 O   0  0  0  0  0  0  0  0  0  0  0  0
  179.4180  180.6700  135.2060 O   0  0  0  0  0  1  0  0  0  0  0  0
  179.3330  181.9230  135.7930 C   0  0  0  0  0  0  0  0  0  0  0  0
  188.6160  178.2940  142.3150 C   0  0  0  0  0  3  0  0  0  0  0  0
  187.4760  178.1400  142.9090 N   0  0  0  0  0  0  0  0  0  0  0  0
  189.8890  177.9690  143.0240 C   0  0  2  0  0  3  0  0  0  0  0  0
  189.3430  175.6380  142.5920 O   0  0  0  0  0  1  0  0  0  0  0  0
  191.3550  176.0850  143.7960 C   0  0  0  0  0  2  0  0  0  0  0  0
  190.3980  176.5510  142.7020 C   0  0  2  0  0  3  0  0  0  0  0  0
  189.5220  176.9870  145.2150 O   0  0  0  0  0  0  0  0  0  0  0  0
  190.7040  176.2020  145.1930 C   0  0  2  0  0  3  0  0  0  0  0  0
  189.7570  178.2000  144.5370 C   0  0  0  0  0  2  0  0  0  0  0  0
  191.6970  176.6640  146.2520 C   0  0  0  0  0  2  0  0  0  0  0  0
  191.5590  175.8330  147.5150 C   0  0  0  0  0  2  0  0  0  0  0  0
  192.9100  175.7080  148.1840 C   0  0  0  0  0  1  0  0  0  0  0  0
  1  9  1  0  0  0  0
  1  3  1  0  0  0  0
  4  9  1  0  0  0  0
  5 29  1  0  0  0  0
  5  3  2  0  0  0  0
  6  1  2  0  0  0  0
  7 10  2  0  0  0  0
  7  6  1  0  0  0  0
  8 14  1  6  0  0  0
  8  6  1  0  0  0  0
  8  4  1  0  0  0  0
  9  2  1  1  0  0  0
 10  5  1  0  0  0  0
 11 15  1  0  0  0  0
 13 11  2  0  0  0  0
 14 12  2  0  0  0  0
 15 12  1  0  0  0  0
 16 11  1  6  0  0  0
 16 14  1  0  0  0  0
 17 24  1  0  0  0  0
 17 22  1  0  0  0  0
 17 19  1  1  0  0  0
 18 21  1  0  0  0  0
 20 27  1  6  0  0  0
 20 22  1  0  0  0  0
 20 18  1  0  0  0  0
 22 23  1  6  0  0  0
 24 16  1  0  0  0  0
 24 21  1  1  0  0  0
 25 27  2  0  0  0  0
 26 27  1  0  0  0  0
 28 29  2  0  0  0  0
 30 28  1  6  0  0  0
 30 36  1  0  0  0  0
 32 35  1  0  0  0  0
 33 31  1  1  0  0  0
 33 30  1  0  0  0  0
 33 32  1  0  0  0  0
 35 34  1  0  0  0  0
 35 37  1  1  0  0  0
 36 34  1  0  0  0  0
 37 38  1  0  0  0  0
 38 39  1  0  0  0  0
M  END
>  <MODEL>
2

>  <REMARK>
 VINA RESULT:      -7.2      7.082     11.800
  Name = 
  7 active torsions:
  status: ('A' for Active; 'I' for Inactive)
    1  A    between atoms: C_3  and  C_8
    2  A    between atoms: C_3  and  C_38
    3  A    between atoms: C_9  and  C_11
    4  A    between atoms: C_14  and  C_37
    5  A    between atoms: N_18  and  C_21
    6  A    between atoms: C_25  and  C_27
    7  A    between atoms: C_29  and  C_36
                            x       y       z     vdW  Elec       q    Type
                         _______ _______ _______ _____ _____    ______ ____

>  <TORSDO>
F 7

$$$$
=
 OpenBabel11062417523D

 39 43  0  0  1  0  0  0  0  0999 V2000
  189.4880  177.4400  137.9040 C   0  0  0  0  0  0  0  0  0  0  0  0
  188.5350  178.9770  136.4020 O   0  0  0  0  0  1  0  0  0  0  0  0
  189.0370  177.7580  139.1870 C   0  0  0  0  0  3  0  0  0  0  0  0
  189.7000  177.1180  135.5810 N   0  0  0  0  0  2  0  0  0  0  0  0
  189.8790  177.4970  140.2800 C   0  0  0  0  0  0  0  0  0  0  0  0
  190.7080  176.8750  137.6980 C   0  0  0  0  0  0  0  0  0  0  0  0
  191.5750  176.6070  138.7570 C   0  0  0  0  0  3  0  0  0  0  0  0
  190.9170  176.6320  136.2560 C   0  0  1  0  0  3  0  0  0  0  0  0
  188.7840  177.6210  136.6190 C   0  0  1  0  0  3  0  0  0  0  0  0
  191.1530  176.9220  140.0580 C   0  0  0  0  0  3  0  0  0  0  0  0
  191.7780  173.0150  136.0190 C   0  0  0  0  0  0  0  0  0  0  0  0
  190.3360  174.5130  135.1700 N   0  0  0  0  0  0  0  0  0  0  0  0
  192.3090  171.9020  136.2760 O   0  0  0  0  0  0  0  0  0  0  0  0
  191.1140  175.1740  135.9710 C   0  0  0  0  0  0  0  0  0  0  0  0
  190.6870  173.1630  135.1330 N   0  0  0  0  0  2  0  0  0  0  0  0
  192.1770  174.3220  136.6200 C   0  0  2  0  0  3  0  0  0  0  0  0
  194.6120  174.8430  137.3010 C   0  0  2  0  0  3  0  0  0  0  0  0
  194.9090  176.1840  134.5940 C   0  0  0  0  0  2  0  0  0  0  0  0
  194.0380  175.4430  138.4250 O   0  0  0  0  0  1  0  0  0  0  0  0
  196.1330  175.6990  135.3930 C   0  0  1  0  0  3  0  0  0  0  0  0
  193.5790  176.0200  135.3340 C   0  0  0  0  0  2  0  0  0  0  0  0
  195.8700  175.6360  136.9090 C   0  0  2  0  0  3  0  0  0  0  0  0
  196.9860  175.1530  137.5970 O   0  0  0  0  0  1  0  0  0  0  0  0
  193.5850  174.7310  136.1520 C   0  0  2  0  0  3  0  0  0  0  0  0
  195.9060  173.4450  134.5940 O   0  0  0  0  0  1  0  0  0  0  0  0
  198.0320  174.2930  134.5940 O   0  0  0  0  0  0  0  0  0  0  0  0
  196.6720  174.4140  134.8360 C   0  0  0  0  0  0  0  0  0  0  0  0
  190.2190  178.1070  142.5730 C   0  0  0  0  0  3  0  0  0  0  0  0
  189.4190  177.8150  141.5990 N   0  0  0  0  0  0  0  0  0  0  0  0
  189.6790  178.4170  143.9310 C   0  0  2  0  0  3  0  0  0  0  0  0
  191.1050  176.6160  144.7290 O   0  0  0  0  0  1  0  0  0  0  0  0
  189.7570  177.7420  146.3460 C   0  0  0  0  0  2  0  0  0  0  0  0
  190.5710  177.8660  145.0590 C   0  0  2  0  0  3  0  0  0  0  0  0
  188.1520  176.7140  144.7470 O   0  0  0  0  0  0  0  0  0  0  0  0
  188.4730  176.9130  146.1150 C   0  0  2  0  0  3  0  0  0  0  0  0
  188.2230  177.9480  144.0690 C   0  0  0  0  0  2  0  0  0  0  0  0
  187.2850  177.4680  146.8900 C   0  0  0  0  0  2  0  0  0  0  0  0
  186.0770  177.6220  145.9830 C   0  0  0  0  0  2  0  0  0  0  0  0
  185.4020  178.9450  146.2660 C   0  0  0  0  0  1  0  0  0  0  0  0
  1  3  1  0  0  0  0
  3  5  2  0  0  0  0
  4  8  1  0  0  0  0
  4  9  1  0  0  0  0
  5 29  1  0  0  0  0
  6  1  2  0  0  0  0
  6  7  1  0  0  0  0
  7 10  2  0  0  0  0
  8 14  1  1  0  0  0
  8  6  1  0  0  0  0
  9  2  1  6  0  0  0
  9  1  1  0  0  0  0
 10  5  1  0  0  0  0
 11 13  2  0  0  0  0
 11 16  1  0  0  0  0
 12 14  2  0  0  0  0
 15 12  1  0  0  0  0
 15 11  1  0  0  0  0
 16 14  1  6  0  0  0
 17 19  1  1  0  0  0
 18 21  1  0  0  0  0
 18 20  1  0  0  0  0
 20 27  1  6  0  0  0
 20 22  1  0  0  0  0
 22 17  1  0  0  0  0
 22 23  1  1  0  0  0
 24 21  1  1  0  0  0
 24 16  1  0  0  0  0
 24 17  1  0  0  0  0
 25 27  1  0  0  0  0
 26 27  2  0  0  0  0
 29 28  2  0  0  0  0
 30 28  1  6  0  0  0
 30 36  1  0  0  0  0
 30 33  1  0  0  0  0
 33 31  1  6  0  0  0
 33 32  1  0  0  0  0
 34 35  1  0  0  0  0
 35 32  1  0  0  0  0
 35 37  1  1  0  0  0
 36 34  1  0  0  0  0
 38 39  1  0  0  0  0
 38 37  1  0  0  0  0
M  END
>  <MODEL>
3

>  <REMARK>
 VINA RESULT:      -6.3      1.231      1.520
  Name = 
  7 active torsions:
  status: ('A' for Active; 'I' for Inactive)
    1  A    between atoms: C_3  and  C_8
    2  A    between atoms: C_3  and  C_38
    3  A    between atoms: C_9  and  C_11
    4  A    between atoms: C_14  and  C_37
    5  A    between atoms: N_18  and  C_21
    6  A    between atoms: C_25  and  C_27
    7  A    between atoms: C_29  and  C_36
                            x       y       z     vdW  Elec       q    Type
                         _______ _______ _______ _____ _____    ______ ____

>  <TORSDO>
F 7

$$$$
=
 OpenBabel11062417523D

 39 43  0  0  1  0  0  0  0  0999 V2000
  187.8100  175.4100  137.1160 C   0  0  0  0  0  0  0  0  0  0  0  0
  187.8620  173.2530  136.1800 O   0  0  0  0  0  1  0  0  0  0  0  0
  186.4750  175.8130  137.1890 C   0  0  0  0  0  3  0  0  0  0  0  0
  189.8160  174.1770  137.0830 N   0  0  0  0  0  2  0  0  0  0  0  0
  186.1780  177.1800  137.0640 C   0  0  0  0  0  0  0  0  0  0  0  0
  188.8170  176.3080  136.9440 C   0  0  0  0  0  0  0  0  0  0  0  0
  188.5610  177.6720  136.8080 C   0  0  0  0  0  3  0  0  0  0  0  0
  190.1190  175.6100  136.9190 C   0  0  1  0  0  3  0  0  0  0  0  0
  188.3550  174.0420  137.2210 C   0  0  1  0  0  3  0  0  0  0  0  0
  187.2280  178.1080  136.8700 C   0  0  0  0  0  3  0  0  0  0  0  0
  192.7230  176.9040  139.2490 C   0  0  0  0  0  0  0  0  0  0  0  0
  190.5690  176.2660  139.2370 N   0  0  0  0  0  0  0  0  0  0  0  0
  193.8060  177.3950  139.6640 O   0  0  0  0  0  0  0  0  0  0  0  0
  191.0090  176.0780  138.0310 C   0  0  0  0  0  0  0  0  0  0  0  0
  191.5750  176.7690  140.0630 N   0  0  0  0  0  2  0  0  0  0  0  0
  192.4650  176.4320  137.8570 C   0  0  2  0  0  3  0  0  0  0  0  0
  194.7550  175.5120  137.0980 C   0  0  2  0  0  3  0  0  0  0  0  0
  193.3240  172.9030  136.4960 C   0  0  0  0  0  2  0  0  0  0  0  0
  194.7790  176.6190  136.2470 O   0  0  0  0  0  1  0  0  0  0  0  0
  194.8470  172.9560  136.7180 C   0  0  1  0  0  3  0  0  0  0  0  0
  192.6460  174.2770  136.5050 C   0  0  0  0  0  2  0  0  0  0  0  0
  195.4510  174.3350  136.3940 C   0  0  2  0  0  3  0  0  0  0  0  0
  196.8240  174.3580  136.6470 O   0  0  0  0  0  1  0  0  0  0  0  0
  193.3090  175.1860  137.5370 C   0  0  2  0  0  3  0  0  0  0  0  0
  195.2030  171.2280  138.3490 O   0  0  0  0  0  0  0  0  0  0  0  0
  195.5600  173.3700  139.0720 O   0  0  0  0  0  1  0  0  0  0  0  0
  195.2140  172.4590  138.0850 C   0  0  0  0  0  0  0  0  0  0  0  0
  184.2390  177.9280  138.2600 C   0  0  0  0  0  3  0  0  0  0  0  0
  184.8100  177.6010  137.1450 N   0  0  0  0  0  0  0  0  0  0  0  0
  182.8060  178.3460  138.2820 C   0  0  2  0  0  3  0  0  0  0  0  0
  183.6150  180.4880  139.1030 O   0  0  0  0  0  1  0  0  0  0  0  0
  181.2560  180.2380  138.8430 C   0  0  0  0  0  2  0  0  0  0  0  0
  182.6400  179.8770  138.3080 C   0  0  2  0  0  3  0  0  0  0  0  0
  181.9180  178.5380  140.5350 O   0  0  0  0  0  0  0  0  0  0  0  0
  180.9960  179.5680  140.2120 C   0  0  2  0  0  3  0  0  0  0  0  0
  182.0480  177.6680  139.4340 C   0  0  0  0  0  2  0  0  0  0  0  0
  179.5570  179.0890  140.3530 C   0  0  0  0  0  2  0  0  0  0  0  0
  179.0890  179.2110  141.7910 C   0  0  0  0  0  2  0  0  0  0  0  0
  179.5840  180.5180  142.3710 C   0  0  0  0  0  1  0  0  0  0  0  0
  1  3  1  0  0  0  0
  1  9  1  0  0  0  0
  4  9  1  0  0  0  0
  5 29  1  0  0  0  0
  5  3  2  0  0  0  0
  6  1  2  0  0  0  0
  7 10  2  0  0  0  0
  7  6  1  0  0  0  0
  8  6  1  0  0  0  0
  8  4  1  0  0  0  0
  8 14  1  1  0  0  0
  9  2  1  6  0  0  0
 10  5  1  0  0  0  0
 11 13  2  0  0  0  0
 11 15  1  0  0  0  0
 12 15  1  0  0  0  0
 14 12  2  0  0  0  0
 16 14  1  1  0  0  0
 16 11  1  0  0  0  0
 17 19  1  6  0  0  0
 17 24  1  0  0  0  0
 18 21  1  0  0  0  0
 18 20  1  0  0  0  0
 20 27  1  1  0  0  0
 22 23  1  1  0  0  0
 22 20  1  0  0  0  0
 22 17  1  0  0  0  0
 24 21  1  6  0  0  0
 24 16  1  0  0  0  0
 27 25  2  0  0  0  0
 27 26  1  0  0  0  0
 29 28  2  0  0  0  0
 30 28  1  1  0  0  0
 30 33  1  0  0  0  0
 30 36  1  0  0  0  0
 32 35  1  0  0  0  0
 33 32  1  0  0  0  0
 33 31  1  1  0  0  0
 35 37  1  6  0  0  0
 35 34  1  0  0  0  0
 36 34  1  0  0  0  0
 37 38  1  0  0  0  0
 38 39  1  0  0  0  0
M  END
>  <MODEL>
4

>  <REMARK>
 VINA RESULT:      -6.1      4.484      5.746
  Name = 
  7 active torsions:
  status: ('A' for Active; 'I' for Inactive)
    1  A    between atoms: C_3  and  C_8
    2  A    between atoms: C_3  and  C_38
    3  A    between atoms: C_9  and  C_11
    4  A    between atoms: C_14  and  C_37
    5  A    between atoms: N_18  and  C_21
    6  A    between atoms: C_25  and  C_27
    7  A    between atoms: C_29  and  C_36
                            x       y       z     vdW  Elec       q    Type
                         _______ _______ _______ _____ _____    ______ ____

>  <TORSDO>
F 7

$$$$
=
 OpenBabel11062417523D

 39 43  0  0  1  0  0  0  0  0999 V2000
  183.4130  178.5930  142.6100 C   0  0  0  0  0  0  0  0  0  0  0  0
  181.6480  179.6480  143.7510 O   0  0  0  0  0  1  0  0  0  0  0  0
  184.2910  178.0750  143.5630 C   0  0  0  0  0  3  0  0  0  0  0  0
  181.5160  179.3430  141.4330 N   0  0  0  0  0  2  0  0  0  0  0  0
  185.6590  178.0030  143.2490 C   0  0  0  0  0  0  0  0  0  0  0  0
  183.8500  179.0100  141.3910 C   0  0  0  0  0  0  0  0  0  0  0  0
  185.2000  178.9610  141.0450 C   0  0  0  0  0  3  0  0  0  0  0  0
  182.7110  179.4930  140.5820 C   0  0  1  0  0  3  0  0  0  0  0  0
  181.9500  178.7620  142.7150 C   0  0  1  0  0  3  0  0  0  0  0  0
  186.1090  178.4520  141.9850 C   0  0  0  0  0  3  0  0  0  0  0  0
  182.4970  177.9880  137.1810 C   0  0  0  0  0  0  0  0  0  0  0  0
  182.4120  177.3970  139.3460 N   0  0  0  0  0  0  0  0  0  0  0  0
  182.5550  177.8730  135.9280 O   0  0  0  0  0  0  0  0  0  0  0  0
  182.5530  178.6870  139.3280 C   0  0  0  0  0  0  0  0  0  0  0  0
  182.3580  176.8820  138.0510 N   0  0  0  0  0  2  0  0  0  0  0  0
  182.6030  179.2700  137.9370 C   0  0  2  0  0  3  0  0  0  0  0  0
  181.7080  181.6790  137.6850 C   0  0  2  0  0  3  0  0  0  0  0  0
  178.9310  180.5120  138.0660 C   0  0  0  0  0  2  0  0  0  0  0  0
  182.5900  181.9830  138.7250 O   0  0  0  0  0  1  0  0  0  0  0  0
  179.1460  181.8800  137.3920 C   0  0  1  0  0  3  0  0  0  0  0  0
  180.2160  179.8740  138.6020 C   0  0  0  0  0  2  0  0  0  0  0  0
  180.4570  182.5610  137.8280 C   0  0  2  0  0  3  0  0  0  0  0  0
  180.6390  183.7780  137.1660 O   0  0  0  0  0  1  0  0  0  0  0  0
  181.3830  180.1680  137.6630 C   0  0  2  0  0  3  0  0  0  0  0  0
  178.9520  180.6580  135.3320 O   0  0  0  0  0  1  0  0  0  0  0  0
  178.9370  182.9380  135.1420 O   0  0  0  0  0  0  0  0  0  0  0  0
  179.0030  181.7790  135.9010 C   0  0  0  0  0  0  0  0  0  0  0  0
  186.4360  177.6730  145.4920 C   0  0  0  0  0  3  0  0  0  0  0  0
  186.5640  177.4660  144.2210 N   0  0  0  0  0  0  0  0  0  0  0  0
  187.4200  177.0960  146.4560 C   0  0  2  0  0  3  0  0  0  0  0  0
  187.4120  179.2840  147.5190 O   0  0  0  0  0  1  0  0  0  0  0  0
  188.8390  177.6170  148.4590 C   0  0  0  0  0  2  0  0  0  0  0  0
  187.5120  177.9100  147.7610 C   0  0  2  0  0  3  0  0  0  0  0  0
  189.6670  177.9630  146.1390 O   0  0  0  0  0  0  0  0  0  0  0  0
  190.0330  177.8470  147.5050 C   0  0  2  0  0  3  0  0  0  0  0  0
  188.7960  176.9080  145.8000 C   0  0  0  0  0  2  0  0  0  0  0  0
  191.1300  176.8080  147.6990 C   0  0  0  0  0  2  0  0  0  0  0  0
  191.9350  176.6330  146.4240 C   0  0  0  0  0  2  0  0  0  0  0  0
  191.9960  175.1650  146.0660 C   0  0  0  0  0  1  0  0  0  0  0  0
  1  9  1  0  0  0  0
  1  3  1  0  0  0  0
  4  9  1  0  0  0  0
  5  3  2  0  0  0  0
  5 29  1  0  0  0  0
  6  1  2  0  0  0  0
  7  6  1  0  0  0  0
  7 10  2  0  0  0  0
  8 14  1  6  0  0  0
  8  6  1  0  0  0  0
  8  4  1  0  0  0  0
  9  2  1  1  0  0  0
 10  5  1  0  0  0  0
 11 15  1  0  0  0  0
 13 11  2  0  0  0  0
 14 12  2  0  0  0  0
 15 12  1  0  0  0  0
 16 11  1  6  0  0  0
 16 14  1  0  0  0  0
 17 22  1  0  0  0  0
 17 19  1  1  0  0  0
 18 21  1  0  0  0  0
 20 27  1  6  0  0  0
 20 22  1  0  0  0  0
 20 18  1  0  0  0  0
 22 23  1  6  0  0  0
 24 17  1  0  0  0  0
 24 16  1  0  0  0  0
 24 21  1  1  0  0  0
 25 27  1  0  0  0  0
 26 27  2  0  0  0  0
 29 28  2  0  0  0  0
 30 28  1  6  0  0  0
 30 33  1  0  0  0  0
 33 31  1  6  0  0  0
 33 32  1  0  0  0  0
 34 35  1  0  0  0  0
 35 37  1  6  0  0  0
 35 32  1  0  0  0  0
 36 34  1  0  0  0  0
 36 30  1  0  0  0  0
 38 37  1  0  0  0  0
 39 38  1  0  0  0  0
M  END
>  <MODEL>
5

>  <REMARK>
 VINA RESULT:      -6.1      8.547     12.009
  Name = 
  7 active torsions:
  status: ('A' for Active; 'I' for Inactive)
    1  A    between atoms: C_3  and  C_8
    2  A    between atoms: C_3  and  C_38
    3  A    between atoms: C_9  and  C_11
    4  A    between atoms: C_14  and  C_37
    5  A    between atoms: N_18  and  C_21
    6  A    between atoms: C_25  and  C_27
    7  A    between atoms: C_29  and  C_36
                            x       y       z     vdW  Elec       q    Type
                         _______ _______ _______ _____ _____    ______ ____

>  <TORSDO>
F 7

$$$$
=
 OpenBabel11062417523D

 39 43  0  0  1  0  0  0  0  0999 V2000
  186.1550  178.4350  139.4330 C   0  0  0  0  0  0  0  0  0  0  0  0
  184.5550  180.1280  139.1080 O   0  0  0  0  0  1  0  0  0  0  0  0
  186.6990  178.5990  140.7080 C   0  0  0  0  0  3  0  0  0  0  0  0
  184.7380  178.3860  137.5530 N   0  0  0  0  0  2  0  0  0  0  0  0
  188.0350  178.2200  140.9240 C   0  0  0  0  0  0  0  0  0  0  0  0
  186.8810  177.9070  138.4120 C   0  0  0  0  0  0  0  0  0  0  0  0
  188.2120  177.5270  138.5840 C   0  0  0  0  0  3  0  0  0  0  0  0
  186.0550  177.8350  137.1880 C   0  0  1  0  0  3  0  0  0  0  0  0
  184.7880  178.7580  138.9780 C   0  0  1  0  0  3  0  0  0  0  0  0
  188.7890  177.6860  139.8530 C   0  0  0  0  0  3  0  0  0  0  0  0
  185.3180  174.5490  135.5950 C   0  0  0  0  0  0  0  0  0  0  0  0
  186.7070  175.4740  137.0990 N   0  0  0  0  0  0  0  0  0  0  0  0
  184.8260  173.6920  134.8140 O   0  0  0  0  0  0  0  0  0  0  0  0
  185.9080  176.4210  136.7130 C   0  0  0  0  0  0  0  0  0  0  0  0
  186.4010  174.2720  136.4600 N   0  0  0  0  0  2  0  0  0  0  0  0
  184.8760  175.9700  135.7090 C   0  0  2  0  0  3  0  0  0  0  0  0
  183.3190  175.4180  137.6940 C   0  0  2  0  0  3  0  0  0  0  0  0
  180.9990  175.9020  135.7960 C   0  0  0  0  0  2  0  0  0  0  0  0
  184.0460  174.2270  137.7720 O   0  0  0  0  0  1  0  0  0  0  0  0
  180.8200  175.9720  137.3240 C   0  0  1  0  0  3  0  0  0  0  0  0
  182.4010  175.4700  135.3530 C   0  0  0  0  0  2  0  0  0  0  0  0
  181.8600  175.1310  138.0870 C   0  0  2  0  0  3  0  0  0  0  0  0
  181.6940  175.2530  139.4680 O   0  0  0  0  0  1  0  0  0  0  0  0
  183.4540  176.0540  136.2920 C   0  0  2  0  0  3  0  0  0  0  0  0
  181.3870  178.3040  137.2020 O   0  0  0  0  0  0  0  0  0  0  0  0
  179.9870  177.7070  138.9110 O   0  0  0  0  0  1  0  0  0  0  0  0
  180.7520  177.3950  137.7970 C   0  0  0  0  0  0  0  0  0  0  0  0
  189.8120  178.0430  142.5220 C   0  0  0  0  0  3  0  0  0  0  0  0
  188.5960  178.3800  142.2320 N   0  0  0  0  0  0  0  0  0  0  0  0
  190.3370  178.2220  143.9090 C   0  0  2  0  0  3  0  0  0  0  0  0
  191.1700  175.9460  143.7100 O   0  0  0  0  0  1  0  0  0  0  0  0
  191.5670  177.0790  145.7730 C   0  0  0  0  0  2  0  0  0  0  0  0
  191.4400  177.2050  144.2560 C   0  0  2  0  0  3  0  0  0  0  0  0
  189.0920  176.9460  145.5580 O   0  0  0  0  0  0  0  0  0  0  0  0
  190.2020  176.7530  146.4210 C   0  0  2  0  0  3  0  0  0  0  0  0
  189.1990  178.2080  144.9400 C   0  0  0  0  0  2  0  0  0  0  0  0
  190.0080  177.4780  147.7470 C   0  0  0  0  0  2  0  0  0  0  0  0
  188.6000  177.2670  148.2730 C   0  0  0  0  0  2  0  0  0  0  0  0
  187.9300  178.6090  148.4690 C   0  0  0  0  0  1  0  0  0  0  0  0
  1  3  1  0  0  0  0
  3  5  2  0  0  0  0
  4  9  1  0  0  0  0
  5 29  1  0  0  0  0
  6  7  1  0  0  0  0
  6  1  2  0  0  0  0
  7 10  2  0  0  0  0
  8 14  1  1  0  0  0
  8  4  1  0  0  0  0
  8  6  1  0  0  0  0
  9  2  1  6  0  0  0
  9  1  1  0  0  0  0
 10  5  1  0  0  0  0
 11 15  1  0  0  0  0
 13 11  2  0  0  0  0
 14 12  2  0  0  0  0
 15 12  1  0  0  0  0
 16 11  1  1  0  0  0
 16 24  1  0  0  0  0
 16 14  1  0  0  0  0
 17 19  1  6  0  0  0
 17 22  1  0  0  0  0
 18 20  1  0  0  0  0
 20 27  1  1  0  0  0
 20 22  1  0  0  0  0
 21 18  1  0  0  0  0
 22 23  1  1  0  0  0
 24 21  1  6  0  0  0
 24 17  1  0  0  0  0
 25 27  2  0  0  0  0
 27 26  1  0  0  0  0
 29 28  2  0  0  0  0
 30 28  1  6  0  0  0
 30 33  1  0  0  0  0
 30 36  1  0  0  0  0
 32 35  1  0  0  0  0
 33 31  1  6  0  0  0
 33 32  1  0  0  0  0
 34 35  1  0  0  0  0
 35 37  1  1  0  0  0
 36 34  1  0  0  0  0
 37 38  1  0  0  0  0
 38 39  1  0  0  0  0
M  END
>  <MODEL>
6

>  <REMARK>
 VINA RESULT:      -6.0      6.051      9.176
  Name = 
  7 active torsions:
  status: ('A' for Active; 'I' for Inactive)
    1  A    between atoms: C_3  and  C_8
    2  A    between atoms: C_3  and  C_38
    3  A    between atoms: C_9  and  C_11
    4  A    between atoms: C_14  and  C_37
    5  A    between atoms: N_18  and  C_21
    6  A    between atoms: C_25  and  C_27
    7  A    between atoms: C_29  and  C_36
                            x       y       z     vdW  Elec       q    Type
                         _______ _______ _______ _____ _____    ______ ____

>  <TORSDO>
F 7

$$$$
=
 OpenBabel11062417523D

 39 43  0  0  1  0  0  0  0  0999 V2000
  187.7220  177.5000  138.2360 C   0  0  0  0  0  0  0  0  0  0  0  0
  186.4850  179.2060  137.1920 O   0  0  0  0  0  1  0  0  0  0  0  0
  187.9920  177.9060  139.5440 C   0  0  0  0  0  3  0  0  0  0  0  0
  186.7570  177.1430  136.1180 N   0  0  0  0  0  2  0  0  0  0  0  0
  189.1820  177.4710  140.1510 C   0  0  0  0  0  0  0  0  0  0  0  0
  188.5720  176.6880  137.5520 C   0  0  0  0  0  0  0  0  0  0  0  0
  189.7660  176.2420  138.1180 C   0  0  0  0  0  3  0  0  0  0  0  0
  188.0310  176.4080  136.2050 C   0  0  1  0  0  3  0  0  0  0  0  0
  186.5460  177.8280  137.4050 C   0  0  1  0  0  3  0  0  0  0  0  0
  190.0690  176.6380  139.4290 C   0  0  0  0  0  3  0  0  0  0  0  0
  187.1240  172.9280  135.2330 C   0  0  0  0  0  0  0  0  0  0  0  0
  188.4740  174.0380  136.6440 N   0  0  0  0  0  0  0  0  0  0  0  0
  186.6180  171.9680  134.5940 O   0  0  0  0  0  0  0  0  0  0  0  0
  187.7940  174.9410  136.0080 C   0  0  0  0  0  0  0  0  0  0  0  0
  188.1110  172.7560  136.2300 N   0  0  0  0  0  2  0  0  0  0  0  0
  186.8040  174.3700  135.0230 C   0  0  2  0  0  3  0  0  0  0  0  0
  185.0800  174.4180  136.9440 C   0  0  2  0  0  3  0  0  0  0  0  0
  182.9360  174.5360  134.7970 C   0  0  0  0  0  2  0  0  0  0  0  0
  185.7100  173.2480  137.3730 O   0  0  0  0  0  1  0  0  0  0  0  0
  182.6590  174.9960  136.2410 C   0  0  1  0  0  3  0  0  0  0  0  0
  184.3290  173.9320  134.5940 C   0  0  0  0  0  2  0  0  0  0  0  0
  183.5800  174.3180  137.2710 C   0  0  2  0  0  3  0  0  0  0  0  0
  183.3300  174.7910  138.5620 O   0  0  0  0  0  1  0  0  0  0  0  0
  185.3560  174.6750  135.4450 C   0  0  2  0  0  3  0  0  0  0  0  0
  183.3990  177.1890  135.5960 O   0  0  0  0  0  0  0  0  0  0  0  0
  181.8510  177.1160  137.2790 O   0  0  0  0  0  1  0  0  0  0  0  0
  182.6630  176.4930  136.3430 C   0  0  0  0  0  0  0  0  0  0  0  0
  190.4320  177.3840  142.1940 C   0  0  0  0  0  3  0  0  0  0  0  0
  189.4610  177.8780  141.4960 N   0  0  0  0  0  0  0  0  0  0  0  0
  190.6660  177.8400  143.5970 C   0  0  2  0  0  3  0  0  0  0  0  0
  191.4800  175.5880  144.0190 O   0  0  0  0  0  1  0  0  0  0  0  0
  191.4670  177.1080  145.8590 C   0  0  0  0  0  2  0  0  0  0  0  0
  191.6550  176.9350  144.3530 C   0  0  2  0  0  3  0  0  0  0  0  0
  189.0860  176.8810  145.1730 O   0  0  0  0  0  0  0  0  0  0  0  0
  189.9930  176.8830  146.2650 C   0  0  2  0  0  3  0  0  0  0  0  0
  189.3400  178.0010  144.3560 C   0  0  0  0  0  2  0  0  0  0  0  0
  189.5440  177.8470  147.3560 C   0  0  0  0  0  2  0  0  0  0  0  0
  188.2860  177.3410  148.0360 C   0  0  0  0  0  2  0  0  0  0  0  0
  187.1590  178.3230  147.8030 C   0  0  0  0  0  1  0  0  0  0  0  0
  1  3  1  0  0  0  0
  3  5  2  0  0  0  0
  4  8  1  0  0  0  0
  4  9  1  0  0  0  0
  5 29  1  0  0  0  0
  6  7  1  0  0  0  0
  6  1  2  0  0  0  0
  7 10  2  0  0  0  0
  8 14  1  1  0  0  0
  8  6  1  0  0  0  0
  9  2  1  6  0  0  0
  9  1  1  0  0  0  0
 10  5  1  0  0  0  0
 11 15  1  0  0  0  0
 13 11  2  0  0  0  0
 14 12  2  0  0  0  0
 15 12  1  0  0  0  0
 16 11  1  1  0  0  0
 16 24  1  0  0  0  0
 16 14  1  0  0  0  0
 17 22  1  0  0  0  0
 17 19  1  6  0  0  0
 18 20  1  0  0  0  0
 20 27  1  6  0  0  0
 20 22  1  0  0  0  0
 21 18  1  0  0  0  0
 22 23  1  1  0  0  0
 24 21  1  6  0  0  0
 24 17  1  0  0  0  0
 25 27  2  0  0  0  0
 27 26  1  0  0  0  0
 29 28  2  0  0  0  0
 30 28  1  6  0  0  0
 30 33  1  0  0  0  0
 30 36  1  0  0  0  0
 32 35  1  0  0  0  0
 33 31  1  1  0  0  0
 33 32  1  0  0  0  0
 34 35  1  0  0  0  0
 35 37  1  1  0  0  0
 36 34  1  0  0  0  0
 37 38  1  0  0  0  0
 39 38  1  0  0  0  0
M  END
>  <MODEL>
7

>  <REMARK>
 VINA RESULT:      -5.8      5.056      7.708
  Name = 
  7 active torsions:
  status: ('A' for Active; 'I' for Inactive)
    1  A    between atoms: C_3  and  C_8
    2  A    between atoms: C_3  and  C_38
    3  A    between atoms: C_9  and  C_11
    4  A    between atoms: C_14  and  C_37
    5  A    between atoms: N_18  and  C_21
    6  A    between atoms: C_25  and  C_27
    7  A    between atoms: C_29  and  C_36
                            x       y       z     vdW  Elec       q    Type
                         _______ _______ _______ _____ _____    ______ ____

>  <TORSDO>
F 7

$$$$
=
 OpenBabel11062417523D

 39 43  0  0  1  0  0  0  0  0999 V2000
  190.0400  176.6840  138.9510 C   0  0  0  0  0  0  0  0  0  0  0  0
  190.4070  176.4310  141.2590 O   0  0  0  0  0  1  0  0  0  0  0  0
  188.7420  177.1660  138.7730 C   0  0  0  0  0  3  0  0  0  0  0  0
  192.1950  176.1970  139.7650 N   0  0  0  0  0  2  0  0  0  0  0  0
  188.0410  176.8020  137.6110 C   0  0  0  0  0  0  0  0  0  0  0  0
  190.6370  175.8890  138.0230 C   0  0  0  0  0  0  0  0  0  0  0  0
  189.9720  175.4990  136.8600 C   0  0  0  0  0  3  0  0  0  0  0  0
  192.0060  175.5420  138.4580 C   0  0  1  0  0  3  0  0  0  0  0  0
  190.9580  176.9330  140.0800 C   0  0  1  0  0  3  0  0  0  0  0  0
  188.6630  175.9630  136.6570 C   0  0  0  0  0  3  0  0  0  0  0  0
  194.3780  176.3120  135.6900 C   0  0  0  0  0  0  0  0  0  0  0  0
  193.5790  177.2080  137.5890 N   0  0  0  0  0  0  0  0  0  0  0  0
  194.9910  176.2240  134.5940 O   0  0  0  0  0  0  0  0  0  0  0  0
  193.0300  176.0370  137.4820 C   0  0  0  0  0  0  0  0  0  0  0  0
  194.4410  177.4550  136.5200 N   0  0  0  0  0  2  0  0  0  0  0  0
  193.4760  175.2690  136.2630 C   0  0  2  0  0  3  0  0  0  0  0  0
  193.6390  172.6940  136.1580 C   0  0  2  0  0  3  0  0  0  0  0  0
  195.6230  172.8890  138.4470 C   0  0  0  0  0  2  0  0  0  0  0  0
  192.2500  172.7240  136.3060 O   0  0  0  0  0  1  0  0  0  0  0  0
  195.5660  171.6520  137.5310 C   0  0  1  0  0  3  0  0  0  0  0  0
  194.5370  173.9290  138.1560 C   0  0  0  0  0  2  0  0  0  0  0  0
  194.1840  171.4520  136.8820 C   0  0  2  0  0  3  0  0  0  0  0  0
  194.1820  170.3480  136.0270 O   0  0  0  0  0  1  0  0  0  0  0  0
  194.2740  174.0130  136.6540 C   0  0  2  0  0  3  0  0  0  0  0  0
  197.0740  172.7380  136.0070 O   0  0  0  0  0  0  0  0  0  0  0  0
  197.3000  170.4680  136.1850 O   0  0  0  0  0  1  0  0  0  0  0  0
  196.6880  171.6620  136.5350 C   0  0  0  0  0  0  0  0  0  0  0  0
  186.0300  177.8670  138.3630 C   0  0  0  0  0  3  0  0  0  0  0  0
  186.7110  177.3000  137.4210 N   0  0  0  0  0  0  0  0  0  0  0  0
  184.6420  178.3550  138.1070 C   0  0  2  0  0  3  0  0  0  0  0  0
  184.8890  179.6330  140.1620 O   0  0  0  0  0  1  0  0  0  0  0  0
  182.8050  179.8060  139.0100 C   0  0  0  0  0  2  0  0  0  0  0  0
  184.3190  179.6450  138.8840 C   0  0  2  0  0  3  0  0  0  0  0  0
  183.0140  177.4080  139.6410 O   0  0  0  0  0  0  0  0  0  0  0  0
  182.1590  178.5410  139.6200 C   0  0  2  0  0  3  0  0  0  0  0  0
  183.6080  177.2510  138.3720 C   0  0  0  0  0  2  0  0  0  0  0  0
  180.8190  178.2130  138.9750 C   0  0  0  0  0  2  0  0  0  0  0  0
  179.6910  178.3480  139.9810 C   0  0  0  0  0  2  0  0  0  0  0  0
  179.8850  177.3380  141.0910 C   0  0  0  0  0  1  0  0  0  0  0  0
  1  9  1  0  0  0  0
  3  1  1  0  0  0  0
  4  9  1  0  0  0  0
  5  3  2  0  0  0  0
  6  8  1  0  0  0  0
  6  1  2  0  0  0  0
  7  6  1  0  0  0  0
  8 14  1  6  0  0  0
  8  4  1  0  0  0  0
  9  2  1  1  0  0  0
 10  7  2  0  0  0  0
 10  5  1  0  0  0  0
 11 15  1  0  0  0  0
 13 11  2  0  0  0  0
 14 12  2  0  0  0  0
 15 12  1  0  0  0  0
 16 11  1  6  0  0  0
 16 24  1  0  0  0  0
 16 14  1  0  0  0  0
 17 19  1  1  0  0  0
 17 24  1  0  0  0  0
 17 22  1  0  0  0  0
 20 27  1  6  0  0  0
 20 18  1  0  0  0  0
 21 18  1  0  0  0  0
 22 23  1  6  0  0  0
 22 20  1  0  0  0  0
 24 21  1  1  0  0  0
 25 27  2  0  0  0  0
 26 27  1  0  0  0  0
 29  5  1  0  0  0  0
 29 28  2  0  0  0  0
 30 28  1  1  0  0  0
 30 36  1  0  0  0  0
 30 33  1  0  0  0  0
 32 35  1  0  0  0  0
 33 32  1  0  0  0  0
 33 31  1  1  0  0  0
 35 37  1  6  0  0  0
 35 34  1  0  0  0  0
 36 34  1  0  0  0  0
 37 38  1  0  0  0  0
 38 39  1  0  0  0  0
M  END
>  <MODEL>
8

>  <REMARK>
 VINA RESULT:      -5.6      4.006      5.370
  Name = 
  7 active torsions:
  status: ('A' for Active; 'I' for Inactive)
    1  A    between atoms: C_3  and  C_8
    2  A    between atoms: C_3  and  C_38
    3  A    between atoms: C_9  and  C_11
    4  A    between atoms: C_14  and  C_37
    5  A    between atoms: N_18  and  C_21
    6  A    between atoms: C_25  and  C_27
    7  A    between atoms: C_29  and  C_36
                            x       y       z     vdW  Elec       q    Type
                         _______ _______ _______ _____ _____    ______ ____

>  <TORSDO>
F 7

$$$$
=
 OpenBabel11062417523D

 39 43  0  0  1  0  0  0  0  0999 V2000
  188.3780  177.4640  137.3310 C   0  0  0  0  0  0  0  0  0  0  0  0
  188.6530  179.0030  139.0870 O   0  0  0  0  0  1  0  0  0  0  0  0
  189.6470  177.0960  136.8800 C   0  0  0  0  0  3  0  0  0  0  0  0
  186.5290  178.1310  138.6270 N   0  0  0  0  0  2  0  0  0  0  0  0
  189.8100  176.7640  135.5250 C   0  0  0  0  0  0  0  0  0  0  0  0
  187.3060  177.4900  136.4950 C   0  0  0  0  0  0  0  0  0  0  0  0
  187.4280  177.1740  135.1420 C   0  0  0  0  0  3  0  0  0  0  0  0
  186.0940  177.8960  137.2380 C   0  0  1  0  0  3  0  0  0  0  0  0
  187.9730  177.8480  138.6980 C   0  0  1  0  0  3  0  0  0  0  0  0
  188.6930  176.8070  134.6570 C   0  0  0  0  0  3  0  0  0  0  0  0
  183.1630  175.6290  136.8480 C   0  0  0  0  0  0  0  0  0  0  0  0
  185.3120  175.5880  137.5010 N   0  0  0  0  0  0  0  0  0  0  0  0
  182.0210  175.2110  136.5190 O   0  0  0  0  0  0  0  0  0  0  0  0
  185.0480  176.8230  137.2020 C   0  0  0  0  0  0  0  0  0  0  0  0
  184.1890  174.7790  137.3200 N   0  0  0  0  0  2  0  0  0  0  0  0
  183.6220  177.0470  136.7620 C   0  0  2  0  0  3  0  0  0  0  0  0
  181.4830  178.4070  137.2500 C   0  0  2  0  0  3  0  0  0  0  0  0
  183.0450  179.7530  139.4790 C   0  0  0  0  0  2  0  0  0  0  0  0
  181.5530  178.7680  135.9020 O   0  0  0  0  0  1  0  0  0  0  0  0
  181.5040  179.7410  139.4650 C   0  0  1  0  0  3  0  0  0  0  0  0
  183.6820  179.1280  138.2350 C   0  0  0  0  0  2  0  0  0  0  0  0
  180.9200  179.5960  138.0480 C   0  0  2  0  0  3  0  0  0  0  0  0
  179.5250  179.5460  138.0790 O   0  0  0  0  0  1  0  0  0  0  0  0
  182.8600  177.9300  137.7650 C   0  0  2  0  0  3  0  0  0  0  0  0
  181.5290  177.6200  140.5940 O   0  0  0  0  0  0  0  0  0  0  0  0
  179.8110  179.0240  141.1510 O   0  0  0  0  0  1  0  0  0  0  0  0
  180.9610  178.7320  140.4330 C   0  0  0  0  0  0  0  0  0  0  0  0
  191.9530  175.7240  135.7870 C   0  0  0  0  0  3  0  0  0  0  0  0
  191.1090  176.3800  135.0580 N   0  0  0  0  0  0  0  0  0  0  0  0
  193.2990  175.3620  135.2480 C   0  0  2  0  0  3  0  0  0  0  0  0
  193.2430  173.5010  136.8140 O   0  0  0  0  0  1  0  0  0  0  0  0
  195.1930  173.7300  135.4570 C   0  0  0  0  0  2  0  0  0  0  0  0
  193.6780  173.8990  135.5450 C   0  0  2  0  0  3  0  0  0  0  0  0
  195.0930  175.8060  136.8240 O   0  0  0  0  0  0  0  0  0  0  0  0
  195.9210  174.7510  136.3620 C   0  0  2  0  0  3  0  0  0  0  0  0
  194.3740  176.3440  135.7380 C   0  0  0  0  0  2  0  0  0  0  0  0
  197.1930  175.2850  135.7170 C   0  0  0  0  0  2  0  0  0  0  0  0
  198.4050  174.5050  136.1930 C   0  0  0  0  0  2  0  0  0  0  0  0
  198.4350  174.4990  137.7050 C   0  0  0  0  0  1  0  0  0  0  0  0
  1  9  1  0  0  0  0
  3  1  1  0  0  0  0
  4  9  1  0  0  0  0
  5  3  2  0  0  0  0
  6  8  1  0  0  0  0
  6  1  2  0  0  0  0
  7  6  1  0  0  0  0
  8 14  1  1  0  0  0
  8  4  1  0  0  0  0
  9  2  1  6  0  0  0
 10  7  2  0  0  0  0
 10  5  1  0  0  0  0
 11 15  1  0  0  0  0
 13 11  2  0  0  0  0
 14 12  2  0  0  0  0
 15 12  1  0  0  0  0
 16 11  1  1  0  0  0
 16 14  1  0  0  0  0
 16 24  1  0  0  0  0
 17 19  1  6  0  0  0
 17 24  1  0  0  0  0
 17 22  1  0  0  0  0
 20 18  1  0  0  0  0
 20 27  1  1  0  0  0
 21 18  1  0  0  0  0
 22 23  1  1  0  0  0
 22 20  1  0  0  0  0
 24 21  1  6  0  0  0
 27 25  2  0  0  0  0
 27 26  1  0  0  0  0
 29  5  1  0  0  0  0
 29 28  2  0  0  0  0
 30 33  1  0  0  0  0
 30 36  1  0  0  0  0
 30 28  1  1  0  0  0
 32 33  1  0  0  0  0
 32 35  1  0  0  0  0
 33 31  1  1  0  0  0
 35 37  1  6  0  0  0
 35 34  1  0  0  0  0
 36 34  1  0  0  0  0
 37 38  1  0  0  0  0
 38 39  1  0  0  0  0
M  END
>  <MODEL>
9

>  <REMARK>
 VINA RESULT:      -5.4      5.045     11.650
  Name = 
  7 active torsions:
  status: ('A' for Active; 'I' for Inactive)
    1  A    between atoms: C_3  and  C_8
    2  A    between atoms: C_3  and  C_38
    3  A    between atoms: C_9  and  C_11
    4  A    between atoms: C_14  and  C_37
    5  A    between atoms: N_18  and  C_21
    6  A    between atoms: C_25  and  C_27
    7  A    between atoms: C_29  and  C_36
                            x       y       z     vdW  Elec       q    Type
                         _______ _______ _______ _____ _____    ______ ____

>  <TORSDO>
F 7

$$$$
