=
 OpenBabel11062417513D

 39 43  0  0  1  0  0  0  0  0999 V2000
  188.8260  178.0120  145.3190 C   0  0  1  0  0  3  0  0  0  0  0  0
  187.8020  176.9360  148.6700 O   0  0  0  0  0  0  0  0  0  0  0  0
  187.8220  177.6130  147.6090 C   0  0  0  0  0  0  0  0  0  0  0  0
  190.2090  177.6400  144.7050 C   0  0  1  0  0  3  0  0  0  0  0  0
  191.9330  176.2190  145.6960 O   0  0  0  0  0  0  0  0  0  0  0  0
  186.7830  178.6490  147.3560 C   0  0  0  0  0  2  0  0  0  0  0  0
  186.2590  177.8990  144.9540 C   0  0  0  0  0  0  0  0  0  0  0  0
  185.9080  178.3470  146.1720 C   0  0  0  0  0  3  0  0  0  0  0  0
  187.6370  177.4060  144.5690 C   0  0  0  0  0  2  0  0  0  0  0  0
  190.8060  176.7750  145.7660 C   0  0  0  0  0  0  0  0  0  0  0  0
  189.9920  176.6970  146.8710 O   0  0  0  0  0  0  0  0  0  0  0  0
  188.8610  177.4340  146.6550 N   0  0  0  0  0  0  0  0  0  0  0  0
  185.2010  177.7580  144.0020 N   0  0  0  0  0  2  0  0  0  0  0  0
  183.9880  178.9650  143.7130 S   0  0  0  0  0  0  0  0  0  0  0  0
  184.5910  180.3250  143.9260 O   0  0  0  0  0  0  0  0  0  0  0  0
  182.8500  178.7740  144.6750 O   0  0  0  0  0  0  0  0  0  0  0  0
  183.3830  178.8590  142.0420 C   0  0  0  0  0  2  0  0  0  0  0  0
  184.2870  177.9530  141.2180 C   0  0  0  0  0  2  0  0  0  0  0  0
  186.3410  179.1650  140.9920 O   0  0  0  0  0  1  0  0  0  0  0  0
  184.5270  179.8710  139.7970 O   0  0  0  0  0  1  0  0  0  0  0  0
  185.1990  178.7580  140.3020 C   0  0  0  0  0  3  0  0  0  0  0  0
  190.1390  176.8990  143.3700 C   0  0  0  0  0  2  0  0  0  0  0  0
  189.6670  177.5700  141.0350 C   0  0  0  0  0  2  0  0  0  0  0  0
  190.5620  177.8130  142.2350 C   0  0  2  0  0  3  0  0  0  0  0  0
  191.9850  177.4860  141.8050 C   0  0  0  0  0  2  0  0  0  0  0  0
  191.9550  177.3050  140.3030 C   0  0  0  0  0  2  0  0  0  0  0  0
  190.5370  176.8990  139.9830 C   0  0  2  0  0  3  0  0  0  0  0  0
  189.1650  173.7360  136.8770 C   0  0  0  0  0  2  0  0  0  0  0  0
  187.0850  174.7980  137.3880 O   0  0  0  0  0  0  0  0  0  0  0  0
  190.1680  177.2460  138.5310 C   0  0  2  0  0  3  0  0  0  0  0  0
  188.9680  176.2820  137.1750 C   0  0  2  0  0  3  0  0  0  0  0  0
  191.1820  175.0200  137.4810 C   0  0  0  0  0  3  0  0  0  0  0  0
  188.6750  177.2440  138.2870 C   0  0  2  0  0  3  0  0  0  0  0  0
  188.3250  174.9210  137.2100 C   0  0  0  0  0  0  0  0  0  0  0  0
  190.5120  173.8000  136.9650 C   0  0  0  0  0  3  0  0  0  0  0  0
  190.4020  176.0880  137.5830 C   0  0  2  0  0  3  0  0  0  0  0  0
  186.8990  178.7250  137.3130 O   0  0  0  0  0  0  0  0  0  0  0  0
  189.0350  179.5010  137.5840 O   0  0  0  0  0  1  0  0  0  0  0  0
  188.2140  178.5590  137.7350 C   0  0  0  0  0  0  0  0  0  0  0  0
  1  9  1  6  0  0  0
  1 12  1  0  0  0  0
  3  2  2  0  0  0  0
  4 22  1  6  0  0  0
  4  1  1  0  0  0  0
  4 10  1  0  0  0  0
  5 10  2  0  0  0  0
  6  3  1  0  0  0  0
  7  8  2  0  0  0  0
  8  6  1  0  0  0  0
  9  7  1  0  0  0  0
 10 11  1  0  0  0  0
 12 11  1  0  0  0  0
 12  3  1  0  0  0  0
 13  7  1  0  0  0  0
 14 15  2  0  0  0  0
 14 13  1  0  0  0  0
 14 16  2  0  0  0  0
 17 14  1  0  0  0  0
 18 17  1  0  0  0  0
 20 21  1  0  0  0  0
 21 19  1  0  0  0  0
 21 18  1  0  0  0  0
 23 24  1  0  0  0  0
 24 22  1  1  0  0  0
 25 24  1  0  0  0  0
 26 25  1  0  0  0  0
 27 26  1  1  0  0  0
 27 23  1  0  0  0  0
 28 35  1  0  0  0  0
 28 34  1  0  0  0  0
 30 27  1  1  0  0  0
 31 34  1  1  0  0  0
 31 36  1  0  0  0  0
 31 33  1  0  0  0  0
 33 39  1  6  0  0  0
 33 30  1  0  0  0  0
 34 29  2  0  0  0  0
 35 32  2  0  0  0  0
 36 32  1  1  0  0  0
 36 30  1  0  0  0  0
 37 39  2  0  0  0  0
 38 39  1  0  0  0  0
M  END
>  <MODEL>
1

>  <REMARK>
 VINA RESULT:      -9.7      0.000      0.000
  Name = 
  9 active torsions:
  status: ('A' for Active; 'I' for Inactive)
    1  A    between atoms: S_7  and  N_23
    2  A    between atoms: S_7  and  C_31
    3  A    between atoms: C_9  and  C_28
    4  A    between atoms: C_10  and  C_39
    5  A    between atoms: C_14  and  C_28
    6  A    between atoms: C_17  and  C_22
    7  A    between atoms: C_17  and  C_31
    8  A    between atoms: C_20  and  C_36
    9  A    between atoms: C_21  and  N_23
                            x       y       z     vdW  Elec       q    Type
                         _______ _______ _______ _____ _____    ______ ____

>  <TORSDO>
F 9

$$$$
=
 OpenBabel11062417513D

 39 43  0  0  1  0  0  0  0  0999 V2000
  188.8630  178.0050  145.3300 C   0  0  1  0  0  3  0  0  0  0  0  0
  187.9280  176.9180  148.7040 O   0  0  0  0  0  0  0  0  0  0  0  0
  187.9220  177.6010  147.6460 C   0  0  0  0  0  0  0  0  0  0  0  0
  190.2260  177.6280  144.6750 C   0  0  1  0  0  3  0  0  0  0  0  0
  191.9670  176.1890  145.6090 O   0  0  0  0  0  0  0  0  0  0  0  0
  186.8840  178.6460  147.4280 C   0  0  0  0  0  2  0  0  0  0  0  0
  186.2860  177.9120  145.0380 C   0  0  0  0  0  0  0  0  0  0  0  0
  185.9740  178.3560  146.2680 C   0  0  0  0  0  3  0  0  0  0  0  0
  187.6500  177.4130  144.6110 C   0  0  0  0  0  2  0  0  0  0  0  0
  190.8460  176.7530  145.7140 C   0  0  0  0  0  0  0  0  0  0  0  0
  190.0640  176.6750  146.8420 O   0  0  0  0  0  0  0  0  0  0  0  0
  188.9320  177.4200  146.6610 N   0  0  0  0  0  0  0  0  0  0  0  0
  185.2010  177.7840  144.1150 N   0  0  0  0  0  2  0  0  0  0  0  0
  184.6140  179.0800  143.1200 S   0  0  0  0  0  0  0  0  0  0  0  0
  185.6210  179.3610  142.0410 O   0  0  0  0  0  0  0  0  0  0  0  0
  184.4310  180.3130  143.9580 O   0  0  0  0  0  0  0  0  0  0  0  0
  183.0650  178.6360  142.3620 C   0  0  0  0  0  2  0  0  0  0  0  0
  181.9080  179.0800  143.2460 C   0  0  0  0  0  2  0  0  0  0  0  0
  180.1170  180.6430  142.9480 O   0  0  0  0  0  1  0  0  0  0  0  0
  179.7590  178.4610  142.3770 O   0  0  0  0  0  1  0  0  0  0  0  0
  180.6990  179.4920  142.4180 C   0  0  0  0  0  3  0  0  0  0  0  0
  190.1120  176.8950  143.3390 C   0  0  0  0  0  2  0  0  0  0  0  0
  189.6230  177.5570  141.0050 C   0  0  0  0  0  2  0  0  0  0  0  0
  190.5250  177.8070  142.1980 C   0  0  2  0  0  3  0  0  0  0  0  0
  191.9460  177.4850  141.7610 C   0  0  0  0  0  2  0  0  0  0  0  0
  191.9080  177.2990  140.2590 C   0  0  0  0  0  2  0  0  0  0  0  0
  190.4890  176.8860  139.9490 C   0  0  2  0  0  3  0  0  0  0  0  0
  189.1820  173.6990  136.8410 C   0  0  0  0  0  2  0  0  0  0  0  0
  187.0810  174.7130  137.3580 O   0  0  0  0  0  0  0  0  0  0  0  0
  190.1100  177.2280  138.4980 C   0  0  2  0  0  3  0  0  0  0  0  0
  188.9290  176.2390  137.1440 C   0  0  2  0  0  3  0  0  0  0  0  0
  191.1720  175.0270  137.4420 C   0  0  0  0  0  3  0  0  0  0  0  0
  188.6160  177.1930  138.2570 C   0  0  2  0  0  3  0  0  0  0  0  0
  188.3170  174.8640  137.1780 C   0  0  0  0  0  0  0  0  0  0  0  0
  190.5280  173.7930  136.9260 C   0  0  0  0  0  3  0  0  0  0  0  0
  190.3680  176.0770  137.5480 C   0  0  2  0  0  3  0  0  0  0  0  0
  189.0020  179.5620  137.5290 O   0  0  0  0  0  1  0  0  0  0  0  0
  186.8990  178.6610  137.4750 O   0  0  0  0  0  0  0  0  0  0  0  0
  188.1250  178.4980  137.7090 C   0  0  0  0  0  0  0  0  0  0  0  0
  1  9  1  6  0  0  0
  1 12  1  0  0  0  0
  3  2  2  0  0  0  0
  4 22  1  6  0  0  0
  4  1  1  0  0  0  0
  4 10  1  0  0  0  0
  5 10  2  0  0  0  0
  6  3  1  0  0  0  0
  7  8  2  0  0  0  0
  8  6  1  0  0  0  0
  9  7  1  0  0  0  0
 10 11  1  0  0  0  0
 12 11  1  0  0  0  0
 12  3  1  0  0  0  0
 13  7  1  0  0  0  0
 14 16  2  0  0  0  0
 14 13  1  0  0  0  0
 15 14  2  0  0  0  0
 17 14  1  0  0  0  0
 17 18  1  0  0  0  0
 20 21  1  0  0  0  0
 21 19  1  0  0  0  0
 21 18  1  0  0  0  0
 23 24  1  0  0  0  0
 24 22  1  1  0  0  0
 25 24  1  0  0  0  0
 26 25  1  0  0  0  0
 27 26  1  1  0  0  0
 27 23  1  0  0  0  0
 28 35  1  0  0  0  0
 28 34  1  0  0  0  0
 30 27  1  1  0  0  0
 31 34  1  1  0  0  0
 31 36  1  0  0  0  0
 31 33  1  0  0  0  0
 33 39  1  6  0  0  0
 33 30  1  0  0  0  0
 34 29  2  0  0  0  0
 35 32  2  0  0  0  0
 36 32  1  1  0  0  0
 36 30  1  0  0  0  0
 37 39  1  0  0  0  0
 38 39  2  0  0  0  0
M  END
>  <MODEL>
2

>  <REMARK>
 VINA RESULT:      -9.2      1.053      1.861
  Name = 
  9 active torsions:
  status: ('A' for Active; 'I' for Inactive)
    1  A    between atoms: S_7  and  N_23
    2  A    between atoms: S_7  and  C_31
    3  A    between atoms: C_9  and  C_28
    4  A    between atoms: C_10  and  C_39
    5  A    between atoms: C_14  and  C_28
    6  A    between atoms: C_17  and  C_22
    7  A    between atoms: C_17  and  C_31
    8  A    between atoms: C_20  and  C_36
    9  A    between atoms: C_21  and  N_23
                            x       y       z     vdW  Elec       q    Type
                         _______ _______ _______ _____ _____    ______ ____

>  <TORSDO>
F 9

$$$$
=
 OpenBabel11062417513D

 39 43  0  0  1  0  0  0  0  0999 V2000
  183.2390  178.8960  140.4370 C   0  0  1  0  0  3  0  0  0  0  0  0
  179.7910  178.6860  139.2130 O   0  0  0  0  0  0  0  0  0  0  0  0
  181.0340  178.8830  139.1930 C   0  0  0  0  0  0  0  0  0  0  0  0
  183.5850  179.0350  141.9500 C   0  0  1  0  0  3  0  0  0  0  0  0
  182.0230  179.0270  143.8310 O   0  0  0  0  0  0  0  0  0  0  0  0
  181.7350  179.1510  137.9070 C   0  0  0  0  0  2  0  0  0  0  0  0
  183.6410  177.4730  138.3050 C   0  0  0  0  0  0  0  0  0  0  0  0
  182.7300  178.0890  137.5320 C   0  0  0  0  0  3  0  0  0  0  0  0
  183.7290  177.5890  139.8110 C   0  0  0  0  0  2  0  0  0  0  0  0
  182.2380  178.9740  142.5910 C   0  0  0  0  0  0  0  0  0  0  0  0
  181.2350  178.9060  141.6530 O   0  0  0  0  0  0  0  0  0  0  0  0
  181.7840  178.9000  140.4010 N   0  0  0  0  0  0  0  0  0  0  0  0
  184.4990  176.5360  137.6480 N   0  0  0  0  0  2  0  0  0  0  0  0
  186.0780  176.9240  137.0430 S   0  0  0  0  0  0  0  0  0  0  0  0
  185.9860  177.1790  135.5650 O   0  0  0  0  0  0  0  0  0  0  0  0
  187.0070  175.7690  137.2860 O   0  0  0  0  0  0  0  0  0  0  0  0
  186.7150  178.3830  137.8410 C   0  0  0  0  0  2  0  0  0  0  0  0
  187.6780  177.9890  138.9520 C   0  0  0  0  0  2  0  0  0  0  0  0
  189.0240  179.5260  137.7000 O   0  0  0  0  0  1  0  0  0  0  0  0
  189.9860  177.5900  138.4370 O   0  0  0  0  0  1  0  0  0  0  0  0
  189.0590  178.5900  138.7340 C   0  0  0  0  0  3  0  0  0  0  0  0
  184.5020  177.9420  142.5000 C   0  0  0  0  0  2  0  0  0  0  0  0
  186.7770  177.5310  143.3830 C   0  0  0  0  0  2  0  0  0  0  0  0
  185.6700  178.5590  143.2480 C   0  0  2  0  0  3  0  0  0  0  0  0
  185.2420  178.9430  144.6570 C   0  0  0  0  0  2  0  0  0  0  0  0
  186.2620  178.3430  145.6000 C   0  0  0  0  0  2  0  0  0  0  0  0
  186.8400  177.1630  144.8570 C   0  0  2  0  0  3  0  0  0  0  0  0
  190.7060  177.9200  142.4070 C   0  0  0  0  0  2  0  0  0  0  0  0
  190.8390  179.6820  144.0150 O   0  0  0  0  0  0  0  0  0  0  0  0
  188.2470  176.8110  145.3700 C   0  0  2  0  0  3  0  0  0  0  0  0
  190.0900  177.5640  144.8770 C   0  0  2  0  0  3  0  0  0  0  0  0
  189.1930  176.0630  142.9970 C   0  0  0  0  0  3  0  0  0  0  0  0
  189.0260  178.0250  145.8270 C   0  0  2  0  0  3  0  0  0  0  0  0
  190.5200  178.4900  143.7710 C   0  0  0  0  0  0  0  0  0  0  0  0
  190.1130  176.7550  142.0600 C   0  0  0  0  0  3  0  0  0  0  0  0
  189.2150  176.5180  144.2430 C   0  0  2  0  0  3  0  0  0  0  0  0
  190.6030  177.0990  147.5450 O   0  0  0  0  0  0  0  0  0  0  0  0
  188.8200  178.3860  148.1820 O   0  0  0  0  0  1  0  0  0  0  0  0
  189.4860  177.8720  147.2450 C   0  0  0  0  0  0  0  0  0  0  0  0
  1  9  1  1  0  0  0
  1  4  1  0  0  0  0
  3  2  2  0  0  0  0
  3 12  1  0  0  0  0
  4 22  1  1  0  0  0
  4 10  1  0  0  0  0
  6  3  1  0  0  0  0
  7  9  1  0  0  0  0
  8  6  1  0  0  0  0
  8  7  2  0  0  0  0
 10  5  2  0  0  0  0
 11 10  1  0  0  0  0
 12  1  1  0  0  0  0
 12 11  1  0  0  0  0
 13  7  1  0  0  0  0
 14 16  2  0  0  0  0
 14 13  1  0  0  0  0
 14 17  1  0  0  0  0
 15 14  2  0  0  0  0
 17 18  1  0  0  0  0
 19 21  1  0  0  0  0
 20 21  1  0  0  0  0
 21 18  1  0  0  0  0
 24 22  1  6  0  0  0
 24 23  1  0  0  0  0
 24 25  1  0  0  0  0
 25 26  1  0  0  0  0
 27 23  1  6  0  0  0
 27 26  1  0  0  0  0
 28 34  1  0  0  0  0
 30 27  1  6  0  0  0
 30 33  1  0  0  0  0
 31 34  1  6  0  0  0
 31 33  1  0  0  0  0
 33 39  1  1  0  0  0
 34 29  2  0  0  0  0
 35 28  1  0  0  0  0
 35 32  2  0  0  0  0
 36 32  1  6  0  0  0
 36 31  1  0  0  0  0
 36 30  1  0  0  0  0
 39 37  2  0  0  0  0
 39 38  1  0  0  0  0
M  END
>  <MODEL>
3

>  <REMARK>
 VINA RESULT:      -8.9      3.085      7.978
  Name = 
  9 active torsions:
  status: ('A' for Active; 'I' for Inactive)
    1  A    between atoms: S_7  and  N_23
    2  A    between atoms: S_7  and  C_31
    3  A    between atoms: C_9  and  C_28
    4  A    between atoms: C_10  and  C_39
    5  A    between atoms: C_14  and  C_28
    6  A    between atoms: C_17  and  C_22
    7  A    between atoms: C_17  and  C_31
    8  A    between atoms: C_20  and  C_36
    9  A    between atoms: C_21  and  N_23
                            x       y       z     vdW  Elec       q    Type
                         _______ _______ _______ _____ _____    ______ ____

>  <TORSDO>
F 9

$$$$
=
 OpenBabel11062417513D

 39 43  0  0  1  0  0  0  0  0999 V2000
  189.7730  177.9650  144.4390 C   0  0  1  0  0  3  0  0  0  0  0  0
  191.9040  176.0860  146.7550 O   0  0  0  0  0  0  0  0  0  0  0  0
  191.0740  176.9440  146.3570 C   0  0  0  0  0  0  0  0  0  0  0  0
  190.0290  177.9990  142.9030 C   0  0  1  0  0  3  0  0  0  0  0  0
  191.7490  176.7820  141.6640 O   0  0  0  0  0  0  0  0  0  0  0  0
  190.3300  177.7840  147.3360 C   0  0  0  0  0  2  0  0  0  0  0  0
  188.0180  177.4200  146.2720 C   0  0  0  0  0  0  0  0  0  0  0  0
  188.8450  177.5480  147.3230 C   0  0  0  0  0  3  0  0  0  0  0  0
  188.4540  177.2930  144.8290 C   0  0  0  0  0  2  0  0  0  0  0  0
  191.1980  177.0810  142.7560 C   0  0  0  0  0  0  0  0  0  0  0  0
  191.6460  176.6340  143.9760 O   0  0  0  0  0  0  0  0  0  0  0  0
  190.8650  177.1600  144.9670 N   0  0  0  0  0  0  0  0  0  0  0  0
  186.6290  177.2590  146.5740 N   0  0  0  0  0  2  0  0  0  0  0  0
  185.4730  178.5540  146.5480 S   0  0  0  0  0  0  0  0  0  0  0  0
  186.0040  179.6990  147.3630 O   0  0  0  0  0  0  0  0  0  0  0  0
  184.1780  178.0820  147.1460 O   0  0  0  0  0  0  0  0  0  0  0  0
  185.1950  179.1130  144.8810 C   0  0  0  0  0  2  0  0  0  0  0  0
  183.7680  178.7970  144.4580 C   0  0  0  0  0  2  0  0  0  0  0  0
  182.2520  178.8770  142.6040 O   0  0  0  0  0  1  0  0  0  0  0  0
  184.2420  177.7900  142.3330 O   0  0  0  0  0  1  0  0  0  0  0  0
  183.6040  178.8690  142.9460 C   0  0  0  0  0  3  0  0  0  0  0  0
  188.8540  177.5280  142.0470 C   0  0  0  0  0  2  0  0  0  0  0  0
  187.0780  178.4150  140.5680 C   0  0  0  0  0  2  0  0  0  0  0  0
  188.5310  178.5590  140.9800 C   0  0  2  0  0  3  0  0  0  0  0  0
  189.3750  178.3060  139.7400 C   0  0  0  0  0  2  0  0  0  0  0  0
  188.4220  178.2730  138.5650 C   0  0  0  0  0  2  0  0  0  0  0  0
  187.0890  177.8690  139.1480 C   0  0  2  0  0  3  0  0  0  0  0  0
  184.4280  174.9990  136.6580 C   0  0  0  0  0  2  0  0  0  0  0  0
  182.9510  175.5330  138.4600 O   0  0  0  0  0  0  0  0  0  0  0  0
  185.9230  178.3500  138.2680 C   0  0  2  0  0  3  0  0  0  0  0  0
  184.2410  177.3790  137.6100 C   0  0  2  0  0  3  0  0  0  0  0  0
  186.3140  176.5560  136.3410 C   0  0  0  0  0  3  0  0  0  0  0  0
  184.5690  178.0850  138.8910 C   0  0  2  0  0  3  0  0  0  0  0  0
  183.8450  175.9280  137.6670 C   0  0  0  0  0  0  0  0  0  0  0  0
  185.5680  175.3170  136.0050 C   0  0  0  0  0  3  0  0  0  0  0  0
  185.6560  177.4180  137.1050 C   0  0  2  0  0  3  0  0  0  0  0  0
  182.3820  179.3110  138.9910 O   0  0  0  0  0  0  0  0  0  0  0  0
  184.3600  180.4610  139.0660 O   0  0  0  0  0  1  0  0  0  0  0  0
  183.7730  179.3490  139.0130 C   0  0  0  0  0  0  0  0  0  0  0  0
  1  9  1  6  0  0  0
  1 12  1  0  0  0  0
  3  2  2  0  0  0  0
  3  6  1  0  0  0  0
  4 22  1  6  0  0  0
  4  1  1  0  0  0  0
  5 10  2  0  0  0  0
  7 13  1  0  0  0  0
  7  8  2  0  0  0  0
  8  6  1  0  0  0  0
  9  7  1  0  0  0  0
 10  4  1  0  0  0  0
 10 11  1  0  0  0  0
 11 12  1  0  0  0  0
 12  3  1  0  0  0  0
 14 13  1  0  0  0  0
 14 16  2  0  0  0  0
 14 15  2  0  0  0  0
 17 14  1  0  0  0  0
 18 17  1  0  0  0  0
 19 21  1  0  0  0  0
 20 21  1  0  0  0  0
 21 18  1  0  0  0  0
 23 24  1  0  0  0  0
 24 22  1  1  0  0  0
 25 24  1  0  0  0  0
 26 25  1  0  0  0  0
 27 26  1  6  0  0  0
 27 23  1  0  0  0  0
 28 34  1  0  0  0  0
 30 33  1  0  0  0  0
 30 27  1  1  0  0  0
 31 34  1  1  0  0  0
 31 33  1  0  0  0  0
 33 39  1  6  0  0  0
 34 29  2  0  0  0  0
 35 32  2  0  0  0  0
 35 28  1  0  0  0  0
 36 32  1  1  0  0  0
 36 31  1  0  0  0  0
 36 30  1  0  0  0  0
 37 39  2  0  0  0  0
 39 38  1  0  0  0  0
M  END
>  <MODEL>
4

>  <REMARK>
 VINA RESULT:      -8.7      2.519      3.761
  Name = 
  9 active torsions:
  status: ('A' for Active; 'I' for Inactive)
    1  A    between atoms: S_7  and  N_23
    2  A    between atoms: S_7  and  C_31
    3  A    between atoms: C_9  and  C_28
    4  A    between atoms: C_10  and  C_39
    5  A    between atoms: C_14  and  C_28
    6  A    between atoms: C_17  and  C_22
    7  A    between atoms: C_17  and  C_31
    8  A    between atoms: C_20  and  C_36
    9  A    between atoms: C_21  and  N_23
                            x       y       z     vdW  Elec       q    Type
                         _______ _______ _______ _____ _____    ______ ____

>  <TORSDO>
F 9

$$$$
=
 OpenBabel11062417513D

 39 43  0  0  1  0  0  0  0  0999 V2000
  187.5110  177.3860  145.4440 C   0  0  1  0  0  3  0  0  0  0  0  0
  189.5430  178.2920  148.3570 O   0  0  0  0  0  0  0  0  0  0  0  0
  189.2180  177.7180  147.2850 C   0  0  0  0  0  0  0  0  0  0  0  0
  185.9690  177.6020  145.3970 C   0  0  1  0  0  3  0  0  0  0  0  0
  184.5720  178.6570  147.1030 O   0  0  0  0  0  0  0  0  0  0  0  0
  190.2020  176.8750  146.5520 C   0  0  0  0  0  2  0  0  0  0  0  0
  189.7510  177.9100  144.2430 C   0  0  0  0  0  0  0  0  0  0  0  0
  190.5590  177.4100  145.1930 C   0  0  0  0  0  3  0  0  0  0  0  0
  188.2820  178.2260  144.4230 C   0  0  0  0  0  2  0  0  0  0  0  0
  185.7020  178.2690  146.7060 C   0  0  0  0  0  0  0  0  0  0  0  0
  186.8430  178.3660  147.4660 O   0  0  0  0  0  0  0  0  0  0  0  0
  187.8940  177.8280  146.7770 N   0  0  0  0  0  0  0  0  0  0  0  0
  190.3770  178.2910  143.0150 N   0  0  0  0  0  2  0  0  0  0  0  0
  190.5560  177.2380  141.6470 S   0  0  0  0  0  0  0  0  0  0  0  0
  190.3570  175.8180  142.0950 O   0  0  0  0  0  0  0  0  0  0  0  0
  191.9380  177.3860  141.0770 O   0  0  0  0  0  0  0  0  0  0  0  0
  189.3480  177.6220  140.3970 C   0  0  0  0  0  2  0  0  0  0  0  0
  190.0170  177.6890  139.0310 C   0  0  0  0  0  2  0  0  0  0  0  0
  188.4320  179.0090  137.8110 O   0  0  0  0  0  1  0  0  0  0  0  0
  187.9850  176.7920  138.1260 O   0  0  0  0  0  1  0  0  0  0  0  0
  188.9900  177.7350  137.9080 C   0  0  0  0  0  3  0  0  0  0  0  0
  185.4790  178.4640  144.2340 C   0  0  0  0  0  2  0  0  0  0  0  0
  184.0050  178.1870  142.2650 C   0  0  0  0  0  2  0  0  0  0  0  0
  184.1140  177.9920  143.7650 C   0  0  2  0  0  3  0  0  0  0  0  0
  183.0220  178.8350  144.4070 C   0  0  0  0  0  2  0  0  0  0  0  0
  182.1240  179.3100  143.2860 C   0  0  0  0  0  2  0  0  0  0  0  0
  182.9950  179.3060  142.0530 C   0  0  2  0  0  3  0  0  0  0  0  0
  184.5540  177.2830  138.1800 C   0  0  0  0  0  2  0  0  0  0  0  0
  183.0840  175.5920  139.0110 O   0  0  0  0  0  0  0  0  0  0  0  0
  182.1540  179.1740  140.7720 C   0  0  2  0  0  3  0  0  0  0  0  0
  182.2690  177.8470  139.2120 C   0  0  2  0  0  3  0  0  0  0  0  0
  184.1940  179.5420  139.1010 C   0  0  0  0  0  3  0  0  0  0  0  0
  181.6190  177.7750  140.5610 C   0  0  2  0  0  3  0  0  0  0  0  0
  183.3110  176.8200  138.8580 C   0  0  0  0  0  0  0  0  0  0  0  0
  184.9440  178.5750  138.2610 C   0  0  0  0  0  3  0  0  0  0  0  0
  183.0100  179.1180  139.5230 C   0  0  2  0  0  3  0  0  0  0  0  0
  179.4630  176.6770  139.8980 O   0  0  0  0  0  0  0  0  0  0  0  0
  179.4710  178.8120  140.7230 O   0  0  0  0  0  1  0  0  0  0  0  0
  180.1260  177.7800  140.4260 C   0  0  0  0  0  0  0  0  0  0  0  0
  1  9  1  6  0  0  0
  1 12  1  0  0  0  0
  3  2  2  0  0  0  0
  4 22  1  6  0  0  0
  4  1  1  0  0  0  0
  4 10  1  0  0  0  0
  6  3  1  0  0  0  0
  7  9  1  0  0  0  0
  7  8  2  0  0  0  0
  8  6  1  0  0  0  0
 10  5  2  0  0  0  0
 10 11  1  0  0  0  0
 12  3  1  0  0  0  0
 12 11  1  0  0  0  0
 13  7  1  0  0  0  0
 14 15  2  0  0  0  0
 14 13  1  0  0  0  0
 16 14  2  0  0  0  0
 17 14  1  0  0  0  0
 18 17  1  0  0  0  0
 19 21  1  0  0  0  0
 21 20  1  0  0  0  0
 21 18  1  0  0  0  0
 23 24  1  0  0  0  0
 24 22  1  1  0  0  0
 24 25  1  0  0  0  0
 26 25  1  0  0  0  0
 27 23  1  1  0  0  0
 27 26  1  0  0  0  0
 28 35  1  0  0  0  0
 28 34  1  0  0  0  0
 30 27  1  1  0  0  0
 31 34  1  1  0  0  0
 31 36  1  0  0  0  0
 31 33  1  0  0  0  0
 33 39  1  6  0  0  0
 33 30  1  0  0  0  0
 34 29  2  0  0  0  0
 35 32  2  0  0  0  0
 36 32  1  1  0  0  0
 36 30  1  0  0  0  0
 37 39  2  0  0  0  0
 39 38  1  0  0  0  0
M  END
>  <MODEL>
5

>  <REMARK>
 VINA RESULT:      -8.5      2.757      6.458
  Name = 
  9 active torsions:
  status: ('A' for Active; 'I' for Inactive)
    1  A    between atoms: S_7  and  N_23
    2  A    between atoms: S_7  and  C_31
    3  A    between atoms: C_9  and  C_28
    4  A    between atoms: C_10  and  C_39
    5  A    between atoms: C_14  and  C_28
    6  A    between atoms: C_17  and  C_22
    7  A    between atoms: C_17  and  C_31
    8  A    between atoms: C_20  and  C_36
    9  A    between atoms: C_21  and  N_23
                            x       y       z     vdW  Elec       q    Type
                         _______ _______ _______ _____ _____    ______ ____

>  <TORSDO>
F 9

$$$$
=
 OpenBabel11062417513D

 39 43  0  0  1  0  0  0  0  0999 V2000
  186.8940  177.5250  145.1550 C   0  0  1  0  0  3  0  0  0  0  0  0
  187.9690  178.3330  148.5650 O   0  0  0  0  0  0  0  0  0  0  0  0
  187.9380  177.7480  147.4510 C   0  0  0  0  0  0  0  0  0  0  0  0
  185.4930  177.9210  144.6010 C   0  0  1  0  0  3  0  0  0  0  0  0
  183.7660  179.2220  145.7410 O   0  0  0  0  0  0  0  0  0  0  0  0
  188.9890  176.7560  147.0920 C   0  0  0  0  0  2  0  0  0  0  0  0
  189.4510  177.7150  144.7520 C   0  0  0  0  0  0  0  0  0  0  0  0
  189.8340  177.1730  145.9210 C   0  0  0  0  0  3  0  0  0  0  0  0
  188.0570  178.2130  144.4360 C   0  0  0  0  0  2  0  0  0  0  0  0
  184.9040  178.6820  145.7420 C   0  0  0  0  0  0  0  0  0  0  0  0
  185.7380  178.6820  146.8350 O   0  0  0  0  0  0  0  0  0  0  0  0
  186.8770  177.9870  146.5350 N   0  0  0  0  0  0  0  0  0  0  0  0
  190.4870  177.9550  143.7950 N   0  0  0  0  0  2  0  0  0  0  0  0
  190.4900  177.3080  142.1850 S   0  0  0  0  0  0  0  0  0  0  0  0
  190.1830  175.8380  142.2490 O   0  0  0  0  0  0  0  0  0  0  0  0
  191.8460  177.5020  141.5680 O   0  0  0  0  0  0  0  0  0  0  0  0
  189.2560  178.1100  141.1830 C   0  0  0  0  0  2  0  0  0  0  0  0
  188.7240  177.1420  140.1370 C   0  0  0  0  0  2  0  0  0  0  0  0
  187.9910  177.0350  137.8580 O   0  0  0  0  0  1  0  0  0  0  0  0
  188.8340  179.0100  138.6360 O   0  0  0  0  0  1  0  0  0  0  0  0
  188.0880  177.8770  138.9660 C   0  0  0  0  0  3  0  0  0  0  0  0
  185.5230  178.7720  143.3330 C   0  0  0  0  0  2  0  0  0  0  0  0
  184.9840  178.8480  140.9180 C   0  0  0  0  0  2  0  0  0  0  0  0
  184.7900  178.0690  142.2050 C   0  0  2  0  0  3  0  0  0  0  0  0
  183.2960  178.0430  142.4920 C   0  0  0  0  0  2  0  0  0  0  0  0
  182.6060  178.5750  141.2540 C   0  0  0  0  0  2  0  0  0  0  0  0
  183.6300  179.4540  140.5780 C   0  0  2  0  0  3  0  0  0  0  0  0
  182.0820  175.9530  137.9570 C   0  0  0  0  0  3  0  0  0  0  0  0
  180.0940  177.2610  138.1830 O   0  0  0  0  0  0  0  0  0  0  0  0
  183.3490  179.5880  139.0720 C   0  0  2  0  0  3  0  0  0  0  0  0
  182.1140  178.5200  137.8300 C   0  0  2  0  0  3  0  0  0  0  0  0
  184.1880  177.1400  138.4480 C   0  0  0  0  0  2  0  0  0  0  0  0
  181.8720  179.6750  138.7560 C   0  0  2  0  0  3  0  0  0  0  0  0
  181.3450  177.2450  138.0510 C   0  0  0  0  0  0  0  0  0  0  0  0
  183.4250  175.9140  138.1020 C   0  0  0  0  0  3  0  0  0  0  0  0
  183.5080  178.2730  138.3370 C   0  0  2  0  0  3  0  0  0  0  0  0
  180.8550  180.8360  136.7780 O   0  0  0  0  0  0  0  0  0  0  0  0
  181.9880  182.0310  138.3680 O   0  0  0  0  0  1  0  0  0  0  0  0
  181.5560  180.9160  137.9770 C   0  0  0  0  0  0  0  0  0  0  0  0
  1  9  1  6  0  0  0
  1 12  1  0  0  0  0
  3  2  2  0  0  0  0
  4 22  1  6  0  0  0
  4  1  1  0  0  0  0
  4 10  1  0  0  0  0
  5 10  2  0  0  0  0
  6  3  1  0  0  0  0
  7  8  2  0  0  0  0
  8  6  1  0  0  0  0
  9  7  1  0  0  0  0
 10 11  1  0  0  0  0
 12 11  1  0  0  0  0
 12  3  1  0  0  0  0
 13  7  1  0  0  0  0
 14 15  2  0  0  0  0
 14 13  1  0  0  0  0
 16 14  2  0  0  0  0
 17 14  1  0  0  0  0
 18 17  1  0  0  0  0
 19 21  1  0  0  0  0
 20 21  1  0  0  0  0
 21 18  1  0  0  0  0
 23 24  1  0  0  0  0
 24 25  1  0  0  0  0
 24 22  1  1  0  0  0
 26 25  1  0  0  0  0
 27 23  1  6  0  0  0
 27 26  1  0  0  0  0
 28 34  1  0  0  0  0
 28 35  2  0  0  0  0
 30 27  1  1  0  0  0
 31 34  1  1  0  0  0
 31 36  1  0  0  0  0
 31 33  1  0  0  0  0
 33 39  1  6  0  0  0
 33 30  1  0  0  0  0
 34 29  2  0  0  0  0
 35 32  1  0  0  0  0
 36 32  1  1  0  0  0
 36 30  1  0  0  0  0
 37 39  2  0  0  0  0
 39 38  1  0  0  0  0
M  END
>  <MODEL>
6

>  <REMARK>
 VINA RESULT:      -8.4      2.909      6.140
  Name = 
  9 active torsions:
  status: ('A' for Active; 'I' for Inactive)
    1  A    between atoms: S_7  and  N_23
    2  A    between atoms: S_7  and  C_31
    3  A    between atoms: C_9  and  C_28
    4  A    between atoms: C_10  and  C_39
    5  A    between atoms: C_14  and  C_28
    6  A    between atoms: C_17  and  C_22
    7  A    between atoms: C_17  and  C_31
    8  A    between atoms: C_20  and  C_36
    9  A    between atoms: C_21  and  N_23
                            x       y       z     vdW  Elec       q    Type
                         _______ _______ _______ _____ _____    ______ ____

>  <TORSDO>
F 9

$$$$
=
 OpenBabel11062417513D

 39 43  0  0  1  0  0  0  0  0999 V2000
  187.6920  177.2020  143.4060 C   0  0  1  0  0  3  0  0  0  0  0  0
  191.2830  177.2040  144.1410 O   0  0  0  0  0  0  0  0  0  0  0  0
  190.2090  176.9610  143.5300 C   0  0  0  0  0  0  0  0  0  0  0  0
  186.6120  177.4690  144.4970 C   0  0  1  0  0  3  0  0  0  0  0  0
  186.9910  178.0500  146.8410 O   0  0  0  0  0  0  0  0  0  0  0  0
  190.2350  176.3250  142.1840 C   0  0  0  0  0  2  0  0  0  0  0  0
  188.5900  177.9730  141.0960 C   0  0  0  0  0  0  0  0  0  0  0  0
  189.6930  177.2050  141.0930 C   0  0  0  0  0  3  0  0  0  0  0  0
  187.7360  178.2700  142.3100 C   0  0  0  0  0  2  0  0  0  0  0  0
  187.4440  177.7540  145.7040 C   0  0  0  0  0  0  0  0  0  0  0  0
  188.7850  177.6030  145.4410 O   0  0  0  0  0  0  0  0  0  0  0  0
  188.9530  177.2460  144.1320 N   0  0  0  0  0  0  0  0  0  0  0  0
  188.2940  178.6610  139.8780 N   0  0  0  0  0  2  0  0  0  0  0  0
  188.3710  177.9310  138.3050 S   0  0  0  0  0  0  0  0  0  0  0  0
  187.8460  178.9040  137.2880 O   0  0  0  0  0  0  0  0  0  0  0  0
  187.5230  176.6910  138.2850 O   0  0  0  0  0  0  0  0  0  0  0  0
  190.0520  177.5130  137.8900 C   0  0  0  0  0  2  0  0  0  0  0  0
  190.0730  176.5780  136.6900 C   0  0  0  0  0  2  0  0  0  0  0  0
  189.4310  174.2970  137.0480 O   0  0  0  0  0  1  0  0  0  0  0  0
  191.0820  175.1790  138.3570 O   0  0  0  0  0  1  0  0  0  0  0  0
  190.5150  175.1750  137.0820 C   0  0  0  0  0  3  0  0  0  0  0  0
  185.6700  178.6340  144.1940 C   0  0  0  0  0  2  0  0  0  0  0  0
  183.9840  178.2700  142.4190 C   0  0  0  0  0  2  0  0  0  0  0  0
  184.2720  178.1210  143.9010 C   0  0  2  0  0  3  0  0  0  0  0  0
  183.2430  178.9600  144.6440 C   0  0  0  0  0  2  0  0  0  0  0  0
  182.2090  179.3830  143.6230 C   0  0  0  0  0  2  0  0  0  0  0  0
  182.9310  179.3600  142.2970 C   0  0  2  0  0  3  0  0  0  0  0  0
  184.1290  177.4350  138.2490 C   0  0  0  0  0  2  0  0  0  0  0  0
  182.8810  175.6560  139.2430 O   0  0  0  0  0  0  0  0  0  0  0  0
  181.9490  179.1740  141.1270 C   0  0  2  0  0  3  0  0  0  0  0  0
  181.9560  177.8550  139.5570 C   0  0  2  0  0  3  0  0  0  0  0  0
  183.7420  179.6680  139.2220 C   0  0  0  0  0  3  0  0  0  0  0  0
  181.4810  177.7430  140.9750 C   0  0  2  0  0  3  0  0  0  0  0  0
  183.0090  176.8950  139.0710 C   0  0  0  0  0  0  0  0  0  0  0  0
  184.4430  178.7500  138.2910 C   0  0  0  0  0  3  0  0  0  0  0  0
  182.6470  179.1710  139.7840 C   0  0  2  0  0  3  0  0  0  0  0  0
  179.3380  177.3070  142.2030 O   0  0  0  0  0  1  0  0  0  0  0  0
  179.3120  177.8220  139.9730 O   0  0  0  0  0  0  0  0  0  0  0  0
  179.9860  177.6540  141.0220 C   0  0  0  0  0  0  0  0  0  0  0  0
  1  9  1  6  0  0  0
  1 12  1  0  0  0  0
  1  4  1  0  0  0  0
  3 12  1  0  0  0  0
  3  2  2  0  0  0  0
  4 22  1  6  0  0  0
  4 10  1  0  0  0  0
  6  3  1  0  0  0  0
  7  9  1  0  0  0  0
  8  7  2  0  0  0  0
  8  6  1  0  0  0  0
 10  5  2  0  0  0  0
 11 10  1  0  0  0  0
 12 11  1  0  0  0  0
 13  7  1  0  0  0  0
 14 13  1  0  0  0  0
 15 14  2  0  0  0  0
 16 14  2  0  0  0  0
 17 14  1  0  0  0  0
 18 21  1  0  0  0  0
 18 17  1  0  0  0  0
 19 21  1  0  0  0  0
 21 20  1  0  0  0  0
 23 24  1  0  0  0  0
 24 22  1  6  0  0  0
 24 25  1  0  0  0  0
 26 25  1  0  0  0  0
 27 23  1  1  0  0  0
 27 26  1  0  0  0  0
 28 35  1  0  0  0  0
 28 34  1  0  0  0  0
 30 27  1  1  0  0  0
 31 34  1  1  0  0  0
 31 36  1  0  0  0  0
 31 33  1  0  0  0  0
 33 39  1  6  0  0  0
 33 30  1  0  0  0  0
 34 29  2  0  0  0  0
 35 32  2  0  0  0  0
 36 32  1  1  0  0  0
 36 30  1  0  0  0  0
 38 39  2  0  0  0  0
 39 37  1  0  0  0  0
M  END
>  <MODEL>
7

>  <REMARK>
 VINA RESULT:      -8.4      2.733      6.921
  Name = 
  9 active torsions:
  status: ('A' for Active; 'I' for Inactive)
    1  A    between atoms: S_7  and  N_23
    2  A    between atoms: S_7  and  C_31
    3  A    between atoms: C_9  and  C_28
    4  A    between atoms: C_10  and  C_39
    5  A    between atoms: C_14  and  C_28
    6  A    between atoms: C_17  and  C_22
    7  A    between atoms: C_17  and  C_31
    8  A    between atoms: C_20  and  C_36
    9  A    between atoms: C_21  and  N_23
                            x       y       z     vdW  Elec       q    Type
                         _______ _______ _______ _____ _____    ______ ____

>  <TORSDO>
F 9

$$$$
=
 OpenBabel11062417513D

 39 43  0  0  1  0  0  0  0  0999 V2000
  189.9040  177.9920  142.1310 C   0  0  1  0  0  3  0  0  0  0  0  0
  191.5970  176.4470  144.9910 O   0  0  0  0  0  0  0  0  0  0  0  0
  190.8160  177.2040  144.3580 C   0  0  0  0  0  0  0  0  0  0  0  0
  190.4930  177.9590  140.6900 C   0  0  1  0  0  3  0  0  0  0  0  0
  192.5310  176.8290  139.9510 O   0  0  0  0  0  0  0  0  0  0  0  0
  189.8120  178.0300  145.0850 C   0  0  0  0  0  2  0  0  0  0  0  0
  187.8290  177.4020  143.5750 C   0  0  0  0  0  0  0  0  0  0  0  0
  188.3900  177.6630  144.7680 C   0  0  0  0  0  3  0  0  0  0  0  0
  188.5850  177.2300  142.2740 C   0  0  0  0  0  2  0  0  0  0  0  0
  191.7300  177.1420  140.8710 C   0  0  0  0  0  0  0  0  0  0  0  0
  191.9260  176.8070  142.1890 O   0  0  0  0  0  0  0  0  0  0  0  0
  190.9070  177.3200  142.9440 N   0  0  0  0  0  0  0  0  0  0  0  0
  186.4240  177.1360  143.5790 N   0  0  0  0  0  2  0  0  0  0  0  0
  185.2220  178.2540  143.0140 S   0  0  0  0  0  0  0  0  0  0  0  0
  184.2430  177.5190  142.1430 O   0  0  0  0  0  0  0  0  0  0  0  0
  185.8830  179.3360  142.2080 O   0  0  0  0  0  0  0  0  0  0  0  0
  184.3460  178.9790  144.3830 C   0  0  0  0  0  2  0  0  0  0  0  0
  185.3120  179.7500  145.2700 C   0  0  0  0  0  2  0  0  0  0  0  0
  184.5310  178.2530  146.9690 O   0  0  0  0  0  1  0  0  0  0  0  0
  186.0540  179.8520  147.5490 O   0  0  0  0  0  1  0  0  0  0  0  0
  185.6410  178.9800  146.5410 C   0  0  0  0  0  3  0  0  0  0  0  0
  189.5760  177.3380  139.6370 C   0  0  0  0  0  2  0  0  0  0  0  0
  187.3170  178.2340  139.1670 C   0  0  0  0  0  2  0  0  0  0  0  0
  188.8000  178.4190  138.9070 C   0  0  2  0  0  3  0  0  0  0  0  0
  189.0110  178.2880  137.4060 C   0  0  0  0  0  2  0  0  0  0  0  0
  187.6370  178.2870  136.7720 C   0  0  0  0  0  2  0  0  0  0  0  0
  186.7060  177.7830  137.8490 C   0  0  2  0  0  3  0  0  0  0  0  0
  183.1270  174.8970  137.2280 C   0  0  0  0  0  2  0  0  0  0  0  0
  182.7330  175.6280  139.4690 O   0  0  0  0  0  0  0  0  0  0  0  0
  185.2640  178.2650  137.6140 C   0  0  2  0  0  3  0  0  0  0  0  0
  183.4630  177.3420  137.9450 C   0  0  2  0  0  3  0  0  0  0  0  0
  184.6350  176.3270  135.9000 C   0  0  0  0  0  3  0  0  0  0  0  0
  184.3870  178.1140  138.8380 C   0  0  2  0  0  3  0  0  0  0  0  0
  183.1270  175.9210  138.3110 C   0  0  0  0  0  0  0  0  0  0  0  0
  183.8040  175.1100  136.0770 C   0  0  0  0  0  3  0  0  0  0  0  0
  184.4480  177.2720  136.8120 C   0  0  2  0  0  3  0  0  0  0  0  0
  182.5160  179.4610  139.8270 O   0  0  0  0  0  1  0  0  0  0  0  0
  184.3550  180.5030  138.9470 O   0  0  0  0  0  0  0  0  0  0  0  0
  183.7700  179.4240  139.2270 C   0  0  0  0  0  0  0  0  0  0  0  0
  1  9  1  6  0  0  0
  1 12  1  0  0  0  0
  3  2  2  0  0  0  0
  3  6  1  0  0  0  0
  4 22  1  6  0  0  0
  4 10  1  0  0  0  0
  4  1  1  0  0  0  0
  5 10  2  0  0  0  0
  7 13  1  0  0  0  0
  7  8  2  0  0  0  0
  8  6  1  0  0  0  0
  9  7  1  0  0  0  0
 10 11  1  0  0  0  0
 11 12  1  0  0  0  0
 12  3  1  0  0  0  0
 14 13  1  0  0  0  0
 14 17  1  0  0  0  0
 15 14  2  0  0  0  0
 16 14  2  0  0  0  0
 17 18  1  0  0  0  0
 18 21  1  0  0  0  0
 21 19  1  0  0  0  0
 21 20  1  0  0  0  0
 24 23  1  0  0  0  0
 24 22  1  1  0  0  0
 25 24  1  0  0  0  0
 26 25  1  0  0  0  0
 27 26  1  6  0  0  0
 27 23  1  0  0  0  0
 28 34  1  0  0  0  0
 30 27  1  1  0  0  0
 30 33  1  0  0  0  0
 31 34  1  1  0  0  0
 31 33  1  0  0  0  0
 32 35  2  0  0  0  0
 33 39  1  6  0  0  0
 34 29  2  0  0  0  0
 35 28  1  0  0  0  0
 36 32  1  1  0  0  0
 36 30  1  0  0  0  0
 36 31  1  0  0  0  0
 38 39  2  0  0  0  0
 39 37  1  0  0  0  0
M  END
>  <MODEL>
8

>  <REMARK>
 VINA RESULT:      -8.0      2.610      4.818
  Name = 
  9 active torsions:
  status: ('A' for Active; 'I' for Inactive)
    1  A    between atoms: S_7  and  N_23
    2  A    between atoms: S_7  and  C_31
    3  A    between atoms: C_9  and  C_28
    4  A    between atoms: C_10  and  C_39
    5  A    between atoms: C_14  and  C_28
    6  A    between atoms: C_17  and  C_22
    7  A    between atoms: C_17  and  C_31
    8  A    between atoms: C_20  and  C_36
    9  A    between atoms: C_21  and  N_23
                            x       y       z     vdW  Elec       q    Type
                         _______ _______ _______ _____ _____    ______ ____

>  <TORSDO>
F 9

$$$$
=
 OpenBabel11062417513D

 39 43  0  0  1  0  0  0  0  0999 V2000
  185.2210  177.9550  143.9450 C   0  0  1  0  0  3  0  0  0  0  0  0
  185.6430  179.5230  147.2310 O   0  0  0  0  0  0  0  0  0  0  0  0
  185.8000  178.6940  146.2960 C   0  0  0  0  0  0  0  0  0  0  0  0
  183.9820  178.2270  143.0390 C   0  0  1  0  0  3  0  0  0  0  0  0
  182.1430  179.7770  143.4750 O   0  0  0  0  0  0  0  0  0  0  0  0
  186.8420  177.6350  146.3940 C   0  0  0  0  0  2  0  0  0  0  0  0
  187.8130  178.0190  144.0460 C   0  0  0  0  0  0  0  0  0  0  0  0
  187.9240  177.7590  145.3600 C   0  0  0  0  0  3  0  0  0  0  0  0
  186.5410  178.4440  143.3450 C   0  0  0  0  0  2  0  0  0  0  0  0
  183.2240  179.2390  143.8330 C   0  0  0  0  0  0  0  0  0  0  0  0
  183.8250  179.4840  145.0450 O   0  0  0  0  0  0  0  0  0  0  0  0
  184.9570  178.7260  145.1510 N   0  0  0  0  0  0  0  0  0  0  0  0
  189.0300  178.0170  143.2940 N   0  0  0  0  0  2  0  0  0  0  0  0
  189.6730  176.6210  142.4900 S   0  0  0  0  0  0  0  0  0  0  0  0
  188.8680  175.4150  142.8850 O   0  0  0  0  0  0  0  0  0  0  0  0
  191.1030  176.4160  142.9040 O   0  0  0  0  0  0  0  0  0  0  0  0
  189.5860  176.8180  140.7220 C   0  0  0  0  0  2  0  0  0  0  0  0
  189.0100  178.1850  140.3790 C   0  0  0  0  0  2  0  0  0  0  0  0
  186.9130  178.4840  139.2600 O   0  0  0  0  0  1  0  0  0  0  0  0
  188.3510  176.8980  138.4650 O   0  0  0  0  0  1  0  0  0  0  0  0
  188.2540  178.1570  139.0590 C   0  0  0  0  0  3  0  0  0  0  0  0
  184.3130  178.7600  141.6460 C   0  0  0  0  0  2  0  0  0  0  0  0
  183.3400  177.2190  139.9700 C   0  0  0  0  0  2  0  0  0  0  0  0
  183.1460  178.5330  140.7020 C   0  0  2  0  0  3  0  0  0  0  0  0
  183.1070  179.6300  139.6480 C   0  0  0  0  0  2  0  0  0  0  0  0
  183.0190  178.9400  138.3050 C   0  0  0  0  0  2  0  0  0  0  0  0
  183.6300  177.5770  138.5200 C   0  0  2  0  0  3  0  0  0  0  0  0
  186.3090  174.3410  136.5510 C   0  0  0  0  0  2  0  0  0  0  0  0
  185.0740  173.0160  138.1100 O   0  0  0  0  0  0  0  0  0  0  0  0
  183.1070  176.5580  137.4930 C   0  0  2  0  0  3  0  0  0  0  0  0
  183.7980  174.7020  136.9610 C   0  0  2  0  0  3  0  0  0  0  0  0
  185.3230  176.5380  136.0180 C   0  0  0  0  0  3  0  0  0  0  0  0
  182.9180  175.1760  138.0790 C   0  0  2  0  0  3  0  0  0  0  0  0
  185.0750  173.9820  137.3040 C   0  0  0  0  0  0  0  0  0  0  0  0
  186.4060  175.5280  135.9110 C   0  0  0  0  0  3  0  0  0  0  0  0
  184.1890  176.0910  136.5420 C   0  0  2  0  0  3  0  0  0  0  0  0
  180.6330  174.6320  138.9590 O   0  0  0  0  0  1  0  0  0  0  0  0
  181.1440  174.2690  136.7580 O   0  0  0  0  0  0  0  0  0  0  0  0
  181.5130  174.6920  137.8840 C   0  0  0  0  0  0  0  0  0  0  0  0
  1  9  1  6  0  0  0
  1 12  1  0  0  0  0
  3  6  1  0  0  0  0
  3  2  2  0  0  0  0
  4 22  1  6  0  0  0
  4 10  1  0  0  0  0
  4  1  1  0  0  0  0
  5 10  2  0  0  0  0
  7  8  2  0  0  0  0
  8  6  1  0  0  0  0
  9  7  1  0  0  0  0
 10 11  1  0  0  0  0
 11 12  1  0  0  0  0
 12  3  1  0  0  0  0
 13  7  1  0  0  0  0
 14 15  2  0  0  0  0
 14 16  2  0  0  0  0
 14 13  1  0  0  0  0
 17 14  1  0  0  0  0
 18 17  1  0  0  0  0
 20 21  1  0  0  0  0
 21 19  1  0  0  0  0
 21 18  1  0  0  0  0
 23 24  1  0  0  0  0
 24 22  1  1  0  0  0
 25 24  1  0  0  0  0
 26 25  1  0  0  0  0
 27 26  1  6  0  0  0
 27 23  1  0  0  0  0
 28 34  1  0  0  0  0
 30 33  1  0  0  0  0
 30 27  1  1  0  0  0
 31 34  1  1  0  0  0
 31 33  1  0  0  0  0
 33 39  1  6  0  0  0
 34 29  2  0  0  0  0
 35 32  2  0  0  0  0
 35 28  1  0  0  0  0
 36 32  1  1  0  0  0
 36 31  1  0  0  0  0
 36 30  1  0  0  0  0
 38 39  2  0  0  0  0
 39 37  1  0  0  0  0
M  END
>  <MODEL>
9

>  <REMARK>
 VINA RESULT:      -7.9      3.118      6.080
  Name = 
  9 active torsions:
  status: ('A' for Active; 'I' for Inactive)
    1  A    between atoms: S_7  and  N_23
    2  A    between atoms: S_7  and  C_31
    3  A    between atoms: C_9  and  C_28
    4  A    between atoms: C_10  and  C_39
    5  A    between atoms: C_14  and  C_28
    6  A    between atoms: C_17  and  C_22
    7  A    between atoms: C_17  and  C_31
    8  A    between atoms: C_20  and  C_36
    9  A    between atoms: C_21  and  N_23
                            x       y       z     vdW  Elec       q    Type
                         _______ _______ _______ _____ _____    ______ ____

>  <TORSDO>
F 9

$$$$
