=
 OpenBabel11062417173D

 26 29  0  0  1  0  0  0  0  0999 V2000
  189.9070  176.4700  142.9080 C   0  0  2  0  0  3  0  0  0  0  0  0
  190.2120  175.0810  143.4300 C   0  0  0  0  0  2  0  0  0  0  0  0
  191.9670  176.5430  144.2840 N   0  0  0  0  0  0  0  0  0  0  0  0
  191.1510  178.7700  143.3450 C   0  0  1  0  0  3  0  0  0  0  0  0
  191.8550  177.9610  142.3340 N   0  0  0  0  0  0  0  0  0  0  0  0
  191.6300  175.1480  143.9970 C   0  0  0  0  0  2  0  0  0  0  0  0
  191.0750  177.3020  143.4140 C   0  0  2  0  0  0  0  0  0  0  0  0
  192.0840  179.2860  144.2470 O   0  0  0  0  0  1  0  0  0  0  0  0
  185.7850  178.9350  140.8910 C   0  0  0  0  0  0  0  0  0  0  0  0
  185.4830  178.7960  142.1890 C   0  0  1  0  0  3  0  0  0  0  0  0
  187.1460  177.3270  145.2950 C   0  0  0  0  0  3  0  0  0  0  0  0
  187.7060  177.6350  142.5450 C   0  0  0  0  0  0  0  0  0  0  0  0
  187.1040  178.4670  140.3170 C   0  0  0  0  0  3  0  0  0  0  0  0
  184.8750  179.5360  140.0310 O   0  0  0  0  0  1  0  0  0  0  0  0
  188.3000  176.8480  144.8220 C   0  0  0  0  0  3  0  0  0  0  0  0
  188.6300  176.9670  143.4230 N   0  0  0  0  0  0  0  0  0  0  0  0
  187.9760  177.7850  141.2810 N   0  0  0  0  0  0  0  0  0  0  0  0
  184.2270  179.2590  142.6810 N   0  0  0  0  0  1  0  0  0  0  0  0
  186.4380  178.1440  143.0950 C   0  0  0  0  0  0  0  0  0  0  0  0
  186.1810  177.9940  144.4000 C   0  0  0  0  0  3  0  0  0  0  0  0
  191.1140  178.0640  141.2010 O   0  0  0  0  0  0  0  0  0  0  0  0
  190.9790  176.6660  139.2830 C   0  0  0  0  0  1  0  0  0  0  0  0
  191.8850  177.4410  140.2170 C   0  0  0  0  0  2  0  0  0  0  0  0
  191.5870  176.7900  145.6710 C   0  0  0  0  0  2  0  0  0  0  0  0
  192.0040  176.2530  147.7680 C   0  0  0  0  0  1  0  0  0  0  0  0
  192.0200  175.7340  146.4740 O   0  0  0  0  0  0  0  0  0  0  0  0
  1  7  1  0  0  0  0
  1 16  1  1  0  0  0
  1  2  1  0  0  0  0
  2  6  1  0  0  0  0
  3 24  1  0  0  0  0
  4  7  1  0  0  0  0
  4  8  1  1  0  0  0
  5  4  1  0  0  0  0
  6  3  1  0  0  0  0
  7  5  1  6  0  0  0
  7  3  1  0  0  0  0
  9 10  1  0  0  0  0
 10 18  1  6  0  0  0
 10 19  1  0  0  0  0
 12 19  1  0  0  0  0
 12 16  1  0  0  0  0
 13  9  2  0  0  0  0
 13 17  1  0  0  0  0
 14  9  1  0  0  0  0
 15 11  2  0  0  0  0
 16 15  1  0  0  0  0
 17 12  2  0  0  0  0
 19 20  2  0  0  0  0
 20 11  1  0  0  0  0
 21  5  1  0  0  0  0
 22 23  1  0  0  0  0
 23 21  1  0  0  0  0
 24 26  1  0  0  0  0
 26 25  1  0  0  0  0
M  END
>  <MODEL>
1

>  <REMARK>
 VINA RESULT:      -7.0      0.000      0.000
  Name = 
  5 active torsions:
  status: ('A' for Active; 'I' for Inactive)
    1  A    between atoms: C_1  and  N_17
    2  A    between atoms: O_5  and  N_19
    3  A    between atoms: O_5  and  C_25
    4  A    between atoms: O_6  and  C_16
    5  A    between atoms: N_11  and  C_16
                            x       y       z     vdW  Elec       q    Type
                         _______ _______ _______ _____ _____    ______ ____

>  <TORSDO>
F 5

$$$$
=
 OpenBabel11062417173D

 26 29  0  0  1  0  0  0  0  0999 V2000
  188.9330  176.7680  143.3040 C   0  0  2  0  0  3  0  0  0  0  0  0
  189.3830  175.3390  143.5290 C   0  0  0  0  0  2  0  0  0  0  0  0
  191.3800  176.7280  143.6990 N   0  0  0  0  0  0  0  0  0  0  0  0
  190.3200  179.0270  143.3810 C   0  0  1  0  0  3  0  0  0  0  0  0
  190.5140  178.3190  142.1030 N   0  0  0  0  0  0  0  0  0  0  0  0
  190.9100  175.3630  143.4580 C   0  0  0  0  0  2  0  0  0  0  0  0
  190.2320  177.5570  143.3480 C   0  0  2  0  0  0  0  0  0  0  0  0
  191.5590  179.4630  143.8540 O   0  0  0  0  0  1  0  0  0  0  0  0
  184.0980  178.7030  143.3970 C   0  0  0  0  0  0  0  0  0  0  0  0
  184.4600  178.6590  144.6870 C   0  0  0  0  0  0  0  0  0  0  0  0
  187.5430  177.6160  146.6820 C   0  0  0  0  0  3  0  0  0  0  0  0
  186.7040  177.7160  143.9870 C   0  0  1  0  0  3  0  0  0  0  0  0
  185.0350  178.2910  142.2840 C   0  0  0  0  0  3  0  0  0  0  0  0
  182.8290  179.1490  143.0520 O   0  0  0  0  0  1  0  0  0  0  0  0
  188.3850  177.1890  145.7350 C   0  0  0  0  0  3  0  0  0  0  0  0
  188.0020  177.2060  144.3450 N   0  0  0  0  0  0  0  0  0  0  0  0
  186.3290  177.7710  142.7430 N   0  0  0  0  0  0  0  0  0  0  0  0
  183.5400  179.0630  145.6990 N   0  0  0  0  0  1  0  0  0  0  0  0
  185.7970  178.1700  145.0540 C   0  0  0  0  0  0  0  0  0  0  0  0
  186.2020  178.1190  146.3280 C   0  0  0  0  0  3  0  0  0  0  0  0
  189.3740  178.5210  141.3940 O   0  0  0  0  0  0  0  0  0  0  0  0
  188.3730  177.7670  139.3750 C   0  0  0  0  0  1  0  0  0  0  0  0
  189.6640  178.0460  140.1140 C   0  0  0  0  0  2  0  0  0  0  0  0
  191.6180  176.8430  145.1340 C   0  0  0  0  0  2  0  0  0  0  0  0
  192.1240  175.8130  147.0160 C   0  0  0  0  0  1  0  0  0  0  0  0
  192.0730  175.6230  145.6360 O   0  0  0  0  0  0  0  0  0  0  0  0
  1  7  1  0  0  0  0
  1  2  1  1  0  0  0
  1 16  1  0  0  0  0
  3 24  1  0  0  0  0
  4  8  1  1  0  0  0
  5  4  1  0  0  0  0
  6  2  1  0  0  0  0
  6  3  1  0  0  0  0
  7  5  1  6  0  0  0
  7  4  1  0  0  0  0
  7  3  1  0  0  0  0
  9 10  2  0  0  0  0
 10 19  1  0  0  0  0
 10 18  1  0  0  0  0
 12 17  1  1  0  0  0
 12 16  1  0  0  0  0
 12 19  1  0  0  0  0
 13 17  2  0  0  0  0
 13  9  1  0  0  0  0
 14  9  1  0  0  0  0
 15 11  2  0  0  0  0
 16 15  1  0  0  0  0
 19 20  2  0  0  0  0
 20 11  1  0  0  0  0
 21  5  1  0  0  0  0
 22 23  1  0  0  0  0
 23 21  1  0  0  0  0
 24 26  1  0  0  0  0
 26 25  1  0  0  0  0
M  END
>  <MODEL>
2

>  <REMARK>
 VINA RESULT:      -7.0      1.557      1.901
  Name = 
  5 active torsions:
  status: ('A' for Active; 'I' for Inactive)
    1  A    between atoms: C_1  and  N_17
    2  A    between atoms: O_5  and  N_19
    3  A    between atoms: O_5  and  C_25
    4  A    between atoms: O_6  and  C_16
    5  A    between atoms: N_11  and  C_16
                            x       y       z     vdW  Elec       q    Type
                         _______ _______ _______ _____ _____    ______ ____

>  <TORSDO>
F 5

$$$$
=
 OpenBabel11062417173D

 26 29  0  0  1  0  0  0  0  0999 V2000
  183.9570  179.1970  139.0330 C   0  0  2  0  0  3  0  0  0  0  0  0
  182.9840  180.3510  138.9090 C   0  0  0  0  0  2  0  0  0  0  0  0
  181.8590  178.3930  137.9880 N   0  0  0  0  0  0  0  0  0  0  0  0
  183.6600  176.6370  138.4130 C   0  0  1  0  0  3  0  0  0  0  0  0
  183.9440  177.4510  137.2180 N   0  0  0  0  0  0  0  0  0  0  0  0
  181.8610  179.8560  137.9970 C   0  0  0  0  0  2  0  0  0  0  0  0
  183.2210  178.0420  138.3740 C   0  0  2  0  0  0  0  0  0  0  0  0
  182.6130  175.7570  138.1280 O   0  0  0  0  0  1  0  0  0  0  0  0
  188.2680  178.0700  141.7310 C   0  0  0  0  0  0  0  0  0  0  0  0
  187.2910  178.0450  142.6470 C   0  0  0  0  0  0  0  0  0  0  0  0
  183.5090  178.5610  142.7010 C   0  0  0  0  0  3  0  0  0  0  0  0
  185.6220  178.6180  140.8290 C   0  0  1  0  0  3  0  0  0  0  0  0
  187.9930  178.3320  140.2670 C   0  0  0  0  0  3  0  0  0  0  0  0
  189.5820  177.8370  142.1180 O   0  0  0  0  0  1  0  0  0  0  0  0
  183.2260  178.8530  141.4280 C   0  0  0  0  0  3  0  0  0  0  0  0
  184.2690  178.9080  140.4340 N   0  0  0  0  0  0  0  0  0  0  0  0
  186.5890  178.6330  139.9590 N   0  0  0  0  0  0  0  0  0  0  0  0
  187.6030  177.7870  144.0150 N   0  0  0  0  0  1  0  0  0  0  0  0
  185.9030  178.3090  142.2410 C   0  0  0  0  0  0  0  0  0  0  0  0
  184.8950  178.2840  143.1220 C   0  0  0  0  0  3  0  0  0  0  0  0
  185.2680  177.7430  137.2780 O   0  0  0  0  0  0  0  0  0  0  0  0
  187.0720  176.2200  137.0150 C   0  0  0  0  0  1  0  0  0  0  0  0
  185.8650  176.8670  136.3700 C   0  0  0  0  0  2  0  0  0  0  0  0
  180.9490  177.9690  139.0470 C   0  0  0  0  0  2  0  0  0  0  0  0
  179.3390  178.6560  140.3880 C   0  0  0  0  0  1  0  0  0  0  0  0
  179.8560  178.8340  139.1050 O   0  0  0  0  0  0  0  0  0  0  0  0
  1  2  1  1  0  0  0
  1 16  1  0  0  0  0
  3  6  1  0  0  0  0
  3  7  1  0  0  0  0
  3 24  1  0  0  0  0
  4  8  1  6  0  0  0
  5 21  1  0  0  0  0
  5  4  1  0  0  0  0
  6  2  1  0  0  0  0
  7  5  1  6  0  0  0
  7  4  1  0  0  0  0
  7  1  1  0  0  0  0
  9 14  1  0  0  0  0
  9 10  2  0  0  0  0
 10 18  1  0  0  0  0
 11 20  1  0  0  0  0
 12 17  1  1  0  0  0
 12 19  1  0  0  0  0
 13  9  1  0  0  0  0
 15 11  2  0  0  0  0
 16 12  1  0  0  0  0
 16 15  1  0  0  0  0
 17 13  2  0  0  0  0
 19 10  1  0  0  0  0
 19 20  2  0  0  0  0
 23 22  1  0  0  0  0
 23 21  1  0  0  0  0
 24 26  1  0  0  0  0
 26 25  1  0  0  0  0
M  END
>  <MODEL>
3

>  <REMARK>
 VINA RESULT:      -5.6      3.563      8.180
  Name = 
  5 active torsions:
  status: ('A' for Active; 'I' for Inactive)
    1  A    between atoms: C_1  and  N_17
    2  A    between atoms: O_5  and  N_19
    3  A    between atoms: O_5  and  C_25
    4  A    between atoms: O_6  and  C_16
    5  A    between atoms: N_11  and  C_16
                            x       y       z     vdW  Elec       q    Type
                         _______ _______ _______ _____ _____    ______ ____

>  <TORSDO>
F 5

$$$$
=
 OpenBabel11062417173D

 26 29  0  0  1  0  0  0  0  0999 V2000
  189.7750  178.1650  138.3740 C   0  0  2  0  0  3  0  0  0  0  0  0
  189.0910  179.0840  137.3830 C   0  0  0  0  0  2  0  0  0  0  0  0
  189.0260  176.8470  136.4130 N   0  0  0  0  0  0  0  0  0  0  0  0
  190.1350  175.5390  138.3020 C   0  0  1  0  0  3  0  0  0  0  0  0
  191.1170  176.2410  137.4560 N   0  0  0  0  0  0  0  0  0  0  0  0
  188.9380  178.2730  136.0960 C   0  0  0  0  0  2  0  0  0  0  0  0
  189.7640  176.8160  137.6710 C   0  0  2  0  0  0  0  0  0  0  0  0
  189.6270  174.4450  137.5990 O   0  0  0  0  0  1  0  0  0  0  0  0
  191.0420  177.2670  143.3460 C   0  0  0  0  0  0  0  0  0  0  0  0
  189.7180  177.4720  143.3760 C   0  0  0  0  0  0  0  0  0  0  0  0
  186.9590  178.2340  140.8500 C   0  0  0  0  0  3  0  0  0  0  0  0
  189.7510  177.8130  140.8660 C   0  0  1  0  0  3  0  0  0  0  0  0
  191.8290  177.2770  142.0550 C   0  0  0  0  0  3  0  0  0  0  0  0
  191.7280  177.0230  144.5290 O   0  0  0  0  0  1  0  0  0  0  0  0
  187.6230  178.3080  139.6920 C   0  0  0  0  0  3  0  0  0  0  0  0
  189.0510  178.1140  139.6460 N   0  0  0  0  0  0  0  0  0  0  0  0
  191.0360  177.6070  140.8650 N   0  0  0  0  0  0  0  0  0  0  0  0
  189.0200  177.4470  144.6200 N   0  0  0  0  0  1  0  0  0  0  0  0
  188.9930  177.7470  142.1270 C   0  0  0  0  0  0  0  0  0  0  0  0
  187.6700  177.9480  142.1100 C   0  0  0  0  0  3  0  0  0  0  0  0
  192.0150  176.7900  138.3140 O   0  0  0  0  0  0  0  0  0  0  0  0
  193.4300  176.0950  136.5350 C   0  0  0  0  0  1  0  0  0  0  0  0
  193.2170  176.1370  138.0340 C   0  0  0  0  0  2  0  0  0  0  0  0
  187.6640  176.3870  136.6590 C   0  0  0  0  0  2  0  0  0  0  0  0
  185.5910  177.1330  136.5740 C   0  0  0  0  0  1  0  0  0  0  0  0
  186.7750  177.0820  135.8390 O   0  0  0  0  0  0  0  0  0  0  0  0
  1  2  1  6  0  0  0
  1 16  1  0  0  0  0
  3 24  1  0  0  0  0
  4  8  1  6  0  0  0
  5  7  1  0  0  0  0
  5  4  1  0  0  0  0
  5 21  1  0  0  0  0
  6  3  1  0  0  0  0
  6  2  1  0  0  0  0
  7  3  1  6  0  0  0
  7  4  1  0  0  0  0
  7  1  1  0  0  0  0
  9 10  2  0  0  0  0
  9 14  1  0  0  0  0
 10 18  1  0  0  0  0
 11 20  1  0  0  0  0
 12 17  1  1  0  0  0
 12 19  1  0  0  0  0
 13  9  1  0  0  0  0
 15 11  2  0  0  0  0
 16 15  1  0  0  0  0
 16 12  1  0  0  0  0
 17 13  2  0  0  0  0
 19 10  1  0  0  0  0
 20 19  2  0  0  0  0
 22 23  1  0  0  0  0
 23 21  1  0  0  0  0
 26 25  1  0  0  0  0
 26 24  1  0  0  0  0
M  END
>  <MODEL>
4

>  <REMARK>
 VINA RESULT:      -5.6      3.057      6.576
  Name = 
  5 active torsions:
  status: ('A' for Active; 'I' for Inactive)
    1  A    between atoms: C_1  and  N_17
    2  A    between atoms: O_5  and  N_19
    3  A    between atoms: O_5  and  C_25
    4  A    between atoms: O_6  and  C_16
    5  A    between atoms: N_11  and  C_16
                            x       y       z     vdW  Elec       q    Type
                         _______ _______ _______ _____ _____    ______ ____

>  <TORSDO>
F 5

$$$$
=
 OpenBabel11062417173D

 26 29  0  0  1  0  0  0  0  0999 V2000
  190.0130  178.2580  144.3410 C   0  0  2  0  0  3  0  0  0  0  0  0
  190.8420  179.3760  143.7430 C   0  0  0  0  0  2  0  0  0  0  0  0
  191.8680  177.2870  143.0120 N   0  0  0  0  0  0  0  0  0  0  0  0
  190.2400  175.6300  144.0670 C   0  0  1  0  0  3  0  0  0  0  0  0
  191.2120  176.1560  145.0420 N   0  0  0  0  0  0  0  0  0  0  0  0
  192.1130  178.7160  143.2080 C   0  0  0  0  0  2  0  0  0  0  0  0
  190.7530  177.0010  143.9090 C   0  0  2  0  0  0  0  0  0  0  0  0
  190.8860  174.7310  143.2170 O   0  0  0  0  0  1  0  0  0  0  0  0
  185.2550  178.2490  146.4600 C   0  0  0  0  0  0  0  0  0  0  0  0
  185.0270  178.2600  145.1390 C   0  0  0  0  0  0  0  0  0  0  0  0
  187.1250  178.2520  141.9500 C   0  0  0  0  0  3  0  0  0  0  0  0
  187.5290  178.2530  144.7450 C   0  0  1  0  0  3  0  0  0  0  0  0
  186.6530  178.1980  147.0350 C   0  0  0  0  0  3  0  0  0  0  0  0
  184.1840  178.2750  147.3440 O   0  0  0  0  0  1  0  0  0  0  0  0
  188.3780  178.2620  142.4130 C   0  0  0  0  0  3  0  0  0  0  0  0
  188.6410  178.2770  143.8310 N   0  0  0  0  0  0  0  0  0  0  0  0
  187.7230  178.2410  146.0310 N   0  0  0  0  0  0  0  0  0  0  0  0
  183.6890  178.3030  144.6480 N   0  0  0  0  0  1  0  0  0  0  0  0
  186.1600  178.2500  144.2030 C   0  0  0  0  0  0  0  0  0  0  0  0
  185.9770  178.2500  142.8770 C   0  0  0  0  0  3  0  0  0  0  0  0
  190.4980  176.4270  146.1640 O   0  0  0  0  0  0  0  0  0  0  0  0
  192.4270  175.3110  146.9910 C   0  0  0  0  0  1  0  0  0  0  0  0
  191.4450  176.4470  147.1900 C   0  0  0  0  0  2  0  0  0  0  0  0
  191.4130  177.1250  141.6350 C   0  0  0  0  0  2  0  0  0  0  0  0
  191.9700  177.1010  139.5030 C   0  0  0  0  0  1  0  0  0  0  0  0
  192.4260  177.5080  140.7560 O   0  0  0  0  0  0  0  0  0  0  0  0
  1  2  1  6  0  0  0
  3  6  1  0  0  0  0
  4  8  1  6  0  0  0
  4  5  1  0  0  0  0
  5 21  1  0  0  0  0
  6  2  1  0  0  0  0
  7  3  1  6  0  0  0
  7  4  1  0  0  0  0
  7  1  1  0  0  0  0
  7  5  1  0  0  0  0
  9 13  1  0  0  0  0
  9 14  1  0  0  0  0
 10  9  2  0  0  0  0
 11 15  2  0  0  0  0
 11 20  1  0  0  0  0
 12 19  1  1  0  0  0
 12 17  1  0  0  0  0
 15 16  1  0  0  0  0
 16  1  1  0  0  0  0
 16 12  1  0  0  0  0
 17 13  2  0  0  0  0
 18 10  1  0  0  0  0
 19 10  1  0  0  0  0
 20 19  2  0  0  0  0
 21 23  1  0  0  0  0
 22 23  1  0  0  0  0
 24  3  1  0  0  0  0
 25 26  1  0  0  0  0
 26 24  1  0  0  0  0
M  END
>  <MODEL>
5

>  <REMARK>
 VINA RESULT:      -5.5      2.124      4.594
  Name = 
  5 active torsions:
  status: ('A' for Active; 'I' for Inactive)
    1  A    between atoms: C_1  and  N_17
    2  A    between atoms: O_5  and  N_19
    3  A    between atoms: O_5  and  C_25
    4  A    between atoms: O_6  and  C_16
    5  A    between atoms: N_11  and  C_16
                            x       y       z     vdW  Elec       q    Type
                         _______ _______ _______ _____ _____    ______ ____

>  <TORSDO>
F 5

$$$$
=
 OpenBabel11062417173D

 26 29  0  0  1  0  0  0  0  0999 V2000
  188.3990  177.8620  137.5220 C   0  0  2  0  0  3  0  0  0  0  0  0
  187.8160  178.9660  136.6630 C   0  0  0  0  0  2  0  0  0  0  0  0
  186.7670  176.8900  135.9300 N   0  0  0  0  0  0  0  0  0  0  0  0
  187.8470  175.2700  137.5790 C   0  0  1  0  0  3  0  0  0  0  0  0
  188.7420  175.6050  136.4570 N   0  0  0  0  0  0  0  0  0  0  0  0
  187.0690  178.2640  135.5290 C   0  0  0  0  0  2  0  0  0  0  0  0
  187.7610  176.6020  136.9590 C   0  0  2  0  0  0  0  0  0  0  0  0
  186.8410  174.4170  137.1220 O   0  0  0  0  0  1  0  0  0  0  0  0
  190.9700  177.4840  142.0360 C   0  0  0  0  0  0  0  0  0  0  0  0
  189.7250  177.8270  142.3940 C   0  0  0  0  0  0  0  0  0  0  0  0
  186.4150  178.5390  140.6300 C   0  0  0  0  0  3  0  0  0  0  0  0
  189.0640  177.8380  139.9490 C   0  0  1  0  0  3  0  0  0  0  0  0
  191.3560  177.2470  140.5940 C   0  0  0  0  0  3  0  0  0  0  0  0
  191.9480  177.3250  143.0100 O   0  0  0  0  0  1  0  0  0  0  0  0
  186.7250  178.3950  139.3380 C   0  0  0  0  0  3  0  0  0  0  0  0
  188.0650  178.0510  138.9350 N   0  0  0  0  0  0  0  0  0  0  0  0
  190.2790  177.5020  139.6290 N   0  0  0  0  0  0  0  0  0  0  0  0
  189.4100  178.0330  143.7700 N   0  0  0  0  0  1  0  0  0  0  0  0
  188.6940  178.0130  141.3630 C   0  0  0  0  0  0  0  0  0  0  0  0
  187.4360  178.3450  141.6770 C   0  0  0  0  0  3  0  0  0  0  0  0
  189.9640  175.8120  137.0110 O   0  0  0  0  0  0  0  0  0  0  0  0
  191.9510  174.6450  137.5910 C   0  0  0  0  0  1  0  0  0  0  0  0
  190.5010  174.5340  137.1710 C   0  0  0  0  0  2  0  0  0  0  0  0
  185.4470  176.9150  136.5510 C   0  0  0  0  0  2  0  0  0  0  0  0
  183.6160  175.7160  136.2840 C   0  0  0  0  0  1  0  0  0  0  0  0
  184.4750  176.5810  135.6070 O   0  0  0  0  0  0  0  0  0  0  0  0
  1  2  1  6  0  0  0
  1 16  1  0  0  0  0
  3 24  1  0  0  0  0
  4  8  1  6  0  0  0
  5  7  1  0  0  0  0
  5 21  1  0  0  0  0
  5  4  1  0  0  0  0
  6  3  1  0  0  0  0
  6  2  1  0  0  0  0
  7  3  1  6  0  0  0
  7  1  1  0  0  0  0
  7  4  1  0  0  0  0
  9 10  2  0  0  0  0
  9 14  1  0  0  0  0
 10 18  1  0  0  0  0
 11 20  1  0  0  0  0
 12 17  1  6  0  0  0
 12 19  1  0  0  0  0
 13  9  1  0  0  0  0
 15 11  2  0  0  0  0
 16 15  1  0  0  0  0
 16 12  1  0  0  0  0
 17 13  2  0  0  0  0
 19 20  2  0  0  0  0
 19 10  1  0  0  0  0
 21 23  1  0  0  0  0
 23 22  1  0  0  0  0
 26 25  1  0  0  0  0
 26 24  1  0  0  0  0
M  END
>  <MODEL>
6

>  <REMARK>
 VINA RESULT:      -5.4      3.585      7.305
  Name = 
  5 active torsions:
  status: ('A' for Active; 'I' for Inactive)
    1  A    between atoms: C_1  and  N_17
    2  A    between atoms: O_5  and  N_19
    3  A    between atoms: O_5  and  C_25
    4  A    between atoms: O_6  and  C_16
    5  A    between atoms: N_11  and  C_16
                            x       y       z     vdW  Elec       q    Type
                         _______ _______ _______ _____ _____    ______ ____

>  <TORSDO>
F 5

$$$$
=
 OpenBabel11062417173D

 26 29  0  0  1  0  0  0  0  0999 V2000
  190.3450  178.2090  144.9220 C   0  0  2  0  0  3  0  0  0  0  0  0
  190.7390  179.3180  143.9690 C   0  0  0  0  0  2  0  0  0  0  0  0
  191.8500  177.2960  143.1770 N   0  0  0  0  0  0  0  0  0  0  0  0
  190.9430  175.6260  144.8800 C   0  0  1  0  0  3  0  0  0  0  0  0
  192.0550  176.4280  145.4200 N   0  0  0  0  0  0  0  0  0  0  0  0
  191.8850  178.7580  143.1250 C   0  0  0  0  0  2  0  0  0  0  0  0
  191.1300  177.0100  144.4130 C   0  0  2  0  0  0  0  0  0  0  0  0
  191.4500  174.6970  143.9680 O   0  0  0  0  0  1  0  0  0  0  0  0
  186.5800  178.6280  141.3470 C   0  0  0  0  0  0  0  0  0  0  0  0
  185.9450  178.1960  142.4450 C   0  0  1  0  0  3  0  0  0  0  0  0
  186.8780  177.3220  146.0420 C   0  0  0  0  0  3  0  0  0  0  0  0
  188.1540  178.2090  143.6850 C   0  0  0  0  0  0  0  0  0  0  0  0
  188.0620  178.9280  141.3410 C   0  0  0  0  0  3  0  0  0  0  0  0
  185.8680  178.8230  140.1710 O   0  0  0  0  0  1  0  0  0  0  0  0
  188.2000  177.5200  146.0680 C   0  0  0  0  0  3  0  0  0  0  0  0
  188.9020  177.9610  144.8880 N   0  0  0  0  0  0  0  0  0  0  0  0
  188.7460  178.6310  142.6060 N   0  0  0  0  0  0  0  0  0  0  0  0
  184.5430  177.9320  142.4010 N   0  0  0  0  0  1  0  0  0  0  0  0
  186.7000  177.9730  143.6860 C   0  0  0  0  0  0  0  0  0  0  0  0
  186.1040  177.5520  144.8080 C   0  0  0  0  0  3  0  0  0  0  0  0
  191.6800  176.7770  146.6770 O   0  0  0  0  0  0  0  0  0  0  0  0
  192.9700  175.8960  148.4690 C   0  0  0  0  0  1  0  0  0  0  0  0
  191.8910  175.6280  147.4410 C   0  0  0  0  0  2  0  0  0  0  0  0
  191.0350  176.8550  142.0500 C   0  0  0  0  0  2  0  0  0  0  0  0
  190.7680  176.8280  139.8620 C   0  0  0  0  0  1  0  0  0  0  0  0
  191.4860  177.4590  140.8760 O   0  0  0  0  0  0  0  0  0  0  0  0
  1  2  1  6  0  0  0
  4  8  1  6  0  0  0
  4  5  1  0  0  0  0
  5 21  1  0  0  0  0
  6  3  1  0  0  0  0
  6  2  1  0  0  0  0
  7  3  1  6  0  0  0
  7  4  1  0  0  0  0
  7  1  1  0  0  0  0
  7  5  1  0  0  0  0
  9 10  1  0  0  0  0
 10 18  1  6  0  0  0
 10 19  1  0  0  0  0
 11 15  2  0  0  0  0
 12 19  1  0  0  0  0
 12 16  1  0  0  0  0
 13  9  2  0  0  0  0
 13 17  1  0  0  0  0
 14  9  1  0  0  0  0
 16  1  1  0  0  0  0
 16 15  1  0  0  0  0
 17 12  2  0  0  0  0
 19 20  2  0  0  0  0
 20 11  1  0  0  0  0
 21 23  1  0  0  0  0
 23 22  1  0  0  0  0
 24  3  1  0  0  0  0
 25 26  1  0  0  0  0
 26 24  1  0  0  0  0
M  END
>  <MODEL>
7

>  <REMARK>
 VINA RESULT:      -5.2      1.350      3.902
  Name = 
  5 active torsions:
  status: ('A' for Active; 'I' for Inactive)
    1  A    between atoms: C_1  and  N_17
    2  A    between atoms: O_5  and  N_19
    3  A    between atoms: O_5  and  C_25
    4  A    between atoms: O_6  and  C_16
    5  A    between atoms: N_11  and  C_16
                            x       y       z     vdW  Elec       q    Type
                         _______ _______ _______ _____ _____    ______ ____

>  <TORSDO>
F 5

$$$$
=
 OpenBabel11062417173D

 26 29  0  0  1  0  0  0  0  0999 V2000
  189.3460  178.4990  143.8050 C   0  0  2  0  0  3  0  0  0  0  0  0
  190.4030  179.5320  143.4720 C   0  0  0  0  0  2  0  0  0  0  0  0
  191.4550  177.3490  143.1970 N   0  0  0  0  0  0  0  0  0  0  0  0
  189.4560  175.8520  143.7190 C   0  0  1  0  0  3  0  0  0  0  0  0
  190.0940  176.3780  144.9390 N   0  0  0  0  0  0  0  0  0  0  0  0
  191.7280  178.7700  143.4100 C   0  0  0  0  0  2  0  0  0  0  0  0
  190.0920  177.1800  143.6870 C   0  0  2  0  0  0  0  0  0  0  0  0
  190.2770  174.8690  143.1620 O   0  0  0  0  0  1  0  0  0  0  0  0
  184.1560  178.5900  144.2370 C   0  0  0  0  0  0  0  0  0  0  0  0
  184.3770  178.6300  142.9160 C   0  0  1  0  0  3  0  0  0  0  0  0
  187.4090  178.6180  140.5970 C   0  0  0  0  0  3  0  0  0  0  0  0
  186.8680  178.5590  143.3680 C   0  0  0  0  0  0  0  0  0  0  0  0
  185.2840  178.4880  145.2390 C   0  0  0  0  0  3  0  0  0  0  0  0
  182.8540  178.6300  144.7200 O   0  0  0  0  0  1  0  0  0  0  0  0
  188.4390  178.5850  141.4480 C   0  0  0  0  0  3  0  0  0  0  0  0
  188.2190  178.5670  142.8720 N   0  0  0  0  0  0  0  0  0  0  0  0
  186.6260  178.5180  144.6450 N   0  0  0  0  0  0  0  0  0  0  0  0
  183.2770  178.7200  142.0120 N   0  0  0  0  0  1  0  0  0  0  0  0
  185.7550  178.6050  142.4050 C   0  0  0  0  0  0  0  0  0  0  0  0
  186.0200  178.6320  141.0940 C   0  0  0  0  0  3  0  0  0  0  0  0
  189.0760  176.7550  145.7530 O   0  0  0  0  0  0  0  0  0  0  0  0
  189.0550  177.9030  147.8340 C   0  0  0  0  0  1  0  0  0  0  0  0
  189.6280  176.7520  147.0350 C   0  0  0  0  0  2  0  0  0  0  0  0
  191.4630  177.1320  141.7540 C   0  0  0  0  0  2  0  0  0  0  0  0
  192.6860  177.2370  139.9230 C   0  0  0  0  0  1  0  0  0  0  0  0
  192.5290  177.8230  141.1780 O   0  0  0  0  0  0  0  0  0  0  0  0
  1 16  1  6  0  0  0
  2  1  1  0  0  0  0
  3  6  1  0  0  0  0
  4  8  1  6  0  0  0
  4  5  1  0  0  0  0
  5 21  1  0  0  0  0
  6  2  1  0  0  0  0
  7  3  1  6  0  0  0
  7  4  1  0  0  0  0
  7  1  1  0  0  0  0
  7  5  1  0  0  0  0
  9 14  1  0  0  0  0
  9 13  2  0  0  0  0
 10 18  1  1  0  0  0
 10  9  1  0  0  0  0
 11 20  1  0  0  0  0
 11 15  2  0  0  0  0
 12 17  2  0  0  0  0
 15 16  1  0  0  0  0
 16 12  1  0  0  0  0
 17 13  1  0  0  0  0
 19 10  1  0  0  0  0
 19 12  1  0  0  0  0
 20 19  2  0  0  0  0
 21 23  1  0  0  0  0
 23 22  1  0  0  0  0
 24  3  1  0  0  0  0
 25 26  1  0  0  0  0
 26 24  1  0  0  0  0
M  END
>  <MODEL>
8

>  <REMARK>
 VINA RESULT:      -5.2      2.059      4.382
  Name = 
  5 active torsions:
  status: ('A' for Active; 'I' for Inactive)
    1  A    between atoms: C_1  and  N_17
    2  A    between atoms: O_5  and  N_19
    3  A    between atoms: O_5  and  C_25
    4  A    between atoms: O_6  and  C_16
    5  A    between atoms: N_11  and  C_16
                            x       y       z     vdW  Elec       q    Type
                         _______ _______ _______ _____ _____    ______ ____

>  <TORSDO>
F 5

$$$$
=
 OpenBabel11062417173D

 26 29  0  0  1  0  0  0  0  0999 V2000
  190.0030  177.8760  139.0950 C   0  0  2  0  0  3  0  0  0  0  0  0
  189.0550  178.9340  138.5680 C   0  0  0  0  0  2  0  0  0  0  0  0
  188.7670  176.9740  137.1450 N   0  0  0  0  0  0  0  0  0  0  0  0
  190.3780  175.3730  138.3070 C   0  0  1  0  0  3  0  0  0  0  0  0
  191.0750  176.3250  137.4250 N   0  0  0  0  0  0  0  0  0  0  0  0
  188.5680  178.4220  137.2120 C   0  0  0  0  0  2  0  0  0  0  0  0
  189.8230  176.7240  138.1200 C   0  0  2  0  0  0  0  0  0  0  0  0
  189.7150  174.4250  137.5230 O   0  0  0  0  0  1  0  0  0  0  0  0
  185.9040  178.5430  142.2390 C   0  0  0  0  0  0  0  0  0  0  0  0
  186.7770  177.8460  142.9800 C   0  0  0  0  0  0  0  0  0  0  0  0
  190.2910  176.4210  142.5390 C   0  0  0  0  0  3  0  0  0  0  0  0
  188.3940  177.8690  141.0300 C   0  0  1  0  0  3  0  0  0  0  0  0
  186.2250  179.0000  140.8340 C   0  0  0  0  0  3  0  0  0  0  0  0
  184.6630  178.8760  142.7680 O   0  0  0  0  0  1  0  0  0  0  0  0
  190.5960  176.7550  141.2810 C   0  0  0  0  0  3  0  0  0  0  0  0
  189.6590  177.4830  140.4630 N   0  0  0  0  0  0  0  0  0  0  0  0
  187.5300  178.5470  140.3330 N   0  0  0  0  0  0  0  0  0  0  0  0
  186.4270  177.4430  144.3030 N   0  0  0  0  0  1  0  0  0  0  0  0
  188.0830  177.4780  142.4150 C   0  0  0  0  0  0  0  0  0  0  0  0
  188.9880  176.7920  143.1230 C   0  0  0  0  0  3  0  0  0  0  0  0
  192.1650  176.7400  138.1200 O   0  0  0  0  0  0  0  0  0  0  0  0
  193.9450  175.1810  137.9040 C   0  0  0  0  0  1  0  0  0  0  0  0
  193.2510  176.3920  137.3160 C   0  0  0  0  0  2  0  0  0  0  0  0
  187.5340  176.3590  137.6250 C   0  0  0  0  0  2  0  0  0  0  0  0
  185.4900  176.1830  136.8170 C   0  0  0  0  0  1  0  0  0  0  0  0
  186.4380  177.1230  137.2230 O   0  0  0  0  0  0  0  0  0  0  0  0
  1  2  1  6  0  0  0
  1 16  1  0  0  0  0
  3  6  1  0  0  0  0
  3 24  1  0  0  0  0
  4  8  1  6  0  0  0
  5  7  1  0  0  0  0
  5 21  1  0  0  0  0
  5  4  1  0  0  0  0
  6  2  1  0  0  0  0
  7  3  1  6  0  0  0
  7  4  1  0  0  0  0
  7  1  1  0  0  0  0
  9 14  1  0  0  0  0
  9 10  2  0  0  0  0
 10 18  1  0  0  0  0
 11 20  1  0  0  0  0
 12 17  1  6  0  0  0
 12 19  1  0  0  0  0
 13  9  1  0  0  0  0
 15 11  2  0  0  0  0
 16 12  1  0  0  0  0
 16 15  1  0  0  0  0
 17 13  2  0  0  0  0
 19 10  1  0  0  0  0
 19 20  2  0  0  0  0
 23 22  1  0  0  0  0
 23 21  1  0  0  0  0
 25 26  1  0  0  0  0
 26 24  1  0  0  0  0
M  END
>  <MODEL>
9

>  <REMARK>
 VINA RESULT:      -5.1      3.172      5.693
  Name = 
  5 active torsions:
  status: ('A' for Active; 'I' for Inactive)
    1  A    between atoms: C_1  and  N_17
    2  A    between atoms: O_5  and  N_19
    3  A    between atoms: O_5  and  C_25
    4  A    between atoms: O_6  and  C_16
    5  A    between atoms: N_11  and  C_16
                            x       y       z     vdW  Elec       q    Type
                         _______ _______ _______ _____ _____    ______ ____

>  <TORSDO>
F 5

$$$$
