=
 OpenBabel11062417023D

 26 27  0  0  1  0  0  0  0  0999 V2000
  187.4830  178.0850  142.1900 C   0  0  0  0  0  2  0  0  0  0  0  0
  189.8390  177.4110  141.8480 C   0  0  0  0  0  1  0  0  0  0  0  0
  188.6750  177.3810  142.8250 C   0  0  2  0  0  0  0  0  0  0  0  0
  188.3270  176.0550  143.1030 O   0  0  0  0  0  1  0  0  0  0  0  0
  189.0240  178.1050  144.0560 N   0  0  0  0  0  2  0  0  0  0  0  0
  190.5920  176.3000  144.9060 C   0  0  2  0  0  3  0  0  0  0  0  0
  191.9480  175.9770  144.8180 O   0  0  0  0  0  1  0  0  0  0  0  0
  190.3590  177.7690  144.5760 C   0  0  2  0  0  0  0  0  0  0  0  0
  190.3850  177.3080  146.0300 C   0  0  1  0  0  3  0  0  0  0  0  0
  189.0020  177.1010  146.6340 C   0  0  0  0  0  2  0  0  0  0  0  0
  189.0500  177.3520  148.0040 O   0  0  0  0  0  1  0  0  0  0  0  0
  191.0820  179.9670  143.9650 O   0  0  0  0  0  1  0  0  0  0  0  0
  191.5330  178.6690  144.2010 C   0  0  0  0  0  2  0  0  0  0  0  0
  186.2700  177.5380  142.6520 O   0  0  0  0  0  0  0  0  0  0  0  0
  184.2440  178.4290  143.7230 C   0  0  2  0  0  3  0  0  0  0  0  0
  184.4470  178.4930  141.3090 C   0  0  2  0  0  3  0  0  0  0  0  0
  183.0730  178.9390  141.7440 C   0  0  0  0  0  2  0  0  0  0  0  0
  185.2530  178.5210  142.5900 C   0  0  2  0  0  3  0  0  0  0  0  0
  182.9070  178.6010  143.1550 N   0  0  0  0  0  2  0  0  0  0  0  0
  184.5220  179.5160  144.7440 C   0  0  0  0  0  2  0  0  0  0  0  0
  184.1430  179.0830  146.0150 O   0  0  0  0  0  0  0  0  0  0  0  0
  185.2650  178.4170  146.5060 C   0  0  0  0  0  1  0  0  0  0  0  0
  184.9890  179.4360  140.3420 N   0  0  0  0  0  2  0  0  0  0  0  0
  184.1210  179.4310  139.1720 C   0  0  0  0  0  2  0  0  0  0  0  0
  184.4130  178.2210  138.2990 C   0  0  0  0  0  2  0  0  0  0  0  0
  185.8810  178.1790  137.9220 C   0  0  0  0  0  1  0  0  0  0  0  0
  1 14  1  0  0  0  0
  1  3  1  0  0  0  0
  3  2  1  6  0  0  0
  3  4  1  0  0  0  0
  3  5  1  0  0  0  0
  5  8  1  0  0  0  0
  6  7  1  1  0  0  0
  6  9  1  0  0  0  0
  8 13  1  6  0  0  0
  8  6  1  0  0  0  0
  8  9  1  0  0  0  0
  9 10  1  6  0  0  0
 10 11  1  0  0  0  0
 12 13  1  0  0  0  0
 15 20  1  1  0  0  0
 16 23  1  6  0  0  0
 16 17  1  0  0  0  0
 16 18  1  0  0  0  0
 17 19  1  0  0  0  0
 18 14  1  6  0  0  0
 18 15  1  0  0  0  0
 19 15  1  0  0  0  0
 20 21  1  0  0  0  0
 21 22  1  0  0  0  0
 24 23  1  0  0  0  0
 25 24  1  0  0  0  0
 26 25  1  0  0  0  0
M  END
>  <MODEL>
1

>  <REMARK>
 VINA RESULT:      -5.9      0.000      0.000
  Name = 
  12 active torsions:
  status: ('A' for Active; 'I' for Inactive)
    1  A    between atoms: C_1  and  C_17
    2  A    between atoms: C_1  and  N_23
    3  A    between atoms: C_2  and  C_20
    4  A    between atoms: C_4  and  N_23
    5  A    between atoms: O_7  and  C_20
    6  A    between atoms: C_9  and  C_10
    7  A    between atoms: C_9  and  O_21
    8  A    between atoms: C_10  and  N_12
    9  A    between atoms: C_11  and  C_15
   10  A    between atoms: N_12  and  C_14
   11  A    between atoms: C_14  and  C_18
   12  A    between atoms: O_21  and  C_24
                            x       y       z     vdW  Elec       q    Type
                         _______ _______ _______ _____ _____    ______ ____

>  <TORSDO>
F 12

$$$$
=
 OpenBabel11062417023D

 26 27  0  0  1  0  0  0  0  0999 V2000
  188.4340  177.3490  139.6710 C   0  0  0  0  0  2  0  0  0  0  0  0
  189.1750  178.8320  137.8340 C   0  0  0  0  0  1  0  0  0  0  0  0
  188.0670  177.9020  138.3000 C   0  0  2  0  0  0  0  0  0  0  0  0
  186.8660  178.6130  138.4010 O   0  0  0  0  0  1  0  0  0  0  0  0
  187.9320  176.7670  137.3760 N   0  0  0  0  0  2  0  0  0  0  0  0
  185.4160  176.4830  137.2110 C   0  0  2  0  0  3  0  0  0  0  0  0
  184.3400  177.1090  136.5810 O   0  0  0  0  0  1  0  0  0  0  0  0
  186.7310  176.8390  136.5290 C   0  0  2  0  0  0  0  0  0  0  0  0
  186.0630  175.4970  136.2460 C   0  0  1  0  0  3  0  0  0  0  0  0
  186.6510  174.3380  137.0400 C   0  0  0  0  0  2  0  0  0  0  0  0
  185.6190  173.5770  137.5870 O   0  0  0  0  0  1  0  0  0  0  0  0
  188.0010  177.7640  134.7240 O   0  0  0  0  0  1  0  0  0  0  0  0
  186.7440  177.7790  135.3270 C   0  0  0  0  0  2  0  0  0  0  0  0
  188.7750  178.3880  140.5590 O   0  0  0  0  0  0  0  0  0  0  0  0
  190.3300  176.9060  141.7550 C   0  0  2  0  0  3  0  0  0  0  0  0
  188.0240  177.0590  142.4840 C   0  0  2  0  0  3  0  0  0  0  0  0
  188.7580  175.9850  143.2470 C   0  0  0  0  0  2  0  0  0  0  0  0
  189.1330  177.8410  141.8140 C   0  0  2  0  0  3  0  0  0  0  0  0
  190.0290  175.7330  142.5750 N   0  0  0  0  0  2  0  0  0  0  0  0
  191.5600  177.6160  142.2890 C   0  0  0  0  0  2  0  0  0  0  0  0
  191.1800  178.6110  143.1910 O   0  0  0  0  0  0  0  0  0  0  0  0
  191.7070  178.1940  144.4120 C   0  0  0  0  0  1  0  0  0  0  0  0
  187.2870  177.9060  143.4100 N   0  0  0  0  0  2  0  0  0  0  0  0
  187.7410  177.5990  144.7590 C   0  0  0  0  0  2  0  0  0  0  0  0
  186.5610  177.5220  145.7140 C   0  0  0  0  0  2  0  0  0  0  0  0
  185.7880  178.8270  145.7100 C   0  0  0  0  0  1  0  0  0  0  0  0
  1 14  1  0  0  0  0
  3  2  1  6  0  0  0
  3  4  1  0  0  0  0
  3  1  1  0  0  0  0
  5  3  1  0  0  0  0
  6  7  1  6  0  0  0
  8 13  1  6  0  0  0
  8  6  1  0  0  0  0
  8  5  1  0  0  0  0
  9  8  1  0  0  0  0
  9 10  1  1  0  0  0
  9  6  1  0  0  0  0
 10 11  1  0  0  0  0
 12 13  1  0  0  0  0
 15 18  1  0  0  0  0
 15 20  1  1  0  0  0
 15 19  1  0  0  0  0
 16 17  1  0  0  0  0
 16 23  1  1  0  0  0
 18 14  1  6  0  0  0
 18 16  1  0  0  0  0
 19 17  1  0  0  0  0
 20 21  1  0  0  0  0
 21 22  1  0  0  0  0
 23 24  1  0  0  0  0
 24 25  1  0  0  0  0
 26 25  1  0  0  0  0
M  END
>  <MODEL>
2

>  <REMARK>
 VINA RESULT:      -5.7      3.397      7.635
  Name = 
  12 active torsions:
  status: ('A' for Active; 'I' for Inactive)
    1  A    between atoms: C_1  and  C_17
    2  A    between atoms: C_1  and  N_23
    3  A    between atoms: C_2  and  C_20
    4  A    between atoms: C_4  and  N_23
    5  A    between atoms: O_7  and  C_20
    6  A    between atoms: C_9  and  C_10
    7  A    between atoms: C_9  and  O_21
    8  A    between atoms: C_10  and  N_12
    9  A    between atoms: C_11  and  C_15
   10  A    between atoms: N_12  and  C_14
   11  A    between atoms: C_14  and  C_18
   12  A    between atoms: O_21  and  C_24
                            x       y       z     vdW  Elec       q    Type
                         _______ _______ _______ _____ _____    ______ ____

>  <TORSDO>
F 12

$$$$
=
 OpenBabel11062417023D

 26 27  0  0  1  0  0  0  0  0999 V2000
  188.1060  178.1640  140.9000 C   0  0  0  0  0  2  0  0  0  0  0  0
  190.4170  177.6030  140.2200 C   0  0  0  0  0  1  0  0  0  0  0  0
  189.0220  177.9220  139.7090 C   0  0  2  0  0  0  0  0  0  0  0  0
  189.0620  179.0780  138.9210 O   0  0  0  0  0  1  0  0  0  0  0  0
  188.4850  176.7840  138.9490 N   0  0  0  0  0  2  0  0  0  0  0  0
  188.4290  177.5390  136.5280 C   0  0  2  0  0  3  0  0  0  0  0  0
  189.3370  177.8020  135.5010 O   0  0  0  0  0  1  0  0  0  0  0  0
  189.0560  176.6570  137.5990 C   0  0  2  0  0  0  0  0  0  0  0  0
  188.1200  176.0470  136.5600 C   0  0  1  0  0  3  0  0  0  0  0  0
  186.6960  175.8450  137.0590 C   0  0  0  0  0  2  0  0  0  0  0  0
  186.3910  174.4850  137.0580 O   0  0  0  0  0  1  0  0  0  0  0  0
  190.6990  175.0210  138.1920 O   0  0  0  0  0  1  0  0  0  0  0  0
  190.5040  176.1930  137.4620 C   0  0  0  0  0  2  0  0  0  0  0  0
  188.2970  177.1820  141.8920 O   0  0  0  0  0  0  0  0  0  0  0  0
  189.3210  177.4330  144.1120 C   0  0  2  0  0  3  0  0  0  0  0  0
  186.9070  177.3920  143.9070 C   0  0  2  0  0  3  0  0  0  0  0  0
  187.3230  177.3940  145.3580 C   0  0  0  0  0  2  0  0  0  0  0  0
  188.1750  177.7710  143.1730 C   0  0  2  0  0  3  0  0  0  0  0  0
  188.7550  177.1190  145.4240 N   0  0  0  0  0  2  0  0  0  0  0  0
  190.2610  178.6200  144.2190 C   0  0  0  0  0  2  0  0  0  0  0  0
  191.5580  178.1780  144.4810 O   0  0  0  0  0  0  0  0  0  0  0  0
  191.7800  177.1720  143.5420 C   0  0  0  0  0  1  0  0  0  0  0  0
  185.8710  178.3920  143.6900 N   0  0  0  0  0  2  0  0  0  0  0  0
  185.4210  178.8640  144.9920 C   0  0  0  0  0  2  0  0  0  0  0  0
  183.9030  178.8710  145.0600 C   0  0  0  0  0  2  0  0  0  0  0  0
  183.3090  178.9200  143.6660 C   0  0  0  0  0  1  0  0  0  0  0  0
  1 14  1  0  0  0  0
  3  2  1  1  0  0  0
  3  1  1  0  0  0  0
  4  3  1  0  0  0  0
  5  3  1  0  0  0  0
  6  7  1  6  0  0  0
  6  9  1  0  0  0  0
  6  8  1  0  0  0  0
  8 13  1  6  0  0  0
  8  5  1  0  0  0  0
  9 10  1  1  0  0  0
  9  8  1  0  0  0  0
 11 10  1  0  0  0  0
 13 12  1  0  0  0  0
 15 20  1  1  0  0  0
 15 19  1  0  0  0  0
 16 23  1  1  0  0  0
 16 17  1  0  0  0  0
 17 19  1  0  0  0  0
 18 14  1  6  0  0  0
 18 16  1  0  0  0  0
 18 15  1  0  0  0  0
 20 21  1  0  0  0  0
 22 21  1  0  0  0  0
 23 24  1  0  0  0  0
 24 25  1  0  0  0  0
 26 25  1  0  0  0  0
M  END
>  <MODEL>
3

>  <REMARK>
 VINA RESULT:      -5.6      3.307      6.641
  Name = 
  12 active torsions:
  status: ('A' for Active; 'I' for Inactive)
    1  A    between atoms: C_1  and  C_17
    2  A    between atoms: C_1  and  N_23
    3  A    between atoms: C_2  and  C_20
    4  A    between atoms: C_4  and  N_23
    5  A    between atoms: O_7  and  C_20
    6  A    between atoms: C_9  and  C_10
    7  A    between atoms: C_9  and  O_21
    8  A    between atoms: C_10  and  N_12
    9  A    between atoms: C_11  and  C_15
   10  A    between atoms: N_12  and  C_14
   11  A    between atoms: C_14  and  C_18
   12  A    between atoms: O_21  and  C_24
                            x       y       z     vdW  Elec       q    Type
                         _______ _______ _______ _____ _____    ______ ____

>  <TORSDO>
F 12

$$$$
=
 OpenBabel11062417023D

 26 27  0  0  1  0  0  0  0  0999 V2000
  189.4330  177.5480  140.7210 C   0  0  0  0  0  2  0  0  0  0  0  0
  191.8080  177.5030  141.4110 C   0  0  0  0  0  1  0  0  0  0  0  0
  190.3860  177.2160  141.8620 C   0  0  2  0  0  0  0  0  0  0  0  0
  190.2570  175.8610  142.1840 O   0  0  0  0  0  1  0  0  0  0  0  0
  190.0330  178.0670  143.0080 N   0  0  0  0  0  2  0  0  0  0  0  0
  189.1070  178.0640  145.3700 C   0  0  2  0  0  3  0  0  0  0  0  0
  187.9180  177.7260  146.0190 O   0  0  0  0  0  1  0  0  0  0  0  0
  189.1980  177.3850  144.0100 C   0  0  2  0  0  0  0  0  0  0  0  0
  189.9620  176.8130  145.2000 C   0  0  1  0  0  3  0  0  0  0  0  0
  191.4320  177.2080  145.2350 C   0  0  0  0  0  2  0  0  0  0  0  0
  191.9800  176.8560  146.4670 O   0  0  0  0  0  1  0  0  0  0  0  0
  187.0140  177.2610  143.0390 O   0  0  0  0  0  1  0  0  0  0  0  0
  188.0660  176.4840  143.5220 C   0  0  0  0  0  2  0  0  0  0  0  0
  190.1420  177.8180  139.5340 O   0  0  0  0  0  0  0  0  0  0  0  0
  190.2420  176.6730  137.3610 C   0  0  2  0  0  3  0  0  0  0  0  0
  188.6290  178.4490  137.7040 C   0  0  2  0  0  3  0  0  0  0  0  0
  188.6300  177.9940  136.2650 C   0  0  0  0  0  2  0  0  0  0  0  0
  189.3970  177.3600  138.4210 C   0  0  2  0  0  3  0  0  0  0  0  0
  189.8050  177.1530  136.0510 N   0  0  0  0  0  2  0  0  0  0  0  0
  190.0570  175.1700  137.4560 C   0  0  0  0  0  2  0  0  0  0  0  0
  191.1890  174.5860  138.0250 O   0  0  0  0  0  0  0  0  0  0  0  0
  191.8020  173.9130  136.9700 C   0  0  0  0  0  1  0  0  0  0  0  0
  187.2620  178.5220  138.1970 N   0  0  0  0  0  2  0  0  0  0  0  0
  186.4450  177.6210  137.3950 C   0  0  0  0  0  2  0  0  0  0  0  0
  184.9790  177.7520  137.7740 C   0  0  0  0  0  2  0  0  0  0  0  0
  184.8110  178.7370  138.9150 C   0  0  0  0  0  1  0  0  0  0  0  0
  1  3  1  0  0  0  0
  3  2  1  6  0  0  0
  3  4  1  0  0  0  0
  3  5  1  0  0  0  0
  5  8  1  0  0  0  0
  6  7  1  1  0  0  0
  8 13  1  6  0  0  0
  8  9  1  0  0  0  0
  8  6  1  0  0  0  0
  9 10  1  6  0  0  0
  9  6  1  0  0  0  0
 10 11  1  0  0  0  0
 12 13  1  0  0  0  0
 14  1  1  0  0  0  0
 15 20  1  6  0  0  0
 15 18  1  0  0  0  0
 16 23  1  1  0  0  0
 16 18  1  0  0  0  0
 17 16  1  0  0  0  0
 18 14  1  1  0  0  0
 19 17  1  0  0  0  0
 19 15  1  0  0  0  0
 20 21  1  0  0  0  0
 22 21  1  0  0  0  0
 24 25  1  0  0  0  0
 24 23  1  0  0  0  0
 25 26  1  0  0  0  0
M  END
>  <MODEL>
4

>  <REMARK>
 VINA RESULT:      -5.6      3.165      5.751
  Name = 
  12 active torsions:
  status: ('A' for Active; 'I' for Inactive)
    1  A    between atoms: C_1  and  C_17
    2  A    between atoms: C_1  and  N_23
    3  A    between atoms: C_2  and  C_20
    4  A    between atoms: C_4  and  N_23
    5  A    between atoms: O_7  and  C_20
    6  A    between atoms: C_9  and  C_10
    7  A    between atoms: C_9  and  O_21
    8  A    between atoms: C_10  and  N_12
    9  A    between atoms: C_11  and  C_15
   10  A    between atoms: N_12  and  C_14
   11  A    between atoms: C_14  and  C_18
   12  A    between atoms: O_21  and  C_24
                            x       y       z     vdW  Elec       q    Type
                         _______ _______ _______ _____ _____    ______ ____

>  <TORSDO>
F 12

$$$$
=
 OpenBabel11062417023D

 26 27  0  0  1  0  0  0  0  0999 V2000
  189.5140  177.0290  139.4510 C   0  0  0  0  0  2  0  0  0  0  0  0
  188.6030  178.7690  137.9470 C   0  0  0  0  0  1  0  0  0  0  0  0
  189.1570  177.3550  138.0080 C   0  0  2  0  0  0  0  0  0  0  0  0
  188.1890  176.4490  137.5610 O   0  0  0  0  0  1  0  0  0  0  0  0
  190.3840  177.2540  137.2040 N   0  0  0  0  0  2  0  0  0  0  0  0
  191.0030  174.8430  137.6990 C   0  0  2  0  0  3  0  0  0  0  0  0
  190.6500  173.5680  137.2540 O   0  0  0  0  0  1  0  0  0  0  0  0
  190.6280  175.9040  136.6720 C   0  0  2  0  0  0  0  0  0  0  0  0
  192.0710  175.4220  136.7780 C   0  0  1  0  0  3  0  0  0  0  0  0
  192.9720  176.3490  137.5820 C   0  0  0  0  0  2  0  0  0  0  0  0
  194.3010  175.9650  137.4190 O   0  0  0  0  0  1  0  0  0  0  0  0
  189.6930  176.6360  134.5940 O   0  0  0  0  0  1  0  0  0  0  0  0
  189.9450  175.5030  135.3670 C   0  0  0  0  0  2  0  0  0  0  0  0
  189.0270  178.0190  140.3270 O   0  0  0  0  0  0  0  0  0  0  0  0
  190.5140  176.7310  141.8020 C   0  0  2  0  0  3  0  0  0  0  0  0
  188.1690  176.9560  142.3700 C   0  0  2  0  0  3  0  0  0  0  0  0
  188.8610  176.0040  143.3140 C   0  0  0  0  0  2  0  0  0  0  0  0
  189.3130  177.6520  141.6650 C   0  0  2  0  0  3  0  0  0  0  0  0
  190.1710  175.6770  142.7560 N   0  0  0  0  0  2  0  0  0  0  0  0
  191.7090  177.5220  142.3040 C   0  0  0  0  0  2  0  0  0  0  0  0
  191.7680  177.4610  143.6970 O   0  0  0  0  0  0  0  0  0  0  0  0
  191.6350  178.7860  144.1090 C   0  0  0  0  0  1  0  0  0  0  0  0
  187.3770  177.9130  143.1280 N   0  0  0  0  0  2  0  0  0  0  0  0
  186.8910  177.2440  144.3280 C   0  0  0  0  0  2  0  0  0  0  0  0
  186.2370  178.2450  145.2670 C   0  0  0  0  0  2  0  0  0  0  0  0
  184.9160  178.7240  144.6950 C   0  0  0  0  0  1  0  0  0  0  0  0
  1 14  1  0  0  0  0
  3  2  1  6  0  0  0
  3  1  1  0  0  0  0
  4  3  1  0  0  0  0
  5  3  1  0  0  0  0
  6  7  1  6  0  0  0
  8 13  1  6  0  0  0
  8  9  1  0  0  0  0
  8  5  1  0  0  0  0
  8  6  1  0  0  0  0
  9 10  1  1  0  0  0
  9  6  1  0  0  0  0
 11 10  1  0  0  0  0
 12 13  1  0  0  0  0
 15 20  1  1  0  0  0
 15 19  1  0  0  0  0
 16 23  1  1  0  0  0
 16 17  1  0  0  0  0
 18 14  1  6  0  0  0
 18 15  1  0  0  0  0
 18 16  1  0  0  0  0
 19 17  1  0  0  0  0
 20 21  1  0  0  0  0
 21 22  1  0  0  0  0
 23 24  1  0  0  0  0
 24 25  1  0  0  0  0
 26 25  1  0  0  0  0
M  END
>  <MODEL>
5

>  <REMARK>
 VINA RESULT:      -5.5      4.267      7.264
  Name = 
  12 active torsions:
  status: ('A' for Active; 'I' for Inactive)
    1  A    between atoms: C_1  and  C_17
    2  A    between atoms: C_1  and  N_23
    3  A    between atoms: C_2  and  C_20
    4  A    between atoms: C_4  and  N_23
    5  A    between atoms: O_7  and  C_20
    6  A    between atoms: C_9  and  C_10
    7  A    between atoms: C_9  and  O_21
    8  A    between atoms: C_10  and  N_12
    9  A    between atoms: C_11  and  C_15
   10  A    between atoms: N_12  and  C_14
   11  A    between atoms: C_14  and  C_18
   12  A    between atoms: O_21  and  C_24
                            x       y       z     vdW  Elec       q    Type
                         _______ _______ _______ _____ _____    ______ ____

>  <TORSDO>
F 12

$$$$
=
 OpenBabel11062417023D

 26 27  0  0  1  0  0  0  0  0999 V2000
  189.4390  177.2110  140.5700 C   0  0  0  0  0  2  0  0  0  0  0  0
  191.7230  177.5210  141.4680 C   0  0  0  0  0  1  0  0  0  0  0  0
  190.3120  177.0750  141.8100 C   0  0  2  0  0  0  0  0  0  0  0  0
  190.3260  175.7350  142.2130 O   0  0  0  0  0  1  0  0  0  0  0  0
  189.7450  177.9350  142.8590 N   0  0  0  0  0  2  0  0  0  0  0  0
  190.4380  176.5640  144.8780 C   0  0  2  0  0  3  0  0  0  0  0  0
  191.5660  176.4000  145.6840 O   0  0  0  0  0  1  0  0  0  0  0  0
  190.4930  177.8870  144.1250 C   0  0  2  0  0  0  0  0  0  0  0  0
  189.6300  177.7560  145.3760 C   0  0  1  0  0  3  0  0  0  0  0  0
  188.1550  177.5130  145.0840 C   0  0  0  0  0  2  0  0  0  0  0  0
  187.3770  178.2040  146.0100 O   0  0  0  0  0  1  0  0  0  0  0  0
  191.3190  180.1270  143.9700 O   0  0  0  0  0  1  0  0  0  0  0  0
  191.6850  178.8230  144.3020 C   0  0  0  0  0  2  0  0  0  0  0  0
  190.2020  177.6220  139.4590 O   0  0  0  0  0  0  0  0  0  0  0  0
  190.3970  176.5560  137.2520 C   0  0  2  0  0  3  0  0  0  0  0  0
  188.9280  178.4630  137.5330 C   0  0  2  0  0  3  0  0  0  0  0  0
  189.0210  178.0660  136.0810 C   0  0  0  0  0  2  0  0  0  0  0  0
  189.5240  177.2790  138.2640 C   0  0  2  0  0  3  0  0  0  0  0  0
  190.1280  177.1260  135.9330 N   0  0  0  0  0  2  0  0  0  0  0  0
  190.0680  175.0750  137.2600 C   0  0  0  0  0  2  0  0  0  0  0  0
  191.0550  174.3720  137.9530 O   0  0  0  0  0  0  0  0  0  0  0  0
  192.2550  174.8600  137.4400 C   0  0  0  0  0  1  0  0  0  0  0  0
  187.5340  178.6470  137.9070 N   0  0  0  0  0  2  0  0  0  0  0  0
  186.7110  177.9370  136.9370 C   0  0  0  0  0  2  0  0  0  0  0  0
  185.4410  177.4200  137.5940 C   0  0  0  0  0  2  0  0  0  0  0  0
  184.8980  178.4390  138.5760 C   0  0  0  0  0  1  0  0  0  0  0  0
  1  3  1  0  0  0  0
  3  2  1  6  0  0  0
  3  4  1  0  0  0  0
  3  5  1  0  0  0  0
  5  8  1  0  0  0  0
  6  9  1  0  0  0  0
  6  7  1  1  0  0  0
  8 13  1  1  0  0  0
  8  6  1  0  0  0  0
  8  9  1  0  0  0  0
  9 10  1  6  0  0  0
 10 11  1  0  0  0  0
 12 13  1  0  0  0  0
 14  1  1  0  0  0  0
 15 20  1  6  0  0  0
 15 18  1  0  0  0  0
 16 23  1  1  0  0  0
 16 18  1  0  0  0  0
 17 16  1  0  0  0  0
 18 14  1  1  0  0  0
 19 17  1  0  0  0  0
 19 15  1  0  0  0  0
 20 21  1  0  0  0  0
 22 21  1  0  0  0  0
 24 25  1  0  0  0  0
 24 23  1  0  0  0  0
 25 26  1  0  0  0  0
M  END
>  <MODEL>
6

>  <REMARK>
 VINA RESULT:      -5.4      3.197      5.572
  Name = 
  12 active torsions:
  status: ('A' for Active; 'I' for Inactive)
    1  A    between atoms: C_1  and  C_17
    2  A    between atoms: C_1  and  N_23
    3  A    between atoms: C_2  and  C_20
    4  A    between atoms: C_4  and  N_23
    5  A    between atoms: O_7  and  C_20
    6  A    between atoms: C_9  and  C_10
    7  A    between atoms: C_9  and  O_21
    8  A    between atoms: C_10  and  N_12
    9  A    between atoms: C_11  and  C_15
   10  A    between atoms: N_12  and  C_14
   11  A    between atoms: C_14  and  C_18
   12  A    between atoms: O_21  and  C_24
                            x       y       z     vdW  Elec       q    Type
                         _______ _______ _______ _____ _____    ______ ____

>  <TORSDO>
F 12

$$$$
=
 OpenBabel11062417023D

 26 27  0  0  1  0  0  0  0  0999 V2000
  188.9830  177.5010  140.5900 C   0  0  0  0  0  2  0  0  0  0  0  0
  191.3280  177.4480  141.3750 C   0  0  0  0  0  1  0  0  0  0  0  0
  189.8880  177.1620  141.7660 C   0  0  2  0  0  0  0  0  0  0  0  0
  189.7430  175.8060  142.0770 O   0  0  0  0  0  1  0  0  0  0  0  0
  189.4910  178.0090  142.9010 N   0  0  0  0  0  2  0  0  0  0  0  0
  190.4530  176.5690  144.7560 C   0  0  2  0  0  3  0  0  0  0  0  0
  191.6810  176.3800  145.3920 O   0  0  0  0  0  1  0  0  0  0  0  0
  190.4060  177.9180  144.0500 C   0  0  2  0  0  0  0  0  0  0  0  0
  189.7240  177.7410  145.4030 C   0  0  1  0  0  3  0  0  0  0  0  0
  188.2220  177.5050  145.3080 C   0  0  0  0  0  2  0  0  0  0  0  0
  187.6810  177.4240  146.5900 O   0  0  0  0  0  1  0  0  0  0  0  0
  191.1940  180.1770  143.9880 O   0  0  0  0  0  1  0  0  0  0  0  0
  191.6130  178.8510  144.0930 C   0  0  0  0  0  2  0  0  0  0  0  0
  188.1600  178.6050  140.8880 O   0  0  0  0  0  0  0  0  0  0  0  0
  186.2650  178.6780  139.3230 C   0  0  2  0  0  3  0  0  0  0  0  0
  185.8550  178.8370  141.7060 C   0  0  2  0  0  3  0  0  0  0  0  0
  184.5830  179.0610  140.9260 C   0  0  0  0  0  2  0  0  0  0  0  0
  186.8040  178.2570  140.6800 C   0  0  2  0  0  3  0  0  0  0  0  0
  184.9340  179.2510  139.5210 N   0  0  0  0  0  2  0  0  0  0  0  0
  186.1840  177.4700  138.4080 C   0  0  0  0  0  2  0  0  0  0  0  0
  185.3250  177.7390  137.3410 O   0  0  0  0  0  0  0  0  0  0  0  0
  185.4160  176.6110  136.5280 C   0  0  0  0  0  1  0  0  0  0  0  0
  185.6140  177.8840  142.7790 N   0  0  0  0  0  2  0  0  0  0  0  0
  184.4540  178.3390  143.5340 C   0  0  0  0  0  2  0  0  0  0  0  0
  184.8850  179.2390  144.6800 C   0  0  0  0  0  2  0  0  0  0  0  0
  184.4990  178.6250  146.0120 C   0  0  0  0  0  1  0  0  0  0  0  0
  1 14  1  0  0  0  0
  1  3  1  0  0  0  0
  3  2  1  6  0  0  0
  3  4  1  0  0  0  0
  3  5  1  0  0  0  0
  5  8  1  0  0  0  0
  6  7  1  1  0  0  0
  6  9  1  0  0  0  0
  8 13  1  6  0  0  0
  8  6  1  0  0  0  0
  8  9  1  0  0  0  0
  9 10  1  6  0  0  0
 10 11  1  0  0  0  0
 12 13  1  0  0  0  0
 15 20  1  6  0  0  0
 15 19  1  0  0  0  0
 15 18  1  0  0  0  0
 16 23  1  1  0  0  0
 17 16  1  0  0  0  0
 18 14  1  1  0  0  0
 18 16  1  0  0  0  0
 19 17  1  0  0  0  0
 21 20  1  0  0  0  0
 22 21  1  0  0  0  0
 23 24  1  0  0  0  0
 24 25  1  0  0  0  0
 25 26  1  0  0  0  0
M  END
>  <MODEL>
7

>  <REMARK>
 VINA RESULT:      -5.4      1.723      4.164
  Name = 
  12 active torsions:
  status: ('A' for Active; 'I' for Inactive)
    1  A    between atoms: C_1  and  C_17
    2  A    between atoms: C_1  and  N_23
    3  A    between atoms: C_2  and  C_20
    4  A    between atoms: C_4  and  N_23
    5  A    between atoms: O_7  and  C_20
    6  A    between atoms: C_9  and  C_10
    7  A    between atoms: C_9  and  O_21
    8  A    between atoms: C_10  and  N_12
    9  A    between atoms: C_11  and  C_15
   10  A    between atoms: N_12  and  C_14
   11  A    between atoms: C_14  and  C_18
   12  A    between atoms: O_21  and  C_24
                            x       y       z     vdW  Elec       q    Type
                         _______ _______ _______ _____ _____    ______ ____

>  <TORSDO>
F 12

$$$$
=
 OpenBabel11062417023D

 26 27  0  0  1  0  0  0  0  0999 V2000
  189.3750  177.1350  140.8160 C   0  0  0  0  0  2  0  0  0  0  0  0
  191.6500  177.3630  141.7610 C   0  0  0  0  0  1  0  0  0  0  0  0
  190.2180  176.9590  142.0720 C   0  0  2  0  0  0  0  0  0  0  0  0
  190.1810  175.6160  142.4620 O   0  0  0  0  0  1  0  0  0  0  0  0
  189.6590  177.8280  143.1170 N   0  0  0  0  0  2  0  0  0  0  0  0
  190.5020  176.6320  145.1900 C   0  0  2  0  0  3  0  0  0  0  0  0
  191.6820  176.5480  145.9320 O   0  0  0  0  0  1  0  0  0  0  0  0
  190.4860  177.8910  144.3330 C   0  0  2  0  0  0  0  0  0  0  0  0
  189.7060  177.8500  145.6430 C   0  0  1  0  0  3  0  0  0  0  0  0
  188.2210  177.5660  145.4660 C   0  0  0  0  0  2  0  0  0  0  0  0
  187.5440  177.8730  146.6460 O   0  0  0  0  0  1  0  0  0  0  0  0
  191.2560  180.1280  143.9690 O   0  0  0  0  0  1  0  0  0  0  0  0
  191.6700  178.8540  144.3580 C   0  0  0  0  0  2  0  0  0  0  0  0
  190.0710  177.8780  139.8420 O   0  0  0  0  0  0  0  0  0  0  0  0
  188.4620  176.8390  138.3000 C   0  0  2  0  0  3  0  0  0  0  0  0
  190.7570  176.0620  138.3360 C   0  0  2  0  0  3  0  0  0  0  0  0
  189.9090  175.1910  137.4410 C   0  0  0  0  0  2  0  0  0  0  0  0
  189.8910  177.2800  138.5710 C   0  0  2  0  0  3  0  0  0  0  0  0
  188.5060  175.5120  137.6870 N   0  0  0  0  0  2  0  0  0  0  0  0
  187.7920  177.8260  137.3620 C   0  0  0  0  0  2  0  0  0  0  0  0
  186.8990  178.6280  138.0750 O   0  0  0  0  0  0  0  0  0  0  0  0
  185.6560  178.0290  137.8740 C   0  0  0  0  0  1  0  0  0  0  0  0
  191.9840  176.4310  137.6450 N   0  0  0  0  0  2  0  0  0  0  0  0
  192.5550  175.2240  137.0640 C   0  0  0  0  0  2  0  0  0  0  0  0
  194.0730  175.2690  137.1250 C   0  0  0  0  0  2  0  0  0  0  0  0
  194.6050  174.1260  137.9680 C   0  0  0  0  0  1  0  0  0  0  0  0
  1  3  1  0  0  0  0
  3  2  1  6  0  0  0
  3  4  1  0  0  0  0
  3  5  1  0  0  0  0
  5  8  1  0  0  0  0
  6  9  1  0  0  0  0
  6  7  1  1  0  0  0
  8 13  1  6  0  0  0
  8  6  1  0  0  0  0
  8  9  1  0  0  0  0
  9 10  1  6  0  0  0
 10 11  1  0  0  0  0
 12 13  1  0  0  0  0
 14  1  1  0  0  0  0
 15 20  1  6  0  0  0
 15 18  1  0  0  0  0
 16 23  1  6  0  0  0
 16 18  1  0  0  0  0
 17 19  1  0  0  0  0
 17 16  1  0  0  0  0
 18 14  1  1  0  0  0
 19 15  1  0  0  0  0
 20 21  1  0  0  0  0
 22 21  1  0  0  0  0
 24 25  1  0  0  0  0
 24 23  1  0  0  0  0
 25 26  1  0  0  0  0
M  END
>  <MODEL>
8

>  <REMARK>
 VINA RESULT:      -5.3      3.607      5.922
  Name = 
  12 active torsions:
  status: ('A' for Active; 'I' for Inactive)
    1  A    between atoms: C_1  and  C_17
    2  A    between atoms: C_1  and  N_23
    3  A    between atoms: C_2  and  C_20
    4  A    between atoms: C_4  and  N_23
    5  A    between atoms: O_7  and  C_20
    6  A    between atoms: C_9  and  C_10
    7  A    between atoms: C_9  and  O_21
    8  A    between atoms: C_10  and  N_12
    9  A    between atoms: C_11  and  C_15
   10  A    between atoms: N_12  and  C_14
   11  A    between atoms: C_14  and  C_18
   12  A    between atoms: O_21  and  C_24
                            x       y       z     vdW  Elec       q    Type
                         _______ _______ _______ _____ _____    ______ ____

>  <TORSDO>
F 12

$$$$
=
 OpenBabel11062417023D

 26 27  0  0  1  0  0  0  0  0999 V2000
  188.0120  177.0280  144.7680 C   0  0  0  0  0  2  0  0  0  0  0  0
  186.6360  177.8130  142.8680 C   0  0  0  0  0  1  0  0  0  0  0  0
  187.9350  177.1220  143.2500 C   0  0  2  0  0  0  0  0  0  0  0  0
  187.9590  175.8310  142.7110 O   0  0  0  0  0  1  0  0  0  0  0  0
  189.0860  177.9090  142.7870 N   0  0  0  0  0  2  0  0  0  0  0  0
  191.0860  177.8560  141.2250 C   0  0  2  0  0  3  0  0  0  0  0  0
  192.3130  177.1970  141.1320 O   0  0  0  0  0  1  0  0  0  0  0  0
  190.1280  177.0980  142.1350 C   0  0  2  0  0  0  0  0  0  0  0  0
  189.9950  176.9800  140.6200 C   0  0  1  0  0  3  0  0  0  0  0  0
  188.9140  177.8720  140.0250 C   0  0  0  0  0  2  0  0  0  0  0  0
  189.4510  178.6220  138.9800 O   0  0  0  0  0  1  0  0  0  0  0  0
  191.2710  176.0940  143.9820 O   0  0  0  0  0  1  0  0  0  0  0  0
  190.5710  175.8040  142.8120 C   0  0  0  0  0  2  0  0  0  0  0  0
  188.8300  178.0460  145.2960 O   0  0  0  0  0  0  0  0  0  0  0  0
  189.6620  176.7600  147.2190 C   0  0  2  0  0  3  0  0  0  0  0  0
  187.4940  177.8350  147.3470 C   0  0  2  0  0  3  0  0  0  0  0  0
  187.7390  176.9750  148.5620 C   0  0  0  0  0  2  0  0  0  0  0  0
  188.8610  177.9460  146.7070 C   0  0  2  0  0  3  0  0  0  0  0  0
  188.9020  176.1320  148.2990 N   0  0  0  0  0  2  0  0  0  0  0  0
  191.0070  177.2360  147.7350 C   0  0  0  0  0  2  0  0  0  0  0  0
  192.0330  176.6990  146.9550 O   0  0  0  0  0  0  0  0  0  0  0  0
  192.5280  175.6390  147.7120 C   0  0  0  0  0  1  0  0  0  0  0  0
  187.0130  179.1460  147.7590 N   0  0  0  0  0  2  0  0  0  0  0  0
  185.9360  179.5340  146.8580 C   0  0  0  0  0  2  0  0  0  0  0  0
  185.0610  178.3360  146.5270 C   0  0  0  0  0  2  0  0  0  0  0  0
  184.1030  178.6720  145.4000 C   0  0  0  0  0  1  0  0  0  0  0  0
  1 14  1  0  0  0  0
  3  2  1  6  0  0  0
  3  1  1  0  0  0  0
  4  3  1  0  0  0  0
  5  3  1  0  0  0  0
  6  7  1  1  0  0  0
  6  8  1  0  0  0  0
  8  5  1  0  0  0  0
  8 13  1  1  0  0  0
  9 10  1  6  0  0  0
  9  6  1  0  0  0  0
  9  8  1  0  0  0  0
 11 10  1  0  0  0  0
 13 12  1  0  0  0  0
 15 20  1  1  0  0  0
 15 19  1  0  0  0  0
 16 23  1  1  0  0  0
 16 17  1  0  0  0  0
 18 14  1  6  0  0  0
 18 15  1  0  0  0  0
 18 16  1  0  0  0  0
 19 17  1  0  0  0  0
 21 22  1  0  0  0  0
 21 20  1  0  0  0  0
 24 23  1  0  0  0  0
 25 24  1  0  0  0  0
 26 25  1  0  0  0  0
M  END
>  <MODEL>
9

>  <REMARK>
 VINA RESULT:      -5.2      2.959      6.059
  Name = 
  12 active torsions:
  status: ('A' for Active; 'I' for Inactive)
    1  A    between atoms: C_1  and  C_17
    2  A    between atoms: C_1  and  N_23
    3  A    between atoms: C_2  and  C_20
    4  A    between atoms: C_4  and  N_23
    5  A    between atoms: O_7  and  C_20
    6  A    between atoms: C_9  and  C_10
    7  A    between atoms: C_9  and  O_21
    8  A    between atoms: C_10  and  N_12
    9  A    between atoms: C_11  and  C_15
   10  A    between atoms: N_12  and  C_14
   11  A    between atoms: C_14  and  C_18
   12  A    between atoms: O_21  and  C_24
                            x       y       z     vdW  Elec       q    Type
                         _______ _______ _______ _____ _____    ______ ____

>  <TORSDO>
F 12

$$$$
