=
 OpenBabel11062414313D

 31 35  0  0  1  0  0  0  0  0999 V2000
  188.1330  177.6920  143.3840 C   0  0  0  0  0  0  0  0  0  0  0  0
  190.0160  177.0610  147.5410 N   0  0  0  0  0  0  0  0  0  0  0  0
  184.5380  178.6020  144.4920 C   0  0  0  0  0  3  0  0  0  0  0  0
  183.8760  179.1580  141.0260 C   0  0  0  0  0  3  0  0  0  0  0  0
  185.7290  178.2350  143.6980 N   0  0  0  0  0  0  0  0  0  0  0  0
  191.8170  176.6010  145.8600 C   0  0  0  0  0  1  0  0  0  0  0  0
  187.8560  177.6350  148.6780 C   0  0  0  0  0  1  0  0  0  0  0  0
  185.0880  178.9910  140.3400 C   0  0  0  0  0  3  0  0  0  0  0  0
  186.9680  177.9650  144.2000 C   0  0  0  0  0  0  0  0  0  0  0  0
  187.0930  177.9070  145.6090 C   0  0  0  0  0  3  0  0  0  0  0  0
  189.3440  177.3370  144.0110 C   0  0  0  0  0  3  0  0  0  0  0  0
  187.3830  178.1730  140.9660 C   0  0  0  0  0  0  0  0  0  0  0  0
  188.2610  177.8040  141.9910 C   0  0  0  0  0  3  0  0  0  0  0  0
  189.3980  177.2770  145.3960 C   0  0  0  0  0  0  0  0  0  0  0  0
  190.4310  176.9730  146.2550 C   0  0  0  0  0  0  0  0  0  0  0  0
  188.3160  177.5640  146.1670 C   0  0  0  0  0  0  0  0  0  0  0  0
  185.3310  178.2080  142.4270 C   0  0  0  0  0  0  0  0  0  0  0  0
  183.4880  178.9490  143.5180 N   0  0  0  0  0  0  0  0  0  0  0  0
  184.0820  178.6230  142.2780 C   0  0  0  0  0  0  0  0  0  0  0  0
  186.0350  178.4310  141.2060 C   0  0  0  0  0  0  0  0  0  0  0  0
  188.7120  177.4260  147.4790 C   0  0  0  0  0  0  0  0  0  0  0  0
  187.4280  177.5250  138.5100 N   0  0  0  0  0  2  0  0  0  0  0  0
  187.9630  178.2820  139.6010 C   0  0  0  0  0  0  0  0  0  0  0  0
  188.9530  179.0400  139.4020 O   0  0  0  0  0  0  0  0  0  0  0  0
  187.9870  177.5710  137.1670 C   0  0  2  0  0  3  0  0  0  0  0  0
  186.8590  177.7120  136.1640 C   0  0  0  0  0  1  0  0  0  0  0  0
  188.7650  176.2950  136.8900 C   0  0  0  0  0  2  0  0  0  0  0  0
  190.1250  176.4650  137.2620 O   0  0  0  0  0  0  0  0  0  0  0  0
  190.6200  176.0630  139.4630 O   0  0  0  0  0  1  0  0  0  0  0  0
  191.3790  174.5150  137.9550 O   0  0  0  0  0  0  0  0  0  0  0  0
  190.7050  175.6930  138.2640 C   0  0  0  0  0  0  0  0  0  0  0  0
  1 11  1  0  0  0  0
  1  9  1  0  0  0  0
  4 19  1  0  0  0  0
  5  9  1  0  0  0  0
  5  3  1  0  0  0  0
  6 15  1  0  0  0  0
  8  4  2  0  0  0  0
  8 20  1  0  0  0  0
  9 10  2  0  0  0  0
 10 16  1  0  0  0  0
 11 14  2  0  0  0  0
 12 20  2  0  0  0  0
 12 13  1  0  0  0  0
 13  1  2  0  0  0  0
 14 16  1  0  0  0  0
 14 15  1  0  0  0  0
 15  2  2  0  0  0  0
 16 21  2  0  0  0  0
 17  5  1  0  0  0  0
 18  3  2  0  0  0  0
 19 17  2  0  0  0  0
 19 18  1  0  0  0  0
 20 17  1  0  0  0  0
 21  2  1  0  0  0  0
 21  7  1  0  0  0  0
 22 23  1  0  0  0  0
 23 12  1  0  0  0  0
 24 23  2  0  0  0  0
 25 26  1  6  0  0  0
 25 22  1  0  0  0  0
 27 25  1  0  0  0  0
 27 28  1  0  0  0  0
 28 31  1  0  0  0  0
 30 31  2  0  0  0  0
 31 29  1  0  0  0  0
M  END
>  <MODEL>
1

>  <REMARK>
 VINA RESULT:      -9.7      0.000      0.000
  Name = 
  5 active torsions:
  status: ('A' for Active; 'I' for Inactive)
    1  A    between atoms: C_2  and  N_6
    2  A    between atoms: C_2  and  C_23
    3  A    between atoms: C_13  and  C_18
    4  A    between atoms: C_23  and  O_31
    5  A    between atoms: C_24  and  O_31
                            x       y       z     vdW  Elec       q    Type
                         _______ _______ _______ _____ _____    ______ ____

>  <TORSDO>
F 5

$$$$
=
 OpenBabel11062414313D

 31 35  0  0  1  0  0  0  0  0999 V2000
  185.2190  178.1680  142.8090 C   0  0  0  0  0  0  0  0  0  0  0  0
  180.9410  179.1120  141.3810 N   0  0  0  0  0  0  0  0  0  0  0  0
  184.6930  178.6450  146.6140 C   0  0  0  0  0  3  0  0  0  0  0  0
  188.0780  177.5580  146.9660 C   0  0  0  0  0  3  0  0  0  0  0  0
  185.2910  178.4530  145.2760 N   0  0  0  0  0  0  0  0  0  0  0  0
  182.2930  178.6260  139.3270 C   0  0  0  0  0  1  0  0  0  0  0  0
  180.1660  179.4780  143.7380 C   0  0  0  0  0  1  0  0  0  0  0  0
  188.5340  177.1990  145.6890 C   0  0  0  0  0  3  0  0  0  0  0  0
  184.6110  178.4440  144.0940 C   0  0  0  0  0  0  0  0  0  0  0  0
  183.2350  178.7730  144.1410 C   0  0  0  0  0  3  0  0  0  0  0  0
  184.4360  178.2730  141.6410 C   0  0  0  0  0  3  0  0  0  0  0  0
  187.6200  177.4090  143.3550 C   0  0  0  0  0  0  0  0  0  0  0  0
  186.5210  177.7160  142.5450 C   0  0  0  0  0  3  0  0  0  0  0  0
  183.0980  178.6200  141.7510 C   0  0  0  0  0  0  0  0  0  0  0  0
  182.1180  178.7840  140.7970 C   0  0  0  0  0  0  0  0  0  0  0  0
  182.5150  178.8490  142.9570 C   0  0  0  0  0  0  0  0  0  0  0  0
  186.6010  178.3150  145.4740 C   0  0  0  0  0  0  0  0  0  0  0  0
  185.7810  178.4220  147.5830 N   0  0  0  0  0  0  0  0  0  0  0  0
  186.9180  178.2720  146.7580 C   0  0  0  0  0  0  0  0  0  0  0  0
  187.6060  177.6260  144.7310 C   0  0  0  0  0  0  0  0  0  0  0  0
  181.1940  179.1500  142.7120 C   0  0  0  0  0  0  0  0  0  0  0  0
  189.5010  177.5610  141.6550 N   0  0  0  0  0  2  0  0  0  0  0  0
  188.8080  176.8310  142.6720 C   0  0  0  0  0  0  0  0  0  0  0  0
  189.2030  175.6720  142.9810 O   0  0  0  0  0  0  0  0  0  0  0  0
  190.6430  177.0200  140.9330 C   0  0  2  0  0  3  0  0  0  0  0  0
  191.9210  177.5300  141.5710 C   0  0  0  0  0  1  0  0  0  0  0  0
  190.5870  177.4560  139.4780 C   0  0  0  0  0  2  0  0  0  0  0  0
  189.2730  177.2800  138.9700 O   0  0  0  0  0  0  0  0  0  0  0  0
  187.2970  178.4390  139.0480 O   0  0  0  0  0  1  0  0  0  0  0  0
  188.9740  179.3790  137.8040 O   0  0  0  0  0  0  0  0  0  0  0  0
  188.4770  178.3680  138.6210 C   0  0  0  0  0  0  0  0  0  0  0  0
  1  9  1  0  0  0  0
  2 21  1  0  0  0  0
  3 18  2  0  0  0  0
  5 17  1  0  0  0  0
  5  3  1  0  0  0  0
  6 15  1  0  0  0  0
  8  4  2  0  0  0  0
  9 10  2  0  0  0  0
  9  5  1  0  0  0  0
 11 14  2  0  0  0  0
 11  1  1  0  0  0  0
 12 20  2  0  0  0  0
 13  1  2  0  0  0  0
 13 12  1  0  0  0  0
 14 16  1  0  0  0  0
 15  2  2  0  0  0  0
 15 14  1  0  0  0  0
 16 10  1  0  0  0  0
 17 19  2  0  0  0  0
 19  4  1  0  0  0  0
 19 18  1  0  0  0  0
 20 17  1  0  0  0  0
 20  8  1  0  0  0  0
 21 16  2  0  0  0  0
 21  7  1  0  0  0  0
 22 23  1  0  0  0  0
 23 24  2  0  0  0  0
 23 12  1  0  0  0  0
 25 26  1  1  0  0  0
 25 22  1  0  0  0  0
 27 25  1  0  0  0  0
 28 27  1  0  0  0  0
 30 31  2  0  0  0  0
 31 28  1  0  0  0  0
 31 29  1  0  0  0  0
M  END
>  <MODEL>
2

>  <REMARK>
 VINA RESULT:      -9.6      2.184      5.933
  Name = 
  5 active torsions:
  status: ('A' for Active; 'I' for Inactive)
    1  A    between atoms: C_2  and  N_6
    2  A    between atoms: C_2  and  C_23
    3  A    between atoms: C_13  and  C_18
    4  A    between atoms: C_23  and  O_31
    5  A    between atoms: C_24  and  O_31
                            x       y       z     vdW  Elec       q    Type
                         _______ _______ _______ _____ _____    ______ ____

>  <TORSDO>
F 5

$$$$
=
 OpenBabel11062414313D

 31 35  0  0  1  0  0  0  0  0999 V2000
  187.5260  177.8370  143.1540 C   0  0  0  0  0  0  0  0  0  0  0  0
  191.4620  176.8440  145.3330 N   0  0  0  0  0  0  0  0  0  0  0  0
  185.2570  178.3760  146.2440 C   0  0  0  0  0  3  0  0  0  0  0  0
  182.7150  179.2920  143.9070 C   0  0  0  0  0  3  0  0  0  0  0  0
  185.7600  178.1820  144.8670 N   0  0  0  0  0  0  0  0  0  0  0  0
  191.9450  176.7030  142.8780 C   0  0  0  0  0  1  0  0  0  0  0  0
  190.3730  177.1400  147.5720 C   0  0  0  0  0  1  0  0  0  0  0  0
  183.3000  179.2850  142.6330 C   0  0  0  0  0  3  0  0  0  0  0  0
  187.0550  177.9360  144.5200 C   0  0  0  0  0  0  0  0  0  0  0  0
  187.9750  177.7210  145.5750 C   0  0  0  0  0  3  0  0  0  0  0  0
  188.8710  177.4900  142.9130 C   0  0  0  0  0  3  0  0  0  0  0  0
  185.5190  178.5490  141.7040 C   0  0  0  0  0  0  0  0  0  0  0  0
  186.8230  178.1200  141.9730 C   0  0  0  0  0  3  0  0  0  0  0  0
  189.7170  177.2710  143.9900 C   0  0  0  0  0  0  0  0  0  0  0  0
  191.0520  176.9350  144.0450 C   0  0  0  0  0  0  0  0  0  0  0  0
  189.2890  177.3950  145.2730 C   0  0  0  0  0  0  0  0  0  0  0  0
  184.6970  178.2800  144.0700 C   0  0  0  0  0  0  0  0  0  0  0  0
  183.8420  178.7660  146.1110 N   0  0  0  0  0  0  0  0  0  0  0  0
  183.6010  178.6270  144.7260 C   0  0  0  0  0  0  0  0  0  0  0  0
  184.5660  178.6900  142.7090 C   0  0  0  0  0  0  0  0  0  0  0  0
  190.3710  177.1280  146.0840 C   0  0  0  0  0  0  0  0  0  0  0  0
  185.6320  177.9910  139.2280 N   0  0  0  0  0  2  0  0  0  0  0  0
  185.2010  178.8560  140.2840 C   0  0  0  0  0  0  0  0  0  0  0  0
  184.5550  179.9030  140.0010 O   0  0  0  0  0  0  0  0  0  0  0  0
  185.3770  178.2710  137.8230 C   0  0  2  0  0  3  0  0  0  0  0  0
  184.1680  177.4750  137.3690 C   0  0  0  0  0  1  0  0  0  0  0  0
  186.5880  177.8820  136.9920 C   0  0  0  0  0  2  0  0  0  0  0  0
  187.6010  178.8700  137.1190 O   0  0  0  0  0  0  0  0  0  0  0  0
  189.7220  178.0070  137.2020 O   0  0  0  0  0  0  0  0  0  0  0  0
  188.9590  179.0030  139.1170 O   0  0  0  0  0  1  0  0  0  0  0  0
  188.7900  178.6080  137.7940 C   0  0  0  0  0  0  0  0  0  0  0  0
  1  9  1  0  0  0  0
  2 21  1  0  0  0  0
  4 19  1  0  0  0  0
  5  3  1  0  0  0  0
  6 15  1  0  0  0  0
  8 20  1  0  0  0  0
  8  4  2  0  0  0  0
  9  5  1  0  0  0  0
  9 10  2  0  0  0  0
 11  1  1  0  0  0  0
 11 14  2  0  0  0  0
 12 13  1  0  0  0  0
 12 20  2  0  0  0  0
 13  1  2  0  0  0  0
 14 15  1  0  0  0  0
 14 16  1  0  0  0  0
 15  2  2  0  0  0  0
 16 10  1  0  0  0  0
 16 21  2  0  0  0  0
 17 19  2  0  0  0  0
 17  5  1  0  0  0  0
 18  3  2  0  0  0  0
 19 18  1  0  0  0  0
 20 17  1  0  0  0  0
 21  7  1  0  0  0  0
 22 23  1  0  0  0  0
 23 12  1  0  0  0  0
 24 23  2  0  0  0  0
 25 26  1  6  0  0  0
 25 22  1  0  0  0  0
 27 28  1  0  0  0  0
 27 25  1  0  0  0  0
 28 31  1  0  0  0  0
 29 31  2  0  0  0  0
 31 30  1  0  0  0  0
M  END
>  <MODEL>
3

>  <REMARK>
 VINA RESULT:      -9.4      1.748      2.596
  Name = 
  5 active torsions:
  status: ('A' for Active; 'I' for Inactive)
    1  A    between atoms: C_2  and  N_6
    2  A    between atoms: C_2  and  C_23
    3  A    between atoms: C_13  and  C_18
    4  A    between atoms: C_23  and  O_31
    5  A    between atoms: C_24  and  O_31
                            x       y       z     vdW  Elec       q    Type
                         _______ _______ _______ _____ _____    ______ ____

>  <TORSDO>
F 5

$$$$
=
 OpenBabel11062414313D

 31 35  0  0  1  0  0  0  0  0999 V2000
  190.5040  177.0310  142.8100 C   0  0  0  0  0  0  0  0  0  0  0  0
  189.7270  177.0480  147.3520 N   0  0  0  0  0  0  0  0  0  0  0  0
  187.1120  178.4670  141.6220 C   0  0  0  0  0  3  0  0  0  0  0  0
  188.5160  178.3980  138.3380 C   0  0  0  0  0  3  0  0  0  0  0  0
  188.4520  177.8440  141.6710 N   0  0  0  0  0  0  0  0  0  0  0  0
  192.0260  176.1060  147.0200 C   0  0  0  0  0  1  0  0  0  0  0  0
  187.4430  178.0290  147.0220 C   0  0  0  0  0  1  0  0  0  0  0  0
  189.8510  177.9890  138.4650 C   0  0  0  0  0  3  0  0  0  0  0  0
  189.1580  177.5630  142.8040 C   0  0  0  0  0  0  0  0  0  0  0  0
  188.5000  177.7690  144.0410 C   0  0  0  0  0  3  0  0  0  0  0  0
  191.1050  176.6940  144.0410 C   0  0  0  0  0  3  0  0  0  0  0  0
  191.2620  177.1000  140.3490 C   0  0  0  0  0  0  0  0  0  0  0  0
  191.3730  176.8580  141.7220 C   0  0  0  0  0  3  0  0  0  0  0  0
  190.4000  176.9000  145.2180 C   0  0  0  0  0  0  0  0  0  0  0  0
  190.7390  176.6740  146.5330 C   0  0  0  0  0  0  0  0  0  0  0  0
  189.1490  177.4290  145.2180 C   0  0  0  0  0  0  0  0  0  0  0  0
  188.7950  177.6080  140.4060 C   0  0  0  0  0  0  0  0  0  0  0  0
  186.8280  178.7140  140.1970 N   0  0  0  0  0  0  0  0  0  0  0  0
  187.9200  178.0990  139.5430 C   0  0  0  0  0  0  0  0  0  0  0  0
  190.0690  177.5240  139.7680 C   0  0  0  0  0  0  0  0  0  0  0  0
  188.7510  177.5120  146.5350 C   0  0  0  0  0  0  0  0  0  0  0  0
  192.5030  175.9490  138.4550 N   0  0  0  0  0  2  0  0  0  0  0  0
  192.4890  176.8880  139.5350 C   0  0  0  0  0  0  0  0  0  0  0  0
  193.5400  177.5320  139.8100 O   0  0  0  0  0  0  0  0  0  0  0  0
  193.6910  175.6820  137.6570 C   0  0  2  0  0  3  0  0  0  0  0  0
  193.4800  176.2210  136.2560 C   0  0  0  0  0  1  0  0  0  0  0  0
  193.9440  174.1840  137.5970 C   0  0  0  0  0  2  0  0  0  0  0  0
  194.8540  173.8050  138.6190 O   0  0  0  0  0  0  0  0  0  0  0  0
  195.9490  175.1770  140.0920 O   0  0  0  0  0  1  0  0  0  0  0  0
  196.9920  174.8070  138.0880 O   0  0  0  0  0  0  0  0  0  0  0  0
  195.9320  174.6140  138.9680 C   0  0  0  0  0  0  0  0  0  0  0  0
  1 11  1  0  0  0  0
  3  5  1  0  0  0  0
  4  8  2  0  0  0  0
  4 19  1  0  0  0  0
  5  9  1  0  0  0  0
  8 20  1  0  0  0  0
  9  1  1  0  0  0  0
  9 10  2  0  0  0  0
 10 16  1  0  0  0  0
 11 14  2  0  0  0  0
 12 13  1  0  0  0  0
 13  1  2  0  0  0  0
 14 15  1  0  0  0  0
 15  6  1  0  0  0  0
 15  2  2  0  0  0  0
 16 14  1  0  0  0  0
 16 21  2  0  0  0  0
 17  5  1  0  0  0  0
 18  3  2  0  0  0  0
 19 18  1  0  0  0  0
 19 17  2  0  0  0  0
 20 12  2  0  0  0  0
 20 17  1  0  0  0  0
 21  7  1  0  0  0  0
 21  2  1  0  0  0  0
 22 23  1  0  0  0  0
 23 24  2  0  0  0  0
 23 12  1  0  0  0  0
 25 26  1  6  0  0  0
 25 22  1  0  0  0  0
 27 25  1  0  0  0  0
 27 28  1  0  0  0  0
 28 31  1  0  0  0  0
 30 31  2  0  0  0  0
 31 29  1  0  0  0  0
M  END
>  <MODEL>
4

>  <REMARK>
 VINA RESULT:      -9.4      2.778      4.137
  Name = 
  5 active torsions:
  status: ('A' for Active; 'I' for Inactive)
    1  A    between atoms: C_2  and  N_6
    2  A    between atoms: C_2  and  C_23
    3  A    between atoms: C_13  and  C_18
    4  A    between atoms: C_23  and  O_31
    5  A    between atoms: C_24  and  O_31
                            x       y       z     vdW  Elec       q    Type
                         _______ _______ _______ _____ _____    ______ ____

>  <TORSDO>
F 5

$$$$
=
 OpenBabel11062414313D

 31 35  0  0  1  0  0  0  0  0999 V2000
  187.6700  177.6300  143.4460 C   0  0  0  0  0  0  0  0  0  0  0  0
  191.8930  176.5430  144.9340 N   0  0  0  0  0  0  0  0  0  0  0  0
  185.9630  178.2060  146.8720 C   0  0  0  0  0  3  0  0  0  0  0  0
  183.0870  179.1860  144.9940 C   0  0  0  0  0  3  0  0  0  0  0  0
  186.2240  178.0070  145.4310 N   0  0  0  0  0  0  0  0  0  0  0  0
  191.9550  176.4010  142.4320 C   0  0  0  0  0  1  0  0  0  0  0  0
  191.2010  176.8530  147.3240 C   0  0  0  0  0  1  0  0  0  0  0  0
  183.4500  179.1720  143.6400 C   0  0  0  0  0  3  0  0  0  0  0  0
  187.4370  177.7340  144.8710 C   0  0  0  0  0  0  0  0  0  0  0  0
  188.5160  177.4940  145.7570 C   0  0  0  0  0  3  0  0  0  0  0  0
  188.9480  177.2550  142.9830 C   0  0  0  0  0  3  0  0  0  0  0  0
  185.4650  178.3920  142.3520 C   0  0  0  0  0  0  0  0  0  0  0  0
  186.7860  177.9330  142.3990 C   0  0  0  0  0  3  0  0  0  0  0  0
  189.9580  177.0130  143.9020 C   0  0  0  0  0  0  0  0  0  0  0  0
  191.2750  176.6480  143.7330 C   0  0  0  0  0  0  0  0  0  0  0  0
  189.7530  177.1410  145.2390 C   0  0  0  0  0  0  0  0  0  0  0  0
  185.0460  178.1310  144.8220 C   0  0  0  0  0  0  0  0  0  0  0  0
  184.5550  178.6280  146.9780 N   0  0  0  0  0  0  0  0  0  0  0  0
  184.0830  178.4990  145.6530 C   0  0  0  0  0  0  0  0  0  0  0  0
  184.6970  178.5490  143.5030 C   0  0  0  0  0  0  0  0  0  0  0  0
  190.9490  176.8480  145.8570 C   0  0  0  0  0  0  0  0  0  0  0  0
  183.9760  177.8440  140.3680 N   0  0  0  0  0  2  0  0  0  0  0  0
  184.9200  178.7110  141.0050 C   0  0  0  0  0  0  0  0  0  0  0  0
  185.3070  179.7530  140.4060 O   0  0  0  0  0  0  0  0  0  0  0  0
  183.4460  178.0960  139.0360 C   0  0  2  0  0  3  0  0  0  0  0  0
  181.9520  177.8400  139.0400 C   0  0  0  0  0  1  0  0  0  0  0  0
  184.1210  177.1780  138.0310 C   0  0  0  0  0  2  0  0  0  0  0  0
  185.1060  177.8980  137.3020 O   0  0  0  0  0  0  0  0  0  0  0  0
  187.1720  178.6280  137.9720 O   0  0  0  0  0  1  0  0  0  0  0  0
  187.0510  176.4610  137.2420 O   0  0  0  0  0  0  0  0  0  0  0  0
  186.4650  177.6910  137.5200 C   0  0  0  0  0  0  0  0  0  0  0  0
  1  9  1  0  0  0  0
  2 21  1  0  0  0  0
  3 18  2  0  0  0  0
  4 19  1  0  0  0  0
  5  3  1  0  0  0  0
  6 15  1  0  0  0  0
  8  4  2  0  0  0  0
  9  5  1  0  0  0  0
  9 10  2  0  0  0  0
 11  1  1  0  0  0  0
 11 14  2  0  0  0  0
 12 13  1  0  0  0  0
 12 20  2  0  0  0  0
 13  1  2  0  0  0  0
 14 16  1  0  0  0  0
 15 14  1  0  0  0  0
 15  2  2  0  0  0  0
 16 10  1  0  0  0  0
 16 21  2  0  0  0  0
 17  5  1  0  0  0  0
 17 19  2  0  0  0  0
 19 18  1  0  0  0  0
 20  8  1  0  0  0  0
 20 17  1  0  0  0  0
 21  7  1  0  0  0  0
 22 23  1  0  0  0  0
 23 12  1  0  0  0  0
 24 23  2  0  0  0  0
 25 26  1  1  0  0  0
 25 22  1  0  0  0  0
 27 25  1  0  0  0  0
 28 31  1  0  0  0  0
 28 27  1  0  0  0  0
 30 31  2  0  0  0  0
 31 29  1  0  0  0  0
M  END
>  <MODEL>
5

>  <REMARK>
 VINA RESULT:      -9.2      2.263      3.424
  Name = 
  5 active torsions:
  status: ('A' for Active; 'I' for Inactive)
    1  A    between atoms: C_2  and  N_6
    2  A    between atoms: C_2  and  C_23
    3  A    between atoms: C_13  and  C_18
    4  A    between atoms: C_23  and  O_31
    5  A    between atoms: C_24  and  O_31
                            x       y       z     vdW  Elec       q    Type
                         _______ _______ _______ _____ _____    ______ ____

>  <TORSDO>
F 5

$$$$
=
 OpenBabel11062414313D

 31 35  0  0  1  0  0  0  0  0999 V2000
  186.4260  178.1780  144.4810 C   0  0  0  0  0  0  0  0  0  0  0  0
  189.9180  177.0770  147.2780 N   0  0  0  0  0  0  0  0  0  0  0  0
  188.2900  177.9750  141.0950 C   0  0  0  0  0  3  0  0  0  0  0  0
  185.1160  178.6250  139.5910 C   0  0  0  0  0  3  0  0  0  0  0  0
  187.2860  178.2240  142.1510 N   0  0  0  0  0  0  0  0  0  0  0  0
  187.9300  177.5030  148.7440 C   0  0  0  0  0  1  0  0  0  0  0  0
  191.4730  176.7960  145.3310 C   0  0  0  0  0  1  0  0  0  0  0  0
  184.1660  178.6530  140.6220 C   0  0  0  0  0  3  0  0  0  0  0  0
  187.4620  178.0020  143.4850 C   0  0  0  0  0  0  0  0  0  0  0  0
  188.7580  177.6210  143.9090 C   0  0  0  0  0  3  0  0  0  0  0  0
  186.7450  178.0050  145.8430 C   0  0  0  0  0  3  0  0  0  0  0  0
  184.2740  178.6210  143.1350 C   0  0  0  0  0  0  0  0  0  0  0  0
  185.0620  178.4370  144.2770 C   0  0  0  0  0  3  0  0  0  0  0  0
  188.0390  177.6520  146.1970 C   0  0  0  0  0  0  0  0  0  0  0  0
  188.6150  177.4140  147.4250 C   0  0  0  0  0  0  0  0  0  0  0  0
  189.0060  177.4540  145.2640 C   0  0  0  0  0  0  0  0  0  0  0  0
  186.2140  178.7160  141.5320 C   0  0  0  0  0  0  0  0  0  0  0  0
  187.6020  178.2100  139.8130 N   0  0  0  0  0  0  0  0  0  0  0  0
  186.3420  178.7070  140.2140 C   0  0  0  0  0  0  0  0  0  0  0  0
  184.8260  178.6710  141.8570 C   0  0  0  0  0  0  0  0  0  0  0  0
  190.1520  177.1030  145.9440 C   0  0  0  0  0  0  0  0  0  0  0  0
  181.9220  179.0180  142.2610 N   0  0  0  0  0  2  0  0  0  0  0  0
  182.8090  178.7550  143.3540 C   0  0  0  0  0  0  0  0  0  0  0  0
  182.3400  178.6540  144.5220 O   0  0  0  0  0  0  0  0  0  0  0  0
  180.4870  179.1950  142.4330 C   0  0  2  0  0  3  0  0  0  0  0  0
  179.8010  177.8500  142.2980 C   0  0  0  0  0  1  0  0  0  0  0  0
  179.9570  180.1510  141.3770 C   0  0  0  0  0  2  0  0  0  0  0  0
  180.5650  179.8760  140.1240 O   0  0  0  0  0  0  0  0  0  0  0  0
  181.9240  180.8170  138.5360 O   0  0  0  0  0  0  0  0  0  0  0  0
  180.0460  182.0030  139.0930 O   0  0  0  0  0  1  0  0  0  0  0  0
  180.8780  180.8960  139.2300 C   0  0  0  0  0  0  0  0  0  0  0  0
  1 11  1  0  0  0  0
  2 15  2  0  0  0  0
  3  5  1  0  0  0  0
  4 19  1  0  0  0  0
  4  8  2  0  0  0  0
  5  9  1  0  0  0  0
  7 21  1  0  0  0  0
  8 20  1  0  0  0  0
  9 10  2  0  0  0  0
  9  1  1  0  0  0  0
 10 16  1  0  0  0  0
 11 14  2  0  0  0  0
 12 23  1  0  0  0  0
 12 13  1  0  0  0  0
 13  1  2  0  0  0  0
 14 15  1  0  0  0  0
 15  6  1  0  0  0  0
 16 21  2  0  0  0  0
 16 14  1  0  0  0  0
 17 20  1  0  0  0  0
 17  5  1  0  0  0  0
 18 19  1  0  0  0  0
 18  3  2  0  0  0  0
 19 17  2  0  0  0  0
 20 12  2  0  0  0  0
 21  2  1  0  0  0  0
 22 25  1  0  0  0  0
 22 23  1  0  0  0  0
 23 24  2  0  0  0  0
 25 26  1  6  0  0  0
 27 25  1  0  0  0  0
 28 27  1  0  0  0  0
 29 31  2  0  0  0  0
 30 31  1  0  0  0  0
 31 28  1  0  0  0  0
M  END
>  <MODEL>
6

>  <REMARK>
 VINA RESULT:      -9.1      3.850      6.116
  Name = 
  5 active torsions:
  status: ('A' for Active; 'I' for Inactive)
    1  A    between atoms: C_2  and  N_6
    2  A    between atoms: C_2  and  C_23
    3  A    between atoms: C_13  and  C_18
    4  A    between atoms: C_23  and  O_31
    5  A    between atoms: C_24  and  O_31
                            x       y       z     vdW  Elec       q    Type
                         _______ _______ _______ _____ _____    ______ ____

>  <TORSDO>
F 5

$$$$
=
 OpenBabel11062414313D

 31 35  0  0  1  0  0  0  0  0999 V2000
  187.4370  178.0220  142.5680 C   0  0  0  0  0  0  0  0  0  0  0  0
  182.9560  178.9940  142.1170 N   0  0  0  0  0  0  0  0  0  0  0  0
  188.3890  177.8560  138.8200 C   0  0  0  0  0  3  0  0  0  0  0  0
  191.7460  177.3850  139.9490 C   0  0  0  0  0  3  0  0  0  0  0  0
  188.4040  177.7590  140.2950 N   0  0  0  0  0  0  0  0  0  0  0  0
  183.4110  178.8300  144.5760 C   0  0  0  0  0  1  0  0  0  0  0  0
  183.1480  179.0220  139.6170 C   0  0  0  0  0  1  0  0  0  0  0  0
  191.7340  177.5000  141.3470 C   0  0  0  0  0  3  0  0  0  0  0  0
  187.3590  178.0470  141.1220 C   0  0  0  0  0  0  0  0  0  0  0  0
  186.1160  178.3430  140.5110 C   0  0  0  0  0  3  0  0  0  0  0  0
  186.2690  178.2500  143.3240 C   0  0  0  0  0  3  0  0  0  0  0  0
  189.9350  177.6790  143.0970 C   0  0  0  0  0  0  0  0  0  0  0  0
  188.5760  177.8660  143.3720 C   0  0  0  0  0  3  0  0  0  0  0  0
  185.0770  178.5140  142.6660 C   0  0  0  0  0  0  0  0  0  0  0  0
  183.8120  178.7780  143.1440 C   0  0  0  0  0  0  0  0  0  0  0  0
  185.0060  178.5710  141.3100 C   0  0  0  0  0  0  0  0  0  0  0  0
  189.6190  177.3220  140.6230 C   0  0  0  0  0  0  0  0  0  0  0  0
  189.7720  177.6010  138.3790 N   0  0  0  0  0  0  0  0  0  0  0  0
  190.4270  177.2380  139.5780 C   0  0  0  0  0  0  0  0  0  0  0  0
  190.4080  177.5030  141.7980 C   0  0  0  0  0  0  0  0  0  0  0  0
  183.6990  178.8660  140.9910 C   0  0  0  0  0  0  0  0  0  0  0  0
  190.8260  176.6270  145.2310 N   0  0  0  0  0  2  0  0  0  0  0  0
  190.8570  177.6820  144.2640 C   0  0  0  0  0  0  0  0  0  0  0  0
  191.6680  178.6380  144.4160 O   0  0  0  0  0  0  0  0  0  0  0  0
  191.6810  176.6090  146.4080 C   0  0  2  0  0  3  0  0  0  0  0  0
  192.3430  175.2500  146.5200 C   0  0  0  0  0  1  0  0  0  0  0  0
  190.8510  176.8800  147.6520 C   0  0  0  0  0  2  0  0  0  0  0  0
  189.4790  176.6350  147.3820 O   0  0  0  0  0  0  0  0  0  0  0  0
  187.6990  177.9060  146.6960 O   0  0  0  0  0  0  0  0  0  0  0  0
  188.4260  178.2550  148.8390 O   0  0  0  0  0  1  0  0  0  0  0  0
  188.5090  177.6080  147.6110 C   0  0  0  0  0  0  0  0  0  0  0  0
  1 11  1  0  0  0  0
  1 13  2  0  0  0  0
  2 15  2  0  0  0  0
  3  5  1  0  0  0  0
  4  8  2  0  0  0  0
  5 17  1  0  0  0  0
  5  9  1  0  0  0  0
  7 21  1  0  0  0  0
  8 20  1  0  0  0  0
  9  1  1  0  0  0  0
 10  9  2  0  0  0  0
 10 16  1  0  0  0  0
 12 13  1  0  0  0  0
 12 23  1  0  0  0  0
 14 15  1  0  0  0  0
 14 11  2  0  0  0  0
 15  6  1  0  0  0  0
 16 14  1  0  0  0  0
 17 20  1  0  0  0  0
 18  3  2  0  0  0  0
 18 19  1  0  0  0  0
 19  4  1  0  0  0  0
 19 17  2  0  0  0  0
 20 12  2  0  0  0  0
 21 16  2  0  0  0  0
 21  2  1  0  0  0  0
 22 25  1  0  0  0  0
 23 24  2  0  0  0  0
 23 22  1  0  0  0  0
 25 26  1  1  0  0  0
 25 27  1  0  0  0  0
 28 31  1  0  0  0  0
 28 27  1  0  0  0  0
 29 31  2  0  0  0  0
 31 30  1  0  0  0  0
M  END
>  <MODEL>
7

>  <REMARK>
 VINA RESULT:      -9.0      3.173      7.506
  Name = 
  5 active torsions:
  status: ('A' for Active; 'I' for Inactive)
    1  A    between atoms: C_2  and  N_6
    2  A    between atoms: C_2  and  C_23
    3  A    between atoms: C_13  and  C_18
    4  A    between atoms: C_23  and  O_31
    5  A    between atoms: C_24  and  O_31
                            x       y       z     vdW  Elec       q    Type
                         _______ _______ _______ _____ _____    ______ ____

>  <TORSDO>
F 5

$$$$
=
 OpenBabel11062414313D

 31 35  0  0  1  0  0  0  0  0999 V2000
  187.3250  177.9550  142.5300 C   0  0  0  0  0  0  0  0  0  0  0  0
  191.8130  177.0650  143.0680 N   0  0  0  0  0  0  0  0  0  0  0  0
  186.3220  178.2210  146.2590 C   0  0  0  0  0  3  0  0  0  0  0  0
  183.0760  179.1160  145.0650 C   0  0  0  0  0  3  0  0  0  0  0  0
  186.2940  178.1230  144.7850 N   0  0  0  0  0  0  0  0  0  0  0  0
  191.3730  177.0710  140.6000 C   0  0  0  0  0  1  0  0  0  0  0  0
  191.6060  177.1930  145.5630 C   0  0  0  0  0  1  0  0  0  0  0  0
  183.1570  179.2020  143.6680 C   0  0  0  0  0  3  0  0  0  0  0  0
  187.3810  177.9620  143.9770 C   0  0  0  0  0  0  0  0  0  0  0  0
  188.6290  177.7440  144.6120 C   0  0  0  0  0  3  0  0  0  0  0  0
  188.5000  177.6920  141.7970 C   0  0  0  0  0  3  0  0  0  0  0  0
  184.9070  178.6310  141.9530 C   0  0  0  0  0  0  0  0  0  0  0  0
  186.2320  178.2590  141.7040 C   0  0  0  0  0  3  0  0  0  0  0  0
  189.6870  177.4650  142.4780 C   0  0  0  0  0  0  0  0  0  0  0  0
  190.9600  177.1980  142.0250 C   0  0  0  0  0  0  0  0  0  0  0  0
  189.7520  177.5030  143.8340 C   0  0  0  0  0  0  0  0  0  0  0  0
  185.0120  178.2030  144.4340 C   0  0  0  0  0  0  0  0  0  0  0  0
  184.9440  178.5430  146.6730 N   0  0  0  0  0  0  0  0  0  0  0  0
  184.2200  178.4590  145.4630 C   0  0  0  0  0  0  0  0  0  0  0  0
  184.3810  178.6720  143.2430 C   0  0  0  0  0  0  0  0  0  0  0  0
  191.0620  177.2550  144.1790 C   0  0  0  0  0  0  0  0  0  0  0  0
  182.7530  178.4840  140.6140 N   0  0  0  0  0  2  0  0  0  0  0  0
  184.0830  178.9900  140.7680 C   0  0  0  0  0  0  0  0  0  0  0  0
  184.5680  179.7390  139.8740 O   0  0  0  0  0  0  0  0  0  0  0  0
  181.9250  178.7770  139.4530 C   0  0  2  0  0  3  0  0  0  0  0  0
  181.1880  180.0810  139.6850 C   0  0  0  0  0  1  0  0  0  0  0  0
  180.9250  177.6530  139.2370 C   0  0  0  0  0  2  0  0  0  0  0  0
  179.7400  177.9100  139.9760 O   0  0  0  0  0  0  0  0  0  0  0  0
  178.9680  176.0110  141.0010 O   0  0  0  0  0  0  0  0  0  0  0  0
  179.6010  177.7220  142.3840 O   0  0  0  0  0  1  0  0  0  0  0  0
  179.4220  177.1780  141.1170 C   0  0  0  0  0  0  0  0  0  0  0  0
  1  9  1  0  0  0  0
  2 21  1  0  0  0  0
  3 18  2  0  0  0  0
  4 19  1  0  0  0  0
  5  3  1  0  0  0  0
  6 15  1  0  0  0  0
  8  4  2  0  0  0  0
  9 10  2  0  0  0  0
  9  5  1  0  0  0  0
 11 14  2  0  0  0  0
 11  1  1  0  0  0  0
 12 20  2  0  0  0  0
 13 12  1  0  0  0  0
 13  1  2  0  0  0  0
 14 16  1  0  0  0  0
 15 14  1  0  0  0  0
 15  2  2  0  0  0  0
 16 21  2  0  0  0  0
 16 10  1  0  0  0  0
 17  5  1  0  0  0  0
 17 19  2  0  0  0  0
 19 18  1  0  0  0  0
 20  8  1  0  0  0  0
 20 17  1  0  0  0  0
 21  7  1  0  0  0  0
 22 23  1  0  0  0  0
 23 12  1  0  0  0  0
 24 23  2  0  0  0  0
 25 26  1  1  0  0  0
 25 22  1  0  0  0  0
 27 25  1  0  0  0  0
 27 28  1  0  0  0  0
 28 31  1  0  0  0  0
 29 31  2  0  0  0  0
 31 30  1  0  0  0  0
M  END
>  <MODEL>
8

>  <REMARK>
 VINA RESULT:      -8.9      3.797      5.708
  Name = 
  5 active torsions:
  status: ('A' for Active; 'I' for Inactive)
    1  A    between atoms: C_2  and  N_6
    2  A    between atoms: C_2  and  C_23
    3  A    between atoms: C_13  and  C_18
    4  A    between atoms: C_23  and  O_31
    5  A    between atoms: C_24  and  O_31
                            x       y       z     vdW  Elec       q    Type
                         _______ _______ _______ _____ _____    ______ ____

>  <TORSDO>
F 5

$$$$
=
 OpenBabel11062414313D

 31 35  0  0  1  0  0  0  0  0999 V2000
  187.7170  178.0600  143.1670 C   0  0  0  0  0  0  0  0  0  0  0  0
  189.6090  177.0800  147.2520 N   0  0  0  0  0  0  0  0  0  0  0  0
  190.6860  177.0770  140.8870 C   0  0  0  0  0  3  0  0  0  0  0  0
  188.5030  177.8030  138.1530 C   0  0  0  0  0  3  0  0  0  0  0  0
  189.4090  177.6120  141.4040 N   0  0  0  0  0  0  0  0  0  0  0  0
  187.3110  177.9650  147.7190 C   0  0  0  0  0  1  0  0  0  0  0  0
  191.7260  176.3010  146.1570 C   0  0  0  0  0  1  0  0  0  0  0  0
  187.2470  178.1120  138.6950 C   0  0  0  0  0  3  0  0  0  0  0  0
  189.0130  177.6040  142.7090 C   0  0  0  0  0  0  0  0  0  0  0  0
  189.9580  177.1620  143.6660 C   0  0  0  0  0  3  0  0  0  0  0  0
  187.4480  178.0900  144.5510 C   0  0  0  0  0  3  0  0  0  0  0  0
  186.3640  178.4990  141.0180 C   0  0  0  0  0  0  0  0  0  0  0  0
  186.6040  178.4280  142.3950 C   0  0  0  0  0  3  0  0  0  0  0  0
  188.4230  177.6630  145.4400 C   0  0  0  0  0  0  0  0  0  0  0  0
  188.4280  177.5780  146.8150 C   0  0  0  0  0  0  0  0  0  0  0  0
  189.6280  177.2040  145.0130 C   0  0  0  0  0  0  0  0  0  0  0  0
  188.7610  178.1050  140.3490 C   0  0  0  0  0  0  0  0  0  0  0  0
  190.6000  177.1640  139.4180 N   0  0  0  0  0  0  0  0  0  0  0  0
  189.3860  177.8560  139.2090 C   0  0  0  0  0  0  0  0  0  0  0  0
  187.3690  178.2690  140.0810 C   0  0  0  0  0  0  0  0  0  0  0  0
  190.3430  176.8520  146.1370 C   0  0  0  0  0  0  0  0  0  0  0  0
  183.8710  178.0140  141.0100 N   0  0  0  0  0  2  0  0  0  0  0  0
  184.9750  178.8280  140.6020 C   0  0  0  0  0  0  0  0  0  0  0  0
  184.7650  179.8300  139.8630 O   0  0  0  0  0  0  0  0  0  0  0  0
  182.5000  178.2750  140.5950 C   0  0  2  0  0  3  0  0  0  0  0  0
  181.6930  178.7200  141.7990 C   0  0  0  0  0  1  0  0  0  0  0  0
  181.8910  177.0130  140.0070 C   0  0  0  0  0  2  0  0  0  0  0  0
  182.9190  176.1180  139.6090 O   0  0  0  0  0  0  0  0  0  0  0  0
  183.7840  174.6740  138.0530 O   0  0  0  0  0  1  0  0  0  0  0  0
  182.0990  176.0470  137.3330 O   0  0  0  0  0  0  0  0  0  0  0  0
  182.9600  175.5840  138.3230 C   0  0  0  0  0  0  0  0  0  0  0  0
  1 11  1  0  0  0  0
  3  5  1  0  0  0  0
  4  8  2  0  0  0  0
  4 19  1  0  0  0  0
  5  9  1  0  0  0  0
  8 20  1  0  0  0  0
  9  1  1  0  0  0  0
  9 10  2  0  0  0  0
 10 16  1  0  0  0  0
 11 14  2  0  0  0  0
 12 13  1  0  0  0  0
 13  1  2  0  0  0  0
 14 15  1  0  0  0  0
 15  2  2  0  0  0  0
 15  6  1  0  0  0  0
 16 14  1  0  0  0  0
 16 21  2  0  0  0  0
 17  5  1  0  0  0  0
 18  3  2  0  0  0  0
 19 18  1  0  0  0  0
 19 17  2  0  0  0  0
 20 17  1  0  0  0  0
 20 12  2  0  0  0  0
 21  7  1  0  0  0  0
 21  2  1  0  0  0  0
 23 22  1  0  0  0  0
 23 12  1  0  0  0  0
 24 23  2  0  0  0  0
 25 22  1  0  0  0  0
 25 26  1  1  0  0  0
 27 25  1  0  0  0  0
 28 27  1  0  0  0  0
 29 31  1  0  0  0  0
 30 31  2  0  0  0  0
 31 28  1  0  0  0  0
M  END
>  <MODEL>
9

>  <REMARK>
 VINA RESULT:      -8.9      2.886      5.064
  Name = 
  5 active torsions:
  status: ('A' for Active; 'I' for Inactive)
    1  A    between atoms: C_2  and  N_6
    2  A    between atoms: C_2  and  C_23
    3  A    between atoms: C_13  and  C_18
    4  A    between atoms: C_23  and  O_31
    5  A    between atoms: C_24  and  O_31
                            x       y       z     vdW  Elec       q    Type
                         _______ _______ _______ _____ _____    ______ ____

>  <TORSDO>
F 5

$$$$
