=
 OpenBabel11062418043D

 63 71  0  0  1  0  0  0  0  0999 V2000
  186.9830  175.5030  136.6840 C   0  0  2  0  0  3  0  0  0  0  0  0
  185.8800  173.5320  135.6360 C   0  0  2  0  0  3  0  0  0  0  0  0
  184.9180  171.7800  134.6000 O   0  0  0  0  0  0  0  0  0  0  0  0
  184.9350  169.6780  135.6020 N   0  0  0  0  0  1  0  0  0  0  0  0
  185.4630  172.1070  135.8790 C   0  0  2  0  0  0  0  0  0  0  0  0
  183.0680  171.1840  135.8080 F   0  0  0  0  0  0  0  0  0  0  0  0
  186.6150  174.0270  136.8480 C   0  0  2  0  0  3  0  0  0  0  0  0
  184.7500  173.3180  136.5820 C   0  0  1  0  0  0  0  0  0  0  0  0
  185.4790  173.8570  137.6610 O   0  0  0  0  0  0  0  0  0  0  0  0
  184.4290  171.0370  135.6520 C   0  0  1  0  0  0  0  0  0  0  0  0
  182.4610  173.5400  135.4100 C   0  0  1  0  0  3  0  0  0  0  0  0
  183.4270  174.2650  134.6690 O   0  0  0  0  0  0  0  0  0  0  0  0
  183.6060  174.2360  136.0630 C   0  0  2  0  0  0  0  0  0  0  0  0
  182.6700  177.8890  138.2470 C   0  0  0  0  0  0  0  0  0  0  0  0
  182.2640  176.5630  138.7490 C   0  0  1  0  0  3  0  0  0  0  0  0
  181.3110  177.6350  140.7230 C   0  0  0  0  0  3  0  0  0  0  0  0
  182.5760  175.4300  137.9940 O   0  0  0  0  0  0  0  0  0  0  0  0
  183.3330  177.9590  137.0920 C   0  0  0  0  0  3  0  0  0  0  0  0
  184.4360  176.9100  135.0580 C   0  0  0  0  0  1  0  0  0  0  0  0
  181.6530  178.8650  140.3250 C   0  0  0  0  0  3  0  0  0  0  0  0
  183.6590  176.7420  136.3200 C   0  0  0  0  0  0  0  0  0  0  0  0
  183.2800  175.5270  136.7820 C   0  0  0  0  0  0  0  0  0  0  0  0
  182.3710  179.1370  139.0270 C   0  0  0  0  0  3  0  0  0  0  0  0
  181.6240  176.4460  139.9110 C   0  0  0  0  0  3  0  0  0  0  0  0
  181.2660  174.2780  135.4620 O   0  0  0  0  0  0  0  0  0  0  0  0
  179.4490  171.1290  135.6660 O   0  0  0  0  0  1  0  0  0  0  0  0
  180.2600  173.3870  135.8770 C   0  0  1  0  0  0  0  0  0  0  0  0
  179.0720  173.3750  134.9420 C   0  0  0  0  0  2  0  0  0  0  0  0
  180.0290  172.1900  134.9620 C   0  0  2  0  0  3  0  0  0  0  0  0
  179.8910  173.3110  137.3630 C   0  0  0  0  0  2  0  0  0  0  0  0
  179.5160  175.6680  137.2920 O   0  0  0  0  0  1  0  0  0  0  0  0
  178.9910  174.4660  137.7710 C   0  0  0  0  0  2  0  0  0  0  0  0
  187.9640  176.5370  134.5960 O   0  0  0  0  0  1  0  0  0  0  0  0
  189.0730  174.5460  135.4430 C   0  0  0  0  0  2  0  0  0  0  0  0
  189.4250  175.6950  136.1940 O   0  0  0  0  0  0  0  0  0  0  0  0
  188.1250  175.6530  135.6630 C   0  0  2  0  0  0  0  0  0  0  0  0
  187.2790  176.1540  138.0340 C   0  0  0  0  0  2  0  0  0  0  0  0
  187.6510  177.6090  137.8100 C   0  0  0  0  0  2  0  0  0  0  0  0
  188.7480  179.1710  139.2310 O   0  0  0  0  0  0  0  0  0  0  0  0
  188.7570  178.0230  138.7120 C   0  0  0  0  0  0  0  0  0  0  0  0
  189.8310  177.1170  138.9600 N   0  0  0  0  0  2  0  0  0  0  0  0
  190.9770  177.4830  139.7790 C   0  0  0  0  0  2  0  0  0  0  0  0
  191.0600  176.5740  140.9960 C   0  0  0  0  0  2  0  0  0  0  0  0
  189.9000  176.7590  141.8570 N   0  0  0  0  0  2  0  0  0  0  0  0
  190.1210  177.9590  142.6480 C   0  0  0  0  0  2  0  0  0  0  0  0
  191.3000  177.7380  143.5830 C   0  0  1  0  0  3  0  0  0  0  0  0
  191.7900  178.9690  144.0250 O   0  0  0  0  0  1  0  0  0  0  0  0
  191.9200  176.9680  145.7820 O   0  0  0  0  0  1  0  0  0  0  0  0
  190.9490  176.8580  144.7830 C   0  0  1  0  0  3  0  0  0  0  0  0
  189.5810  177.2050  145.3450 C   0  0  0  0  0  2  0  0  0  0  0  0
  189.4470  176.6690  146.6380 O   0  0  0  0  0  0  0  0  0  0  0  0
  188.2760  177.2000  147.2300 C   0  0  1  0  0  3  0  0  0  0  0  0
  187.5020  177.5390  149.2770 C   0  0  0  0  0  1  0  0  0  0  0  0
  188.5690  177.8530  148.4340 O   0  0  0  0  0  0  0  0  0  0  0  0
  187.4820  178.1060  146.2830 C   0  0  2  0  0  3  0  0  0  0  0  0
  187.2120  179.3290  146.8980 O   0  0  0  0  0  1  0  0  0  0  0  0
  186.1770  177.4400  145.8810 C   0  0  0  0  0  2  0  0  0  0  0  0
  185.7580  177.9120  144.5300 C   0  0  0  0  0  0  0  0  0  0  0  0
  186.6610  177.8650  143.4610 C   0  0  0  0  0  3  0  0  0  0  0  0
  184.0610  178.8210  143.0590 C   0  0  0  0  0  3  0  0  0  0  0  0
  184.9660  178.7820  141.9930 C   0  0  0  0  0  3  0  0  0  0  0  0
  184.4570  178.3890  144.3270 C   0  0  0  0  0  3  0  0  0  0  0  0
  186.2650  178.3020  142.1930 C   0  0  0  0  0  3  0  0  0  0  0  0
  1  7  1  0  0  0  0
  1 37  1  1  0  0  0
  2  5  1  0  0  0  0
  2  8  1  0  0  0  0
  2  7  1  0  0  0  0
  3 10  1  0  0  0  0
  3  5  1  0  0  0  0
  4 10  1  0  0  0  0
  5  8  1  0  0  0  0
  7  9  1  0  0  0  0
  8  9  1  0  0  0  0
 10  6  1  0  0  0  0
 10  5  1  0  0  0  0
 11 25  1  0  0  0  0
 11 13  1  0  0  0  0
 12 11  1  0  0  0  0
 12 13  1  0  0  0  0
 13  8  1  0  0  0  0
 13 22  1  0  0  0  0
 14 15  1  0  0  0  0
 14 23  1  0  0  0  0
 15 24  1  0  0  0  0
 17 15  1  0  0  0  0
 18 14  2  0  0  0  0
 19 21  1  0  0  0  0
 20 16  1  0  0  0  0
 21 22  2  0  0  0  0
 21 18  1  0  0  0  0
 22 17  1  0  0  0  0
 23 20  2  0  0  0  0
 24 16  2  0  0  0  0
 25 27  1  0  0  0  0
 27 30  1  0  0  0  0
 28 29  1  0  0  0  0
 28 27  1  0  0  0  0
 29 26  1  0  0  0  0
 29 27  1  0  0  0  0
 30 32  1  0  0  0  0
 31 32  1  0  0  0  0
 33 36  1  0  0  0  0
 34 36  1  0  0  0  0
 34 35  1  0  0  0  0
 36 35  1  0  0  0  0
 36  1  1  0  0  0  0
 38 37  1  0  0  0  0
 38 40  1  0  0  0  0
 40 41  1  0  0  0  0
 40 39  2  0  0  0  0
 41 42  1  0  0  0  0
 42 43  1  0  0  0  0
 43 44  1  0  0  0  0
 44 45  1  0  0  0  0
 45 46  1  0  0  0  0
 46 47  1  0  0  0  0
 46 49  1  0  0  0  0
 49 50  1  0  0  0  0
 49 48  1  0  0  0  0
 50 51  1  0  0  0  0
 51 52  1  0  0  0  0
 52 54  1  0  0  0  0
 54 53  1  0  0  0  0
 55 56  1  0  0  0  0
 55 52  1  0  0  0  0
 57 55  1  0  0  0  0
 58 57  1  0  0  0  0
 59 58  2  0  0  0  0
 60 62  2  0  0  0  0
 61 63  2  0  0  0  0
 61 60  1  0  0  0  0
 62 58  1  0  0  0  0
 63 59  1  0  0  0  0
M  END
>  <MODEL>
1

>  <REMARK>
 VINA RESULT:      -5.8      0.000      0.000
  Name = 
  24 active torsions:
  status: ('A' for Active; 'I' for Inactive)
    1  A    between atoms: O_3  and  C_44
    2  A    between atoms: O_3  and  C_47
    3  A    between atoms: C_6  and  C_7
    4  A    between atoms: C_6  and  C_28
    5  A    between atoms: C_11  and  C_60
    6  A    between atoms: C_21  and  C_38
    7  A    between atoms: C_21  and  C_46
    8  A    between atoms: O_23  and  C_27
    9  A    between atoms: O_23  and  C_33
   10  A    between atoms: O_24  and  C_44
   11  A    between atoms: C_28  and  C_44
   12  A    between atoms: C_31  and  C_32
   13  A    between atoms: C_31  and  C_37
   14  A    between atoms: C_31  and  C_63
   15  A    between atoms: C_33  and  C_48
   16  A    between atoms: C_34  and  C_48
   17  A    between atoms: C_36  and  C_62
   18  A    between atoms: C_37  and  C_60
   19  A    between atoms: C_38  and  C_47
   20  A    between atoms: N_39  and  C_45
   21  A    between atoms: C_45  and  C_50
   22  A    between atoms: C_46  and  N_52
   23  A    between atoms: C_49  and  C_62
   24  A    between atoms: C_50  and  N_52
                            x       y       z     vdW  Elec       q    Type
                         _______ _______ _______ _____ _____    ______ ____

>  <TORSDO>
F 24

$$$$
=
 OpenBabel11062418043D

 63 71  0  0  1  0  0  0  0  0999 V2000
  183.4640  178.3150  140.5470 C   0  0  2  0  0  3  0  0  0  0  0  0
  182.8310  177.1300  138.4500 C   0  0  2  0  0  3  0  0  0  0  0  0
  182.2810  176.1410  136.5040 O   0  0  0  0  0  0  0  0  0  0  0  0
  182.8640  173.9200  136.1170 N   0  0  0  0  0  1  0  0  0  0  0  0
  182.7900  175.7790  137.7880 C   0  0  2  0  0  0  0  0  0  0  0  0
  180.6950  174.5520  136.9510 F   0  0  0  0  0  0  0  0  0  0  0  0
  183.4790  176.9820  139.7970 C   0  0  2  0  0  3  0  0  0  0  0  0
  181.8360  176.1560  138.9780 C   0  0  1  0  0  0  0  0  0  0  0  0
  182.4610  176.1180  140.2410 O   0  0  0  0  0  0  0  0  0  0  0  0
  182.0420  174.8380  136.8820 C   0  0  1  0  0  0  0  0  0  0  0  0
  179.8020  177.0650  140.2810 C   0  0  1  0  0  3  0  0  0  0  0  0
  179.3460  176.1520  139.2990 O   0  0  0  0  0  0  0  0  0  0  0  0
  180.4770  176.9140  138.9620 C   0  0  2  0  0  0  0  0  0  0  0  0
  179.8910  180.1520  136.1040 C   0  0  0  0  0  0  0  0  0  0  0  0
  180.6640  180.3470  137.3450 C   0  0  0  0  0  0  0  0  0  0  0  0
  181.1140  182.6480  136.6700 C   0  0  0  0  0  3  0  0  0  0  0  0
  180.8000  179.2760  138.2320 O   0  0  0  0  0  0  0  0  0  0  0  0
  179.3590  178.9530  135.8650 C   0  0  0  0  0  3  0  0  0  0  0  0
  178.9320  176.5180  136.4500 C   0  0  0  0  0  1  0  0  0  0  0  0
  180.4290  182.5350  135.5260 C   0  0  0  0  0  3  0  0  0  0  0  0
  179.5290  177.8350  136.8160 C   0  0  0  0  0  0  0  0  0  0  0  0
  180.2340  178.0200  137.9570 C   0  0  0  0  0  0  0  0  0  0  0  0
  179.7270  181.2670  135.1110 C   0  0  0  0  0  2  0  0  0  0  0  0
  181.2350  181.5210  137.6100 C   0  0  0  0  0  3  0  0  0  0  0  0
  178.9310  178.1680  140.3310 O   0  0  0  0  0  0  0  0  0  0  0  0
  179.3940  181.1660  142.3430 O   0  0  0  0  0  1  0  0  0  0  0  0
  179.3140  178.9330  141.4480 C   0  0  1  0  0  0  0  0  0  0  0  0
  180.7270  179.4580  141.3350 C   0  0  0  0  0  2  0  0  0  0  0  0
  179.5510  180.4140  141.1760 C   0  0  2  0  0  3  0  0  0  0  0  0
  178.9310  178.4520  142.8530 C   0  0  0  0  0  2  0  0  0  0  0  0
  180.6090  179.0710  144.4350 O   0  0  0  0  0  1  0  0  0  0  0  0
  180.1550  178.0150  143.6420 C   0  0  0  0  0  2  0  0  0  0  0  0
  185.7250  179.3930  140.8960 O   0  0  0  0  0  1  0  0  0  0  0  0
  184.3700  180.2780  139.0810 C   0  0  0  0  0  2  0  0  0  0  0  0
  184.9930  179.0580  138.7160 O   0  0  0  0  0  0  0  0  0  0  0  0
  184.6210  179.2070  140.0630 C   0  0  2  0  0  0  0  0  0  0  0  0
  183.4480  178.1000  142.0590 C   0  0  0  0  0  2  0  0  0  0  0  0
  184.0730  179.3060  142.7350 C   0  0  0  0  0  2  0  0  0  0  0  0
  183.2900  178.8220  144.9300 O   0  0  0  0  0  0  0  0  0  0  0  0
  184.2790  179.0600  144.1860 C   0  0  0  0  0  0  0  0  0  0  0  0
  185.6000  179.1180  144.7230 N   0  0  0  0  0  2  0  0  0  0  0  0
  185.8640  178.9540  146.1450 C   0  0  0  0  0  2  0  0  0  0  0  0
  186.3760  177.5470  146.4200 C   0  0  0  0  0  2  0  0  0  0  0  0
  187.8310  177.5350  146.4980 N   0  0  0  0  0  2  0  0  0  0  0  0
  188.3490  177.6410  145.1430 C   0  0  0  0  0  2  0  0  0  0  0  0
  189.7900  178.1250  145.1900 C   0  0  1  0  0  3  0  0  0  0  0  0
  190.6290  177.0750  145.5660 O   0  0  0  0  0  1  0  0  0  0  0  0
  191.1680  179.7570  144.0710 O   0  0  0  0  0  1  0  0  0  0  0  0
  190.2610  178.7150  143.8600 C   0  0  1  0  0  3  0  0  0  0  0  0
  190.8850  177.6530  142.9710 C   0  0  0  0  0  2  0  0  0  0  0  0
  190.6360  177.9560  141.6200 O   0  0  0  0  0  0  0  0  0  0  0  0
  189.7280  177.0020  141.1010 C   0  0  1  0  0  3  0  0  0  0  0  0
  187.9990  176.5440  142.4060 C   0  0  0  0  0  1  0  0  0  0  0  0
  188.4020  177.3720  141.3580 O   0  0  0  0  0  0  0  0  0  0  0  0
  189.9470  176.7150  139.6110 C   0  0  2  0  0  3  0  0  0  0  0  0
  191.1620  176.0580  139.4180 O   0  0  0  0  0  1  0  0  0  0  0  0
  189.9350  178.0080  138.8130 C   0  0  0  0  0  2  0  0  0  0  0  0
  189.2620  177.7920  137.5010 C   0  0  0  0  0  0  0  0  0  0  0  0
  190.0140  177.4090  136.3830 C   0  0  0  0  0  3  0  0  0  0  0  0
  187.2440  177.7450  136.1610 C   0  0  0  0  0  3  0  0  0  0  0  0
  187.9960  177.3700  135.0430 C   0  0  0  0  0  3  0  0  0  0  0  0
  187.8760  177.9590  137.3880 C   0  0  0  0  0  3  0  0  0  0  0  0
  189.3800  177.2000  135.1540 C   0  0  0  0  0  3  0  0  0  0  0  0
  1 37  1  1  0  0  0
  2  8  1  0  0  0  0
  2  7  1  0  0  0  0
  3 10  1  0  0  0  0
  3  5  1  0  0  0  0
  4 10  1  0  0  0  0
  5  2  1  0  0  0  0
  5  8  1  0  0  0  0
  7  9  1  0  0  0  0
  7  1  1  0  0  0  0
  8  9  1  0  0  0  0
 10  6  1  0  0  0  0
 10  5  1  0  0  0  0
 11 25  1  0  0  0  0
 12 11  1  0  0  0  0
 13  8  1  0  0  0  0
 13 12  1  0  0  0  0
 13 11  1  0  0  0  0
 14 15  1  0  0  0  0
 15 24  2  0  0  0  0
 15 17  1  0  0  0  0
 16 24  1  0  0  0  0
 18 14  2  0  0  0  0
 18 21  1  0  0  0  0
 19 21  1  0  0  0  0
 20 16  2  0  0  0  0
 21 22  2  0  0  0  0
 22 17  1  0  0  0  0
 22 13  1  0  0  0  0
 23 20  1  0  0  0  0
 23 14  1  0  0  0  0
 25 27  1  0  0  0  0
 27 30  1  0  0  0  0
 28 27  1  0  0  0  0
 29 28  1  0  0  0  0
 29 27  1  0  0  0  0
 29 26  1  0  0  0  0
 30 32  1  0  0  0  0
 32 31  1  0  0  0  0
 34 36  1  0  0  0  0
 35 34  1  0  0  0  0
 35 36  1  0  0  0  0
 36  1  1  0  0  0  0
 36 33  1  0  0  0  0
 37 38  1  0  0  0  0
 38 40  1  0  0  0  0
 40 41  1  0  0  0  0
 40 39  2  0  0  0  0
 41 42  1  0  0  0  0
 42 43  1  0  0  0  0
 43 44  1  0  0  0  0
 45 46  1  0  0  0  0
 45 44  1  0  0  0  0
 46 47  1  0  0  0  0
 49 48  1  0  0  0  0
 49 46  1  0  0  0  0
 50 49  1  0  0  0  0
 51 50  1  0  0  0  0
 52 54  1  0  0  0  0
 52 51  1  0  0  0  0
 54 53  1  0  0  0  0
 55 52  1  0  0  0  0
 56 55  1  0  0  0  0
 57 55  1  0  0  0  0
 58 57  1  0  0  0  0
 59 58  2  0  0  0  0
 60 62  2  0  0  0  0
 61 63  2  0  0  0  0
 61 60  1  0  0  0  0
 62 58  1  0  0  0  0
 63 59  1  0  0  0  0
M  END
>  <MODEL>
2

>  <REMARK>
 VINA RESULT:      -5.3      3.027      6.444
  Name = 
  24 active torsions:
  status: ('A' for Active; 'I' for Inactive)
    1  A    between atoms: O_3  and  C_44
    2  A    between atoms: O_3  and  C_47
    3  A    between atoms: C_6  and  C_7
    4  A    between atoms: C_6  and  C_28
    5  A    between atoms: C_11  and  C_60
    6  A    between atoms: C_21  and  C_38
    7  A    between atoms: C_21  and  C_46
    8  A    between atoms: O_23  and  C_27
    9  A    between atoms: O_23  and  C_33
   10  A    between atoms: O_24  and  C_44
   11  A    between atoms: C_28  and  C_44
   12  A    between atoms: C_31  and  C_32
   13  A    between atoms: C_31  and  C_37
   14  A    between atoms: C_31  and  C_63
   15  A    between atoms: C_33  and  C_48
   16  A    between atoms: C_34  and  C_48
   17  A    between atoms: C_36  and  C_62
   18  A    between atoms: C_37  and  C_60
   19  A    between atoms: C_38  and  C_47
   20  A    between atoms: N_39  and  C_45
   21  A    between atoms: C_45  and  C_50
   22  A    between atoms: C_46  and  N_52
   23  A    between atoms: C_49  and  C_62
   24  A    between atoms: C_50  and  N_52
                            x       y       z     vdW  Elec       q    Type
                         _______ _______ _______ _____ _____    ______ ____

>  <TORSDO>
F 24

$$$$
=
 OpenBabel11062418043D

 63 71  0  0  1  0  0  0  0  0999 V2000
  183.5260  178.3720  140.0100 C   0  0  2  0  0  3  0  0  0  0  0  0
  182.7400  177.6800  137.7510 C   0  0  2  0  0  3  0  0  0  0  0  0
  182.0620  177.1390  135.6730 O   0  0  0  0  0  0  0  0  0  0  0  0
  182.3370  174.9660  134.8830 N   0  0  0  0  0  1  0  0  0  0  0  0
  182.5160  176.4880  136.8600 C   0  0  2  0  0  0  0  0  0  0  0  0
  180.2740  175.7250  135.8670 F   0  0  0  0  0  0  0  0  0  0  0  0
  183.3610  177.2060  139.0340 C   0  0  2  0  0  3  0  0  0  0  0  0
  181.6200  176.7700  138.1200 C   0  0  1  0  0  0  0  0  0  0  0  0
  182.2330  176.4210  139.3410 O   0  0  0  0  0  0  0  0  0  0  0  0
  181.6480  175.8340  135.8190 C   0  0  1  0  0  0  0  0  0  0  0  0
  179.6530  177.6000  139.5690 C   0  0  1  0  0  3  0  0  0  0  0  0
  179.1370  177.0420  138.3730 O   0  0  0  0  0  0  0  0  0  0  0  0
  180.3780  177.6940  138.2710 C   0  0  2  0  0  0  0  0  0  0  0  0
  180.3970  181.6010  136.3410 C   0  0  0  0  0  0  0  0  0  0  0  0
  181.1100  181.3620  137.6100 C   0  0  0  0  0  0  0  0  0  0  0  0
  181.8960  183.6720  137.5690 C   0  0  0  0  0  3  0  0  0  0  0  0
  181.0500  180.0930  138.1910 O   0  0  0  0  0  0  0  0  0  0  0  0
  179.7290  180.5910  135.7840 C   0  0  0  0  0  3  0  0  0  0  0  0
  178.9530  178.1730  135.7030 C   0  0  0  0  0  1  0  0  0  0  0  0
  181.2750  183.9520  136.4180 C   0  0  0  0  0  3  0  0  0  0  0  0
  179.6930  179.2550  136.4140 C   0  0  0  0  0  0  0  0  0  0  0  0
  180.3440  179.0420  137.5820 C   0  0  0  0  0  0  0  0  0  0  0  0
  180.4410  182.9440  135.6690 C   0  0  0  0  0  2  0  0  0  0  0  0
  181.8110  182.3370  138.1870 C   0  0  0  0  0  3  0  0  0  0  0  0
  178.9350  178.7670  139.8840 O   0  0  0  0  0  0  0  0  0  0  0  0
  179.0890  180.8250  142.8830 O   0  0  0  0  0  1  0  0  0  0  0  0
  179.2900  179.1160  141.2000 C   0  0  1  0  0  0  0  0  0  0  0  0
  180.5820  179.8980  141.2630 C   0  0  0  0  0  2  0  0  0  0  0  0
  179.2570  180.6070  141.5120 C   0  0  2  0  0  3  0  0  0  0  0  0
  179.1240  178.0830  142.3200 C   0  0  0  0  0  2  0  0  0  0  0  0
  179.3470  177.9530  144.6940 O   0  0  0  0  0  1  0  0  0  0  0  0
  179.9570  178.4460  143.5380 C   0  0  0  0  0  2  0  0  0  0  0  0
  184.4990  180.3690  138.8010 O   0  0  0  0  0  1  0  0  0  0  0  0
  186.0740  178.6540  139.5030 C   0  0  0  0  0  2  0  0  0  0  0  0
  185.6890  179.4800  140.5880 O   0  0  0  0  0  0  0  0  0  0  0  0
  184.7250  179.2430  139.5940 C   0  0  2  0  0  0  0  0  0  0  0  0
  183.5990  177.8810  141.4540 C   0  0  0  0  0  2  0  0  0  0  0  0
  184.1230  179.0030  142.3320 C   0  0  0  0  0  2  0  0  0  0  0  0
  184.2990  178.0370  144.5000 O   0  0  0  0  0  0  0  0  0  0  0  0
  184.9000  178.4660  143.4790 C   0  0  0  0  0  0  0  0  0  0  0  0
  186.3260  178.4650  143.4160 N   0  0  0  0  0  2  0  0  0  0  0  0
  187.1480  178.0180  144.5300 C   0  0  0  0  0  2  0  0  0  0  0  0
  187.5320  176.5570  144.3410 C   0  0  0  0  0  2  0  0  0  0  0  0
  188.9500  176.4340  144.0290 N   0  0  0  0  0  2  0  0  0  0  0  0
  189.2670  177.4160  143.0060 C   0  0  0  0  0  2  0  0  0  0  0  0
  190.7410  177.3090  142.6410 C   0  0  1  0  0  3  0  0  0  0  0  0
  191.1980  176.0150  142.8980 O   0  0  0  0  0  1  0  0  0  0  0  0
  192.3260  177.3360  140.8250 O   0  0  0  0  0  1  0  0  0  0  0  0
  191.0200  177.6790  141.1840 C   0  0  1  0  0  3  0  0  0  0  0  0
  190.0290  177.0150  140.2430 C   0  0  0  0  0  2  0  0  0  0  0  0
  190.2090  177.5060  138.9380 O   0  0  0  0  0  0  0  0  0  0  0  0
  190.3520  176.4080  138.0560 C   0  0  1  0  0  3  0  0  0  0  0  0
  188.2460  175.9040  137.5920 C   0  0  0  0  0  1  0  0  0  0  0  0
  189.3990  176.4550  137.0300 O   0  0  0  0  0  0  0  0  0  0  0  0
  191.7710  176.2720  137.4910 C   0  0  2  0  0  3  0  0  0  0  0  0
  191.7340  176.2240  136.0980 O   0  0  0  0  0  1  0  0  0  0  0  0
  192.4370  175.0150  138.0270 C   0  0  0  0  0  2  0  0  0  0  0  0
  192.8040  174.1120  136.8990 C   0  0  0  0  0  0  0  0  0  0  0  0
  194.1240  174.0700  136.4360 C   0  0  0  0  0  3  0  0  0  0  0  0
  192.1750  172.4410  135.2610 C   0  0  0  0  0  3  0  0  0  0  0  0
  193.4930  172.4040  134.7940 C   0  0  0  0  0  3  0  0  0  0  0  0
  191.8290  173.2960  136.3110 C   0  0  0  0  0  3  0  0  0  0  0  0
  194.4680  173.2170  135.3830 C   0  0  0  0  0  3  0  0  0  0  0  0
  1 37  1  1  0  0  0
  2  8  1  0  0  0  0
  2  7  1  0  0  0  0
  3 10  1  0  0  0  0
  3  5  1  0  0  0  0
  4 10  1  0  0  0  0
  5  2  1  0  0  0  0
  5  8  1  0  0  0  0
  7  9  1  0  0  0  0
  7  1  1  0  0  0  0
  8 13  1  0  0  0  0
  8  9  1  0  0  0  0
 10  6  1  0  0  0  0
 10  5  1  0  0  0  0
 11 25  1  0  0  0  0
 12 11  1  0  0  0  0
 13 12  1  0  0  0  0
 13 11  1  0  0  0  0
 14 15  1  0  0  0  0
 15 24  2  0  0  0  0
 15 17  1  0  0  0  0
 16 24  1  0  0  0  0
 18 14  2  0  0  0  0
 18 21  1  0  0  0  0
 19 21  1  0  0  0  0
 20 16  2  0  0  0  0
 21 22  2  0  0  0  0
 22 17  1  0  0  0  0
 22 13  1  0  0  0  0
 23 14  1  0  0  0  0
 23 20  1  0  0  0  0
 25 27  1  0  0  0  0
 27 28  1  0  0  0  0
 27 29  1  0  0  0  0
 27 30  1  0  0  0  0
 28 29  1  0  0  0  0
 29 26  1  0  0  0  0
 30 32  1  0  0  0  0
 32 31  1  0  0  0  0
 33 36  1  0  0  0  0
 34 36  1  0  0  0  0
 34 35  1  0  0  0  0
 36  1  1  0  0  0  0
 36 35  1  0  0  0  0
 37 38  1  0  0  0  0
 38 40  1  0  0  0  0
 40 39  2  0  0  0  0
 41 40  1  0  0  0  0
 41 42  1  0  0  0  0
 43 42  1  0  0  0  0
 44 43  1  0  0  0  0
 45 44  1  0  0  0  0
 46 47  1  0  0  0  0
 46 45  1  0  0  0  0
 48 49  1  0  0  0  0
 49 46  1  0  0  0  0
 50 49  1  0  0  0  0
 51 50  1  0  0  0  0
 52 51  1  0  0  0  0
 54 53  1  0  0  0  0
 54 52  1  0  0  0  0
 55 57  1  0  0  0  0
 55 52  1  0  0  0  0
 56 55  1  0  0  0  0
 58 57  1  0  0  0  0
 59 58  1  0  0  0  0
 60 62  1  0  0  0  0
 61 60  2  0  0  0  0
 61 63  1  0  0  0  0
 62 58  2  0  0  0  0
 63 59  2  0  0  0  0
M  END
>  <MODEL>
3

>  <REMARK>
 VINA RESULT:      -4.9      3.450      7.425
  Name = 
  24 active torsions:
  status: ('A' for Active; 'I' for Inactive)
    1  A    between atoms: O_3  and  C_44
    2  A    between atoms: O_3  and  C_47
    3  A    between atoms: C_6  and  C_7
    4  A    between atoms: C_6  and  C_28
    5  A    between atoms: C_11  and  C_60
    6  A    between atoms: C_21  and  C_38
    7  A    between atoms: C_21  and  C_46
    8  A    between atoms: O_23  and  C_27
    9  A    between atoms: O_23  and  C_33
   10  A    between atoms: O_24  and  C_44
   11  A    between atoms: C_28  and  C_44
   12  A    between atoms: C_31  and  C_32
   13  A    between atoms: C_31  and  C_37
   14  A    between atoms: C_31  and  C_63
   15  A    between atoms: C_33  and  C_48
   16  A    between atoms: C_34  and  C_48
   17  A    between atoms: C_36  and  C_62
   18  A    between atoms: C_37  and  C_60
   19  A    between atoms: C_38  and  C_47
   20  A    between atoms: N_39  and  C_45
   21  A    between atoms: C_45  and  C_50
   22  A    between atoms: C_46  and  N_52
   23  A    between atoms: C_49  and  C_62
   24  A    between atoms: C_50  and  N_52
                            x       y       z     vdW  Elec       q    Type
                         _______ _______ _______ _____ _____    ______ ____

>  <TORSDO>
F 24

$$$$
=
 OpenBabel11062418043D

 63 71  0  0  1  0  0  0  0  0999 V2000
  185.3820  177.5270  137.2150 C   0  0  2  0  0  3  0  0  0  0  0  0
  183.5000  176.2690  136.1790 C   0  0  2  0  0  3  0  0  0  0  0  0
  181.8090  175.1860  135.1590 O   0  0  0  0  0  0  0  0  0  0  0  0
  181.5530  172.8890  135.4460 N   0  0  0  0  0  1  0  0  0  0  0  0
  182.7990  174.9370  136.1580 C   0  0  2  0  0  0  0  0  0  0  0  0
  180.3470  174.4930  136.7780 F   0  0  0  0  0  0  0  0  0  0  0  0
  184.6880  176.1690  137.0920 C   0  0  2  0  0  3  0  0  0  0  0  0
  182.7140  175.9080  137.3910 C   0  0  1  0  0  0  0  0  0  0  0  0
  183.8670  175.8980  138.2020 O   0  0  0  0  0  0  0  0  0  0  0  0
  181.4910  174.1990  136.0660 C   0  0  1  0  0  0  0  0  0  0  0  0
  180.9670  177.5670  136.4680 C   0  0  1  0  0  3  0  0  0  0  0  0
  182.0860  178.2970  136.9400 O   0  0  0  0  0  0  0  0  0  0  0  0
  181.7700  177.1190  137.6400 C   0  0  2  0  0  0  0  0  0  0  0  0
  179.9210  177.8360  141.5210 C   0  0  0  0  0  0  0  0  0  0  0  0
  180.4990  178.9350  140.7250 C   0  0  1  0  0  3  0  0  0  0  0  0
  179.7930  180.5130  142.4470 C   0  0  0  0  0  3  0  0  0  0  0  0
  181.0960  178.6400  139.4970 O   0  0  0  0  0  0  0  0  0  0  0  0
  179.9770  176.5970  141.0320 C   0  0  0  0  0  3  0  0  0  0  0  0
  180.5900  174.9050  139.2390 C   0  0  0  0  0  1  0  0  0  0  0  0
  179.2480  179.5630  143.2140 C   0  0  0  0  0  3  0  0  0  0  0  0
  180.6050  176.3150  139.7250 C   0  0  0  0  0  0  0  0  0  0  0  0
  181.1390  177.3260  139.0000 C   0  0  0  0  0  0  0  0  0  0  0  0
  179.2560  178.1020  142.8410 C   0  0  0  0  0  3  0  0  0  0  0  0
  180.4400  180.1920  141.1630 C   0  0  0  0  0  3  0  0  0  0  0  0
  179.7870  178.2380  136.8330 O   0  0  0  0  0  0  0  0  0  0  0  0
  178.9310  180.9800  134.5950 O   0  0  0  0  0  1  0  0  0  0  0  0
  179.8660  179.5260  136.2710 C   0  0  1  0  0  0  0  0  0  0  0  0
  180.8080  179.5860  135.0900 C   0  0  0  0  0  2  0  0  0  0  0  0
  179.3030  179.6590  134.8600 C   0  0  2  0  0  3  0  0  0  0  0  0
  179.9370  180.7450  137.1970 C   0  0  0  0  0  2  0  0  0  0  0  0
  181.4660  182.3100  138.1530 O   0  0  0  0  0  1  0  0  0  0  0  0
  181.3620  181.0080  137.6580 C   0  0  0  0  0  2  0  0  0  0  0  0
  187.2930  178.7640  136.1140 O   0  0  0  0  0  1  0  0  0  0  0  0
  185.9970  177.2820  134.6870 C   0  0  0  0  0  2  0  0  0  0  0  0
  186.9120  176.5580  135.4930 O   0  0  0  0  0  0  0  0  0  0  0  0
  186.3620  177.7270  136.0450 C   0  0  2  0  0  0  0  0  0  0  0  0
  186.0280  177.6970  138.5890 C   0  0  0  0  0  2  0  0  0  0  0  0
  187.4630  178.1560  138.4070 C   0  0  0  0  0  2  0  0  0  0  0  0
  189.0450  176.6450  139.3450 O   0  0  0  0  0  0  0  0  0  0  0  0
  188.3260  177.6660  139.5130 C   0  0  0  0  0  0  0  0  0  0  0  0
  188.3100  178.3510  140.7650 N   0  0  0  0  0  2  0  0  0  0  0  0
  189.0780  177.8850  141.9100 C   0  0  0  0  0  2  0  0  0  0  0  0
  190.1580  176.9150  141.4530 C   0  0  0  0  0  2  0  0  0  0  0  0
  190.3510  175.8570  142.4370 N   0  0  0  0  0  2  0  0  0  0  0  0
  191.5640  176.1590  143.1800 C   0  0  0  0  0  2  0  0  0  0  0  0
  191.2120  176.4210  144.6370 C   0  0  1  0  0  3  0  0  0  0  0  0
  192.1100  175.7500  145.4680 O   0  0  0  0  0  1  0  0  0  0  0  0
  191.9590  178.6420  144.0700 O   0  0  0  0  0  1  0  0  0  0  0  0
  191.1960  177.9100  144.9840 C   0  0  1  0  0  3  0  0  0  0  0  0
  189.7790  178.4540  145.0350 C   0  0  0  0  0  2  0  0  0  0  0  0
  189.3010  178.4160  146.3570 O   0  0  0  0  0  0  0  0  0  0  0  0
  188.3610  177.3640  146.4700 C   0  0  1  0  0  3  0  0  0  0  0  0
  188.9910  177.7680  148.5540 C   0  0  0  0  0  1  0  0  0  0  0  0
  188.3810  176.8010  147.7520 O   0  0  0  0  0  0  0  0  0  0  0  0
  186.9420  177.7800  146.0670 C   0  0  2  0  0  3  0  0  0  0  0  0
  186.1150  176.6600  145.9820 O   0  0  0  0  0  1  0  0  0  0  0  0
  186.9600  178.5030  144.7300 C   0  0  0  0  0  2  0  0  0  0  0  0
  185.5750  178.6080  144.1880 C   0  0  0  0  0  0  0  0  0  0  0  0
  185.2780  178.0950  142.9200 C   0  0  0  0  0  3  0  0  0  0  0  0
  183.2670  179.2970  144.4510 C   0  0  0  0  0  3  0  0  0  0  0  0
  182.9730  178.7910  143.1810 C   0  0  0  0  0  3  0  0  0  0  0  0
  184.5670  179.2080  144.9540 C   0  0  0  0  0  3  0  0  0  0  0  0
  183.9770  178.1890  142.4160 C   0  0  0  0  0  3  0  0  0  0  0  0
  1 37  1  1  0  0  0
  2  7  1  0  0  0  0
  2  8  1  0  0  0  0
  3 10  1  0  0  0  0
  3  5  1  0  0  0  0
  4 10  1  0  0  0  0
  5  2  1  0  0  0  0
  5  8  1  0  0  0  0
  7  1  1  0  0  0  0
  7  9  1  0  0  0  0
  8 13  1  0  0  0  0
  8  9  1  0  0  0  0
 10  5  1  0  0  0  0
 10  6  1  0  0  0  0
 11 25  1  0  0  0  0
 11 12  1  0  0  0  0
 11 13  1  0  0  0  0
 12 13  1  0  0  0  0
 13 22  1  0  0  0  0
 14 23  1  0  0  0  0
 15 24  1  0  0  0  0
 15 14  1  0  0  0  0
 16 20  1  0  0  0  0
 17 15  1  0  0  0  0
 18 14  2  0  0  0  0
 19 21  1  0  0  0  0
 21 18  1  0  0  0  0
 22 17  1  0  0  0  0
 22 21  2  0  0  0  0
 23 20  2  0  0  0  0
 24 16  2  0  0  0  0
 26 29  1  0  0  0  0
 27 25  1  0  0  0  0
 27 30  1  0  0  0  0
 28 27  1  0  0  0  0
 29 28  1  0  0  0  0
 29 27  1  0  0  0  0
 30 32  1  0  0  0  0
 32 31  1  0  0  0  0
 34 35  1  0  0  0  0
 34 36  1  0  0  0  0
 35 36  1  0  0  0  0
 36 33  1  0  0  0  0
 36  1  1  0  0  0  0
 38 37  1  0  0  0  0
 38 40  1  0  0  0  0
 39 40  2  0  0  0  0
 40 41  1  0  0  0  0
 41 42  1  0  0  0  0
 43 42  1  0  0  0  0
 43 44  1  0  0  0  0
 44 45  1  0  0  0  0
 45 46  1  0  0  0  0
 46 49  1  0  0  0  0
 46 47  1  0  0  0  0
 48 49  1  0  0  0  0
 49 50  1  0  0  0  0
 50 51  1  0  0  0  0
 51 52  1  0  0  0  0
 52 54  1  0  0  0  0
 54 53  1  0  0  0  0
 55 52  1  0  0  0  0
 56 55  1  0  0  0  0
 57 55  1  0  0  0  0
 58 57  1  0  0  0  0
 58 62  1  0  0  0  0
 59 58  2  0  0  0  0
 60 62  2  0  0  0  0
 61 60  1  0  0  0  0
 63 59  1  0  0  0  0
 63 61  2  0  0  0  0
M  END
>  <MODEL>
4

>  <REMARK>
 VINA RESULT:      -4.4      2.431      3.905
  Name = 
  24 active torsions:
  status: ('A' for Active; 'I' for Inactive)
    1  A    between atoms: O_3  and  C_44
    2  A    between atoms: O_3  and  C_47
    3  A    between atoms: C_6  and  C_7
    4  A    between atoms: C_6  and  C_28
    5  A    between atoms: C_11  and  C_60
    6  A    between atoms: C_21  and  C_38
    7  A    between atoms: C_21  and  C_46
    8  A    between atoms: O_23  and  C_27
    9  A    between atoms: O_23  and  C_33
   10  A    between atoms: O_24  and  C_44
   11  A    between atoms: C_28  and  C_44
   12  A    between atoms: C_31  and  C_32
   13  A    between atoms: C_31  and  C_37
   14  A    between atoms: C_31  and  C_63
   15  A    between atoms: C_33  and  C_48
   16  A    between atoms: C_34  and  C_48
   17  A    between atoms: C_36  and  C_62
   18  A    between atoms: C_37  and  C_60
   19  A    between atoms: C_38  and  C_47
   20  A    between atoms: N_39  and  C_45
   21  A    between atoms: C_45  and  C_50
   22  A    between atoms: C_46  and  N_52
   23  A    between atoms: C_49  and  C_62
   24  A    between atoms: C_50  and  N_52
                            x       y       z     vdW  Elec       q    Type
                         _______ _______ _______ _____ _____    ______ ____

>  <TORSDO>
F 24

$$$$
=
 OpenBabel11062418043D

 63 71  0  0  1  0  0  0  0  0999 V2000
  187.9450  177.9600  141.6090 C   0  0  2  0  0  3  0  0  0  0  0  0
  185.4970  177.8740  142.0560 C   0  0  2  0  0  3  0  0  0  0  0  0
  183.2880  177.6990  142.4550 O   0  0  0  0  0  0  0  0  0  0  0  0
  182.2690  179.0900  144.0200 N   0  0  0  0  0  1  0  0  0  0  0  0
  184.3690  178.5790  142.7620 C   0  0  2  0  0  0  0  0  0  0  0  0
  182.2820  179.5970  141.6660 F   0  0  0  0  0  0  0  0  0  0  0  0
  186.7790  178.5870  142.3770 C   0  0  2  0  0  3  0  0  0  0  0  0
  185.0720  179.1870  141.4940 C   0  0  1  0  0  0  0  0  0  0  0  0
  186.3260  179.7710  141.7660 O   0  0  0  0  0  0  0  0  0  0  0  0
  182.9240  178.9990  142.7290 C   0  0  1  0  0  0  0  0  0  0  0  0
  185.5830  177.7970  139.3810 C   0  0  1  0  0  3  0  0  0  0  0  0
  185.8880  179.1560  139.1200 O   0  0  0  0  0  0  0  0  0  0  0  0
  184.8070  178.9160  139.9850 C   0  0  2  0  0  0  0  0  0  0  0  0
  180.9160  179.7590  138.2130 C   0  0  0  0  0  0  0  0  0  0  0  0
  181.9340  180.8130  138.3790 C   0  0  0  0  0  0  0  0  0  0  0  0
  180.4210  182.4020  137.3120 C   0  0  0  0  0  3  0  0  0  0  0  0
  183.1560  180.4860  138.9730 O   0  0  0  0  0  0  0  0  0  0  0  0
  181.2030  178.5240  138.6240 C   0  0  0  0  0  3  0  0  0  0  0  0
  182.7580  176.7870  139.6350 C   0  0  0  0  0  1  0  0  0  0  0  0
  179.4580  181.4920  137.1290 C   0  0  0  0  0  3  0  0  0  0  0  0
  182.5080  178.2030  139.2380 C   0  0  0  0  0  0  0  0  0  0  0  0
  183.4380  179.1750  139.3940 C   0  0  0  0  0  0  0  0  0  0  0  0
  179.5920  180.0560  137.5680 C   0  0  0  0  0  2  0  0  0  0  0  0
  181.6990  182.0540  137.9580 C   0  0  0  0  0  3  0  0  0  0  0  0
  184.9560  177.2380  138.2540 O   0  0  0  0  0  0  0  0  0  0  0  0
  186.7710  175.6290  135.5380 O   0  0  0  0  0  1  0  0  0  0  0  0
  185.9530  177.0840  137.2730 C   0  0  1  0  0  0  0  0  0  0  0  0
  187.1620  176.3360  137.7870 C   0  0  0  0  0  2  0  0  0  0  0  0
  186.2070  175.6520  136.8180 C   0  0  2  0  0  3  0  0  0  0  0  0
  186.2860  178.2630  136.3520 C   0  0  0  0  0  2  0  0  0  0  0  0
  187.9850  179.8700  136.8360 O   0  0  0  0  0  1  0  0  0  0  0  0
  187.7740  178.5730  136.3630 C   0  0  0  0  0  2  0  0  0  0  0  0
  190.1050  177.7310  142.9030 O   0  0  0  0  0  1  0  0  0  0  0  0
  188.7460  175.7250  142.7000 C   0  0  0  0  0  2  0  0  0  0  0  0
  188.2310  176.6020  143.6870 O   0  0  0  0  0  0  0  0  0  0  0  0
  188.8610  177.1900  142.5770 C   0  0  2  0  0  0  0  0  0  0  0  0
  188.6800  179.0020  140.7690 C   0  0  0  0  0  2  0  0  0  0  0  0
  188.8750  178.4580  139.3660 C   0  0  0  0  0  2  0  0  0  0  0  0
  191.1030  177.8600  139.9530 O   0  0  0  0  0  0  0  0  0  0  0  0
  190.0670  177.5730  139.2960 C   0  0  0  0  0  0  0  0  0  0  0  0
  190.0280  176.4160  138.4610 N   0  0  0  0  0  2  0  0  0  0  0  0
  191.1820  175.5460  138.2930 C   0  0  0  0  0  2  0  0  0  0  0  0
  190.9020  174.5110  137.2130 C   0  0  0  0  0  2  0  0  0  0  0  0
  189.6160  173.8640  137.4420 N   0  0  0  0  0  2  0  0  0  0  0  0
  189.1390  173.3600  136.1640 C   0  0  0  0  0  2  0  0  0  0  0  0
  188.5630  171.9650  136.3540 C   0  0  1  0  0  3  0  0  0  0  0  0
  187.9270  171.8810  137.5930 O   0  0  0  0  0  1  0  0  0  0  0  0
  187.2740  170.2100  135.3190 O   0  0  0  0  0  1  0  0  0  0  0  0
  187.5890  171.5700  135.2430 C   0  0  1  0  0  3  0  0  0  0  0  0
  186.3200  172.4030  135.2940 C   0  0  0  0  0  2  0  0  0  0  0  0
  185.4120  171.8340  136.2050 O   0  0  0  0  0  0  0  0  0  0  0  0
  184.0960  172.1480  135.7900 C   0  0  1  0  0  3  0  0  0  0  0  0
  182.5510  170.7910  134.9700 C   0  0  0  0  0  1  0  0  0  0  0  0
  183.1950  171.1410  136.1570 O   0  0  0  0  0  0  0  0  0  0  0  0
  183.6240  173.5230  136.2790 C   0  0  2  0  0  3  0  0  0  0  0  0
  183.7680  173.6190  137.6630 O   0  0  0  0  0  1  0  0  0  0  0  0
  182.1700  173.7500  135.9020 C   0  0  0  0  0  2  0  0  0  0  0  0
  181.9340  175.1950  135.6270 C   0  0  0  0  0  0  0  0  0  0  0  0
  183.0170  176.0470  135.3760 C   0  0  0  0  0  3  0  0  0  0  0  0
  180.4050  177.0530  135.3360 C   0  0  0  0  0  3  0  0  0  0  0  0
  181.4880  177.9050  135.0940 C   0  0  0  0  0  3  0  0  0  0  0  0
  180.6270  175.7000  135.6050 C   0  0  0  0  0  3  0  0  0  0  0  0
  182.7930  177.4020  135.1120 C   0  0  0  0  0  3  0  0  0  0  0  0
  1 37  1  1  0  0  0
  1  7  1  0  0  0  0
  1 36  1  0  0  0  0
  2  7  1  0  0  0  0
  2  5  1  0  0  0  0
  3 10  1  0  0  0  0
  3  5  1  0  0  0  0
  6 10  1  0  0  0  0
  8  9  1  0  0  0  0
  8  2  1  0  0  0  0
  8  5  1  0  0  0  0
  9  7  1  0  0  0  0
 10  5  1  0  0  0  0
 10  4  1  0  0  0  0
 11 13  1  0  0  0  0
 12 11  1  0  0  0  0
 12 13  1  0  0  0  0
 13  8  1  0  0  0  0
 14 15  1  0  0  0  0
 14 18  2  0  0  0  0
 15 17  1  0  0  0  0
 16 24  1  0  0  0  0
 17 22  1  0  0  0  0
 18 21  1  0  0  0  0
 20 16  2  0  0  0  0
 20 23  1  0  0  0  0
 21 22  2  0  0  0  0
 21 19  1  0  0  0  0
 22 13  1  0  0  0  0
 23 14  1  0  0  0  0
 24 15  2  0  0  0  0
 25 11  1  0  0  0  0
 26 29  1  0  0  0  0
 27 28  1  0  0  0  0
 27 25  1  0  0  0  0
 29 27  1  0  0  0  0
 29 28  1  0  0  0  0
 30 32  1  0  0  0  0
 30 27  1  0  0  0  0
 32 31  1  0  0  0  0
 34 35  1  0  0  0  0
 36 34  1  0  0  0  0
 36 33  1  0  0  0  0
 36 35  1  0  0  0  0
 38 37  1  0  0  0  0
 40 38  1  0  0  0  0
 40 39  2  0  0  0  0
 41 40  1  0  0  0  0
 42 41  1  0  0  0  0
 43 44  1  0  0  0  0
 43 42  1  0  0  0  0
 45 46  1  0  0  0  0
 45 44  1  0  0  0  0
 46 47  1  0  0  0  0
 49 50  1  0  0  0  0
 49 48  1  0  0  0  0
 49 46  1  0  0  0  0
 50 51  1  0  0  0  0
 52 54  1  0  0  0  0
 52 51  1  0  0  0  0
 52 55  1  0  0  0  0
 53 54  1  0  0  0  0
 55 56  1  0  0  0  0
 57 55  1  0  0  0  0
 58 57  1  0  0  0  0
 59 58  2  0  0  0  0
 60 62  2  0  0  0  0
 61 63  2  0  0  0  0
 61 60  1  0  0  0  0
 62 58  1  0  0  0  0
 63 59  1  0  0  0  0
M  END
>  <MODEL>
5

>  <REMARK>
 VINA RESULT:      -3.8      2.923      8.403
  Name = 
  24 active torsions:
  status: ('A' for Active; 'I' for Inactive)
    1  A    between atoms: O_3  and  C_44
    2  A    between atoms: O_3  and  C_47
    3  A    between atoms: C_6  and  C_7
    4  A    between atoms: C_6  and  C_28
    5  A    between atoms: C_11  and  C_60
    6  A    between atoms: C_21  and  C_38
    7  A    between atoms: C_21  and  C_46
    8  A    between atoms: O_23  and  C_27
    9  A    between atoms: O_23  and  C_33
   10  A    between atoms: O_24  and  C_44
   11  A    between atoms: C_28  and  C_44
   12  A    between atoms: C_31  and  C_32
   13  A    between atoms: C_31  and  C_37
   14  A    between atoms: C_31  and  C_63
   15  A    between atoms: C_33  and  C_48
   16  A    between atoms: C_34  and  C_48
   17  A    between atoms: C_36  and  C_62
   18  A    between atoms: C_37  and  C_60
   19  A    between atoms: C_38  and  C_47
   20  A    between atoms: N_39  and  C_45
   21  A    between atoms: C_45  and  C_50
   22  A    between atoms: C_46  and  N_52
   23  A    between atoms: C_49  and  C_62
   24  A    between atoms: C_50  and  N_52
                            x       y       z     vdW  Elec       q    Type
                         _______ _______ _______ _____ _____    ______ ____

>  <TORSDO>
F 24

$$$$
=
 OpenBabel11062418043D

 63 71  0  0  1  0  0  0  0  0999 V2000
  184.7040  177.9290  139.1350 C   0  0  2  0  0  3  0  0  0  0  0  0
  182.5980  176.7890  138.4540 C   0  0  2  0  0  3  0  0  0  0  0  0
  180.6950  175.7090  137.9240 O   0  0  0  0  0  0  0  0  0  0  0  0
  178.9650  176.8460  136.8580 N   0  0  0  0  0  1  0  0  0  0  0  0
  181.3310  176.9590  137.6600 C   0  0  2  0  0  0  0  0  0  0  0  0
  180.5920  175.5520  135.6430 F   0  0  0  0  0  0  0  0  0  0  0  0
  183.3630  178.0810  138.4150 C   0  0  2  0  0  3  0  0  0  0  0  0
  182.7370  176.8240  136.9720 C   0  0  1  0  0  0  0  0  0  0  0  0
  183.5080  178.0040  137.0170 O   0  0  0  0  0  0  0  0  0  0  0  0
  180.3140  176.3230  136.7520 C   0  0  1  0  0  0  0  0  0  0  0  0
  182.7780  174.4560  135.9470 C   0  0  1  0  0  3  0  0  0  0  0  0
  183.1880  174.3760  137.3010 O   0  0  0  0  0  0  0  0  0  0  0  0
  183.5480  175.5460  136.6100 C   0  0  2  0  0  0  0  0  0  0  0  0
  187.7750  175.7260  135.5660 C   0  0  0  0  0  0  0  0  0  0  0  0
  187.2640  174.7610  136.5570 C   0  0  0  0  0  0  0  0  0  0  0  0
  189.5200  173.8650  136.8040 C   0  0  0  0  0  3  0  0  0  0  0  0
  185.9010  174.7650  136.8650 O   0  0  0  0  0  0  0  0  0  0  0  0
  186.9130  176.5630  134.9870 C   0  0  0  0  0  3  0  0  0  0  0  0
  184.5770  177.4830  134.5990 C   0  0  0  0  0  1  0  0  0  0  0  0
  190.0450  174.7120  135.9120 C   0  0  0  0  0  3  0  0  0  0  0  0
  185.4750  176.5370  135.3230 C   0  0  0  0  0  0  0  0  0  0  0  0
  185.0110  175.6530  136.2380 C   0  0  0  0  0  0  0  0  0  0  0  0
  189.2290  175.7540  135.1900 C   0  0  0  0  0  2  0  0  0  0  0  0
  188.0860  173.8900  137.1400 C   0  0  0  0  0  3  0  0  0  0  0  0
  183.5840  173.6090  135.1660 O   0  0  0  0  0  0  0  0  0  0  0  0
  183.3980  170.7140  137.3670 O   0  0  0  0  0  1  0  0  0  0  0  0
  183.2750  172.2910  135.5520 C   0  0  1  0  0  0  0  0  0  0  0  0
  184.4120  171.3290  135.2920 C   0  0  0  0  0  2  0  0  0  0  0  0
  184.0870  171.7450  136.7210 C   0  0  2  0  0  3  0  0  0  0  0  0
  181.8860  171.7250  135.2390 C   0  0  0  0  0  2  0  0  0  0  0  0
  180.6700  169.7580  134.6430 O   0  0  0  0  0  1  0  0  0  0  0  0
  181.9490  170.2360  134.9370 C   0  0  0  0  0  2  0  0  0  0  0  0
  185.7220  179.2210  141.0560 O   0  0  0  0  0  1  0  0  0  0  0  0
  183.7000  177.9620  141.5480 C   0  0  0  0  0  2  0  0  0  0  0  0
  183.4060  179.1730  140.8710 O   0  0  0  0  0  0  0  0  0  0  0  0
  184.6170  178.5380  140.5460 C   0  0  2  0  0  0  0  0  0  0  0  0
  185.8510  178.4900  138.2970 C   0  0  0  0  0  2  0  0  0  0  0  0
  187.0430  177.5580  138.4050 C   0  0  0  0  0  2  0  0  0  0  0  0
  188.6900  179.2640  138.1940 O   0  0  0  0  0  0  0  0  0  0  0  0
  188.2540  178.2880  138.8620 C   0  0  0  0  0  0  0  0  0  0  0  0
  188.9220  177.8560  140.0470 N   0  0  0  0  0  2  0  0  0  0  0  0
  190.1510  178.4830  140.5130 C   0  0  0  0  0  2  0  0  0  0  0  0
  191.3180  177.5180  140.3620 C   0  0  0  0  0  2  0  0  0  0  0  0
  192.1460  177.5210  141.5610 N   0  0  0  0  0  2  0  0  0  0  0  0
  191.9460  176.2510  142.2410 C   0  0  0  0  0  2  0  0  0  0  0  0
  192.0730  176.4570  143.7430 C   0  0  1  0  0  3  0  0  0  0  0  0
  191.6010  177.7250  144.0870 O   0  0  0  0  0  1  0  0  0  0  0  0
  192.2190  174.4090  145.0070 O   0  0  0  0  0  1  0  0  0  0  0  0
  191.3340  175.3910  144.5530 C   0  0  1  0  0  3  0  0  0  0  0  0
  190.5870  176.0030  145.7260 C   0  0  0  0  0  2  0  0  0  0  0  0
  191.0910  175.4860  146.9330 O   0  0  0  0  0  0  0  0  0  0  0  0
  190.9930  176.4850  147.9300 C   0  0  1  0  0  3  0  0  0  0  0  0
  193.0530  176.0590  148.6220 C   0  0  0  0  0  1  0  0  0  0  0  0
  192.2340  177.0920  148.1630 O   0  0  0  0  0  0  0  0  0  0  0  0
  189.9110  177.5290  147.6300 C   0  0  2  0  0  3  0  0  0  0  0  0
  190.0960  178.6600  148.4250 O   0  0  0  0  0  1  0  0  0  0  0  0
  188.5290  176.9490  147.8830 C   0  0  0  0  0  2  0  0  0  0  0  0
  187.5450  177.5400  146.9320 C   0  0  0  0  0  0  0  0  0  0  0  0
  187.6250  177.2420  145.5670 C   0  0  0  0  0  3  0  0  0  0  0  0
  185.6040  178.9300  146.5170 C   0  0  0  0  0  3  0  0  0  0  0  0
  185.6880  178.6380  145.1520 C   0  0  0  0  0  3  0  0  0  0  0  0
  186.5330  178.3840  147.4070 C   0  0  0  0  0  3  0  0  0  0  0  0
  186.6970  177.7930  144.6770 C   0  0  0  0  0  3  0  0  0  0  0  0
  1 37  1  6  0  0  0
  1 36  1  0  0  0  0
  5  3  1  0  0  0  0
  5  2  1  0  0  0  0
  6 10  1  0  0  0  0
  7  2  1  0  0  0  0
  7  1  1  0  0  0  0
  8  9  1  0  0  0  0
  8  5  1  0  0  0  0
  8  2  1  0  0  0  0
  9  7  1  0  0  0  0
 10  4  1  0  0  0  0
 10  5  1  0  0  0  0
 10  3  1  0  0  0  0
 11 13  1  0  0  0  0
 11 12  1  0  0  0  0
 13  8  1  0  0  0  0
 13 12  1  0  0  0  0
 14 15  1  0  0  0  0
 15 17  1  0  0  0  0
 15 24  2  0  0  0  0
 16 24  1  0  0  0  0
 18 21  1  0  0  0  0
 18 14  2  0  0  0  0
 19 21  1  0  0  0  0
 20 16  2  0  0  0  0
 21 22  2  0  0  0  0
 22 13  1  0  0  0  0
 22 17  1  0  0  0  0
 23 14  1  0  0  0  0
 23 20  1  0  0  0  0
 25 27  1  0  0  0  0
 25 11  1  0  0  0  0
 27 29  1  0  0  0  0
 28 27  1  0  0  0  0
 28 29  1  0  0  0  0
 29 26  1  0  0  0  0
 30 27  1  0  0  0  0
 31 32  1  0  0  0  0
 32 30  1  0  0  0  0
 35 34  1  0  0  0  0
 36 35  1  0  0  0  0
 36 33  1  0  0  0  0
 36 34  1  0  0  0  0
 37 38  1  0  0  0  0
 38 40  1  0  0  0  0
 39 40  2  0  0  0  0
 40 41  1  0  0  0  0
 41 42  1  0  0  0  0
 43 42  1  0  0  0  0
 43 44  1  0  0  0  0
 44 45  1  0  0  0  0
 45 46  1  0  0  0  0
 46 47  1  0  0  0  0
 46 49  1  0  0  0  0
 49 48  1  0  0  0  0
 49 50  1  0  0  0  0
 50 51  1  0  0  0  0
 51 52  1  0  0  0  0
 52 54  1  0  0  0  0
 54 53  1  0  0  0  0
 55 57  1  0  0  0  0
 55 52  1  0  0  0  0
 55 56  1  0  0  0  0
 58 62  1  0  0  0  0
 58 57  1  0  0  0  0
 59 58  2  0  0  0  0
 60 62  2  0  0  0  0
 61 60  1  0  0  0  0
 63 61  2  0  0  0  0
 63 59  1  0  0  0  0
M  END
>  <MODEL>
6

>  <REMARK>
 VINA RESULT:      -3.7      2.254      4.769
  Name = 
  24 active torsions:
  status: ('A' for Active; 'I' for Inactive)
    1  A    between atoms: O_3  and  C_44
    2  A    between atoms: O_3  and  C_47
    3  A    between atoms: C_6  and  C_7
    4  A    between atoms: C_6  and  C_28
    5  A    between atoms: C_11  and  C_60
    6  A    between atoms: C_21  and  C_38
    7  A    between atoms: C_21  and  C_46
    8  A    between atoms: O_23  and  C_27
    9  A    between atoms: O_23  and  C_33
   10  A    between atoms: O_24  and  C_44
   11  A    between atoms: C_28  and  C_44
   12  A    between atoms: C_31  and  C_32
   13  A    between atoms: C_31  and  C_37
   14  A    between atoms: C_31  and  C_63
   15  A    between atoms: C_33  and  C_48
   16  A    between atoms: C_34  and  C_48
   17  A    between atoms: C_36  and  C_62
   18  A    between atoms: C_37  and  C_60
   19  A    between atoms: C_38  and  C_47
   20  A    between atoms: N_39  and  C_45
   21  A    between atoms: C_45  and  C_50
   22  A    between atoms: C_46  and  N_52
   23  A    between atoms: C_49  and  C_62
   24  A    between atoms: C_50  and  N_52
                            x       y       z     vdW  Elec       q    Type
                         _______ _______ _______ _____ _____    ______ ____

>  <TORSDO>
F 24

$$$$
=
 OpenBabel11062418043D

 63 71  0  0  1  0  0  0  0  0999 V2000
  181.5120  178.1270  140.9710 C   0  0  2  0  0  3  0  0  0  0  0  0
  181.4970  176.2090  139.3830 C   0  0  2  0  0  3  0  0  0  0  0  0
  181.5830  174.4790  137.9440 O   0  0  0  0  0  0  0  0  0  0  0  0
  180.1410  172.6690  138.2070 N   0  0  0  0  0  1  0  0  0  0  0  0
  180.7440  174.9660  138.9910 C   0  0  2  0  0  0  0  0  0  0  0  0
  179.6530  174.4950  136.7160 F   0  0  0  0  0  0  0  0  0  0  0  0
  180.8340  176.8100  140.5880 C   0  0  2  0  0  3  0  0  0  0  0  0
  180.1740  176.4070  138.7290 C   0  0  1  0  0  0  0  0  0  0  0  0
  179.6370  177.0230  139.8790 O   0  0  0  0  0  0  0  0  0  0  0  0
  180.2680  174.0760  137.8760 C   0  0  1  0  0  0  0  0  0  0  0  0
  179.8790  178.7540  137.6980 C   0  0  1  0  0  3  0  0  0  0  0  0
  179.3150  177.7940  136.8210 O   0  0  0  0  0  0  0  0  0  0  0  0
  180.4450  177.3840  137.5490 C   0  0  2  0  0  0  0  0  0  0  0  0
  184.1920  177.0310  135.3520 C   0  0  0  0  0  0  0  0  0  0  0  0
  184.1660  177.3820  136.7840 C   0  0  0  0  0  0  0  0  0  0  0  0
  186.6060  177.4270  136.7880 C   0  0  0  0  0  3  0  0  0  0  0  0
  182.9320  177.5000  137.4290 O   0  0  0  0  0  0  0  0  0  0  0  0
  183.0340  176.8250  134.7240 C   0  0  0  0  0  3  0  0  0  0  0  0
  180.4990  176.6600  134.6640 C   0  0  0  0  0  1  0  0  0  0  0  0
  186.6980  177.1080  135.4920 C   0  0  0  0  0  3  0  0  0  0  0  0
  181.7440  176.9450  135.4350 C   0  0  0  0  0  0  0  0  0  0  0  0
  181.7250  177.2730  136.7480 C   0  0  0  0  0  0  0  0  0  0  0  0
  185.4920  176.8790  134.6160 C   0  0  0  0  0  2  0  0  0  0  0  0
  185.3010  177.5710  137.4560 C   0  0  0  0  0  3  0  0  0  0  0  0
  180.5700  179.7200  136.9460 O   0  0  0  0  0  0  0  0  0  0  0  0
  180.0750  182.9990  138.4490 O   0  0  0  0  0  1  0  0  0  0  0  0
  179.9350  180.9510  137.1910 C   0  0  1  0  0  0  0  0  0  0  0  0
  178.9670  180.8840  138.3510 C   0  0  0  0  0  2  0  0  0  0  0  0
  180.2920  181.6190  138.5140 C   0  0  2  0  0  3  0  0  0  0  0  0
  179.4400  181.7880  136.0060 C   0  0  0  0  0  2  0  0  0  0  0  0
  181.3860  182.9280  135.2200 O   0  0  0  0  0  1  0  0  0  0  0  0
  180.4990  181.8920  134.9200 C   0  0  0  0  0  2  0  0  0  0  0  0
  179.6260  179.8090  140.8970 O   0  0  0  0  0  1  0  0  0  0  0  0
  180.8050  179.5960  143.0130 C   0  0  0  0  0  2  0  0  0  0  0  0
  179.8850  178.5340  142.8230 O   0  0  0  0  0  0  0  0  0  0  0  0
  180.5060  179.0540  141.6740 C   0  0  2  0  0  0  0  0  0  0  0  0
  182.1970  178.7680  139.7660 C   0  0  0  0  0  2  0  0  0  0  0  0
  183.4180  179.5330  140.2410 C   0  0  0  0  0  2  0  0  0  0  0  0
  184.0250  177.5210  141.3580 O   0  0  0  0  0  0  0  0  0  0  0  0
  184.1540  178.7720  141.2840 C   0  0  0  0  0  0  0  0  0  0  0  0
  184.9830  179.4770  142.2070 N   0  0  0  0  0  2  0  0  0  0  0  0
  185.6770  178.8020  143.2940 C   0  0  0  0  0  2  0  0  0  0  0  0
  186.6180  177.7460  142.7340 C   0  0  0  0  0  2  0  0  0  0  0  0
  187.6710  178.3640  141.9380 N   0  0  0  0  0  2  0  0  0  0  0  0
  188.7740  178.6800  142.8300 C   0  0  0  0  0  2  0  0  0  0  0  0
  189.1740  177.4300  143.6010 C   0  0  1  0  0  3  0  0  0  0  0  0
  188.0880  176.5580  143.6830 O   0  0  0  0  0  1  0  0  0  0  0  0
  190.4600  175.3960  143.4500 O   0  0  0  0  0  1  0  0  0  0  0  0
  190.3720  176.7100  142.9820 C   0  0  1  0  0  3  0  0  0  0  0  0
  190.3030  176.7190  141.4640 C   0  0  0  0  0  2  0  0  0  0  0  0
  191.4600  177.3220  140.9380 O   0  0  0  0  0  0  0  0  0  0  0  0
  191.7080  176.7840  139.6530 C   0  0  1  0  0  3  0  0  0  0  0  0
  190.0200  176.7790  138.2180 C   0  0  0  0  0  1  0  0  0  0  0  0
  191.0960  177.5530  138.6550 O   0  0  0  0  0  0  0  0  0  0  0  0
  193.2000  176.5820  139.3640 C   0  0  2  0  0  3  0  0  0  0  0  0
  193.9520  177.5810  139.9820 O   0  0  0  0  0  1  0  0  0  0  0  0
  193.4580  176.6020  137.8660 C   0  0  0  0  0  2  0  0  0  0  0  0
  193.7880  175.2300  137.3870 C   0  0  0  0  0  0  0  0  0  0  0  0
  194.7900  174.4870  138.0230 C   0  0  0  0  0  3  0  0  0  0  0  0
  193.3870  173.3870  135.8650 C   0  0  0  0  0  3  0  0  0  0  0  0
  194.3930  172.6490  136.4960 C   0  0  0  0  0  3  0  0  0  0  0  0
  193.0860  174.6780  136.3080 C   0  0  0  0  0  3  0  0  0  0  0  0
  195.0930  173.1970  137.5760 C   0  0  0  0  0  3  0  0  0  0  0  0
  1 37  1  6  0  0  0
  1 36  1  0  0  0  0
  2  7  1  0  0  0  0
  3  5  1  0  0  0  0
  5  2  1  0  0  0  0
  6 10  1  0  0  0  0
  7  1  1  0  0  0  0
  8  5  1  0  0  0  0
  8  2  1  0  0  0  0
  8  9  1  0  0  0  0
  9  7  1  0  0  0  0
 10  3  1  0  0  0  0
 10  4  1  0  0  0  0
 10  5  1  0  0  0  0
 12 13  1  0  0  0  0
 12 11  1  0  0  0  0
 13 11  1  0  0  0  0
 13  8  1  0  0  0  0
 14 15  1  0  0  0  0
 15 17  1  0  0  0  0
 15 24  2  0  0  0  0
 16 24  1  0  0  0  0
 18 14  2  0  0  0  0
 18 21  1  0  0  0  0
 19 21  1  0  0  0  0
 20 16  2  0  0  0  0
 21 22  2  0  0  0  0
 22 17  1  0  0  0  0
 22 13  1  0  0  0  0
 23 14  1  0  0  0  0
 23 20  1  0  0  0  0
 25 27  1  0  0  0  0
 25 11  1  0  0  0  0
 26 29  1  0  0  0  0
 27 28  1  0  0  0  0
 27 29  1  0  0  0  0
 28 29  1  0  0  0  0
 30 27  1  0  0  0  0
 32 31  1  0  0  0  0
 32 30  1  0  0  0  0
 33 36  1  0  0  0  0
 35 34  1  0  0  0  0
 36 35  1  0  0  0  0
 36 34  1  0  0  0  0
 37 38  1  0  0  0  0
 38 40  1  0  0  0  0
 40 39  2  0  0  0  0
 40 41  1  0  0  0  0
 41 42  1  0  0  0  0
 43 42  1  0  0  0  0
 44 43  1  0  0  0  0
 44 45  1  0  0  0  0
 45 46  1  0  0  0  0
 46 47  1  0  0  0  0
 49 48  1  0  0  0  0
 49 46  1  0  0  0  0
 50 49  1  0  0  0  0
 51 50  1  0  0  0  0
 52 51  1  0  0  0  0
 53 54  1  0  0  0  0
 54 52  1  0  0  0  0
 55 52  1  0  0  0  0
 55 56  1  0  0  0  0
 57 55  1  0  0  0  0
 58 57  1  0  0  0  0
 58 59  1  0  0  0  0
 60 62  1  0  0  0  0
 60 61  2  0  0  0  0
 61 63  1  0  0  0  0
 62 58  2  0  0  0  0
 63 59  2  0  0  0  0
M  END
>  <MODEL>
7

>  <REMARK>
 VINA RESULT:      -3.4      3.466      7.548
  Name = 
  24 active torsions:
  status: ('A' for Active; 'I' for Inactive)
    1  A    between atoms: O_3  and  C_44
    2  A    between atoms: O_3  and  C_47
    3  A    between atoms: C_6  and  C_7
    4  A    between atoms: C_6  and  C_28
    5  A    between atoms: C_11  and  C_60
    6  A    between atoms: C_21  and  C_38
    7  A    between atoms: C_21  and  C_46
    8  A    between atoms: O_23  and  C_27
    9  A    between atoms: O_23  and  C_33
   10  A    between atoms: O_24  and  C_44
   11  A    between atoms: C_28  and  C_44
   12  A    between atoms: C_31  and  C_32
   13  A    between atoms: C_31  and  C_37
   14  A    between atoms: C_31  and  C_63
   15  A    between atoms: C_33  and  C_48
   16  A    between atoms: C_34  and  C_48
   17  A    between atoms: C_36  and  C_62
   18  A    between atoms: C_37  and  C_60
   19  A    between atoms: C_38  and  C_47
   20  A    between atoms: N_39  and  C_45
   21  A    between atoms: C_45  and  C_50
   22  A    between atoms: C_46  and  N_52
   23  A    between atoms: C_49  and  C_62
   24  A    between atoms: C_50  and  N_52
                            x       y       z     vdW  Elec       q    Type
                         _______ _______ _______ _____ _____    ______ ____

>  <TORSDO>
F 24

$$$$
=
 OpenBabel11062418043D

 63 71  0  0  1  0  0  0  0  0999 V2000
  186.1840  176.2600  136.3970 C   0  0  2  0  0  3  0  0  0  0  0  0
  184.1240  175.0500  135.6940 C   0  0  2  0  0  3  0  0  0  0  0  0
  182.2420  174.0300  134.9970 O   0  0  0  0  0  0  0  0  0  0  0  0
  182.2220  171.7290  134.6440 N   0  0  0  0  0  1  0  0  0  0  0  0
  183.5310  173.6800  135.5000 C   0  0  2  0  0  0  0  0  0  0  0  0
  181.4830  172.7180  136.7110 F   0  0  0  0  0  0  0  0  0  0  0  0
  185.5620  174.8940  136.1000 C   0  0  2  0  0  3  0  0  0  0  0  0
  183.8370  174.2640  136.9270 C   0  0  1  0  0  0  0  0  0  0  0  0
  185.2010  174.2150  137.2790 O   0  0  0  0  0  0  0  0  0  0  0  0
  182.3150  172.8020  135.6160 C   0  0  1  0  0  0  0  0  0  0  0  0
  183.6690  175.7740  139.0120 C   0  0  1  0  0  3  0  0  0  0  0  0
  182.7050  174.7410  139.1160 O   0  0  0  0  0  0  0  0  0  0  0  0
  182.9800  175.2070  137.8190 C   0  0  2  0  0  0  0  0  0  0  0  0
  179.9580  177.7290  135.9490 C   0  0  0  0  0  0  0  0  0  0  0  0
  181.3870  178.0910  135.9290 C   0  0  0  0  0  0  0  0  0  0  0  0
  180.8360  180.0720  134.6140 C   0  0  0  0  0  3  0  0  0  0  0  0
  182.3070  177.2520  136.5630 O   0  0  0  0  0  0  0  0  0  0  0  0
  179.5940  176.6030  136.5630 C   0  0  0  0  0  3  0  0  0  0  0  0
  180.0980  174.4690  137.8460 C   0  0  0  0  0  1  0  0  0  0  0  0
  179.5280  179.7980  134.5940 C   0  0  0  0  0  3  0  0  0  0  0  0
  180.5890  175.7280  137.2160 C   0  0  0  0  0  0  0  0  0  0  0  0
  181.9000  176.0680  137.1990 C   0  0  0  0  0  0  0  0  0  0  0  0
  178.9310  178.5900  135.2700 C   0  0  0  0  0  2  0  0  0  0  0  0
  181.7970  179.1940  135.3040 C   0  0  0  0  0  3  0  0  0  0  0  0
  183.1030  176.9830  139.4520 O   0  0  0  0  0  0  0  0  0  0  0  0
  185.2500  179.9070  139.1460 O   0  0  0  0  0  1  0  0  0  0  0  0
  184.1750  177.8420  139.7580 C   0  0  1  0  0  0  0  0  0  0  0  0
  185.4150  177.5310  138.9510 C   0  0  0  0  0  2  0  0  0  0  0  0
  184.6010  178.7800  138.6340 C   0  0  2  0  0  3  0  0  0  0  0  0
  184.4500  178.2060  141.2210 C   0  0  0  0  0  2  0  0  0  0  0  0
  182.0670  178.3300  141.1520 O   0  0  0  0  0  1  0  0  0  0  0  0
  183.1810  178.6490  141.9310 C   0  0  0  0  0  2  0  0  0  0  0  0
  184.4200  177.1310  134.8070 O   0  0  0  0  0  1  0  0  0  0  0  0
  186.6430  178.0950  134.5940 C   0  0  0  0  0  2  0  0  0  0  0  0
  185.9420  178.6460  135.6960 O   0  0  0  0  0  0  0  0  0  0  0  0
  185.6810  177.3010  135.3810 C   0  0  2  0  0  0  0  0  0  0  0  0
  187.7070  176.1700  136.4770 C   0  0  0  0  0  2  0  0  0  0  0  0
  188.0950  175.5520  137.8080 C   0  0  0  0  0  2  0  0  0  0  0  0
  188.7630  177.0980  139.4900 O   0  0  0  0  0  0  0  0  0  0  0  0
  189.1060  176.3840  138.5100 C   0  0  0  0  0  0  0  0  0  0  0  0
  190.4560  176.3810  138.0450 N   0  0  0  0  0  2  0  0  0  0  0  0
  191.4810  177.2240  138.6420 C   0  0  0  0  0  2  0  0  0  0  0  0
  192.4340  176.3750  139.4710 C   0  0  0  0  0  2  0  0  0  0  0  0
  192.8060  177.0680  140.6980 N   0  0  0  0  0  2  0  0  0  0  0  0
  191.8720  176.6620  141.7370 C   0  0  0  0  0  2  0  0  0  0  0  0
  191.2320  177.8980  142.3520 C   0  0  1  0  0  3  0  0  0  0  0  0
  189.8710  177.6700  142.5620 O   0  0  0  0  0  1  0  0  0  0  0  0
  191.3990  179.5510  144.0990 O   0  0  0  0  0  1  0  0  0  0  0  0
  191.8960  178.3200  143.6620 C   0  0  1  0  0  3  0  0  0  0  0  0
  191.7090  177.2690  144.7440 C   0  0  0  0  0  2  0  0  0  0  0  0
  191.3850  177.8920  145.9620 O   0  0  0  0  0  0  0  0  0  0  0  0
  190.7610  176.9420  146.8060 C   0  0  1  0  0  3  0  0  0  0  0  0
  192.5110  175.5890  146.9270 C   0  0  0  0  0  1  0  0  0  0  0  0
  191.6770  176.3880  147.7100 O   0  0  0  0  0  0  0  0  0  0  0  0
  189.5300  177.4990  147.5300 C   0  0  2  0  0  3  0  0  0  0  0  0
  189.7860  177.6170  148.8960 O   0  0  0  0  0  1  0  0  0  0  0  0
  188.3310  176.5910  147.3130 C   0  0  0  0  0  2  0  0  0  0  0  0
  187.2400  177.3420  146.6300 C   0  0  0  0  0  0  0  0  0  0  0  0
  186.3100  178.0680  147.3830 C   0  0  0  0  0  3  0  0  0  0  0  0
  186.1370  178.0460  144.5900 C   0  0  0  0  0  3  0  0  0  0  0  0
  185.2040  178.7640  145.3430 C   0  0  0  0  0  3  0  0  0  0  0  0
  187.1530  177.3330  145.2310 C   0  0  0  0  0  3  0  0  0  0  0  0
  185.2910  178.7780  146.7400 C   0  0  0  0  0  3  0  0  0  0  0  0
  1 37  1  6  0  0  0
  2  7  1  0  0  0  0
  2  8  1  0  0  0  0
  3  5  1  0  0  0  0
  3 10  1  0  0  0  0
  4 10  1  0  0  0  0
  5 10  1  0  0  0  0
  5  2  1  0  0  0  0
  5  8  1  0  0  0  0
  7  1  1  0  0  0  0
  7  9  1  0  0  0  0
  8  9  1  0  0  0  0
  8 13  1  0  0  0  0
 10  6  1  0  0  0  0
 11 12  1  0  0  0  0
 11 25  1  0  0  0  0
 13 11  1  0  0  0  0
 13 12  1  0  0  0  0
 14 18  2  0  0  0  0
 15 14  1  0  0  0  0
 15 17  1  0  0  0  0
 16 24  1  0  0  0  0
 17 22  1  0  0  0  0
 18 21  1  0  0  0  0
 20 16  2  0  0  0  0
 20 23  1  0  0  0  0
 21 19  1  0  0  0  0
 22 21  2  0  0  0  0
 22 13  1  0  0  0  0
 23 14  1  0  0  0  0
 24 15  2  0  0  0  0
 25 27  1  0  0  0  0
 27 30  1  0  0  0  0
 28 27  1  0  0  0  0
 29 28  1  0  0  0  0
 29 26  1  0  0  0  0
 29 27  1  0  0  0  0
 30 32  1  0  0  0  0
 31 32  1  0  0  0  0
 33 36  1  0  0  0  0
 34 36  1  0  0  0  0
 34 35  1  0  0  0  0
 36 35  1  0  0  0  0
 36  1  1  0  0  0  0
 37 38  1  0  0  0  0
 38 40  1  0  0  0  0
 40 39  2  0  0  0  0
 41 40  1  0  0  0  0
 41 42  1  0  0  0  0
 42 43  1  0  0  0  0
 43 44  1  0  0  0  0
 44 45  1  0  0  0  0
 45 46  1  0  0  0  0
 46 47  1  0  0  0  0
 46 49  1  0  0  0  0
 49 48  1  0  0  0  0
 49 50  1  0  0  0  0
 50 51  1  0  0  0  0
 51 52  1  0  0  0  0
 52 55  1  0  0  0  0
 52 54  1  0  0  0  0
 53 54  1  0  0  0  0
 55 56  1  0  0  0  0
 57 55  1  0  0  0  0
 58 57  1  0  0  0  0
 58 59  1  0  0  0  0
 60 62  1  0  0  0  0
 60 61  2  0  0  0  0
 61 63  1  0  0  0  0
 62 58  2  0  0  0  0
 63 59  2  0  0  0  0
M  END
>  <MODEL>
8

>  <REMARK>
 VINA RESULT:      -2.8      2.154      4.189
  Name = 
  24 active torsions:
  status: ('A' for Active; 'I' for Inactive)
    1  A    between atoms: O_3  and  C_44
    2  A    between atoms: O_3  and  C_47
    3  A    between atoms: C_6  and  C_7
    4  A    between atoms: C_6  and  C_28
    5  A    between atoms: C_11  and  C_60
    6  A    between atoms: C_21  and  C_38
    7  A    between atoms: C_21  and  C_46
    8  A    between atoms: O_23  and  C_27
    9  A    between atoms: O_23  and  C_33
   10  A    between atoms: O_24  and  C_44
   11  A    between atoms: C_28  and  C_44
   12  A    between atoms: C_31  and  C_32
   13  A    between atoms: C_31  and  C_37
   14  A    between atoms: C_31  and  C_63
   15  A    between atoms: C_33  and  C_48
   16  A    between atoms: C_34  and  C_48
   17  A    between atoms: C_36  and  C_62
   18  A    between atoms: C_37  and  C_60
   19  A    between atoms: C_38  and  C_47
   20  A    between atoms: N_39  and  C_45
   21  A    between atoms: C_45  and  C_50
   22  A    between atoms: C_46  and  N_52
   23  A    between atoms: C_49  and  C_62
   24  A    between atoms: C_50  and  N_52
                            x       y       z     vdW  Elec       q    Type
                         _______ _______ _______ _____ _____    ______ ____

>  <TORSDO>
F 24

$$$$
