=
 OpenBabel11062417473D

 64 68  0  0  1  0  0  0  0  0999 V2000
  188.4190  178.4660  143.7060 C   0  0  0  0  0  2  0  0  0  0  0  0
  188.4920  178.4740  145.2270 C   0  0  2  0  0  3  0  0  0  0  0  0
  191.1160  176.6640  147.4100 C   0  0  0  0  0  3  0  0  0  0  0  0
  189.7520  177.9120  143.2220 C   0  0  1  0  0  3  0  0  0  0  0  0
  190.4440  177.4610  144.4610 C   0  0  0  0  0  0  0  0  0  0  0  0
  192.9240  175.1780  147.2180 O   0  0  0  0  0  0  0  0  0  0  0  0
  190.1500  177.4750  146.9590 C   0  0  0  0  0  3  0  0  0  0  0  0
  189.7440  177.7320  145.5570 C   0  0  0  0  0  0  0  0  0  0  0  0
  191.9970  175.7810  146.6220 C   0  0  0  0  0  0  0  0  0  0  0  0
  191.8270  175.5490  145.1590 C   0  0  0  0  0  2  0  0  0  0  0  0
  191.8160  176.8760  144.4350 C   0  0  0  0  0  2  0  0  0  0  0  0
  187.6170  178.9580  141.3750 C   0  0  0  0  0  2  0  0  0  0  0  0
  189.7810  176.0530  139.9010 C   0  0  0  0  0  2  0  0  0  0  0  0
  188.3590  178.0800  140.3800 C   0  0  0  0  0  0  0  0  0  0  0  0
  189.5400  176.7790  142.2620 C   0  0  0  0  0  0  0  0  0  0  0  0
  189.2760  177.0280  140.8680 N   0  0  0  0  0  0  0  0  0  0  0  0
  187.8350  177.9250  138.9780 C   0  0  0  0  0  0  0  0  0  0  0  0
  188.8650  179.4820  140.6610 C   0  0  0  0  0  2  0  0  0  0  0  0
  189.6600  175.5910  142.6720 O   0  0  0  0  0  0  0  0  0  0  0  0
  186.7190  178.3310  138.6890 O   0  0  0  0  0  0  0  0  0  0  0  0
  190.0060  176.7140  138.5420 C   0  0  2  0  0  3  0  0  0  0  0  0
  188.6710  177.2080  137.9450 C   0  0  2  0  0  3  0  0  0  0  0  0
  189.7050  177.4990  135.7840 F   0  0  0  0  0  0  0  0  0  0  0  0
  188.9010  178.1150  136.7350 C   0  0  0  0  0  3  0  0  0  0  0  0
  187.6990  178.4870  136.1620 F   0  0  0  0  0  0  0  0  0  0  0  0
  190.6380  175.8150  137.6790 O   0  0  0  0  0  0  0  0  0  0  0  0
  192.0020  176.0870  137.8270 C   0  0  0  0  0  2  0  0  0  0  0  0
  192.8210  175.1190  136.9950 C   0  0  0  0  0  2  0  0  0  0  0  0
  193.9500  175.8820  136.3310 C   0  0  0  0  0  2  0  0  0  0  0  0
  194.5530  175.0730  135.1940 C   0  0  2  0  0  3  0  0  0  0  0  0
  193.6140  174.1530  134.7240 O   0  0  0  0  0  1  0  0  0  0  0  0
  195.7850  174.3150  135.6760 C   0  0  0  0  0  2  0  0  0  0  0  0
  196.5860  175.0480  136.7550 C   0  0  2  0  0  3  0  0  0  0  0  0
  197.3540  176.0850  136.2190 O   0  0  0  0  0  1  0  0  0  0  0  0
  197.4060  174.1150  137.6570 C   0  0  2  0  0  3  0  0  0  0  0  0
  197.1590  171.7290  137.5920 O   0  0  0  0  0  0  0  0  0  0  0  0
  195.4660  172.8810  138.6220 O   0  0  0  0  0  1  0  0  0  0  0  0
  196.6820  172.8390  137.9520 C   0  0  0  0  0  0  0  0  0  0  0  0
  197.9610  174.7650  138.9300 C   0  0  0  0  0  2  0  0  0  0  0  0
  199.1780  175.4070  138.6890 O   0  0  0  0  0  1  0  0  0  0  0  0
  187.1580  176.5970  145.9110 O   0  0  0  0  0  0  0  0  0  0  0  0
  187.2490  177.8490  145.8050 C   0  0  0  0  0  0  0  0  0  0  0  0
  186.1590  178.6390  146.1730 O   0  0  0  0  0  0  0  0  0  0  0  0
  184.8170  178.2040  145.9880 C   0  0  0  0  0  2  0  0  0  0  0  0
  184.3450  178.5170  144.6010 C   0  0  0  0  0  0  0  0  0  0  0  0
  185.0840  178.1780  143.5430 C   0  0  0  0  0  2  0  0  0  0  0  0
  183.0600  179.2650  144.4270 C   0  0  0  0  0  2  0  0  0  0  0  0
  182.1250  178.5490  143.4630 C   0  0  0  0  0  2  0  0  0  0  0  0
  181.4790  179.5280  142.4860 C   0  0  1  0  0  3  0  0  0  0  0  0
  182.6080  179.3070  140.2920 C   0  0  0  0  0  2  0  0  0  0  0  0
  181.4620  178.9200  141.1390 N   0  0  0  0  0  0  0  0  0  0  0  0
  182.6560  178.0580  141.0430 C   0  0  1  0  0  3  0  0  0  0  0  0
  182.3670  176.9050  140.1050 C   0  0  0  0  0  2  0  0  0  0  0  0
  180.9450  177.0100  139.5930 C   0  0  0  0  0  2  0  0  0  0  0  0
  180.6970  175.8400  138.2290 S   0  0  0  0  0  0  0  0  0  0  0  0
  179.2620  176.6300  136.1520 O   0  0  0  0  0  1  0  0  0  0  0  0
  180.1880  177.1390  137.0630 C   0  0  2  0  0  3  0  0  0  0  0  0
  181.3970  177.6870  136.3150 C   0  0  0  0  0  2  0  0  0  0  0  0
  182.5390  176.9350  136.6120 O   0  0  0  0  0  0  0  0  0  0  0  0
  183.0850  176.6180  135.3700 C   0  0  0  0  0  1  0  0  0  0  0  0
  180.1060  179.9770  143.0300 C   0  0  0  0  0  2  0  0  0  0  0  0
  179.1070  180.2130  141.9000 C   0  0  0  0  0  2  0  0  0  0  0  0
  179.2690  181.4960  141.3630 O   0  0  0  0  0  0  0  0  0  0  0  0
  179.5220  181.2840  140.0090 C   0  0  0  0  0  1  0  0  0  0  0  0
  1  2  1  0  0  0  0
  2  8  1  0  0  0  0
  2 42  1  1  0  0  0
  4 15  1  6  0  0  0
  4  1  1  0  0  0  0
  4  5  1  0  0  0  0
  5  8  2  0  0  0  0
  7  3  2  0  0  0  0
  8  7  1  0  0  0  0
  9  6  2  0  0  0  0
  9  3  1  0  0  0  0
 10  9  1  0  0  0  0
 11  5  1  0  0  0  0
 11 10  1  0  0  0  0
 13 16  1  0  0  0  0
 14 18  1  0  0  0  0
 14 16  1  0  0  0  0
 14 12  1  0  0  0  0
 15 19  2  0  0  0  0
 16 15  1  0  0  0  0
 17 14  1  0  0  0  0
 18 12  1  0  0  0  0
 20 17  2  0  0  0  0
 21 26  1  6  0  0  0
 21 13  1  0  0  0  0
 22 24  1  6  0  0  0
 22 21  1  0  0  0  0
 22 17  1  0  0  0  0
 23 24  1  0  0  0  0
 25 24  1  0  0  0  0
 26 27  1  0  0  0  0
 28 27  1  0  0  0  0
 29 28  1  0  0  0  0
 30 31  1  1  0  0  0
 30 32  1  0  0  0  0
 30 29  1  0  0  0  0
 32 33  1  0  0  0  0
 33 34  1  6  0  0  0
 33 35  1  0  0  0  0
 35 38  1  0  0  0  0
 35 39  1  1  0  0  0
 36 38  2  0  0  0  0
 38 37  1  0  0  0  0
 40 39  1  0  0  0  0
 42 41  2  0  0  0  0
 42 43  1  0  0  0  0
 44 43  1  0  0  0  0
 45 44  1  0  0  0  0
 46 45  2  0  0  0  0
 47 45  1  0  0  0  0
 48 47  1  0  0  0  0
 49 61  1  1  0  0  0
 49 48  1  0  0  0  0
 50 52  1  0  0  0  0
 50 51  1  0  0  0  0
 51 49  1  0  0  0  0
 52 53  1  6  0  0  0
 52 51  1  0  0  0  0
 54 53  1  0  0  0  0
 55 54  1  0  0  0  0
 57 56  1  6  0  0  0
 57 55  1  0  0  0  0
 58 59  1  0  0  0  0
 58 57  1  0  0  0  0
 60 59  1  0  0  0  0
 62 61  1  0  0  0  0
 63 62  1  0  0  0  0
 64 63  1  0  0  0  0
M  END
>  <MODEL>
1

>  <REMARK>
 VINA RESULT:      -5.6      0.000      0.000
  Name = 
  29 active torsions:
  status: ('A' for Active; 'I' for Inactive)
    1  A    between atoms: C_2  and  C_6
    2  A    between atoms: C_2  and  N_50
    3  A    between atoms: C_2  and  C_60
    4  A    between atoms: C_4  and  C_24
    5  A    between atoms: C_4  and  C_48
    6  A    between atoms: O_5  and  C_8
    7  A    between atoms: C_6  and  C_24
    8  A    between atoms: C_8  and  C_60
    9  A    between atoms: C_11  and  C_34
   10  A    between atoms: C_11  and  C_46
   11  A    between atoms: C_12  and  C_33
   12  A    between atoms: C_14  and  C_31
   13  A    between atoms: C_14  and  C_34
   14  A    between atoms: C_17  and  C_58
   15  A    between atoms: C_21  and  O_29
   16  A    between atoms: C_21  and  C_54
   17  A    between atoms: C_22  and  S_23
   18  A    between atoms: C_22  and  C_53
   19  A    between atoms: S_23  and  C_54
   20  A    between atoms: C_25  and  C_61
   21  A    between atoms: C_31  and  O_52
   22  A    between atoms: C_35  and  C_46
   23  A    between atoms: C_35  and  C_61
   24  A    between atoms: C_41  and  C_43
   25  A    between atoms: C_42  and  O_52
   26  A    between atoms: C_48  and  O_59
   27  A    between atoms: C_49  and  C_61
   28  A    between atoms: C_51  and  C_53
   29  A    between atoms: C_58  and  O_59
                            x       y       z     vdW  Elec       q    Type
                         _______ _______ _______ _____ _____    ______ ____

>  <TORSDO>
F 29

$$$$
=
 OpenBabel11062417473D

 64 68  0  0  1  0  0  0  0  0999 V2000
  190.6600  176.2300  138.4980 C   0  0  0  0  0  2  0  0  0  0  0  0
  191.7790  176.2570  139.5310 C   0  0  2  0  0  3  0  0  0  0  0  0
  191.5340  177.5910  143.1470 C   0  0  0  0  0  3  0  0  0  0  0  0
  189.3720  176.5010  139.2630 C   0  0  1  0  0  3  0  0  0  0  0  0
  189.8180  176.8480  140.6410 C   0  0  0  0  0  0  0  0  0  0  0  0
  190.0340  178.6930  144.5790 O   0  0  0  0  0  0  0  0  0  0  0  0
  191.9150  176.9690  142.0240 C   0  0  0  0  0  3  0  0  0  0  0  0
  191.1360  176.7520  140.7820 C   0  0  0  0  0  0  0  0  0  0  0  0
  190.2490  178.2620  143.4190 C   0  0  0  0  0  0  0  0  0  0  0  0
  189.2020  178.4770  142.3790 C   0  0  0  0  0  2  0  0  0  0  0  0
  188.8520  177.1550  141.7350 C   0  0  0  0  0  2  0  0  0  0  0  0
  188.6080  175.3880  136.5730 C   0  0  0  0  0  2  0  0  0  0  0  0
  186.3700  178.3420  137.8200 C   0  0  0  0  0  2  0  0  0  0  0  0
  187.3980  176.2800  136.7940 C   0  0  0  0  0  0  0  0  0  0  0  0
  188.6020  177.6230  138.6310 C   0  0  0  0  0  0  0  0  0  0  0  0
  187.4540  177.3590  137.8030 N   0  0  0  0  0  0  0  0  0  0  0  0
  186.3560  176.4130  135.7160 C   0  0  0  0  0  0  0  0  0  0  0  0
  187.4260  174.8930  137.4080 C   0  0  0  0  0  2  0  0  0  0  0  0
  188.9290  178.8160  138.8830 O   0  0  0  0  0  0  0  0  0  0  0  0
  186.5690  175.9760  134.5950 O   0  0  0  0  0  0  0  0  0  0  0  0
  185.0410  177.6800  137.4590 C   0  0  2  0  0  3  0  0  0  0  0  0
  185.0690  177.1470  136.0110 C   0  0  2  0  0  3  0  0  0  0  0  0
  182.9190  176.8860  134.9480 F   0  0  0  0  0  0  0  0  0  0  0  0
  183.8710  176.2410  135.7260 C   0  0  0  0  0  3  0  0  0  0  0  0
  184.2730  175.0740  135.1010 F   0  0  0  0  0  0  0  0  0  0  0  0
  183.9970  178.5910  137.6370 O   0  0  0  0  0  0  0  0  0  0  0  0
  183.6050  178.4200  138.9690 C   0  0  0  0  0  2  0  0  0  0  0  0
  183.5610  176.9450  139.3170 C   0  0  0  0  0  2  0  0  0  0  0  0
  182.2350  176.6410  139.9840 C   0  0  0  0  0  2  0  0  0  0  0  0
  181.6210  177.9050  140.5670 C   0  0  2  0  0  3  0  0  0  0  0  0
  181.0700  178.6740  139.5400 O   0  0  0  0  0  1  0  0  0  0  0  0
  182.6840  178.7300  141.2840 C   0  0  0  0  0  2  0  0  0  0  0  0
  182.4820  178.8280  142.7980 C   0  0  2  0  0  3  0  0  0  0  0  0
  181.3320  179.5530  143.1230 O   0  0  0  0  0  1  0  0  0  0  0  0
  183.7220  179.3210  143.5560 C   0  0  2  0  0  3  0  0  0  0  0  0
  185.4050  177.7380  142.9110 O   0  0  0  0  0  1  0  0  0  0  0  0
  185.7310  179.8890  142.1920 O   0  0  0  0  0  0  0  0  0  0  0  0
  184.9930  178.9280  142.8710 C   0  0  0  0  0  0  0  0  0  0  0  0
  183.7480  178.9790  145.0510 C   0  0  0  0  0  2  0  0  0  0  0  0
  184.9420  179.3850  145.6490 O   0  0  0  0  0  1  0  0  0  0  0  0
  193.3010  178.1020  139.7400 O   0  0  0  0  0  0  0  0  0  0  0  0
  192.9070  177.1270  139.0450 C   0  0  0  0  0  0  0  0  0  0  0  0
  193.4900  176.9090  137.7960 O   0  0  0  0  0  0  0  0  0  0  0  0
  193.3600  175.6690  137.1100 C   0  0  0  0  0  2  0  0  0  0  0  0
  193.9610  175.7560  135.7410 C   0  0  0  0  0  0  0  0  0  0  0  0
  194.0230  176.9270  135.1030 C   0  0  0  0  0  2  0  0  0  0  0  0
  194.4380  174.5010  135.0800 C   0  0  0  0  0  2  0  0  0  0  0  0
  194.6890  173.3960  136.0980 C   0  0  0  0  0  2  0  0  0  0  0  0
  194.4040  172.0190  135.5040 C   0  0  1  0  0  3  0  0  0  0  0  0
  195.7330  169.9780  135.0530 C   0  0  0  0  0  2  0  0  0  0  0  0
  195.4150  171.0640  136.0030 N   0  0  0  0  0  0  0  0  0  0  0  0
  196.5810  171.1640  135.1030 C   0  0  1  0  0  3  0  0  0  0  0  0
  197.8400  170.8400  135.8780 C   0  0  0  0  0  2  0  0  0  0  0  0
  198.1430  171.9630  136.8500 C   0  0  0  0  0  2  0  0  0  0  0  0
  198.3050  173.5280  135.9470 S   0  0  0  0  0  0  0  0  0  0  0  0
  197.5370  175.8540  136.9460 O   0  0  0  0  0  1  0  0  0  0  0  0
  197.6480  174.5160  137.3260 C   0  0  2  0  0  3  0  0  0  0  0  0
  198.5560  174.4010  138.5440 C   0  0  0  0  0  2  0  0  0  0  0  0
  198.6030  175.6160  139.2360 O   0  0  0  0  0  0  0  0  0  0  0  0
  197.7160  175.4510  140.2990 C   0  0  0  0  0  1  0  0  0  0  0  0
  192.9340  171.6310  135.7710 C   0  0  0  0  0  2  0  0  0  0  0  0
  192.1700  172.7680  136.4460 C   0  0  0  0  0  2  0  0  0  0  0  0
  190.8870  172.8880  135.8980 O   0  0  0  0  0  0  0  0  0  0  0  0
  191.0980  173.3350  134.5950 C   0  0  0  0  0  1  0  0  0  0  0  0
  1  4  1  0  0  0  0
  1  2  1  0  0  0  0
  2 42  1  6  0  0  0
  2  8  1  0  0  0  0
  3  9  1  0  0  0  0
  4 15  1  6  0  0  0
  4  5  1  0  0  0  0
  5  8  2  0  0  0  0
  5 11  1  0  0  0  0
  7  3  2  0  0  0  0
  8  7  1  0  0  0  0
  9  6  2  0  0  0  0
 10  9  1  0  0  0  0
 11 10  1  0  0  0  0
 12 14  1  0  0  0  0
 12 18  1  0  0  0  0
 14 18  1  0  0  0  0
 14 16  1  0  0  0  0
 15 19  2  0  0  0  0
 16 13  1  0  0  0  0
 16 15  1  0  0  0  0
 17 22  1  0  0  0  0
 17 14  1  0  0  0  0
 20 17  2  0  0  0  0
 21 26  1  6  0  0  0
 21 13  1  0  0  0  0
 22 24  1  1  0  0  0
 22 21  1  0  0  0  0
 23 24  1  0  0  0  0
 25 24  1  0  0  0  0
 26 27  1  0  0  0  0
 27 28  1  0  0  0  0
 28 29  1  0  0  0  0
 29 30  1  0  0  0  0
 30 31  1  6  0  0  0
 30 32  1  0  0  0  0
 32 33  1  0  0  0  0
 33 34  1  6  0  0  0
 33 35  1  0  0  0  0
 35 39  1  1  0  0  0
 37 38  2  0  0  0  0
 38 36  1  0  0  0  0
 38 35  1  0  0  0  0
 39 40  1  0  0  0  0
 42 41  2  0  0  0  0
 43 42  1  0  0  0  0
 44 43  1  0  0  0  0
 45 44  1  0  0  0  0
 46 45  2  0  0  0  0
 47 45  1  0  0  0  0
 47 48  1  0  0  0  0
 49 61  1  1  0  0  0
 49 51  1  0  0  0  0
 49 48  1  0  0  0  0
 50 52  1  0  0  0  0
 50 51  1  0  0  0  0
 52 53  1  1  0  0  0
 52 51  1  0  0  0  0
 53 54  1  0  0  0  0
 55 54  1  0  0  0  0
 55 57  1  0  0  0  0
 57 56  1  6  0  0  0
 57 58  1  0  0  0  0
 58 59  1  0  0  0  0
 59 60  1  0  0  0  0
 61 62  1  0  0  0  0
 63 62  1  0  0  0  0
 64 63  1  0  0  0  0
M  END
>  <MODEL>
2

>  <REMARK>
 VINA RESULT:      -5.0      3.514     12.058
  Name = 
  29 active torsions:
  status: ('A' for Active; 'I' for Inactive)
    1  A    between atoms: C_2  and  C_6
    2  A    between atoms: C_2  and  N_50
    3  A    between atoms: C_2  and  C_60
    4  A    between atoms: C_4  and  C_24
    5  A    between atoms: C_4  and  C_48
    6  A    between atoms: O_5  and  C_8
    7  A    between atoms: C_6  and  C_24
    8  A    between atoms: C_8  and  C_60
    9  A    between atoms: C_11  and  C_34
   10  A    between atoms: C_11  and  C_46
   11  A    between atoms: C_12  and  C_33
   12  A    between atoms: C_14  and  C_31
   13  A    between atoms: C_14  and  C_34
   14  A    between atoms: C_17  and  C_58
   15  A    between atoms: C_21  and  O_29
   16  A    between atoms: C_21  and  C_54
   17  A    between atoms: C_22  and  S_23
   18  A    between atoms: C_22  and  C_53
   19  A    between atoms: S_23  and  C_54
   20  A    between atoms: C_25  and  C_61
   21  A    between atoms: C_31  and  O_52
   22  A    between atoms: C_35  and  C_46
   23  A    between atoms: C_35  and  C_61
   24  A    between atoms: C_41  and  C_43
   25  A    between atoms: C_42  and  O_52
   26  A    between atoms: C_48  and  O_59
   27  A    between atoms: C_49  and  C_61
   28  A    between atoms: C_51  and  C_53
   29  A    between atoms: C_58  and  O_59
                            x       y       z     vdW  Elec       q    Type
                         _______ _______ _______ _____ _____    ______ ____

>  <TORSDO>
F 29

$$$$
=
 OpenBabel11062417473D

 64 68  0  0  1  0  0  0  0  0999 V2000
  190.6460  176.2950  138.2170 C   0  0  0  0  0  2  0  0  0  0  0  0
  191.7880  176.2520  139.2240 C   0  0  2  0  0  3  0  0  0  0  0  0
  191.6200  177.3170  142.9330 C   0  0  0  0  0  3  0  0  0  0  0  0
  189.3750  176.5020  139.0280 C   0  0  1  0  0  3  0  0  0  0  0  0
  189.8510  176.7500  140.4180 C   0  0  0  0  0  0  0  0  0  0  0  0
  190.1480  178.3030  144.4750 O   0  0  0  0  0  0  0  0  0  0  0  0
  191.9780  176.7810  141.7600 C   0  0  0  0  0  3  0  0  0  0  0  0
  191.1710  176.6510  140.5230 C   0  0  0  0  0  0  0  0  0  0  0  0
  190.3380  177.9590  143.2810 C   0  0  0  0  0  0  0  0  0  0  0  0
  189.2680  178.2440  142.2840 C   0  0  0  0  0  2  0  0  0  0  0  0
  188.9080  176.9710  141.5520 C   0  0  0  0  0  2  0  0  0  0  0  0
  188.1580  175.4150  136.4990 C   0  0  0  0  0  2  0  0  0  0  0  0
  186.3060  178.5090  138.0110 C   0  0  0  0  0  2  0  0  0  0  0  0
  187.0480  176.3800  136.8810 C   0  0  0  0  0  0  0  0  0  0  0  0
  188.5870  177.6630  138.4970 C   0  0  0  0  0  0  0  0  0  0  0  0
  187.3160  177.4620  137.8520 N   0  0  0  0  0  0  0  0  0  0  0  0
  185.8670  176.5670  135.9660 C   0  0  0  0  0  0  0  0  0  0  0  0
  187.0860  174.9990  137.5080 C   0  0  0  0  0  2  0  0  0  0  0  0
  189.0170  178.8360  138.6770 O   0  0  0  0  0  0  0  0  0  0  0  0
  185.8870  176.1080  134.8330 O   0  0  0  0  0  0  0  0  0  0  0  0
  184.9010  177.9250  137.8610 C   0  0  2  0  0  3  0  0  0  0  0  0
  184.6830  177.3800  136.4340 C   0  0  2  0  0  3  0  0  0  0  0  0
  182.8130  176.6550  135.0930 F   0  0  0  0  0  0  0  0  0  0  0  0
  183.4050  176.5440  136.3440 C   0  0  0  0  0  3  0  0  0  0  0  0
  183.6650  175.2150  136.6230 F   0  0  0  0  0  0  0  0  0  0  0  0
  183.9500  178.8990  138.1750 O   0  0  0  0  0  0  0  0  0  0  0  0
  184.0900  179.0950  139.5530 C   0  0  0  0  0  2  0  0  0  0  0  0
  183.3980  177.9810  140.3130 C   0  0  0  0  0  2  0  0  0  0  0  0
  181.9370  178.3450  140.4890 C   0  0  0  0  0  2  0  0  0  0  0  0
  181.0500  177.4400  139.6490 C   0  0  2  0  0  3  0  0  0  0  0  0
  181.7800  176.3270  139.2280 O   0  0  0  0  0  1  0  0  0  0  0  0
  180.5400  178.1870  138.4210 C   0  0  0  0  0  2  0  0  0  0  0  0
  180.2900  179.6780  138.6570 C   0  0  2  0  0  3  0  0  0  0  0  0
  178.9320  179.9570  138.8330 O   0  0  0  0  0  1  0  0  0  0  0  0
  180.9450  180.5880  137.6080 C   0  0  2  0  0  3  0  0  0  0  0  0
  179.9680  182.4070  138.8310 O   0  0  0  0  0  1  0  0  0  0  0  0
  180.8110  182.9320  136.7660 O   0  0  0  0  0  0  0  0  0  0  0  0
  180.5470  182.0210  137.7800 C   0  0  0  0  0  0  0  0  0  0  0  0
  180.7890  180.1220  136.1560 C   0  0  0  0  0  2  0  0  0  0  0  0
  180.8170  178.7290  136.0590 O   0  0  0  0  0  1  0  0  0  0  0  0
  193.1500  178.2200  139.4160 O   0  0  0  0  0  0  0  0  0  0  0  0
  192.9020  177.1610  138.7790 C   0  0  0  0  0  0  0  0  0  0  0  0
  193.6340  176.8810  137.6240 O   0  0  0  0  0  0  0  0  0  0  0  0
  193.5650  175.6160  136.9760 C   0  0  0  0  0  2  0  0  0  0  0  0
  194.2290  175.6710  135.6350 C   0  0  0  0  0  0  0  0  0  0  0  0
  194.6720  176.8310  135.1470 C   0  0  0  0  0  2  0  0  0  0  0  0
  194.3360  174.4140  134.8300 C   0  0  0  0  0  2  0  0  0  0  0  0
  193.8780  173.2010  135.6280 C   0  0  0  0  0  2  0  0  0  0  0  0
  194.1410  171.9040  134.8670 C   0  0  1  0  0  3  0  0  0  0  0  0
  195.8540  170.1180  134.7620 C   0  0  0  0  0  2  0  0  0  0  0  0
  195.1540  171.1150  135.5970 N   0  0  0  0  0  0  0  0  0  0  0  0
  196.4610  171.4250  134.9840 C   0  0  1  0  0  3  0  0  0  0  0  0
  197.5480  171.2940  136.0300 C   0  0  0  0  0  2  0  0  0  0  0  0
  197.0710  171.8920  137.3380 C   0  0  0  0  0  2  0  0  0  0  0  0
  197.2210  173.6980  137.2770 S   0  0  0  0  0  0  0  0  0  0  0  0
  195.2930  173.2680  139.0360 O   0  0  0  0  0  1  0  0  0  0  0  0
  196.5230  173.9210  138.9420 C   0  0  2  0  0  3  0  0  0  0  0  0
  196.3440  175.4020  139.2500 C   0  0  0  0  0  2  0  0  0  0  0  0
  196.2790  175.6100  140.6320 O   0  0  0  0  0  0  0  0  0  0  0  0
  197.5940  175.4620  141.0720 C   0  0  0  0  0  1  0  0  0  0  0  0
  192.8040  171.1800  134.5960 C   0  0  0  0  0  2  0  0  0  0  0  0
  191.6520  171.8290  135.3600 C   0  0  0  0  0  2  0  0  0  0  0  0
  190.4560  171.7040  134.6430 O   0  0  0  0  0  0  0  0  0  0  0  0
  189.6570  172.7480  135.1030 C   0  0  0  0  0  1  0  0  0  0  0  0
  1  4  1  0  0  0  0
  1  2  1  0  0  0  0
  2 42  1  6  0  0  0
  2  8  1  0  0  0  0
  3  9  1  0  0  0  0
  4 15  1  6  0  0  0
  4  5  1  0  0  0  0
  5  8  2  0  0  0  0
  5 11  1  0  0  0  0
  7  3  2  0  0  0  0
  8  7  1  0  0  0  0
  9  6  2  0  0  0  0
 10  9  1  0  0  0  0
 11 10  1  0  0  0  0
 12 14  1  0  0  0  0
 12 18  1  0  0  0  0
 14 18  1  0  0  0  0
 14 16  1  0  0  0  0
 15 19  2  0  0  0  0
 16 13  1  0  0  0  0
 16 15  1  0  0  0  0
 17 22  1  0  0  0  0
 17 14  1  0  0  0  0
 20 17  2  0  0  0  0
 21 13  1  0  0  0  0
 21 26  1  6  0  0  0
 22 24  1  1  0  0  0
 22 21  1  0  0  0  0
 23 24  1  0  0  0  0
 24 25  1  0  0  0  0
 26 27  1  0  0  0  0
 27 28  1  0  0  0  0
 28 29  1  0  0  0  0
 30 31  1  6  0  0  0
 30 29  1  0  0  0  0
 32 33  1  0  0  0  0
 32 30  1  0  0  0  0
 33 34  1  6  0  0  0
 35 39  1  6  0  0  0
 35 38  1  0  0  0  0
 35 33  1  0  0  0  0
 37 38  2  0  0  0  0
 38 36  1  0  0  0  0
 40 39  1  0  0  0  0
 42 41  2  0  0  0  0
 43 42  1  0  0  0  0
 44 43  1  0  0  0  0
 45 44  1  0  0  0  0
 46 45  2  0  0  0  0
 47 48  1  0  0  0  0
 47 45  1  0  0  0  0
 49 61  1  1  0  0  0
 49 51  1  0  0  0  0
 49 48  1  0  0  0  0
 50 52  1  0  0  0  0
 50 51  1  0  0  0  0
 52 51  1  0  0  0  0
 52 53  1  1  0  0  0
 53 54  1  0  0  0  0
 55 54  1  0  0  0  0
 55 57  1  0  0  0  0
 57 56  1  6  0  0  0
 57 58  1  0  0  0  0
 58 59  1  0  0  0  0
 59 60  1  0  0  0  0
 61 62  1  0  0  0  0
 63 64  1  0  0  0  0
 63 62  1  0  0  0  0
M  END
>  <MODEL>
3

>  <REMARK>
 VINA RESULT:      -4.8      3.624     12.464
  Name = 
  29 active torsions:
  status: ('A' for Active; 'I' for Inactive)
    1  A    between atoms: C_2  and  C_6
    2  A    between atoms: C_2  and  N_50
    3  A    between atoms: C_2  and  C_60
    4  A    between atoms: C_4  and  C_24
    5  A    between atoms: C_4  and  C_48
    6  A    between atoms: O_5  and  C_8
    7  A    between atoms: C_6  and  C_24
    8  A    between atoms: C_8  and  C_60
    9  A    between atoms: C_11  and  C_34
   10  A    between atoms: C_11  and  C_46
   11  A    between atoms: C_12  and  C_33
   12  A    between atoms: C_14  and  C_31
   13  A    between atoms: C_14  and  C_34
   14  A    between atoms: C_17  and  C_58
   15  A    between atoms: C_21  and  O_29
   16  A    between atoms: C_21  and  C_54
   17  A    between atoms: C_22  and  S_23
   18  A    between atoms: C_22  and  C_53
   19  A    between atoms: S_23  and  C_54
   20  A    between atoms: C_25  and  C_61
   21  A    between atoms: C_31  and  O_52
   22  A    between atoms: C_35  and  C_46
   23  A    between atoms: C_35  and  C_61
   24  A    between atoms: C_41  and  C_43
   25  A    between atoms: C_42  and  O_52
   26  A    between atoms: C_48  and  O_59
   27  A    between atoms: C_49  and  C_61
   28  A    between atoms: C_51  and  C_53
   29  A    between atoms: C_58  and  O_59
                            x       y       z     vdW  Elec       q    Type
                         _______ _______ _______ _____ _____    ______ ____

>  <TORSDO>
F 29

$$$$
=
 OpenBabel11062417473D

 64 68  0  0  1  0  0  0  0  0999 V2000
  187.1580  178.2490  139.6250 C   0  0  0  0  0  2  0  0  0  0  0  0
  188.6660  178.0820  139.7530 C   0  0  2  0  0  3  0  0  0  0  0  0
  191.0830  176.8680  136.9950 C   0  0  0  0  0  3  0  0  0  0  0  0
  186.8490  178.1810  138.1360 C   0  0  1  0  0  3  0  0  0  0  0  0
  188.1420  177.8000  137.5010 C   0  0  0  0  0  0  0  0  0  0  0  0
  191.0620  176.0210  134.8050 O   0  0  0  0  0  0  0  0  0  0  0  0
  190.5520  177.4070  138.1000 C   0  0  0  0  0  3  0  0  0  0  0  0
  189.1290  177.7090  138.3840 C   0  0  0  0  0  0  0  0  0  0  0  0
  190.3770  176.3940  135.7900 C   0  0  0  0  0  0  0  0  0  0  0  0
  188.8920  176.3110  135.6910 C   0  0  0  0  0  2  0  0  0  0  0  0
  188.2880  177.6560  136.0230 C   0  0  0  0  0  2  0  0  0  0  0  0
  184.5420  179.1390  139.8140 C   0  0  0  0  0  2  0  0  0  0  0  0
  183.5450  176.8110  136.8350 C   0  0  0  0  0  2  0  0  0  0  0  0
  183.7450  178.5230  138.6760 C   0  0  0  0  0  0  0  0  0  0  0  0
  185.7770  177.1690  137.8590 C   0  0  0  0  0  0  0  0  0  0  0  0
  184.3950  177.5620  137.7600 N   0  0  0  0  0  0  0  0  0  0  0  0
  182.2420  178.4820  138.7470 C   0  0  0  0  0  0  0  0  0  0  0  0
  184.2840  179.9340  138.5320 C   0  0  0  0  0  2  0  0  0  0  0  0
  186.1010  175.9670  137.6470 O   0  0  0  0  0  0  0  0  0  0  0  0
  181.6670  178.7540  139.7900 O   0  0  0  0  0  0  0  0  0  0  0  0
  182.3780  177.6750  136.3590 C   0  0  2  0  0  3  0  0  0  0  0  0
  181.4510  178.0430  137.5370 C   0  0  2  0  0  3  0  0  0  0  0  0
  179.2610  179.0040  137.8500 F   0  0  0  0  0  0  0  0  0  0  0  0
  180.4490  179.1290  137.1430 C   0  0  0  0  0  3  0  0  0  0  0  0
  180.9830  180.3890  137.3430 F   0  0  0  0  0  0  0  0  0  0  0  0
  181.6720  177.0050  135.3580 O   0  0  0  0  0  0  0  0  0  0  0  0
  181.3930  175.7480  135.9050 C   0  0  0  0  0  2  0  0  0  0  0  0
  179.9300  175.4040  135.7080 C   0  0  0  0  0  2  0  0  0  0  0  0
  179.8150  174.3840  134.5940 C   0  0  0  0  0  2  0  0  0  0  0  0
  180.1390  172.9880  135.1040 C   0  0  2  0  0  3  0  0  0  0  0  0
  179.4780  172.7670  136.3140 O   0  0  0  0  0  1  0  0  0  0  0  0
  181.6400  172.8400  135.3290 C   0  0  0  0  0  2  0  0  0  0  0  0
  182.1500  171.4020  135.2040 C   0  0  2  0  0  3  0  0  0  0  0  0
  181.2790  170.4870  135.8020 O   0  0  0  0  0  1  0  0  0  0  0  0
  183.6030  171.2190  135.6670 C   0  0  2  0  0  3  0  0  0  0  0  0
  184.3370  172.4610  137.5840 O   0  0  0  0  0  1  0  0  0  0  0  0
  184.4040  173.5800  135.5850 O   0  0  0  0  0  0  0  0  0  0  0  0
  184.1360  172.4450  136.3400 C   0  0  0  0  0  0  0  0  0  0  0  0
  184.5640  170.6910  134.5950 C   0  0  0  0  0  2  0  0  0  0  0  0
  185.7680  171.3970  134.5940 O   0  0  0  0  0  1  0  0  0  0  0  0
  188.0520  176.4620  141.4160 O   0  0  0  0  0  0  0  0  0  0  0  0
  188.9830  177.0500  140.8010 C   0  0  0  0  0  0  0  0  0  0  0  0
  190.3050  176.7720  141.1520 O   0  0  0  0  0  0  0  0  0  0  0  0
  191.0350  177.5980  142.0510 C   0  0  0  0  0  2  0  0  0  0  0  0
  190.7130  177.2490  143.4710 C   0  0  0  0  0  0  0  0  0  0  0  0
  191.1430  176.1020  144.0000 C   0  0  0  0  0  2  0  0  0  0  0  0
  189.8550  178.1820  144.2670 C   0  0  0  0  0  2  0  0  0  0  0  0
  188.3920  178.0810  143.8570 C   0  0  0  0  0  2  0  0  0  0  0  0
  187.5100  177.6850  145.0380 C   0  0  1  0  0  3  0  0  0  0  0  0
  187.1230  178.8990  147.1620 C   0  0  0  0  0  2  0  0  0  0  0  0
  188.0990  178.2260  146.2800 N   0  0  0  0  0  0  0  0  0  0  0  0
  187.4710  177.5020  147.4030 C   0  0  1  0  0  3  0  0  0  0  0  0
  188.4460  177.4270  148.5580 C   0  0  0  0  0  2  0  0  0  0  0  0
  189.8620  177.5830  148.0400 C   0  0  0  0  0  2  0  0  0  0  0  0
  190.4190  176.0230  147.3020 S   0  0  0  0  0  0  0  0  0  0  0  0
  192.9490  175.2560  147.4080 O   0  0  0  0  0  1  0  0  0  0  0  0
  192.1800  176.4130  147.5400 C   0  0  2  0  0  3  0  0  0  0  0  0
  192.4070  177.0270  148.9160 C   0  0  0  0  0  2  0  0  0  0  0  0
  193.7230  176.8100  149.3370 O   0  0  0  0  0  0  0  0  0  0  0  0
  193.8330  177.5190  150.5320 C   0  0  0  0  0  1  0  0  0  0  0  0
  186.0500  178.1010  144.7580 C   0  0  0  0  0  2  0  0  0  0  0  0
  185.7410  178.0870  143.2630 C   0  0  0  0  0  2  0  0  0  0  0  0
  185.1810  179.3080  142.8670 O   0  0  0  0  0  0  0  0  0  0  0  0
  184.2040  179.5760  143.8240 C   0  0  0  0  0  1  0  0  0  0  0  0
  1  2  1  0  0  0  0
  2 42  1  1  0  0  0
  3  7  2  0  0  0  0
  4 15  1  1  0  0  0
  4  1  1  0  0  0  0
  5  4  1  0  0  0  0
  5  8  2  0  0  0  0
  6  9  2  0  0  0  0
  7  8  1  0  0  0  0
  8  2  1  0  0  0  0
  9  3  1  0  0  0  0
 10  9  1  0  0  0  0
 10 11  1  0  0  0  0
 11  5  1  0  0  0  0
 13 16  1  0  0  0  0
 14 17  1  0  0  0  0
 14 12  1  0  0  0  0
 16 15  1  0  0  0  0
 16 14  1  0  0  0  0
 17 20  2  0  0  0  0
 18 14  1  0  0  0  0
 18 12  1  0  0  0  0
 19 15  2  0  0  0  0
 21 26  1  6  0  0  0
 21 13  1  0  0  0  0
 21 22  1  0  0  0  0
 22 24  1  6  0  0  0
 22 17  1  0  0  0  0
 24 25  1  0  0  0  0
 24 23  1  0  0  0  0
 26 27  1  0  0  0  0
 28 27  1  0  0  0  0
 29 30  1  0  0  0  0
 29 28  1  0  0  0  0
 30 32  1  0  0  0  0
 30 31  1  1  0  0  0
 33 32  1  0  0  0  0
 33 35  1  0  0  0  0
 33 34  1  1  0  0  0
 35 39  1  6  0  0  0
 35 38  1  0  0  0  0
 37 38  2  0  0  0  0
 38 36  1  0  0  0  0
 40 39  1  0  0  0  0
 42 43  1  0  0  0  0
 42 41  2  0  0  0  0
 43 44  1  0  0  0  0
 44 45  1  0  0  0  0
 45 46  2  0  0  0  0
 45 47  1  0  0  0  0
 48 47  1  0  0  0  0
 49 48  1  6  0  0  0
 49 51  1  0  0  0  0
 50 52  1  0  0  0  0
 51 50  1  0  0  0  0
 51 52  1  0  0  0  0
 52 53  1  1  0  0  0
 54 53  1  0  0  0  0
 55 57  1  0  0  0  0
 55 54  1  0  0  0  0
 57 56  1  1  0  0  0
 57 58  1  0  0  0  0
 58 59  1  0  0  0  0
 59 60  1  0  0  0  0
 61 49  1  0  0  0  0
 62 61  1  0  0  0  0
 63 62  1  0  0  0  0
 63 64  1  0  0  0  0
M  END
>  <MODEL>
4

>  <REMARK>
 VINA RESULT:      -4.3      4.082     10.405
  Name = 
  29 active torsions:
  status: ('A' for Active; 'I' for Inactive)
    1  A    between atoms: C_2  and  C_6
    2  A    between atoms: C_2  and  N_50
    3  A    between atoms: C_2  and  C_60
    4  A    between atoms: C_4  and  C_24
    5  A    between atoms: C_4  and  C_48
    6  A    between atoms: O_5  and  C_8
    7  A    between atoms: C_6  and  C_24
    8  A    between atoms: C_8  and  C_60
    9  A    between atoms: C_11  and  C_34
   10  A    between atoms: C_11  and  C_46
   11  A    between atoms: C_12  and  C_33
   12  A    between atoms: C_14  and  C_31
   13  A    between atoms: C_14  and  C_34
   14  A    between atoms: C_17  and  C_58
   15  A    between atoms: C_21  and  O_29
   16  A    between atoms: C_21  and  C_54
   17  A    between atoms: C_22  and  S_23
   18  A    between atoms: C_22  and  C_53
   19  A    between atoms: S_23  and  C_54
   20  A    between atoms: C_25  and  C_61
   21  A    between atoms: C_31  and  O_52
   22  A    between atoms: C_35  and  C_46
   23  A    between atoms: C_35  and  C_61
   24  A    between atoms: C_41  and  C_43
   25  A    between atoms: C_42  and  O_52
   26  A    between atoms: C_48  and  O_59
   27  A    between atoms: C_49  and  C_61
   28  A    between atoms: C_51  and  C_53
   29  A    between atoms: C_58  and  O_59
                            x       y       z     vdW  Elec       q    Type
                         _______ _______ _______ _____ _____    ______ ____

>  <TORSDO>
F 29

$$$$
=
 OpenBabel11062417473D

 64 68  0  0  1  0  0  0  0  0999 V2000
  188.2340  178.3750  142.9670 C   0  0  0  0  0  2  0  0  0  0  0  0
  188.2210  178.4610  144.4880 C   0  0  2  0  0  3  0  0  0  0  0  0
  190.8080  176.9030  146.8970 C   0  0  0  0  0  3  0  0  0  0  0  0
  189.6170  177.8680  142.5840 C   0  0  1  0  0  3  0  0  0  0  0  0
  190.2610  177.5160  143.8800 C   0  0  0  0  0  0  0  0  0  0  0  0
  192.6960  175.5060  146.8790 O   0  0  0  0  0  0  0  0  0  0  0  0
  189.8290  177.6390  146.3540 C   0  0  0  0  0  3  0  0  0  0  0  0
  189.4890  177.8030  144.9210 C   0  0  0  0  0  0  0  0  0  0  0  0
  191.7740  176.0290  146.2040 C   0  0  0  0  0  0  0  0  0  0  0  0
  191.6970  175.7160  144.7490 C   0  0  0  0  0  2  0  0  0  0  0  0
  191.6600  177.0030  143.9570 C   0  0  0  0  0  2  0  0  0  0  0  0
  187.4150  178.6360  140.6810 C   0  0  0  0  0  2  0  0  0  0  0  0
  189.8400  175.8730  139.3500 C   0  0  0  0  0  2  0  0  0  0  0  0
  188.2400  177.7840  139.7310 C   0  0  0  0  0  0  0  0  0  0  0  0
  189.5150  176.6790  141.6750 C   0  0  0  0  0  0  0  0  0  0  0  0
  189.2420  176.8410  140.2700 N   0  0  0  0  0  0  0  0  0  0  0  0
  187.7440  177.5210  138.3340 C   0  0  0  0  0  0  0  0  0  0  0  0
  188.6170  179.2380  139.9510 C   0  0  0  0  0  2  0  0  0  0  0  0
  189.7360  175.5250  142.1380 O   0  0  0  0  0  0  0  0  0  0  0  0
  186.5990  177.8130  138.0220 O   0  0  0  0  0  0  0  0  0  0  0  0
  190.0180  176.4900  137.9640 C   0  0  2  0  0  3  0  0  0  0  0  0
  188.6500  176.8360  137.3380 C   0  0  2  0  0  3  0  0  0  0  0  0
  187.5990  178.2640  135.7020 F   0  0  0  0  0  0  0  0  0  0  0  0
  188.8090  177.7050  136.0900 C   0  0  0  0  0  3  0  0  0  0  0  0
  189.7400  178.7060  136.3030 F   0  0  0  0  0  0  0  0  0  0  0  0
  190.7340  175.6140  137.1450 O   0  0  0  0  0  0  0  0  0  0  0  0
  192.0620  176.0420  137.2500 C   0  0  0  0  0  2  0  0  0  0  0  0
  192.8460  175.1000  138.1440 C   0  0  0  0  0  2  0  0  0  0  0  0
  194.2320  175.6730  138.3580 C   0  0  0  0  0  2  0  0  0  0  0  0
  195.2950  174.7390  137.8000 C   0  0  2  0  0  3  0  0  0  0  0  0
  196.4860  174.9080  138.5100 O   0  0  0  0  0  1  0  0  0  0  0  0
  195.5520  175.0440  136.3280 C   0  0  0  0  0  2  0  0  0  0  0  0
  196.9870  174.7660  135.8740 C   0  0  2  0  0  3  0  0  0  0  0  0
  197.4490  175.7420  134.9860 O   0  0  0  0  0  1  0  0  0  0  0  0
  197.2030  173.3410  135.3470 C   0  0  2  0  0  3  0  0  0  0  0  0
  195.8850  171.6180  136.3720 O   0  0  0  0  0  1  0  0  0  0  0  0
  194.9170  172.6900  134.5940 O   0  0  0  0  0  0  0  0  0  0  0  0
  195.9720  172.5010  135.4770 C   0  0  0  0  0  0  0  0  0  0  0  0
  198.4440  172.6270  135.8960 C   0  0  0  0  0  2  0  0  0  0  0  0
  198.9570  173.2820  137.0170 O   0  0  0  0  0  1  0  0  0  0  0  0
  187.0730  176.7640  145.7400 O   0  0  0  0  0  0  0  0  0  0  0  0
  186.9820  177.8020  145.0310 C   0  0  0  0  0  0  0  0  0  0  0  0
  185.7150  178.2910  144.7100 O   0  0  0  0  0  0  0  0  0  0  0  0
  184.8190  177.5690  143.8730 C   0  0  0  0  0  2  0  0  0  0  0  0
  183.9390  178.5060  143.1050 C   0  0  0  0  0  0  0  0  0  0  0  0
  183.1050  179.3270  143.7460 C   0  0  0  0  0  2  0  0  0  0  0  0
  183.9720  178.4670  141.6090 C   0  0  0  0  0  2  0  0  0  0  0  0
  182.9450  179.4140  141.0040 C   0  0  0  0  0  2  0  0  0  0  0  0
  182.8250  179.2130  139.4960 C   0  0  1  0  0  3  0  0  0  0  0  0
  181.7360  177.6060  137.9570 C   0  0  0  0  0  2  0  0  0  0  0  0
  181.6430  178.3730  139.2160 N   0  0  0  0  0  0  0  0  0  0  0  0
  182.1040  176.9700  139.2170 C   0  0  1  0  0  3  0  0  0  0  0  0
  180.9710  176.0720  139.6660 C   0  0  0  0  0  2  0  0  0  0  0  0
  180.9740  174.7990  138.8440 C   0  0  0  0  0  2  0  0  0  0  0  0
  179.2750  174.3650  138.3820 S   0  0  0  0  0  0  0  0  0  0  0  0
  179.0470  175.8790  136.2240 O   0  0  0  0  0  1  0  0  0  0  0  0
  179.5710  174.6430  136.6090 C   0  0  2  0  0  3  0  0  0  0  0  0
  178.9320  173.5350  135.7810 C   0  0  0  0  0  2  0  0  0  0  0  0
  179.7940  173.1320  134.7560 O   0  0  0  0  0  0  0  0  0  0  0  0
  181.0580  173.1170  135.3430 C   0  0  0  0  0  1  0  0  0  0  0  0
  182.8500  180.5830  138.7850 C   0  0  0  0  0  2  0  0  0  0  0  0
  181.4450  181.1610  138.6350 C   0  0  0  0  0  2  0  0  0  0  0  0
  181.0250  181.0890  137.3020 O   0  0  0  0  0  0  0  0  0  0  0  0
  180.0050  182.0330  137.2010 C   0  0  0  0  0  1  0  0  0  0  0  0
  1  2  1  0  0  0  0
  2  8  1  0  0  0  0
  2 42  1  1  0  0  0
  4 15  1  6  0  0  0
  4  1  1  0  0  0  0
  4  5  1  0  0  0  0
  5 11  1  0  0  0  0
  5  8  2  0  0  0  0
  7  3  2  0  0  0  0
  8  7  1  0  0  0  0
  9  6  2  0  0  0  0
  9  3  1  0  0  0  0
 10  9  1  0  0  0  0
 11 10  1  0  0  0  0
 13 16  1  0  0  0  0
 14 18  1  0  0  0  0
 14 16  1  0  0  0  0
 14 12  1  0  0  0  0
 15 19  2  0  0  0  0
 16 15  1  0  0  0  0
 17 14  1  0  0  0  0
 18 12  1  0  0  0  0
 20 17  2  0  0  0  0
 21 26  1  6  0  0  0
 21 13  1  0  0  0  0
 22 24  1  6  0  0  0
 22 21  1  0  0  0  0
 22 17  1  0  0  0  0
 23 24  1  0  0  0  0
 24 25  1  0  0  0  0
 26 27  1  0  0  0  0
 27 28  1  0  0  0  0
 28 29  1  0  0  0  0
 30 29  1  0  0  0  0
 30 31  1  1  0  0  0
 32 30  1  0  0  0  0
 33 34  1  6  0  0  0
 33 32  1  0  0  0  0
 35 38  1  0  0  0  0
 35 33  1  0  0  0  0
 35 39  1  1  0  0  0
 37 38  2  0  0  0  0
 38 36  1  0  0  0  0
 39 40  1  0  0  0  0
 42 41  2  0  0  0  0
 43 42  1  0  0  0  0
 44 43  1  0  0  0  0
 45 46  2  0  0  0  0
 45 44  1  0  0  0  0
 47 45  1  0  0  0  0
 48 47  1  0  0  0  0
 49 61  1  6  0  0  0
 49 48  1  0  0  0  0
 50 51  1  0  0  0  0
 50 52  1  0  0  0  0
 51 52  1  0  0  0  0
 51 49  1  0  0  0  0
 52 53  1  1  0  0  0
 54 53  1  0  0  0  0
 55 54  1  0  0  0  0
 57 56  1  6  0  0  0
 57 55  1  0  0  0  0
 58 57  1  0  0  0  0
 59 60  1  0  0  0  0
 59 58  1  0  0  0  0
 62 61  1  0  0  0  0
 63 62  1  0  0  0  0
 64 63  1  0  0  0  0
M  END
>  <MODEL>
5

>  <REMARK>
 VINA RESULT:      -4.0      1.659      2.278
  Name = 
  29 active torsions:
  status: ('A' for Active; 'I' for Inactive)
    1  A    between atoms: C_2  and  C_6
    2  A    between atoms: C_2  and  N_50
    3  A    between atoms: C_2  and  C_60
    4  A    between atoms: C_4  and  C_24
    5  A    between atoms: C_4  and  C_48
    6  A    between atoms: O_5  and  C_8
    7  A    between atoms: C_6  and  C_24
    8  A    between atoms: C_8  and  C_60
    9  A    between atoms: C_11  and  C_34
   10  A    between atoms: C_11  and  C_46
   11  A    between atoms: C_12  and  C_33
   12  A    between atoms: C_14  and  C_31
   13  A    between atoms: C_14  and  C_34
   14  A    between atoms: C_17  and  C_58
   15  A    between atoms: C_21  and  O_29
   16  A    between atoms: C_21  and  C_54
   17  A    between atoms: C_22  and  S_23
   18  A    between atoms: C_22  and  C_53
   19  A    between atoms: S_23  and  C_54
   20  A    between atoms: C_25  and  C_61
   21  A    between atoms: C_31  and  O_52
   22  A    between atoms: C_35  and  C_46
   23  A    between atoms: C_35  and  C_61
   24  A    between atoms: C_41  and  C_43
   25  A    between atoms: C_42  and  O_52
   26  A    between atoms: C_48  and  O_59
   27  A    between atoms: C_49  and  C_61
   28  A    between atoms: C_51  and  C_53
   29  A    between atoms: C_58  and  O_59
                            x       y       z     vdW  Elec       q    Type
                         _______ _______ _______ _____ _____    ______ ____

>  <TORSDO>
F 29

$$$$
=
 OpenBabel11062417473D

 64 68  0  0  1  0  0  0  0  0999 V2000
  191.4570  176.5110  140.7960 C   0  0  0  0  0  2  0  0  0  0  0  0
  191.1250  176.7720  139.3320 C   0  0  2  0  0  3  0  0  0  0  0  0
  187.8780  178.3510  137.9600 C   0  0  0  0  0  3  0  0  0  0  0  0
  190.4350  177.2950  141.6070 C   0  0  1  0  0  3  0  0  0  0  0  0
  189.4680  177.8100  140.5980 C   0  0  0  0  0  0  0  0  0  0  0  0
  185.7730  179.0980  138.6870 O   0  0  0  0  0  0  0  0  0  0  0  0
  189.1260  177.8900  138.1080 C   0  0  0  0  0  3  0  0  0  0  0  0
  189.8210  177.4960  139.3560 C   0  0  0  0  0  0  0  0  0  0  0  0
  186.8550  178.5440  139.0060 C   0  0  0  0  0  0  0  0  0  0  0  0
  187.0300  178.0920  140.4150 C   0  0  0  0  0  2  0  0  0  0  0  0
  188.3100  178.6710  140.9750 C   0  0  0  0  0  2  0  0  0  0  0  0
  192.2630  177.4500  143.9930 C   0  0  0  0  0  2  0  0  0  0  0  0
  188.5980  176.3580  144.8060 C   0  0  0  0  0  2  0  0  0  0  0  0
  190.9490  177.2660  144.7340 C   0  0  0  0  0  0  0  0  0  0  0  0
  189.7630  176.4100  142.6160 C   0  0  0  0  0  0  0  0  0  0  0  0
  189.7660  176.7470  144.0160 N   0  0  0  0  0  0  0  0  0  0  0  0
  190.9450  177.1340  146.2330 C   0  0  0  0  0  0  0  0  0  0  0  0
  191.3600  178.6530  144.2730 C   0  0  0  0  0  2  0  0  0  0  0  0
  189.1320  175.3900  142.2210 O   0  0  0  0  0  0  0  0  0  0  0  0
  191.9930  176.9700  146.8410 O   0  0  0  0  0  0  0  0  0  0  0  0
  188.4350  177.2820  146.0120 C   0  0  2  0  0  3  0  0  0  0  0  0
  189.6310  177.1400  146.9780 C   0  0  2  0  0  3  0  0  0  0  0  0
  188.3560  178.4700  148.5360 F   0  0  0  0  0  0  0  0  0  0  0  0
  189.6310  178.2470  148.0330 C   0  0  0  0  0  3  0  0  0  0  0  0
  190.4960  177.9410  149.0680 F   0  0  0  0  0  0  0  0  0  0  0  0
  187.2310  177.0010  146.6620 O   0  0  0  0  0  0  0  0  0  0  0  0
  186.2810  176.9510  145.6360 C   0  0  0  0  0  2  0  0  0  0  0  0
  186.1370  178.3150  144.9900 C   0  0  0  0  0  2  0  0  0  0  0  0
  184.6690  178.6920  144.9700 C   0  0  0  0  0  2  0  0  0  0  0  0
  184.3170  179.4220  143.6830 C   0  0  2  0  0  3  0  0  0  0  0  0
  183.4800  180.5020  143.9710 O   0  0  0  0  0  1  0  0  0  0  0  0
  183.5960  178.4840  142.7210 C   0  0  0  0  0  2  0  0  0  0  0  0
  182.2600  179.0240  142.2060 C   0  0  2  0  0  3  0  0  0  0  0  0
  181.1730  178.3830  142.8080 O   0  0  0  0  0  1  0  0  0  0  0  0
  182.1520  179.0510  140.6750 C   0  0  2  0  0  3  0  0  0  0  0  0
  180.1300  178.4570  139.5280 O   0  0  0  0  0  0  0  0  0  0  0  0
  180.1350  180.5120  140.5420 O   0  0  0  0  0  1  0  0  0  0  0  0
  180.7520  179.3110  140.2150 C   0  0  0  0  0  0  0  0  0  0  0  0
  182.7750  177.8460  139.9590 C   0  0  0  0  0  2  0  0  0  0  0  0
  181.9480  177.3730  138.9390 O   0  0  0  0  0  1  0  0  0  0  0  0
  192.0040  174.6240  138.7140 O   0  0  0  0  0  0  0  0  0  0  0  0
  191.0810  175.4720  138.5750 C   0  0  0  0  0  0  0  0  0  0  0  0
  190.0580  175.2120  137.6620 O   0  0  0  0  0  0  0  0  0  0  0  0
  189.9510  173.9660  136.9840 C   0  0  0  0  0  2  0  0  0  0  0  0
  189.3340  174.1500  135.6320 C   0  0  0  0  0  0  0  0  0  0  0  0
  188.6260  175.2470  135.3560 C   0  0  0  0  0  2  0  0  0  0  0  0
  189.4800  173.0590  134.6170 C   0  0  0  0  0  2  0  0  0  0  0  0
  190.6710  172.1640  134.9280 C   0  0  0  0  0  2  0  0  0  0  0  0
  191.7830  172.9410  135.6270 C   0  0  1  0  0  3  0  0  0  0  0  0
  192.7220  170.6540  135.4650 C   0  0  0  0  0  2  0  0  0  0  0  0
  192.8170  171.9910  136.0870 N   0  0  0  0  0  0  0  0  0  0  0  0
  193.6360  171.6460  134.9090 C   0  0  1  0  0  3  0  0  0  0  0  0
  195.0460  171.3250  135.3570 C   0  0  0  0  0  2  0  0  0  0  0  0
  195.0360  170.0750  136.2140 C   0  0  0  0  0  2  0  0  0  0  0  0
  196.4550  170.0960  137.3440 S   0  0  0  0  0  0  0  0  0  0  0  0
  198.5630  171.0660  136.0740 O   0  0  0  0  0  1  0  0  0  0  0  0
  197.2790  171.4540  136.4570 C   0  0  2  0  0  3  0  0  0  0  0  0
  197.3570  172.6950  137.3380 C   0  0  0  0  0  2  0  0  0  0  0  0
  198.3700  173.5490  136.8900 O   0  0  0  0  0  0  0  0  0  0  0  0
  197.9020  174.8310  137.1760 C   0  0  0  0  0  1  0  0  0  0  0  0
  192.2840  174.0730  134.7050 C   0  0  0  0  0  2  0  0  0  0  0  0
  193.5620  174.7110  135.2460 C   0  0  0  0  0  2  0  0  0  0  0  0
  193.6830  176.0290  134.7900 O   0  0  0  0  0  0  0  0  0  0  0  0
  194.7920  176.5360  135.4640 C   0  0  0  0  0  1  0  0  0  0  0  0
  1  4  1  0  0  0  0
  2 42  1  6  0  0  0
  2  8  1  0  0  0  0
  2  1  1  0  0  0  0
  3  7  2  0  0  0  0
  3  9  1  0  0  0  0
  4 15  1  1  0  0  0
  5 11  1  0  0  0  0
  5  4  1  0  0  0  0
  6  9  2  0  0  0  0
  7  8  1  0  0  0  0
  8  5  2  0  0  0  0
  9 10  1  0  0  0  0
 10 11  1  0  0  0  0
 12 18  1  0  0  0  0
 12 14  1  0  0  0  0
 13 21  1  0  0  0  0
 14 17  1  0  0  0  0
 15 16  1  0  0  0  0
 16 14  1  0  0  0  0
 16 13  1  0  0  0  0
 17 20  2  0  0  0  0
 17 22  1  0  0  0  0
 18 14  1  0  0  0  0
 19 15  2  0  0  0  0
 21 26  1  1  0  0  0
 21 22  1  0  0  0  0
 22 24  1  1  0  0  0
 24 23  1  0  0  0  0
 24 25  1  0  0  0  0
 27 26  1  0  0  0  0
 28 27  1  0  0  0  0
 29 28  1  0  0  0  0
 30 31  1  1  0  0  0
 30 29  1  0  0  0  0
 32 30  1  0  0  0  0
 33 32  1  0  0  0  0
 33 34  1  1  0  0  0
 35 39  1  6  0  0  0
 35 33  1  0  0  0  0
 36 38  2  0  0  0  0
 38 37  1  0  0  0  0
 38 35  1  0  0  0  0
 40 39  1  0  0  0  0
 42 41  2  0  0  0  0
 43 42  1  0  0  0  0
 44 43  1  0  0  0  0
 45 44  1  0  0  0  0
 46 45  2  0  0  0  0
 47 48  1  0  0  0  0
 47 45  1  0  0  0  0
 48 49  1  0  0  0  0
 49 61  1  6  0  0  0
 49 51  1  0  0  0  0
 50 51  1  0  0  0  0
 52 53  1  1  0  0  0
 52 50  1  0  0  0  0
 52 51  1  0  0  0  0
 53 54  1  0  0  0  0
 54 55  1  0  0  0  0
 57 56  1  1  0  0  0
 57 58  1  0  0  0  0
 57 55  1  0  0  0  0
 59 60  1  0  0  0  0
 59 58  1  0  0  0  0
 61 62  1  0  0  0  0
 63 62  1  0  0  0  0
 63 64  1  0  0  0  0
M  END
>  <MODEL>
6

>  <REMARK>
 VINA RESULT:      -3.7      3.870     12.510
  Name = 
  29 active torsions:
  status: ('A' for Active; 'I' for Inactive)
    1  A    between atoms: C_2  and  C_6
    2  A    between atoms: C_2  and  N_50
    3  A    between atoms: C_2  and  C_60
    4  A    between atoms: C_4  and  C_24
    5  A    between atoms: C_4  and  C_48
    6  A    between atoms: O_5  and  C_8
    7  A    between atoms: C_6  and  C_24
    8  A    between atoms: C_8  and  C_60
    9  A    between atoms: C_11  and  C_34
   10  A    between atoms: C_11  and  C_46
   11  A    between atoms: C_12  and  C_33
   12  A    between atoms: C_14  and  C_31
   13  A    between atoms: C_14  and  C_34
   14  A    between atoms: C_17  and  C_58
   15  A    between atoms: C_21  and  O_29
   16  A    between atoms: C_21  and  C_54
   17  A    between atoms: C_22  and  S_23
   18  A    between atoms: C_22  and  C_53
   19  A    between atoms: S_23  and  C_54
   20  A    between atoms: C_25  and  C_61
   21  A    between atoms: C_31  and  O_52
   22  A    between atoms: C_35  and  C_46
   23  A    between atoms: C_35  and  C_61
   24  A    between atoms: C_41  and  C_43
   25  A    between atoms: C_42  and  O_52
   26  A    between atoms: C_48  and  O_59
   27  A    between atoms: C_49  and  C_61
   28  A    between atoms: C_51  and  C_53
   29  A    between atoms: C_58  and  O_59
                            x       y       z     vdW  Elec       q    Type
                         _______ _______ _______ _____ _____    ______ ____

>  <TORSDO>
F 29

$$$$
=
 OpenBabel11062417473D

 64 68  0  0  1  0  0  0  0  0999 V2000
  186.3780  178.0820  138.7270 C   0  0  0  0  0  2  0  0  0  0  0  0
  187.7570  177.7730  138.1590 C   0  0  2  0  0  3  0  0  0  0  0  0
  190.9730  177.0780  140.1830 C   0  0  0  0  0  3  0  0  0  0  0  0
  186.4410  177.7250  140.2060 C   0  0  1  0  0  3  0  0  0  0  0  0
  187.8750  177.4100  140.4560 C   0  0  0  0  0  0  0  0  0  0  0  0
  191.7580  177.0650  142.3960 O   0  0  0  0  0  0  0  0  0  0  0  0
  190.0490  177.1650  139.2170 C   0  0  0  0  0  3  0  0  0  0  0  0
  188.6050  177.4710  139.3480 C   0  0  0  0  0  0  0  0  0  0  0  0
  190.7930  177.3080  141.6290 C   0  0  0  0  0  0  0  0  0  0  0  0
  189.5330  177.8380  142.2230 C   0  0  0  0  0  2  0  0  0  0  0  0
  188.3700  176.9730  141.7940 C   0  0  0  0  0  2  0  0  0  0  0  0
  183.5010  177.8850  139.5810 C   0  0  0  0  0  2  0  0  0  0  0  0
  184.5460  179.5150  142.9780 C   0  0  0  0  0  2  0  0  0  0  0  0
  183.4470  178.3640  141.0220 C   0  0  0  0  0  0  0  0  0  0  0  0
  185.9710  178.8720  141.0510 C   0  0  0  0  0  0  0  0  0  0  0  0
  184.6780  178.8420  141.6860 N   0  0  0  0  0  0  0  0  0  0  0  0
  182.1380  178.8130  141.6150 C   0  0  0  0  0  0  0  0  0  0  0  0
  183.4730  176.8750  140.7300 C   0  0  0  0  0  2  0  0  0  0  0  0
  186.7460  179.8460  141.2590 O   0  0  0  0  0  0  0  0  0  0  0  0
  181.1640  178.9880  140.8980 O   0  0  0  0  0  0  0  0  0  0  0  0
  183.4130  178.8930  143.7930 C   0  0  2  0  0  3  0  0  0  0  0  0
  182.0530  179.1070  143.0950 C   0  0  2  0  0  3  0  0  0  0  0  0
  179.9770  179.0500  144.3220 F   0  0  0  0  0  0  0  0  0  0  0  0
  180.9550  178.2580  143.7360 C   0  0  0  0  0  3  0  0  0  0  0  0
  180.3780  177.4130  142.8050 F   0  0  0  0  0  0  0  0  0  0  0  0
  183.4050  179.4340  145.0800 O   0  0  0  0  0  0  0  0  0  0  0  0
  184.7470  179.4260  145.4730 C   0  0  0  0  0  2  0  0  0  0  0  0
  184.9830  178.3410  146.5060 C   0  0  0  0  0  2  0  0  0  0  0  0
  185.9610  177.3320  145.9380 C   0  0  0  0  0  2  0  0  0  0  0  0
  187.3530  177.9330  145.8260 C   0  0  2  0  0  3  0  0  0  0  0  0
  187.3940  178.8250  144.7530 O   0  0  0  0  0  1  0  0  0  0  0  0
  188.3880  176.8370  145.5950 C   0  0  0  0  0  2  0  0  0  0  0  0
  189.2650  176.5390  146.8130 C   0  0  2  0  0  3  0  0  0  0  0  0
  188.5110  176.0830  147.8980 O   0  0  0  0  0  1  0  0  0  0  0  0
  190.2050  177.6920  147.1940 C   0  0  2  0  0  3  0  0  0  0  0  0
  191.8930  176.1020  147.8090 O   0  0  0  0  0  0  0  0  0  0  0  0
  191.8430  178.0320  149.0430 O   0  0  0  0  0  1  0  0  0  0  0  0
  191.3600  177.2240  148.0220 C   0  0  0  0  0  0  0  0  0  0  0  0
  189.5160  178.9140  147.8130 C   0  0  0  0  0  2  0  0  0  0  0  0
  188.8400  178.5810  148.9880 O   0  0  0  0  0  1  0  0  0  0  0  0
  187.5400  179.9720  137.2170 O   0  0  0  0  0  0  0  0  0  0  0  0
  188.2510  178.9380  137.3440 C   0  0  0  0  0  0  0  0  0  0  0  0
  189.4700  178.8710  136.6680 O   0  0  0  0  0  0  0  0  0  0  0  0
  190.1830  177.6480  136.5190 C   0  0  0  0  0  2  0  0  0  0  0  0
  189.3990  176.6760  135.6920 C   0  0  0  0  0  0  0  0  0  0  0  0
  188.5910  177.1110  134.7230 C   0  0  0  0  0  2  0  0  0  0  0  0
  189.4970  175.2160  136.0070 C   0  0  0  0  0  2  0  0  0  0  0  0
  188.1760  174.5020  135.7550 C   0  0  0  0  0  2  0  0  0  0  0  0
  188.2840  173.0110  136.0600 C   0  0  1  0  0  3  0  0  0  0  0  0
  186.3310  172.5210  137.5030 C   0  0  0  0  0  2  0  0  0  0  0  0
  186.9240  172.4400  136.1530 N   0  0  0  0  0  0  0  0  0  0  0  0
  186.0190  173.5480  136.5160 C   0  0  1  0  0  3  0  0  0  0  0  0
  184.6440  173.2800  135.9410 C   0  0  0  0  0  2  0  0  0  0  0  0
  183.7020  172.8570  137.0500 C   0  0  0  0  0  2  0  0  0  0  0  0
  182.9330  174.3230  137.7920 S   0  0  0  0  0  0  0  0  0  0  0  0
  181.5810  175.7860  136.0510 O   0  0  0  0  0  1  0  0  0  0  0  0
  181.6790  174.4620  136.4820 C   0  0  2  0  0  3  0  0  0  0  0  0
  180.3240  173.9840  136.9890 C   0  0  0  0  0  2  0  0  0  0  0  0
  179.6900  173.1960  136.0220 O   0  0  0  0  0  0  0  0  0  0  0  0
  179.7490  171.8990  136.5320 C   0  0  0  0  0  1  0  0  0  0  0  0
  189.2190  172.3360  135.0340 C   0  0  0  0  0  2  0  0  0  0  0  0
  190.5980  172.0620  135.6290 C   0  0  0  0  0  2  0  0  0  0  0  0
  191.4390  171.4800  134.6720 O   0  0  0  0  0  0  0  0  0  0  0  0
  192.6810  171.3940  135.2980 C   0  0  0  0  0  1  0  0  0  0  0  0
  1  4  1  0  0  0  0
  2 42  1  1  0  0  0
  2  1  1  0  0  0  0
  2  8  1  0  0  0  0
  3  9  1  0  0  0  0
  4  5  1  0  0  0  0
  4 15  1  1  0  0  0
  5 11  1  0  0  0  0
  7  8  1  0  0  0  0
  7  3  2  0  0  0  0
  8  5  2  0  0  0  0
  9 10  1  0  0  0  0
  9  6  2  0  0  0  0
 11 10  1  0  0  0  0
 12 18  1  0  0  0  0
 12 14  1  0  0  0  0
 13 21  1  0  0  0  0
 14 17  1  0  0  0  0
 14 16  1  0  0  0  0
 15 19  2  0  0  0  0
 15 16  1  0  0  0  0
 16 13  1  0  0  0  0
 17 22  1  0  0  0  0
 18 14  1  0  0  0  0
 20 17  2  0  0  0  0
 21 26  1  1  0  0  0
 22 24  1  1  0  0  0
 22 21  1  0  0  0  0
 24 23  1  0  0  0  0
 25 24  1  0  0  0  0
 26 27  1  0  0  0  0
 27 28  1  0  0  0  0
 29 28  1  0  0  0  0
 30 31  1  6  0  0  0
 30 29  1  0  0  0  0
 32 30  1  0  0  0  0
 32 33  1  0  0  0  0
 33 35  1  0  0  0  0
 33 34  1  1  0  0  0
 35 39  1  1  0  0  0
 35 38  1  0  0  0  0
 36 38  2  0  0  0  0
 38 37  1  0  0  0  0
 39 40  1  0  0  0  0
 41 42  2  0  0  0  0
 43 42  1  0  0  0  0
 44 43  1  0  0  0  0
 45 47  1  0  0  0  0
 45 44  1  0  0  0  0
 46 45  2  0  0  0  0
 48 47  1  0  0  0  0
 48 49  1  0  0  0  0
 49 61  1  6  0  0  0
 49 51  1  0  0  0  0
 51 52  1  0  0  0  0
 51 50  1  0  0  0  0
 52 53  1  6  0  0  0
 52 50  1  0  0  0  0
 53 54  1  0  0  0  0
 54 55  1  0  0  0  0
 57 56  1  1  0  0  0
 57 58  1  0  0  0  0
 57 55  1  0  0  0  0
 59 60  1  0  0  0  0
 59 58  1  0  0  0  0
 61 62  1  0  0  0  0
 63 64  1  0  0  0  0
 63 62  1  0  0  0  0
M  END
>  <MODEL>
7

>  <REMARK>
 VINA RESULT:      -3.4      3.745      9.653
  Name = 
  29 active torsions:
  status: ('A' for Active; 'I' for Inactive)
    1  A    between atoms: C_2  and  C_6
    2  A    between atoms: C_2  and  N_50
    3  A    between atoms: C_2  and  C_60
    4  A    between atoms: C_4  and  C_24
    5  A    between atoms: C_4  and  C_48
    6  A    between atoms: O_5  and  C_8
    7  A    between atoms: C_6  and  C_24
    8  A    between atoms: C_8  and  C_60
    9  A    between atoms: C_11  and  C_34
   10  A    between atoms: C_11  and  C_46
   11  A    between atoms: C_12  and  C_33
   12  A    between atoms: C_14  and  C_31
   13  A    between atoms: C_14  and  C_34
   14  A    between atoms: C_17  and  C_58
   15  A    between atoms: C_21  and  O_29
   16  A    between atoms: C_21  and  C_54
   17  A    between atoms: C_22  and  S_23
   18  A    between atoms: C_22  and  C_53
   19  A    between atoms: S_23  and  C_54
   20  A    between atoms: C_25  and  C_61
   21  A    between atoms: C_31  and  O_52
   22  A    between atoms: C_35  and  C_46
   23  A    between atoms: C_35  and  C_61
   24  A    between atoms: C_41  and  C_43
   25  A    between atoms: C_42  and  O_52
   26  A    between atoms: C_48  and  O_59
   27  A    between atoms: C_49  and  C_61
   28  A    between atoms: C_51  and  C_53
   29  A    between atoms: C_58  and  O_59
                            x       y       z     vdW  Elec       q    Type
                         _______ _______ _______ _____ _____    ______ ____

>  <TORSDO>
F 29

$$$$
=
 OpenBabel11062417473D

 64 68  0  0  1  0  0  0  0  0999 V2000
  186.3780  178.0980  138.7340 C   0  0  0  0  0  2  0  0  0  0  0  0
  187.7390  177.7920  138.1240 C   0  0  2  0  0  3  0  0  0  0  0  0
  190.9870  176.9760  140.0500 C   0  0  0  0  0  3  0  0  0  0  0  0
  186.4670  177.6840  140.1960 C   0  0  1  0  0  3  0  0  0  0  0  0
  187.9010  177.3400  140.4030 C   0  0  0  0  0  0  0  0  0  0  0  0
  191.8190  176.8670  142.2430 O   0  0  0  0  0  0  0  0  0  0  0  0
  190.0450  177.1130  139.1080 C   0  0  0  0  0  3  0  0  0  0  0  0
  188.6080  177.4330  139.2830 C   0  0  0  0  0  0  0  0  0  0  0  0
  190.8420  177.1530  141.5070 C   0  0  0  0  0  0  0  0  0  0  0  0
  189.6020  177.6770  142.1490 C   0  0  0  0  0  2  0  0  0  0  0  0
  188.4180  176.8460  141.7120 C   0  0  0  0  0  2  0  0  0  0  0  0
  183.5550  178.0270  139.5140 C   0  0  0  0  0  2  0  0  0  0  0  0
  184.5900  179.4100  143.0220 C   0  0  0  0  0  2  0  0  0  0  0  0
  183.4870  178.4260  140.9790 C   0  0  0  0  0  0  0  0  0  0  0  0
  186.0310  178.8040  141.0950 C   0  0  0  0  0  0  0  0  0  0  0  0
  184.7230  178.8040  141.6970 N   0  0  0  0  0  0  0  0  0  0  0  0
  182.1870  178.9070  141.5660 C   0  0  0  0  0  0  0  0  0  0  0  0
  183.4480  176.9570  140.6020 C   0  0  0  0  0  2  0  0  0  0  0  0
  186.8470  179.7250  141.3760 O   0  0  0  0  0  0  0  0  0  0  0  0
  181.2420  179.1710  140.8380 O   0  0  0  0  0  0  0  0  0  0  0  0
  183.4070  178.8010  143.7730 C   0  0  2  0  0  3  0  0  0  0  0  0
  182.0780  179.1220  143.0580 C   0  0  2  0  0  3  0  0  0  0  0  0
  179.7630  179.0490  143.7340 F   0  0  0  0  0  0  0  0  0  0  0  0
  180.9240  178.2940  143.6240 C   0  0  0  0  0  3  0  0  0  0  0  0
  180.6850  177.1790  142.8400 F   0  0  0  0  0  0  0  0  0  0  0  0
  183.3930  179.2690  145.0890 O   0  0  0  0  0  0  0  0  0  0  0  0
  184.7430  179.3670  145.4430 C   0  0  0  0  0  2  0  0  0  0  0  0
  184.8820  179.4970  146.9470 C   0  0  0  0  0  2  0  0  0  0  0  0
  185.6800  178.3180  147.4660 C   0  0  0  0  0  2  0  0  0  0  0  0
  186.8790  178.0420  146.5720 C   0  0  2  0  0  3  0  0  0  0  0  0
  186.4500  177.4420  145.3860 O   0  0  0  0  0  1  0  0  0  0  0  0
  187.8590  177.1060  147.2710 C   0  0  0  0  0  2  0  0  0  0  0  0
  189.0990  177.8060  147.8310 C   0  0  2  0  0  3  0  0  0  0  0  0
  188.8470  179.1460  148.1360 O   0  0  0  0  0  1  0  0  0  0  0  0
  190.3540  177.6260  146.9660 C   0  0  2  0  0  3  0  0  0  0  0  0
  189.5920  178.5350  144.8810 O   0  0  0  0  0  1  0  0  0  0  0  0
  190.1860  176.3230  144.8460 O   0  0  0  0  0  0  0  0  0  0  0  0
  190.0240  177.5320  145.5090 C   0  0  0  0  0  0  0  0  0  0  0  0
  191.2950  176.5000  147.4120 C   0  0  0  0  0  2  0  0  0  0  0  0
  192.6210  176.9320  147.4660 O   0  0  0  0  0  1  0  0  0  0  0  0
  187.5190  180.0150  137.2410 O   0  0  0  0  0  0  0  0  0  0  0  0
  188.2330  178.9810  137.3440 C   0  0  0  0  0  0  0  0  0  0  0  0
  189.4560  178.9370  136.6720 O   0  0  0  0  0  0  0  0  0  0  0  0
  190.1580  177.7170  136.4670 C   0  0  0  0  0  2  0  0  0  0  0  0
  189.3740  176.7960  135.5840 C   0  0  0  0  0  0  0  0  0  0  0  0
  188.6240  177.2850  134.5940 C   0  0  0  0  0  2  0  0  0  0  0  0
  189.4030  175.3270  135.8650 C   0  0  0  0  0  2  0  0  0  0  0  0
  188.0620  174.6740  135.5570 C   0  0  0  0  0  2  0  0  0  0  0  0
  188.0940  173.1760  135.8460 C   0  0  1  0  0  3  0  0  0  0  0  0
  189.7510  171.3550  135.5670 C   0  0  0  0  0  2  0  0  0  0  0  0
  189.5000  172.7460  135.9970 N   0  0  0  0  0  0  0  0  0  0  0  0
  190.0060  172.4530  134.6410 C   0  0  1  0  0  3  0  0  0  0  0  0
  191.4950  172.7240  134.5940 C   0  0  0  0  0  2  0  0  0  0  0  0
  192.1520  172.1750  135.8440 C   0  0  0  0  0  2  0  0  0  0  0  0
  193.9260  171.9370  135.5480 S   0  0  0  0  0  0  0  0  0  0  0  0
  193.4030  173.9960  137.1240 O   0  0  0  0  0  1  0  0  0  0  0  0
  194.3660  173.5750  136.2050 C   0  0  2  0  0  3  0  0  0  0  0  0
  194.4770  174.5900  135.0740 C   0  0  0  0  0  2  0  0  0  0  0  0
  195.6490  175.3420  135.2060 O   0  0  0  0  0  0  0  0  0  0  0  0
  196.6610  174.3950  135.3540 C   0  0  0  0  0  1  0  0  0  0  0  0
  187.1700  172.8560  137.0410 C   0  0  0  0  0  2  0  0  0  0  0  0
  185.6980  172.9230  136.6420 C   0  0  0  0  0  2  0  0  0  0  0  0
  185.0060  173.8170  137.4690 O   0  0  0  0  0  0  0  0  0  0  0  0
  184.4620  174.7570  136.5960 C   0  0  0  0  0  1  0  0  0  0  0  0
  1  4  1  0  0  0  0
  2 42  1  1  0  0  0
  2  1  1  0  0  0  0
  2  8  1  0  0  0  0
  3  9  1  0  0  0  0
  4  5  1  0  0  0  0
  4 15  1  1  0  0  0
  5 11  1  0  0  0  0
  7  8  1  0  0  0  0
  7  3  2  0  0  0  0
  8  5  2  0  0  0  0
  9 10  1  0  0  0  0
  9  6  2  0  0  0  0
 11 10  1  0  0  0  0
 12 18  1  0  0  0  0
 12 14  1  0  0  0  0
 13 21  1  0  0  0  0
 14 17  1  0  0  0  0
 14 16  1  0  0  0  0
 15 19  2  0  0  0  0
 15 16  1  0  0  0  0
 16 13  1  0  0  0  0
 17 22  1  0  0  0  0
 18 14  1  0  0  0  0
 20 17  2  0  0  0  0
 21 26  1  1  0  0  0
 22 24  1  1  0  0  0
 22 21  1  0  0  0  0
 24 23  1  0  0  0  0
 25 24  1  0  0  0  0
 26 27  1  0  0  0  0
 27 28  1  0  0  0  0
 28 29  1  0  0  0  0
 30 31  1  6  0  0  0
 30 32  1  0  0  0  0
 30 29  1  0  0  0  0
 32 33  1  0  0  0  0
 33 34  1  6  0  0  0
 35 39  1  1  0  0  0
 35 33  1  0  0  0  0
 36 38  1  0  0  0  0
 37 38  2  0  0  0  0
 38 35  1  0  0  0  0
 39 40  1  0  0  0  0
 41 42  2  0  0  0  0
 43 42  1  0  0  0  0
 44 43  1  0  0  0  0
 45 47  1  0  0  0  0
 45 44  1  0  0  0  0
 46 45  2  0  0  0  0
 48 47  1  0  0  0  0
 49 48  1  1  0  0  0
 49 51  1  0  0  0  0
 49 61  1  0  0  0  0
 50 51  1  0  0  0  0
 52 53  1  1  0  0  0
 52 50  1  0  0  0  0
 52 51  1  0  0  0  0
 53 54  1  0  0  0  0
 55 54  1  0  0  0  0
 55 57  1  0  0  0  0
 57 56  1  1  0  0  0
 58 59  1  0  0  0  0
 58 57  1  0  0  0  0
 59 60  1  0  0  0  0
 62 61  1  0  0  0  0
 62 63  1  0  0  0  0
 64 63  1  0  0  0  0
M  END
>  <MODEL>
8

>  <REMARK>
 VINA RESULT:      -3.2      3.534     10.293
  Name = 
  29 active torsions:
  status: ('A' for Active; 'I' for Inactive)
    1  A    between atoms: C_2  and  C_6
    2  A    between atoms: C_2  and  N_50
    3  A    between atoms: C_2  and  C_60
    4  A    between atoms: C_4  and  C_24
    5  A    between atoms: C_4  and  C_48
    6  A    between atoms: O_5  and  C_8
    7  A    between atoms: C_6  and  C_24
    8  A    between atoms: C_8  and  C_60
    9  A    between atoms: C_11  and  C_34
   10  A    between atoms: C_11  and  C_46
   11  A    between atoms: C_12  and  C_33
   12  A    between atoms: C_14  and  C_31
   13  A    between atoms: C_14  and  C_34
   14  A    between atoms: C_17  and  C_58
   15  A    between atoms: C_21  and  O_29
   16  A    between atoms: C_21  and  C_54
   17  A    between atoms: C_22  and  S_23
   18  A    between atoms: C_22  and  C_53
   19  A    between atoms: S_23  and  C_54
   20  A    between atoms: C_25  and  C_61
   21  A    between atoms: C_31  and  O_52
   22  A    between atoms: C_35  and  C_46
   23  A    between atoms: C_35  and  C_61
   24  A    between atoms: C_41  and  C_43
   25  A    between atoms: C_42  and  O_52
   26  A    between atoms: C_48  and  O_59
   27  A    between atoms: C_49  and  C_61
   28  A    between atoms: C_51  and  C_53
   29  A    between atoms: C_58  and  O_59
                            x       y       z     vdW  Elec       q    Type
                         _______ _______ _______ _____ _____    ______ ____

>  <TORSDO>
F 29

$$$$
=
 OpenBabel11062417473D

 64 68  0  0  1  0  0  0  0  0999 V2000
  186.2480  177.9360  138.5110 C   0  0  0  0  0  2  0  0  0  0  0  0
  187.6520  177.6330  138.0030 C   0  0  2  0  0  3  0  0  0  0  0  0
  190.8320  177.2140  140.1560 C   0  0  0  0  0  3  0  0  0  0  0  0
  186.2820  177.6990  140.0140 C   0  0  1  0  0  3  0  0  0  0  0  0
  187.7180  177.4550  140.3250 C   0  0  0  0  0  0  0  0  0  0  0  0
  191.5560  177.4030  142.3820 O   0  0  0  0  0  0  0  0  0  0  0  0
  189.9330  177.1930  139.1630 C   0  0  0  0  0  3  0  0  0  0  0  0
  188.4760  177.4550  139.2340 C   0  0  0  0  0  0  0  0  0  0  0  0
  190.6050  177.5500  141.5740 C   0  0  0  0  0  0  0  0  0  0  0  0
  189.3120  178.0800  142.0930 C   0  0  0  0  0  2  0  0  0  0  0  0
  188.1900  177.1430  141.7050 C   0  0  0  0  0  2  0  0  0  0  0  0
  183.3820  177.7730  139.2120 C   0  0  0  0  0  2  0  0  0  0  0  0
  184.2080  179.6360  142.5490 C   0  0  0  0  0  2  0  0  0  0  0  0
  183.2380  178.3440  140.6130 C   0  0  0  0  0  0  0  0  0  0  0  0
  185.7500  178.8900  140.7540 C   0  0  0  0  0  0  0  0  0  0  0  0
  184.4230  178.8830  141.3140 N   0  0  0  0  0  0  0  0  0  0  0  0
  181.8920  178.8100  141.1000 C   0  0  0  0  0  0  0  0  0  0  0  0
  183.2980  176.8390  140.4210 C   0  0  0  0  0  2  0  0  0  0  0  0
  186.5000  179.8870  140.9420 O   0  0  0  0  0  0  0  0  0  0  0  0
  180.9600  178.9240  140.3180 O   0  0  0  0  0  0  0  0  0  0  0  0
  183.0360  179.0510  143.3370 C   0  0  2  0  0  3  0  0  0  0  0  0
  181.7170  179.1990  142.5490 C   0  0  2  0  0  3  0  0  0  0  0  0
  180.9590  177.8920  144.4300 F   0  0  0  0  0  0  0  0  0  0  0  0
  180.5930  178.3760  143.1800 C   0  0  0  0  0  3  0  0  0  0  0  0
  179.4350  179.1240  143.2890 F   0  0  0  0  0  0  0  0  0  0  0  0
  182.9470  179.6750  144.5830 O   0  0  0  0  0  0  0  0  0  0  0  0
  183.8120  178.9440  145.4050 C   0  0  0  0  0  2  0  0  0  0  0  0
  184.8820  178.2690  144.5680 C   0  0  0  0  0  2  0  0  0  0  0  0
  186.2320  178.5240  145.2070 C   0  0  0  0  0  2  0  0  0  0  0  0
  186.5910  177.4070  146.1750 C   0  0  2  0  0  3  0  0  0  0  0  0
  186.7490  177.9320  147.4590 O   0  0  0  0  0  1  0  0  0  0  0  0
  187.8940  176.7370  145.7530 C   0  0  0  0  0  2  0  0  0  0  0  0
  189.1520  177.4300  146.2820 C   0  0  2  0  0  3  0  0  0  0  0  0
  189.3390  178.6860  145.6960 O   0  0  0  0  0  1  0  0  0  0  0  0
  190.4140  176.5580  146.2160 C   0  0  2  0  0  3  0  0  0  0  0  0
  191.5490  175.3000  147.9150 O   0  0  0  0  0  0  0  0  0  0  0  0
  191.1190  177.4940  148.4170 O   0  0  0  0  0  1  0  0  0  0  0  0
  191.0620  176.4050  147.5560 C   0  0  0  0  0  0  0  0  0  0  0  0
  191.4240  176.9580  145.1340 C   0  0  0  0  0  2  0  0  0  0  0  0
  191.9390  175.8390  144.4750 O   0  0  0  0  0  1  0  0  0  0  0  0
  187.3740  179.7250  136.8580 O   0  0  0  0  0  0  0  0  0  0  0  0
  188.1290  178.7480  137.1110 C   0  0  0  0  0  0  0  0  0  0  0  0
  189.3830  178.6880  136.5030 O   0  0  0  0  0  0  0  0  0  0  0  0
  190.0660  177.4560  136.3020 C   0  0  0  0  0  2  0  0  0  0  0  0
  189.1920  176.4790  135.5770 C   0  0  0  0  0  0  0  0  0  0  0  0
  188.3640  176.8950  134.6170 C   0  0  0  0  0  2  0  0  0  0  0  0
  189.2240  175.0390  135.9860 C   0  0  0  0  0  2  0  0  0  0  0  0
  189.6830  174.1450  134.8430 C   0  0  0  0  0  2  0  0  0  0  0  0
  190.6410  173.0630  135.3340 C   0  0  1  0  0  3  0  0  0  0  0  0
  190.1700  170.7120  135.9560 C   0  0  0  0  0  2  0  0  0  0  0  0
  190.1390  171.7440  134.8990 N   0  0  0  0  0  0  0  0  0  0  0  0
  188.9380  171.4540  135.7080 C   0  0  1  0  0  3  0  0  0  0  0  0
  187.9910  170.5880  134.9060 C   0  0  0  0  0  2  0  0  0  0  0  0
  186.5590  170.9290  135.2660 C   0  0  0  0  0  2  0  0  0  0  0  0
  186.5400  172.2340  136.5260 S   0  0  0  0  0  0  0  0  0  0  0  0
  186.3580  174.4600  135.1080 O   0  0  0  0  0  1  0  0  0  0  0  0
  185.5720  173.3710  135.4880 C   0  0  2  0  0  3  0  0  0  0  0  0
  184.3420  173.8630  136.2400 C   0  0  0  0  0  2  0  0  0  0  0  0
  183.2310  173.0710  135.9330 O   0  0  0  0  0  0  0  0  0  0  0  0
  182.9050  173.4160  134.6220 C   0  0  0  0  0  1  0  0  0  0  0  0
  192.0810  173.4040  134.8940 C   0  0  0  0  0  2  0  0  0  0  0  0
  192.7820  174.2940  135.9170 C   0  0  0  0  0  2  0  0  0  0  0  0
  193.6690  173.5400  136.6960 O   0  0  0  0  0  0  0  0  0  0  0  0
  194.9210  174.1000  136.4470 C   0  0  0  0  0  1  0  0  0  0  0  0
  1  4  1  0  0  0  0
  2 42  1  1  0  0  0
  2  1  1  0  0  0  0
  2  8  1  0  0  0  0
  3  9  1  0  0  0  0
  4  5  1  0  0  0  0
  4 15  1  1  0  0  0
  5 11  1  0  0  0  0
  7  8  1  0  0  0  0
  7  3  2  0  0  0  0
  8  5  2  0  0  0  0
  9 10  1  0  0  0  0
  9  6  2  0  0  0  0
 11 10  1  0  0  0  0
 12 18  1  0  0  0  0
 12 14  1  0  0  0  0
 13 21  1  0  0  0  0
 14 17  1  0  0  0  0
 14 16  1  0  0  0  0
 15 19  2  0  0  0  0
 15 16  1  0  0  0  0
 16 13  1  0  0  0  0
 17 22  1  0  0  0  0
 18 14  1  0  0  0  0
 20 17  2  0  0  0  0
 21 26  1  1  0  0  0
 22 24  1  1  0  0  0
 22 21  1  0  0  0  0
 24 25  1  0  0  0  0
 24 23  1  0  0  0  0
 26 27  1  0  0  0  0
 28 29  1  0  0  0  0
 28 27  1  0  0  0  0
 29 30  1  0  0  0  0
 30 31  1  1  0  0  0
 32 30  1  0  0  0  0
 32 33  1  0  0  0  0
 33 34  1  6  0  0  0
 35 39  1  6  0  0  0
 35 33  1  0  0  0  0
 35 38  1  0  0  0  0
 38 36  2  0  0  0  0
 38 37  1  0  0  0  0
 40 39  1  0  0  0  0
 41 42  2  0  0  0  0
 43 42  1  0  0  0  0
 44 43  1  0  0  0  0
 45 47  1  0  0  0  0
 45 44  1  0  0  0  0
 46 45  2  0  0  0  0
 48 47  1  0  0  0  0
 49 48  1  6  0  0  0
 51 49  1  0  0  0  0
 51 52  1  0  0  0  0
 51 50  1  0  0  0  0
 52 53  1  6  0  0  0
 52 50  1  0  0  0  0
 53 54  1  0  0  0  0
 54 55  1  0  0  0  0
 57 56  1  1  0  0  0
 57 58  1  0  0  0  0
 57 55  1  0  0  0  0
 59 58  1  0  0  0  0
 60 59  1  0  0  0  0
 61 49  1  0  0  0  0
 61 62  1  0  0  0  0
 62 63  1  0  0  0  0
 64 63  1  0  0  0  0
M  END
>  <MODEL>
9

>  <REMARK>
 VINA RESULT:      -3.1      3.492      9.952
  Name = 
  29 active torsions:
  status: ('A' for Active; 'I' for Inactive)
    1  A    between atoms: C_2  and  C_6
    2  A    between atoms: C_2  and  N_50
    3  A    between atoms: C_2  and  C_60
    4  A    between atoms: C_4  and  C_24
    5  A    between atoms: C_4  and  C_48
    6  A    between atoms: O_5  and  C_8
    7  A    between atoms: C_6  and  C_24
    8  A    between atoms: C_8  and  C_60
    9  A    between atoms: C_11  and  C_34
   10  A    between atoms: C_11  and  C_46
   11  A    between atoms: C_12  and  C_33
   12  A    between atoms: C_14  and  C_31
   13  A    between atoms: C_14  and  C_34
   14  A    between atoms: C_17  and  C_58
   15  A    between atoms: C_21  and  O_29
   16  A    between atoms: C_21  and  C_54
   17  A    between atoms: C_22  and  S_23
   18  A    between atoms: C_22  and  C_53
   19  A    between atoms: S_23  and  C_54
   20  A    between atoms: C_25  and  C_61
   21  A    between atoms: C_31  and  O_52
   22  A    between atoms: C_35  and  C_46
   23  A    between atoms: C_35  and  C_61
   24  A    between atoms: C_41  and  C_43
   25  A    between atoms: C_42  and  O_52
   26  A    between atoms: C_48  and  O_59
   27  A    between atoms: C_49  and  C_61
   28  A    between atoms: C_51  and  C_53
   29  A    between atoms: C_58  and  O_59
                            x       y       z     vdW  Elec       q    Type
                         _______ _______ _______ _____ _____    ______ ____

>  <TORSDO>
F 29

$$$$
