=
 OpenBabel11062415473D

 44 47  0  0  1  0  0  0  0  0999 V2000
  187.8940  176.0980  136.7340 C   0  0  0  0  0  2  0  0  0  0  0  0
  184.9190  176.4380  135.3130 O   0  0  0  0  0  0  0  0  0  0  0  0
  181.7240  176.6730  137.6930 O   0  0  0  0  0  0  0  0  0  0  0  0
  187.4420  178.2990  141.9550 C   0  0  2  0  0  3  0  0  0  0  0  0
  188.8910  177.8450  141.7240 C   0  0  1  0  0  3  0  0  0  0  0  0
  187.2470  177.1090  137.6890 C   0  0  2  0  0  3  0  0  0  0  0  0
  186.0920  177.9240  137.0520 C   0  0  1  0  0  3  0  0  0  0  0  0
  189.6950  176.4490  139.1960 O   0  0  0  0  0  0  0  0  0  0  0  0
  180.4140  178.2710  139.0670 C   0  0  0  0  0  2  0  0  0  0  0  0
  186.2310  176.0880  134.9420 C   0  0  0  0  0  2  0  0  0  0  0  0
  185.2090  178.9460  139.1890 C   0  0  0  0  0  0  0  0  0  0  0  0
  184.8600  177.1070  136.5620 C   0  0  2  0  0  3  0  0  0  0  0  0
  187.0250  178.0060  143.2540 O   0  0  0  0  0  1  0  0  0  0  0  0
  183.9040  179.5980  139.5480 C   0  0  0  0  0  2  0  0  0  0  0  0
  182.9780  177.1190  138.1430 C   0  0  2  0  0  3  0  0  0  0  0  0
  181.1210  180.2560  140.1070 O   0  0  0  0  0  0  0  0  0  0  0  0
  186.5270  177.6100  141.0050 C   0  0  0  0  0  3  0  0  0  0  0  0
  184.1190  176.2820  137.6030 C   0  0  0  0  0  2  0  0  0  0  0  0
  189.4300  178.4420  140.4290 C   0  0  0  0  0  2  0  0  0  0  0  0
  189.1760  177.5540  139.2520 C   0  0  0  0  0  0  0  0  0  0  0  0
  182.8290  178.6270  140.0970 C   0  0  1  0  0  3  0  0  0  0  0  0
  181.4430  179.1300  139.7620 C   0  0  0  0  0  0  0  0  0  0  0  0
  180.8340  177.7800  137.6620 C   0  0  1  0  0  3  0  0  0  0  0  0
  183.0250  177.1720  139.6550 C   0  0  0  0  0  2  0  0  0  0  0  0
  185.8760  178.2890  140.1040 C   0  0  0  0  0  0  0  0  0  0  0  0
  185.6680  179.0350  137.8630 O   0  0  0  0  0  0  0  0  0  0  0  0
  186.9080  175.2210  135.9880 C   0  0  0  0  0  2  0  0  0  0  0  0
  188.3570  178.0710  138.1080 C   0  0  0  0  0  2  0  0  0  0  0  0
  181.2210  178.8780  136.6450 C   0  0  2  0  0  3  0  0  0  0  0  0
  180.7560  181.3300  136.8880 O   0  0  0  0  0  1  0  0  0  0  0  0
  179.0430  179.8440  136.5610 O   0  0  0  0  0  0  0  0  0  0  0  0
  180.2780  180.0390  136.6920 C   0  0  0  0  0  0  0  0  0  0  0  0
  181.2380  178.3340  135.2500 C   0  0  0  0  0  3  0  0  0  0  0  0
  182.2690  178.3150  134.5980 O   0  0  0  0  0  0  0  0  0  0  0  0
  189.8080  178.3090  142.8510 C   0  0  0  0  0  2  0  0  0  0  0  0
  191.3330  176.4980  142.6300 O   0  0  0  0  0  0  0  0  0  0  0  0
  190.6070  177.1710  143.4060 C   0  0  0  0  0  0  0  0  0  0  0  0
  189.8660  177.5300  145.8290 C   0  0  0  0  0  0  0  0  0  0  0  0
  189.2190  178.5820  145.5820 O   0  0  0  0  0  0  0  0  0  0  0  0
  190.5770  176.8330  144.7990 N   0  0  0  0  0  2  0  0  0  0  0  0
  189.9240  177.0220  147.2260 C   0  0  0  0  0  2  0  0  0  0  0  0
  189.3440  178.0520  148.1740 C   0  0  0  0  0  2  0  0  0  0  0  0
  187.9710  177.6030  148.6270 C   0  0  0  0  0  2  0  0  0  0  0  0
  186.9120  178.3770  147.8700 C   0  0  0  0  0  1  0  0  0  0  0  0
  2 12  1  0  0  0  0
  3 15  1  0  0  0  0
  4 13  1  1  0  0  0
  5  4  1  0  0  0  0
  5 35  1  1  0  0  0
  6  1  1  6  0  0  0
  6 28  1  0  0  0  0
  7  6  1  0  0  0  0
  7 26  1  1  0  0  0
  8 20  2  0  0  0  0
  9 22  1  0  0  0  0
 10  2  1  0  0  0  0
 10 27  1  0  0  0  0
 11 14  1  0  0  0  0
 11 25  2  0  0  0  0
 12  7  1  0  0  0  0
 12 18  1  1  0  0  0
 15 18  1  1  0  0  0
 15 24  1  0  0  0  0
 17  4  1  0  0  0  0
 19  5  1  0  0  0  0
 20 19  1  0  0  0  0
 21 14  1  6  0  0  0
 22 21  1  0  0  0  0
 22 16  2  0  0  0  0
 23 29  1  1  0  0  0
 23  3  1  0  0  0  0
 23  9  1  0  0  0  0
 24 21  1  0  0  0  0
 25 17  2  0  0  0  0
 26 11  1  0  0  0  0
 27  1  1  0  0  0  0
 28 20  1  0  0  0  0
 29 33  1  6  0  0  0
 29 32  1  0  0  0  0
 31 32  2  0  0  0  0
 32 30  1  0  0  0  0
 34 33  2  0  0  0  0
 35 37  1  0  0  0  0
 36 37  2  0  0  0  0
 37 40  1  0  0  0  0
 38 41  1  0  0  0  0
 39 38  2  0  0  0  0
 40 38  1  0  0  0  0
 41 42  1  0  0  0  0
 42 43  1  0  0  0  0
 44 43  1  0  0  0  0
M  END
>  <MODEL>
1

>  <REMARK>
 VINA RESULT:      -6.4      0.000      0.000
  Name = 
  8 active torsions:
  status: ('A' for Active; 'I' for Inactive)
    1  A    between atoms: C_6  and  C_8
    2  A    between atoms: C_6  and  C_18
    3  A    between atoms: C_6  and  C_37
    4  A    between atoms: C_9  and  C_40
    5  A    between atoms: C_13  and  C_40
    6  A    between atoms: C_23  and  C_33
    7  A    between atoms: C_30  and  C_34
    8  A    between atoms: C_33  and  C_34
                            x       y       z     vdW  Elec       q    Type
                         _______ _______ _______ _____ _____    ______ ____

>  <TORSDO>
F 8

$$$$
=
 OpenBabel11062415473D

 44 47  0  0  1  0  0  0  0  0999 V2000
  188.0350  176.1210  137.1280 C   0  0  0  0  0  2  0  0  0  0  0  0
  185.0910  176.3340  135.6220 O   0  0  0  0  0  0  0  0  0  0  0  0
  181.8240  176.4730  137.9120 O   0  0  0  0  0  0  0  0  0  0  0  0
  187.3570  178.3570  142.3090 C   0  0  2  0  0  3  0  0  0  0  0  0
  188.8280  177.9560  142.1230 C   0  0  1  0  0  3  0  0  0  0  0  0
  187.3250  177.1170  138.0530 C   0  0  2  0  0  3  0  0  0  0  0  0
  186.1580  177.8810  137.3760 C   0  0  1  0  0  3  0  0  0  0  0  0
  189.7540  176.5650  139.6330 O   0  0  0  0  0  0  0  0  0  0  0  0
  180.4170  178.0340  139.2310 C   0  0  0  0  0  2  0  0  0  0  0  0
  186.4240  176.0300  135.2920 C   0  0  0  0  0  2  0  0  0  0  0  0
  185.1790  178.8910  139.4760 C   0  0  0  0  0  0  0  0  0  0  0  0
  184.9720  177.0130  136.8610 C   0  0  2  0  0  3  0  0  0  0  0  0
  186.9160  178.0630  143.6000 O   0  0  0  0  0  1  0  0  0  0  0  0
  183.8410  179.4970  139.7920 C   0  0  0  0  0  2  0  0  0  0  0  0
  183.0470  176.9710  138.3900 C   0  0  2  0  0  3  0  0  0  0  0  0
  181.0210  180.0560  140.2670 O   0  0  0  0  0  0  0  0  0  0  0  0
  186.4950  177.6240  141.3420 C   0  0  0  0  0  3  0  0  0  0  0  0
  184.2340  176.1710  137.8910 C   0  0  0  0  0  2  0  0  0  0  0  0
  189.3800  178.5590  140.8370 C   0  0  0  0  0  2  0  0  0  0  0  0
  189.1920  177.6500  139.6630 C   0  0  0  0  0  0  0  0  0  0  0  0
  182.7880  178.4920  140.3220 C   0  0  1  0  0  3  0  0  0  0  0  0
  181.3940  178.9390  139.9440 C   0  0  0  0  0  0  0  0  0  0  0  0
  180.8950  177.5450  137.8430 C   0  0  1  0  0  3  0  0  0  0  0  0
  183.0510  177.0410  139.9030 C   0  0  0  0  0  2  0  0  0  0  0  0
  185.8440  178.2690  140.4160 C   0  0  0  0  0  0  0  0  0  0  0  0
  185.6710  178.9840  138.1620 O   0  0  0  0  0  0  0  0  0  0  0  0
  187.1040  175.2000  136.3650 C   0  0  0  0  0  2  0  0  0  0  0  0
  188.3860  178.1250  138.4920 C   0  0  0  0  0  2  0  0  0  0  0  0
  181.2680  178.6470  136.8250 C   0  0  2  0  0  3  0  0  0  0  0  0
  180.7920  181.0990  137.0420 O   0  0  0  0  0  1  0  0  0  0  0  0
  179.0810  179.5960  136.7860 O   0  0  0  0  0  0  0  0  0  0  0  0
  180.3180  179.8020  136.8800 C   0  0  0  0  0  0  0  0  0  0  0  0
  181.2790  178.1040  135.4290 C   0  0  0  0  0  3  0  0  0  0  0  0
  182.3210  178.0140  134.8010 O   0  0  0  0  0  0  0  0  0  0  0  0
  189.6950  178.4660  143.2700 C   0  0  0  0  0  2  0  0  0  0  0  0
  191.5990  177.1790  142.6560 O   0  0  0  0  0  0  0  0  0  0  0  0
  190.8080  177.5120  143.5760 C   0  0  0  0  0  0  0  0  0  0  0  0
  190.2490  177.2980  146.0640 C   0  0  0  0  0  0  0  0  0  0  0  0
  189.3360  178.1650  146.0360 O   0  0  0  0  0  0  0  0  0  0  0  0
  191.0060  176.9750  144.8910 N   0  0  0  0  0  2  0  0  0  0  0  0
  190.5750  176.6230  147.3490 C   0  0  0  0  0  2  0  0  0  0  0  0
  191.6040  175.5350  147.1120 C   0  0  0  0  0  2  0  0  0  0  0  0
  192.8040  175.7740  148.0040 C   0  0  0  0  0  2  0  0  0  0  0  0
  192.5180  176.9380  148.9310 C   0  0  0  0  0  1  0  0  0  0  0  0
  2 12  1  0  0  0  0
  3 15  1  0  0  0  0
  4 13  1  1  0  0  0
  5  4  1  0  0  0  0
  5 35  1  1  0  0  0
  6  1  1  6  0  0  0
  6 28  1  0  0  0  0
  7  6  1  0  0  0  0
  7 26  1  1  0  0  0
  8 20  2  0  0  0  0
  9 22  1  0  0  0  0
 10  2  1  0  0  0  0
 10 27  1  0  0  0  0
 11 14  1  0  0  0  0
 11 25  2  0  0  0  0
 12  7  1  0  0  0  0
 12 18  1  1  0  0  0
 15 18  1  1  0  0  0
 15 24  1  0  0  0  0
 17  4  1  0  0  0  0
 19  5  1  0  0  0  0
 20 19  1  0  0  0  0
 21 14  1  6  0  0  0
 22 16  2  0  0  0  0
 22 21  1  0  0  0  0
 23 29  1  1  0  0  0
 23  3  1  0  0  0  0
 23  9  1  0  0  0  0
 24 21  1  0  0  0  0
 25 17  2  0  0  0  0
 26 11  1  0  0  0  0
 27  1  1  0  0  0  0
 28 20  1  0  0  0  0
 29 33  1  6  0  0  0
 29 32  1  0  0  0  0
 31 32  2  0  0  0  0
 32 30  1  0  0  0  0
 34 33  2  0  0  0  0
 35 37  1  0  0  0  0
 36 37  2  0  0  0  0
 37 40  1  0  0  0  0
 38 41  1  0  0  0  0
 39 38  2  0  0  0  0
 40 38  1  0  0  0  0
 42 41  1  0  0  0  0
 42 43  1  0  0  0  0
 43 44  1  0  0  0  0
M  END
>  <MODEL>
2

>  <REMARK>
 VINA RESULT:      -5.9      0.899      1.354
  Name = 
  8 active torsions:
  status: ('A' for Active; 'I' for Inactive)
    1  A    between atoms: C_6  and  C_8
    2  A    between atoms: C_6  and  C_18
    3  A    between atoms: C_6  and  C_37
    4  A    between atoms: C_9  and  C_40
    5  A    between atoms: C_13  and  C_40
    6  A    between atoms: C_23  and  C_33
    7  A    between atoms: C_30  and  C_34
    8  A    between atoms: C_33  and  C_34
                            x       y       z     vdW  Elec       q    Type
                         _______ _______ _______ _____ _____    ______ ____

>  <TORSDO>
F 8

$$$$
=
 OpenBabel11062415473D

 44 47  0  0  1  0  0  0  0  0999 V2000
  187.8170  177.6420  142.6400 C   0  0  0  0  0  2  0  0  0  0  0  0
  190.8920  176.7350  141.8030 O   0  0  0  0  0  0  0  0  0  0  0  0
  191.3910  174.7460  138.3780 O   0  0  0  0  0  0  0  0  0  0  0  0
  184.8770  178.0220  137.7900 C   0  0  2  0  0  3  0  0  0  0  0  0
  183.9740  178.4400  138.9600 C   0  0  1  0  0  3  0  0  0  0  0  0
  187.7870  177.9270  141.1330 C   0  0  2  0  0  3  0  0  0  0  0  0
  189.1880  178.1600  140.5110 C   0  0  1  0  0  3  0  0  0  0  0  0
  184.9350  178.2810  141.7950 O   0  0  0  0  0  0  0  0  0  0  0  0
  191.6330  175.0810  135.9320 C   0  0  0  0  0  2  0  0  0  0  0  0
  190.2030  177.2010  142.9380 C   0  0  0  0  0  2  0  0  0  0  0  0
  188.4790  178.0600  138.0870 C   0  0  0  0  0  0  0  0  0  0  0  0
  190.1870  176.9690  140.5960 C   0  0  2  0  0  3  0  0  0  0  0  0
  184.1700  177.2660  136.8540 O   0  0  0  0  0  1  0  0  0  0  0  0
  189.2370  177.8500  136.8060 C   0  0  0  0  0  2  0  0  0  0  0  0
  190.3260  175.6510  138.5250 C   0  0  2  0  0  3  0  0  0  0  0  0
  190.8440  176.8440  134.5940 O   0  0  0  0  0  0  0  0  0  0  0  0
  186.0190  177.2050  138.2840 C   0  0  0  0  0  3  0  0  0  0  0  0
  189.7670  175.6650  139.9330 C   0  0  0  0  0  2  0  0  0  0  0  0
  184.6610  179.5090  139.8010 C   0  0  0  0  0  2  0  0  0  0  0  0
  185.4790  178.9180  140.9050 C   0  0  0  0  0  0  0  0  0  0  0  0
  189.3590  176.3700  136.3660 C   0  0  1  0  0  3  0  0  0  0  0  0
  190.6330  176.1560  135.5800 C   0  0  0  0  0  0  0  0  0  0  0  0
  192.2460  175.2150  137.3460 C   0  0  1  0  0  3  0  0  0  0  0  0
  189.2300  175.3680  137.5190 C   0  0  0  0  0  2  0  0  0  0  0  0
  187.2410  177.6440  138.1790 C   0  0  0  0  0  0  0  0  0  0  0  0
  189.1330  178.6750  139.1680 O   0  0  0  0  0  0  0  0  0  0  0  0
  188.8200  176.5860  143.0580 C   0  0  0  0  0  2  0  0  0  0  0  0
  186.9510  179.1940  140.9540 C   0  0  0  0  0  2  0  0  0  0  0  0
  192.9440  176.5580  137.6600 C   0  0  2  0  0  3  0  0  0  0  0  0
  194.5000  177.8840  136.2080 O   0  0  0  0  0  0  0  0  0  0  0  0
  195.0560  175.7670  136.8870 O   0  0  0  0  0  1  0  0  0  0  0  0
  194.2250  176.7110  136.9020 C   0  0  0  0  0  0  0  0  0  0  0  0
  193.2390  176.6790  139.1240 C   0  0  0  0  0  3  0  0  0  0  0  0
  193.6150  177.7360  139.6010 O   0  0  0  0  0  0  0  0  0  0  0  0
  182.6570  179.0310  138.4650 C   0  0  0  0  0  2  0  0  0  0  0  0
  181.7140  178.4880  140.5800 O   0  0  0  0  0  0  0  0  0  0  0  0
  181.7120  179.2770  139.5990 C   0  0  0  0  0  0  0  0  0  0  0  0
  180.7250  181.4220  138.6150 C   0  0  0  0  0  0  0  0  0  0  0  0
  181.5120  181.4540  137.6320 O   0  0  0  0  0  0  0  0  0  0  0  0
  180.8120  180.3930  139.6080 N   0  0  0  0  0  2  0  0  0  0  0  0
  179.7080  182.4980  138.7690 C   0  0  0  0  0  2  0  0  0  0  0  0
  179.4950  183.1990  137.4420 C   0  0  0  0  0  2  0  0  0  0  0  0
  179.8530  184.6630  137.5840 C   0  0  0  0  0  2  0  0  0  0  0  0
  181.1960  184.9200  136.9320 C   0  0  0  0  0  1  0  0  0  0  0  0
  1 27  1  0  0  0  0
  2 10  1  0  0  0  0
  3 15  1  0  0  0  0
  4 13  1  6  0  0  0
  4 17  1  0  0  0  0
  4  5  1  0  0  0  0
  5 35  1  6  0  0  0
  5 19  1  0  0  0  0
  6 28  1  1  0  0  0
  6  1  1  0  0  0  0
  7 26  1  6  0  0  0
  7 12  1  0  0  0  0
  7  6  1  0  0  0  0
  9 23  1  0  0  0  0
 10 27  1  0  0  0  0
 11 25  2  0  0  0  0
 11 26  1  0  0  0  0
 12 18  1  1  0  0  0
 12  2  1  0  0  0  0
 14 11  1  0  0  0  0
 15 24  1  6  0  0  0
 15 18  1  0  0  0  0
 16 22  2  0  0  0  0
 19 20  1  0  0  0  0
 20 28  1  0  0  0  0
 20  8  2  0  0  0  0
 21 14  1  1  0  0  0
 21 24  1  0  0  0  0
 22  9  1  0  0  0  0
 22 21  1  0  0  0  0
 23 29  1  1  0  0  0
 23  3  1  0  0  0  0
 25 17  2  0  0  0  0
 29 33  1  1  0  0  0
 30 32  2  0  0  0  0
 31 32  1  0  0  0  0
 32 29  1  0  0  0  0
 33 34  2  0  0  0  0
 35 37  1  0  0  0  0
 37 40  1  0  0  0  0
 37 36  2  0  0  0  0
 38 41  1  0  0  0  0
 38 40  1  0  0  0  0
 39 38  2  0  0  0  0
 42 43  1  0  0  0  0
 42 41  1  0  0  0  0
 44 43  1  0  0  0  0
M  END
>  <MODEL>
3

>  <REMARK>
 VINA RESULT:      -5.2      3.350      9.695
  Name = 
  8 active torsions:
  status: ('A' for Active; 'I' for Inactive)
    1  A    between atoms: C_6  and  C_8
    2  A    between atoms: C_6  and  C_18
    3  A    between atoms: C_6  and  C_37
    4  A    between atoms: C_9  and  C_40
    5  A    between atoms: C_13  and  C_40
    6  A    between atoms: C_23  and  C_33
    7  A    between atoms: C_30  and  C_34
    8  A    between atoms: C_33  and  C_34
                            x       y       z     vdW  Elec       q    Type
                         _______ _______ _______ _____ _____    ______ ____

>  <TORSDO>
F 8

$$$$
=
 OpenBabel11062415473D

 44 47  0  0  1  0  0  0  0  0999 V2000
  187.8010  177.6660  142.5510 C   0  0  0  0  0  2  0  0  0  0  0  0
  190.9100  176.7940  141.8060 O   0  0  0  0  0  0  0  0  0  0  0  0
  191.5210  174.7380  138.4390 O   0  0  0  0  0  0  0  0  0  0  0  0
  184.9700  177.8890  137.6280 C   0  0  2  0  0  3  0  0  0  0  0  0
  184.0330  178.3170  138.7670 C   0  0  1  0  0  3  0  0  0  0  0  0
  187.8020  177.9180  141.0380 C   0  0  2  0  0  3  0  0  0  0  0  0
  189.2130  178.1610  140.4430 C   0  0  1  0  0  3  0  0  0  0  0  0
  184.9290  178.2370  141.6270 O   0  0  0  0  0  0  0  0  0  0  0  0
  191.8150  175.0230  135.9930 C   0  0  0  0  0  2  0  0  0  0  0  0
  190.1860  177.2720  142.9140 C   0  0  0  0  0  2  0  0  0  0  0  0
  188.5620  177.9950  138.0060 C   0  0  0  0  0  0  0  0  0  0  0  0
  190.2290  176.9890  140.5780 C   0  0  2  0  0  3  0  0  0  0  0  0
  184.2980  177.1000  136.6930 O   0  0  0  0  0  1  0  0  0  0  0  0
  189.3530  177.7700  136.7490 C   0  0  0  0  0  2  0  0  0  0  0  0
  190.4390  175.6280  138.5410 C   0  0  2  0  0  3  0  0  0  0  0  0
  191.0290  176.7430  134.5970 O   0  0  0  0  0  0  0  0  0  0  0  0
  186.1130  177.1020  138.1670 C   0  0  0  0  0  3  0  0  0  0  0  0
  189.8460  175.6640  139.9350 C   0  0  0  0  0  2  0  0  0  0  0  0
  184.6820  179.4160  139.5990 C   0  0  0  0  0  2  0  0  0  0  0  0
  185.4830  178.8640  140.7350 C   0  0  0  0  0  0  0  0  0  0  0  0
  189.5100  176.2820  136.3450 C   0  0  1  0  0  3  0  0  0  0  0  0
  190.8060  176.0740  135.5940 C   0  0  0  0  0  0  0  0  0  0  0  0
  192.3920  175.1990  137.4170 C   0  0  1  0  0  3  0  0  0  0  0  0
  189.3710  175.3040  137.5170 C   0  0  0  0  0  2  0  0  0  0  0  0
  187.3290  177.5600  138.0800 C   0  0  0  0  0  0  0  0  0  0  0  0
  189.1810  178.6450  139.0880 O   0  0  0  0  0  0  0  0  0  0  0  0
  188.8120  176.6370  143.0160 C   0  0  0  0  0  2  0  0  0  0  0  0
  186.9490  179.1650  140.8120 C   0  0  0  0  0  2  0  0  0  0  0  0
  193.0610  176.5610  137.7160 C   0  0  2  0  0  3  0  0  0  0  0  0
  195.2550  175.7350  136.8270 O   0  0  0  0  0  1  0  0  0  0  0  0
  194.5180  177.8490  136.3380 O   0  0  0  0  0  0  0  0  0  0  0  0
  194.3130  176.7540  136.9200 C   0  0  0  0  0  0  0  0  0  0  0  0
  193.3960  176.6830  139.1710 C   0  0  0  0  0  3  0  0  0  0  0  0
  193.6480  177.7690  139.6660 O   0  0  0  0  0  0  0  0  0  0  0  0
  182.7180  178.8740  138.2290 C   0  0  0  0  0  2  0  0  0  0  0  0
  182.3390  181.1870  138.6370 O   0  0  0  0  0  0  0  0  0  0  0  0
  182.2250  180.0100  139.0700 C   0  0  0  0  0  0  0  0  0  0  0  0
  181.3430  178.5310  140.9620 C   0  0  0  0  0  0  0  0  0  0  0  0
  181.5860  177.4480  140.3650 O   0  0  0  0  0  0  0  0  0  0  0  0
  181.6150  179.7970  140.3500 N   0  0  0  0  0  2  0  0  0  0  0  0
  180.7260  178.4940  142.3150 C   0  0  0  0  0  2  0  0  0  0  0  0
  181.5550  179.3150  143.2820 C   0  0  0  0  0  2  0  0  0  0  0  0
  182.8450  178.5830  143.5870 C   0  0  0  0  0  2  0  0  0  0  0  0
  183.3020  178.9290  144.9890 C   0  0  0  0  0  1  0  0  0  0  0  0
  1 27  1  0  0  0  0
  2 10  1  0  0  0  0
  3 15  1  0  0  0  0
  4 13  1  6  0  0  0
  4 17  1  0  0  0  0
  4  5  1  0  0  0  0
  5 35  1  6  0  0  0
  5 19  1  0  0  0  0
  6 28  1  1  0  0  0
  6  1  1  0  0  0  0
  7 26  1  6  0  0  0
  7 12  1  0  0  0  0
  7  6  1  0  0  0  0
  9 23  1  0  0  0  0
 10 27  1  0  0  0  0
 11 25  2  0  0  0  0
 11 26  1  0  0  0  0
 12 18  1  1  0  0  0
 12  2  1  0  0  0  0
 14 11  1  0  0  0  0
 15 24  1  6  0  0  0
 15 18  1  0  0  0  0
 16 22  2  0  0  0  0
 19 20  1  0  0  0  0
 20 28  1  0  0  0  0
 20  8  2  0  0  0  0
 21 14  1  1  0  0  0
 21 24  1  0  0  0  0
 22  9  1  0  0  0  0
 22 21  1  0  0  0  0
 23 29  1  1  0  0  0
 23  3  1  0  0  0  0
 25 17  2  0  0  0  0
 29 33  1  1  0  0  0
 30 32  1  0  0  0  0
 31 32  2  0  0  0  0
 32 29  1  0  0  0  0
 33 34  2  0  0  0  0
 35 37  1  0  0  0  0
 36 37  2  0  0  0  0
 37 40  1  0  0  0  0
 38 41  1  0  0  0  0
 39 38  2  0  0  0  0
 40 38  1  0  0  0  0
 41 42  1  0  0  0  0
 42 43  1  0  0  0  0
 43 44  1  0  0  0  0
M  END
>  <MODEL>
4

>  <REMARK>
 VINA RESULT:      -5.0      3.255      8.885
  Name = 
  8 active torsions:
  status: ('A' for Active; 'I' for Inactive)
    1  A    between atoms: C_6  and  C_8
    2  A    between atoms: C_6  and  C_18
    3  A    between atoms: C_6  and  C_37
    4  A    between atoms: C_9  and  C_40
    5  A    between atoms: C_13  and  C_40
    6  A    between atoms: C_23  and  C_33
    7  A    between atoms: C_30  and  C_34
    8  A    between atoms: C_33  and  C_34
                            x       y       z     vdW  Elec       q    Type
                         _______ _______ _______ _____ _____    ______ ____

>  <TORSDO>
F 8

$$$$
=
 OpenBabel11062415473D

 44 47  0  0  1  0  0  0  0  0999 V2000
  187.6640  176.8180  138.5550 C   0  0  0  0  0  2  0  0  0  0  0  0
  185.4610  176.9550  136.0830 O   0  0  0  0  0  0  0  0  0  0  0  0
  181.5880  176.6830  137.0100 O   0  0  0  0  0  0  0  0  0  0  0  0
  184.9440  178.5700  143.2290 C   0  0  2  0  0  3  0  0  0  0  0  0
  186.4130  178.2860  143.5780 C   0  0  1  0  0  3  0  0  0  0  0  0
  186.5770  177.6840  139.2040 C   0  0  2  0  0  3  0  0  0  0  0  0
  185.6700  178.4210  138.1840 C   0  0  1  0  0  3  0  0  0  0  0  0
  188.3050  177.1710  141.5370 O   0  0  0  0  0  0  0  0  0  0  0  0
  179.6600  178.0310  137.7960 C   0  0  0  0  0  2  0  0  0  0  0  0
  186.8460  176.7700  136.2520 C   0  0  0  0  0  2  0  0  0  0  0  0
  183.9050  179.1860  139.8240 C   0  0  0  0  0  0  0  0  0  0  0  0
  184.8380  177.5200  137.2240 C   0  0  2  0  0  3  0  0  0  0  0  0
  184.0940  178.1410  144.2490 O   0  0  0  0  0  1  0  0  0  0  0  0
  182.4930  179.6720  139.6550 C   0  0  0  0  0  2  0  0  0  0  0  0
  182.5020  177.2210  137.9310 C   0  0  2  0  0  3  0  0  0  0  0  0
  179.6540  179.9970  139.0840 O   0  0  0  0  0  0  0  0  0  0  0  0
  184.5650  177.8620  141.9760 C   0  0  0  0  0  3  0  0  0  0  0  0
  183.8580  176.5480  137.8640 C   0  0  0  0  0  2  0  0  0  0  0  0
  187.3360  179.0290  142.6190 C   0  0  0  0  0  2  0  0  0  0  0  0
  187.6730  178.2090  141.4140 C   0  0  0  0  0  0  0  0  0  0  0  0
  181.4180  178.5570  139.7070 C   0  0  1  0  0  3  0  0  0  0  0  0
  180.2220  178.9380  138.8640 C   0  0  0  0  0  0  0  0  0  0  0  0
  180.6520  177.6920  136.6590 C   0  0  1  0  0  3  0  0  0  0  0  0
  181.9500  177.1670  139.3400 C   0  0  0  0  0  2  0  0  0  0  0  0
  184.2380  178.5360  140.9100 C   0  0  0  0  0  0  0  0  0  0  0  0
  184.8290  179.4190  138.7910 O   0  0  0  0  0  0  0  0  0  0  0  0
  187.1630  175.9030  137.4560 C   0  0  0  0  0  2  0  0  0  0  0  0
  187.3070  178.7220  140.0540 C   0  0  0  0  0  2  0  0  0  0  0  0
  181.2650  178.8960  135.9080 C   0  0  2  0  0  3  0  0  0  0  0  0
  179.0980  179.6520  134.9000 O   0  0  0  0  0  0  0  0  0  0  0  0
  180.4330  181.1270  136.0380 O   0  0  0  0  0  1  0  0  0  0  0  0
  180.2460  179.9540  135.6240 C   0  0  0  0  0  0  0  0  0  0  0  0
  181.8780  178.4630  134.6120 C   0  0  0  0  0  3  0  0  0  0  0  0
  182.9010  177.7980  134.5940 O   0  0  0  0  0  0  0  0  0  0  0  0
  186.7530  178.7580  144.9890 C   0  0  0  0  0  2  0  0  0  0  0  0
  186.1380  177.0070  146.4770 O   0  0  0  0  0  0  0  0  0  0  0  0
  187.0760  177.6030  145.8850 C   0  0  0  0  0  0  0  0  0  0  0  0
  189.5940  177.6600  145.4360 C   0  0  0  0  0  0  0  0  0  0  0  0
  189.5200  178.5640  144.5630 O   0  0  0  0  0  0  0  0  0  0  0  0
  188.4210  177.1470  146.0800 N   0  0  0  0  0  2  0  0  0  0  0  0
  190.9230  177.0840  145.7790 C   0  0  0  0  0  2  0  0  0  0  0  0
  191.7060  176.8060  144.5110 C   0  0  0  0  0  2  0  0  0  0  0  0
  191.6340  175.3290  144.1890 C   0  0  0  0  0  2  0  0  0  0  0  0
  192.4030  174.5470  145.2340 C   0  0  0  0  0  1  0  0  0  0  0  0
  2 10  1  0  0  0  0
  2 12  1  0  0  0  0
  3 15  1  0  0  0  0
  4  5  1  0  0  0  0
  4 13  1  1  0  0  0
  5 35  1  1  0  0  0
  6  1  1  6  0  0  0
  6 28  1  0  0  0  0
  7 26  1  1  0  0  0
  7  6  1  0  0  0  0
  9 22  1  0  0  0  0
 10 27  1  0  0  0  0
 11 25  2  0  0  0  0
 12 18  1  1  0  0  0
 12  7  1  0  0  0  0
 14 21  1  0  0  0  0
 14 11  1  0  0  0  0
 15 18  1  1  0  0  0
 15 24  1  0  0  0  0
 17  4  1  0  0  0  0
 19  5  1  0  0  0  0
 20  8  2  0  0  0  0
 20 19  1  0  0  0  0
 21 24  1  6  0  0  0
 22 16  2  0  0  0  0
 22 21  1  0  0  0  0
 23 29  1  1  0  0  0
 23  3  1  0  0  0  0
 23  9  1  0  0  0  0
 25 17  2  0  0  0  0
 26 11  1  0  0  0  0
 27  1  1  0  0  0  0
 28 20  1  0  0  0  0
 29 33  1  6  0  0  0
 30 32  2  0  0  0  0
 32 29  1  0  0  0  0
 32 31  1  0  0  0  0
 34 33  2  0  0  0  0
 35 37  1  0  0  0  0
 37 40  1  0  0  0  0
 37 36  2  0  0  0  0
 38 41  1  0  0  0  0
 38 40  1  0  0  0  0
 39 38  2  0  0  0  0
 42 41  1  0  0  0  0
 43 42  1  0  0  0  0
 43 44  1  0  0  0  0
M  END
>  <MODEL>
5

>  <REMARK>
 VINA RESULT:      -4.9      1.657      2.669
  Name = 
  8 active torsions:
  status: ('A' for Active; 'I' for Inactive)
    1  A    between atoms: C_6  and  C_8
    2  A    between atoms: C_6  and  C_18
    3  A    between atoms: C_6  and  C_37
    4  A    between atoms: C_9  and  C_40
    5  A    between atoms: C_13  and  C_40
    6  A    between atoms: C_23  and  C_33
    7  A    between atoms: C_30  and  C_34
    8  A    between atoms: C_33  and  C_34
                            x       y       z     vdW  Elec       q    Type
                         _______ _______ _______ _____ _____    ______ ____

>  <TORSDO>
F 8

$$$$
=
 OpenBabel11062415473D

 44 47  0  0  1  0  0  0  0  0999 V2000
  186.9470  176.8940  137.1320 C   0  0  0  0  0  2  0  0  0  0  0  0
  183.7450  177.7450  137.0530 O   0  0  0  0  0  0  0  0  0  0  0  0
  181.6310  177.3950  140.4210 O   0  0  0  0  0  0  0  0  0  0  0  0
  188.6360  177.4900  142.5260 C   0  0  2  0  0  3  0  0  0  0  0  0
  189.8370  177.0700  141.6660 C   0  0  1  0  0  3  0  0  0  0  0  0
  186.8190  177.6060  138.4840 C   0  0  2  0  0  3  0  0  0  0  0  0
  185.6420  178.6140  138.5540 C   0  0  1  0  0  3  0  0  0  0  0  0
  189.5160  176.4430  138.7520 O   0  0  0  0  0  0  0  0  0  0  0  0
  181.1140  178.5700  142.5440 C   0  0  0  0  0  2  0  0  0  0  0  0
  184.7850  177.4700  136.1460 C   0  0  0  0  0  2  0  0  0  0  0  0
  185.7030  179.0000  141.0510 C   0  0  0  0  0  0  0  0  0  0  0  0
  184.2150  178.0220  138.3610 C   0  0  2  0  0  3  0  0  0  0  0  0
  188.6550  176.8480  143.7640 O   0  0  0  0  0  1  0  0  0  0  0  0
  184.7070  179.5680  142.0230 C   0  0  0  0  0  2  0  0  0  0  0  0
  183.0130  177.6430  140.4730 C   0  0  2  0  0  3  0  0  0  0  0  0
  182.4100  180.1380  143.7220 O   0  0  0  0  0  0  0  0  0  0  0  0
  187.3620  177.1440  141.8390 C   0  0  0  0  0  3  0  0  0  0  0  0
  183.7680  176.9570  139.3520 C   0  0  0  0  0  2  0  0  0  0  0  0
  189.9760  177.9980  140.4650 C   0  0  0  0  0  2  0  0  0  0  0  0
  189.2100  177.5030  139.2790 C   0  0  0  0  0  0  0  0  0  0  0  0
  183.7610  178.5190  142.6600 C   0  0  1  0  0  3  0  0  0  0  0  0
  182.4310  179.1500  143.0040 C   0  0  0  0  0  0  0  0  0  0  0  0
  180.9510  178.4950  141.0070 C   0  0  1  0  0  3  0  0  0  0  0  0
  183.5860  177.2500  141.8180 C   0  0  0  0  0  2  0  0  0  0  0  0
  186.5440  178.0800  141.4510 C   0  0  0  0  0  0  0  0  0  0  0  0
  185.6850  179.4550  139.7210 O   0  0  0  0  0  0  0  0  0  0  0  0
  185.6510  176.3110  136.6050 C   0  0  0  0  0  2  0  0  0  0  0  0
  188.1290  178.3610  138.6960 C   0  0  0  0  0  2  0  0  0  0  0  0
  181.1160  179.8280  140.2400 C   0  0  2  0  0  3  0  0  0  0  0  0
  179.6210  181.7620  139.6870 O   0  0  0  0  0  0  0  0  0  0  0  0
  179.5640  180.8010  141.7660 O   0  0  0  0  0  1  0  0  0  0  0  0
  180.0570  180.8180  140.6090 C   0  0  0  0  0  0  0  0  0  0  0  0
  181.0640  179.6030  138.7600 C   0  0  0  0  0  3  0  0  0  0  0  0
  181.7690  180.2500  138.0030 O   0  0  0  0  0  0  0  0  0  0  0  0
  191.1420  177.1500  142.4530 C   0  0  0  0  0  2  0  0  0  0  0  0
  190.8030  179.3740  143.2270 O   0  0  0  0  0  0  0  0  0  0  0  0
  191.0620  178.1810  143.5350 C   0  0  0  0  0  0  0  0  0  0  0  0
  191.4920  176.5390  145.4490 C   0  0  0  0  0  0  0  0  0  0  0  0
  191.4870  175.5190  144.7100 O   0  0  0  0  0  0  0  0  0  0  0  0
  191.2600  177.8480  144.9150 N   0  0  0  0  0  2  0  0  0  0  0  0
  191.7050  176.3770  146.9130 C   0  0  0  0  0  2  0  0  0  0  0  0
  190.7300  177.2540  147.6750 C   0  0  0  0  0  2  0  0  0  0  0  0
  189.3200  176.7520  147.4510 C   0  0  0  0  0  2  0  0  0  0  0  0
  188.3430  177.6510  148.1800 C   0  0  0  0  0  1  0  0  0  0  0  0
  2 12  1  0  0  0  0
  3 15  1  0  0  0  0
  3 23  1  0  0  0  0
  4 13  1  1  0  0  0
  5 35  1  1  0  0  0
  5  4  1  0  0  0  0
  6  1  1  6  0  0  0
  6  7  1  0  0  0  0
  6 28  1  0  0  0  0
  7 26  1  1  0  0  0
  8 20  2  0  0  0  0
  9 22  1  0  0  0  0
 10 27  1  0  0  0  0
 10  2  1  0  0  0  0
 11 25  2  0  0  0  0
 11 14  1  0  0  0  0
 12  7  1  0  0  0  0
 12 18  1  1  0  0  0
 14 21  1  0  0  0  0
 15 18  1  6  0  0  0
 15 24  1  0  0  0  0
 17  4  1  0  0  0  0
 19  5  1  0  0  0  0
 20 19  1  0  0  0  0
 21 24  1  6  0  0  0
 21 22  1  0  0  0  0
 22 16  2  0  0  0  0
 23 29  1  6  0  0  0
 23  9  1  0  0  0  0
 25 17  2  0  0  0  0
 26 11  1  0  0  0  0
 27  1  1  0  0  0  0
 28 20  1  0  0  0  0
 29 33  1  6  0  0  0
 29 32  1  0  0  0  0
 30 32  2  0  0  0  0
 32 31  1  0  0  0  0
 34 33  2  0  0  0  0
 35 37  1  0  0  0  0
 36 37  2  0  0  0  0
 37 40  1  0  0  0  0
 38 41  1  0  0  0  0
 39 38  2  0  0  0  0
 40 38  1  0  0  0  0
 41 42  1  0  0  0  0
 43 42  1  0  0  0  0
 43 44  1  0  0  0  0
M  END
>  <MODEL>
6

>  <REMARK>
 VINA RESULT:      -4.8      1.768      2.508
  Name = 
  8 active torsions:
  status: ('A' for Active; 'I' for Inactive)
    1  A    between atoms: C_6  and  C_8
    2  A    between atoms: C_6  and  C_18
    3  A    between atoms: C_6  and  C_37
    4  A    between atoms: C_9  and  C_40
    5  A    between atoms: C_13  and  C_40
    6  A    between atoms: C_23  and  C_33
    7  A    between atoms: C_30  and  C_34
    8  A    between atoms: C_33  and  C_34
                            x       y       z     vdW  Elec       q    Type
                         _______ _______ _______ _____ _____    ______ ____

>  <TORSDO>
F 8

$$$$
=
 OpenBabel11062415473D

 44 47  0  0  1  0  0  0  0  0999 V2000
  184.7810  172.7560  135.7590 C   0  0  0  0  0  2  0  0  0  0  0  0
  181.9460  174.2550  136.5950 O   0  0  0  0  0  0  0  0  0  0  0  0
  182.0640  176.9980  139.4930 O   0  0  0  0  0  0  0  0  0  0  0  0
  188.9670  176.3330  137.1680 C   0  0  2  0  0  3  0  0  0  0  0  0
  189.5710  175.0930  136.4930 C   0  0  1  0  0  3  0  0  0  0  0  0
  185.2780  174.1930  135.9570 C   0  0  2  0  0  3  0  0  0  0  0  0
  184.1710  175.2680  135.8020 C   0  0  1  0  0  3  0  0  0  0  0  0
  187.8500  172.7770  135.6780 O   0  0  0  0  0  0  0  0  0  0  0  0
  182.5740  179.3890  139.9110 C   0  0  0  0  0  2  0  0  0  0  0  0
  182.3670  173.1280  135.8660 C   0  0  0  0  0  2  0  0  0  0  0  0
  185.4940  177.2200  136.7120 C   0  0  0  0  0  0  0  0  0  0  0  0
  182.9890  175.1910  136.8120 C   0  0  2  0  0  3  0  0  0  0  0  0
  189.7560  176.7570  138.2380 O   0  0  0  0  0  1  0  0  0  0  0  0
  185.0950  178.5700  137.2380 C   0  0  0  0  0  2  0  0  0  0  0  0
  183.1920  176.7670  138.6880 C   0  0  2  0  0  3  0  0  0  0  0  0
  184.0090  180.8260  138.7280 O   0  0  0  0  0  0  0  0  0  0  0  0
  187.6040  176.0290  137.6850 C   0  0  0  0  0  3  0  0  0  0  0  0
  183.3320  175.3120  138.2890 C   0  0  0  0  0  2  0  0  0  0  0  0
  188.8840  174.8320  135.1580 C   0  0  0  0  0  2  0  0  0  0  0  0
  187.6990  173.9300  135.3010 C   0  0  0  0  0  0  0  0  0  0  0  0
  184.8330  178.6140  138.7640 C   0  0  1  0  0  3  0  0  0  0  0  0
  183.8100  179.6780  139.0930 C   0  0  0  0  0  0  0  0  0  0  0  0
  181.6280  178.3350  139.2900 C   0  0  1  0  0  3  0  0  0  0  0  0
  184.4530  177.2570  139.3670 C   0  0  0  0  0  2  0  0  0  0  0  0
  186.5610  176.6310  137.1900 C   0  0  0  0  0  0  0  0  0  0  0  0
  184.6890  176.6090  135.7350 O   0  0  0  0  0  0  0  0  0  0  0  0
  183.5260  172.4140  136.5370 C   0  0  0  0  0  2  0  0  0  0  0  0
  186.3460  174.4270  134.8900 C   0  0  0  0  0  2  0  0  0  0  0  0
  181.1260  178.6300  137.8580 C   0  0  2  0  0  3  0  0  0  0  0  0
  181.1700  180.9750  136.9740 O   0  0  0  0  0  0  0  0  0  0  0  0
  179.4800  180.2810  138.3560 O   0  0  0  0  0  1  0  0  0  0  0  0
  180.5420  180.0030  137.7440 C   0  0  0  0  0  0  0  0  0  0  0  0
  180.0890  177.6340  137.4390 C   0  0  0  0  0  3  0  0  0  0  0  0
  180.0920  177.1630  136.3130 O   0  0  0  0  0  0  0  0  0  0  0  0
  191.0580  175.2810  136.2070 C   0  0  0  0  0  2  0  0  0  0  0  0
  191.3690  172.9390  135.9290 O   0  0  0  0  0  0  0  0  0  0  0  0
  191.8170  174.0080  136.4190 C   0  0  0  0  0  0  0  0  0  0  0  0
  193.7350  175.0980  137.7160 C   0  0  0  0  0  0  0  0  0  0  0  0
  193.3120  176.2730  137.5520 O   0  0  0  0  0  0  0  0  0  0  0  0
  193.0480  173.9730  137.1530 N   0  0  0  0  0  2  0  0  0  0  0  0
  194.9950  174.8760  138.4760 C   0  0  0  0  0  2  0  0  0  0  0  0
  195.3060  173.3940  138.5360 C   0  0  0  0  0  2  0  0  0  0  0  0
  196.6870  173.1450  137.9690 C   0  0  0  0  0  2  0  0  0  0  0  0
  197.4560  174.4500  137.9260 C   0  0  0  0  0  1  0  0  0  0  0  0
  1  6  1  0  0  0  0
  1 27  1  0  0  0  0
  2 12  1  0  0  0  0
  4 17  1  0  0  0  0
  4 13  1  1  0  0  0
  5 35  1  6  0  0  0
  5  4  1  0  0  0  0
  6 28  1  6  0  0  0
  7 26  1  1  0  0  0
  7  6  1  0  0  0  0
  7 12  1  0  0  0  0
 10 27  1  0  0  0  0
 10  2  1  0  0  0  0
 11 25  2  0  0  0  0
 11 14  1  0  0  0  0
 12 18  1  1  0  0  0
 15 18  1  1  0  0  0
 15 24  1  0  0  0  0
 15  3  1  0  0  0  0
 16 22  2  0  0  0  0
 19 20  1  0  0  0  0
 19  5  1  0  0  0  0
 20  8  2  0  0  0  0
 21 14  1  6  0  0  0
 21 22  1  0  0  0  0
 21 24  1  0  0  0  0
 22  9  1  0  0  0  0
 23 29  1  6  0  0  0
 23  3  1  0  0  0  0
 23  9  1  0  0  0  0
 25 17  2  0  0  0  0
 26 11  1  0  0  0  0
 28 20  1  0  0  0  0
 29 33  1  1  0  0  0
 30 32  2  0  0  0  0
 32 29  1  0  0  0  0
 32 31  1  0  0  0  0
 34 33  2  0  0  0  0
 35 37  1  0  0  0  0
 36 37  2  0  0  0  0
 37 40  1  0  0  0  0
 38 41  1  0  0  0  0
 39 38  2  0  0  0  0
 40 38  1  0  0  0  0
 41 42  1  0  0  0  0
 43 42  1  0  0  0  0
 44 43  1  0  0  0  0
M  END
>  <MODEL>
7

>  <REMARK>
 VINA RESULT:      -4.7      4.363      5.978
  Name = 
  8 active torsions:
  status: ('A' for Active; 'I' for Inactive)
    1  A    between atoms: C_6  and  C_8
    2  A    between atoms: C_6  and  C_18
    3  A    between atoms: C_6  and  C_37
    4  A    between atoms: C_9  and  C_40
    5  A    between atoms: C_13  and  C_40
    6  A    between atoms: C_23  and  C_33
    7  A    between atoms: C_30  and  C_34
    8  A    between atoms: C_33  and  C_34
                            x       y       z     vdW  Elec       q    Type
                         _______ _______ _______ _____ _____    ______ ____

>  <TORSDO>
F 8

$$$$
=
 OpenBabel11062415473D

 44 47  0  0  1  0  0  0  0  0999 V2000
  184.5440  178.0660  139.2790 C   0  0  0  0  0  2  0  0  0  0  0  0
  183.7920  178.4780  142.4790 O   0  0  0  0  0  0  0  0  0  0  0  0
  186.1450  176.7380  145.1940 O   0  0  0  0  0  0  0  0  0  0  0  0
  190.1240  177.0040  139.0620 C   0  0  2  0  0  3  0  0  0  0  0  0
  189.5660  177.0580  137.6320 C   0  0  1  0  0  3  0  0  0  0  0  0
  185.9480  178.2530  139.8680 C   0  0  2  0  0  3  0  0  0  0  0  0
  185.9640  179.0200  141.2170 C   0  0  1  0  0  3  0  0  0  0  0  0
  186.6340  177.4240  137.1230 O   0  0  0  0  0  0  0  0  0  0  0  0
  188.2730  177.0460  146.4320 C   0  0  0  0  0  2  0  0  0  0  0  0
  183.1870  178.6620  141.2220 C   0  0  0  0  0  2  0  0  0  0  0  0
  188.3700  178.5380  141.8250 C   0  0  0  0  0  0  0  0  0  0  0  0
  185.2020  178.3520  142.3990 C   0  0  2  0  0  3  0  0  0  0  0  0
  191.0690  175.9870  139.1950 O   0  0  0  0  0  1  0  0  0  0  0  0
  189.1330  178.6100  143.1170 C   0  0  0  0  0  2  0  0  0  0  0  0
  186.6660  177.1280  143.9490 C   0  0  2  0  0  3  0  0  0  0  0  0
  190.1810  178.2710  145.8150 O   0  0  0  0  0  0  0  0  0  0  0  0
  189.0270  176.7520  140.0360 C   0  0  0  0  0  3  0  0  0  0  0  0
  185.6630  176.9660  142.8240 C   0  0  0  0  0  2  0  0  0  0  0  0
  188.7840  178.3480  137.4190 C   0  0  0  0  0  2  0  0  0  0  0  0
  187.3360  178.1920  137.7640 C   0  0  0  0  0  0  0  0  0  0  0  0
  189.1320  177.2960  143.9380 C   0  0  1  0  0  3  0  0  0  0  0  0
  189.2440  177.5970  145.4160 C   0  0  0  0  0  0  0  0  0  0  0  0
  186.8040  177.4770  146.2120 C   0  0  1  0  0  3  0  0  0  0  0  0
  187.9430  176.3770  143.6350 C   0  0  0  0  0  2  0  0  0  0  0  0
  188.7100  177.6530  140.9220 C   0  0  0  0  0  0  0  0  0  0  0  0
  187.2870  179.4120  141.6290 O   0  0  0  0  0  0  0  0  0  0  0  0
  183.5180  177.5370  140.2590 C   0  0  0  0  0  2  0  0  0  0  0  0
  186.7420  179.0530  138.8370 C   0  0  0  0  0  2  0  0  0  0  0  0
  186.5420  179.0000  146.1630 C   0  0  2  0  0  3  0  0  0  0  0  0
  187.5270  179.0690  148.4680 O   0  0  0  0  0  1  0  0  0  0  0  0
  186.0560  180.6850  147.7780 O   0  0  0  0  0  0  0  0  0  0  0  0
  186.6940  179.6350  147.5100 C   0  0  0  0  0  0  0  0  0  0  0  0
  185.1650  179.2910  145.6510 C   0  0  0  0  0  3  0  0  0  0  0  0
  184.1810  178.8310  146.2060 O   0  0  0  0  0  0  0  0  0  0  0  0
  190.6850  177.0320  136.5950 C   0  0  0  0  0  2  0  0  0  0  0  0
  189.8380  175.1450  135.4200 O   0  0  0  0  0  0  0  0  0  0  0  0
  190.8300  175.6720  135.9870 C   0  0  0  0  0  0  0  0  0  0  0  0
  193.3130  175.4290  136.5570 C   0  0  0  0  0  0  0  0  0  0  0  0
  193.4240  176.5950  137.0190 O   0  0  0  0  0  0  0  0  0  0  0  0
  192.0720  174.9550  136.0200 N   0  0  0  0  0  2  0  0  0  0  0  0
  194.5040  174.5370  136.5330 C   0  0  0  0  0  2  0  0  0  0  0  0
  194.3640  173.4630  137.5930 C   0  0  0  0  0  2  0  0  0  0  0  0
  195.6670  173.3350  138.3550 C   0  0  0  0  0  2  0  0  0  0  0  0
  195.8100  174.5030  139.3080 C   0  0  0  0  0  1  0  0  0  0  0  0
  1  6  1  0  0  0  0
  1 27  1  0  0  0  0
  3 23  1  0  0  0  0
  4 13  1  6  0  0  0
  4 17  1  0  0  0  0
  5 35  1  6  0  0  0
  5  4  1  0  0  0  0
  6 28  1  6  0  0  0
  6  7  1  0  0  0  0
  7 26  1  1  0  0  0
  7 12  1  0  0  0  0
  8 20  2  0  0  0  0
 10  2  1  0  0  0  0
 11 14  1  0  0  0  0
 12  2  1  0  0  0  0
 12 18  1  6  0  0  0
 15 18  1  6  0  0  0
 15  3  1  0  0  0  0
 17 25  2  0  0  0  0
 19  5  1  0  0  0  0
 19 20  1  0  0  0  0
 20 28  1  0  0  0  0
 21 14  1  6  0  0  0
 21 22  1  0  0  0  0
 22 16  2  0  0  0  0
 22  9  1  0  0  0  0
 23 29  1  6  0  0  0
 23  9  1  0  0  0  0
 24 21  1  0  0  0  0
 24 15  1  0  0  0  0
 25 11  2  0  0  0  0
 26 11  1  0  0  0  0
 27 10  1  0  0  0  0
 29 33  1  1  0  0  0
 29 32  1  0  0  0  0
 32 31  2  0  0  0  0
 32 30  1  0  0  0  0
 33 34  2  0  0  0  0
 36 37  2  0  0  0  0
 37 40  1  0  0  0  0
 37 35  1  0  0  0  0
 38 39  2  0  0  0  0
 40 38  1  0  0  0  0
 41 38  1  0  0  0  0
 41 42  1  0  0  0  0
 42 43  1  0  0  0  0
 43 44  1  0  0  0  0
M  END
>  <MODEL>
8

>  <REMARK>
 VINA RESULT:      -4.6      3.394      8.402
  Name = 
  8 active torsions:
  status: ('A' for Active; 'I' for Inactive)
    1  A    between atoms: C_6  and  C_8
    2  A    between atoms: C_6  and  C_18
    3  A    between atoms: C_6  and  C_37
    4  A    between atoms: C_9  and  C_40
    5  A    between atoms: C_13  and  C_40
    6  A    between atoms: C_23  and  C_33
    7  A    between atoms: C_30  and  C_34
    8  A    between atoms: C_33  and  C_34
                            x       y       z     vdW  Elec       q    Type
                         _______ _______ _______ _____ _____    ______ ____

>  <TORSDO>
F 8

$$$$
=
 OpenBabel11062415473D

 44 47  0  0  1  0  0  0  0  0999 V2000
  182.0620  179.1100  142.3930 C   0  0  0  0  0  2  0  0  0  0  0  0
  179.7680  178.0800  140.2350 O   0  0  0  0  0  0  0  0  0  0  0  0
  180.6940  178.1330  136.3520 O   0  0  0  0  0  0  0  0  0  0  0  0
  187.0990  178.3360  139.8780 C   0  0  2  0  0  3  0  0  0  0  0  0
  187.3240  178.8690  141.3000 C   0  0  1  0  0  3  0  0  0  0  0  0
  182.9410  178.3230  141.4130 C   0  0  2  0  0  3  0  0  0  0  0  0
  182.1710  177.2460  140.6050 C   0  0  1  0  0  3  0  0  0  0  0  0
  185.0150  179.6250  143.0570 O   0  0  0  0  0  0  0  0  0  0  0  0
  181.8530  176.8220  134.5940 C   0  0  0  0  0  2  0  0  0  0  0  0
  179.8470  178.4610  141.5870 C   0  0  0  0  0  2  0  0  0  0  0  0
  183.9990  176.7360  138.9350 C   0  0  0  0  0  0  0  0  0  0  0  0
  181.0330  177.7630  139.6770 C   0  0  2  0  0  3  0  0  0  0  0  0
  187.9950  178.9140  138.9770 O   0  0  0  0  0  1  0  0  0  0  0  0
  183.9990  176.0630  137.5920 C   0  0  0  0  0  2  0  0  0  0  0  0
  181.6990  177.9630  137.3190 C   0  0  2  0  0  3  0  0  0  0  0  0
  183.6070  175.2740  134.8150 O   0  0  0  0  0  0  0  0  0  0  0  0
  185.7160  178.6430  139.4230 C   0  0  0  0  0  3  0  0  0  0  0  0
  181.4240  178.7480  138.5860 C   0  0  0  0  0  2  0  0  0  0  0  0
  186.5670  178.0140  142.3090 C   0  0  0  0  0  2  0  0  0  0  0  0
  185.1820  178.5240  142.5530 C   0  0  0  0  0  0  0  0  0  0  0  0
  183.7880  177.0210  136.3930 C   0  0  1  0  0  3  0  0  0  0  0  0
  183.1050  176.2970  135.2540 C   0  0  0  0  0  0  0  0  0  0  0  0
  180.6410  176.9660  135.5440 C   0  0  1  0  0  3  0  0  0  0  0  0
  183.0590  178.3190  136.7570 C   0  0  0  0  0  2  0  0  0  0  0  0
  184.8700  177.6820  139.1840 C   0  0  0  0  0  0  0  0  0  0  0  0
  183.0380  176.3500  139.8860 O   0  0  0  0  0  0  0  0  0  0  0  0
  180.7770  179.6430  141.7930 C   0  0  0  0  0  2  0  0  0  0  0  0
  184.0120  177.6350  142.2570 C   0  0  0  0  0  2  0  0  0  0  0  0
  180.2130  175.6870  136.3000 C   0  0  2  0  0  3  0  0  0  0  0  0
  181.0340  173.5670  135.2420 O   0  0  0  0  0  1  0  0  0  0  0  0
  178.9770  174.4200  134.7030 O   0  0  0  0  0  0  0  0  0  0  0  0
  180.0350  174.5260  135.3730 C   0  0  0  0  0  0  0  0  0  0  0  0
  178.9310  175.9080  137.0410 C   0  0  0  0  0  3  0  0  0  0  0  0
  178.9340  176.1850  138.2290 O   0  0  0  0  0  0  0  0  0  0  0  0
  188.8000  178.8240  141.6870 C   0  0  0  0  0  2  0  0  0  0  0  0
  189.3130  176.6130  140.9770 O   0  0  0  0  0  0  0  0  0  0  0  0
  189.2530  177.4200  141.9410 C   0  0  0  0  0  0  0  0  0  0  0  0
  189.6910  177.7670  144.4370 C   0  0  0  0  0  0  0  0  0  0  0  0
  189.4510  179.0030  144.4110 O   0  0  0  0  0  0  0  0  0  0  0  0
  189.6320  176.9700  143.2480 N   0  0  0  0  0  2  0  0  0  0  0  0
  190.0820  177.1280  145.7230 C   0  0  0  0  0  2  0  0  0  0  0  0
  188.8430  176.7830  146.5250 C   0  0  0  0  0  2  0  0  0  0  0  0
  188.8770  177.5200  147.8470 C   0  0  0  0  0  2  0  0  0  0  0  0
  187.6760  178.4370  147.9440 C   0  0  0  0  0  1  0  0  0  0  0  0
  2 10  1  0  0  0  0
  3 15  1  0  0  0  0
  4 13  1  6  0  0  0
  4  5  1  0  0  0  0
  5 35  1  1  0  0  0
  5 19  1  0  0  0  0
  6 28  1  1  0  0  0
  6  1  1  0  0  0  0
  7 26  1  6  0  0  0
  7  6  1  0  0  0  0
  9 22  1  0  0  0  0
  9 23  1  0  0  0  0
 10 27  1  0  0  0  0
 11 25  2  0  0  0  0
 11 26  1  0  0  0  0
 12 18  1  1  0  0  0
 12  2  1  0  0  0  0
 12  7  1  0  0  0  0
 14 11  1  0  0  0  0
 15 24  1  6  0  0  0
 15 18  1  0  0  0  0
 16 22  2  0  0  0  0
 17  4  1  0  0  0  0
 19 20  1  0  0  0  0
 20  8  2  0  0  0  0
 21 24  1  1  0  0  0
 21 14  1  0  0  0  0
 22 21  1  0  0  0  0
 23 29  1  1  0  0  0
 23  3  1  0  0  0  0
 25 17  2  0  0  0  0
 27  1  1  0  0  0  0
 28 20  1  0  0  0  0
 29 33  1  6  0  0  0
 30 32  1  0  0  0  0
 31 32  2  0  0  0  0
 32 29  1  0  0  0  0
 33 34  2  0  0  0  0
 35 37  1  0  0  0  0
 36 37  2  0  0  0  0
 37 40  1  0  0  0  0
 38 41  1  0  0  0  0
 39 38  2  0  0  0  0
 40 38  1  0  0  0  0
 41 42  1  0  0  0  0
 42 43  1  0  0  0  0
 43 44  1  0  0  0  0
M  END
>  <MODEL>
9

>  <REMARK>
 VINA RESULT:      -4.5      2.048      4.711
  Name = 
  8 active torsions:
  status: ('A' for Active; 'I' for Inactive)
    1  A    between atoms: C_6  and  C_8
    2  A    between atoms: C_6  and  C_18
    3  A    between atoms: C_6  and  C_37
    4  A    between atoms: C_9  and  C_40
    5  A    between atoms: C_13  and  C_40
    6  A    between atoms: C_23  and  C_33
    7  A    between atoms: C_30  and  C_34
    8  A    between atoms: C_33  and  C_34
                            x       y       z     vdW  Elec       q    Type
                         _______ _______ _______ _____ _____    ______ ____

>  <TORSDO>
F 8

$$$$
