=
 OpenBabel11062417273D

 45 48  0  0  1  0  0  0  0  0999 V2000
  180.4590  175.3860  136.0390 C   0  0  2  0  0  3  0  0  0  0  0  0
  182.3070  174.0270  136.4470 C   0  0  1  0  0  3  0  0  0  0  0  0
  184.6380  173.7520  135.6040 C   0  0  0  0  0  2  0  0  0  0  0  0
  186.9380  174.0520  134.6920 C   0  0  0  0  0  2  0  0  0  0  0  0
  182.9920  179.5480  139.4240 C   0  0  0  0  0  2  0  0  0  0  0  0
  188.4280  174.2040  135.0210 C   0  0  1  0  0  3  0  0  0  0  0  0
  180.0570  176.7250  136.0210 O   0  0  0  0  0  1  0  0  0  0  0  0
  186.1090  178.4920  137.7100 C   0  0  0  0  0  3  0  0  0  0  0  0
  188.1200  176.0570  136.7490 C   0  0  0  0  0  2  0  0  0  0  0  0
  182.4150  178.2430  139.9480 C   0  0  2  0  0  3  0  0  0  0  0  0
  180.3770  174.7370  137.4300 C   0  0  2  0  0  0  0  0  0  0  0  0
  180.3100  175.7930  138.5540 C   0  0  0  0  0  2  0  0  0  0  0  0
  183.8600  179.3030  138.2040 C   0  0  0  0  0  2  0  0  0  0  0  0
  181.6130  176.5660  138.7220 C   0  0  0  0  0  2  0  0  0  0  0  0
  188.0400  172.8760  137.1740 C   0  0  0  0  0  2  0  0  0  0  0  0
  188.8010  175.6300  135.4600 C   0  0  0  0  0  2  0  0  0  0  0  0
  187.4520  178.0130  138.0690 C   0  0  0  0  0  0  0  0  0  0  0  0
  181.3210  177.8650  139.1630 O   0  0  0  0  0  0  0  0  0  0  0  0
  186.5850  172.6780  136.7550 C   0  0  0  0  0  2  0  0  0  0  0  0
  181.5250  173.9300  137.6170 O   0  0  0  0  0  0  0  0  0  0  0  0
  186.1050  173.8910  135.9610 C   0  0  2  0  0  3  0  0  0  0  0  0
  185.2050  178.8200  138.6250 C   0  0  0  0  0  3  0  0  0  0  0  0
  181.8970  175.2600  135.6770 C   0  0  0  0  0  2  0  0  0  0  0  0
  188.3540  177.5340  136.9850 C   0  0  0  0  0  2  0  0  0  0  0  0
  188.9230  173.0700  135.9420 C   0  0  2  0  0  3  0  0  0  0  0  0
  183.7780  174.0900  136.8110 C   0  0  0  0  0  2  0  0  0  0  0  0
  187.7830  177.8270  139.3040 N   0  0  0  0  0  2  0  0  0  0  0  0
  190.3700  173.1920  136.2970 C   0  0  0  0  0  0  0  0  0  0  0  0
  190.6850  173.5460  137.4650 O   0  0  0  0  0  0  0  0  0  0  0  0
  191.3780  172.8850  135.3160 N   0  0  0  0  0  2  0  0  0  0  0  0
  194.8550  171.6060  136.2310 C   0  0  0  0  0  2  0  0  0  0  0  0
  193.3610  171.7170  136.0830 C   0  0  0  0  0  3  0  0  0  0  0  0
  192.7930  172.8020  135.5330 C   0  0  0  0  0  0  0  0  0  0  0  0
  195.4730  172.9940  136.4650 C   0  0  2  0  0  3  0  0  0  0  0  0
  194.9050  174.0410  135.5360 C   0  0  0  0  0  3  0  0  0  0  0  0
  193.6350  173.9480  135.1320 C   0  0  0  0  0  3  0  0  0  0  0  0
  197.3230  171.6910  136.8390 C   0  0  0  0  0  1  0  0  0  0  0  0
  196.8850  172.9840  136.5170 O   0  0  0  0  0  0  0  0  0  0  0  0
  181.6140  178.5960  142.4730 C   0  0  0  0  0  0  0  0  0  0  0  0
  181.9760  178.4350  141.3340 C   0  0  0  0  0  0  0  0  0  0  0  0
  181.1950  178.7790  143.7970 N   0  0  0  0  0  1  0  0  0  0  0  0
  179.1130  173.8590  137.5190 C   0  0  2  0  0  3  0  0  0  0  0  0
  178.9370  173.3870  138.8260 O   0  0  0  0  0  1  0  0  0  0  0  0
  179.1520  172.6630  136.5710 C   0  0  0  0  0  2  0  0  0  0  0  0
  179.5460  171.5170  137.2630 O   0  0  0  0  0  1  0  0  0  0  0  0
  1  7  1  1  0  0  0
  1 11  1  0  0  0  0
  2 23  1  1  0  0  0
  2 26  1  0  0  0  0
  2 20  1  0  0  0  0
  3 21  1  0  0  0  0
  3 26  1  0  0  0  0
  5 10  1  0  0  0  0
  6  4  1  1  0  0  0
  6 16  1  0  0  0  0
  6 25  1  0  0  0  0
  8 17  1  0  0  0  0
  8 22  2  0  0  0  0
  9 24  1  0  0  0  0
 10 40  1  1  0  0  0
 11 42  1  1  0  0  0
 11 20  1  0  0  0  0
 11 12  1  0  0  0  0
 12 14  1  0  0  0  0
 13 22  1  0  0  0  0
 13  5  1  0  0  0  0
 14 18  1  0  0  0  0
 16  9  1  0  0  0  0
 17 27  2  0  0  0  0
 18 10  1  0  0  0  0
 19 15  1  0  0  0  0
 21  4  1  6  0  0  0
 21 19  1  0  0  0  0
 23  1  1  0  0  0  0
 24 17  1  0  0  0  0
 25 28  1  1  0  0  0
 25 15  1  0  0  0  0
 28 29  2  0  0  0  0
 30 33  1  0  0  0  0
 30 28  1  0  0  0  0
 31 34  1  0  0  0  0
 32 31  1  0  0  0  0
 33 32  2  0  0  0  0
 34 38  1  6  0  0  0
 35 34  1  0  0  0  0
 36 33  1  0  0  0  0
 36 35  2  0  0  0  0
 38 37  1  0  0  0  0
 39 41  1  0  0  0  0
 40 39  3  0  0  0  0
 42 43  1  1  0  0  0
 44 45  1  0  0  0  0
 44 42  1  0  0  0  0
M  END
>  <MODEL>
1

>  <REMARK>
 VINA RESULT:      -5.4      0.000      0.000
  Name = 
  6 active torsions:
  status: ('A' for Active; 'I' for Inactive)
    1  A    between atoms: C_1  and  C_11
    2  A    between atoms: C_11  and  C_16
    3  A    between atoms: C_14  and  C_38
    4  A    between atoms: C_25  and  N_44
    5  A    between atoms: O_26  and  C_29
    6  A    between atoms: C_27  and  C_41
                            x       y       z     vdW  Elec       q    Type
                         _______ _______ _______ _____ _____    ______ ____

>  <TORSDO>
F 6

$$$$
=
 OpenBabel11062417273D

 45 48  0  0  1  0  0  0  0  0999 V2000
  181.0860  178.1960  139.0620 C   0  0  2  0  0  3  0  0  0  0  0  0
  182.2150  176.2230  138.5520 C   0  0  1  0  0  3  0  0  0  0  0  0
  184.0160  175.4550  137.0070 C   0  0  0  0  0  2  0  0  0  0  0  0
  186.0220  175.2210  135.5470 C   0  0  0  0  0  2  0  0  0  0  0  0
  185.7080  179.7630  142.4350 C   0  0  0  0  0  2  0  0  0  0  0  0
  187.4670  174.7170  135.4390 C   0  0  1  0  0  3  0  0  0  0  0  0
  181.2990  179.5100  139.4920 O   0  0  0  0  0  1  0  0  0  0  0  0
  187.7190  178.3390  139.6590 C   0  0  0  0  0  3  0  0  0  0  0  0
  188.2910  175.8420  137.5770 C   0  0  0  0  0  2  0  0  0  0  0  0
  184.7310  178.6500  142.7740 C   0  0  2  0  0  3  0  0  0  0  0  0
  180.9820  177.1810  140.2120 C   0  0  2  0  0  0  0  0  0  0  0  0
  181.5720  177.7370  141.5250 C   0  0  0  0  0  2  0  0  0  0  0  0
  186.1590  179.6650  140.9890 C   0  0  0  0  0  2  0  0  0  0  0  0
  183.0870  177.8940  141.4760 C   0  0  0  0  0  2  0  0  0  0  0  0
  186.9340  172.9550  137.2180 C   0  0  0  0  0  2  0  0  0  0  0  0
  188.4840  175.6750  136.0790 C   0  0  0  0  0  2  0  0  0  0  0  0
  188.7670  177.3260  139.4700 C   0  0  0  0  0  0  0  0  0  0  0  0
  183.4610  178.9760  142.2860 O   0  0  0  0  0  0  0  0  0  0  0  0
  185.4860  173.4380  137.2210 C   0  0  0  0  0  2  0  0  0  0  0  0
  181.6870  176.0100  139.8430 O   0  0  0  0  0  0  0  0  0  0  0  0
  185.4380  174.9370  136.9290 C   0  0  2  0  0  3  0  0  0  0  0  0
  187.2180  178.6270  140.8560 C   0  0  0  0  0  3  0  0  0  0  0  0
  182.2440  177.7060  138.2650 C   0  0  0  0  0  2  0  0  0  0  0  0
  189.1710  176.9660  138.0830 C   0  0  0  0  0  2  0  0  0  0  0  0
  187.5830  173.2380  135.8640 C   0  0  2  0  0  3  0  0  0  0  0  0
  183.6110  175.6350  138.4610 C   0  0  0  0  0  2  0  0  0  0  0  0
  189.1990  176.6230  140.4640 N   0  0  0  0  0  2  0  0  0  0  0  0
  188.9800  172.7130  135.7860 C   0  0  0  0  0  0  0  0  0  0  0  0
  189.1850  171.5980  135.2330 O   0  0  0  0  0  0  0  0  0  0  0  0
  190.0690  173.4900  136.3160 N   0  0  0  0  0  2  0  0  0  0  0  0
  193.4030  172.0410  135.1570 C   0  0  0  0  0  2  0  0  0  0  0  0
  191.9270  172.2710  135.3450 C   0  0  0  0  0  3  0  0  0  0  0  0
  191.4700  173.2100  136.1880 C   0  0  0  0  0  0  0  0  0  0  0  0
  194.1590  172.3300  136.4650 C   0  0  2  0  0  3  0  0  0  0  0  0
  193.6960  173.6050  137.1280 C   0  0  0  0  0  3  0  0  0  0  0  0
  192.4210  173.9870  137.0090 C   0  0  0  0  0  3  0  0  0  0  0  0
  196.1680  173.1740  137.1820 C   0  0  0  0  0  1  0  0  0  0  0  0
  195.5630  172.2290  136.3400 O   0  0  0  0  0  0  0  0  0  0  0  0
  184.6150  178.3680  145.4290 C   0  0  0  0  0  0  0  0  0  0  0  0
  184.6680  178.4950  144.2300 C   0  0  0  0  0  0  0  0  0  0  0  0
  184.5560  178.2200  146.8200 N   0  0  0  0  0  1  0  0  0  0  0  0
  179.5010  176.8300  140.4600 C   0  0  2  0  0  3  0  0  0  0  0  0
  179.0800  177.3360  141.6960 O   0  0  0  0  0  1  0  0  0  0  0  0
  179.2330  175.3270  140.4340 C   0  0  0  0  0  2  0  0  0  0  0  0
  178.9310  174.8730  141.7190 O   0  0  0  0  0  1  0  0  0  0  0  0
  1  7  1  1  0  0  0
  1 11  1  0  0  0  0
  2 23  1  1  0  0  0
  2 20  1  0  0  0  0
  3 26  1  0  0  0  0
  5 10  1  0  0  0  0
  6  4  1  1  0  0  0
  6 25  1  0  0  0  0
  6 16  1  0  0  0  0
  8 22  2  0  0  0  0
  9 24  1  0  0  0  0
 10 40  1  1  0  0  0
 11 42  1  1  0  0  0
 11 12  1  0  0  0  0
 13  5  1  0  0  0  0
 14 12  1  0  0  0  0
 14 18  1  0  0  0  0
 15 19  1  0  0  0  0
 16  9  1  0  0  0  0
 17  8  1  0  0  0  0
 17 27  2  0  0  0  0
 18 10  1  0  0  0  0
 20 11  1  0  0  0  0
 21  4  1  6  0  0  0
 21  3  1  0  0  0  0
 21 19  1  0  0  0  0
 22 13  1  0  0  0  0
 23  1  1  0  0  0  0
 24 17  1  0  0  0  0
 25 28  1  1  0  0  0
 25 15  1  0  0  0  0
 26  2  1  0  0  0  0
 28 30  1  0  0  0  0
 29 28  2  0  0  0  0
 31 32  1  0  0  0  0
 31 34  1  0  0  0  0
 32 33  2  0  0  0  0
 33 30  1  0  0  0  0
 33 36  1  0  0  0  0
 34 38  1  6  0  0  0
 34 35  1  0  0  0  0
 36 35  2  0  0  0  0
 38 37  1  0  0  0  0
 39 41  1  0  0  0  0
 40 39  3  0  0  0  0
 42 43  1  1  0  0  0
 44 42  1  0  0  0  0
 44 45  1  0  0  0  0
M  END
>  <MODEL>
2

>  <REMARK>
 VINA RESULT:      -4.9      2.325      3.021
  Name = 
  6 active torsions:
  status: ('A' for Active; 'I' for Inactive)
    1  A    between atoms: C_1  and  C_11
    2  A    between atoms: C_11  and  C_16
    3  A    between atoms: C_14  and  C_38
    4  A    between atoms: C_25  and  N_44
    5  A    between atoms: O_26  and  C_29
    6  A    between atoms: C_27  and  C_41
                            x       y       z     vdW  Elec       q    Type
                         _______ _______ _______ _____ _____    ______ ____

>  <TORSDO>
F 6

$$$$
