=
 OpenBabel11062414303D

 31 36  0  0  1  0  0  0  0  0999 V2000
  187.2900  174.9330  135.6770 N   0  0  0  0  0  1  0  0  0  0  0  0
  190.3370  177.3420  137.4770 O   0  0  0  0  0  0  0  0  0  0  0  0
  189.7940  177.8290  139.7090 C   0  0  1  0  0  3  0  0  0  0  0  0
  189.1440  175.3480  137.2040 C   0  0  0  0  0  2  0  0  0  0  0  0
  190.7830  177.1190  138.7730 C   0  0  1  0  0  3  0  0  0  0  0  0
  186.9390  176.6690  137.3860 C   0  0  2  0  0  3  0  0  0  0  0  0
  188.6510  176.9620  139.1600 C   0  0  1  0  0  3  0  0  0  0  0  0
  187.6200  177.6920  138.3090 C   0  0  0  0  0  2  0  0  0  0  0  0
  189.6480  176.3510  138.2240 C   0  0  1  0  0  0  0  0  0  0  0  0
  187.9530  175.9690  136.4480 C   0  0  2  0  0  3  0  0  0  0  0  0
  191.0770  176.9800  145.3340 C   0  0  0  0  0  0  0  0  0  0  0  0
  191.9300  177.7490  146.1290 O   0  0  0  0  0  1  0  0  0  0  0  0
  190.9110  177.5660  143.9260 C   0  0  1  0  0  0  0  0  0  0  0  0
  189.6600  176.9710  145.9220 C   0  0  0  0  0  2  0  0  0  0  0  0
  190.1270  177.5340  141.1500 C   0  0  0  0  0  0  0  0  0  0  0  0
  191.9230  177.0910  142.8810 C   0  0  0  0  0  2  0  0  0  0  0  0
  189.0470  177.6040  142.2250 C   0  0  0  0  0  2  0  0  0  0  0  0
  189.5610  177.0100  143.5310 C   0  0  2  0  0  3  0  0  0  0  0  0
  191.4320  177.3710  141.4710 C   0  0  0  0  0  3  0  0  0  0  0  0
  191.5540  175.6680  145.2780 O   0  0  0  0  0  1  0  0  0  0  0  0
  190.9030  179.1040  143.9710 C   0  0  0  0  0  1  0  0  0  0  0  0
  188.6860  177.1410  144.7540 C   0  0  0  0  0  2  0  0  0  0  0  0
  185.6490  177.5150  136.4110 S   0  0  0  0  0  0  0  0  0  0  0  0
  184.3260  177.3220  137.6590 C   0  0  1  0  0  3  0  0  0  0  0  0
  182.5060  179.0840  138.3450 C   0  0  2  0  0  3  0  0  0  0  0  0
  181.8860  176.8440  137.4550 C   0  0  0  0  0  3  0  0  0  0  0  0
  184.8190  179.3590  138.7690 O   0  0  0  0  0  0  0  0  0  0  0  0
  181.5960  177.8690  138.5130 C   0  0  0  0  0  2  0  0  0  0  0  0
  183.9480  178.6440  138.2980 C   0  0  0  0  0  0  0  0  0  0  0  0
  182.2980  179.9550  139.3990 F   0  0  0  0  0  0  0  0  0  0  0  0
  183.1440  176.5900  137.0700 C   0  0  0  0  0  3  0  0  0  0  0  0
  2  9  1  0  0  0  0
  3 15  1  1  0  0  0
  5  2  1  6  0  0  0
  5  3  1  0  0  0  0
  6 23  1  6  0  0  0
  6  8  1  0  0  0  0
  7  8  1  6  0  0  0
  7  3  1  0  0  0  0
  9  4  1  6  0  0  0
  9  5  1  0  0  0  0
  9  7  1  0  0  0  0
 10  1  1  1  0  0  0
 10  4  1  0  0  0  0
 10  6  1  0  0  0  0
 11 14  1  0  0  0  0
 11 12  1  0  0  0  0
 13 21  1  1  0  0  0
 13 11  1  0  0  0  0
 15 19  2  0  0  0  0
 15 17  1  0  0  0  0
 16 13  1  0  0  0  0
 18 17  1  6  0  0  0
 18 13  1  0  0  0  0
 18 22  1  0  0  0  0
 19 16  1  0  0  0  0
 20 11  1  0  0  0  0
 22 14  1  0  0  0  0
 24 23  1  6  0  0  0
 24 29  1  0  0  0  0
 25 28  1  0  0  0  0
 25 30  1  1  0  0  0
 26 28  1  0  0  0  0
 29 25  1  0  0  0  0
 29 27  2  0  0  0  0
 31 26  2  0  0  0  0
 31 24  1  0  0  0  0
M  END
>  <MODEL>
1

>  <REMARK>
 VINA RESULT:      -7.8      0.000      0.000
  Name = 
  3 active torsions:
  status: ('A' for Active; 'I' for Inactive)
    1  A    between atoms: S_2  and  C_6
    2  A    between atoms: S_2  and  C_17
    3  A    between atoms: C_9  and  C_15
                            x       y       z     vdW  Elec       q    Type
                         _______ _______ _______ _____ _____    ______ ____

>  <TORSDO>
F 3

$$$$
=
 OpenBabel11062414303D

 31 36  0  0  1  0  0  0  0  0999 V2000
  187.3800  177.3020  147.8130 N   0  0  0  0  0  1  0  0  0  0  0  0
  185.1950  180.1040  145.4260 O   0  0  0  0  0  0  0  0  0  0  0  0
  184.6690  179.1760  143.3340 C   0  0  1  0  0  3  0  0  0  0  0  0
  185.3870  178.1470  146.6930 C   0  0  0  0  0  2  0  0  0  0  0  0
  184.1050  179.7240  144.6540 C   0  0  1  0  0  3  0  0  0  0  0  0
  187.5050  177.5230  145.3640 C   0  0  2  0  0  3  0  0  0  0  0  0
  185.4400  178.0980  144.1110 C   0  0  1  0  0  3  0  0  0  0  0  0
  186.9550  178.2560  144.1300 C   0  0  0  0  0  2  0  0  0  0  0  0
  184.9120  178.7140  145.3690 C   0  0  1  0  0  0  0  0  0  0  0  0
  186.9280  178.0930  146.6830 C   0  0  2  0  0  3  0  0  0  0  0  0
  180.4150  177.2460  139.8450 C   0  0  0  0  0  0  0  0  0  0  0  0
  179.4370  178.0110  139.2050 O   0  0  0  0  0  1  0  0  0  0  0  0
  181.4260  178.1130  140.6050 C   0  0  1  0  0  0  0  0  0  0  0  0
  181.2540  176.4790  138.8150 C   0  0  0  0  0  2  0  0  0  0  0  0
  183.5600  178.6160  142.4780 C   0  0  0  0  0  0  0  0  0  0  0  0
  181.0690  178.4370  142.0580 C   0  0  0  0  0  2  0  0  0  0  0  0
  183.8780  177.9060  141.1670 C   0  0  0  0  0  2  0  0  0  0  0  0
  182.6350  177.2050  140.6310 C   0  0  2  0  0  3  0  0  0  0  0  0
  182.2870  178.9100  142.8320 C   0  0  0  0  0  3  0  0  0  0  0  0
  179.7970  176.3280  140.7000 O   0  0  0  0  0  1  0  0  0  0  0  0
  181.7090  179.4190  139.8420 C   0  0  0  0  0  1  0  0  0  0  0  0
  182.7160  176.5860  139.2560 C   0  0  0  0  0  2  0  0  0  0  0  0
  189.3260  177.6410  145.3640 S   0  0  0  0  0  0  0  0  0  0  0  0
  189.4910  177.8580  143.5540 C   0  0  1  0  0  3  0  0  0  0  0  0
  191.6100  177.4030  142.0760 C   0  0  2  0  0  3  0  0  0  0  0  0
  189.4520  176.2330  141.6620 C   0  0  0  0  0  3  0  0  0  0  0  0
  191.4920  179.1220  143.7000 O   0  0  0  0  0  0  0  0  0  0  0  0
  190.6020  176.9550  141.0200 C   0  0  0  0  0  2  0  0  0  0  0  0
  190.9100  178.2000  143.1480 C   0  0  0  0  0  0  0  0  0  0  0  0
  192.5940  178.1630  141.4700 F   0  0  0  0  0  0  0  0  0  0  0  0
  188.9390  176.6570  142.8250 C   0  0  0  0  0  3  0  0  0  0  0  0
  3 15  1  6  0  0  0
  3  7  1  0  0  0  0
  3  5  1  0  0  0  0
  5  9  1  0  0  0  0
  5  2  1  1  0  0  0
  6 23  1  1  0  0  0
  6 10  1  0  0  0  0
  7  8  1  1  0  0  0
  7  9  1  0  0  0  0
  8  6  1  0  0  0  0
  9  2  1  0  0  0  0
  9  4  1  1  0  0  0
 10  4  1  0  0  0  0
 10  1  1  1  0  0  0
 11 13  1  0  0  0  0
 11 20  1  0  0  0  0
 12 11  1  0  0  0  0
 13 21  1  6  0  0  0
 13 18  1  0  0  0  0
 13 16  1  0  0  0  0
 14 22  1  0  0  0  0
 14 11  1  0  0  0  0
 15 19  2  0  0  0  0
 16 19  1  0  0  0  0
 17 15  1  0  0  0  0
 18 22  1  6  0  0  0
 18 17  1  0  0  0  0
 24 23  1  1  0  0  0
 25 30  1  6  0  0  0
 25 29  1  0  0  0  0
 26 31  2  0  0  0  0
 28 26  1  0  0  0  0
 28 25  1  0  0  0  0
 29 24  1  0  0  0  0
 29 27  2  0  0  0  0
 31 24  1  0  0  0  0
M  END
>  <MODEL>
2

>  <REMARK>
 VINA RESULT:      -7.8      4.682      9.488
  Name = 
  3 active torsions:
  status: ('A' for Active; 'I' for Inactive)
    1  A    between atoms: S_2  and  C_6
    2  A    between atoms: S_2  and  C_17
    3  A    between atoms: C_9  and  C_15
                            x       y       z     vdW  Elec       q    Type
                         _______ _______ _______ _____ _____    ______ ____

>  <TORSDO>
F 3

$$$$
=
 OpenBabel11062414303D

 31 36  0  0  1  0  0  0  0  0999 V2000
  190.3510  175.1530  142.9180 N   0  0  0  0  0  1  0  0  0  0  0  0
  187.5460  178.1810  144.0550 O   0  0  0  0  0  0  0  0  0  0  0  0
  186.3450  178.9390  142.1840 C   0  0  1  0  0  3  0  0  0  0  0  0
  188.1140  176.0340  143.3180 C   0  0  0  0  0  2  0  0  0  0  0  0
  186.2570  178.2220  143.5400 C   0  0  1  0  0  3  0  0  0  0  0  0
  189.6650  177.0770  141.5440 C   0  0  2  0  0  3  0  0  0  0  0  0
  187.3120  177.8590  141.6760 C   0  0  1  0  0  3  0  0  0  0  0  0
  188.7500  178.3100  141.4610 C   0  0  0  0  0  2  0  0  0  0  0  0
  187.2380  177.2390  143.0370 C   0  0  1  0  0  0  0  0  0  0  0  0
  189.5630  176.3730  142.9200 C   0  0  2  0  0  3  0  0  0  0  0  0
  181.1930  178.5620  139.4800 C   0  0  0  0  0  0  0  0  0  0  0  0
  180.8480  177.6960  138.4390 O   0  0  0  0  0  1  0  0  0  0  0  0
  182.6120  178.3060  140.0030 C   0  0  1  0  0  0  0  0  0  0  0  0
  180.2820  178.3300  140.6930 C   0  0  0  0  0  2  0  0  0  0  0  0
  185.0070  178.9180  141.4880 C   0  0  0  0  0  0  0  0  0  0  0  0
  183.7310  179.0830  139.3060 C   0  0  0  0  0  2  0  0  0  0  0  0
  183.7460  178.5230  142.2470 C   0  0  0  0  0  2  0  0  0  0  0  0
  182.5080  178.8360  141.4150 C   0  0  2  0  0  3  0  0  0  0  0  0
  184.9960  179.1000  140.1460 C   0  0  0  0  0  3  0  0  0  0  0  0
  181.0470  179.8840  139.0500 O   0  0  0  0  0  1  0  0  0  0  0  0
  182.9400  176.8020  139.9810 C   0  0  0  0  0  1  0  0  0  0  0  0
  181.1730  178.3620  141.9380 C   0  0  0  0  0  2  0  0  0  0  0  0
  191.3850  177.5890  141.2170 S   0  0  0  0  0  0  0  0  0  0  0  0
  191.3120  177.3170  139.4090 C   0  0  1  0  0  3  0  0  0  0  0  0
  192.5300  175.4510  138.0240 C   0  0  2  0  0  3  0  0  0  0  0  0
  190.0520  175.6790  138.0120 C   0  0  0  0  0  3  0  0  0  0  0  0
  193.6660  177.2010  139.1430 O   0  0  0  0  0  0  0  0  0  0  0  0
  191.2700  175.4680  137.1600 C   0  0  0  0  0  2  0  0  0  0  0  0
  192.5860  176.6950  138.8740 C   0  0  0  0  0  0  0  0  0  0  0  0
  193.6400  175.3730  137.2030 F   0  0  0  0  0  0  0  0  0  0  0  0
  190.0730  176.5360  139.0410 C   0  0  0  0  0  3  0  0  0  0  0  0
  3 15  1  6  0  0  0
  3  5  1  0  0  0  0
  5  2  1  1  0  0  0
  6 23  1  1  0  0  0
  6 10  1  0  0  0  0
  7  8  1  1  0  0  0
  7  3  1  0  0  0  0
  7  9  1  0  0  0  0
  8  6  1  0  0  0  0
  9  4  1  1  0  0  0
  9  5  1  0  0  0  0
  9  2  1  0  0  0  0
 10  1  1  6  0  0  0
 10  4  1  0  0  0  0
 11 13  1  0  0  0  0
 11 14  1  0  0  0  0
 12 11  1  0  0  0  0
 13 21  1  1  0  0  0
 13 18  1  0  0  0  0
 14 22  1  0  0  0  0
 15 17  1  0  0  0  0
 16 13  1  0  0  0  0
 16 19  1  0  0  0  0
 18 22  1  1  0  0  0
 18 17  1  0  0  0  0
 19 15  2  0  0  0  0
 20 11  1  0  0  0  0
 24 23  1  1  0  0  0
 25 30  1  6  0  0  0
 25 29  1  0  0  0  0
 26 31  2  0  0  0  0
 28 26  1  0  0  0  0
 28 25  1  0  0  0  0
 29 27  2  0  0  0  0
 29 24  1  0  0  0  0
 31 24  1  0  0  0  0
M  END
>  <MODEL>
3

>  <REMARK>
 VINA RESULT:      -7.7      3.860      8.378
  Name = 
  3 active torsions:
  status: ('A' for Active; 'I' for Inactive)
    1  A    between atoms: S_2  and  C_6
    2  A    between atoms: S_2  and  C_17
    3  A    between atoms: C_9  and  C_15
                            x       y       z     vdW  Elec       q    Type
                         _______ _______ _______ _____ _____    ______ ____

>  <TORSDO>
F 3

$$$$
=
 OpenBabel11062414303D

 31 36  0  0  1  0  0  0  0  0999 V2000
  187.0660  174.3560  135.2140 N   0  0  0  0  0  1  0  0  0  0  0  0
  190.0790  176.8970  136.8840 O   0  0  0  0  0  0  0  0  0  0  0  0
  189.3460  177.8240  138.9140 C   0  0  1  0  0  3  0  0  0  0  0  0
  188.7780  174.9530  136.8430 C   0  0  0  0  0  2  0  0  0  0  0  0
  190.3730  176.8990  138.2420 C   0  0  1  0  0  3  0  0  0  0  0  0
  186.6680  176.3990  136.5280 C   0  0  2  0  0  3  0  0  0  0  0  0
  188.2060  176.9300  138.4040 C   0  0  1  0  0  3  0  0  0  0  0  0
  187.3240  177.5410  137.3220 C   0  0  0  0  0  2  0  0  0  0  0  0
  189.2470  176.1020  137.7150 C   0  0  1  0  0  0  0  0  0  0  0  0
  187.7200  175.4830  135.8560 C   0  0  2  0  0  3  0  0  0  0  0  0
  189.8380  177.4200  144.7100 C   0  0  0  0  0  0  0  0  0  0  0  0
  188.9010  176.8900  145.6010 O   0  0  0  0  0  1  0  0  0  0  0  0
  189.3990  177.2680  143.2480 C   0  0  1  0  0  0  0  0  0  0  0  0
  191.1610  176.6490  144.8030 C   0  0  0  0  0  2  0  0  0  0  0  0
  189.5070  177.7890  140.4130 C   0  0  0  0  0  0  0  0  0  0  0  0
  188.5630  178.4170  142.6790 C   0  0  0  0  0  2  0  0  0  0  0  0
  190.6060  176.9490  141.0550 C   0  0  0  0  0  2  0  0  0  0  0  0
  190.7330  177.2870  142.5360 C   0  0  2  0  0  3  0  0  0  0  0  0
  188.5500  178.3890  141.1610 C   0  0  0  0  0  3  0  0  0  0  0  0
  190.0710  178.7610  145.0280 O   0  0  0  0  0  1  0  0  0  0  0  0
  188.6560  175.9380  143.0350 C   0  0  0  0  0  1  0  0  0  0  0  0
  191.6600  176.4370  143.3710 C   0  0  0  0  0  2  0  0  0  0  0  0
  185.5510  177.1130  135.2740 S   0  0  0  0  0  0  0  0  0  0  0  0
  184.0070  176.7590  136.1890 C   0  0  1  0  0  3  0  0  0  0  0  0
  183.4540  174.6390  137.6320 C   0  0  2  0  0  3  0  0  0  0  0  0
  183.4140  176.9290  138.6060 C   0  0  0  0  0  3  0  0  0  0  0  0
  183.7490  174.5820  135.2840 O   0  0  0  0  0  0  0  0  0  0  0  0
  182.6880  175.6180  138.5200 C   0  0  0  0  0  2  0  0  0  0  0  0
  183.7330  175.2720  136.2920 C   0  0  0  0  0  0  0  0  0  0  0  0
  182.7050  173.4860  137.4790 F   0  0  0  0  0  0  0  0  0  0  0  0
  184.0140  177.4550  137.5290 C   0  0  0  0  0  3  0  0  0  0  0  0
  2  9  1  0  0  0  0
  3 15  1  1  0  0  0
  5  2  1  6  0  0  0
  5  3  1  0  0  0  0
  6 23  1  6  0  0  0
  6  8  1  0  0  0  0
  7  8  1  6  0  0  0
  7  3  1  0  0  0  0
  9  4  1  6  0  0  0
  9  5  1  0  0  0  0
  9  7  1  0  0  0  0
 10  1  1  1  0  0  0
 10  6  1  0  0  0  0
 10  4  1  0  0  0  0
 11 14  1  0  0  0  0
 11 20  1  0  0  0  0
 11 12  1  0  0  0  0
 13 21  1  6  0  0  0
 13 11  1  0  0  0  0
 15 17  1  0  0  0  0
 15 19  2  0  0  0  0
 16 13  1  0  0  0  0
 18 17  1  6  0  0  0
 18 13  1  0  0  0  0
 18 22  1  0  0  0  0
 19 16  1  0  0  0  0
 22 14  1  0  0  0  0
 24 23  1  1  0  0  0
 24 29  1  0  0  0  0
 24 31  1  0  0  0  0
 25 30  1  6  0  0  0
 25 28  1  0  0  0  0
 27 29  2  0  0  0  0
 28 26  1  0  0  0  0
 29 25  1  0  0  0  0
 31 26  2  0  0  0  0
M  END
>  <MODEL>
4

>  <REMARK>
 VINA RESULT:      -7.7      2.080      2.717
  Name = 
  3 active torsions:
  status: ('A' for Active; 'I' for Inactive)
    1  A    between atoms: S_2  and  C_6
    2  A    between atoms: S_2  and  C_17
    3  A    between atoms: C_9  and  C_15
                            x       y       z     vdW  Elec       q    Type
                         _______ _______ _______ _____ _____    ______ ____

>  <TORSDO>
F 3

$$$$
=
 OpenBabel11062414303D

 31 36  0  0  1  0  0  0  0  0999 V2000
  187.8520  174.9600  134.8930 N   0  0  0  0  0  1  0  0  0  0  0  0
  189.6130  178.1580  137.1280 O   0  0  0  0  0  0  0  0  0  0  0  0
  189.0530  177.9830  139.4030 C   0  0  1  0  0  3  0  0  0  0  0  0
  189.4190  175.9130  136.4980 C   0  0  0  0  0  2  0  0  0  0  0  0
  190.1940  177.9550  138.3730 C   0  0  1  0  0  3  0  0  0  0  0  0
  186.8740  176.0530  136.8700 C   0  0  2  0  0  3  0  0  0  0  0  0
  188.3850  176.7960  138.6940 C   0  0  1  0  0  3  0  0  0  0  0  0
  187.0850  177.1100  137.9660 C   0  0  0  0  0  2  0  0  0  0  0  0
  189.4880  176.8570  137.6830 C   0  0  1  0  0  0  0  0  0  0  0  0
  188.0310  176.0450  135.8420 C   0  0  2  0  0  3  0  0  0  0  0  0
  191.0560  176.9550  144.7810 C   0  0  0  0  0  0  0  0  0  0  0  0
  191.9690  177.7280  145.5040 O   0  0  0  0  0  1  0  0  0  0  0  0
  190.6930  177.5920  143.4340 C   0  0  1  0  0  0  0  0  0  0  0  0
  189.7250  176.8520  145.5370 C   0  0  0  0  0  2  0  0  0  0  0  0
  189.5740  177.6420  140.7760 C   0  0  0  0  0  0  0  0  0  0  0  0
  191.5880  177.2110  142.2520 C   0  0  0  0  0  2  0  0  0  0  0  0
  188.6330  177.6140  141.9760 C   0  0  0  0  0  2  0  0  0  0  0  0
  189.3300  176.9890  143.1790 C   0  0  2  0  0  3  0  0  0  0  0  0
  190.9150  177.5280  140.9280 C   0  0  0  0  0  3  0  0  0  0  0  0
  191.5780  175.6700  144.6040 O   0  0  0  0  0  1  0  0  0  0  0  0
  190.6260  179.1250  143.5550 C   0  0  0  0  0  1  0  0  0  0  0  0
  188.6070  177.0260  144.5050 C   0  0  0  0  0  2  0  0  0  0  0  0
  185.2830  176.3720  136.0350 S   0  0  0  0  0  0  0  0  0  0  0  0
  184.3580  175.0530  136.9020 C   0  0  1  0  0  3  0  0  0  0  0  0
  183.0260  173.0640  135.8290 C   0  0  2  0  0  3  0  0  0  0  0  0
  184.9100  172.6730  137.4070 C   0  0  0  0  0  3  0  0  0  0  0  0
  182.3850  175.3330  135.6160 O   0  0  0  0  0  0  0  0  0  0  0  0
  183.5110  172.2710  137.0410 C   0  0  0  0  0  2  0  0  0  0  0  0
  183.1900  174.5410  136.0820 C   0  0  0  0  0  0  0  0  0  0  0  0
  181.6990  172.7560  135.5880 F   0  0  0  0  0  0  0  0  0  0  0  0
  185.2940  173.9560  137.3490 C   0  0  0  0  0  3  0  0  0  0  0  0
  2  9  1  0  0  0  0
  3 15  1  1  0  0  0
  5  2  1  6  0  0  0
  5  3  1  0  0  0  0
  6 23  1  6  0  0  0
  6  8  1  0  0  0  0
  7  8  1  6  0  0  0
  7  3  1  0  0  0  0
  9  4  1  6  0  0  0
  9  5  1  0  0  0  0
  9  7  1  0  0  0  0
 10  1  1  6  0  0  0
 10  4  1  0  0  0  0
 10  6  1  0  0  0  0
 11 12  1  0  0  0  0
 11 14  1  0  0  0  0
 13 21  1  1  0  0  0
 13 11  1  0  0  0  0
 15 19  2  0  0  0  0
 15 17  1  0  0  0  0
 16 13  1  0  0  0  0
 18 17  1  6  0  0  0
 18 13  1  0  0  0  0
 18 22  1  0  0  0  0
 19 16  1  0  0  0  0
 20 11  1  0  0  0  0
 22 14  1  0  0  0  0
 24 23  1  6  0  0  0
 24 31  1  0  0  0  0
 25 30  1  1  0  0  0
 25 29  1  0  0  0  0
 25 28  1  0  0  0  0
 27 29  2  0  0  0  0
 28 26  1  0  0  0  0
 29 24  1  0  0  0  0
 31 26  2  0  0  0  0
M  END
>  <MODEL>
5

>  <REMARK>
 VINA RESULT:      -7.6      2.425      2.886
  Name = 
  3 active torsions:
  status: ('A' for Active; 'I' for Inactive)
    1  A    between atoms: S_2  and  C_6
    2  A    between atoms: S_2  and  C_17
    3  A    between atoms: C_9  and  C_15
                            x       y       z     vdW  Elec       q    Type
                         _______ _______ _______ _____ _____    ______ ____

>  <TORSDO>
F 3

$$$$
=
 OpenBabel11062414303D

 31 36  0  0  1  0  0  0  0  0999 V2000
  187.6860  177.6840  142.0240 N   0  0  0  0  0  1  0  0  0  0  0  0
  190.0750  178.2150  138.5120 O   0  0  0  0  0  0  0  0  0  0  0  0
  191.9120  176.7520  138.5330 C   0  0  1  0  0  3  0  0  0  0  0  0
  188.5930  177.0110  139.8640 C   0  0  0  0  0  2  0  0  0  0  0  0
  190.6100  177.1400  137.8150 C   0  0  1  0  0  3  0  0  0  0  0  0
  190.1310  177.4360  141.8880 C   0  0  2  0  0  3  0  0  0  0  0  0
  191.1200  176.4800  139.8210 C   0  0  1  0  0  3  0  0  0  0  0  0
  191.3560  177.4640  140.9590 C   0  0  0  0  0  2  0  0  0  0  0  0
  189.8940  176.9310  139.0890 C   0  0  1  0  0  0  0  0  0  0  0  0
  188.8320  177.8340  141.1450 C   0  0  2  0  0  3  0  0  0  0  0  0
  194.3270  172.1070  135.9650 C   0  0  0  0  0  0  0  0  0  0  0  0
  194.5080  171.9000  134.5950 O   0  0  0  0  0  1  0  0  0  0  0  0
  193.7430  173.4920  136.2710 C   0  0  1  0  0  0  0  0  0  0  0  0
  195.6760  172.0830  136.6940 C   0  0  0  0  0  2  0  0  0  0  0  0
  192.5010  175.5060  137.9200 C   0  0  0  0  0  0  0  0  0  0  0  0
  192.2150  173.5820  136.2970 C   0  0  0  0  0  2  0  0  0  0  0  0
  193.9550  175.1290  138.1800 C   0  0  0  0  0  2  0  0  0  0  0  0
  194.2310  173.7140  137.6840 C   0  0  2  0  0  3  0  0  0  0  0  0
  191.7500  174.8380  137.0130 C   0  0  0  0  0  3  0  0  0  0  0  0
  193.5130  171.0940  136.4810 O   0  0  0  0  0  1  0  0  0  0  0  0
  194.3030  174.5480  135.3010 C   0  0  0  0  0  1  0  0  0  0  0  0
  195.6610  173.2290  137.7090 C   0  0  0  0  0  2  0  0  0  0  0  0
  190.4280  178.5560  143.2970 S   0  0  0  0  0  0  0  0  0  0  0  0
  189.9530  177.3500  144.5880 C   0  0  1  0  0  3  0  0  0  0  0  0
  191.2700  176.7480  146.7750 C   0  0  2  0  0  3  0  0  0  0  0  0
  188.9440  177.6290  146.8520 C   0  0  0  0  0  3  0  0  0  0  0  0
  192.0540  176.2510  144.5970 O   0  0  0  0  0  0  0  0  0  0  0  0
  189.8850  176.5940  147.3990 C   0  0  0  0  0  2  0  0  0  0  0  0
  191.1610  176.7410  145.2710 C   0  0  0  0  0  0  0  0  0  0  0  0
  192.0790  175.7130  147.2090 F   0  0  0  0  0  0  0  0  0  0  0  0
  188.9730  177.9690  145.5560 C   0  0  0  0  0  3  0  0  0  0  0  0
  2  9  1  0  0  0  0
  3 15  1  6  0  0  0
  3  7  1  0  0  0  0
  4 10  1  0  0  0  0
  5  2  1  1  0  0  0
  5  3  1  0  0  0  0
  5  9  1  0  0  0  0
  6 23  1  1  0  0  0
  7  8  1  1  0  0  0
  8  6  1  0  0  0  0
  9  7  1  0  0  0  0
  9  4  1  1  0  0  0
 10  6  1  0  0  0  0
 10  1  1  1  0  0  0
 11 13  1  0  0  0  0
 11 20  1  0  0  0  0
 11 14  1  0  0  0  0
 12 11  1  0  0  0  0
 13 21  1  6  0  0  0
 13 16  1  0  0  0  0
 13 18  1  0  0  0  0
 14 22  1  0  0  0  0
 15 17  1  0  0  0  0
 16 19  1  0  0  0  0
 18 22  1  6  0  0  0
 18 17  1  0  0  0  0
 19 15  2  0  0  0  0
 24 23  1  6  0  0  0
 24 29  1  0  0  0  0
 24 31  1  0  0  0  0
 25 30  1  6  0  0  0
 25 28  1  0  0  0  0
 26 28  1  0  0  0  0
 27 29  2  0  0  0  0
 29 25  1  0  0  0  0
 31 26  2  0  0  0  0
M  END
>  <MODEL>
6

>  <REMARK>
 VINA RESULT:      -7.6      4.662      8.600
  Name = 
  3 active torsions:
  status: ('A' for Active; 'I' for Inactive)
    1  A    between atoms: S_2  and  C_6
    2  A    between atoms: S_2  and  C_17
    3  A    between atoms: C_9  and  C_15
                            x       y       z     vdW  Elec       q    Type
                         _______ _______ _______ _____ _____    ______ ____

>  <TORSDO>
F 3

$$$$
=
 OpenBabel11062414303D

 31 36  0  0  1  0  0  0  0  0999 V2000
  182.1250  179.1290  143.9310 N   0  0  0  0  0  1  0  0  0  0  0  0
  181.6580  179.0790  139.6760 O   0  0  0  0  0  0  0  0  0  0  0  0
  182.7860  177.2420  138.7420 C   0  0  1  0  0  3  0  0  0  0  0  0
  181.2630  178.2500  141.8270 C   0  0  0  0  0  2  0  0  0  0  0  0
  181.4190  177.9050  138.9740 C   0  0  1  0  0  3  0  0  0  0  0  0
  183.7940  178.3390  142.3020 C   0  0  2  0  0  3  0  0  0  0  0  0
  183.0060  177.1660  140.2600 C   0  0  1  0  0  3  0  0  0  0  0  0
  184.0880  178.0840  140.8150 C   0  0  0  0  0  2  0  0  0  0  0  0
  181.6960  177.8730  140.4240 C   0  0  1  0  0  0  0  0  0  0  0  0
  182.4150  179.0110  142.5130 C   0  0  2  0  0  3  0  0  0  0  0  0
  182.2390  172.1280  135.9950 C   0  0  0  0  0  0  0  0  0  0  0  0
  181.8610  171.9210  134.6660 O   0  0  0  0  0  1  0  0  0  0  0  0
  182.3660  173.6180  136.3370 C   0  0  1  0  0  0  0  0  0  0  0  0
  183.6350  171.5470  136.2520 C   0  0  0  0  0  2  0  0  0  0  0  0
  182.6140  175.8900  138.0960 C   0  0  0  0  0  0  0  0  0  0  0  0
  181.0920  174.2980  136.8430 C   0  0  0  0  0  2  0  0  0  0  0  0
  183.8100  174.9630  137.9110 C   0  0  0  0  0  2  0  0  0  0  0  0
  183.3420  173.5740  137.4910 C   0  0  2  0  0  3  0  0  0  0  0  0
  181.4090  175.6070  137.5470 C   0  0  0  0  0  3  0  0  0  0  0  0
  181.3220  171.4960  136.8400 O   0  0  0  0  0  1  0  0  0  0  0  0
  182.9300  174.4070  135.1420 C   0  0  0  0  0  1  0  0  0  0  0  0
  184.3970  172.5660  137.1030 C   0  0  0  0  0  2  0  0  0  0  0  0
  185.1210  179.3780  143.0020 S   0  0  0  0  0  0  0  0  0  0  0  0
  185.5380  178.2380  144.3700 C   0  0  1  0  0  3  0  0  0  0  0  0
  187.9100  177.7590  145.3850 C   0  0  2  0  0  3  0  0  0  0  0  0
  186.0430  178.6290  146.7820 C   0  0  0  0  0  3  0  0  0  0  0  0
  187.2820  177.1540  143.1840 O   0  0  0  0  0  0  0  0  0  0  0  0
  187.1610  177.6290  146.7090 C   0  0  0  0  0  2  0  0  0  0  0  0
  186.9380  177.6730  144.2350 C   0  0  0  0  0  0  0  0  0  0  0  0
  188.8550  176.7530  145.2990 F   0  0  0  0  0  0  0  0  0  0  0  0
  185.2930  178.9000  145.7050 C   0  0  0  0  0  3  0  0  0  0  0  0
  2  9  1  0  0  0  0
  3 15  1  1  0  0  0
  3  5  1  0  0  0  0
  3  7  1  0  0  0  0
  4 10  1  0  0  0  0
  5  2  1  6  0  0  0
  5  9  1  0  0  0  0
  6 10  1  0  0  0  0
  6 23  1  6  0  0  0
  7  9  1  0  0  0  0
  7  8  1  6  0  0  0
  8  6  1  0  0  0  0
  9  4  1  1  0  0  0
 10  1  1  1  0  0  0
 11 14  1  0  0  0  0
 11 13  1  0  0  0  0
 11 20  1  0  0  0  0
 12 11  1  0  0  0  0
 13 21  1  6  0  0  0
 13 16  1  0  0  0  0
 13 18  1  0  0  0  0
 14 22  1  0  0  0  0
 16 19  1  0  0  0  0
 17 15  1  0  0  0  0
 18 22  1  6  0  0  0
 18 17  1  0  0  0  0
 19 15  2  0  0  0  0
 24 23  1  6  0  0  0
 24 31  1  0  0  0  0
 25 30  1  6  0  0  0
 25 28  1  0  0  0  0
 27 29  2  0  0  0  0
 28 26  1  0  0  0  0
 29 24  1  0  0  0  0
 29 25  1  0  0  0  0
 31 26  2  0  0  0  0
M  END
>  <MODEL>
7

>  <REMARK>
 VINA RESULT:      -7.6      4.790      9.830
  Name = 
  3 active torsions:
  status: ('A' for Active; 'I' for Inactive)
    1  A    between atoms: S_2  and  C_6
    2  A    between atoms: S_2  and  C_17
    3  A    between atoms: C_9  and  C_15
                            x       y       z     vdW  Elec       q    Type
                         _______ _______ _______ _____ _____    ______ ____

>  <TORSDO>
F 3

$$$$
=
 OpenBabel11062414303D

 31 36  0  0  1  0  0  0  0  0999 V2000
  190.1940  175.3720  134.5990 N   0  0  0  0  0  1  0  0  0  0  0  0
  189.0570  178.6940  137.0480 O   0  0  0  0  0  0  0  0  0  0  0  0
  188.3850  177.9610  139.1750 C   0  0  1  0  0  3  0  0  0  0  0  0
  190.4750  176.9310  136.4510 C   0  0  0  0  0  2  0  0  0  0  0  0
  189.4170  178.7800  138.3860 C   0  0  1  0  0  3  0  0  0  0  0  0
  188.4350  175.3640  136.3210 C   0  0  2  0  0  3  0  0  0  0  0  0
  188.7760  176.7050  138.3820 C   0  0  1  0  0  3  0  0  0  0  0  0
  187.7260  176.1860  137.4090 C   0  0  0  0  0  2  0  0  0  0  0  0
  189.7200  177.5670  137.6020 C   0  0  1  0  0  0  0  0  0  0  0  0
  189.4670  176.2100  135.5360 C   0  0  2  0  0  3  0  0  0  0  0  0
  189.7840  177.4040  144.8090 C   0  0  0  0  0  0  0  0  0  0  0  0
  189.0810  176.6950  145.7860 O   0  0  0  0  0  1  0  0  0  0  0  0
  189.1630  177.2440  143.4150 C   0  0  1  0  0  0  0  0  0  0  0  0
  191.2080  176.8520  144.6670 C   0  0  0  0  0  2  0  0  0  0  0  0
  188.7690  177.8900  140.6320 C   0  0  0  0  0  0  0  0  0  0  0  0
  188.0860  178.2660  143.0430 C   0  0  0  0  0  2  0  0  0  0  0  0
  190.0660  177.2120  141.0590 C   0  0  0  0  0  2  0  0  0  0  0  0
  190.3570  177.5050  142.5260 C   0  0  2  0  0  3  0  0  0  0  0  0
  187.8530  178.2990  141.5420 C   0  0  0  0  0  3  0  0  0  0  0  0
  189.8540  178.7510  145.1750 O   0  0  0  0  0  1  0  0  0  0  0  0
  188.6080  175.8220  143.2240 C   0  0  0  0  0  1  0  0  0  0  0  0
  191.5170  176.7810  143.1690 C   0  0  0  0  0  2  0  0  0  0  0  0
  187.1830  174.6740  135.1870 S   0  0  0  0  0  0  0  0  0  0  0  0
  185.8510  174.5620  136.4360 C   0  0  1  0  0  3  0  0  0  0  0  0
  183.3220  173.9930  136.0310 C   0  0  2  0  0  3  0  0  0  0  0  0
  184.7460  172.6160  137.5390 C   0  0  0  0  0  3  0  0  0  0  0  0
  184.3600  175.9700  135.2450 O   0  0  0  0  0  0  0  0  0  0  0  0
  183.4110  173.2860  137.3820 C   0  0  0  0  0  2  0  0  0  0  0  0
  184.4970  174.9230  135.8600 C   0  0  0  0  0  0  0  0  0  0  0  0
  182.1320  174.6940  135.9650 F   0  0  0  0  0  0  0  0  0  0  0  0
  185.8680  173.2100  137.1090 C   0  0  0  0  0  3  0  0  0  0  0  0
  2  9  1  0  0  0  0
  3 15  1  1  0  0  0
  5  2  1  6  0  0  0
  5  3  1  0  0  0  0
  6 23  1  6  0  0  0
  6  8  1  0  0  0  0
  7  8  1  6  0  0  0
  7  3  1  0  0  0  0
  9  4  1  6  0  0  0
  9  7  1  0  0  0  0
  9  5  1  0  0  0  0
 10  1  1  6  0  0  0
 10  6  1  0  0  0  0
 10  4  1  0  0  0  0
 11 20  1  0  0  0  0
 11 12  1  0  0  0  0
 13 21  1  6  0  0  0
 13 11  1  0  0  0  0
 14 11  1  0  0  0  0
 15 17  1  0  0  0  0
 15 19  2  0  0  0  0
 16 13  1  0  0  0  0
 18 17  1  6  0  0  0
 18 22  1  0  0  0  0
 18 13  1  0  0  0  0
 19 16  1  0  0  0  0
 22 14  1  0  0  0  0
 24 23  1  6  0  0  0
 24 31  1  0  0  0  0
 25 30  1  1  0  0  0
 25 28  1  0  0  0  0
 27 29  2  0  0  0  0
 28 26  1  0  0  0  0
 29 25  1  0  0  0  0
 29 24  1  0  0  0  0
 31 26  2  0  0  0  0
M  END
>  <MODEL>
8

>  <REMARK>
 VINA RESULT:      -7.4      2.680      3.330
  Name = 
  3 active torsions:
  status: ('A' for Active; 'I' for Inactive)
    1  A    between atoms: S_2  and  C_6
    2  A    between atoms: S_2  and  C_17
    3  A    between atoms: C_9  and  C_15
                            x       y       z     vdW  Elec       q    Type
                         _______ _______ _______ _____ _____    ______ ____

>  <TORSDO>
F 3

$$$$
=
 OpenBabel11062414303D

 31 36  0  0  1  0  0  0  0  0999 V2000
  190.0350  175.6180  142.7910 N   0  0  0  0  0  1  0  0  0  0  0  0
  187.1690  178.4340  144.2660 O   0  0  0  0  0  0  0  0  0  0  0  0
  185.4780  178.8020  142.6780 C   0  0  1  0  0  3  0  0  0  0  0  0
  187.8480  176.2870  143.6330 C   0  0  0  0  0  2  0  0  0  0  0  0
  185.8030  178.2630  144.0790 C   0  0  1  0  0  3  0  0  0  0  0  0
  188.7910  177.2570  141.4400 C   0  0  2  0  0  3  0  0  0  0  0  0
  186.4440  177.7800  142.0610 C   0  0  1  0  0  3  0  0  0  0  0  0
  187.7180  178.3580  141.4580 C   0  0  0  0  0  2  0  0  0  0  0  0
  186.7710  177.3400  143.4540 C   0  0  1  0  0  0  0  0  0  0  0  0
  189.1060  176.7310  142.8620 C   0  0  2  0  0  3  0  0  0  0  0  0
  179.8990  178.0290  141.1710 C   0  0  0  0  0  0  0  0  0  0  0  0
  178.9310  179.0190  140.9820 O   0  0  0  0  0  1  0  0  0  0  0  0
  181.2830  178.6190  141.4690 C   0  0  1  0  0  0  0  0  0  0  0  0
  180.0900  177.2140  139.8850 C   0  0  0  0  0  2  0  0  0  0  0  0
  184.0330  178.5410  142.3340 C   0  0  0  0  0  0  0  0  0  0  0  0
  181.5970  178.8720  142.9450 C   0  0  0  0  0  2  0  0  0  0  0  0
  183.6580  177.9050  141.0000 C   0  0  0  0  0  2  0  0  0  0  0  0
  182.1880  177.5010  141.0020 C   0  0  2  0  0  3  0  0  0  0  0  0
  183.0900  179.0350  143.1700 C   0  0  0  0  0  3  0  0  0  0  0  0
  179.4880  177.1710  142.1950 O   0  0  0  0  0  1  0  0  0  0  0  0
  181.5110  179.9110  140.6660 C   0  0  0  0  0  1  0  0  0  0  0  0
  181.5950  177.0040  139.7050 C   0  0  0  0  0  2  0  0  0  0  0  0
  190.3020  177.9110  140.6540 S   0  0  0  0  0  0  0  0  0  0  0  0
  190.3020  176.7310  139.2560 C   0  0  1  0  0  3  0  0  0  0  0  0
  189.9700  177.2680  136.7100 C   0  0  2  0  0  3  0  0  0  0  0  0
  192.0300  176.1530  137.5510 C   0  0  0  0  0  3  0  0  0  0  0  0
  188.2690  177.5320  138.3350 O   0  0  0  0  0  0  0  0  0  0  0  0
  190.9720  176.1380  136.4850 C   0  0  0  0  0  2  0  0  0  0  0  0
  189.4240  177.1990  138.1130 C   0  0  0  0  0  0  0  0  0  0  0  0
  188.9480  177.1580  135.7840 F   0  0  0  0  0  0  0  0  0  0  0  0
  191.7160  176.4190  138.8270 C   0  0  0  0  0  3  0  0  0  0  0  0
  3 15  1  6  0  0  0
  3  5  1  0  0  0  0
  5  2  1  1  0  0  0
  6 23  1  1  0  0  0
  6  8  1  0  0  0  0
  6 10  1  0  0  0  0
  7  8  1  1  0  0  0
  7  3  1  0  0  0  0
  7  9  1  0  0  0  0
  9  4  1  1  0  0  0
  9  5  1  0  0  0  0
  9  2  1  0  0  0  0
 10  1  1  6  0  0  0
 10  4  1  0  0  0  0
 11 13  1  0  0  0  0
 11 20  1  0  0  0  0
 12 11  1  0  0  0  0
 13 21  1  6  0  0  0
 13 16  1  0  0  0  0
 14 11  1  0  0  0  0
 15 19  2  0  0  0  0
 16 19  1  0  0  0  0
 17 18  1  0  0  0  0
 17 15  1  0  0  0  0
 18 22  1  6  0  0  0
 18 13  1  0  0  0  0
 22 14  1  0  0  0  0
 24 23  1  1  0  0  0
 25 30  1  6  0  0  0
 25 29  1  0  0  0  0
 26 31  2  0  0  0  0
 28 25  1  0  0  0  0
 28 26  1  0  0  0  0
 29 27  2  0  0  0  0
 29 24  1  0  0  0  0
 31 24  1  0  0  0  0
M  END
>  <MODEL>
9

>  <REMARK>
 VINA RESULT:      -7.1      3.795      8.254
  Name = 
  3 active torsions:
  status: ('A' for Active; 'I' for Inactive)
    1  A    between atoms: S_2  and  C_6
    2  A    between atoms: S_2  and  C_17
    3  A    between atoms: C_9  and  C_15
                            x       y       z     vdW  Elec       q    Type
                         _______ _______ _______ _____ _____    ______ ____

>  <TORSDO>
F 3

$$$$
