=
 OpenBabel11062413253D

 46 50  0  0  1  0  0  0  0  0999 V2000
  184.4860  178.9000  140.4620 C   0  0  2  0  0  3  0  0  0  0  0  0
  184.9390  178.5890  139.0890 C   0  0  2  0  0  3  0  0  0  0  0  0
  184.5500  179.8920  139.4670 O   0  0  0  0  0  0  0  0  0  0  0  0
  182.7180  178.5250  138.0990 C   0  0  0  0  0  0  0  0  0  0  0  0
  181.5910  179.1450  137.8550 C   0  0  0  0  0  3  0  0  0  0  0  0
  183.8370  177.8980  138.3470 C   0  0  0  0  0  0  0  0  0  0  0  0
  181.5250  180.5410  137.5310 N   0  0  0  0  0  0  0  0  0  0  0  0
  181.6760  181.4850  138.4020 C   0  0  0  0  0  3  0  0  0  0  0  0
  181.6010  182.8140  138.0050 O   0  0  0  0  0  1  0  0  0  0  0  0
  184.1420  176.6610  137.5620 C   0  0  0  0  0  2  0  0  0  0  0  0
  186.4490  175.4890  137.2430 C   0  0  0  0  0  2  0  0  0  0  0  0
  188.0610  176.2960  135.8110 C   0  0  1  0  0  3  0  0  0  0  0  0
  187.1510  175.2320  136.0480 O   0  0  0  0  0  0  0  0  0  0  0  0
  185.5460  176.6680  137.0460 C   0  0  0  0  0  0  0  0  0  0  0  0
  185.9990  177.7010  136.3320 C   0  0  0  0  0  3  0  0  0  0  0  0
  187.3890  177.6860  135.7450 C   0  0  0  0  0  2  0  0  0  0  0  0
  189.1540  176.2980  136.7830 N   0  0  0  0  0  2  0  0  0  0  0  0
  192.2250  173.6430  136.4280 S   0  0  0  0  0  0  0  0  0  0  0  0
  190.4060  175.6360  136.5700 C   0  0  0  0  0  0  0  0  0  0  0  0
  192.6740  175.3460  135.9060 C   0  0  0  0  0  2  0  0  0  0  0  0
  191.4730  176.2270  136.0550 C   0  0  0  0  0  3  0  0  0  0  0  0
  190.6160  174.2430  136.8830 C   0  0  0  0  0  0  0  0  0  0  0  0
  189.7570  173.5250  137.4620 O   0  0  0  0  0  0  0  0  0  0  0  0
  185.6870  179.0150  141.3820 C   0  0  0  0  0  2  0  0  0  0  0  0
  185.2760  179.5200  142.7560 C   0  0  0  0  0  2  0  0  0  0  0  0
  183.3490  179.0590  144.2360 C   0  0  0  0  0  1  0  0  0  0  0  0
  184.5430  178.4400  143.5360 C   0  0  2  0  0  3  0  0  0  0  0  0
  185.4770  177.8300  144.5550 C   0  0  0  0  0  2  0  0  0  0  0  0
  185.3880  178.5810  145.8700 C   0  0  0  0  0  2  0  0  0  0  0  0
  186.6750  178.3820  146.6400 C   0  0  0  0  0  2  0  0  0  0  0  0
  187.7650  177.8930  145.6990 C   0  0  0  0  0  2  0  0  0  0  0  0
  188.8890  177.1500  146.4260 C   0  0  2  0  0  3  0  0  0  0  0  0
  188.8670  177.3740  147.9290 C   0  0  0  0  0  1  0  0  0  0  0  0
  190.3260  178.3280  144.7660 O   0  0  0  0  0  0  0  0  0  0  0  0
  190.2830  177.4040  145.8290 C   0  0  2  0  0  0  0  0  0  0  0  0
  190.5640  176.9750  144.4320 C   0  0  1  0  0  3  0  0  0  0  0  0
  189.3870  176.4230  143.7720 N   0  0  0  0  0  2  0  0  0  0  0  0
  191.2060  176.3820  142.1480 C   0  0  0  0  0  2  0  0  0  0  0  0
  189.4040  177.4450  140.1770 N   0  0  0  0  0  2  0  0  0  0  0  0
  191.5840  177.4940  141.2770 N   0  0  0  0  0  2  0  0  0  0  0  0
  189.6880  176.3160  142.3540 C   0  0  0  0  0  3  0  0  0  0  0  0
  190.8660  177.3440  140.0110 C   0  0  0  0  0  2  0  0  0  0  0  0
  188.9810  177.4300  141.5800 C   0  0  0  0  0  2  0  0  0  0  0  0
  191.4260  177.3880  146.6540 O   0  0  0  0  0  0  0  0  0  0  0  0
  191.9700  176.0960  146.6150 C   0  0  0  0  0  2  0  0  0  0  0  0
  192.5190  175.7380  147.9800 C   0  0  0  0  0  1  0  0  0  0  0  0
  1 24  1  1  0  0  0
  2  6  1  6  0  0  0
  2  3  1  0  0  0  0
  2  1  1  0  0  0  0
  3  1  1  0  0  0  0
  4  6  2  0  0  0  0
  5  4  2  0  0  0  0
  7  5  1  0  0  0  0
  7  8  2  0  0  0  0
  9  8  1  0  0  0  0
 10  6  1  0  0  0  0
 12 13  1  0  0  0  0
 12 17  1  1  0  0  0
 13 11  1  0  0  0  0
 14 11  1  0  0  0  0
 14 10  1  0  0  0  0
 15 14  2  0  0  0  0
 16 12  1  0  0  0  0
 16 15  1  0  0  0  0
 18 22  1  0  0  0  0
 19 17  1  0  0  0  0
 19 22  1  0  0  0  0
 20 21  1  0  0  0  0
 20 18  1  0  0  0  0
 21 19  2  0  0  0  0
 22 23  2  0  0  0  0
 24 25  1  0  0  0  0
 25 27  1  0  0  0  0
 27 26  1  1  0  0  0
 27 28  1  0  0  0  0
 28 29  1  0  0  0  0
 29 30  1  0  0  0  0
 31 32  1  0  0  0  0
 31 30  1  0  0  0  0
 32 33  1  1  0  0  0
 34 35  1  0  0  0  0
 35 32  1  0  0  0  0
 35 44  1  1  0  0  0
 36 37  1  6  0  0  0
 36 34  1  0  0  0  0
 36 35  1  0  0  0  0
 38 41  1  0  0  0  0
 39 43  1  0  0  0  0
 40 38  1  0  0  0  0
 41 37  1  0  0  0  0
 42 39  1  0  0  0  0
 42 40  1  0  0  0  0
 43 41  1  0  0  0  0
 45 44  1  0  0  0  0
 45 46  1  0  0  0  0
M  END
>  <MODEL>
1

>  <REMARK>
 VINA RESULT:      -8.0      0.000      0.000
  Name = 
  19 active torsions:
  status: ('A' for Active; 'I' for Inactive)
    1  A    between atoms: C_1  and  C_17
    2  A    between atoms: C_1  and  C_21
    3  A    between atoms: C_2  and  C_46
    4  A    between atoms: C_8  and  O_32
    5  A    between atoms: C_9  and  C_21
    6  A    between atoms: C_9  and  O_32
    7  A    between atoms: C_11  and  C_15
    8  A    between atoms: C_11  and  C_38
    9  A    between atoms: C_12  and  N_44
   10  A    between atoms: C_13  and  C_38
   11  A    between atoms: C_16  and  N_18
   12  A    between atoms: C_17  and  C_30
   13  A    between atoms: C_19  and  N_44
   14  A    between atoms: C_27  and  N_36
   15  A    between atoms: C_29  and  C_33
   16  A    between atoms: C_29  and  C_45
   17  A    between atoms: C_30  and  C_33
   18  A    between atoms: C_35  and  N_36
   19  A    between atoms: C_45  and  C_46
                            x       y       z     vdW  Elec       q    Type
                         _______ _______ _______ _____ _____    ______ ____

>  <TORSDO>
F 19

$$$$
=
 OpenBabel11062413253D

 46 50  0  0  1  0  0  0  0  0999 V2000
  183.6700  178.2450  141.0150 C   0  0  2  0  0  3  0  0  0  0  0  0
  183.0240  179.1240  140.0170 C   0  0  2  0  0  3  0  0  0  0  0  0
  182.2710  178.3360  140.9150 O   0  0  0  0  0  0  0  0  0  0  0  0
  182.2220  178.7950  137.7450 C   0  0  0  0  0  0  0  0  0  0  0  0
  181.3500  179.1010  136.8170 C   0  0  0  0  0  3  0  0  0  0  0  0
  183.0890  178.4770  138.6680 C   0  0  0  0  0  0  0  0  0  0  0  0
  180.8410  180.4300  136.6380 N   0  0  0  0  0  0  0  0  0  0  0  0
  180.5490  180.9350  135.4830 C   0  0  0  0  0  3  0  0  0  0  0  0
  180.0570  182.2310  135.3970 O   0  0  0  0  0  1  0  0  0  0  0  0
  184.3440  177.7780  138.2490 C   0  0  0  0  0  2  0  0  0  0  0  0
  183.2880  175.3970  138.3600 C   0  0  0  0  0  2  0  0  0  0  0  0
  183.0400  174.0640  136.5000 C   0  0  1  0  0  3  0  0  0  0  0  0
  182.3470  174.8070  137.4920 O   0  0  0  0  0  0  0  0  0  0  0  0
  184.0540  176.4520  137.6210 C   0  0  0  0  0  0  0  0  0  0  0  0
  184.4100  176.2090  136.3580 C   0  0  0  0  0  3  0  0  0  0  0  0
  184.0580  174.9010  135.6920 C   0  0  0  0  0  2  0  0  0  0  0  0
  183.6830  172.8770  137.0660 N   0  0  0  0  0  2  0  0  0  0  0  0
  187.2190  171.4520  135.6260 S   0  0  0  0  0  0  0  0  0  0  0  0
  185.0510  172.5270  136.8300 C   0  0  0  0  0  0  0  0  0  0  0  0
  187.4150  172.5090  137.1170 C   0  0  0  0  0  2  0  0  0  0  0  0
  186.0640  172.9930  137.5430 C   0  0  0  0  0  3  0  0  0  0  0  0
  185.4570  171.6390  135.7670 C   0  0  0  0  0  0  0  0  0  0  0  0
  184.6440  171.0200  135.0300 O   0  0  0  0  0  0  0  0  0  0  0  0
  184.1590  179.0750  142.1870 C   0  0  0  0  0  2  0  0  0  0  0  0
  184.9570  178.2260  143.1630 C   0  0  0  0  0  2  0  0  0  0  0  0
  183.0070  178.9210  144.5160 C   0  0  0  0  0  1  0  0  0  0  0  0
  184.4200  178.3730  144.5780 C   0  0  2  0  0  3  0  0  0  0  0  0
  185.3040  179.3180  145.3590 C   0  0  0  0  0  2  0  0  0  0  0  0
  185.8280  178.6380  146.6100 C   0  0  0  0  0  2  0  0  0  0  0  0
  186.6870  177.4600  146.2080 C   0  0  0  0  0  2  0  0  0  0  0  0
  188.0470  177.9540  145.7390 C   0  0  0  0  0  2  0  0  0  0  0  0
  188.3650  177.5460  144.2990 C   0  0  2  0  0  3  0  0  0  0  0  0
  187.6240  176.2910  143.8660 C   0  0  0  0  0  1  0  0  0  0  0  0
  190.5130  178.6790  143.7420 O   0  0  0  0  0  0  0  0  0  0  0  0
  189.8710  177.4520  144.0020 C   0  0  2  0  0  0  0  0  0  0  0  0
  190.3660  177.8010  142.6440 C   0  0  1  0  0  3  0  0  0  0  0  0
  189.3040  178.2880  141.7720 N   0  0  0  0  0  2  0  0  0  0  0  0
  190.4990  176.8040  140.2500 C   0  0  0  0  0  2  0  0  0  0  0  0
  188.3170  177.0330  138.3920 N   0  0  0  0  0  2  0  0  0  0  0  0
  190.7200  177.0570  138.8270 N   0  0  0  0  0  2  0  0  0  0  0  0
  189.1280  177.3140  140.7080 C   0  0  0  0  0  3  0  0  0  0  0  0
  189.6270  176.4330  138.0790 C   0  0  0  0  0  2  0  0  0  0  0  0
  188.3590  177.9400  139.5420 C   0  0  0  0  0  2  0  0  0  0  0  0
  190.6670  176.4860  144.6510 O   0  0  0  0  0  0  0  0  0  0  0  0
  191.3770  177.1270  145.6760 C   0  0  0  0  0  2  0  0  0  0  0  0
  192.0500  176.0890  146.5490 C   0  0  0  0  0  1  0  0  0  0  0  0
  1 24  1  1  0  0  0
  2  6  1  6  0  0  0
  2  3  1  0  0  0  0
  2  1  1  0  0  0  0
  3  1  1  0  0  0  0
  4  6  2  0  0  0  0
  5  4  2  0  0  0  0
  7  5  1  0  0  0  0
  8  7  2  0  0  0  0
  9  8  1  0  0  0  0
 10  6  1  0  0  0  0
 12 17  1  1  0  0  0
 12 13  1  0  0  0  0
 13 11  1  0  0  0  0
 14 10  1  0  0  0  0
 14 11  1  0  0  0  0
 15 14  2  0  0  0  0
 16 15  1  0  0  0  0
 16 12  1  0  0  0  0
 18 22  1  0  0  0  0
 18 20  1  0  0  0  0
 19 17  1  0  0  0  0
 19 21  2  0  0  0  0
 20 21  1  0  0  0  0
 22 19  1  0  0  0  0
 23 22  2  0  0  0  0
 24 25  1  0  0  0  0
 25 27  1  0  0  0  0
 27 26  1  6  0  0  0
 27 28  1  0  0  0  0
 28 29  1  0  0  0  0
 30 29  1  0  0  0  0
 31 30  1  0  0  0  0
 32 33  1  1  0  0  0
 32 31  1  0  0  0  0
 34 35  1  0  0  0  0
 35 32  1  0  0  0  0
 35 44  1  1  0  0  0
 36 37  1  6  0  0  0
 36 34  1  0  0  0  0
 36 35  1  0  0  0  0
 38 41  1  0  0  0  0
 39 43  1  0  0  0  0
 40 38  1  0  0  0  0
 41 37  1  0  0  0  0
 42 39  1  0  0  0  0
 42 40  1  0  0  0  0
 43 41  1  0  0  0  0
 44 45  1  0  0  0  0
 45 46  1  0  0  0  0
M  END
>  <MODEL>
2

>  <REMARK>
 VINA RESULT:      -7.8      2.420      3.262
  Name = 
  19 active torsions:
  status: ('A' for Active; 'I' for Inactive)
    1  A    between atoms: C_1  and  C_17
    2  A    between atoms: C_1  and  C_21
    3  A    between atoms: C_2  and  C_46
    4  A    between atoms: C_8  and  O_32
    5  A    between atoms: C_9  and  C_21
    6  A    between atoms: C_9  and  O_32
    7  A    between atoms: C_11  and  C_15
    8  A    between atoms: C_11  and  C_38
    9  A    between atoms: C_12  and  N_44
   10  A    between atoms: C_13  and  C_38
   11  A    between atoms: C_16  and  N_18
   12  A    between atoms: C_17  and  C_30
   13  A    between atoms: C_19  and  N_44
   14  A    between atoms: C_27  and  N_36
   15  A    between atoms: C_29  and  C_33
   16  A    between atoms: C_29  and  C_45
   17  A    between atoms: C_30  and  C_33
   18  A    between atoms: C_35  and  N_36
   19  A    between atoms: C_45  and  C_46
                            x       y       z     vdW  Elec       q    Type
                         _______ _______ _______ _____ _____    ______ ____

>  <TORSDO>
F 19

$$$$
=
 OpenBabel11062413253D

 46 50  0  0  1  0  0  0  0  0999 V2000
  187.0150  177.4590  137.7900 C   0  0  2  0  0  3  0  0  0  0  0  0
  186.1170  177.3580  136.6200 C   0  0  2  0  0  3  0  0  0  0  0  0
  185.7730  178.1160  137.7600 O   0  0  0  0  0  0  0  0  0  0  0  0
  184.2840  175.8890  137.2520 C   0  0  0  0  0  0  0  0  0  0  0  0
  183.1420  175.7400  137.8760 C   0  0  0  0  0  3  0  0  0  0  0  0
  185.4270  176.0290  136.6360 C   0  0  0  0  0  0  0  0  0  0  0  0
  182.1300  176.7560  137.8970 N   0  0  0  0  0  0  0  0  0  0  0  0
  181.4890  177.1070  138.9660 C   0  0  0  0  0  3  0  0  0  0  0  0
  180.5240  178.1030  138.9000 O   0  0  0  0  0  1  0  0  0  0  0  0
  185.8290  174.9800  135.6470 C   0  0  0  0  0  2  0  0  0  0  0  0
  187.6100  173.6230  136.9840 C   0  0  0  0  0  2  0  0  0  0  0  0
  189.7400  173.2580  136.1920 C   0  0  1  0  0  3  0  0  0  0  0  0
  188.5040  172.6390  136.5160 O   0  0  0  0  0  0  0  0  0  0  0  0
  187.2430  174.5380  135.8560 C   0  0  0  0  0  0  0  0  0  0  0  0
  188.1970  174.8950  134.9930 C   0  0  0  0  0  3  0  0  0  0  0  0
  189.6130  174.3960  135.1540 C   0  0  0  0  0  2  0  0  0  0  0  0
  190.4400  173.7260  137.3880 N   0  0  0  0  0  2  0  0  0  0  0  0
  194.1850  175.2260  136.8100 S   0  0  0  0  0  0  0  0  0  0  0  0
  191.6340  174.5160  137.3500 C   0  0  0  0  0  0  0  0  0  0  0  0
  193.0410  176.4170  137.6160 C   0  0  0  0  0  2  0  0  0  0  0  0
  191.6980  175.7740  137.7570 C   0  0  0  0  0  3  0  0  0  0  0  0
  192.8860  174.0120  136.8410 C   0  0  0  0  0  0  0  0  0  0  0  0
  193.0620  172.8160  136.4870 O   0  0  0  0  0  0  0  0  0  0  0  0
  188.1280  178.4470  137.4960 C   0  0  0  0  0  2  0  0  0  0  0  0
  189.0160  178.6490  138.7140 C   0  0  0  0  0  2  0  0  0  0  0  0
  187.8580  178.5280  140.8960 C   0  0  0  0  0  1  0  0  0  0  0  0
  188.6020  177.7240  139.8470 C   0  0  2  0  0  3  0  0  0  0  0  0
  189.8320  177.0920  140.4590 C   0  0  0  0  0  2  0  0  0  0  0  0
  189.7650  177.1650  141.9730 C   0  0  0  0  0  2  0  0  0  0  0  0
  190.3070  175.8780  142.5530 C   0  0  0  0  0  2  0  0  0  0  0  0
  191.2230  176.1890  143.7270 C   0  0  0  0  0  2  0  0  0  0  0  0
  190.8260  177.4680  144.4690 C   0  0  2  0  0  3  0  0  0  0  0  0
  191.8570  178.5760  144.3250 C   0  0  0  0  0  1  0  0  0  0  0  0
  189.3770  176.3300  146.1460 O   0  0  0  0  0  0  0  0  0  0  0  0
  190.4390  177.2330  145.9380 C   0  0  2  0  0  0  0  0  0  0  0  0
  189.1070  177.6910  146.4200 C   0  0  1  0  0  3  0  0  0  0  0  0
  188.2890  178.2480  145.3490 N   0  0  0  0  0  2  0  0  0  0  0  0
  186.0660  178.0700  144.3620 C   0  0  0  0  0  2  0  0  0  0  0  0
  184.9300  178.6190  146.9450 N   0  0  0  0  0  2  0  0  0  0  0  0
  184.9850  179.0380  144.5400 N   0  0  0  0  0  2  0  0  0  0  0  0
  186.9040  177.9180  145.6370 C   0  0  0  0  0  3  0  0  0  0  0  0
  184.1730  178.6090  145.6800 C   0  0  0  0  0  2  0  0  0  0  0  0
  186.3700  178.8170  146.7550 C   0  0  0  0  0  2  0  0  0  0  0  0
  191.4240  177.2400  146.9450 O   0  0  0  0  0  0  0  0  0  0  0  0
  192.0170  175.9700  146.9800 C   0  0  0  0  0  2  0  0  0  0  0  0
  192.7600  175.7950  148.2880 C   0  0  0  0  0  1  0  0  0  0  0  0
  1 24  1  6  0  0  0
  2  6  1  1  0  0  0
  2  3  1  0  0  0  0
  2  1  1  0  0  0  0
  3  1  1  0  0  0  0
  4  5  2  0  0  0  0
  5  7  1  0  0  0  0
  6  4  2  0  0  0  0
  7  8  2  0  0  0  0
  9  8  1  0  0  0  0
 10 14  1  0  0  0  0
 10  6  1  0  0  0  0
 12 13  1  0  0  0  0
 12 17  1  1  0  0  0
 13 11  1  0  0  0  0
 14 11  1  0  0  0  0
 15 16  1  0  0  0  0
 15 14  2  0  0  0  0
 16 12  1  0  0  0  0
 18 22  1  0  0  0  0
 18 20  1  0  0  0  0
 19 17  1  0  0  0  0
 19 21  2  0  0  0  0
 20 21  1  0  0  0  0
 22 19  1  0  0  0  0
 23 22  2  0  0  0  0
 24 25  1  0  0  0  0
 25 27  1  0  0  0  0
 27 28  1  0  0  0  0
 27 26  1  1  0  0  0
 28 29  1  0  0  0  0
 29 30  1  0  0  0  0
 30 31  1  0  0  0  0
 31 32  1  0  0  0  0
 32 33  1  1  0  0  0
 32 35  1  0  0  0  0
 34 36  1  0  0  0  0
 35 34  1  0  0  0  0
 35 36  1  0  0  0  0
 35 44  1  1  0  0  0
 36 37  1  6  0  0  0
 37 41  1  0  0  0  0
 38 40  1  0  0  0  0
 38 41  1  0  0  0  0
 40 42  1  0  0  0  0
 41 43  1  0  0  0  0
 42 39  1  0  0  0  0
 43 39  1  0  0  0  0
 44 45  1  0  0  0  0
 45 46  1  0  0  0  0
M  END
>  <MODEL>
3

>  <REMARK>
 VINA RESULT:      -7.7      2.272      4.246
  Name = 
  19 active torsions:
  status: ('A' for Active; 'I' for Inactive)
    1  A    between atoms: C_1  and  C_17
    2  A    between atoms: C_1  and  C_21
    3  A    between atoms: C_2  and  C_46
    4  A    between atoms: C_8  and  O_32
    5  A    between atoms: C_9  and  C_21
    6  A    between atoms: C_9  and  O_32
    7  A    between atoms: C_11  and  C_15
    8  A    between atoms: C_11  and  C_38
    9  A    between atoms: C_12  and  N_44
   10  A    between atoms: C_13  and  C_38
   11  A    between atoms: C_16  and  N_18
   12  A    between atoms: C_17  and  C_30
   13  A    between atoms: C_19  and  N_44
   14  A    between atoms: C_27  and  N_36
   15  A    between atoms: C_29  and  C_33
   16  A    between atoms: C_29  and  C_45
   17  A    between atoms: C_30  and  C_33
   18  A    between atoms: C_35  and  N_36
   19  A    between atoms: C_45  and  C_46
                            x       y       z     vdW  Elec       q    Type
                         _______ _______ _______ _____ _____    ______ ____

>  <TORSDO>
F 19

$$$$
=
 OpenBabel11062413253D

 46 50  0  0  1  0  0  0  0  0999 V2000
  184.5120  177.8910  139.7560 C   0  0  2  0  0  3  0  0  0  0  0  0
  183.8130  178.0440  138.4630 C   0  0  2  0  0  3  0  0  0  0  0  0
  183.2060  177.4070  139.5670 O   0  0  0  0  0  0  0  0  0  0  0  0
  183.8560  175.8230  137.4730 C   0  0  0  0  0  0  0  0  0  0  0  0
  183.3810  174.6020  137.4570 C   0  0  0  0  0  3  0  0  0  0  0  0
  184.3400  177.0350  137.4900 C   0  0  0  0  0  0  0  0  0  0  0  0
  181.9960  174.3050  137.6840 N   0  0  0  0  0  0  0  0  0  0  0  0
  181.1460  175.1640  138.1480 C   0  0  0  0  0  3  0  0  0  0  0  0
  179.8210  174.7940  138.3360 O   0  0  0  0  0  1  0  0  0  0  0  0
  185.1240  177.5000  136.3020 C   0  0  0  0  0  2  0  0  0  0  0  0
  187.3130  176.1150  136.0060 C   0  0  0  0  0  2  0  0  0  0  0  0
  189.4000  176.9920  136.4230 C   0  0  1  0  0  3  0  0  0  0  0  0
  188.5310  176.5050  135.4120 O   0  0  0  0  0  0  0  0  0  0  0  0
  186.5950  177.3290  136.5110 C   0  0  0  0  0  0  0  0  0  0  0  0
  187.3130  178.2940  137.0900 C   0  0  0  0  0  3  0  0  0  0  0  0
  188.8090  178.1630  137.2410 C   0  0  0  0  0  2  0  0  0  0  0  0
  189.8510  175.9200  137.3100 N   0  0  0  0  0  2  0  0  0  0  0  0
  193.4800  174.1080  136.9210 S   0  0  0  0  0  0  0  0  0  0  0  0
  190.9500  175.0520  137.0100 C   0  0  0  0  0  0  0  0  0  0  0  0
  192.0930  173.1060  136.2510 C   0  0  0  0  0  2  0  0  0  0  0  0
  190.8140  173.8530  136.4660 C   0  0  0  0  0  3  0  0  0  0  0  0
  192.3210  175.4020  137.2950 C   0  0  0  0  0  0  0  0  0  0  0  0
  192.6740  176.5310  137.7300 O   0  0  0  0  0  0  0  0  0  0  0  0
  184.4710  179.2030  140.5180 C   0  0  0  0  0  2  0  0  0  0  0  0
  185.3260  179.1330  141.7740 C   0  0  0  0  0  2  0  0  0  0  0  0
  183.3540  178.9190  143.2500 C   0  0  0  0  0  1  0  0  0  0  0  0
  184.6620  178.2730  142.8370 C   0  0  2  0  0  3  0  0  0  0  0  0
  185.5760  178.1510  144.0340 C   0  0  0  0  0  2  0  0  0  0  0  0
  184.8910  178.6810  145.2780 C   0  0  0  0  0  2  0  0  0  0  0  0
  185.6800  178.2540  146.4960 C   0  0  0  0  0  2  0  0  0  0  0  0
  187.1570  178.5420  146.2770 C   0  0  0  0  0  2  0  0  0  0  0  0
  188.0590  177.3740  146.6840 C   0  0  2  0  0  3  0  0  0  0  0  0
  187.9840  177.0630  148.1700 C   0  0  0  0  0  1  0  0  0  0  0  0
  189.7030  178.3940  145.1140 O   0  0  0  0  0  0  0  0  0  0  0  0
  189.5110  177.5180  146.2020 C   0  0  2  0  0  0  0  0  0  0  0  0
  189.8810  177.0170  144.8510 C   0  0  1  0  0  3  0  0  0  0  0  0
  188.7310  176.5110  144.1100 N   0  0  0  0  0  2  0  0  0  0  0  0
  190.6530  176.2320  142.6360 C   0  0  0  0  0  2  0  0  0  0  0  0
  189.1800  177.5460  140.5470 N   0  0  0  0  0  2  0  0  0  0  0  0
  191.2490  177.2880  141.8190 N   0  0  0  0  0  2  0  0  0  0  0  0
  189.1290  176.3740  142.7200 C   0  0  0  0  0  3  0  0  0  0  0  0
  190.6230  177.2460  140.4960 C   0  0  0  0  0  2  0  0  0  0  0  0
  188.6460  177.5800  141.9120 C   0  0  0  0  0  2  0  0  0  0  0  0
  190.5770  177.4660  147.1230 O   0  0  0  0  0  0  0  0  0  0  0  0
  191.5870  176.6660  146.5700 C   0  0  0  0  0  2  0  0  0  0  0  0
  192.0100  175.6180  147.5790 C   0  0  0  0  0  1  0  0  0  0  0  0
  1 24  1  1  0  0  0
  2  6  1  6  0  0  0
  2  3  1  0  0  0  0
  2  1  1  0  0  0  0
  3  1  1  0  0  0  0
  4  6  2  0  0  0  0
  5  4  2  0  0  0  0
  5  7  1  0  0  0  0
  7  8  2  0  0  0  0
  8  9  1  0  0  0  0
 10 14  1  0  0  0  0
 10  6  1  0  0  0  0
 11 14  1  0  0  0  0
 12 16  1  0  0  0  0
 12 17  1  1  0  0  0
 13 11  1  0  0  0  0
 13 12  1  0  0  0  0
 14 15  2  0  0  0  0
 15 16  1  0  0  0  0
 18 22  1  0  0  0  0
 19 22  1  0  0  0  0
 19 17  1  0  0  0  0
 20 21  1  0  0  0  0
 20 18  1  0  0  0  0
 21 19  2  0  0  0  0
 22 23  2  0  0  0  0
 24 25  1  0  0  0  0
 25 27  1  0  0  0  0
 27 26  1  1  0  0  0
 27 28  1  0  0  0  0
 28 29  1  0  0  0  0
 29 30  1  0  0  0  0
 31 30  1  0  0  0  0
 31 32  1  0  0  0  0
 32 33  1  1  0  0  0
 34 35  1  0  0  0  0
 35 32  1  0  0  0  0
 35 44  1  1  0  0  0
 36 37  1  6  0  0  0
 36 34  1  0  0  0  0
 36 35  1  0  0  0  0
 38 41  1  0  0  0  0
 39 43  1  0  0  0  0
 40 38  1  0  0  0  0
 41 37  1  0  0  0  0
 42 39  1  0  0  0  0
 42 40  1  0  0  0  0
 43 41  1  0  0  0  0
 45 44  1  0  0  0  0
 45 46  1  0  0  0  0
M  END
>  <MODEL>
4

>  <REMARK>
 VINA RESULT:      -7.6      1.923      2.416
  Name = 
  19 active torsions:
  status: ('A' for Active; 'I' for Inactive)
    1  A    between atoms: C_1  and  C_17
    2  A    between atoms: C_1  and  C_21
    3  A    between atoms: C_2  and  C_46
    4  A    between atoms: C_8  and  O_32
    5  A    between atoms: C_9  and  C_21
    6  A    between atoms: C_9  and  O_32
    7  A    between atoms: C_11  and  C_15
    8  A    between atoms: C_11  and  C_38
    9  A    between atoms: C_12  and  N_44
   10  A    between atoms: C_13  and  C_38
   11  A    between atoms: C_16  and  N_18
   12  A    between atoms: C_17  and  C_30
   13  A    between atoms: C_19  and  N_44
   14  A    between atoms: C_27  and  N_36
   15  A    between atoms: C_29  and  C_33
   16  A    between atoms: C_29  and  C_45
   17  A    between atoms: C_30  and  C_33
   18  A    between atoms: C_35  and  N_36
   19  A    between atoms: C_45  and  C_46
                            x       y       z     vdW  Elec       q    Type
                         _______ _______ _______ _____ _____    ______ ____

>  <TORSDO>
F 19

$$$$
=
 OpenBabel11062413253D

 46 50  0  0  1  0  0  0  0  0999 V2000
  187.0190  177.4710  144.7630 C   0  0  2  0  0  3  0  0  0  0  0  0
  188.1380  177.9760  143.9400 C   0  0  2  0  0  3  0  0  0  0  0  0
  187.1260  177.1540  143.3980 O   0  0  0  0  0  0  0  0  0  0  0  0
  189.9360  177.2510  145.4090 C   0  0  0  0  0  0  0  0  0  0  0  0
  190.5120  177.3260  146.5830 C   0  0  0  0  0  3  0  0  0  0  0  0
  189.3710  177.1790  144.2340 C   0  0  0  0  0  0  0  0  0  0  0  0
  189.7720  177.4490  147.8050 N   0  0  0  0  0  0  0  0  0  0  0  0
  188.5050  177.7080  147.8520 C   0  0  0  0  0  3  0  0  0  0  0  0
  187.8630  177.8080  149.0790 O   0  0  0  0  0  1  0  0  0  0  0  0
  189.7310  176.0290  143.3460 C   0  0  0  0  0  2  0  0  0  0  0  0
  189.3750  176.4680  140.8010 C   0  0  0  0  0  2  0  0  0  0  0  0
  190.8550  177.6960  139.5370 C   0  0  1  0  0  3  0  0  0  0  0  0
  189.5440  177.6670  140.0800 O   0  0  0  0  0  0  0  0  0  0  0  0
  190.2450  176.4940  142.0210 C   0  0  0  0  0  0  0  0  0  0  0  0
  191.4700  177.0130  141.9150 C   0  0  0  0  0  3  0  0  0  0  0  0
  191.9710  177.5520  140.5970 C   0  0  0  0  0  2  0  0  0  0  0  0
  191.0230  176.7050  138.4750 N   0  0  0  0  0  2  0  0  0  0  0  0
  189.6090  176.1180  134.6980 S   0  0  0  0  0  0  0  0  0  0  0  0
  190.3860  176.7980  137.1950 C   0  0  0  0  0  0  0  0  0  0  0  0
  188.9790  177.6580  135.4780 C   0  0  0  0  0  2  0  0  0  0  0  0
  189.5410  177.7600  136.8610 C   0  0  0  0  0  3  0  0  0  0  0  0
  190.5950  175.8280  136.1470 C   0  0  0  0  0  0  0  0  0  0  0  0
  191.4280  174.8850  136.2290 O   0  0  0  0  0  0  0  0  0  0  0  0
  185.9920  178.5710  144.9580 C   0  0  0  0  0  2  0  0  0  0  0  0
  184.5930  178.0790  144.6220 C   0  0  0  0  0  2  0  0  0  0  0  0
  182.4680  179.1860  144.0100 C   0  0  0  0  0  1  0  0  0  0  0  0
  183.9200  178.9990  143.6160 C   0  0  2  0  0  3  0  0  0  0  0  0
  184.0040  178.3880  142.2360 C   0  0  0  0  0  2  0  0  0  0  0  0
  185.1430  179.0100  141.4510 C   0  0  0  0  0  2  0  0  0  0  0  0
  184.7220  179.1620  140.0060 C   0  0  0  0  0  2  0  0  0  0  0  0
  183.2080  179.0600  139.9000 C   0  0  0  0  0  2  0  0  0  0  0  0
  182.7430  178.4450  138.5780 C   0  0  2  0  0  3  0  0  0  0  0  0
  181.7930  179.3490  137.8100 C   0  0  0  0  0  1  0  0  0  0  0  0
  182.8760  176.1900  139.6310 O   0  0  0  0  0  0  0  0  0  0  0  0
  182.1860  177.0200  138.7240 C   0  0  2  0  0  0  0  0  0  0  0  0
  183.0060  175.8680  138.2610 C   0  0  1  0  0  3  0  0  0  0  0  0
  184.3240  176.2770  137.7890 N   0  0  0  0  0  2  0  0  0  0  0  0
  184.4330  173.8450  137.6430 C   0  0  0  0  0  2  0  0  0  0  0  0
  186.9930  174.0870  136.3590 N   0  0  0  0  0  2  0  0  0  0  0  0
  185.5770  173.0280  138.0430 N   0  0  0  0  0  2  0  0  0  0  0  0
  184.8780  175.1740  137.0220 C   0  0  0  0  0  3  0  0  0  0  0  0
  186.4250  172.8250  136.8660 C   0  0  0  0  0  2  0  0  0  0  0  0
  186.4040  175.2760  136.9800 C   0  0  0  0  0  2  0  0  0  0  0  0
  180.7990  176.7830  138.6330 O   0  0  0  0  0  0  0  0  0  0  0  0
  180.3560  176.3200  139.8810 C   0  0  0  0  0  2  0  0  0  0  0  0
  179.9780  177.5000  140.7520 C   0  0  0  0  0  1  0  0  0  0  0  0
  1 24  1  6  0  0  0
  2  6  1  1  0  0  0
  2  1  1  0  0  0  0
  3  2  1  0  0  0  0
  3  1  1  0  0  0  0
  4  5  2  0  0  0  0
  5  7  1  0  0  0  0
  6  4  2  0  0  0  0
  7  8  2  0  0  0  0
  8  9  1  0  0  0  0
 10  6  1  0  0  0  0
 11 14  1  0  0  0  0
 12 17  1  6  0  0  0
 12 13  1  0  0  0  0
 12 16  1  0  0  0  0
 13 11  1  0  0  0  0
 14 10  1  0  0  0  0
 15 14  2  0  0  0  0
 16 15  1  0  0  0  0
 18 20  1  0  0  0  0
 18 22  1  0  0  0  0
 19 17  1  0  0  0  0
 20 21  1  0  0  0  0
 21 19  2  0  0  0  0
 22 23  2  0  0  0  0
 22 19  1  0  0  0  0
 25 24  1  0  0  0  0
 27 26  1  1  0  0  0
 27 25  1  0  0  0  0
 28 27  1  0  0  0  0
 29 28  1  0  0  0  0
 30 29  1  0  0  0  0
 31 30  1  0  0  0  0
 32 33  1  1  0  0  0
 32 35  1  0  0  0  0
 32 31  1  0  0  0  0
 35 44  1  6  0  0  0
 35 34  1  0  0  0  0
 36 37  1  6  0  0  0
 36 35  1  0  0  0  0
 36 34  1  0  0  0  0
 38 40  1  0  0  0  0
 39 42  1  0  0  0  0
 39 43  1  0  0  0  0
 41 38  1  0  0  0  0
 41 37  1  0  0  0  0
 42 40  1  0  0  0  0
 43 41  1  0  0  0  0
 44 45  1  0  0  0  0
 45 46  1  0  0  0  0
M  END
>  <MODEL>
5

>  <REMARK>
 VINA RESULT:      -7.5      2.476      7.996
  Name = 
  19 active torsions:
  status: ('A' for Active; 'I' for Inactive)
    1  A    between atoms: C_1  and  C_17
    2  A    between atoms: C_1  and  C_21
    3  A    between atoms: C_2  and  C_46
    4  A    between atoms: C_8  and  O_32
    5  A    between atoms: C_9  and  C_21
    6  A    between atoms: C_9  and  O_32
    7  A    between atoms: C_11  and  C_15
    8  A    between atoms: C_11  and  C_38
    9  A    between atoms: C_12  and  N_44
   10  A    between atoms: C_13  and  C_38
   11  A    between atoms: C_16  and  N_18
   12  A    between atoms: C_17  and  C_30
   13  A    between atoms: C_19  and  N_44
   14  A    between atoms: C_27  and  N_36
   15  A    between atoms: C_29  and  C_33
   16  A    between atoms: C_29  and  C_45
   17  A    between atoms: C_30  and  C_33
   18  A    between atoms: C_35  and  N_36
   19  A    between atoms: C_45  and  C_46
                            x       y       z     vdW  Elec       q    Type
                         _______ _______ _______ _____ _____    ______ ____

>  <TORSDO>
F 19

$$$$
=
 OpenBabel11062413253D

 46 50  0  0  1  0  0  0  0  0999 V2000
  182.2600  178.6290  143.3330 C   0  0  2  0  0  3  0  0  0  0  0  0
  181.1640  179.4210  142.7350 C   0  0  2  0  0  3  0  0  0  0  0  0
  180.9300  178.4820  143.7620 O   0  0  0  0  0  0  0  0  0  0  0  0
  181.5930  179.0400  140.3720 C   0  0  0  0  0  0  0  0  0  0  0  0
  182.3700  179.2350  139.3360 C   0  0  0  0  0  3  0  0  0  0  0  0
  180.8080  178.8490  141.3980 C   0  0  0  0  0  0  0  0  0  0  0  0
  183.8010  179.2580  139.4320 N   0  0  0  0  0  0  0  0  0  0  0  0
  184.4470  179.0740  140.5380 C   0  0  0  0  0  3  0  0  0  0  0  0
  185.8350  179.1100  140.5440 O   0  0  0  0  0  1  0  0  0  0  0  0
  179.7880  177.7570  141.3140 C   0  0  0  0  0  2  0  0  0  0  0  0
  180.9400  175.7310  140.1450 C   0  0  0  0  0  2  0  0  0  0  0  0
  180.2370  174.9110  138.1120 C   0  0  1  0  0  3  0  0  0  0  0  0
  180.3440  174.6290  139.4990 O   0  0  0  0  0  0  0  0  0  0  0  0
  179.9990  176.8960  140.1090 C   0  0  0  0  0  0  0  0  0  0  0  0
  179.2940  177.1080  138.9950 C   0  0  0  0  0  3  0  0  0  0  0  0
  179.4460  176.2010  137.7980 C   0  0  0  0  0  2  0  0  0  0  0  0
  181.5480  174.9390  137.4640 N   0  0  0  0  0  2  0  0  0  0  0  0
  183.9740  171.8810  136.2920 S   0  0  0  0  0  0  0  0  0  0  0  0
  182.1510  173.7990  136.8410 C   0  0  0  0  0  0  0  0  0  0  0  0
  182.3360  171.8700  135.4590 C   0  0  0  0  0  2  0  0  0  0  0  0
  181.5250  173.0150  135.9780 C   0  0  0  0  0  3  0  0  0  0  0  0
  183.5050  173.3850  137.1160 C   0  0  0  0  0  0  0  0  0  0  0  0
  184.3000  174.0440  137.8390 O   0  0  0  0  0  0  0  0  0  0  0  0
  183.0290  179.4850  144.3210 C   0  0  0  0  0  2  0  0  0  0  0  0
  183.7030  178.6260  145.3800 C   0  0  0  0  0  2  0  0  0  0  0  0
  185.7290  179.3000  144.1330 C   0  0  0  0  0  1  0  0  0  0  0  0
  185.1770  178.9760  145.5080 C   0  0  2  0  0  3  0  0  0  0  0  0
  185.9260  177.8050  146.1010 C   0  0  0  0  0  2  0  0  0  0  0  0
  187.3110  178.2350  146.5450 C   0  0  0  0  0  2  0  0  0  0  0  0
  188.3350  177.3040  145.9330 C   0  0  0  0  0  2  0  0  0  0  0  0
  189.0400  178.0030  144.7810 C   0  0  0  0  0  2  0  0  0  0  0  0
  188.8340  177.2950  143.4390 C   0  0  2  0  0  3  0  0  0  0  0  0
  187.7270  176.2550  143.4870 C   0  0  0  0  0  1  0  0  0  0  0  0
  191.0630  177.6860  142.3970 O   0  0  0  0  0  0  0  0  0  0  0  0
  190.1280  176.7270  142.8360 C   0  0  2  0  0  0  0  0  0  0  0  0
  190.4110  176.9390  141.3910 C   0  0  1  0  0  3  0  0  0  0  0  0
  189.4040  177.7720  140.7430 N   0  0  0  0  0  2  0  0  0  0  0  0
  188.4430  177.6260  138.5060 C   0  0  0  0  0  2  0  0  0  0  0  0
  190.9790  176.6840  137.5340 N   0  0  0  0  0  2  0  0  0  0  0  0
  188.5480  176.4690  137.6180 N   0  0  0  0  0  2  0  0  0  0  0  0
  189.7230  177.8260  139.3270 C   0  0  0  0  0  3  0  0  0  0  0  0
  189.7220  176.6560  136.7640 C   0  0  0  0  0  2  0  0  0  0  0  0
  190.7670  176.7610  138.9820 C   0  0  0  0  0  2  0  0  0  0  0  0
  190.6870  175.5350  143.3410 O   0  0  0  0  0  0  0  0  0  0  0  0
  191.9210  175.8490  143.9280 C   0  0  0  0  0  2  0  0  0  0  0  0
  191.7410  176.0160  145.4220 C   0  0  0  0  0  1  0  0  0  0  0  0
  1  3  1  0  0  0  0
  1 24  1  1  0  0  0
  2  6  1  6  0  0  0
  2  1  1  0  0  0  0
  2  3  1  0  0  0  0
  4  6  2  0  0  0  0
  5  7  1  0  0  0  0
  5  4  2  0  0  0  0
  7  8  2  0  0  0  0
  8  9  1  0  0  0  0
 10  6  1  0  0  0  0
 12 17  1  1  0  0  0
 12 13  1  0  0  0  0
 13 11  1  0  0  0  0
 14 11  1  0  0  0  0
 14 10  1  0  0  0  0
 15 14  2  0  0  0  0
 16 12  1  0  0  0  0
 16 15  1  0  0  0  0
 18 22  1  0  0  0  0
 19 22  1  0  0  0  0
 19 17  1  0  0  0  0
 20 21  1  0  0  0  0
 20 18  1  0  0  0  0
 21 19  2  0  0  0  0
 22 23  2  0  0  0  0
 24 25  1  0  0  0  0
 25 27  1  0  0  0  0
 27 26  1  6  0  0  0
 27 28  1  0  0  0  0
 28 29  1  0  0  0  0
 30 29  1  0  0  0  0
 31 30  1  0  0  0  0
 32 33  1  1  0  0  0
 32 31  1  0  0  0  0
 34 35  1  0  0  0  0
 35 44  1  1  0  0  0
 35 32  1  0  0  0  0
 36 37  1  6  0  0  0
 36 34  1  0  0  0  0
 36 35  1  0  0  0  0
 38 41  1  0  0  0  0
 39 43  1  0  0  0  0
 40 38  1  0  0  0  0
 41 37  1  0  0  0  0
 42 39  1  0  0  0  0
 42 40  1  0  0  0  0
 43 41  1  0  0  0  0
 44 45  1  0  0  0  0
 45 46  1  0  0  0  0
M  END
>  <MODEL>
6

>  <REMARK>
 VINA RESULT:      -7.3      3.173      5.281
  Name = 
  19 active torsions:
  status: ('A' for Active; 'I' for Inactive)
    1  A    between atoms: C_1  and  C_17
    2  A    between atoms: C_1  and  C_21
    3  A    between atoms: C_2  and  C_46
    4  A    between atoms: C_8  and  O_32
    5  A    between atoms: C_9  and  C_21
    6  A    between atoms: C_9  and  O_32
    7  A    between atoms: C_11  and  C_15
    8  A    between atoms: C_11  and  C_38
    9  A    between atoms: C_12  and  N_44
   10  A    between atoms: C_13  and  C_38
   11  A    between atoms: C_16  and  N_18
   12  A    between atoms: C_17  and  C_30
   13  A    between atoms: C_19  and  N_44
   14  A    between atoms: C_27  and  N_36
   15  A    between atoms: C_29  and  C_33
   16  A    between atoms: C_29  and  C_45
   17  A    between atoms: C_30  and  C_33
   18  A    between atoms: C_35  and  N_36
   19  A    between atoms: C_45  and  C_46
                            x       y       z     vdW  Elec       q    Type
                         _______ _______ _______ _____ _____    ______ ____

>  <TORSDO>
F 19

$$$$
=
 OpenBabel11062413253D

 46 50  0  0  1  0  0  0  0  0999 V2000
  181.6140  178.5890  141.3410 C   0  0  2  0  0  3  0  0  0  0  0  0
  181.8580  179.2170  140.0250 C   0  0  2  0  0  3  0  0  0  0  0  0
  181.3920  179.9600  141.1310 O   0  0  0  0  0  0  0  0  0  0  0  0
  180.0790  179.8310  138.4840 C   0  0  0  0  0  0  0  0  0  0  0  0
  179.4150  180.7800  137.8720 C   0  0  0  0  0  3  0  0  0  0  0  0
  180.7310  178.8800  139.0970 C   0  0  0  0  0  0  0  0  0  0  0  0
  180.0410  181.9740  137.3820 N   0  0  0  0  0  0  0  0  0  0  0  0
  180.5280  182.0880  136.1880 C   0  0  0  0  0  3  0  0  0  0  0  0
  181.1150  183.2820  135.7910 O   0  0  0  0  0  1  0  0  0  0  0  0
  180.6020  177.4840  138.5750 C   0  0  0  0  0  2  0  0  0  0  0  0
  182.7010  175.9410  138.6850 C   0  0  0  0  0  2  0  0  0  0  0  0
  184.1040  175.6290  136.8870 C   0  0  1  0  0  3  0  0  0  0  0  0
  183.1570  175.0020  137.7380 O   0  0  0  0  0  0  0  0  0  0  0  0
  181.8880  176.9920  137.9920 C   0  0  0  0  0  0  0  0  0  0  0  0
  182.3010  177.4290  136.8000 C   0  0  0  0  0  3  0  0  0  0  0  0
  183.5600  176.8850  136.1690 C   0  0  0  0  0  2  0  0  0  0  0  0
  185.3460  175.9370  137.5950 N   0  0  0  0  0  2  0  0  0  0  0  0
  188.4430  178.2900  136.3790 S   0  0  0  0  0  0  0  0  0  0  0  0
  186.4990  176.5070  136.9650 C   0  0  0  0  0  0  0  0  0  0  0  0
  188.4410  176.6290  135.5930 C   0  0  0  0  0  2  0  0  0  0  0  0
  187.2810  175.8470  136.1260 C   0  0  0  0  0  3  0  0  0  0  0  0
  186.9270  177.8640  137.2040 C   0  0  0  0  0  0  0  0  0  0  0  0
  186.2730  178.6870  137.8980 O   0  0  0  0  0  0  0  0  0  0  0  0
  182.9340  178.3840  142.0610 C   0  0  0  0  0  2  0  0  0  0  0  0
  182.8780  178.9450  143.4740 C   0  0  0  0  0  2  0  0  0  0  0  0
  185.2490  179.1920  142.8140 C   0  0  0  0  0  1  0  0  0  0  0  0
  184.2660  179.3300  143.9610 C   0  0  2  0  0  3  0  0  0  0  0  0
  184.6730  178.4220  145.0990 C   0  0  0  0  0  2  0  0  0  0  0  0
  185.4880  179.1900  146.1220 C   0  0  0  0  0  2  0  0  0  0  0  0
  186.4900  178.2530  146.7580 C   0  0  0  0  0  2  0  0  0  0  0  0
  187.5700  177.8930  145.7490 C   0  0  0  0  0  2  0  0  0  0  0  0
  188.8170  177.2910  146.4000 C   0  0  2  0  0  3  0  0  0  0  0  0
  188.9540  177.6660  147.8670 C   0  0  0  0  0  1  0  0  0  0  0  0
  190.0310  178.5770  144.6440 O   0  0  0  0  0  0  0  0  0  0  0  0
  190.1120  177.5600  145.6160 C   0  0  2  0  0  0  0  0  0  0  0  0
  190.1580  177.2550  144.1610 C   0  0  1  0  0  3  0  0  0  0  0  0
  188.8710  176.8000  143.6470 N   0  0  0  0  0  2  0  0  0  0  0  0
  190.3910  176.3700  141.7890 C   0  0  0  0  0  2  0  0  0  0  0  0
  188.8280  178.1530  140.1640 N   0  0  0  0  0  2  0  0  0  0  0  0
  191.0110  177.3970  140.9540 N   0  0  0  0  0  2  0  0  0  0  0  0
  188.9650  176.7600  142.1980 C   0  0  0  0  0  3  0  0  0  0  0  0
  190.1500  177.6190  139.7910 C   0  0  0  0  0  2  0  0  0  0  0  0
  188.5780  178.1180  141.6070 C   0  0  0  0  0  2  0  0  0  0  0  0
  191.3670  177.4350  146.2470 O   0  0  0  0  0  0  0  0  0  0  0  0
  191.6820  176.0700  146.3180 C   0  0  0  0  0  2  0  0  0  0  0  0
  192.0820  175.7170  147.7350 C   0  0  0  0  0  1  0  0  0  0  0  0
  1 24  1  1  0  0  0
  2  6  1  6  0  0  0
  2  3  1  0  0  0  0
  2  1  1  0  0  0  0
  3  1  1  0  0  0  0
  4  6  2  0  0  0  0
  5  4  2  0  0  0  0
  7  5  1  0  0  0  0
  8  7  2  0  0  0  0
  9  8  1  0  0  0  0
 10  6  1  0  0  0  0
 12 17  1  1  0  0  0
 12 13  1  0  0  0  0
 13 11  1  0  0  0  0
 14 10  1  0  0  0  0
 14 11  1  0  0  0  0
 15 14  2  0  0  0  0
 16 15  1  0  0  0  0
 16 12  1  0  0  0  0
 18 22  1  0  0  0  0
 19 22  1  0  0  0  0
 19 17  1  0  0  0  0
 20 21  1  0  0  0  0
 20 18  1  0  0  0  0
 21 19  2  0  0  0  0
 22 23  2  0  0  0  0
 24 25  1  0  0  0  0
 25 27  1  0  0  0  0
 27 26  1  6  0  0  0
 27 28  1  0  0  0  0
 28 29  1  0  0  0  0
 29 30  1  0  0  0  0
 31 32  1  0  0  0  0
 31 30  1  0  0  0  0
 32 33  1  1  0  0  0
 34 35  1  0  0  0  0
 35 44  1  1  0  0  0
 35 32  1  0  0  0  0
 36 37  1  6  0  0  0
 36 34  1  0  0  0  0
 36 35  1  0  0  0  0
 38 41  1  0  0  0  0
 39 43  1  0  0  0  0
 40 38  1  0  0  0  0
 41 37  1  0  0  0  0
 42 39  1  0  0  0  0
 42 40  1  0  0  0  0
 43 41  1  0  0  0  0
 44 45  1  0  0  0  0
 45 46  1  0  0  0  0
M  END
>  <MODEL>
7

>  <REMARK>
 VINA RESULT:      -7.3      2.177      2.899
  Name = 
  19 active torsions:
  status: ('A' for Active; 'I' for Inactive)
    1  A    between atoms: C_1  and  C_17
    2  A    between atoms: C_1  and  C_21
    3  A    between atoms: C_2  and  C_46
    4  A    between atoms: C_8  and  O_32
    5  A    between atoms: C_9  and  C_21
    6  A    between atoms: C_9  and  O_32
    7  A    between atoms: C_11  and  C_15
    8  A    between atoms: C_11  and  C_38
    9  A    between atoms: C_12  and  N_44
   10  A    between atoms: C_13  and  C_38
   11  A    between atoms: C_16  and  N_18
   12  A    between atoms: C_17  and  C_30
   13  A    between atoms: C_19  and  N_44
   14  A    between atoms: C_27  and  N_36
   15  A    between atoms: C_29  and  C_33
   16  A    between atoms: C_29  and  C_45
   17  A    between atoms: C_30  and  C_33
   18  A    between atoms: C_35  and  N_36
   19  A    between atoms: C_45  and  C_46
                            x       y       z     vdW  Elec       q    Type
                         _______ _______ _______ _____ _____    ______ ____

>  <TORSDO>
F 19

$$$$
=
 OpenBabel11062413253D

 46 50  0  0  1  0  0  0  0  0999 V2000
  183.2920  178.0880  141.3860 C   0  0  2  0  0  3  0  0  0  0  0  0
  183.2080  177.6560  139.9750 C   0  0  2  0  0  3  0  0  0  0  0  0
  182.9730  178.9940  140.3600 O   0  0  0  0  0  0  0  0  0  0  0  0
  180.8970  177.1490  140.5390 C   0  0  0  0  0  0  0  0  0  0  0  0
  179.8730  177.3560  141.3290 C   0  0  0  0  0  3  0  0  0  0  0  0
  181.9170  176.9300  139.7530 C   0  0  0  0  0  0  0  0  0  0  0  0
  179.5600  178.6460  141.8720 N   0  0  0  0  0  0  0  0  0  0  0  0
  179.4110  178.8720  143.1380 C   0  0  0  0  0  3  0  0  0  0  0  0
  179.1100  180.1530  143.5820 O   0  0  0  0  0  1  0  0  0  0  0  0
  181.6650  176.2660  138.4360 C   0  0  0  0  0  2  0  0  0  0  0  0
  183.8760  175.1070  137.6840 C   0  0  0  0  0  2  0  0  0  0  0  0
  185.0460  175.7660  135.8150 C   0  0  1  0  0  3  0  0  0  0  0  0
  184.2750  174.7220  136.3880 O   0  0  0  0  0  0  0  0  0  0  0  0
  182.8970  176.2370  137.5880 C   0  0  0  0  0  0  0  0  0  0  0  0
  183.1100  177.1850  136.6730 C   0  0  0  0  0  3  0  0  0  0  0  0
  184.3130  177.1260  135.7630 C   0  0  0  0  0  2  0  0  0  0  0  0
  186.3430  175.9050  136.4770 N   0  0  0  0  0  2  0  0  0  0  0  0
  189.3330  173.2620  135.6500 S   0  0  0  0  0  0  0  0  0  0  0  0
  187.5340  175.2400  136.0380 C   0  0  0  0  0  0  0  0  0  0  0  0
  189.5960  174.9160  134.8940 C   0  0  0  0  0  2  0  0  0  0  0  0
  188.4350  175.7930  135.2420 C   0  0  0  0  0  3  0  0  0  0  0  0
  187.8530  173.8840  136.4120 C   0  0  0  0  0  0  0  0  0  0  0  0
  187.1730  173.2110  137.2330 O   0  0  0  0  0  0  0  0  0  0  0  0
  184.7470  178.2520  141.7850 C   0  0  0  0  0  2  0  0  0  0  0  0
  184.8900  179.2250  142.9450 C   0  0  0  0  0  2  0  0  0  0  0  0
  182.9010  179.0890  144.4080 C   0  0  0  0  0  1  0  0  0  0  0  0
  184.3340  178.6270  144.2270 C   0  0  2  0  0  3  0  0  0  0  0  0
  185.1730  179.0780  145.4010 C   0  0  0  0  0  2  0  0  0  0  0  0
  185.8410  177.8870  146.0610 C   0  0  0  0  0  2  0  0  0  0  0  0
  187.2700  178.2500  146.4010 C   0  0  0  0  0  2  0  0  0  0  0  0
  188.2100  177.1710  145.8840 C   0  0  0  0  0  2  0  0  0  0  0  0
  188.4490  177.2640  144.3750 C   0  0  2  0  0  3  0  0  0  0  0  0
  187.7290  176.1750  143.5970 C   0  0  0  0  0  1  0  0  0  0  0  0
  190.4350  178.6610  143.8150 O   0  0  0  0  0  0  0  0  0  0  0  0
  189.9350  177.3550  143.9910 C   0  0  2  0  0  0  0  0  0  0  0  0
  190.3070  177.8750  142.6470 C   0  0  1  0  0  3  0  0  0  0  0  0
  189.1490  178.3240  141.8840 N   0  0  0  0  0  2  0  0  0  0  0  0
  190.4230  176.7580  140.5150 C   0  0  0  0  0  2  0  0  0  0  0  0
  189.2130  177.9000  138.1710 N   0  0  0  0  0  2  0  0  0  0  0  0
  191.2100  177.1160  139.3370 N   0  0  0  0  0  2  0  0  0  0  0  0
  189.1480  177.6040  140.6220 C   0  0  0  0  0  3  0  0  0  0  0  0
  190.3560  176.9690  138.1570 C   0  0  0  0  0  2  0  0  0  0  0  0
  189.0450  178.5880  139.4540 C   0  0  0  0  0  2  0  0  0  0  0  0
  190.8620  176.4230  144.5000 O   0  0  0  0  0  0  0  0  0  0  0  0
  191.6640  177.0820  145.4430 C   0  0  0  0  0  2  0  0  0  0  0  0
  191.6930  176.2810  146.7280 C   0  0  0  0  0  1  0  0  0  0  0  0
  1 24  1  6  0  0  0
  2  6  1  1  0  0  0
  2  3  1  0  0  0  0
  2  1  1  0  0  0  0
  3  1  1  0  0  0  0
  4  5  2  0  0  0  0
  5  7  1  0  0  0  0
  6  4  2  0  0  0  0
  7  8  2  0  0  0  0
  8  9  1  0  0  0  0
 10  6  1  0  0  0  0
 12 13  1  0  0  0  0
 12 17  1  1  0  0  0
 13 11  1  0  0  0  0
 14 11  1  0  0  0  0
 14 10  1  0  0  0  0
 15 14  2  0  0  0  0
 16 12  1  0  0  0  0
 16 15  1  0  0  0  0
 18 22  1  0  0  0  0
 19 22  1  0  0  0  0
 19 17  1  0  0  0  0
 20 21  1  0  0  0  0
 20 18  1  0  0  0  0
 21 19  2  0  0  0  0
 22 23  2  0  0  0  0
 24 25  1  0  0  0  0
 25 27  1  0  0  0  0
 27 26  1  1  0  0  0
 27 28  1  0  0  0  0
 28 29  1  0  0  0  0
 29 30  1  0  0  0  0
 31 30  1  0  0  0  0
 32 33  1  6  0  0  0
 32 31  1  0  0  0  0
 34 35  1  0  0  0  0
 35 32  1  0  0  0  0
 35 44  1  1  0  0  0
 36 37  1  6  0  0  0
 36 34  1  0  0  0  0
 36 35  1  0  0  0  0
 38 41  1  0  0  0  0
 39 43  1  0  0  0  0
 40 38  1  0  0  0  0
 41 37  1  0  0  0  0
 42 39  1  0  0  0  0
 42 40  1  0  0  0  0
 43 41  1  0  0  0  0
 44 45  1  0  0  0  0
 45 46  1  0  0  0  0
M  END
>  <MODEL>
8

>  <REMARK>
 VINA RESULT:      -7.2      2.290      2.791
  Name = 
  19 active torsions:
  status: ('A' for Active; 'I' for Inactive)
    1  A    between atoms: C_1  and  C_17
    2  A    between atoms: C_1  and  C_21
    3  A    between atoms: C_2  and  C_46
    4  A    between atoms: C_8  and  O_32
    5  A    between atoms: C_9  and  C_21
    6  A    between atoms: C_9  and  O_32
    7  A    between atoms: C_11  and  C_15
    8  A    between atoms: C_11  and  C_38
    9  A    between atoms: C_12  and  N_44
   10  A    between atoms: C_13  and  C_38
   11  A    between atoms: C_16  and  N_18
   12  A    between atoms: C_17  and  C_30
   13  A    between atoms: C_19  and  N_44
   14  A    between atoms: C_27  and  N_36
   15  A    between atoms: C_29  and  C_33
   16  A    between atoms: C_29  and  C_45
   17  A    between atoms: C_30  and  C_33
   18  A    between atoms: C_35  and  N_36
   19  A    between atoms: C_45  and  C_46
                            x       y       z     vdW  Elec       q    Type
                         _______ _______ _______ _____ _____    ______ ____

>  <TORSDO>
F 19

$$$$
=
 OpenBabel11062413253D

 46 50  0  0  1  0  0  0  0  0999 V2000
  184.9170  178.4170  139.9900 C   0  0  2  0  0  3  0  0  0  0  0  0
  184.2890  178.8010  138.7090 C   0  0  2  0  0  3  0  0  0  0  0  0
  184.1820  179.6070  139.8630 O   0  0  0  0  0  0  0  0  0  0  0  0
  182.0720  178.0550  139.3760 C   0  0  0  0  0  0  0  0  0  0  0  0
  181.0980  178.1030  140.2500 C   0  0  0  0  0  3  0  0  0  0  0  0
  183.0430  177.9960  138.5040 C   0  0  0  0  0  0  0  0  0  0  0  0
  180.7300  179.3060  140.9380 N   0  0  0  0  0  0  0  0  0  0  0  0
  180.5900  179.3820  142.2220 C   0  0  0  0  0  3  0  0  0  0  0  0
  180.2330  180.5880  142.8100 O   0  0  0  0  0  1  0  0  0  0  0  0
  182.7430  177.4390  137.1480 C   0  0  0  0  0  2  0  0  0  0  0  0
  183.7710  175.0830  137.5880 C   0  0  0  0  0  2  0  0  0  0  0  0
  185.0870  173.9980  136.0440 C   0  0  1  0  0  3  0  0  0  0  0  0
  183.8400  173.9740  136.7210 O   0  0  0  0  0  0  0  0  0  0  0  0
  183.6920  176.3420  136.7800 C   0  0  0  0  0  0  0  0  0  0  0  0
  184.4370  176.4350  135.6770 C   0  0  0  0  0  3  0  0  0  0  0  0
  185.3440  175.3040  135.2570 C   0  0  0  0  0  2  0  0  0  0  0  0
  186.2000  173.7140  136.9500 N   0  0  0  0  0  2  0  0  0  0  0  0
  190.0830  174.6460  136.1370 S   0  0  0  0  0  0  0  0  0  0  0  0
  187.4920  174.3210  136.8330 C   0  0  0  0  0  0  0  0  0  0  0  0
  189.1760  175.9960  136.9930 C   0  0  0  0  0  2  0  0  0  0  0  0
  187.7640  175.5570  137.2190 C   0  0  0  0  0  3  0  0  0  0  0  0
  188.6250  173.6360  136.2590 C   0  0  0  0  0  0  0  0  0  0  0  0
  188.6030  172.4250  135.9110 O   0  0  0  0  0  0  0  0  0  0  0  0
  186.4030  178.7210  139.9420 C   0  0  0  0  0  2  0  0  0  0  0  0
  187.0080  178.7140  141.3370 C   0  0  0  0  0  2  0  0  0  0  0  0
  188.9280  178.2490  139.8490 C   0  0  0  0  0  1  0  0  0  0  0  0
  188.4710  178.3020  141.2940 C   0  0  2  0  0  3  0  0  0  0  0  0
  188.6330  176.9420  141.9350 C   0  0  0  0  0  2  0  0  0  0  0  0
  190.0220  176.3950  141.6690 C   0  0  0  0  0  2  0  0  0  0  0  0
  190.4920  175.6300  142.8860 C   0  0  0  0  0  2  0  0  0  0  0  0
  191.4790  176.4770  143.6750 C   0  0  0  0  0  2  0  0  0  0  0  0
  190.8060  177.6220  144.4360 C   0  0  2  0  0  3  0  0  0  0  0  0
  191.5800  178.9270  144.3410 C   0  0  0  0  0  1  0  0  0  0  0  0
  189.4170  176.3290  146.0500 O   0  0  0  0  0  0  0  0  0  0  0  0
  190.4520  177.2720  145.8900 C   0  0  2  0  0  0  0  0  0  0  0  0
  189.1190  177.6580  146.4260 C   0  0  1  0  0  3  0  0  0  0  0  0
  188.2670  178.2700  145.4130 N   0  0  0  0  0  2  0  0  0  0  0  0
  186.0570  177.9470  144.4340 C   0  0  0  0  0  2  0  0  0  0  0  0
  184.8890  178.6280  146.9710 N   0  0  0  0  0  2  0  0  0  0  0  0
  184.9420  178.8860  144.5430 N   0  0  0  0  0  2  0  0  0  0  0  0
  186.8930  177.9110  145.7190 C   0  0  0  0  0  3  0  0  0  0  0  0
  184.1390  178.5060  145.7070 C   0  0  0  0  0  2  0  0  0  0  0  0
  186.3210  178.8640  146.7710 C   0  0  0  0  0  2  0  0  0  0  0  0
  191.4560  177.2320  146.8790 O   0  0  0  0  0  0  0  0  0  0  0  0
  192.1110  175.9960  146.7800 C   0  0  0  0  0  2  0  0  0  0  0  0
  192.4340  175.4840  148.1690 C   0  0  0  0  0  1  0  0  0  0  0  0
  1 24  1  6  0  0  0
  2  6  1  1  0  0  0
  2  3  1  0  0  0  0
  2  1  1  0  0  0  0
  3  1  1  0  0  0  0
  4  5  2  0  0  0  0
  5  7  1  0  0  0  0
  6  4  2  0  0  0  0
  7  8  2  0  0  0  0
  8  9  1  0  0  0  0
 10  6  1  0  0  0  0
 12 13  1  0  0  0  0
 12 17  1  1  0  0  0
 13 11  1  0  0  0  0
 14 10  1  0  0  0  0
 14 11  1  0  0  0  0
 15 14  2  0  0  0  0
 16 15  1  0  0  0  0
 16 12  1  0  0  0  0
 18 22  1  0  0  0  0
 18 20  1  0  0  0  0
 19 17  1  0  0  0  0
 19 21  2  0  0  0  0
 20 21  1  0  0  0  0
 22 19  1  0  0  0  0
 23 22  2  0  0  0  0
 24 25  1  0  0  0  0
 27 26  1  6  0  0  0
 27 25  1  0  0  0  0
 27 28  1  0  0  0  0
 29 28  1  0  0  0  0
 29 30  1  0  0  0  0
 30 31  1  0  0  0  0
 31 32  1  0  0  0  0
 32 33  1  1  0  0  0
 32 35  1  0  0  0  0
 34 36  1  0  0  0  0
 35 34  1  0  0  0  0
 35 36  1  0  0  0  0
 35 44  1  1  0  0  0
 36 37  1  6  0  0  0
 37 41  1  0  0  0  0
 38 40  1  0  0  0  0
 38 41  1  0  0  0  0
 40 42  1  0  0  0  0
 41 43  1  0  0  0  0
 42 39  1  0  0  0  0
 43 39  1  0  0  0  0
 45 44  1  0  0  0  0
 45 46  1  0  0  0  0
M  END
>  <MODEL>
9

>  <REMARK>
 VINA RESULT:      -7.2      2.263      4.027
  Name = 
  19 active torsions:
  status: ('A' for Active; 'I' for Inactive)
    1  A    between atoms: C_1  and  C_17
    2  A    between atoms: C_1  and  C_21
    3  A    between atoms: C_2  and  C_46
    4  A    between atoms: C_8  and  O_32
    5  A    between atoms: C_9  and  C_21
    6  A    between atoms: C_9  and  O_32
    7  A    between atoms: C_11  and  C_15
    8  A    between atoms: C_11  and  C_38
    9  A    between atoms: C_12  and  N_44
   10  A    between atoms: C_13  and  C_38
   11  A    between atoms: C_16  and  N_18
   12  A    between atoms: C_17  and  C_30
   13  A    between atoms: C_19  and  N_44
   14  A    between atoms: C_27  and  N_36
   15  A    between atoms: C_29  and  C_33
   16  A    between atoms: C_29  and  C_45
   17  A    between atoms: C_30  and  C_33
   18  A    between atoms: C_35  and  N_36
   19  A    between atoms: C_45  and  C_46
                            x       y       z     vdW  Elec       q    Type
                         _______ _______ _______ _____ _____    ______ ____

>  <TORSDO>
F 19

$$$$
