=
 OpenBabel11062416443D

 28 32  0  0  1  0  0  0  0  0999 V2000
  191.5450  177.2990  143.2990 C   0  0  0  0  0  2  0  0  0  0  0  0
  186.2440  178.1990  145.0840 C   0  0  0  0  0  0  0  0  0  0  0  0
  190.3710  176.7460  139.8680 C   0  0  0  0  0  0  0  0  0  0  0  0
  188.1720  177.8240  140.4920 O   0  0  0  0  0  0  0  0  0  0  0  0
  186.0090  178.5020  141.3400 C   0  0  0  0  0  0  0  0  0  0  0  0
  191.1570  177.8930  144.6420 C   0  0  0  0  0  2  0  0  0  0  0  0
  189.1120  177.4610  139.5170 C   0  0  0  0  0  0  0  0  0  0  0  0
  190.7610  176.7870  145.6050 C   0  0  1  0  0  3  0  0  0  0  0  0
  184.3120  178.6980  143.5360 C   0  0  0  0  0  3  0  0  0  0  0  0
  188.8550  177.6760  138.2180 C   0  0  0  0  0  3  0  0  0  0  0  0
  187.5150  177.9230  147.5770 C   0  0  0  0  0  0  0  0  0  0  0  0
  186.1760  178.3360  147.5100 C   0  0  0  0  0  3  0  0  0  0  0  0
  186.9230  178.4400  140.1590 C   0  0  0  0  0  2  0  0  0  0  0  0
  188.1430  177.8060  148.8110 O   0  0  0  0  0  1  0  0  0  0  0  0
  183.8400  178.8870  142.2720 N   0  0  0  0  0  0  0  0  0  0  0  0
  190.9580  177.1420  146.9250 C   0  0  0  0  0  2  0  0  0  0  0  0
  190.8890  176.7110  141.0620 N   0  0  0  0  0  0  0  0  0  0  0  0
  187.5690  177.7690  145.1730 C   0  0  0  0  0  3  0  0  0  0  0  0
  184.6530  178.7990  141.1810 C   0  0  0  0  0  3  0  0  0  0  0  0
  188.2070  177.6300  146.3940 C   0  0  0  0  0  0  0  0  0  0  0  0
  185.5400  178.4760  146.2660 C   0  0  0  0  0  3  0  0  0  0  0  0
  190.4180  177.3670  142.2730 C   0  0  0  0  0  2  0  0  0  0  0  0
  190.7910  176.2490  137.5670 C   0  0  0  0  0  3  0  0  0  0  0  0
  186.5020  178.3170  142.6240 C   0  0  0  0  0  3  0  0  0  0  0  0
  189.5770  177.2630  146.3770 N   0  0  0  0  0  0  0  0  0  0  0  0
  185.6650  178.4020  143.7420 C   0  0  0  0  0  0  0  0  0  0  0  0
  189.8360  177.3260  137.1350 C   0  0  0  0  0  2  0  0  0  0  0  0
  191.0510  176.0400  138.8230 N   0  0  0  0  0  0  0  0  0  0  0  0
  1  6  1  0  0  0  0
  2 18  2  0  0  0  0
  2 21  1  0  0  0  0
  3 17  2  0  0  0  0
  5 24  1  0  0  0  0
  7  3  1  0  0  0  0
  7  4  1  0  0  0  0
  8  6  1  6  0  0  0
  8 25  1  0  0  0  0
  8 16  1  0  0  0  0
  9 26  1  0  0  0  0
 10  7  2  0  0  0  0
 11 14  1  0  0  0  0
 12 11  1  0  0  0  0
 13  4  1  0  0  0  0
 13  5  1  0  0  0  0
 15  9  2  0  0  0  0
 17 22  1  0  0  0  0
 18 20  1  0  0  0  0
 19  5  2  0  0  0  0
 19 15  1  0  0  0  0
 20 11  2  0  0  0  0
 21 12  2  0  0  0  0
 22  1  1  0  0  0  0
 23 28  2  0  0  0  0
 24 26  2  0  0  0  0
 25 20  1  0  0  0  0
 25 16  1  0  0  0  0
 26  2  1  0  0  0  0
 27 23  1  0  0  0  0
 27 10  1  0  0  0  0
 28  3  1  0  0  0  0
M  END
>  <MODEL>
1

>  <REMARK>
 VINA RESULT:     -11.6      0.000      0.000
  Name = 
  0 active torsions:
  status: ('A' for Active; 'I' for Inactive)
                            x       y       z     vdW  Elec       q    Type
                         _______ _______ _______ _____ _____    ______ ____

>  <TORSDO>
F 0

$$$$
=
 OpenBabel11062416443D

 28 32  0  0  1  0  0  0  0  0999 V2000
  190.9470  177.3330  141.3370 C   0  0  0  0  0  2  0  0  0  0  0  0
  186.5830  177.8970  144.9060 C   0  0  0  0  0  0  0  0  0  0  0  0
  188.6710  177.1990  138.4650 C   0  0  0  0  0  0  0  0  0  0  0  0
  186.8390  178.1460  139.9240 O   0  0  0  0  0  0  0  0  0  0  0  0
  185.1070  178.6700  141.5310 C   0  0  0  0  0  0  0  0  0  0  0  0
  191.0500  177.7440  142.7970 C   0  0  0  0  0  2  0  0  0  0  0  0
  187.3860  177.9280  138.6530 C   0  0  0  0  0  0  0  0  0  0  0  0
  190.9740  176.5170  143.6890 C   0  0  1  0  0  3  0  0  0  0  0  0
  184.2550  178.5520  144.1780 C   0  0  0  0  0  3  0  0  0  0  0  0
  186.7110  178.3020  137.5550 C   0  0  0  0  0  3  0  0  0  0  0  0
  188.6130  177.3300  146.7670 C   0  0  0  0  0  0  0  0  0  0  0  0
  187.3400  177.7220  147.2090 C   0  0  0  0  0  3  0  0  0  0  0  0
  185.5670  178.7760  140.1140 C   0  0  0  0  0  2  0  0  0  0  0  0
  189.6180  177.0690  147.6920 O   0  0  0  0  0  1  0  0  0  0  0  0
  183.3890  178.8910  143.1820 N   0  0  0  0  0  0  0  0  0  0  0  0
  191.6140  176.7050  144.8980 C   0  0  0  0  0  2  0  0  0  0  0  0
  189.5610  177.0220  139.3990 N   0  0  0  0  0  0  0  0  0  0  0  0
  187.8490  177.4840  144.4870 C   0  0  0  0  0  3  0  0  0  0  0  0
  183.7840  178.9580  141.8790 C   0  0  0  0  0  3  0  0  0  0  0  0
  188.8570  177.2040  145.3940 C   0  0  0  0  0  0  0  0  0  0  0  0
  186.3260  178.0080  146.2810 C   0  0  0  0  0  3  0  0  0  0  0  0
  189.5420  177.5100  140.7700 C   0  0  0  0  0  2  0  0  0  0  0  0
  188.2780  177.0070  136.1130 C   0  0  0  0  0  3  0  0  0  0  0  0
  185.9990  178.3310  142.5400 C   0  0  0  0  0  3  0  0  0  0  0  0
  190.1320  176.8680  144.8690 N   0  0  0  0  0  0  0  0  0  0  0  0
  185.5910  178.2580  143.8750 C   0  0  0  0  0  0  0  0  0  0  0  0
  187.2610  178.1120  136.1690 C   0  0  0  0  0  2  0  0  0  0  0  0
  188.9410  176.6450  137.1700 N   0  0  0  0  0  0  0  0  0  0  0  0
  1  6  1  0  0  0  0
  2 21  1  0  0  0  0
  3  7  1  0  0  0  0
  3 17  2  0  0  0  0
  4 13  1  0  0  0  0
  5 19  2  0  0  0  0
  5 24  1  0  0  0  0
  7  4  1  0  0  0  0
  8  6  1  6  0  0  0
  8 25  1  0  0  0  0
  8 16  1  0  0  0  0
 10  7  2  0  0  0  0
 11 12  1  0  0  0  0
 11 14  1  0  0  0  0
 13  5  1  0  0  0  0
 15  9  2  0  0  0  0
 17 22  1  0  0  0  0
 18  2  2  0  0  0  0
 18 20  1  0  0  0  0
 19 15  1  0  0  0  0
 20 11  2  0  0  0  0
 21 12  2  0  0  0  0
 22  1  1  0  0  0  0
 23 27  1  0  0  0  0
 23 28  2  0  0  0  0
 24 26  2  0  0  0  0
 25 16  1  0  0  0  0
 25 20  1  0  0  0  0
 26  9  1  0  0  0  0
 26  2  1  0  0  0  0
 27 10  1  0  0  0  0
 28  3  1  0  0  0  0
M  END
>  <MODEL>
2

>  <REMARK>
 VINA RESULT:     -11.3      1.384      1.744
  Name = 
  0 active torsions:
  status: ('A' for Active; 'I' for Inactive)
                            x       y       z     vdW  Elec       q    Type
                         _______ _______ _______ _____ _____    ______ ____

>  <TORSDO>
F 0

$$$$
=
 OpenBabel11062416443D

 28 32  0  0  1  0  0  0  0  0999 V2000
  185.1010  178.5080  141.0990 C   0  0  0  0  0  2  0  0  0  0  0  0
  188.3750  177.6520  145.6430 C   0  0  0  0  0  0  0  0  0  0  0  0
  188.0210  178.3790  138.8830 C   0  0  0  0  0  0  0  0  0  0  0  0
  189.3410  177.3110  140.7550 O   0  0  0  0  0  0  0  0  0  0  0  0
  190.5670  176.6770  142.7430 C   0  0  0  0  0  0  0  0  0  0  0  0
  184.6030  178.1420  142.4870 C   0  0  0  0  0  2  0  0  0  0  0  0
  189.1490  177.5460  139.3870 C   0  0  0  0  0  0  0  0  0  0  0  0
  184.5650  179.3790  143.3680 C   0  0  1  0  0  3  0  0  0  0  0  0
  190.7420  176.7820  145.5180 C   0  0  0  0  0  3  0  0  0  0  0  0
  190.0390  177.0900  138.4920 C   0  0  0  0  0  3  0  0  0  0  0  0
  186.0060  178.4350  146.9390 C   0  0  0  0  0  0  0  0  0  0  0  0
  187.0890  177.9450  147.6840 C   0  0  0  0  0  3  0  0  0  0  0  0
  190.4650  176.5780  141.2560 C   0  0  0  0  0  2  0  0  0  0  0  0
  184.8310  178.8030  147.5840 O   0  0  0  0  0  1  0  0  0  0  0  0
  191.7940  176.3460  144.7700 N   0  0  0  0  0  0  0  0  0  0  0  0
  183.6310  179.2740  144.3800 C   0  0  0  0  0  2  0  0  0  0  0  0
  186.9480  178.6530  139.5660 N   0  0  0  0  0  0  0  0  0  0  0  0
  187.2940  178.1630  144.9210 C   0  0  0  0  0  3  0  0  0  0  0  0
  191.7300  176.2830  143.4090 C   0  0  0  0  0  3  0  0  0  0  0  0
  186.1220  178.5510  145.5480 C   0  0  0  0  0  0  0  0  0  0  0  0
  188.2710  177.5510  147.0390 C   0  0  0  0  0  3  0  0  0  0  0  0
  186.5810  178.1980  140.8990 C   0  0  0  0  0  2  0  0  0  0  0  0
  189.0010  178.4820  136.7040 C   0  0  0  0  0  3  0  0  0  0  0  0
  189.4860  177.1140  143.4970 C   0  0  0  0  0  3  0  0  0  0  0  0
  185.0530  178.9830  144.7210 N   0  0  0  0  0  0  0  0  0  0  0  0
  189.5550  177.1830  144.8920 C   0  0  0  0  0  0  0  0  0  0  0  0
  189.8700  177.2940  137.0120 C   0  0  0  0  0  2  0  0  0  0  0  0
  188.1320  178.9240  137.5620 N   0  0  0  0  0  0  0  0  0  0  0  0
  1  6  1  0  0  0  0
  2 21  1  0  0  0  0
  3  7  1  0  0  0  0
  3 17  2  0  0  0  0
  4 13  1  0  0  0  0
  5 19  2  0  0  0  0
  5 24  1  0  0  0  0
  7  4  1  0  0  0  0
  8  6  1  6  0  0  0
  8 16  1  0  0  0  0
  8 25  1  0  0  0  0
 10  7  2  0  0  0  0
 11 14  1  0  0  0  0
 11 12  1  0  0  0  0
 13  5  1  0  0  0  0
 15  9  2  0  0  0  0
 16 25  1  0  0  0  0
 17 22  1  0  0  0  0
 18 20  1  0  0  0  0
 18  2  2  0  0  0  0
 19 15  1  0  0  0  0
 20 11  2  0  0  0  0
 21 12  2  0  0  0  0
 22  1  1  0  0  0  0
 23 27  1  0  0  0  0
 23 28  2  0  0  0  0
 24 26  2  0  0  0  0
 25 20  1  0  0  0  0
 26  9  1  0  0  0  0
 26  2  1  0  0  0  0
 27 10  1  0  0  0  0
 28  3  1  0  0  0  0
M  END
>  <MODEL>
3

>  <REMARK>
 VINA RESULT:     -11.2      1.761      4.674
  Name = 
  0 active torsions:
  status: ('A' for Active; 'I' for Inactive)
                            x       y       z     vdW  Elec       q    Type
                         _______ _______ _______ _____ _____    ______ ____

>  <TORSDO>
F 0

$$$$
=
 OpenBabel11062416443D

 28 32  0  0  1  0  0  0  0  0999 V2000
  190.5450  177.7560  142.4640 C   0  0  0  0  0  2  0  0  0  0  0  0
  185.3210  178.3380  144.5770 C   0  0  0  0  0  0  0  0  0  0  0  0
  189.1990  177.2240  139.0940 C   0  0  0  0  0  0  0  0  0  0  0  0
  186.9890  178.1710  139.8720 O   0  0  0  0  0  0  0  0  0  0  0  0
  184.8490  178.7160  140.8620 C   0  0  0  0  0  0  0  0  0  0  0  0
  190.2080  178.2970  143.8430 C   0  0  0  0  0  2  0  0  0  0  0  0
  187.8870  177.8800  138.8360 C   0  0  0  0  0  0  0  0  0  0  0  0
  189.9260  177.1500  144.7980 C   0  0  1  0  0  3  0  0  0  0  0  0
  183.2770  178.7730  143.1570 C   0  0  0  0  0  3  0  0  0  0  0  0
  187.5430  178.1120  137.5600 C   0  0  0  0  0  3  0  0  0  0  0  0
  186.7490  178.0700  146.9830 C   0  0  0  0  0  0  0  0  0  0  0  0
  185.3890  178.4140  147.0050 C   0  0  0  0  0  3  0  0  0  0  0  0
  185.6930  178.7290  139.6290 C   0  0  0  0  0  2  0  0  0  0  0  0
  187.4540  177.9570  148.1760 O   0  0  0  0  0  1  0  0  0  0  0  0
  182.7220  178.9670  141.9280 N   0  0  0  0  0  0  0  0  0  0  0  0
  190.1820  177.4840  146.1130 C   0  0  0  0  0  2  0  0  0  0  0  0
  189.7880  177.1870  140.2550 N   0  0  0  0  0  0  0  0  0  0  0  0
  186.6680  177.9750  144.5770 C   0  0  0  0  0  3  0  0  0  0  0  0
  183.4730  178.9460  140.7900 C   0  0  0  0  0  3  0  0  0  0  0  0
  187.3830  177.8410  145.7560 C   0  0  0  0  0  0  0  0  0  0  0  0
  184.6750  178.5510  145.8040 C   0  0  0  0  0  3  0  0  0  0  0  0
  189.3570  177.7900  141.5080 C   0  0  0  0  0  2  0  0  0  0  0  0
  189.5070  176.8030  136.7600 C   0  0  0  0  0  3  0  0  0  0  0  0
  185.4260  178.5270  142.1100 C   0  0  0  0  0  3  0  0  0  0  0  0
  188.7670  177.5460  145.6490 N   0  0  0  0  0  0  0  0  0  0  0  0
  184.6530  178.5430  143.2760 C   0  0  0  0  0  0  0  0  0  0  0  0
  188.4750  177.8390  136.4130 C   0  0  0  0  0  2  0  0  0  0  0  0
  189.8500  176.5780  137.9930 N   0  0  0  0  0  0  0  0  0  0  0  0
  1  6  1  0  0  0  0
  2 21  1  0  0  0  0
  3 17  2  0  0  0  0
  5 24  1  0  0  0  0
  7  3  1  0  0  0  0
  7  4  1  0  0  0  0
  8  6  1  6  0  0  0
  8 25  1  0  0  0  0
  8 16  1  0  0  0  0
  9 26  1  0  0  0  0
 10  7  2  0  0  0  0
 11 12  1  0  0  0  0
 11 14  1  0  0  0  0
 13  4  1  0  0  0  0
 13  5  1  0  0  0  0
 15  9  2  0  0  0  0
 17 22  1  0  0  0  0
 18  2  2  0  0  0  0
 18 20  1  0  0  0  0
 19  5  2  0  0  0  0
 19 15  1  0  0  0  0
 20 11  2  0  0  0  0
 21 12  2  0  0  0  0
 22  1  1  0  0  0  0
 23 28  2  0  0  0  0
 24 26  2  0  0  0  0
 25 20  1  0  0  0  0
 25 16  1  0  0  0  0
 26  2  1  0  0  0  0
 27 23  1  0  0  0  0
 27 10  1  0  0  0  0
 28  3  1  0  0  0  0
M  END
>  <MODEL>
4

>  <REMARK>
 VINA RESULT:     -11.1      1.090      1.275
  Name = 
  0 active torsions:
  status: ('A' for Active; 'I' for Inactive)
                            x       y       z     vdW  Elec       q    Type
                         _______ _______ _______ _____ _____    ______ ____

>  <TORSDO>
F 0

$$$$
=
 OpenBabel11062416443D

 28 32  0  0  1  0  0  0  0  0999 V2000
  190.1440  177.5320  143.1260 C   0  0  0  0  0  2  0  0  0  0  0  0
  184.5870  178.6370  143.1910 C   0  0  0  0  0  0  0  0  0  0  0  0
  190.0010  176.6660  139.5650 C   0  0  0  0  0  0  0  0  0  0  0  0
  187.7550  177.8150  139.4180 O   0  0  0  0  0  0  0  0  0  0  0  0
  185.4640  178.5870  139.5310 C   0  0  0  0  0  0  0  0  0  0  0  0
  189.4020  178.2530  144.2390 C   0  0  0  0  0  2  0  0  0  0  0  0
  188.9240  177.3540  138.7990 C   0  0  0  0  0  0  0  0  0  0  0  0
  188.7040  177.2460  145.1370 C   0  0  1  0  0  3  0  0  0  0  0  0
  183.2090  179.0030  141.1070 C   0  0  0  0  0  3  0  0  0  0  0  0
  189.0640  177.4470  137.4680 C   0  0  0  0  0  3  0  0  0  0  0  0
  185.0670  178.5880  145.9620 C   0  0  0  0  0  0  0  0  0  0  0  0
  183.8200  179.0030  145.4680 C   0  0  0  0  0  3  0  0  0  0  0  0
  186.6790  178.4060  138.6810 C   0  0  0  0  0  2  0  0  0  0  0  0
  185.3030  178.5840  147.3310 O   0  0  0  0  0  1  0  0  0  0  0  0
  183.1320  179.0750  139.7490 N   0  0  0  0  0  0  0  0  0  0  0  0
  188.5210  177.7230  146.4190 C   0  0  0  0  0  2  0  0  0  0  0  0
  190.1470  176.7400  140.8560 N   0  0  0  0  0  0  0  0  0  0  0  0
  185.8130  178.2070  143.7020 C   0  0  0  0  0  3  0  0  0  0  0  0
  184.2240  178.8780  138.9570 C   0  0  0  0  0  3  0  0  0  0  0  0
  186.0610  178.1790  145.0640 C   0  0  0  0  0  0  0  0  0  0  0  0
  183.5800  179.0300  144.0860 C   0  0  0  0  0  3  0  0  0  0  0  0
  189.3670  177.5110  141.8130 C   0  0  0  0  0  2  0  0  0  0  0  0
  191.0550  175.9500  137.5410 C   0  0  0  0  0  3  0  0  0  0  0  0
  185.5540  178.5200  140.9150 C   0  0  0  0  0  3  0  0  0  0  0  0
  187.3640  177.8020  145.4820 N   0  0  0  0  0  0  0  0  0  0  0  0
  184.4320  178.7170  141.7260 C   0  0  0  0  0  0  0  0  0  0  0  0
  190.3060  176.9900  136.7550 C   0  0  0  0  0  2  0  0  0  0  0  0
  190.9310  175.8590  138.8310 N   0  0  0  0  0  0  0  0  0  0  0  0
  1  6  1  0  0  0  0
  2 18  2  0  0  0  0
  2 21  1  0  0  0  0
  3 17  2  0  0  0  0
  5 24  1  0  0  0  0
  7  4  1  0  0  0  0
  7  3  1  0  0  0  0
  8  6  1  6  0  0  0
  8 25  1  0  0  0  0
  8 16  1  0  0  0  0
  9 26  1  0  0  0  0
 10  7  2  0  0  0  0
 11 14  1  0  0  0  0
 12 11  1  0  0  0  0
 13  4  1  0  0  0  0
 13  5  1  0  0  0  0
 15  9  2  0  0  0  0
 17 22  1  0  0  0  0
 18 20  1  0  0  0  0
 19  5  2  0  0  0  0
 19 15  1  0  0  0  0
 20 25  1  0  0  0  0
 20 11  2  0  0  0  0
 21 12  2  0  0  0  0
 22  1  1  0  0  0  0
 23 28  2  0  0  0  0
 24 26  2  0  0  0  0
 25 16  1  0  0  0  0
 26  2  1  0  0  0  0
 27 10  1  0  0  0  0
 27 23  1  0  0  0  0
 28  3  1  0  0  0  0
M  END
>  <MODEL>
5

>  <REMARK>
 VINA RESULT:     -10.7      1.440      2.072
  Name = 
  0 active torsions:
  status: ('A' for Active; 'I' for Inactive)
                            x       y       z     vdW  Elec       q    Type
                         _______ _______ _______ _____ _____    ______ ____

>  <TORSDO>
F 0

$$$$
=
 OpenBabel11062416443D

 28 32  0  0  1  0  0  0  0  0999 V2000
  189.2030  178.0930  140.4160 C   0  0  0  0  0  2  0  0  0  0  0  0
  187.8160  177.6410  145.8910 C   0  0  0  0  0  0  0  0  0  0  0  0
  185.6660  178.2530  139.4610 C   0  0  0  0  0  0  0  0  0  0  0  0
  185.0830  178.7670  141.8650 O   0  0  0  0  0  0  0  0  0  0  0  0
  184.6540  178.8480  144.2460 C   0  0  0  0  0  0  0  0  0  0  0  0
  190.1620  178.2530  141.5840 C   0  0  0  0  0  2  0  0  0  0  0  0
  184.7640  178.8210  140.5020 C   0  0  0  0  0  0  0  0  0  0  0  0
  190.5910  176.8890  142.0960 C   0  0  1  0  0  3  0  0  0  0  0  0
  185.5300  178.2010  146.8060 C   0  0  0  0  0  3  0  0  0  0  0  0
  183.5820  179.3160  140.1040 C   0  0  0  0  0  3  0  0  0  0  0  0
  190.5350  176.9450  146.0590 C   0  0  0  0  0  0  0  0  0  0  0  0
  189.7830  177.1400  147.2280 C   0  0  0  0  0  3  0  0  0  0  0  0
  184.1890  179.2380  142.8800 C   0  0  0  0  0  2  0  0  0  0  0  0
  191.8830  176.6200  146.1490 O   0  0  0  0  0  1  0  0  0  0  0  0
  184.2540  178.6280  146.5940 N   0  0  0  0  0  0  0  0  0  0  0  0
  191.8280  176.9220  142.7100 C   0  0  0  0  0  2  0  0  0  0  0  0
  186.9300  177.9980  139.6420 N   0  0  0  0  0  0  0  0  0  0  0  0
  188.5750  177.4210  144.7400 C   0  0  0  0  0  3  0  0  0  0  0  0
  183.8030  178.9530  145.3490 C   0  0  0  0  0  3  0  0  0  0  0  0
  189.9160  177.0790  144.8100 C   0  0  0  0  0  0  0  0  0  0  0  0
  188.4260  177.4900  147.1460 C   0  0  0  0  0  3  0  0  0  0  0  0
  187.7410  178.2380  140.8260 C   0  0  0  0  0  2  0  0  0  0  0  0
  183.9530  178.4350  137.8020 C   0  0  0  0  0  3  0  0  0  0  0  0
  185.9590  178.4230  144.4530 C   0  0  0  0  0  3  0  0  0  0  0  0
  190.6220  176.9550  143.5860 N   0  0  0  0  0  0  0  0  0  0  0  0
  186.4180  178.0840  145.7290 C   0  0  0  0  0  0  0  0  0  0  0  0
  183.1990  179.4190  138.6540 C   0  0  0  0  0  2  0  0  0  0  0  0
  185.1010  177.9560  138.1770 N   0  0  0  0  0  0  0  0  0  0  0  0
  1 22  1  0  0  0  0
  1  6  1  0  0  0  0
  2 21  1  0  0  0  0
  3 17  2  0  0  0  0
  3  7  1  0  0  0  0
  4 13  1  0  0  0  0
  5 24  2  0  0  0  0
  5 19  1  0  0  0  0
  7  4  1  0  0  0  0
  8  6  1  6  0  0  0
  8 16  1  0  0  0  0
  8 25  1  0  0  0  0
 10  7  2  0  0  0  0
 11 14  1  0  0  0  0
 11 12  1  0  0  0  0
 13  5  1  0  0  0  0
 15  9  1  0  0  0  0
 16 25  1  0  0  0  0
 17 22  1  0  0  0  0
 18 20  1  0  0  0  0
 18  2  2  0  0  0  0
 19 15  2  0  0  0  0
 20 11  2  0  0  0  0
 21 12  2  0  0  0  0
 23 28  2  0  0  0  0
 23 27  1  0  0  0  0
 24 26  1  0  0  0  0
 25 20  1  0  0  0  0
 26  2  1  0  0  0  0
 26  9  2  0  0  0  0
 27 10  1  0  0  0  0
 28  3  1  0  0  0  0
M  END
>  <MODEL>
6

>  <REMARK>
 VINA RESULT:     -10.5      2.250      4.150
  Name = 
  0 active torsions:
  status: ('A' for Active; 'I' for Inactive)
                            x       y       z     vdW  Elec       q    Type
                         _______ _______ _______ _____ _____    ______ ____

>  <TORSDO>
F 0

$$$$
=
 OpenBabel11062416443D

 28 32  0  0  1  0  0  0  0  0999 V2000
  186.5390  178.5430  139.9900 C   0  0  0  0  0  2  0  0  0  0  0  0
  189.1270  177.5130  144.9230 C   0  0  0  0  0  0  0  0  0  0  0  0
  183.2500  178.4150  141.6080 C   0  0  0  0  0  0  0  0  0  0  0  0
  184.3890  178.6710  143.8500 O   0  0  0  0  0  0  0  0  0  0  0  0
  185.6380  178.5170  145.9170 C   0  0  0  0  0  0  0  0  0  0  0  0
  188.0260  178.7070  140.2560 C   0  0  0  0  0  2  0  0  0  0  0  0
  183.2480  178.8010  143.0470 C   0  0  0  0  0  0  0  0  0  0  0  0
  188.7190  177.3570  140.1820 C   0  0  1  0  0  3  0  0  0  0  0  0
  188.0030  177.7590  147.1720 C   0  0  0  0  0  3  0  0  0  0  0  0
  182.0860  179.2030  143.5860 C   0  0  0  0  0  3  0  0  0  0  0  0
  191.2950  177.0890  143.1840 C   0  0  0  0  0  0  0  0  0  0  0  0
  191.4980  177.1110  144.5720 C   0  0  0  0  0  3  0  0  0  0  0  0
  184.3780  178.9650  145.2510 C   0  0  0  0  0  2  0  0  0  0  0  0
  192.3740  176.8980  142.3280 O   0  0  0  0  0  1  0  0  0  0  0  0
  186.8960  178.0680  147.9020 N   0  0  0  0  0  0  0  0  0  0  0  0
  190.0520  177.4690  139.8370 C   0  0  0  0  0  2  0  0  0  0  0  0
  184.3240  178.2770  140.8850 N   0  0  0  0  0  0  0  0  0  0  0  0
  188.9420  177.4660  143.5410 C   0  0  0  0  0  3  0  0  0  0  0  0
  185.7270  178.4440  147.3090 C   0  0  0  0  0  3  0  0  0  0  0  0
  190.0020  177.2590  142.6740 C   0  0  0  0  0  0  0  0  0  0  0  0
  190.4180  177.3250  145.4420 C   0  0  0  0  0  3  0  0  0  0  0  0
  185.7090  178.5040  141.2700 C   0  0  0  0  0  2  0  0  0  0  0  0
  180.8650  178.5520  141.5140 C   0  0  0  0  0  3  0  0  0  0  0  0
  186.7650  178.2120  145.1640 C   0  0  0  0  0  3  0  0  0  0  0  0
  189.7250  177.3070  141.2820 N   0  0  0  0  0  0  0  0  0  0  0  0
  187.9610  177.8210  145.7730 C   0  0  0  0  0  0  0  0  0  0  0  0
  180.8380  179.3810  142.7670 C   0  0  0  0  0  2  0  0  0  0  0  0
  181.9850  178.1650  140.9820 N   0  0  0  0  0  0  0  0  0  0  0  0
  1  6  1  0  0  0  0
  1 22  1  0  0  0  0
  2 21  1  0  0  0  0
  2 26  1  0  0  0  0
  3  7  1  0  0  0  0
  4 13  1  0  0  0  0
  5 19  1  0  0  0  0
  7 10  2  0  0  0  0
  7  4  1  0  0  0  0
  8 16  1  6  0  0  0
  8  6  1  0  0  0  0
  8 25  1  0  0  0  0
  9 15  1  0  0  0  0
 11 12  1  0  0  0  0
 12 21  2  0  0  0  0
 13  5  1  0  0  0  0
 14 11  1  0  0  0  0
 16 25  1  0  0  0  0
 17 22  1  0  0  0  0
 17  3  2  0  0  0  0
 18  2  2  0  0  0  0
 19 15  2  0  0  0  0
 20 11  2  0  0  0  0
 20 18  1  0  0  0  0
 23 27  1  0  0  0  0
 24 26  1  0  0  0  0
 24  5  2  0  0  0  0
 25 20  1  0  0  0  0
 26  9  2  0  0  0  0
 27 10  1  0  0  0  0
 28 23  2  0  0  0  0
 28  3  1  0  0  0  0
M  END
>  <MODEL>
7

>  <REMARK>
 VINA RESULT:     -10.5      2.069      6.416
  Name = 
  0 active torsions:
  status: ('A' for Active; 'I' for Inactive)
                            x       y       z     vdW  Elec       q    Type
                         _______ _______ _______ _____ _____    ______ ____

>  <TORSDO>
F 0

$$$$
=
 OpenBabel11062416443D

 28 32  0  0  1  0  0  0  0  0999 V2000
  187.9590  178.2270  139.2510 C   0  0  0  0  0  2  0  0  0  0  0  0
  187.6270  177.7290  144.8840 C   0  0  0  0  0  0  0  0  0  0  0  0
  184.3030  178.2760  138.9690 C   0  0  0  0  0  0  0  0  0  0  0  0
  184.1600  178.7700  141.4430 O   0  0  0  0  0  0  0  0  0  0  0  0
  184.1780  178.8370  143.8630 C   0  0  0  0  0  0  0  0  0  0  0  0
  189.1120  178.4170  140.2220 C   0  0  0  0  0  2  0  0  0  0  0  0
  183.5920  178.8150  140.1630 C   0  0  0  0  0  0  0  0  0  0  0  0
  189.6710  177.0670  140.6360 C   0  0  1  0  0  3  0  0  0  0  0  0
  185.5340  178.2170  146.2110 C   0  0  0  0  0  3  0  0  0  0  0  0
  182.3420  179.2730  139.9940 C   0  0  0  0  0  3  0  0  0  0  0  0
  190.3500  177.1200  144.5410 C   0  0  0  0  0  0  0  0  0  0  0  0
  189.8220  177.2900  145.8300 C   0  0  0  0  0  3  0  0  0  0  0  0
  183.4560  179.2120  142.6100 C   0  0  0  0  0  2  0  0  0  0  0  0
  191.7010  176.8370  144.3770 O   0  0  0  0  0  1  0  0  0  0  0  0
  184.2280  178.6030  146.2430 N   0  0  0  0  0  0  0  0  0  0  0  0
  190.9980  177.1390  141.0100 C   0  0  0  0  0  2  0  0  0  0  0  0
  185.5850  178.0610  138.9110 N   0  0  0  0  0  0  0  0  0  0  0  0
  188.1660  177.5340  143.6120 C   0  0  0  0  0  3  0  0  0  0  0  0
  183.5440  178.9150  145.1050 C   0  0  0  0  0  3  0  0  0  0  0  0
  189.5060  177.2350  143.4300 C   0  0  0  0  0  0  0  0  0  0  0  0
  188.4640  177.5970  146.0040 C   0  0  0  0  0  3  0  0  0  0  0  0
  186.5950  178.3260  139.9250 C   0  0  0  0  0  2  0  0  0  0  0  0
  182.3060  178.4040  137.6590 C   0  0  0  0  0  3  0  0  0  0  0  0
  185.5120  178.4530  143.8210 C   0  0  0  0  0  3  0  0  0  0  0  0
  189.9750  177.1330  142.0950 N   0  0  0  0  0  0  0  0  0  0  0  0
  186.2100  178.1280  144.9880 C   0  0  0  0  0  0  0  0  0  0  0  0
  181.6940  179.3630  138.6410 C   0  0  0  0  0  2  0  0  0  0  0  0
  183.5180  177.9620  137.8110 N   0  0  0  0  0  0  0  0  0  0  0  0
  1 22  1  0  0  0  0
  1  6  1  0  0  0  0
  2 26  1  0  0  0  0
  2 21  1  0  0  0  0
  3  7  1  0  0  0  0
  4 13  1  0  0  0  0
  5 19  1  0  0  0  0
  7  4  1  0  0  0  0
  8  6  1  6  0  0  0
  8 16  1  0  0  0  0
  8 25  1  0  0  0  0
  9 15  1  0  0  0  0
 10  7  2  0  0  0  0
 11 12  1  0  0  0  0
 12 21  2  0  0  0  0
 13  5  1  0  0  0  0
 14 11  1  0  0  0  0
 16 25  1  0  0  0  0
 17  3  2  0  0  0  0
 17 22  1  0  0  0  0
 18  2  2  0  0  0  0
 19 15  2  0  0  0  0
 20 18  1  0  0  0  0
 20 11  2  0  0  0  0
 23 28  2  0  0  0  0
 23 27  1  0  0  0  0
 24  5  2  0  0  0  0
 24 26  1  0  0  0  0
 25 20  1  0  0  0  0
 26  9  2  0  0  0  0
 27 10  1  0  0  0  0
 28  3  1  0  0  0  0
M  END
>  <MODEL>
8

>  <REMARK>
 VINA RESULT:     -10.4      2.449      5.023
  Name = 
  0 active torsions:
  status: ('A' for Active; 'I' for Inactive)
                            x       y       z     vdW  Elec       q    Type
                         _______ _______ _______ _____ _____    ______ ____

>  <TORSDO>
F 0

$$$$
=
 OpenBabel11062416443D

 28 32  0  0  1  0  0  0  0  0999 V2000
  185.5250  178.6830  145.8050 C   0  0  0  0  0  2  0  0  0  0  0  0
  185.7270  178.4750  140.1470 C   0  0  0  0  0  0  0  0  0  0  0  0
  188.8630  177.1830  146.0490 C   0  0  0  0  0  0  0  0  0  0  0  0
  189.2460  177.7390  143.6140 O   0  0  0  0  0  0  0  0  0  0  0  0
  189.3030  177.9720  141.2060 C   0  0  0  0  0  0  0  0  0  0  0  0
  184.5740  179.4020  144.8620 C   0  0  0  0  0  2  0  0  0  0  0  0
  189.7560  177.4560  144.8880 C   0  0  0  0  0  0  0  0  0  0  0  0
  183.5120  178.4390  144.3610 C   0  0  1  0  0  3  0  0  0  0  0  0
  187.8570  178.1340  138.8340 C   0  0  0  0  0  3  0  0  0  0  0  0
  191.0790  177.3390  145.0750 C   0  0  0  0  0  3  0  0  0  0  0  0
  182.9910  179.0360  140.4770 C   0  0  0  0  0  0  0  0  0  0  0  0
  183.5670  179.0570  139.1970 C   0  0  0  0  0  3  0  0  0  0  0  0
  190.0920  177.9260  142.4740 C   0  0  0  0  0  2  0  0  0  0  0  0
  181.6430  179.3320  140.6350 O   0  0  0  0  0  1  0  0  0  0  0  0
  189.2060  177.9420  138.8160 N   0  0  0  0  0  0  0  0  0  0  0  0
  182.3430  179.0840  144.0080 C   0  0  0  0  0  2  0  0  0  0  0  0
  187.6070  177.5190  146.1060 N   0  0  0  0  0  0  0  0  0  0  0  0
  185.1310  178.4370  141.4090 C   0  0  0  0  0  3  0  0  0  0  0  0
  189.9360  177.8620  139.9650 C   0  0  0  0  0  3  0  0  0  0  0  0
  183.7860  178.7120  141.5840 C   0  0  0  0  0  0  0  0  0  0  0  0
  184.9330  178.7800  139.0310 C   0  0  0  0  0  3  0  0  0  0  0  0
  186.8190  178.2490  145.1240 C   0  0  0  0  0  2  0  0  0  0  0  0
  190.7060  176.3780  147.3430 C   0  0  0  0  0  3  0  0  0  0  0  0
  187.9300  178.1770  141.2350 C   0  0  0  0  0  3  0  0  0  0  0  0
  183.2910  178.7260  142.9140 N   0  0  0  0  0  0  0  0  0  0  0  0
  187.1830  178.2530  140.0560 C   0  0  0  0  0  0  0  0  0  0  0  0
  191.6800  177.0580  146.4240 C   0  0  0  0  0  2  0  0  0  0  0  0
  189.4230  176.4930  147.1740 N   0  0  0  0  0  0  0  0  0  0  0  0
  2 18  1  0  0  0  0
  3 17  2  0  0  0  0
  3 28  1  0  0  0  0
  4  7  1  0  0  0  0
  5 24  1  0  0  0  0
  5 13  1  0  0  0  0
  6  1  1  0  0  0  0
  7 10  2  0  0  0  0
  7  3  1  0  0  0  0
  8 16  1  1  0  0  0
  8  6  1  0  0  0  0
  9 26  1  0  0  0  0
 10 27  1  0  0  0  0
 11 14  1  0  0  0  0
 11 20  1  0  0  0  0
 12 11  2  0  0  0  0
 13  4  1  0  0  0  0
 15  9  2  0  0  0  0
 15 19  1  0  0  0  0
 18 20  2  0  0  0  0
 19  5  2  0  0  0  0
 20 25  1  0  0  0  0
 21 12  1  0  0  0  0
 21  2  2  0  0  0  0
 22  1  1  0  0  0  0
 22 17  1  0  0  0  0
 25 16  1  0  0  0  0
 25  8  1  0  0  0  0
 26  2  1  0  0  0  0
 26 24  2  0  0  0  0
 27 23  1  0  0  0  0
 28 23  2  0  0  0  0
M  END
>  <MODEL>
9

>  <REMARK>
 VINA RESULT:     -10.0      1.949      6.793
  Name = 
  0 active torsions:
  status: ('A' for Active; 'I' for Inactive)
                            x       y       z     vdW  Elec       q    Type
                         _______ _______ _______ _____ _____    ______ ____

>  <TORSDO>
F 0

$$$$
