=
 OpenBabel11062414253D

 50 57  0  0  1  0  0  0  0  0999 V2000
  184.0870  179.3970  139.9880 C   0  0  0  0  0  2  0  0  0  0  0  0
  186.1180  178.4630  139.1570 O   0  0  0  0  0  0  0  0  0  0  0  0
  186.4710  177.3680  137.0790 C   0  0  0  0  0  0  0  0  0  0  0  0
  185.1720  170.9470  135.8330 C   0  0  0  0  0  2  0  0  0  0  0  0
  190.4350  175.7790  136.4330 O   0  0  0  0  0  0  0  0  0  0  0  0
  189.2460  177.6940  135.4670 C   0  0  0  0  0  2  0  0  0  0  0  0
  186.8590  178.2920  136.1730 C   0  0  0  0  0  3  0  0  0  0  0  0
  188.1060  175.6200  136.3500 C   0  0  1  0  0  3  0  0  0  0  0  0
  183.5240  174.2710  135.8420 O   0  0  0  0  0  0  0  0  0  0  0  0
  190.9520  173.5420  136.7590 O   0  0  0  0  0  0  0  0  0  0  0  0
  180.0560  177.0590  137.6830 C   0  0  0  0  0  2  0  0  0  0  0  0
  185.4740  177.7420  138.1370 C   0  0  2  0  0  3  0  0  0  0  0  0
  181.2180  178.0720  137.6900 C   0  0  0  0  0  2  0  0  0  0  0  0
  181.9490  175.4420  137.1860 C   0  0  2  0  0  3  0  0  0  0  0  0
  181.2110  173.8260  135.3340 C   0  0  0  0  0  2  0  0  0  0  0  0
  187.8180  178.0620  135.0320 C   0  0  0  0  0  2  0  0  0  0  0  0
  183.3200  178.9800  138.7190 C   0  0  1  0  0  3  0  0  0  0  0  0
  185.8810  173.6600  136.0220 C   0  0  0  0  0  3  0  0  0  0  0  0
  189.2770  176.5840  136.5130 C   0  0  1  0  0  3  0  0  0  0  0  0
  187.5970  170.4070  135.6520 C   0  0  0  0  0  1  0  0  0  0  0  0
  188.6340  174.2540  136.8070 C   0  0  2  0  0  3  0  0  0  0  0  0
  185.2450  178.4450  140.2550 C   0  0  0  0  0  2  0  0  0  0  0  0
  182.2420  174.1410  136.4310 C   0  0  1  0  0  3  0  0  0  0  0  0
  179.8970  174.5990  135.4660 C   0  0  0  0  0  2  0  0  0  0  0  0
  184.2690  178.5330  137.5850 C   0  0  0  0  0  2  0  0  0  0  0  0
  184.1620  172.0080  135.7470 N   0  0  0  0  0  0  0  0  0  0  0  0
  182.0900  178.0630  138.9610 C   0  0  2  0  0  0  0  0  0  0  0  0
  190.0970  174.4610  136.6690 C   0  0  0  0  0  0  0  0  0  0  0  0
  186.5280  171.4170  135.2780 C   0  0  2  0  0  3  0  0  0  0  0  0
  184.4820  173.2640  135.8740 C   0  0  0  0  0  0  0  0  0  0  0  0
  187.0150  176.0710  137.1460 O   0  0  0  0  0  0  0  0  0  0  0  0
  179.4960  174.7270  136.9290 C   0  0  0  0  0  2  0  0  0  0  0  0
  188.2090  173.1930  135.9450 O   0  0  0  0  0  0  0  0  0  0  0  0
  186.8700  172.7960  135.7930 C   0  0  0  0  0  0  0  0  0  0  0  0
  182.5160  176.6470  139.4040 C   0  0  0  0  0  2  0  0  0  0  0  0
  182.9830  175.6900  138.2950 C   0  0  0  0  0  2  0  0  0  0  0  0
  180.5010  175.5880  137.6930 C   0  0  2  0  0  3  0  0  0  0  0  0
  181.2260  178.1990  141.6960 O   0  0  0  0  0  0  0  0  0  0  0  0
  181.0640  178.7640  140.3040 P   0  0  1  0  0  4  0  0  0  0  0  0
  179.8780  180.1210  140.0670 C   0  0  0  0  0  2  0  0  0  0  0  0
  180.5570  181.3210  139.4210 C   0  0  0  0  0  2  0  0  0  0  0  0
  179.8130  181.4820  137.0490 C   0  0  0  0  0  0  0  0  0  0  0  0
  180.6900  184.3190  137.1720 C   0  0  0  0  0  2  0  0  0  0  0  0
  180.7950  183.4660  135.9080 C   0  0  0  0  0  2  0  0  0  0  0  0
  179.0230  183.1690  138.7350 C   0  0  0  0  0  2  0  0  0  0  0  0
  179.2600  184.2820  137.7050 C   0  0  1  0  0  3  0  0  0  0  0  0
  180.9500  181.9780  136.2190 C   0  0  0  0  0  2  0  0  0  0  0  0
  179.7020  181.9180  138.4050 N   0  0  0  0  0  0  0  0  0  0  0  0
  178.9350  185.5630  138.3040 N   0  0  0  0  0  1  0  0  0  0  0  0
  178.9310  180.7400  136.5450 O   0  0  0  0  0  0  0  0  0  0  0  0
  1 22  1  0  0  0  0
  2 22  1  0  0  0  0
  3 31  1  0  0  0  0
  3 12  1  0  0  0  0
  5 19  1  0  0  0  0
  5 28  1  0  0  0  0
  7  3  2  0  0  0  0
  8 19  1  0  0  0  0
  8 21  1  0  0  0  0
  8 31  1  1  0  0  0
  9 30  1  0  0  0  0
  9 23  1  0  0  0  0
 11 13  1  0  0  0  0
 11 37  1  0  0  0  0
 12 25  1  6  0  0  0
 12  2  1  0  0  0  0
 13 27  1  0  0  0  0
 14 37  1  0  0  0  0
 14 36  1  1  0  0  0
 15 24  1  0  0  0  0
 16  6  1  0  0  0  0
 16  7  1  0  0  0  0
 17 25  1  6  0  0  0
 17 27  1  0  0  0  0
 17  1  1  0  0  0  0
 19  6  1  6  0  0  0
 21 33  1  6  0  0  0
 23 15  1  6  0  0  0
 23 14  1  0  0  0  0
 24 32  1  0  0  0  0
 26  4  1  0  0  0  0
 26 30  2  0  0  0  0
 27 35  1  0  0  0  0
 27 39  1  1  0  0  0
 28 10  2  0  0  0  0
 28 21  1  0  0  0  0
 29 20  1  1  0  0  0
 29 34  1  0  0  0  0
 29  4  1  0  0  0  0
 30 18  1  0  0  0  0
 34 33  1  0  0  0  0
 34 18  2  0  0  0  0
 36 35  1  0  0  0  0
 37 32  1  6  0  0  0
 39 38  2  1  0  0  0
 40 39  1  0  0  0  0
 41 40  1  0  0  0  0
 42 48  1  0  0  0  0
 43 46  1  0  0  0  0
 44 47  1  0  0  0  0
 44 43  1  0  0  0  0
 46 49  1  1  0  0  0
 46 45  1  0  0  0  0
 47 42  1  0  0  0  0
 48 45  1  0  0  0  0
 48 41  1  0  0  0  0
 50 42  2  0  0  0  0
M  END
>  <MODEL>
1

>  <REMARK>
 VINA RESULT:      -7.0      0.000      0.000
  Name = 
  4 active torsions:
  status: ('A' for Active; 'I' for Inactive)
    1  A    between atoms: C_15  and  N_30
    2  A    between atoms: C_15  and  C_34
    3  A    between atoms: C_34  and  P_46
    4  A    between atoms: C_37  and  P_46
                            x       y       z     vdW  Elec       q    Type
                         _______ _______ _______ _____ _____    ______ ____

>  <TORSDO>
F 4

$$$$
=
 OpenBabel11062414253D

 50 57  0  0  1  0  0  0  0  0999 V2000
  186.1380  171.6860  134.8940 C   0  0  0  0  0  2  0  0  0  0  0  0
  184.0070  172.3560  135.7300 O   0  0  0  0  0  0  0  0  0  0  0  0
  183.1340  174.5590  135.8870 C   0  0  0  0  0  0  0  0  0  0  0  0
  184.3620  178.8510  140.8410 C   0  0  0  0  0  2  0  0  0  0  0  0
  179.2400  174.9200  137.7220 O   0  0  0  0  0  0  0  0  0  0  0  0
  180.0010  175.1550  135.4020 C   0  0  0  0  0  2  0  0  0  0  0  0
  182.4550  174.8280  134.7500 C   0  0  0  0  0  3  0  0  0  0  0  0
  181.4540  175.6020  137.4200 C   0  0  1  0  0  3  0  0  0  0  0  0
  185.7650  177.7120  137.6000 O   0  0  0  0  0  0  0  0  0  0  0  0
  178.9580  175.5370  139.9390 O   0  0  0  0  0  0  0  0  0  0  0  0
  189.4610  175.6640  135.2910 C   0  0  0  0  0  2  0  0  0  0  0  0
  184.3700  173.7090  135.8270 C   0  0  2  0  0  3  0  0  0  0  0  0
  188.2980  174.9280  134.5980 C   0  0  0  0  0  2  0  0  0  0  0  0
  187.5940  176.3890  136.8510 C   0  0  2  0  0  3  0  0  0  0  0  0
  187.8570  178.8870  137.3750 C   0  0  0  0  0  2  0  0  0  0  0  0
  181.2240  175.6920  134.6400 C   0  0  0  0  0  2  0  0  0  0  0  0
  186.5320  173.1450  134.5940 C   0  0  1  0  0  3  0  0  0  0  0  0
  183.5930  177.2910  138.6330 C   0  0  0  0  0  3  0  0  0  0  0  0
  180.3290  174.7530  136.8370 C   0  0  1  0  0  3  0  0  0  0  0  0
  182.0180  178.6910  141.6690 C   0  0  0  0  0  1  0  0  0  0  0  0
  181.1510  175.7080  138.9200 C   0  0  2  0  0  3  0  0  0  0  0  0
  185.1570  171.6210  136.0570 C   0  0  0  0  0  2  0  0  0  0  0  0
  187.1680  177.5620  137.7400 C   0  0  1  0  0  3  0  0  0  0  0  0
  189.1120  178.7260  136.5130 C   0  0  0  0  0  2  0  0  0  0  0  0
  185.3240  174.1030  134.6780 C   0  0  0  0  0  2  0  0  0  0  0  0
  185.2480  178.6760  139.6830 N   0  0  0  0  0  0  0  0  0  0  0  0
  187.8270  173.6380  135.2960 C   0  0  2  0  0  0  0  0  0  0  0  0
  179.7020  175.3950  138.9340 C   0  0  0  0  0  0  0  0  0  0  0  0
  182.8810  178.8010  140.4260 C   0  0  2  0  0  3  0  0  0  0  0  0
  184.9110  177.9220  138.6760 C   0  0  0  0  0  0  0  0  0  0  0  0
  182.7020  174.9650  137.1640 O   0  0  0  0  0  0  0  0  0  0  0  0
  189.9060  177.5030  136.9470 C   0  0  0  0  0  2  0  0  0  0  0  0
  181.3690  177.0300  139.4240 O   0  0  0  0  0  0  0  0  0  0  0  0
  182.6280  177.6510  139.4780 C   0  0  0  0  0  0  0  0  0  0  0  0
  187.6200  173.8030  136.8170 C   0  0  0  0  0  2  0  0  0  0  0  0
  186.9080  175.0830  137.2810 C   0  0  0  0  0  2  0  0  0  0  0  0
  189.1160  176.2220  136.6810 C   0  0  2  0  0  3  0  0  0  0  0  0
  188.7950  170.9370  135.1700 O   0  0  0  0  0  0  0  0  0  0  0  0
  189.1540  172.4020  135.0610 P   0  0  1  0  0  4  0  0  0  0  0  0
  190.8780  172.8300  134.6760 C   0  0  0  0  0  2  0  0  0  0  0  0
  191.7370  172.7860  135.9330 C   0  0  0  0  0  2  0  0  0  0  0  0
  194.1890  172.3500  135.8640 C   0  0  0  0  0  0  0  0  0  0  0  0
  194.4420  174.5870  137.8040 C   0  0  0  0  0  2  0  0  0  0  0  0
  195.3600  173.3650  137.8140 C   0  0  0  0  0  2  0  0  0  0  0  0
  193.3120  174.6780  135.5100 C   0  0  0  0  0  2  0  0  0  0  0  0
  194.4310  175.2170  136.4130 C   0  0  1  0  0  3  0  0  0  0  0  0
  194.6770  172.1180  137.2550 C   0  0  0  0  0  2  0  0  0  0  0  0
  193.0920  173.2410  135.6530 N   0  0  0  0  0  0  0  0  0  0  0  0
  194.2930  176.6560  136.5350 N   0  0  0  0  0  1  0  0  0  0  0  0
  194.7740  171.8180  134.8860 O   0  0  0  0  0  0  0  0  0  0  0  0
  1 22  1  0  0  0  0
  2 12  1  0  0  0  0
  2 22  1  0  0  0  0
  3 31  1  0  0  0  0
  5 28  1  0  0  0  0
  7  3  2  0  0  0  0
  8 31  1  1  0  0  0
  8 21  1  0  0  0  0
  9 23  1  0  0  0  0
  9 30  1  0  0  0  0
 12 25  1  6  0  0  0
 12  3  1  0  0  0  0
 13 11  1  0  0  0  0
 13 27  1  0  0  0  0
 14 36  1  1  0  0  0
 14 23  1  0  0  0  0
 16  7  1  0  0  0  0
 16  6  1  0  0  0  0
 17 25  1  1  0  0  0
 17  1  1  0  0  0  0
 17 27  1  0  0  0  0
 18 30  1  0  0  0  0
 18 34  2  0  0  0  0
 19  6  1  6  0  0  0
 19  8  1  0  0  0  0
 19  5  1  0  0  0  0
 21 28  1  6  0  0  0
 21 33  1  0  0  0  0
 23 15  1  6  0  0  0
 24 32  1  0  0  0  0
 24 15  1  0  0  0  0
 26  4  1  0  0  0  0
 27 39  1  6  0  0  0
 27 35  1  0  0  0  0
 28 10  2  0  0  0  0
 29  4  1  0  0  0  0
 29 20  1  1  0  0  0
 30 26  2  0  0  0  0
 33 34  1  0  0  0  0
 34 29  1  0  0  0  0
 35 36  1  0  0  0  0
 37 11  1  6  0  0  0
 37 14  1  0  0  0  0
 37 32  1  0  0  0  0
 39 38  2  6  0  0  0
 40 39  1  0  0  0  0
 40 41  1  0  0  0  0
 42 47  1  0  0  0  0
 43 44  1  0  0  0  0
 45 48  1  0  0  0  0
 45 46  1  0  0  0  0
 46 49  1  1  0  0  0
 46 43  1  0  0  0  0
 47 44  1  0  0  0  0
 48 42  1  0  0  0  0
 48 41  1  0  0  0  0
 50 42  2  0  0  0  0
M  END
>  <MODEL>
2

>  <REMARK>
 VINA RESULT:      -5.8      3.832     10.801
  Name = 
  4 active torsions:
  status: ('A' for Active; 'I' for Inactive)
    1  A    between atoms: C_15  and  N_30
    2  A    between atoms: C_15  and  C_34
    3  A    between atoms: C_34  and  P_46
    4  A    between atoms: C_37  and  P_46
                            x       y       z     vdW  Elec       q    Type
                         _______ _______ _______ _____ _____    ______ ____

>  <TORSDO>
F 4

$$$$
=
 OpenBabel11062414253D

 50 57  0  0  1  0  0  0  0  0999 V2000
  189.4210  177.8110  136.9230 C   0  0  0  0  0  2  0  0  0  0  0  0
  187.3530  178.8670  137.4650 O   0  0  0  0  0  0  0  0  0  0  0  0
  185.3770  177.8490  138.3010 C   0  0  0  0  0  0  0  0  0  0  0  0
  180.7330  174.8210  134.5950 C   0  0  0  0  0  2  0  0  0  0  0  0
  181.9830  180.4680  138.8310 O   0  0  0  0  0  0  0  0  0  0  0  0
  183.4840  179.3670  140.4280 C   0  0  0  0  0  2  0  0  0  0  0  0
  185.4210  177.8830  139.6510 C   0  0  0  0  0  3  0  0  0  0  0  0
  182.9570  178.4660  138.1270 C   0  0  1  0  0  3  0  0  0  0  0  0
  183.9550  174.1360  136.3030 O   0  0  0  0  0  0  0  0  0  0  0  0
  180.2640  180.6140  137.2810 O   0  0  0  0  0  0  0  0  0  0  0  0
  188.5590  172.7960  135.8640 C   0  0  0  0  0  2  0  0  0  0  0  0
  186.6460  177.6540  137.5240 C   0  0  2  0  0  3  0  0  0  0  0  0
  188.7350  173.9660  136.8510 C   0  0  0  0  0  2  0  0  0  0  0  0
  186.2230  173.7730  135.6860 C   0  0  2  0  0  3  0  0  0  0  0  0
  184.5080  171.8650  135.7140 C   0  0  0  0  0  2  0  0  0  0  0  0
  184.2340  178.0320  140.5700 C   0  0  0  0  0  2  0  0  0  0  0  0
  188.8740  176.4270  137.3200 C   0  0  1  0  0  3  0  0  0  0  0  0
  182.4530  176.0550  136.4430 C   0  0  0  0  0  3  0  0  0  0  0  0
  183.1690  179.7150  138.9760 C   0  0  1  0  0  3  0  0  0  0  0  0
  179.0760  176.6220  135.0530 C   0  0  0  0  0  1  0  0  0  0  0  0
  181.9300  178.8660  137.0600 C   0  0  2  0  0  3  0  0  0  0  0  0
  188.2960  178.7160  136.4380 C   0  0  0  0  0  2  0  0  0  0  0  0
  184.7690  173.3560  135.4430 C   0  0  1  0  0  3  0  0  0  0  0  0
  185.7710  171.0040  135.7560 C   0  0  0  0  0  2  0  0  0  0  0  0
  187.5380  176.5280  138.0890 C   0  0  0  0  0  2  0  0  0  0  0  0
  181.9540  174.1550  135.0660 N   0  0  0  0  0  0  0  0  0  0  0  0
  188.9220  175.3510  136.2020 C   0  0  2  0  0  0  0  0  0  0  0  0
  181.3040  180.0450  137.7060 C   0  0  0  0  0  0  0  0  0  0  0  0
  180.1470  175.7460  135.6750 C   0  0  2  0  0  3  0  0  0  0  0  0
  182.7730  174.7400  135.8920 C   0  0  0  0  0  0  0  0  0  0  0  0
  184.2020  178.0710  137.5570 O   0  0  0  0  0  0  0  0  0  0  0  0
  186.7690  171.4640  134.7040 C   0  0  0  0  0  2  0  0  0  0  0  0
  180.9470  177.8460  136.8480 O   0  0  0  0  0  0  0  0  0  0  0  0
  181.2340  176.5790  136.3150 C   0  0  0  0  0  0  0  0  0  0  0  0
  187.9000  175.6480  135.0840 C   0  0  0  0  0  2  0  0  0  0  0  0
  186.4400  175.2600  135.3640 C   0  0  0  0  0  2  0  0  0  0  0  0
  187.2780  172.8700  135.0180 C   0  0  2  0  0  3  0  0  0  0  0  0
  190.9830  176.5400  134.5940 O   0  0  0  0  0  0  0  0  0  0  0  0
  190.5810  175.3480  135.4320 P   0  0  1  0  0  4  0  0  0  0  0  0
  191.7890  174.0050  135.6380 C   0  0  0  0  0  2  0  0  0  0  0  0
  193.1510  174.4200  135.0990 C   0  0  0  0  0  2  0  0  0  0  0  0
  194.9150  176.0340  135.8020 C   0  0  0  0  0  0  0  0  0  0  0  0
  196.4100  173.6660  136.7960 C   0  0  0  0  0  2  0  0  0  0  0  0
  197.0940  174.9000  136.2060 C   0  0  0  0  0  2  0  0  0  0  0  0
  194.0280  174.3460  137.4370 C   0  0  0  0  0  2  0  0  0  0  0  0
  195.4620  174.0850  137.9170 C   0  0  1  0  0  3  0  0  0  0  0  0
  196.2130  175.6260  135.1910 C   0  0  0  0  0  2  0  0  0  0  0  0
  193.9620  175.0260  136.1460 N   0  0  0  0  0  0  0  0  0  0  0  0
  195.4430  173.0580  138.9420 N   0  0  0  0  0  1  0  0  0  0  0  0
  194.6850  177.2430  136.0670 O   0  0  0  0  0  0  0  0  0  0  0  0
  2 12  1  0  0  0  0
  3  7  2  0  0  0  0
  4 26  1  0  0  0  0
  4 29  1  0  0  0  0
  5 19  1  0  0  0  0
  6 16  1  0  0  0  0
  7 16  1  0  0  0  0
  8 31  1  6  0  0  0
  8 19  1  0  0  0  0
 10 28  2  0  0  0  0
 11 13  1  0  0  0  0
 12 25  1  1  0  0  0
 12  3  1  0  0  0  0
 14 36  1  6  0  0  0
 15 24  1  0  0  0  0
 17  1  1  6  0  0  0
 17 25  1  0  0  0  0
 19  6  1  1  0  0  0
 21 33  1  1  0  0  0
 21 28  1  0  0  0  0
 21  8  1  0  0  0  0
 22  1  1  0  0  0  0
 22  2  1  0  0  0  0
 23 14  1  0  0  0  0
 23 15  1  1  0  0  0
 23  9  1  0  0  0  0
 26 30  2  0  0  0  0
 27 39  1  6  0  0  0
 27 13  1  0  0  0  0
 27 17  1  0  0  0  0
 28  5  1  0  0  0  0
 29 20  1  6  0  0  0
 29 34  1  0  0  0  0
 30  9  1  0  0  0  0
 30 18  1  0  0  0  0
 31  3  1  0  0  0  0
 32 24  1  0  0  0  0
 34 18  2  0  0  0  0
 34 33  1  0  0  0  0
 35 36  1  0  0  0  0
 35 27  1  0  0  0  0
 37 32  1  1  0  0  0
 37 14  1  0  0  0  0
 37 11  1  0  0  0  0
 39 38  2  1  0  0  0
 39 40  1  0  0  0  0
 41 40  1  0  0  0  0
 41 48  1  0  0  0  0
 42 50  2  0  0  0  0
 42 48  1  0  0  0  0
 43 46  1  0  0  0  0
 44 43  1  0  0  0  0
 45 46  1  0  0  0  0
 46 49  1  1  0  0  0
 47 42  1  0  0  0  0
 47 44  1  0  0  0  0
 48 45  1  0  0  0  0
M  END
>  <MODEL>
3

>  <REMARK>
 VINA RESULT:      -5.6      3.758     10.219
  Name = 
  4 active torsions:
  status: ('A' for Active; 'I' for Inactive)
    1  A    between atoms: C_15  and  N_30
    2  A    between atoms: C_15  and  C_34
    3  A    between atoms: C_34  and  P_46
    4  A    between atoms: C_37  and  P_46
                            x       y       z     vdW  Elec       q    Type
                         _______ _______ _______ _____ _____    ______ ____

>  <TORSDO>
F 4

$$$$
=
 OpenBabel11062414253D

 50 57  0  0  1  0  0  0  0  0999 V2000
  184.9360  179.3010  140.4430 C   0  0  0  0  0  2  0  0  0  0  0  0
  186.5650  178.2670  139.0420 O   0  0  0  0  0  0  0  0  0  0  0  0
  186.2280  177.2630  136.9160 C   0  0  0  0  0  0  0  0  0  0  0  0
  184.0890  171.0310  135.8900 C   0  0  0  0  0  2  0  0  0  0  0  0
  189.7020  175.4250  135.1240 O   0  0  0  0  0  0  0  0  0  0  0  0
  188.4580  177.4720  134.5940 C   0  0  0  0  0  2  0  0  0  0  0  0
  186.4240  178.2040  135.9670 C   0  0  0  0  0  3  0  0  0  0  0  0
  187.4380  175.4420  135.6990 C   0  0  1  0  0  3  0  0  0  0  0  0
  182.7990  174.4620  136.4690 O   0  0  0  0  0  0  0  0  0  0  0  0
  190.0960  173.1430  135.2200 O   0  0  0  0  0  0  0  0  0  0  0  0
  180.2370  177.3920  139.3040 C   0  0  0  0  0  2  0  0  0  0  0  0
  185.6030  177.6510  138.2250 C   0  0  2  0  0  3  0  0  0  0  0  0
  181.4360  178.3160  139.0130 C   0  0  0  0  0  2  0  0  0  0  0  0
  181.7690  175.6700  138.2400 C   0  0  2  0  0  3  0  0  0  0  0  0
  180.4070  174.2150  136.6240 C   0  0  0  0  0  2  0  0  0  0  0  0
  187.0020  177.9670  134.5940 C   0  0  0  0  0  2  0  0  0  0  0  0
  183.8120  179.0100  139.4310 C   0  0  1  0  0  3  0  0  0  0  0  0
  185.0510  173.6710  135.9540 C   0  0  0  0  0  3  0  0  0  0  0  0
  188.6850  176.3070  135.5540 C   0  0  1  0  0  3  0  0  0  0  0  0
  186.3100  170.3260  135.0120 C   0  0  0  0  0  1  0  0  0  0  0  0
  187.9550  174.0190  135.9450 C   0  0  2  0  0  3  0  0  0  0  0  0
  186.0370  178.2540  140.3410 C   0  0  0  0  0  2  0  0  0  0  0  0
  181.7270  174.3940  137.3930 C   0  0  1  0  0  3  0  0  0  0  0  0
  179.2530  175.0730  137.1470 C   0  0  0  0  0  2  0  0  0  0  0  0
  184.3630  178.5570  138.0620 C   0  0  0  0  0  2  0  0  0  0  0  0
  183.1890  172.1670  136.1270 N   0  0  0  0  0  0  0  0  0  0  0  0
  182.6250  178.1740  139.9840 C   0  0  2  0  0  0  0  0  0  0  0  0
  189.3320  174.1250  135.4040 C   0  0  0  0  0  0  0  0  0  0  0  0
  185.2690  171.4300  134.9870 C   0  0  2  0  0  3  0  0  0  0  0  0
  183.6380  173.3870  136.1960 C   0  0  0  0  0  0  0  0  0  0  0  0
  186.6560  175.9280  136.7860 O   0  0  0  0  0  0  0  0  0  0  0  0
  179.2900  175.1520  138.6660 C   0  0  0  0  0  2  0  0  0  0  0  0
  187.2150  173.0400  135.2060 O   0  0  0  0  0  0  0  0  0  0  0  0
  185.8590  172.7500  135.4280 C   0  0  0  0  0  0  0  0  0  0  0  0
  183.0360  176.7080  140.2430 C   0  0  0  0  0  2  0  0  0  0  0  0
  183.0890  175.7810  139.0180 C   0  0  0  0  0  2  0  0  0  0  0  0
  180.5390  175.8940  139.1410 C   0  0  2  0  0  3  0  0  0  0  0  0
  180.5960  178.9660  141.8540 O   0  0  0  0  0  0  0  0  0  0  0  0
  182.0800  178.8740  141.5830 P   0  0  1  0  0  4  0  0  0  0  0  0
  183.2200  179.4430  142.8790 C   0  0  0  0  0  2  0  0  0  0  0  0
  184.0050  178.2730  143.4560 C   0  0  0  0  0  2  0  0  0  0  0  0
  186.4830  178.0660  143.6150 C   0  0  0  0  0  0  0  0  0  0  0  0
  186.0560  177.5320  146.5070 C   0  0  0  0  0  2  0  0  0  0  0  0
  187.1780  176.8850  145.6940 C   0  0  0  0  0  2  0  0  0  0  0  0
  185.2400  179.5720  145.1950 C   0  0  0  0  0  2  0  0  0  0  0  0
  186.1090  179.0490  146.3480 C   0  0  1  0  0  3  0  0  0  0  0  0
  186.8190  176.7420  144.2160 C   0  0  0  0  0  2  0  0  0  0  0  0
  185.2750  178.7210  144.0090 N   0  0  0  0  0  0  0  0  0  0  0  0
  185.6900  179.6800  147.5860 N   0  0  0  0  0  1  0  0  0  0  0  0
  187.2800  178.6270  142.8190 O   0  0  0  0  0  0  0  0  0  0  0  0
  2 22  1  0  0  0  0
  3 12  1  0  0  0  0
  4 26  1  0  0  0  0
  5 28  1  0  0  0  0
  5 19  1  0  0  0  0
  7  3  2  0  0  0  0
  8 21  1  0  0  0  0
  8 31  1  1  0  0  0
  9 23  1  0  0  0  0
 10 28  2  0  0  0  0
 12 25  1  6  0  0  0
 12  2  1  0  0  0  0
 13 11  1  0  0  0  0
 13 27  1  0  0  0  0
 14 36  1  1  0  0  0
 14 37  1  0  0  0  0
 15 24  1  0  0  0  0
 16  6  1  0  0  0  0
 16  7  1  0  0  0  0
 17 25  1  6  0  0  0
 17 27  1  0  0  0  0
 17  1  1  0  0  0  0
 18 30  1  0  0  0  0
 19  6  1  6  0  0  0
 19  8  1  0  0  0  0
 21 33  1  6  0  0  0
 22  1  1  0  0  0  0
 23 15  1  6  0  0  0
 23 14  1  0  0  0  0
 24 32  1  0  0  0  0
 26 30  2  0  0  0  0
 27 35  1  0  0  0  0
 27 39  1  1  0  0  0
 28 21  1  0  0  0  0
 29 20  1  1  0  0  0
 29 34  1  0  0  0  0
 29  4  1  0  0  0  0
 30  9  1  0  0  0  0
 31  3  1  0  0  0  0
 33 34  1  0  0  0  0
 34 18  2  0  0  0  0
 36 35  1  0  0  0  0
 37 32  1  6  0  0  0
 37 11  1  0  0  0  0
 39 38  2  1  0  0  0
 39 40  1  0  0  0  0
 40 41  1  0  0  0  0
 41 48  1  0  0  0  0
 42 48  1  0  0  0  0
 42 47  1  0  0  0  0
 44 43  1  0  0  0  0
 45 46  1  0  0  0  0
 46 43  1  0  0  0  0
 46 49  1  1  0  0  0
 47 44  1  0  0  0  0
 48 45  1  0  0  0  0
 50 42  2  0  0  0  0
M  END
>  <MODEL>
4

>  <REMARK>
 VINA RESULT:      -5.4      3.084      5.044
  Name = 
  4 active torsions:
  status: ('A' for Active; 'I' for Inactive)
    1  A    between atoms: C_15  and  N_30
    2  A    between atoms: C_15  and  C_34
    3  A    between atoms: C_34  and  P_46
    4  A    between atoms: C_37  and  P_46
                            x       y       z     vdW  Elec       q    Type
                         _______ _______ _______ _____ _____    ______ ____

>  <TORSDO>
F 4

$$$$
=
 OpenBabel11062414253D

 50 57  0  0  1  0  0  0  0  0999 V2000
  185.6960  179.3780  141.2890 C   0  0  0  0  0  2  0  0  0  0  0  0
  186.9710  178.3090  139.5790 O   0  0  0  0  0  0  0  0  0  0  0  0
  186.2300  177.6160  137.4320 C   0  0  0  0  0  0  0  0  0  0  0  0
  183.0920  171.8850  136.1000 C   0  0  0  0  0  2  0  0  0  0  0  0
  189.1490  175.5600  135.0000 O   0  0  0  0  0  0  0  0  0  0  0  0
  188.1620  177.8010  134.8550 C   0  0  0  0  0  2  0  0  0  0  0  0
  186.4430  178.6280  136.5630 C   0  0  0  0  0  3  0  0  0  0  0  0
  187.0010  175.8070  135.8840 C   0  0  1  0  0  3  0  0  0  0  0  0
  182.4000  175.3640  137.1910 O   0  0  0  0  0  0  0  0  0  0  0  0
  189.2140  173.2500  134.8140 O   0  0  0  0  0  0  0  0  0  0  0  0
  180.6650  178.2530  140.6300 C   0  0  0  0  0  2  0  0  0  0  0  0
  185.8350  177.9270  138.8470 C   0  0  2  0  0  3  0  0  0  0  0  0
  181.9410  179.0370  140.2680 C   0  0  0  0  0  2  0  0  0  0  0  0
  181.7850  176.4810  139.1990 C   0  0  2  0  0  3  0  0  0  0  0  0
  180.0350  175.4180  137.6510 C   0  0  0  0  0  2  0  0  0  0  0  0
  186.8050  178.4800  135.1060 C   0  0  0  0  0  2  0  0  0  0  0  0
  184.4250  179.3590  140.4190 C   0  0  1  0  0  3  0  0  0  0  0  0
  184.4300  174.3490  136.2910 C   0  0  0  0  0  3  0  0  0  0  0  0
  188.3330  176.5120  135.6530 C   0  0  1  0  0  3  0  0  0  0  0  0
  185.0600  171.0020  134.8560 C   0  0  0  0  0  1  0  0  0  0  0  0
  187.3300  174.3100  135.9130 C   0  0  2  0  0  3  0  0  0  0  0  0
  186.6110  178.2140  140.9310 C   0  0  0  0  0  2  0  0  0  0  0  0
  181.4510  175.3300  138.2440 C   0  0  1  0  0  3  0  0  0  0  0  0
  179.0930  176.3530  138.4120 C   0  0  0  0  0  2  0  0  0  0  0  0
  184.7310  179.0010  138.9480 C   0  0  0  0  0  2  0  0  0  0  0  0
  182.4040  173.0940  136.5710 N   0  0  0  0  0  0  0  0  0  0  0  0
  183.2070  178.6270  141.0460 C   0  0  2  0  0  0  0  0  0  0  0  0
  188.6300  174.2960  135.1990 C   0  0  0  0  0  0  0  0  0  0  0  0
  184.1970  172.2280  135.0860 C   0  0  2  0  0  3  0  0  0  0  0  0
  183.0320  174.2280  136.6990 C   0  0  0  0  0  0  0  0  0  0  0  0
  186.4390  176.2610  137.1120 O   0  0  0  0  0  0  0  0  0  0  0  0
  179.3290  176.2470  139.9120 C   0  0  0  0  0  2  0  0  0  0  0  0
  186.3690  173.5310  135.1910 O   0  0  0  0  0  0  0  0  0  0  0  0
  185.0230  173.3980  135.5700 C   0  0  0  0  0  0  0  0  0  0  0  0
  183.4270  177.1000  141.0980 C   0  0  0  0  0  2  0  0  0  0  0  0
  183.1930  176.3250  139.7920 C   0  0  0  0  0  2  0  0  0  0  0  0
  180.7220  176.7570  140.2790 C   0  0  2  0  0  3  0  0  0  0  0  0
  182.0030  180.3330  143.0170 O   0  0  0  0  0  0  0  0  0  0  0  0
  182.9720  179.2000  142.7660 P   0  0  1  0  0  4  0  0  0  0  0  0
  183.8170  178.4690  144.2000 C   0  0  0  0  0  2  0  0  0  0  0  0
  185.3050  178.7920  144.1700 C   0  0  0  0  0  2  0  0  0  0  0  0
  186.5020  177.7630  146.0970 C   0  0  0  0  0  0  0  0  0  0  0  0
  188.9350  177.8780  144.3960 C   0  0  0  0  0  2  0  0  0  0  0  0
  188.9680  178.0560  145.9130 C   0  0  0  0  0  2  0  0  0  0  0  0
  186.7110  176.7600  143.8040 C   0  0  0  0  0  2  0  0  0  0  0  0
  188.2170  176.5790  144.0410 C   0  0  1  0  0  3  0  0  0  0  0  0
  187.6620  178.6280  146.4620 C   0  0  0  0  0  2  0  0  0  0  0  0
  186.0860  177.6990  144.7320 N   0  0  0  0  0  0  0  0  0  0  0  0
  188.8200  176.0020  142.8540 N   0  0  0  0  0  1  0  0  0  0  0  0
  185.9360  177.0530  146.9680 O   0  0  0  0  0  0  0  0  0  0  0  0
  2 22  1  0  0  0  0
  3 12  1  0  0  0  0
  4 26  1  0  0  0  0
  5 28  1  0  0  0  0
  5 19  1  0  0  0  0
  6 16  1  0  0  0  0
  7  3  2  0  0  0  0
  8 21  1  0  0  0  0
  8 31  1  1  0  0  0
  9 23  1  0  0  0  0
 10 28  2  0  0  0  0
 12 25  1  6  0  0  0
 12  2  1  0  0  0  0
 13 11  1  0  0  0  0
 13 27  1  0  0  0  0
 14 36  1  1  0  0  0
 14 37  1  0  0  0  0
 15 24  1  0  0  0  0
 16  7  1  0  0  0  0
 17 25  1  6  0  0  0
 17 27  1  0  0  0  0
 17  1  1  0  0  0  0
 18 30  1  0  0  0  0
 19  6  1  6  0  0  0
 19  8  1  0  0  0  0
 21 33  1  6  0  0  0
 22  1  1  0  0  0  0
 23 15  1  6  0  0  0
 23 14  1  0  0  0  0
 24 32  1  0  0  0  0
 26 30  2  0  0  0  0
 27 35  1  0  0  0  0
 27 39  1  1  0  0  0
 28 21  1  0  0  0  0
 29 20  1  1  0  0  0
 29 34  1  0  0  0  0
 29  4  1  0  0  0  0
 30  9  1  0  0  0  0
 31  3  1  0  0  0  0
 33 34  1  0  0  0  0
 34 18  2  0  0  0  0
 36 35  1  0  0  0  0
 37 32  1  6  0  0  0
 37 11  1  0  0  0  0
 39 38  2  1  0  0  0
 39 40  1  0  0  0  0
 41 40  1  0  0  0  0
 41 48  1  0  0  0  0
 42 47  1  0  0  0  0
 42 50  2  0  0  0  0
 43 44  1  0  0  0  0
 44 47  1  0  0  0  0
 45 46  1  0  0  0  0
 45 48  1  0  0  0  0
 46 49  1  6  0  0  0
 46 43  1  0  0  0  0
 48 42  1  0  0  0  0
M  END
>  <MODEL>
5

>  <REMARK>
 VINA RESULT:      -5.0      3.444      5.852
  Name = 
  4 active torsions:
  status: ('A' for Active; 'I' for Inactive)
    1  A    between atoms: C_15  and  N_30
    2  A    between atoms: C_15  and  C_34
    3  A    between atoms: C_34  and  P_46
    4  A    between atoms: C_37  and  P_46
                            x       y       z     vdW  Elec       q    Type
                         _______ _______ _______ _____ _____    ______ ____

>  <TORSDO>
F 4

$$$$
=
 OpenBabel11062414253D

 50 57  0  0  1  0  0  0  0  0999 V2000
  181.9500  176.2570  138.2680 C   0  0  0  0  0  2  0  0  0  0  0  0
  182.7280  176.6500  140.4880 O   0  0  0  0  0  0  0  0  0  0  0  0
  184.4560  178.1230  141.1830 C   0  0  0  0  0  0  0  0  0  0  0  0
  190.9750  176.7160  141.1300 C   0  0  0  0  0  2  0  0  0  0  0  0
  185.3830  178.0890  145.4020 O   0  0  0  0  0  0  0  0  0  0  0  0
  184.2610  179.7350  143.9710 C   0  0  0  0  0  2  0  0  0  0  0  0
  183.9030  179.3210  141.4690 C   0  0  0  0  0  3  0  0  0  0  0  0
  186.0030  178.0990  143.1500 C   0  0  1  0  0  3  0  0  0  0  0  0
  188.2910  178.0260  138.9280 O   0  0  0  0  0  0  0  0  0  0  0  0
  187.1710  176.9020  146.2780 O   0  0  0  0  0  0  0  0  0  0  0  0
  185.7250  177.4400  134.8960 C   0  0  0  0  0  2  0  0  0  0  0  0
  183.8970  177.2990  140.0590 C   0  0  2  0  0  3  0  0  0  0  0  0
  184.5880  177.8370  135.8570 C   0  0  0  0  0  2  0  0  0  0  0  0
  187.0140  177.2560  137.0750 C   0  0  2  0  0  3  0  0  0  0  0  0
  189.3320  178.3140  136.7730 C   0  0  0  0  0  2  0  0  0  0  0  0
  184.3710  180.2780  142.5360 C   0  0  0  0  0  2  0  0  0  0  0  0
  182.9680  177.2550  137.6840 C   0  0  1  0  0  3  0  0  0  0  0  0
  188.3220  177.6210  141.3350 C   0  0  0  0  0  3  0  0  0  0  0  0
  184.8480  178.3340  144.1170 C   0  0  1  0  0  3  0  0  0  0  0  0
  191.0680  176.6710  143.6190 C   0  0  0  0  0  1  0  0  0  0  0  0
  186.9540  177.1380  143.8740 C   0  0  2  0  0  3  0  0  0  0  0  0
  182.4830  175.6350  139.5520 C   0  0  0  0  0  2  0  0  0  0  0  0
  188.4240  177.4330  137.6470 C   0  0  1  0  0  3  0  0  0  0  0  0
  188.8370  178.4980  135.3380 C   0  0  0  0  0  2  0  0  0  0  0  0
  183.6310  178.1190  138.7790 C   0  0  0  0  0  2  0  0  0  0  0  0
  190.2450  177.2160  139.9590 N   0  0  0  0  0  0  0  0  0  0  0  0
  183.9340  176.6670  136.6190 C   0  0  2  0  0  0  0  0  0  0  0  0
  186.5420  177.3490  145.2840 C   0  0  0  0  0  0  0  0  0  0  0  0
  190.5090  177.4140  142.4200 C   0  0  2  0  0  3  0  0  0  0  0  0
  189.0030  177.5990  140.0420 C   0  0  0  0  0  0  0  0  0  0  0  0
  185.4950  177.5470  141.9400 O   0  0  0  0  0  0  0  0  0  0  0  0
  188.2270  177.2070  134.8120 C   0  0  0  0  0  2  0  0  0  0  0  0
  188.3270  177.5080  143.7080 O   0  0  0  0  0  0  0  0  0  0  0  0
  189.0000  177.4880  142.4750 C   0  0  0  0  0  0  0  0  0  0  0  0
  184.9560  175.6990  137.2540 C   0  0  0  0  0  2  0  0  0  0  0  0
  186.1610  176.3380  137.9630 C   0  0  0  0  0  2  0  0  0  0  0  0
  186.9620  176.8480  135.5900 C   0  0  2  0  0  3  0  0  0  0  0  0
  181.7740  176.3720  134.7510 O   0  0  0  0  0  0  0  0  0  0  0  0
  182.9760  175.7120  135.3880 P   0  0  1  0  0  4  0  0  0  0  0  0
  183.3990  174.0240  134.8660 C   0  0  0  0  0  2  0  0  0  0  0  0
  182.1420  173.1810  134.7000 C   0  0  0  0  0  2  0  0  0  0  0  0
  181.8770  170.8820  135.6220 C   0  0  0  0  0  0  0  0  0  0  0  0
  179.2410  171.8040  136.6370 C   0  0  0  0  0  2  0  0  0  0  0  0
  179.5000  170.3740  136.1630 C   0  0  0  0  0  2  0  0  0  0  0  0
  181.5150  172.8810  137.0990 C   0  0  0  0  0  2  0  0  0  0  0  0
  180.2750  172.1970  137.6900 C   0  0  1  0  0  3  0  0  0  0  0  0
  180.6030  170.3000  135.1080 C   0  0  0  0  0  2  0  0  0  0  0  0
  181.9590  172.2920  135.8380 N   0  0  0  0  0  0  0  0  0  0  0  0
  179.6610  173.0800  138.6630 N   0  0  0  0  0  1  0  0  0  0  0  0
  182.8460  170.1360  135.9180 O   0  0  0  0  0  0  0  0  0  0  0  0
  1 22  1  0  0  0  0
  3  7  2  0  0  0  0
  3 31  1  0  0  0  0
  4 29  1  0  0  0  0
  7 16  1  0  0  0  0
  8 31  1  6  0  0  0
  8 21  1  0  0  0  0
  8 19  1  0  0  0  0
  9 30  1  0  0  0  0
 11 37  1  0  0  0  0
 11 13  1  0  0  0  0
 12 25  1  6  0  0  0
 12  2  1  0  0  0  0
 12  3  1  0  0  0  0
 13 27  1  0  0  0  0
 14 23  1  0  0  0  0
 14 36  1  1  0  0  0
 16  6  1  0  0  0  0
 17  1  1  1  0  0  0
 17 25  1  0  0  0  0
 18 34  2  0  0  0  0
 19  6  1  1  0  0  0
 19  5  1  0  0  0  0
 21 33  1  1  0  0  0
 21 28  1  0  0  0  0
 22  2  1  0  0  0  0
 23 15  1  6  0  0  0
 23  9  1  0  0  0  0
 24 15  1  0  0  0  0
 26 30  2  0  0  0  0
 26  4  1  0  0  0  0
 27 39  1  6  0  0  0
 27 35  1  0  0  0  0
 27 17  1  0  0  0  0
 28  5  1  0  0  0  0
 28 10  2  0  0  0  0
 29 34  1  0  0  0  0
 29 20  1  1  0  0  0
 30 18  1  0  0  0  0
 32 24  1  0  0  0  0
 34 33  1  0  0  0  0
 35 36  1  0  0  0  0
 37 32  1  6  0  0  0
 37 14  1  0  0  0  0
 39 38  2  6  0  0  0
 40 39  1  0  0  0  0
 41 40  1  0  0  0  0
 41 48  1  0  0  0  0
 42 48  1  0  0  0  0
 42 50  2  0  0  0  0
 43 46  1  0  0  0  0
 44 43  1  0  0  0  0
 45 46  1  0  0  0  0
 46 49  1  1  0  0  0
 47 42  1  0  0  0  0
 47 44  1  0  0  0  0
 48 45  1  0  0  0  0
M  END
>  <MODEL>
6

>  <REMARK>
 VINA RESULT:      -4.5      4.176      8.395
  Name = 
  4 active torsions:
  status: ('A' for Active; 'I' for Inactive)
    1  A    between atoms: C_15  and  N_30
    2  A    between atoms: C_15  and  C_34
    3  A    between atoms: C_34  and  P_46
    4  A    between atoms: C_37  and  P_46
                            x       y       z     vdW  Elec       q    Type
                         _______ _______ _______ _____ _____    ______ ____

>  <TORSDO>
F 4

$$$$
=
 OpenBabel11062414253D

 50 57  0  0  1  0  0  0  0  0999 V2000
  186.4300  175.6350  135.3660 C   0  0  0  0  0  2  0  0  0  0  0  0
  184.8290  176.5020  136.9070 O   0  0  0  0  0  0  0  0  0  0  0  0
  185.1420  178.2230  138.5140 C   0  0  0  0  0  0  0  0  0  0  0  0
  187.7870  177.4000  144.5800 C   0  0  0  0  0  2  0  0  0  0  0  0
  181.7600  179.0580  141.0690 O   0  0  0  0  0  0  0  0  0  0  0  0
  182.7800  180.3040  139.2180 C   0  0  0  0  0  2  0  0  0  0  0  0
  184.8090  179.4010  137.9440 C   0  0  0  0  0  3  0  0  0  0  0  0
  184.0410  178.7020  140.7100 C   0  0  1  0  0  3  0  0  0  0  0  0
  188.7850  178.0380  141.0630 O   0  0  0  0  0  0  0  0  0  0  0  0
  181.5840  178.2150  143.2210 O   0  0  0  0  0  0  0  0  0  0  0  0
  191.2160  176.4890  137.2060 C   0  0  0  0  0  2  0  0  0  0  0  0
  185.7980  177.1580  137.6830 C   0  0  2  0  0  3  0  0  0  0  0  0
  189.9230  176.9590  136.5110 C   0  0  0  0  0  2  0  0  0  0  0  0
  189.7930  176.8280  139.2810 C   0  0  2  0  0  3  0  0  0  0  0  0
  191.1940  178.0070  141.0790 C   0  0  0  0  0  2  0  0  0  0  0  0
  184.1820  180.5780  138.6490 C   0  0  0  0  0  2  0  0  0  0  0  0
  187.5200  176.5910  135.8870 C   0  0  1  0  0  3  0  0  0  0  0  0
  186.5910  178.0950  142.1340 C   0  0  0  0  0  3  0  0  0  0  0  0
  182.7130  179.0120  140.0260 C   0  0  1  0  0  3  0  0  0  0  0  0
  185.5960  177.8290  145.6830 C   0  0  0  0  0  1  0  0  0  0  0  0
  183.6720  177.9790  142.0110 C   0  0  2  0  0  3  0  0  0  0  0  0
  185.4260  175.3120  136.4660 C   0  0  0  0  0  2  0  0  0  0  0  0
  189.9070  177.2300  140.7550 C   0  0  1  0  0  3  0  0  0  0  0  0
  192.2910  177.8760  140.0200 C   0  0  0  0  0  2  0  0  0  0  0  0
  186.9390  177.6980  136.7930 C   0  0  0  0  0  2  0  0  0  0  0  0
  188.5900  177.6070  143.3680 N   0  0  0  0  0  0  0  0  0  0  0  0
  188.8060  175.9000  136.4170 C   0  0  2  0  0  0  0  0  0  0  0  0
  182.2630  178.4130  142.1800 C   0  0  0  0  0  0  0  0  0  0  0  0
  186.5280  178.2840  144.5750 C   0  0  2  0  0  3  0  0  0  0  0  0
  188.0350  177.8900  142.2240 C   0  0  0  0  0  0  0  0  0  0  0  0
  184.8320  177.8910  139.8470 O   0  0  0  0  0  0  0  0  0  0  0  0
  192.3290  176.4610  139.4600 C   0  0  0  0  0  2  0  0  0  0  0  0
  184.4570  178.4280  143.1210 O   0  0  0  0  0  0  0  0  0  0  0  0
  185.8440  178.2370  143.2280 C   0  0  0  0  0  0  0  0  0  0  0  0
  188.5470  175.1600  137.7470 C   0  0  0  0  0  2  0  0  0  0  0  0
  188.5130  176.0220  139.0190 C   0  0  0  0  0  2  0  0  0  0  0  0
  191.0440  176.1460  138.6950 C   0  0  2  0  0  3  0  0  0  0  0  0
  188.3540  173.6760  134.6580 O   0  0  0  0  0  0  0  0  0  0  0  0
  189.3700  174.6530  135.2040 P   0  0  1  0  0  4  0  0  0  0  0  0
  191.0780  174.5350  134.5940 C   0  0  0  0  0  2  0  0  0  0  0  0
  191.8330  173.4290  135.3180 C   0  0  0  0  0  2  0  0  0  0  0  0
  194.1420  172.5110  135.5000 C   0  0  0  0  0  0  0  0  0  0  0  0
  194.6630  174.7290  137.4070 C   0  0  0  0  0  2  0  0  0  0  0  0
  195.3100  173.3500  137.5320 C   0  0  0  0  0  2  0  0  0  0  0  0
  193.7900  174.9500  135.0120 C   0  0  0  0  0  2  0  0  0  0  0  0
  194.9060  175.2910  136.0090 C   0  0  1  0  0  3  0  0  0  0  0  0
  194.4430  172.2420  136.9360 C   0  0  0  0  0  2  0  0  0  0  0  0
  193.2710  173.5920  135.1630 N   0  0  0  0  0  0  0  0  0  0  0  0
  195.0520  176.7330  136.0860 N   0  0  0  0  0  1  0  0  0  0  0  0
  194.6940  171.8340  134.5940 O   0  0  0  0  0  0  0  0  0  0  0  0
  1 22  1  0  0  0  0
  2 12  1  0  0  0  0
  3 31  1  0  0  0  0
  5 28  1  0  0  0  0
  7  3  2  0  0  0  0
  7 16  1  0  0  0  0
  8 31  1  6  0  0  0
  8 21  1  0  0  0  0
  9 30  1  0  0  0  0
 12 25  1  6  0  0  0
 12  3  1  0  0  0  0
 13 11  1  0  0  0  0
 14 36  1  1  0  0  0
 14 23  1  0  0  0  0
 16  6  1  0  0  0  0
 17  1  1  1  0  0  0
 17 27  1  0  0  0  0
 17 25  1  0  0  0  0
 18 30  1  0  0  0  0
 18 34  2  0  0  0  0
 19  6  1  1  0  0  0
 19  8  1  0  0  0  0
 19  5  1  0  0  0  0
 21 28  1  1  0  0  0
 21 33  1  0  0  0  0
 22  2  1  0  0  0  0
 23  9  1  0  0  0  0
 23 15  1  6  0  0  0
 24 15  1  0  0  0  0
 26  4  1  0  0  0  0
 27 39  1  6  0  0  0
 27 13  1  0  0  0  0
 27 35  1  0  0  0  0
 28 10  2  0  0  0  0
 29  4  1  0  0  0  0
 29 20  1  1  0  0  0
 30 26  2  0  0  0  0
 32 24  1  0  0  0  0
 33 34  1  0  0  0  0
 34 29  1  0  0  0  0
 35 36  1  0  0  0  0
 37 11  1  6  0  0  0
 37 14  1  0  0  0  0
 37 32  1  0  0  0  0
 39 38  2  6  0  0  0
 40 39  1  0  0  0  0
 40 41  1  0  0  0  0
 42 47  1  0  0  0  0
 43 44  1  0  0  0  0
 45 48  1  0  0  0  0
 45 46  1  0  0  0  0
 46 49  1  1  0  0  0
 46 43  1  0  0  0  0
 47 44  1  0  0  0  0
 48 41  1  0  0  0  0
 48 42  1  0  0  0  0
 50 42  2  0  0  0  0
M  END
>  <MODEL>
7

>  <REMARK>
 VINA RESULT:      -4.3      4.476     11.095
  Name = 
  4 active torsions:
  status: ('A' for Active; 'I' for Inactive)
    1  A    between atoms: C_15  and  N_30
    2  A    between atoms: C_15  and  C_34
    3  A    between atoms: C_34  and  P_46
    4  A    between atoms: C_37  and  P_46
                            x       y       z     vdW  Elec       q    Type
                         _______ _______ _______ _____ _____    ______ ____

>  <TORSDO>
F 4

$$$$
=
 OpenBabel11062414253D

 50 57  0  0  1  0  0  0  0  0999 V2000
  186.9720  176.0980  135.6700 C   0  0  0  0  0  2  0  0  0  0  0  0
  185.1240  176.8780  136.9600 O   0  0  0  0  0  0  0  0  0  0  0  0
  185.1350  178.5410  138.6560 C   0  0  0  0  0  0  0  0  0  0  0  0
  186.7810  177.5280  145.0390 C   0  0  0  0  0  2  0  0  0  0  0  0
  181.3660  179.2210  140.6550 O   0  0  0  0  0  0  0  0  0  0  0  0
  182.6430  180.5540  139.0410 C   0  0  0  0  0  2  0  0  0  0  0  0
  184.8710  179.7350  138.0820 C   0  0  0  0  0  3  0  0  0  0  0  0
  183.6820  178.9160  140.6600 C   0  0  1  0  0  3  0  0  0  0  0  0
  188.3200  178.3180  141.7560 O   0  0  0  0  0  0  0  0  0  0  0  0
  180.8620  178.2930  142.7190 O   0  0  0  0  0  0  0  0  0  0  0  0
  191.3770  176.9590  138.2930 C   0  0  0  0  0  2  0  0  0  0  0  0
  185.9400  177.5200  137.9060 C   0  0  2  0  0  3  0  0  0  0  0  0
  190.2030  177.4340  137.4140 C   0  0  0  0  0  2  0  0  0  0  0  0
  189.6300  177.1940  140.1200 C   0  0  2  0  0  3  0  0  0  0  0  0
  190.6950  178.3250  142.1620 C   0  0  0  0  0  2  0  0  0  0  0  0
  184.1130  180.8730  138.7170 C   0  0  0  0  0  2  0  0  0  0  0  0
  187.9420  177.0510  136.3950 C   0  0  1  0  0  3  0  0  0  0  0  0
  185.9810  178.2960  142.4570 C   0  0  0  0  0  3  0  0  0  0  0  0
  182.4750  179.2310  139.7810 C   0  0  1  0  0  3  0  0  0  0  0  0
  184.4310  177.8780  145.7850 C   0  0  0  0  0  1  0  0  0  0  0  0
  183.1230  178.1370  141.8570 C   0  0  2  0  0  3  0  0  0  0  0  0
  185.8110  175.7170  136.5800 C   0  0  0  0  0  2  0  0  0  0  0  0
  189.4950  177.5400  141.6060 C   0  0  1  0  0  3  0  0  0  0  0  0
  191.9510  178.2530  141.2910 C   0  0  0  0  0  2  0  0  0  0  0  0
  187.1970  178.1130  137.2340 C   0  0  0  0  0  2  0  0  0  0  0  0
  187.7640  177.7950  143.9820 N   0  0  0  0  0  0  0  0  0  0  0  0
  189.1410  176.3610  137.1020 C   0  0  2  0  0  0  0  0  0  0  0  0
  181.6970  178.5410  141.8100 C   0  0  0  0  0  0  0  0  0  0  0  0
  185.5190  178.3900  144.8610 C   0  0  2  0  0  3  0  0  0  0  0  0
  187.3960  178.1120  142.7740 C   0  0  0  0  0  0  0  0  0  0  0  0
  184.6200  178.1520  139.9090 O   0  0  0  0  0  0  0  0  0  0  0  0
  192.1110  176.8620  140.6960 C   0  0  0  0  0  2  0  0  0  0  0  0
  183.7080  178.5570  143.0950 O   0  0  0  0  0  0  0  0  0  0  0  0
  185.0640  178.3840  143.4200 C   0  0  0  0  0  0  0  0  0  0  0  0
  188.6870  175.5660  138.3450 C   0  0  0  0  0  2  0  0  0  0  0  0
  188.4270  176.3770  139.6240 C   0  0  0  0  0  2  0  0  0  0  0  0
  190.9750  176.5560  139.7210 C   0  0  2  0  0  3  0  0  0  0  0  0
  189.2200  173.8570  135.7010 O   0  0  0  0  0  0  0  0  0  0  0  0
  189.9220  175.1710  135.9530 P   0  0  1  0  0  4  0  0  0  0  0  0
  191.4810  175.4880  135.0750 C   0  0  0  0  0  2  0  0  0  0  0  0
  192.5110  174.4160  135.4040 C   0  0  0  0  0  2  0  0  0  0  0  0
  194.4330  175.9200  135.9050 C   0  0  0  0  0  0  0  0  0  0  0  0
  195.9670  173.4420  136.4860 C   0  0  0  0  0  2  0  0  0  0  0  0
  196.5980  174.6900  135.8700 C   0  0  0  0  0  2  0  0  0  0  0  0
  193.7540  174.1520  137.5550 C   0  0  0  0  0  2  0  0  0  0  0  0
  195.2340  173.8120  137.7730 C   0  0  1  0  0  3  0  0  0  0  0  0
  195.5960  175.5130  135.0630 C   0  0  0  0  0  2  0  0  0  0  0  0
  193.5070  174.9220  136.3380 N   0  0  0  0  0  0  0  0  0  0  0  0
  195.3380  172.7170  138.7200 N   0  0  0  0  0  1  0  0  0  0  0  0
  194.3030  177.1140  136.2800 O   0  0  0  0  0  0  0  0  0  0  0  0
  1 22  1  0  0  0  0
  2 12  1  0  0  0  0
  3 31  1  0  0  0  0
  5 28  1  0  0  0  0
  7  3  2  0  0  0  0
  7 16  1  0  0  0  0
  8 31  1  6  0  0  0
  8 21  1  0  0  0  0
  9 30  1  0  0  0  0
 12 25  1  6  0  0  0
 12  3  1  0  0  0  0
 13 11  1  0  0  0  0
 14 36  1  1  0  0  0
 14 23  1  0  0  0  0
 16  6  1  0  0  0  0
 17  1  1  1  0  0  0
 17 27  1  0  0  0  0
 17 25  1  0  0  0  0
 18 30  1  0  0  0  0
 18 34  2  0  0  0  0
 19  6  1  1  0  0  0
 19  5  1  0  0  0  0
 19  8  1  0  0  0  0
 21 28  1  1  0  0  0
 21 33  1  0  0  0  0
 22  2  1  0  0  0  0
 23  9  1  0  0  0  0
 23 15  1  6  0  0  0
 24 15  1  0  0  0  0
 26  4  1  0  0  0  0
 27 39  1  6  0  0  0
 27 13  1  0  0  0  0
 27 35  1  0  0  0  0
 28 10  2  0  0  0  0
 29  4  1  0  0  0  0
 29 20  1  1  0  0  0
 30 26  2  0  0  0  0
 32 24  1  0  0  0  0
 33 34  1  0  0  0  0
 34 29  1  0  0  0  0
 35 36  1  0  0  0  0
 37 11  1  6  0  0  0
 37 14  1  0  0  0  0
 37 32  1  0  0  0  0
 39 38  2  6  0  0  0
 40 41  1  0  0  0  0
 40 39  1  0  0  0  0
 41 48  1  0  0  0  0
 42 50  2  0  0  0  0
 42 48  1  0  0  0  0
 43 46  1  0  0  0  0
 44 43  1  0  0  0  0
 45 46  1  0  0  0  0
 46 49  1  1  0  0  0
 47 44  1  0  0  0  0
 47 42  1  0  0  0  0
 48 45  1  0  0  0  0
M  END
>  <MODEL>
8

>  <REMARK>
 VINA RESULT:      -4.2      4.466     11.231
  Name = 
  4 active torsions:
  status: ('A' for Active; 'I' for Inactive)
    1  A    between atoms: C_15  and  N_30
    2  A    between atoms: C_15  and  C_34
    3  A    between atoms: C_34  and  P_46
    4  A    between atoms: C_37  and  P_46
                            x       y       z     vdW  Elec       q    Type
                         _______ _______ _______ _____ _____    ______ ____

>  <TORSDO>
F 4

$$$$
=
 OpenBabel11062414253D

 50 57  0  0  1  0  0  0  0  0999 V2000
  191.4300  177.5040  139.2180 C   0  0  0  0  0  2  0  0  0  0  0  0
  192.1000  176.9760  141.4450 O   0  0  0  0  0  0  0  0  0  0  0  0
  190.8020  175.9500  143.1490 C   0  0  0  0  0  0  0  0  0  0  0  0
  186.5190  179.1130  147.1640 C   0  0  0  0  0  2  0  0  0  0  0  0
  192.7270  175.5310  146.9940 O   0  0  0  0  0  0  0  0  0  0  0  0
  192.1290  173.9030  145.2600 C   0  0  0  0  0  2  0  0  0  0  0  0
  190.9900  174.6150  143.0800 C   0  0  0  0  0  3  0  0  0  0  0  0
  190.8970  176.0740  145.6470 C   0  0  1  0  0  3  0  0  0  0  0  0
  186.6850  177.4950  143.8290 O   0  0  0  0  0  0  0  0  0  0  0  0
  192.3550  177.0060  148.7430 O   0  0  0  0  0  0  0  0  0  0  0  0
  186.2590  178.0100  139.0600 C   0  0  0  0  0  2  0  0  0  0  0  0
  190.7840  176.7620  141.8860 C   0  0  2  0  0  3  0  0  0  0  0  0
  187.5400  177.1550  139.1030 C   0  0  0  0  0  2  0  0  0  0  0  0
  186.7210  178.1780  141.5500 C   0  0  2  0  0  3  0  0  0  0  0  0
  184.5220  177.8780  142.8370 C   0  0  0  0  0  2  0  0  0  0  0  0
  190.9960  173.6620  144.2480 C   0  0  0  0  0  2  0  0  0  0  0  0
  190.0150  176.9440  139.4600 C   0  0  1  0  0  3  0  0  0  0  0  0
  188.2670  177.4810  145.6880 C   0  0  0  0  0  3  0  0  0  0  0  0
  192.2470  175.3660  145.6750 C   0  0  1  0  0  3  0  0  0  0  0  0
  187.9890  178.7630  149.1430 C   0  0  0  0  0  1  0  0  0  0  0  0
  190.9640  177.1270  146.7600 C   0  0  2  0  0  3  0  0  0  0  0  0
  192.0320  178.0240  140.5160 C   0  0  0  0  0  2  0  0  0  0  0  0
  185.9970  178.3090  142.8940 C   0  0  1  0  0  3  0  0  0  0  0  0
  183.9420  177.8070  141.4230 C   0  0  0  0  0  2  0  0  0  0  0  0
  189.9280  176.1280  140.7690 C   0  0  0  0  0  2  0  0  0  0  0  0
  186.1670  178.6340  145.8210 N   0  0  0  0  0  0  0  0  0  0  0  0
  188.8560  177.9490  139.2200 C   0  0  2  0  0  0  0  0  0  0  0  0
  192.0560  176.5750  147.5990 C   0  0  0  0  0  0  0  0  0  0  0  0
  187.4190  178.1060  147.9000 C   0  0  2  0  0  3  0  0  0  0  0  0
  186.9910  177.9110  145.1190 C   0  0  0  0  0  0  0  0  0  0  0  0
  190.7020  176.6580  144.3630 O   0  0  0  0  0  0  0  0  0  0  0  0
  184.4760  178.9450  140.5670 C   0  0  0  0  0  2  0  0  0  0  0  0
  189.7510  177.1900  147.5190 O   0  0  0  0  0  0  0  0  0  0  0  0
  188.5170  177.6040  146.9910 C   0  0  0  0  0  0  0  0  0  0  0  0
  188.8190  179.0430  140.3090 C   0  0  0  0  0  2  0  0  0  0  0  0
  188.1770  178.6570  141.6510 C   0  0  0  0  0  2  0  0  0  0  0  0
  185.9820  178.7990  140.3500 C   0  0  2  0  0  3  0  0  0  0  0  0
  189.0550  180.3010  137.5850 O   0  0  0  0  0  0  0  0  0  0  0  0
  189.1030  178.7900  137.6150 P   0  0  1  0  0  4  0  0  0  0  0  0
  189.4300  177.9170  136.0550 C   0  0  0  0  0  2  0  0  0  0  0  0
  188.1830  177.1850  135.5770 C   0  0  0  0  0  2  0  0  0  0  0  0
  187.6580  174.7530  135.4560 C   0  0  0  0  0  0  0  0  0  0  0  0
  190.2740  174.3210  136.7970 C   0  0  0  0  0  2  0  0  0  0  0  0
  189.0570  173.4280  137.0340 C   0  0  0  0  0  2  0  0  0  0  0  0
  189.8680  175.6070  134.6230 C   0  0  0  0  0  2  0  0  0  0  0  0
  190.5630  174.4180  135.3010 C   0  0  1  0  0  3  0  0  0  0  0  0
  187.7380  174.1730  136.8280 C   0  0  0  0  0  2  0  0  0  0  0  0
  188.5130  175.8450  135.1130 N   0  0  0  0  0  0  0  0  0  0  0  0
  191.9950  174.5190  135.0910 N   0  0  0  0  0  1  0  0  0  0  0  0
  186.8930  174.2480  134.5940 O   0  0  0  0  0  0  0  0  0  0  0  0
  1 22  1  0  0  0  0
  2 12  1  0  0  0  0
  3 31  1  0  0  0  0
  4 29  1  0  0  0  0
  5 28  1  0  0  0  0
  7  3  2  0  0  0  0
  7 16  1  0  0  0  0
  8 31  1  6  0  0  0
  8 19  1  0  0  0  0
  8 21  1  0  0  0  0
  9 30  1  0  0  0  0
 11 13  1  0  0  0  0
 12 25  1  6  0  0  0
 12  3  1  0  0  0  0
 13 27  1  0  0  0  0
 14 36  1  1  0  0  0
 14 23  1  0  0  0  0
 16  6  1  0  0  0  0
 17  1  1  1  0  0  0
 17 25  1  0  0  0  0
 18 34  2  0  0  0  0
 19  6  1  1  0  0  0
 19  5  1  0  0  0  0
 21 33  1  1  0  0  0
 21 28  1  0  0  0  0
 22  2  1  0  0  0  0
 23 15  1  6  0  0  0
 23  9  1  0  0  0  0
 24 15  1  0  0  0  0
 26  4  1  0  0  0  0
 27 39  1  6  0  0  0
 27 17  1  0  0  0  0
 27 35  1  0  0  0  0
 28 10  2  0  0  0  0
 29 20  1  1  0  0  0
 30 18  1  0  0  0  0
 30 26  2  0  0  0  0
 32 24  1  0  0  0  0
 34 33  1  0  0  0  0
 34 29  1  0  0  0  0
 35 36  1  0  0  0  0
 37 11  1  6  0  0  0
 37 32  1  0  0  0  0
 37 14  1  0  0  0  0
 39 38  2  1  0  0  0
 40 39  1  0  0  0  0
 41 40  1  0  0  0  0
 42 47  1  0  0  0  0
 43 44  1  0  0  0  0
 45 48  1  0  0  0  0
 45 46  1  0  0  0  0
 46 49  1  1  0  0  0
 46 43  1  0  0  0  0
 47 44  1  0  0  0  0
 48 42  1  0  0  0  0
 48 41  1  0  0  0  0
 50 42  2  0  0  0  0
M  END
>  <MODEL>
9

>  <REMARK>
 VINA RESULT:      -4.2      5.981     10.330
  Name = 
  4 active torsions:
  status: ('A' for Active; 'I' for Inactive)
    1  A    between atoms: C_15  and  N_30
    2  A    between atoms: C_15  and  C_34
    3  A    between atoms: C_34  and  P_46
    4  A    between atoms: C_37  and  P_46
                            x       y       z     vdW  Elec       q    Type
                         _______ _______ _______ _____ _____    ______ ____

>  <TORSDO>
F 4

$$$$
