=
 OpenBabel11062412133D

 55 59  0  0  1  0  0  0  0  0999 V2000
  185.6150  177.9080  139.8000 O   0  0  0  0  0  0  0  0  0  0  0  0
  185.4330  178.8760  140.7960 C   0  0  2  0  0  3  0  0  0  0  0  0
  186.2880  178.6340  142.0460 C   0  0  1  0  0  3  0  0  0  0  0  0
  184.8330  178.2100  142.0240 C   0  0  1  0  0  3  0  0  0  0  0  0
  188.5920  177.8630  141.6660 C   0  0  0  0  0  0  0  0  0  0  0  0
  187.2900  176.7650  143.3150 C   0  0  0  0  0  2  0  0  0  0  0  0
  189.5000  177.7820  142.8510 C   0  0  2  0  0  0  0  0  0  0  0  0
  188.6270  177.1530  143.9450 C   0  0  1  0  0  3  0  0  0  0  0  0
  189.9330  179.0660  143.2020 O   0  0  0  0  0  1  0  0  0  0  0  0
  187.2040  177.4210  141.9500 C   0  0  1  0  0  3  0  0  0  0  0  0
  189.0060  178.1470  140.4300 C   0  0  0  0  0  2  0  0  0  0  0  0
  190.4350  175.4220  143.0630 C   0  0  0  0  0  1  0  0  0  0  0  0
  190.6980  176.8560  142.6200 C   0  0  0  0  0  2  0  0  0  0  0  0
  188.4110  178.0370  145.1720 C   0  0  0  0  0  2  0  0  0  0  0  0
  189.7000  178.1930  145.9700 C   0  0  0  0  0  2  0  0  0  0  0  0
  189.5940  177.4980  147.3220 C   0  0  1  0  0  3  0  0  0  0  0  0
  188.0260  176.0850  148.6680 C   0  0  0  0  0  1  0  0  0  0  0  0
  188.1320  177.2420  147.6820 C   0  0  1  0  0  3  0  0  0  0  0  0
  187.4970  178.4850  148.2960 C   0  0  0  0  0  2  0  0  0  0  0  0
  185.8410  180.1360  147.7880 O   0  0  0  0  0  1  0  0  0  0  0  0
  186.1470  178.7790  147.6570 C   0  0  0  0  0  2  0  0  0  0  0  0
  190.3010  176.2670  147.2620 O   0  0  0  0  0  0  0  0  0  0  0  0
  192.2270  176.8330  146.1460 O   0  0  0  0  0  0  0  0  0  0  0  0
  192.4770  175.4770  147.9750 O   0  0  0  0  0  1  0  0  0  0  0  0
  191.6860  176.2180  147.1030 C   0  0  0  0  0  0  0  0  0  0  0  0
  184.0090  179.2190  142.8090 C   0  0  0  0  0  2  0  0  0  0  0  0
  183.6270  178.9160  145.2580 C   0  0  0  0  0  1  0  0  0  0  0  0
  184.5840  179.4320  144.1980 C   0  0  0  0  0  2  0  0  0  0  0  0
  185.6000  178.6250  138.5980 C   0  0  0  0  0  2  0  0  0  0  0  0
  185.7800  177.7100  137.4310 C   0  0  0  0  0  0  0  0  0  0  0  0
  184.9550  176.8350  137.2140 O   0  0  0  0  0  0  0  0  0  0  0  0
  188.0230  176.8170  136.8610 C   0  0  0  0  0  0  0  0  0  0  0  0
  188.8730  174.4890  137.1650 C   0  0  0  0  0  2  0  0  0  0  0  0
  187.7980  175.4930  136.8680 C   0  0  0  0  0  3  0  0  0  0  0  0
  190.9560  175.6910  136.4000 C   0  0  2  0  0  3  0  0  0  0  0  0
  189.3190  177.4810  137.0650 C   0  0  1  0  0  3  0  0  0  0  0  0
  189.9910  174.5390  136.1290 C   0  0  0  0  0  2  0  0  0  0  0  0
  190.3250  177.0250  136.0170 C   0  0  0  0  0  2  0  0  0  0  0  0
  187.0080  177.8390  136.5780 C   0  0  2  0  0  3  0  0  0  0  0  0
  187.6610  179.1170  136.8250 N   0  0  0  0  0  2  0  0  0  0  0  0
  189.0590  178.9070  136.8820 N   0  0  0  0  0  2  0  0  0  0  0  0
  193.4410  176.0500  136.2900 C   0  0  0  0  0  2  0  0  0  0  0  0
  193.2250  174.5520  136.2670 C   0  0  2  0  0  0  0  0  0  0  0  0
  192.2190  175.4630  135.5730 C   0  0  1  0  0  3  0  0  0  0  0  0
  192.8160  173.9530  137.4630 O   0  0  0  0  0  1  0  0  0  0  0  0
  194.0030  173.7840  135.3850 O   0  0  0  0  0  0  0  0  0  0  0  0
  194.6620  172.8100  136.1550 C   0  0  1  0  0  3  0  0  0  0  0  0
  194.6450  171.4460  135.4640 C   0  0  0  0  0  2  0  0  0  0  0  0
  194.3820  170.4260  136.3820 O   0  0  0  0  0  0  0  0  0  0  0  0
  193.1720  169.8730  135.9590 C   0  0  0  0  0  1  0  0  0  0  0  0
  196.0650  173.2750  136.5580 C   0  0  0  0  0  2  0  0  0  0  0  0
  197.0530  174.8790  139.9530 C   0  0  0  0  0  1  0  0  0  0  0  0
  197.7290  175.3190  137.7210 O   0  0  0  0  0  0  0  0  0  0  0  0
  197.0120  174.6280  138.4910 C   0  0  0  0  0  0  0  0  0  0  0  0
  196.1580  173.6040  137.9780 N   0  0  0  0  0  2  0  0  0  0  0  0
  2  1  1  6  0  0  0
  2  4  1  0  0  0  0
  2  3  1  0  0  0  0
  3 10  1  6  0  0  0
  4  3  1  0  0  0  0
  4 26  1  1  0  0  0
  5 10  1  0  0  0  0
  5  7  1  0  0  0  0
  6  8  1  0  0  0  0
  7  9  1  1  0  0  0
  7  8  1  0  0  0  0
  8 14  1  1  0  0  0
 10  6  1  1  0  0  0
 11  5  2  0  0  0  0
 13  7  1  0  0  0  0
 13 12  1  0  0  0  0
 14 15  1  0  0  0  0
 16 15  1  6  0  0  0
 16 18  1  0  0  0  0
 18 19  1  0  0  0  0
 18 17  1  1  0  0  0
 21 20  1  0  0  0  0
 21 19  1  0  0  0  0
 22 16  1  0  0  0  0
 23 25  2  0  0  0  0
 25 22  1  0  0  0  0
 25 24  1  0  0  0  0
 26 28  1  0  0  0  0
 28 27  1  0  0  0  0
 29  1  1  0  0  0  0
 30 29  1  0  0  0  0
 31 30  2  0  0  0  0
 32 34  2  0  0  0  0
 32 36  1  0  0  0  0
 34 33  1  0  0  0  0
 35 38  1  6  0  0  0
 36 38  1  6  0  0  0
 37 35  1  0  0  0  0
 37 33  1  0  0  0  0
 39 40  1  0  0  0  0
 39 32  1  0  0  0  0
 39 30  1  1  0  0  0
 40 41  1  0  0  0  0
 41 36  1  0  0  0  0
 43 42  1  0  0  0  0
 43 45  1  1  0  0  0
 44 43  1  0  0  0  0
 44 42  1  1  0  0  0
 44 35  1  0  0  0  0
 46 47  1  0  0  0  0
 46 43  1  0  0  0  0
 47 48  1  6  0  0  0
 47 51  1  0  0  0  0
 48 49  1  0  0  0  0
 50 49  1  0  0  0  0
 51 55  1  0  0  0  0
 53 54  2  0  0  0  0
 54 52  1  0  0  0  0
 55 54  1  0  0  0  0
M  END
>  <MODEL>
1

>  <REMARK>
 VINA RESULT:      -6.6      0.000      0.000
  Name = 
  23 active torsions:
  status: ('A' for Active; 'I' for Inactive)
    1  A    between atoms: O_4  and  C_48
    2  A    between atoms: C_7  and  C_44
    3  A    between atoms: C_10  and  C_32
    4  A    between atoms: C_10  and  O_33
    5  A    between atoms: C_10  and  C_41
    6  A    between atoms: C_14  and  C_41
    7  A    between atoms: C_14  and  C_43
    8  A    between atoms: C_15  and  C_21
    9  A    between atoms: C_15  and  C_28
   10  A    between atoms: C_16  and  O_37
   11  A    between atoms: C_18  and  C_31
   12  A    between atoms: C_19  and  C_38
   13  A    between atoms: C_21  and  O_37
   14  A    between atoms: C_25  and  O_50
   15  A    between atoms: C_26  and  C_46
   16  A    between atoms: C_26  and  C_48
   17  A    between atoms: C_26  and  O_50
   18  A    between atoms: C_29  and  C_40
   19  A    between atoms: C_32  and  C_40
   20  A    between atoms: O_33  and  C_45
   21  A    between atoms: C_46  and  N_51
   22  A    between atoms: C_53  and  C_54
   23  A    between atoms: C_54  and  C_55
                            x       y       z     vdW  Elec       q    Type
                         _______ _______ _______ _____ _____    ______ ____

>  <TORSDO>
F 23

$$$$
=
 OpenBabel11062412133D

 55 59  0  0  1  0  0  0  0  0999 V2000
  185.8870  177.6310  139.4910 O   0  0  0  0  0  0  0  0  0  0  0  0
  185.6820  178.6640  140.4150 C   0  0  2  0  0  3  0  0  0  0  0  0
  186.5650  178.5520  141.6630 C   0  0  1  0  0  3  0  0  0  0  0  0
  185.1300  178.0700  141.7010 C   0  0  1  0  0  3  0  0  0  0  0  0
  188.8940  177.8480  141.2970 C   0  0  0  0  0  0  0  0  0  0  0  0
  187.6660  176.8270  143.0500 C   0  0  0  0  0  2  0  0  0  0  0  0
  189.8240  177.8940  142.4660 C   0  0  2  0  0  0  0  0  0  0  0  0
  188.9960  177.3160  143.6220 C   0  0  1  0  0  3  0  0  0  0  0  0
  190.2090  179.2170  142.7100 O   0  0  0  0  0  1  0  0  0  0  0  0
  187.5290  177.3730  141.6410 C   0  0  1  0  0  3  0  0  0  0  0  0
  189.2740  178.0520  140.0350 C   0  0  0  0  0  2  0  0  0  0  0  0
  192.0380  177.0980  143.4420 C   0  0  0  0  0  1  0  0  0  0  0  0
  191.0550  177.0020  142.2830 C   0  0  0  0  0  2  0  0  0  0  0  0
  188.7640  178.2820  144.7820 C   0  0  0  0  0  2  0  0  0  0  0  0
  187.4040  178.0500  145.4280 C   0  0  0  0  0  2  0  0  0  0  0  0
  187.5480  177.3200  146.7580 C   0  0  1  0  0  3  0  0  0  0  0  0
  188.5400  178.3060  148.8340 C   0  0  0  0  0  1  0  0  0  0  0  0
  188.8430  177.7260  147.4580 C   0  0  1  0  0  3  0  0  0  0  0  0
  189.7780  176.5320  147.6120 C   0  0  0  0  0  2  0  0  0  0  0  0
  191.8880  175.6770  146.8750 O   0  0  0  0  0  1  0  0  0  0  0  0
  191.1680  176.8560  147.0840 C   0  0  0  0  0  2  0  0  0  0  0  0
  186.4320  177.6360  147.5800 O   0  0  0  0  0  0  0  0  0  0  0  0
  184.3550  178.2920  146.8540 O   0  0  0  0  0  0  0  0  0  0  0  0
  185.8620  179.9690  147.2590 O   0  0  0  0  0  1  0  0  0  0  0  0
  185.5110  178.6230  147.2270 C   0  0  0  0  0  0  0  0  0  0  0  0
  184.2770  179.1020  142.4230 C   0  0  0  0  0  2  0  0  0  0  0  0
  181.9060  179.5600  143.0570 C   0  0  0  0  0  1  0  0  0  0  0  0
  182.9730  178.4920  142.9080 C   0  0  0  0  0  2  0  0  0  0  0  0
  185.8610  178.2600  138.2420 C   0  0  0  0  0  2  0  0  0  0  0  0
  186.1370  177.2790  137.1480 C   0  0  0  0  0  0  0  0  0  0  0  0
  185.3900  176.3280  136.9830 O   0  0  0  0  0  0  0  0  0  0  0  0
  188.4730  176.5670  136.7120 C   0  0  0  0  0  0  0  0  0  0  0  0
  189.5430  174.3810  137.2720 C   0  0  0  0  0  2  0  0  0  0  0  0
  188.3820  175.2340  136.8540 C   0  0  0  0  0  3  0  0  0  0  0  0
  191.5150  175.7040  136.4200 C   0  0  2  0  0  3  0  0  0  0  0  0
  189.6900  177.3760  136.8660 C   0  0  1  0  0  3  0  0  0  0  0  0
  190.6780  174.4380  136.2560 C   0  0  0  0  0  2  0  0  0  0  0  0
  190.7650  176.9200  135.8890 C   0  0  0  0  0  2  0  0  0  0  0  0
  187.3690  177.4450  136.3060 C   0  0  2  0  0  3  0  0  0  0  0  0
  187.8850  178.8020  136.4290 N   0  0  0  0  0  2  0  0  0  0  0  0
  189.2950  178.7420  136.5310 N   0  0  0  0  0  2  0  0  0  0  0  0
  193.8770  176.5150  136.1330 C   0  0  0  0  0  2  0  0  0  0  0  0
  193.9710  175.0550  136.5210 C   0  0  2  0  0  0  0  0  0  0  0  0
  192.8170  175.5220  135.6420 C   0  0  1  0  0  3  0  0  0  0  0  0
  193.6660  174.7310  137.8470 O   0  0  0  0  0  1  0  0  0  0  0  0
  194.9090  174.2520  135.8520 O   0  0  0  0  0  0  0  0  0  0  0  0
  195.0600  173.0760  136.6070 C   0  0  1  0  0  3  0  0  0  0  0  0
  194.5750  171.8500  135.8320 C   0  0  0  0  0  2  0  0  0  0  0  0
  194.4040  170.7560  136.6870 O   0  0  0  0  0  0  0  0  0  0  0  0
  194.6030  169.6390  135.8740 C   0  0  0  0  0  1  0  0  0  0  0  0
  196.4890  172.9370  137.1400 C   0  0  0  0  0  2  0  0  0  0  0  0
  197.8240  175.3000  139.9170 C   0  0  0  0  0  1  0  0  0  0  0  0
  198.4560  174.9780  137.6530 O   0  0  0  0  0  0  0  0  0  0  0  0
  197.6880  174.6450  138.5920 C   0  0  0  0  0  0  0  0  0  0  0  0
  196.6850  173.6450  138.4030 N   0  0  0  0  0  2  0  0  0  0  0  0
  2  1  1  6  0  0  0
  2  3  1  0  0  0  0
  2  4  1  0  0  0  0
  3 10  1  6  0  0  0
  3  4  1  0  0  0  0
  4 26  1  1  0  0  0
  5 10  1  0  0  0  0
  5  7  1  0  0  0  0
  6  8  1  0  0  0  0
  7  9  1  1  0  0  0
  7  8  1  0  0  0  0
  8 14  1  1  0  0  0
 10  6  1  1  0  0  0
 11  5  2  0  0  0  0
 13  7  1  0  0  0  0
 13 12  1  0  0  0  0
 14 15  1  0  0  0  0
 16 15  1  6  0  0  0
 16 18  1  0  0  0  0
 16 22  1  0  0  0  0
 18 19  1  0  0  0  0
 18 17  1  1  0  0  0
 20 21  1  0  0  0  0
 21 19  1  0  0  0  0
 23 25  2  0  0  0  0
 25 24  1  0  0  0  0
 25 22  1  0  0  0  0
 26 28  1  0  0  0  0
 28 27  1  0  0  0  0
 29  1  1  0  0  0  0
 30 29  1  0  0  0  0
 31 30  2  0  0  0  0
 32 34  2  0  0  0  0
 32 36  1  0  0  0  0
 34 33  1  0  0  0  0
 35 38  1  6  0  0  0
 36 38  1  6  0  0  0
 37 35  1  0  0  0  0
 37 33  1  0  0  0  0
 39 40  1  0  0  0  0
 39 32  1  0  0  0  0
 39 30  1  1  0  0  0
 40 41  1  0  0  0  0
 41 36  1  0  0  0  0
 42 43  1  0  0  0  0
 43 45  1  1  0  0  0
 44 42  1  1  0  0  0
 44 35  1  0  0  0  0
 44 43  1  0  0  0  0
 46 43  1  0  0  0  0
 46 47  1  0  0  0  0
 47 48  1  6  0  0  0
 47 51  1  0  0  0  0
 48 49  1  0  0  0  0
 50 49  1  0  0  0  0
 51 55  1  0  0  0  0
 53 54  2  0  0  0  0
 54 52  1  0  0  0  0
 55 54  1  0  0  0  0
M  END
>  <MODEL>
2

>  <REMARK>
 VINA RESULT:      -6.2      0.945      2.484
  Name = 
  23 active torsions:
  status: ('A' for Active; 'I' for Inactive)
    1  A    between atoms: O_4  and  C_48
    2  A    between atoms: C_7  and  C_44
    3  A    between atoms: C_10  and  C_32
    4  A    between atoms: C_10  and  O_33
    5  A    between atoms: C_10  and  C_41
    6  A    between atoms: C_14  and  C_41
    7  A    between atoms: C_14  and  C_43
    8  A    between atoms: C_15  and  C_21
    9  A    between atoms: C_15  and  C_28
   10  A    between atoms: C_16  and  O_37
   11  A    between atoms: C_18  and  C_31
   12  A    between atoms: C_19  and  C_38
   13  A    between atoms: C_21  and  O_37
   14  A    between atoms: C_25  and  O_50
   15  A    between atoms: C_26  and  C_46
   16  A    between atoms: C_26  and  C_48
   17  A    between atoms: C_26  and  O_50
   18  A    between atoms: C_29  and  C_40
   19  A    between atoms: C_32  and  C_40
   20  A    between atoms: O_33  and  C_45
   21  A    between atoms: C_46  and  N_51
   22  A    between atoms: C_53  and  C_54
   23  A    between atoms: C_54  and  C_55
                            x       y       z     vdW  Elec       q    Type
                         _______ _______ _______ _____ _____    ______ ____

>  <TORSDO>
F 23

$$$$
=
 OpenBabel11062412133D

 55 59  0  0  1  0  0  0  0  0999 V2000
  185.3540  179.0390  143.7820 O   0  0  0  0  0  0  0  0  0  0  0  0
  186.0070  177.8740  143.3560 C   0  0  2  0  0  3  0  0  0  0  0  0
  187.2180  177.5030  144.2200 C   0  0  1  0  0  3  0  0  0  0  0  0
  187.4140  178.2380  142.9090 C   0  0  1  0  0  3  0  0  0  0  0  0
  186.9460  177.8060  146.6460 C   0  0  0  0  0  0  0  0  0  0  0  0
  188.9460  178.5720  145.6280 C   0  0  0  0  0  2  0  0  0  0  0  0
  188.0280  177.2850  147.5350 C   0  0  2  0  0  0  0  0  0  0  0  0
  189.3250  177.7040  146.8270 C   0  0  1  0  0  3  0  0  0  0  0  0
  187.9200  175.8940  147.6450 O   0  0  0  0  0  1  0  0  0  0  0  0
  187.4520  178.4370  145.4010 C   0  0  1  0  0  3  0  0  0  0  0  0
  185.6590  177.8560  146.9910 C   0  0  0  0  0  2  0  0  0  0  0  0
  189.3550  178.5830  149.2790 C   0  0  0  0  0  1  0  0  0  0  0  0
  188.0240  177.9350  148.9220 C   0  0  0  0  0  2  0  0  0  0  0  0
  190.2160  176.5420  146.3940 C   0  0  0  0  0  2  0  0  0  0  0  0
  191.3100  177.0120  145.4430 C   0  0  0  0  0  2  0  0  0  0  0  0
  191.1440  176.3810  144.0660 C   0  0  1  0  0  3  0  0  0  0  0  0
  191.5220  178.8080  143.5840 C   0  0  0  0  0  1  0  0  0  0  0  0
  191.2290  177.4430  142.9730 C   0  0  1  0  0  3  0  0  0  0  0  0
  192.3190  177.1010  141.9630 C   0  0  0  0  0  2  0  0  0  0  0  0
  192.9320  177.6450  139.7140 O   0  0  0  0  0  1  0  0  0  0  0  0
  191.8430  177.3540  140.5390 C   0  0  0  0  0  2  0  0  0  0  0  0
  192.1650  175.4100  143.8790 O   0  0  0  0  0  0  0  0  0  0  0  0
  192.8020  174.0200  145.5920 O   0  0  0  0  0  1  0  0  0  0  0  0
  191.4150  173.1110  144.0120 O   0  0  0  0  0  0  0  0  0  0  0  0
  192.1420  174.1770  144.5320 C   0  0  0  0  0  0  0  0  0  0  0  0
  187.8920  177.2530  141.8530 C   0  0  0  0  0  2  0  0  0  0  0  0
  187.2560  178.2280  139.6450 C   0  0  0  0  0  1  0  0  0  0  0  0
  188.3940  177.9770  140.6170 C   0  0  0  0  0  2  0  0  0  0  0  0
  184.3520  179.2540  142.8290 C   0  0  0  0  0  2  0  0  0  0  0  0
  183.0000  178.9890  143.4080 C   0  0  0  0  0  0  0  0  0  0  0  0
  182.8490  178.9940  144.6200 O   0  0  0  0  0  0  0  0  0  0  0  0
  182.2730  178.4620  141.0960 C   0  0  0  0  0  0  0  0  0  0  0  0
  183.6260  177.4620  139.2500 C   0  0  0  0  0  2  0  0  0  0  0  0
  183.2410  177.6230  140.6920 C   0  0  0  0  0  3  0  0  0  0  0  0
  181.4740  178.0160  138.0560 C   0  0  2  0  0  3  0  0  0  0  0  0
  181.4140  179.2800  140.2290 C   0  0  1  0  0  3  0  0  0  0  0  0
  182.4700  176.9180  138.4170 C   0  0  0  0  0  2  0  0  0  0  0  0
  180.6300  178.4000  139.2660 C   0  0  0  0  0  2  0  0  0  0  0  0
  181.8600  178.6560  142.4910 C   0  0  2  0  0  3  0  0  0  0  0  0
  180.8990  179.7500  142.4650 N   0  0  0  0  0  2  0  0  0  0  0  0
  180.4760  179.9490  141.1280 N   0  0  0  0  0  2  0  0  0  0  0  0
  180.3140  178.5920  135.9010 C   0  0  0  0  0  2  0  0  0  0  0  0
  181.2620  177.4560  135.5840 C   0  0  2  0  0  0  0  0  0  0  0  0
  180.5690  177.4950  136.9410 C   0  0  1  0  0  3  0  0  0  0  0  0
  182.6270  177.7580  135.5630 O   0  0  0  0  0  1  0  0  0  0  0  0
  180.8070  176.4300  134.7410 O   0  0  0  0  0  0  0  0  0  0  0  0
  180.9270  175.2240  135.4530 C   0  0  1  0  0  3  0  0  0  0  0  0
  179.6040  174.4570  135.4790 C   0  0  0  0  0  2  0  0  0  0  0  0
  179.6870  173.3500  136.3280 O   0  0  0  0  0  0  0  0  0  0  0  0
  179.5160  173.8750  137.6100 C   0  0  0  0  0  1  0  0  0  0  0  0
  182.1070  174.3920  134.9440 C   0  0  0  0  0  2  0  0  0  0  0  0
  184.6760  173.4930  137.7140 C   0  0  0  0  0  1  0  0  0  0  0  0
  182.7590  172.3650  136.8850 O   0  0  0  0  0  0  0  0  0  0  0  0
  183.5050  173.3760  136.8090 C   0  0  0  0  0  0  0  0  0  0  0  0
  183.2430  174.4130  135.8620 N   0  0  0  0  0  2  0  0  0  0  0  0
  2  1  1  1  0  0  0
  2  3  1  0  0  0  0
  3 10  1  1  0  0  0
  4 26  1  6  0  0  0
  4  2  1  0  0  0  0
  4  3  1  0  0  0  0
  5 11  2  0  0  0  0
  5  7  1  0  0  0  0
  6  8  1  0  0  0  0
  7  9  1  1  0  0  0
  7 13  1  0  0  0  0
  8 14  1  6  0  0  0
  8  7  1  0  0  0  0
 10  6  1  1  0  0  0
 10  5  1  0  0  0  0
 13 12  1  0  0  0  0
 15 14  1  0  0  0  0
 16 15  1  1  0  0  0
 18 17  1  1  0  0  0
 18 16  1  0  0  0  0
 19 18  1  0  0  0  0
 20 21  1  0  0  0  0
 21 19  1  0  0  0  0
 22 16  1  0  0  0  0
 22 25  1  0  0  0  0
 24 25  2  0  0  0  0
 25 23  1  0  0  0  0
 27 28  1  0  0  0  0
 28 26  1  0  0  0  0
 29 30  1  0  0  0  0
 29  1  1  0  0  0  0
 30 31  2  0  0  0  0
 32 39  1  0  0  0  0
 33 34  1  0  0  0  0
 34 32  2  0  0  0  0
 35 37  1  1  0  0  0
 35 38  1  0  0  0  0
 36 38  1  6  0  0  0
 36 32  1  0  0  0  0
 36 41  1  0  0  0  0
 37 33  1  0  0  0  0
 39 30  1  1  0  0  0
 40 39  1  0  0  0  0
 41 40  1  0  0  0  0
 43 45  1  6  0  0  0
 43 42  1  0  0  0  0
 43 44  1  0  0  0  0
 44 42  1  6  0  0  0
 44 35  1  0  0  0  0
 46 47  1  0  0  0  0
 46 43  1  0  0  0  0
 47 51  1  6  0  0  0
 47 48  1  0  0  0  0
 48 49  1  0  0  0  0
 49 50  1  0  0  0  0
 51 55  1  0  0  0  0
 54 53  2  0  0  0  0
 54 52  1  0  0  0  0
 55 54  1  0  0  0  0
M  END
>  <MODEL>
3

>  <REMARK>
 VINA RESULT:      -5.3      4.442      8.810
  Name = 
  23 active torsions:
  status: ('A' for Active; 'I' for Inactive)
    1  A    between atoms: O_4  and  C_48
    2  A    between atoms: C_7  and  C_44
    3  A    between atoms: C_10  and  C_32
    4  A    between atoms: C_10  and  O_33
    5  A    between atoms: C_10  and  C_41
    6  A    between atoms: C_14  and  C_41
    7  A    between atoms: C_14  and  C_43
    8  A    between atoms: C_15  and  C_21
    9  A    between atoms: C_15  and  C_28
   10  A    between atoms: C_16  and  O_37
   11  A    between atoms: C_18  and  C_31
   12  A    between atoms: C_19  and  C_38
   13  A    between atoms: C_21  and  O_37
   14  A    between atoms: C_25  and  O_50
   15  A    between atoms: C_26  and  C_46
   16  A    between atoms: C_26  and  C_48
   17  A    between atoms: C_26  and  O_50
   18  A    between atoms: C_29  and  C_40
   19  A    between atoms: C_32  and  C_40
   20  A    between atoms: O_33  and  C_45
   21  A    between atoms: C_46  and  N_51
   22  A    between atoms: C_53  and  C_54
   23  A    between atoms: C_54  and  C_55
                            x       y       z     vdW  Elec       q    Type
                         _______ _______ _______ _____ _____    ______ ____

>  <TORSDO>
F 23

$$$$
=
 OpenBabel11062412133D

 55 59  0  0  1  0  0  0  0  0999 V2000
  186.4680  179.3830  141.8270 O   0  0  0  0  0  0  0  0  0  0  0  0
  186.5970  178.2350  141.0330 C   0  0  2  0  0  3  0  0  0  0  0  0
  187.9310  177.5050  141.2260 C   0  0  1  0  0  3  0  0  0  0  0  0
  187.7400  178.4440  140.0530 C   0  0  1  0  0  3  0  0  0  0  0  0
  189.1720  177.1270  143.3160 C   0  0  0  0  0  0  0  0  0  0  0  0
  190.1730  178.4630  141.6320 C   0  0  0  0  0  2  0  0  0  0  0  0
  190.5640  176.5930  143.2090 C   0  0  2  0  0  0  0  0  0  0  0  0
  191.1820  177.3970  142.0570 C   0  0  1  0  0  3  0  0  0  0  0  0
  190.5220  175.2230  142.9260 O   0  0  0  0  0  1  0  0  0  0  0  0
  188.8400  178.1330  142.2760 C   0  0  1  0  0  3  0  0  0  0  0  0
  188.3500  176.8630  144.3330 C   0  0  0  0  0  2  0  0  0  0  0  0
  191.6730  178.3370  144.6970 C   0  0  0  0  0  1  0  0  0  0  0  0
  191.4010  176.8570  144.4640 C   0  0  0  0  0  2  0  0  0  0  0  0
  191.6190  176.5560  140.8590 C   0  0  0  0  0  2  0  0  0  0  0  0
  191.0180  177.0900  139.5640 C   0  0  0  0  0  2  0  0  0  0  0  0
  191.3980  176.2080  138.3810 C   0  0  1  0  0  3  0  0  0  0  0  0
  190.5450  176.6070  136.0620 C   0  0  0  0  0  1  0  0  0  0  0  0
  190.2130  176.0360  137.4350 C   0  0  1  0  0  3  0  0  0  0  0  0
  189.8400  174.5650  137.2890 C   0  0  0  0  0  2  0  0  0  0  0  0
  188.5420  173.0170  136.0050 O   0  0  0  0  0  1  0  0  0  0  0  0
  189.0040  174.3350  136.0380 C   0  0  0  0  0  2  0  0  0  0  0  0
  192.4870  176.8070  137.6920 O   0  0  0  0  0  0  0  0  0  0  0  0
  194.3210  176.3540  136.3860 O   0  0  0  0  0  0  0  0  0  0  0  0
  194.1370  175.1510  138.3270 O   0  0  0  0  0  1  0  0  0  0  0  0
  193.6730  176.1170  137.4390 C   0  0  0  0  0  0  0  0  0  0  0  0
  187.4980  177.6240  138.7940 C   0  0  0  0  0  2  0  0  0  0  0  0
  187.4440  178.6830  136.5340 C   0  0  0  0  0  1  0  0  0  0  0  0
  186.6510  178.3920  137.7950 C   0  0  0  0  0  2  0  0  0  0  0  0
  185.0930  179.6350  141.8690 C   0  0  0  0  0  2  0  0  0  0  0  0
  184.4060  178.6890  142.8000 C   0  0  0  0  0  0  0  0  0  0  0  0
  184.9690  178.3290  143.8220 O   0  0  0  0  0  0  0  0  0  0  0  0
  182.8690  177.9910  140.9820 C   0  0  0  0  0  0  0  0  0  0  0  0
  183.4600  177.1980  138.6890 C   0  0  0  0  0  2  0  0  0  0  0  0
  183.7000  177.3230  140.1650 C   0  0  0  0  0  3  0  0  0  0  0  0
  180.9450  177.3440  138.5400 C   0  0  2  0  0  3  0  0  0  0  0  0
  181.6000  178.6280  140.6010 C   0  0  1  0  0  3  0  0  0  0  0  0
  182.1690  176.4440  138.3910 C   0  0  0  0  0  2  0  0  0  0  0  0
  180.6420  177.6030  140.0120 C   0  0  0  0  0  2  0  0  0  0  0  0
  183.0580  178.1430  142.4300 C   0  0  2  0  0  3  0  0  0  0  0  0
  182.0080  179.0530  142.8680 N   0  0  0  0  0  2  0  0  0  0  0  0
  181.0340  179.1440  141.8450 N   0  0  0  0  0  2  0  0  0  0  0  0
  179.0300  177.6100  136.9350 C   0  0  0  0  0  2  0  0  0  0  0  0
  179.9080  176.5130  136.3730 C   0  0  2  0  0  0  0  0  0  0  0  0
  179.7550  176.6480  137.8830 C   0  0  1  0  0  3  0  0  0  0  0  0
  181.1340  176.9020  135.8230 O   0  0  0  0  0  1  0  0  0  0  0  0
  179.2840  175.3750  135.8360 O   0  0  0  0  0  0  0  0  0  0  0  0
  179.9720  174.2540  136.3310 C   0  0  1  0  0  3  0  0  0  0  0  0
  179.0150  173.0980  136.6280 C   0  0  0  0  0  2  0  0  0  0  0  0
  179.2960  172.5270  137.8730 O   0  0  0  0  0  0  0  0  0  0  0  0
  179.7200  173.5960  138.6630 C   0  0  0  0  0  1  0  0  0  0  0  0
  181.1340  173.8650  135.4120 C   0  0  0  0  0  2  0  0  0  0  0  0
  184.3620  173.0920  137.4270 C   0  0  0  0  0  1  0  0  0  0  0  0
  182.5000  171.7530  136.8180 O   0  0  0  0  0  0  0  0  0  0  0  0
  183.0500  172.8840  136.7650 C   0  0  0  0  0  0  0  0  0  0  0  0
  182.4310  173.9720  136.0770 N   0  0  0  0  0  2  0  0  0  0  0  0
  1 29  1  0  0  0  0
  2  3  1  0  0  0  0
  2  1  1  1  0  0  0
  3 10  1  1  0  0  0
  4 26  1  6  0  0  0
  4  2  1  0  0  0  0
  4  3  1  0  0  0  0
  5 11  2  0  0  0  0
  6  8  1  0  0  0  0
  7  9  1  6  0  0  0
  7  5  1  0  0  0  0
  7 13  1  0  0  0  0
  8 14  1  6  0  0  0
  8  7  1  0  0  0  0
 10  6  1  6  0  0  0
 10  5  1  0  0  0  0
 13 12  1  0  0  0  0
 15 14  1  0  0  0  0
 16 15  1  1  0  0  0
 18 17  1  6  0  0  0
 18 16  1  0  0  0  0
 19 18  1  0  0  0  0
 20 21  1  0  0  0  0
 21 19  1  0  0  0  0
 22 16  1  0  0  0  0
 23 25  2  0  0  0  0
 25 22  1  0  0  0  0
 25 24  1  0  0  0  0
 27 28  1  0  0  0  0
 28 26  1  0  0  0  0
 29 30  1  0  0  0  0
 30 31  2  0  0  0  0
 32 39  1  0  0  0  0
 33 34  1  0  0  0  0
 34 32  2  0  0  0  0
 35 37  1  1  0  0  0
 35 38  1  0  0  0  0
 36 38  1  1  0  0  0
 36 32  1  0  0  0  0
 36 41  1  0  0  0  0
 37 33  1  0  0  0  0
 39 30  1  6  0  0  0
 39 40  1  0  0  0  0
 41 40  1  0  0  0  0
 43 45  1  6  0  0  0
 43 42  1  0  0  0  0
 43 44  1  0  0  0  0
 44 42  1  6  0  0  0
 44 35  1  0  0  0  0
 46 47  1  0  0  0  0
 46 43  1  0  0  0  0
 47 51  1  6  0  0  0
 47 48  1  0  0  0  0
 48 49  1  0  0  0  0
 49 50  1  0  0  0  0
 51 55  1  0  0  0  0
 54 53  2  0  0  0  0
 54 52  1  0  0  0  0
 55 54  1  0  0  0  0
M  END
>  <MODEL>
4

>  <REMARK>
 VINA RESULT:      -5.0      4.099      9.756
  Name = 
  23 active torsions:
  status: ('A' for Active; 'I' for Inactive)
    1  A    between atoms: O_4  and  C_48
    2  A    between atoms: C_7  and  C_44
    3  A    between atoms: C_10  and  C_32
    4  A    between atoms: C_10  and  O_33
    5  A    between atoms: C_10  and  C_41
    6  A    between atoms: C_14  and  C_41
    7  A    between atoms: C_14  and  C_43
    8  A    between atoms: C_15  and  C_21
    9  A    between atoms: C_15  and  C_28
   10  A    between atoms: C_16  and  O_37
   11  A    between atoms: C_18  and  C_31
   12  A    between atoms: C_19  and  C_38
   13  A    between atoms: C_21  and  O_37
   14  A    between atoms: C_25  and  O_50
   15  A    between atoms: C_26  and  C_46
   16  A    between atoms: C_26  and  C_48
   17  A    between atoms: C_26  and  O_50
   18  A    between atoms: C_29  and  C_40
   19  A    between atoms: C_32  and  C_40
   20  A    between atoms: O_33  and  C_45
   21  A    between atoms: C_46  and  N_51
   22  A    between atoms: C_53  and  C_54
   23  A    between atoms: C_54  and  C_55
                            x       y       z     vdW  Elec       q    Type
                         _______ _______ _______ _____ _____    ______ ____

>  <TORSDO>
F 23

$$$$
=
 OpenBabel11062412133D

 55 59  0  0  1  0  0  0  0  0999 V2000
  182.3700  179.3540  142.7760 O   0  0  0  0  0  0  0  0  0  0  0  0
  182.8550  178.2670  142.0360 C   0  0  2  0  0  3  0  0  0  0  0  0
  184.3580  178.0260  142.2180 C   0  0  1  0  0  3  0  0  0  0  0  0
  183.8490  178.7800  141.0070 C   0  0  1  0  0  3  0  0  0  0  0  0
  185.2490  178.2850  144.4960 C   0  0  0  0  0  0  0  0  0  0  0  0
  186.4250  179.2940  142.7010 C   0  0  0  0  0  2  0  0  0  0  0  0
  186.6740  177.8970  144.7320 C   0  0  2  0  0  0  0  0  0  0  0  0
  187.4200  178.4750  143.5210 C   0  0  1  0  0  3  0  0  0  0  0  0
  186.7790  176.5030  144.7940 O   0  0  0  0  0  1  0  0  0  0  0  0
  185.0280  178.9780  143.2020 C   0  0  1  0  0  3  0  0  0  0  0  0
  184.2870  178.1750  145.4140 C   0  0  0  0  0  2  0  0  0  0  0  0
  188.2510  177.6290  146.7140 C   0  0  0  0  0  1  0  0  0  0  0  0
  187.2640  178.5370  145.9910 C   0  0  0  0  0  2  0  0  0  0  0  0
  188.1140  177.4320  142.6460 C   0  0  0  0  0  2  0  0  0  0  0  0
  189.5480  177.8410  142.3360 C   0  0  0  0  0  2  0  0  0  0  0  0
  190.3940  176.6290  141.9660 C   0  0  1  0  0  3  0  0  0  0  0  0
  189.8020  177.3480  139.6420 C   0  0  0  0  0  1  0  0  0  0  0  0
  190.8830  176.7340  140.5230 C   0  0  1  0  0  3  0  0  0  0  0  0
  192.1450  177.5850  140.4350 C   0  0  0  0  0  2  0  0  0  0  0  0
  192.3540  176.2520  138.4590 O   0  0  0  0  0  1  0  0  0  0  0  0
  193.0610  177.0900  139.3240 C   0  0  0  0  0  2  0  0  0  0  0  0
  191.5050  176.5560  142.8500 O   0  0  0  0  0  0  0  0  0  0  0  0
  191.0590  176.4990  145.1020 O   0  0  0  0  0  1  0  0  0  0  0  0
  191.9080  178.4640  144.2870 O   0  0  0  0  0  0  0  0  0  0  0  0
  191.4850  177.1500  144.1120 C   0  0  0  0  0  0  0  0  0  0  0  0
  183.8690  177.8530  139.8000 C   0  0  0  0  0  2  0  0  0  0  0  0
  183.2440  177.7190  137.3870 C   0  0  0  0  0  1  0  0  0  0  0  0
  183.7030  178.6330  138.5080 C   0  0  0  0  0  2  0  0  0  0  0  0
  181.0390  179.0280  143.0570 C   0  0  0  0  0  2  0  0  0  0  0  0
  180.1100  180.0560  142.4950 C   0  0  0  0  0  0  0  0  0  0  0  0
  179.8940  181.0840  143.1190 O   0  0  0  0  0  0  0  0  0  0  0  0
  179.8740  178.5590  140.5310 C   0  0  0  0  0  0  0  0  0  0  0  0
  180.4270  176.1280  140.3770 C   0  0  0  0  0  2  0  0  0  0  0  0
  179.9390  177.3460  141.1050 C   0  0  0  0  0  3  0  0  0  0  0  0
  179.8450  176.6670  137.9810 C   0  0  2  0  0  3  0  0  0  0  0  0
  180.1910  178.8760  139.1310 C   0  0  1  0  0  3  0  0  0  0  0  0
  179.5330  175.7870  139.1890 C   0  0  0  0  0  2  0  0  0  0  0  0
  179.3050  178.0780  138.1870 C   0  0  0  0  0  2  0  0  0  0  0  0
  179.4060  179.7790  141.1990 C   0  0  2  0  0  3  0  0  0  0  0  0
  179.6490  180.8600  140.2520 N   0  0  0  0  0  2  0  0  0  0  0  0
  179.8890  180.2970  138.9760 N   0  0  0  0  0  2  0  0  0  0  0  0
  179.6540  176.7590  135.4770 C   0  0  0  0  0  2  0  0  0  0  0  0
  180.2030  175.3890  135.8120 C   0  0  2  0  0  0  0  0  0  0  0  0
  179.1930  176.0390  136.7500 C   0  0  1  0  0  3  0  0  0  0  0  0
  181.5290  175.3290  136.2530 O   0  0  0  0  0  1  0  0  0  0  0  0
  179.6980  174.2820  135.1100 O   0  0  0  0  0  0  0  0  0  0  0  0
  180.4650  173.1670  135.4890 C   0  0  1  0  0  3  0  0  0  0  0  0
  179.6090  171.9030  135.5700 C   0  0  0  0  0  2  0  0  0  0  0  0
  178.9340  171.8370  136.7930 O   0  0  0  0  0  0  0  0  0  0  0  0
  179.9040  172.1400  137.7480 C   0  0  0  0  0  1  0  0  0  0  0  0
  181.7010  173.0130  134.5970 C   0  0  0  0  0  2  0  0  0  0  0  0
  184.7720  171.6970  136.5760 C   0  0  0  0  0  1  0  0  0  0  0  0
  183.8670  173.8720  136.2920 O   0  0  0  0  0  0  0  0  0  0  0  0
  183.7730  172.6460  136.0240 C   0  0  0  0  0  0  0  0  0  0  0  0
  182.7180  172.1520  135.1970 N   0  0  0  0  0  2  0  0  0  0  0  0
  1 29  1  0  0  0  0
  2  3  1  0  0  0  0
  2  1  1  1  0  0  0
  3 10  1  1  0  0  0
  4 26  1  6  0  0  0
  4  2  1  0  0  0  0
  4  3  1  0  0  0  0
  5  7  1  0  0  0  0
  5 11  2  0  0  0  0
  6  8  1  0  0  0  0
  7  9  1  1  0  0  0
  7 13  1  0  0  0  0
  8 14  1  6  0  0  0
  8  7  1  0  0  0  0
 10  6  1  6  0  0  0
 10  5  1  0  0  0  0
 13 12  1  0  0  0  0
 15 14  1  0  0  0  0
 16 15  1  1  0  0  0
 16 22  1  0  0  0  0
 18 17  1  6  0  0  0
 18 16  1  0  0  0  0
 19 18  1  0  0  0  0
 20 21  1  0  0  0  0
 21 19  1  0  0  0  0
 22 25  1  0  0  0  0
 25 24  2  0  0  0  0
 25 23  1  0  0  0  0
 27 28  1  0  0  0  0
 28 26  1  0  0  0  0
 30 29  1  0  0  0  0
 30 31  2  0  0  0  0
 32 34  2  0  0  0  0
 32 39  1  0  0  0  0
 33 34  1  0  0  0  0
 35 38  1  1  0  0  0
 35 37  1  0  0  0  0
 36 38  1  6  0  0  0
 36 32  1  0  0  0  0
 37 33  1  0  0  0  0
 39 30  1  1  0  0  0
 40 39  1  0  0  0  0
 41 36  1  0  0  0  0
 41 40  1  0  0  0  0
 42 43  1  0  0  0  0
 43 45  1  1  0  0  0
 43 44  1  0  0  0  0
 44 42  1  6  0  0  0
 44 35  1  0  0  0  0
 46 47  1  0  0  0  0
 46 43  1  0  0  0  0
 47 51  1  6  0  0  0
 47 48  1  0  0  0  0
 48 49  1  0  0  0  0
 49 50  1  0  0  0  0
 51 55  1  0  0  0  0
 54 53  2  0  0  0  0
 54 52  1  0  0  0  0
 55 54  1  0  0  0  0
M  END
>  <MODEL>
5

>  <REMARK>
 VINA RESULT:      -4.7      4.696      9.281
  Name = 
  23 active torsions:
  status: ('A' for Active; 'I' for Inactive)
    1  A    between atoms: O_4  and  C_48
    2  A    between atoms: C_7  and  C_44
    3  A    between atoms: C_10  and  C_32
    4  A    between atoms: C_10  and  O_33
    5  A    between atoms: C_10  and  C_41
    6  A    between atoms: C_14  and  C_41
    7  A    between atoms: C_14  and  C_43
    8  A    between atoms: C_15  and  C_21
    9  A    between atoms: C_15  and  C_28
   10  A    between atoms: C_16  and  O_37
   11  A    between atoms: C_18  and  C_31
   12  A    between atoms: C_19  and  C_38
   13  A    between atoms: C_21  and  O_37
   14  A    between atoms: C_25  and  O_50
   15  A    between atoms: C_26  and  C_46
   16  A    between atoms: C_26  and  C_48
   17  A    between atoms: C_26  and  O_50
   18  A    between atoms: C_29  and  C_40
   19  A    between atoms: C_32  and  C_40
   20  A    between atoms: O_33  and  C_45
   21  A    between atoms: C_46  and  N_51
   22  A    between atoms: C_53  and  C_54
   23  A    between atoms: C_54  and  C_55
                            x       y       z     vdW  Elec       q    Type
                         _______ _______ _______ _____ _____    ______ ____

>  <TORSDO>
F 23

$$$$
=
 OpenBabel11062412133D

 55 59  0  0  1  0  0  0  0  0999 V2000
  187.0080  178.5040  137.7840 O   0  0  0  0  0  0  0  0  0  0  0  0
  186.1930  178.2510  136.6720 C   0  0  2  0  0  3  0  0  0  0  0  0
  184.7900  177.7550  137.0430 C   0  0  1  0  0  3  0  0  0  0  0  0
  185.8640  176.7680  136.6330 C   0  0  1  0  0  3  0  0  0  0  0  0
  183.5280  178.7010  138.9310 C   0  0  0  0  0  0  0  0  0  0  0  0
  183.8600  176.3540  138.8540 C   0  0  0  0  0  2  0  0  0  0  0  0
  182.1740  178.1330  139.2120 C   0  0  2  0  0  0  0  0  0  0  0  0
  182.3710  176.6170  139.0730 C   0  0  1  0  0  3  0  0  0  0  0  0
  181.2530  178.6280  138.2830 O   0  0  0  0  0  1  0  0  0  0  0  0
  184.5320  177.6780  138.5430 C   0  0  1  0  0  3  0  0  0  0  0  0
  183.8640  179.9710  139.1570 C   0  0  0  0  0  2  0  0  0  0  0  0
  180.2220  178.0970  140.8480 C   0  0  0  0  0  1  0  0  0  0  0  0
  181.6980  178.4120  140.6410 C   0  0  0  0  0  2  0  0  0  0  0  0
  181.5370  175.9680  137.9710 C   0  0  0  0  0  2  0  0  0  0  0  0
  182.3970  175.0720  137.0870 C   0  0  0  0  0  2  0  0  0  0  0  0
  181.5340  174.2510  136.1370 C   0  0  1  0  0  3  0  0  0  0  0  0
  179.6460  175.2320  134.8180 C   0  0  0  0  0  1  0  0  0  0  0  0
  181.1580  175.0710  134.9050 C   0  0  1  0  0  3  0  0  0  0  0  0
  181.8090  176.4500  134.9490 C   0  0  0  0  0  2  0  0  0  0  0  0
  179.8920  177.6990  135.6520 O   0  0  0  0  0  1  0  0  0  0  0  0
  180.8020  177.5390  134.6050 C   0  0  0  0  0  2  0  0  0  0  0  0
  182.2560  173.0910  135.7460 O   0  0  0  0  0  0  0  0  0  0  0  0
  183.8450  171.7720  136.7500 O   0  0  0  0  0  0  0  0  0  0  0  0
  181.6900  171.4900  137.4740 O   0  0  0  0  0  1  0  0  0  0  0  0
  182.6360  172.1120  136.6650 C   0  0  0  0  0  0  0  0  0  0  0  0
  185.6150  176.3310  135.1970 C   0  0  0  0  0  2  0  0  0  0  0  0
  186.5100  174.2390  136.2240 C   0  0  0  0  0  1  0  0  0  0  0  0
  185.7430  174.8250  135.0530 C   0  0  0  0  0  2  0  0  0  0  0  0
  188.2870  178.6970  137.2520 C   0  0  0  0  0  2  0  0  0  0  0  0
  189.0240  177.4010  137.1540 C   0  0  0  0  0  0  0  0  0  0  0  0
  189.2100  176.8900  136.0600 O   0  0  0  0  0  0  0  0  0  0  0  0
  189.1140  177.4440  139.6330 C   0  0  0  0  0  0  0  0  0  0  0  0
  187.5660  178.6130  141.2060 C   0  0  0  0  0  2  0  0  0  0  0  0
  187.8770  177.8670  139.9420 C   0  0  0  0  0  3  0  0  0  0  0  0
  189.3360  177.7530  142.7850 C   0  0  2  0  0  3  0  0  0  0  0  0
  190.3120  177.5720  140.4740 C   0  0  1  0  0  3  0  0  0  0  0  0
  187.8490  177.7670  142.4420 C   0  0  0  0  0  2  0  0  0  0  0  0
  190.1070  176.8710  141.8090 C   0  0  0  0  0  2  0  0  0  0  0  0
  189.4690  176.7120  138.4110 C   0  0  2  0  0  3  0  0  0  0  0  0
  190.9210  176.5950  138.4350 N   0  0  0  0  0  2  0  0  0  0  0  0
  191.3770  176.8920  139.7420 N   0  0  0  0  0  2  0  0  0  0  0  0
  190.9390  176.7520  144.4420 C   0  0  0  0  0  2  0  0  0  0  0  0
  190.4490  178.0470  145.0530 C   0  0  2  0  0  0  0  0  0  0  0  0
  189.4960  177.2130  144.2050 C   0  0  1  0  0  3  0  0  0  0  0  0
  190.9250  179.2340  144.4860 O   0  0  0  0  0  1  0  0  0  0  0  0
  190.1350  178.0580  146.4210 O   0  0  0  0  0  0  0  0  0  0  0  0
  189.7110  176.7610  146.7580 C   0  0  1  0  0  3  0  0  0  0  0  0
  190.7930  176.0030  147.5290 C   0  0  0  0  0  2  0  0  0  0  0  0
  192.0520  176.5660  147.3020 O   0  0  0  0  0  0  0  0  0  0  0  0
  192.7590  176.3380  148.4840 C   0  0  0  0  0  1  0  0  0  0  0  0
  188.3550  176.7860  147.4710 C   0  0  0  0  0  2  0  0  0  0  0  0
  185.7990  179.2050  145.8310 C   0  0  0  0  0  1  0  0  0  0  0  0
  186.2560  176.9000  145.5010 O   0  0  0  0  0  0  0  0  0  0  0  0
  186.5390  177.9540  146.1290 C   0  0  0  0  0  0  0  0  0  0  0  0
  187.5640  177.9640  147.1240 N   0  0  0  0  0  2  0  0  0  0  0  0
  2  3  1  0  0  0  0
  2  1  1  1  0  0  0
  3 10  1  1  0  0  0
  4 26  1  6  0  0  0
  4  2  1  0  0  0  0
  4  3  1  0  0  0  0
  5 11  2  0  0  0  0
  5  7  1  0  0  0  0
  6  8  1  0  0  0  0
  7  9  1  6  0  0  0
  7 13  1  0  0  0  0
  8 14  1  6  0  0  0
  8  7  1  0  0  0  0
 10  6  1  6  0  0  0
 10  5  1  0  0  0  0
 13 12  1  0  0  0  0
 15 14  1  0  0  0  0
 16 15  1  1  0  0  0
 18 17  1  1  0  0  0
 18 19  1  0  0  0  0
 18 16  1  0  0  0  0
 21 19  1  0  0  0  0
 21 20  1  0  0  0  0
 22 16  1  0  0  0  0
 22 25  1  0  0  0  0
 25 23  2  0  0  0  0
 25 24  1  0  0  0  0
 28 26  1  0  0  0  0
 28 27  1  0  0  0  0
 29  1  1  0  0  0  0
 30 29  1  0  0  0  0
 31 30  2  0  0  0  0
 32 34  2  0  0  0  0
 32 36  1  0  0  0  0
 33 37  1  0  0  0  0
 34 33  1  0  0  0  0
 35 38  1  6  0  0  0
 35 44  1  0  0  0  0
 36 38  1  1  0  0  0
 37 35  1  0  0  0  0
 39 30  1  6  0  0  0
 39 40  1  0  0  0  0
 39 32  1  0  0  0  0
 40 41  1  0  0  0  0
 41 36  1  0  0  0  0
 42 43  1  0  0  0  0
 43 45  1  6  0  0  0
 43 46  1  0  0  0  0
 44 42  1  6  0  0  0
 44 43  1  0  0  0  0
 46 47  1  0  0  0  0
 47 51  1  1  0  0  0
 47 48  1  0  0  0  0
 49 48  1  0  0  0  0
 49 50  1  0  0  0  0
 52 54  1  0  0  0  0
 53 54  2  0  0  0  0
 54 55  1  0  0  0  0
 55 51  1  0  0  0  0
M  END
>  <MODEL>
6

>  <REMARK>
 VINA RESULT:      -4.6      3.840     10.175
  Name = 
  23 active torsions:
  status: ('A' for Active; 'I' for Inactive)
    1  A    between atoms: O_4  and  C_48
    2  A    between atoms: C_7  and  C_44
    3  A    between atoms: C_10  and  C_32
    4  A    between atoms: C_10  and  O_33
    5  A    between atoms: C_10  and  C_41
    6  A    between atoms: C_14  and  C_41
    7  A    between atoms: C_14  and  C_43
    8  A    between atoms: C_15  and  C_21
    9  A    between atoms: C_15  and  C_28
   10  A    between atoms: C_16  and  O_37
   11  A    between atoms: C_18  and  C_31
   12  A    between atoms: C_19  and  C_38
   13  A    between atoms: C_21  and  O_37
   14  A    between atoms: C_25  and  O_50
   15  A    between atoms: C_26  and  C_46
   16  A    between atoms: C_26  and  C_48
   17  A    between atoms: C_26  and  O_50
   18  A    between atoms: C_29  and  C_40
   19  A    between atoms: C_32  and  C_40
   20  A    between atoms: O_33  and  C_45
   21  A    between atoms: C_46  and  N_51
   22  A    between atoms: C_53  and  C_54
   23  A    between atoms: C_54  and  C_55
                            x       y       z     vdW  Elec       q    Type
                         _______ _______ _______ _____ _____    ______ ____

>  <TORSDO>
F 23

$$$$
=
 OpenBabel11062412133D

 55 59  0  0  1  0  0  0  0  0999 V2000
  186.2160  177.7470  139.8090 O   0  0  0  0  0  0  0  0  0  0  0  0
  186.2240  178.8260  140.7030 C   0  0  2  0  0  3  0  0  0  0  0  0
  187.2430  178.6710  141.8380 C   0  0  1  0  0  3  0  0  0  0  0  0
  185.7850  178.3310  142.0720 C   0  0  1  0  0  3  0  0  0  0  0  0
  189.4540  177.7420  141.2880 C   0  0  0  0  0  0  0  0  0  0  0  0
  188.2870  176.8570  143.1530 C   0  0  0  0  0  2  0  0  0  0  0  0
  190.4790  177.7060  142.3740 C   0  0  2  0  0  0  0  0  0  0  0  0
  189.7010  177.2180  143.6040 C   0  0  1  0  0  3  0  0  0  0  0  0
  191.0090  178.9870  142.5660 O   0  0  0  0  0  1  0  0  0  0  0  0
  188.0840  177.4030  141.7520 C   0  0  1  0  0  3  0  0  0  0  0  0
  189.7440  177.9010  139.9960 C   0  0  0  0  0  2  0  0  0  0  0  0
  192.0900  175.9970  143.3620 C   0  0  0  0  0  1  0  0  0  0  0  0
  191.5990  176.6980  142.1010 C   0  0  0  0  0  2  0  0  0  0  0  0
  189.6630  178.2090  144.7650 C   0  0  0  0  0  2  0  0  0  0  0  0
  188.3220  178.1580  145.4880 C   0  0  0  0  0  2  0  0  0  0  0  0
  188.3940  177.2510  146.7100 C   0  0  1  0  0  3  0  0  0  0  0  0
  189.1900  178.4240  148.7730 C   0  0  0  0  0  1  0  0  0  0  0  0
  189.6100  177.5960  147.5660 C   0  0  1  0  0  3  0  0  0  0  0  0
  190.3160  176.3320  148.0450 C   0  0  0  0  0  2  0  0  0  0  0  0
  191.9760  174.7290  147.4110 O   0  0  0  0  0  1  0  0  0  0  0  0
  191.5500  176.0430  147.2020 C   0  0  0  0  0  2  0  0  0  0  0  0
  187.2040  177.4110  147.4710 O   0  0  0  0  0  0  0  0  0  0  0  0
  185.2580  177.7950  146.3150 O   0  0  0  0  0  0  0  0  0  0  0  0
  186.1410  179.5870  147.4350 O   0  0  0  0  0  1  0  0  0  0  0  0
  186.1680  178.2490  147.0570 C   0  0  0  0  0  0  0  0  0  0  0  0
  185.1280  179.4640  142.8450 C   0  0  0  0  0  2  0  0  0  0  0  0
  183.5280  179.7320  144.7420 C   0  0  0  0  0  1  0  0  0  0  0  0
  183.7930  179.0300  143.4230 C   0  0  0  0  0  2  0  0  0  0  0  0
  186.0670  178.3310  138.5460 C   0  0  0  0  0  2  0  0  0  0  0  0
  185.9600  177.2840  137.4850 C   0  0  0  0  0  0  0  0  0  0  0  0
  185.0720  176.4470  137.5470 O   0  0  0  0  0  0  0  0  0  0  0  0
  188.1270  176.3680  136.7000 C   0  0  0  0  0  0  0  0  0  0  0  0
  189.2320  174.2350  137.3830 C   0  0  0  0  0  2  0  0  0  0  0  0
  188.0320  175.0830  137.0780 C   0  0  0  0  0  3  0  0  0  0  0  0
  191.0110  175.2830  135.9320 C   0  0  2  0  0  3  0  0  0  0  0  0
  189.3710  177.1150  136.4610 C   0  0  1  0  0  3  0  0  0  0  0  0
  190.1240  174.0620  136.1590 C   0  0  0  0  0  2  0  0  0  0  0  0
  190.1980  176.4450  135.3730 C   0  0  0  0  0  2  0  0  0  0  0  0
  186.9860  177.2380  136.3910 C   0  0  2  0  0  3  0  0  0  0  0  0
  187.5530  178.5630  136.1760 N   0  0  0  0  0  2  0  0  0  0  0  0
  188.9500  178.4320  135.9920 N   0  0  0  0  0  2  0  0  0  0  0  0
  192.9700  176.1230  134.6010 C   0  0  0  0  0  2  0  0  0  0  0  0
  193.5100  175.0530  135.5250 C   0  0  2  0  0  0  0  0  0  0  0  0
  192.1110  174.9000  134.9430 C   0  0  1  0  0  3  0  0  0  0  0  0
  193.5990  175.3760  136.8830 O   0  0  0  0  0  1  0  0  0  0  0  0
  194.4460  174.1410  135.0090 O   0  0  0  0  0  0  0  0  0  0  0  0
  195.3660  173.8670  136.0360 C   0  0  1  0  0  3  0  0  0  0  0  0
  195.8980  175.1550  136.6670 C   0  0  0  0  0  2  0  0  0  0  0  0
  197.0000  174.8910  137.4850 O   0  0  0  0  0  0  0  0  0  0  0  0
  198.0870  174.8510  136.6110 C   0  0  0  0  0  1  0  0  0  0  0  0
  194.7870  172.8810  137.0540 C   0  0  0  0  0  2  0  0  0  0  0  0
  192.8270  169.8670  135.5880 C   0  0  0  0  0  1  0  0  0  0  0  0
  195.0330  170.0780  136.4350 O   0  0  0  0  0  0  0  0  0  0  0  0
  193.9380  170.6460  136.1880 C   0  0  0  0  0  0  0  0  0  0  0  0
  193.7460  172.0320  136.4790 N   0  0  0  0  0  2  0  0  0  0  0  0
  2  1  1  6  0  0  0
  2  3  1  0  0  0  0
  2  4  1  0  0  0  0
  3 10  1  6  0  0  0
  3  4  1  0  0  0  0
  4 26  1  1  0  0  0
  5 10  1  0  0  0  0
  5  7  1  0  0  0  0
  6  8  1  0  0  0  0
  7  9  1  1  0  0  0
  7  8  1  0  0  0  0
  8 14  1  1  0  0  0
 10  6  1  1  0  0  0
 11  5  2  0  0  0  0
 13  7  1  0  0  0  0
 13 12  1  0  0  0  0
 14 15  1  0  0  0  0
 16 15  1  6  0  0  0
 16 22  1  0  0  0  0
 16 18  1  0  0  0  0
 18 19  1  0  0  0  0
 18 17  1  1  0  0  0
 21 20  1  0  0  0  0
 21 19  1  0  0  0  0
 23 25  2  0  0  0  0
 25 24  1  0  0  0  0
 25 22  1  0  0  0  0
 26 28  1  0  0  0  0
 28 27  1  0  0  0  0
 29  1  1  0  0  0  0
 30 31  2  0  0  0  0
 30 29  1  0  0  0  0
 32 34  2  0  0  0  0
 34 33  1  0  0  0  0
 35 38  1  6  0  0  0
 35 37  1  0  0  0  0
 36 38  1  6  0  0  0
 36 32  1  0  0  0  0
 37 33  1  0  0  0  0
 39 32  1  0  0  0  0
 39 30  1  1  0  0  0
 40 39  1  0  0  0  0
 41 40  1  0  0  0  0
 41 36  1  0  0  0  0
 42 43  1  0  0  0  0
 43 45  1  1  0  0  0
 44 42  1  6  0  0  0
 44 43  1  0  0  0  0
 44 35  1  0  0  0  0
 46 43  1  0  0  0  0
 46 47  1  0  0  0  0
 47 48  1  1  0  0  0
 47 51  1  0  0  0  0
 48 49  1  0  0  0  0
 50 49  1  0  0  0  0
 52 54  1  0  0  0  0
 54 53  2  0  0  0  0
 54 55  1  0  0  0  0
 55 51  1  0  0  0  0
M  END
>  <MODEL>
7

>  <REMARK>
 VINA RESULT:      -4.5      1.244      3.172
  Name = 
  23 active torsions:
  status: ('A' for Active; 'I' for Inactive)
    1  A    between atoms: O_4  and  C_48
    2  A    between atoms: C_7  and  C_44
    3  A    between atoms: C_10  and  C_32
    4  A    between atoms: C_10  and  O_33
    5  A    between atoms: C_10  and  C_41
    6  A    between atoms: C_14  and  C_41
    7  A    between atoms: C_14  and  C_43
    8  A    between atoms: C_15  and  C_21
    9  A    between atoms: C_15  and  C_28
   10  A    between atoms: C_16  and  O_37
   11  A    between atoms: C_18  and  C_31
   12  A    between atoms: C_19  and  C_38
   13  A    between atoms: C_21  and  O_37
   14  A    between atoms: C_25  and  O_50
   15  A    between atoms: C_26  and  C_46
   16  A    between atoms: C_26  and  C_48
   17  A    between atoms: C_26  and  O_50
   18  A    between atoms: C_29  and  C_40
   19  A    between atoms: C_32  and  C_40
   20  A    between atoms: O_33  and  C_45
   21  A    between atoms: C_46  and  N_51
   22  A    between atoms: C_53  and  C_54
   23  A    between atoms: C_54  and  C_55
                            x       y       z     vdW  Elec       q    Type
                         _______ _______ _______ _____ _____    ______ ____

>  <TORSDO>
F 23

$$$$
=
 OpenBabel11062412133D

 55 59  0  0  1  0  0  0  0  0999 V2000
  188.4720  179.0430  138.3720 O   0  0  0  0  0  0  0  0  0  0  0  0
  188.6330  177.7370  138.8520 C   0  0  2  0  0  3  0  0  0  0  0  0
  188.1850  177.5610  140.3070 C   0  0  1  0  0  3  0  0  0  0  0  0
  189.6520  177.7520  139.9800 C   0  0  1  0  0  3  0  0  0  0  0  0
  186.1510  178.6380  141.1750 C   0  0  0  0  0  0  0  0  0  0  0  0
  188.1950  178.9860  142.3270 C   0  0  0  0  0  2  0  0  0  0  0  0
  185.8030  178.4070  142.6100 C   0  0  2  0  0  0  0  0  0  0  0  0
  187.1440  178.5440  143.3440 C   0  0  1  0  0  3  0  0  0  0  0  0
  185.2520  177.1290  142.7620 O   0  0  0  0  0  1  0  0  0  0  0  0
  187.6050  178.8210  140.9380 C   0  0  1  0  0  3  0  0  0  0  0  0
  185.2480  178.8270  140.2120 C   0  0  0  0  0  2  0  0  0  0  0  0
  183.8220  178.8990  144.1350 C   0  0  0  0  0  1  0  0  0  0  0  0
  184.8540  179.4710  143.1710 C   0  0  0  0  0  2  0  0  0  0  0  0
  187.5980  177.2840  144.0780 C   0  0  0  0  0  2  0  0  0  0  0  0
  189.1110  177.2670  144.2590 C   0  0  0  0  0  2  0  0  0  0  0  0
  189.4830  177.0830  145.7250 C   0  0  1  0  0  3  0  0  0  0  0  0
  191.4430  176.3250  147.0870 C   0  0  0  0  0  1  0  0  0  0  0  0
  190.9950  177.1890  145.9140 C   0  0  1  0  0  3  0  0  0  0  0  0
  191.7330  176.7470  144.6550 C   0  0  0  0  0  2  0  0  0  0  0  0
  192.0860  179.0670  144.1860 O   0  0  0  0  0  1  0  0  0  0  0  0
  191.7280  177.8490  143.6040 C   0  0  0  0  0  2  0  0  0  0  0  0
  188.8270  178.0810  146.4950 O   0  0  0  0  0  0  0  0  0  0  0  0
  188.3720  176.7500  148.3100 O   0  0  0  0  0  1  0  0  0  0  0  0
  186.9870  178.5480  147.9990 O   0  0  0  0  0  0  0  0  0  0  0  0
  188.0760  177.7660  147.6270 C   0  0  0  0  0  0  0  0  0  0  0  0
  190.3570  176.4060  140.0580 C   0  0  0  0  0  2  0  0  0  0  0  0
  192.1030  176.1750  138.2880 C   0  0  0  0  0  1  0  0  0  0  0  0
  190.6670  175.8700  138.6710 C   0  0  0  0  0  2  0  0  0  0  0  0
  187.7850  178.8970  137.1620 C   0  0  0  0  0  2  0  0  0  0  0  0
  188.4970  177.9430  136.2590 C   0  0  0  0  0  0  0  0  0  0  0  0
  189.7150  177.9760  136.1810 O   0  0  0  0  0  0  0  0  0  0  0  0
  186.4580  176.5440  136.0530 C   0  0  0  0  0  0  0  0  0  0  0  0
  184.2710  176.8350  137.2220 C   0  0  0  0  0  2  0  0  0  0  0  0
  185.5200  177.3530  136.5720 C   0  0  0  0  0  3  0  0  0  0  0  0
  183.9190  174.6380  136.0320 C   0  0  2  0  0  3  0  0  0  0  0  0
  186.3940  175.0770  135.9730 C   0  0  1  0  0  3  0  0  0  0  0  0
  183.4040  176.0600  136.2350 C   0  0  0  0  0  2  0  0  0  0  0  0
  185.1770  174.6380  135.1710 C   0  0  0  0  0  2  0  0  0  0  0  0
  187.6960  176.9990  135.4090 C   0  0  2  0  0  3  0  0  0  0  0  0
  188.4630  175.7900  135.1380 N   0  0  0  0  0  2  0  0  0  0  0  0
  187.6020  174.6730  135.2580 N   0  0  0  0  0  2  0  0  0  0  0  0
  182.9880  172.3340  135.6570 C   0  0  0  0  0  2  0  0  0  0  0  0
  181.8920  173.1320  136.3300 C   0  0  2  0  0  0  0  0  0  0  0  0
  182.8240  173.8250  135.3430 C   0  0  1  0  0  3  0  0  0  0  0  0
  182.0680  173.4310  137.6850 O   0  0  0  0  0  1  0  0  0  0  0  0
  180.5770  172.9780  135.8610 O   0  0  0  0  0  0  0  0  0  0  0  0
  179.7520  173.7730  136.6750 C   0  0  1  0  0  3  0  0  0  0  0  0
  180.0880  173.5920  138.1560 C   0  0  0  0  0  2  0  0  0  0  0  0
  178.9410  173.2810  138.8920 O   0  0  0  0  0  0  0  0  0  0  0  0
  179.1960  173.7800  140.1700 C   0  0  0  0  0  1  0  0  0  0  0  0
  179.7650  175.2360  136.2200 C   0  0  0  0  0  2  0  0  0  0  0  0
  180.2410  178.4290  138.3770 C   0  0  0  0  0  1  0  0  0  0  0  0
  180.3010  178.0600  136.0330 O   0  0  0  0  0  0  0  0  0  0  0  0
  180.1410  177.5610  137.1770 C   0  0  0  0  0  0  0  0  0  0  0  0
  179.8640  176.1680  137.3400 N   0  0  0  0  0  2  0  0  0  0  0  0
  2  1  1  1  0  0  0
  2  4  1  0  0  0  0
  2  3  1  0  0  0  0
  3 10  1  1  0  0  0
  4 26  1  6  0  0  0
  4  3  1  0  0  0  0
  5  7  1  0  0  0  0
  6  8  1  0  0  0  0
  7  9  1  1  0  0  0
  7 13  1  0  0  0  0
  7  8  1  0  0  0  0
  8 14  1  6  0  0  0
 10  5  1  0  0  0  0
 10  6  1  1  0  0  0
 11  5  2  0  0  0  0
 13 12  1  0  0  0  0
 14 15  1  0  0  0  0
 16 15  1  6  0  0  0
 16 18  1  0  0  0  0
 16 22  1  0  0  0  0
 18 17  1  1  0  0  0
 19 18  1  0  0  0  0
 21 20  1  0  0  0  0
 21 19  1  0  0  0  0
 22 25  1  0  0  0  0
 25 24  2  0  0  0  0
 25 23  1  0  0  0  0
 27 28  1  0  0  0  0
 28 26  1  0  0  0  0
 29  1  1  0  0  0  0
 30 29  1  0  0  0  0
 31 30  2  0  0  0  0
 32 34  2  0  0  0  0
 34 33  1  0  0  0  0
 35 38  1  6  0  0  0
 35 37  1  0  0  0  0
 36 38  1  6  0  0  0
 36 32  1  0  0  0  0
 37 33  1  0  0  0  0
 39 32  1  0  0  0  0
 39 30  1  1  0  0  0
 40 41  1  0  0  0  0
 40 39  1  0  0  0  0
 41 36  1  0  0  0  0
 42 43  1  0  0  0  0
 43 45  1  1  0  0  0
 44 42  1  6  0  0  0
 44 35  1  0  0  0  0
 44 43  1  0  0  0  0
 46 43  1  0  0  0  0
 46 47  1  0  0  0  0
 47 51  1  6  0  0  0
 47 48  1  0  0  0  0
 48 49  1  0  0  0  0
 49 50  1  0  0  0  0
 51 55  1  0  0  0  0
 53 54  2  0  0  0  0
 54 55  1  0  0  0  0
 54 52  1  0  0  0  0
M  END
>  <MODEL>
8

>  <REMARK>
 VINA RESULT:      -4.4      3.717      8.565
  Name = 
  23 active torsions:
  status: ('A' for Active; 'I' for Inactive)
    1  A    between atoms: O_4  and  C_48
    2  A    between atoms: C_7  and  C_44
    3  A    between atoms: C_10  and  C_32
    4  A    between atoms: C_10  and  O_33
    5  A    between atoms: C_10  and  C_41
    6  A    between atoms: C_14  and  C_41
    7  A    between atoms: C_14  and  C_43
    8  A    between atoms: C_15  and  C_21
    9  A    between atoms: C_15  and  C_28
   10  A    between atoms: C_16  and  O_37
   11  A    between atoms: C_18  and  C_31
   12  A    between atoms: C_19  and  C_38
   13  A    between atoms: C_21  and  O_37
   14  A    between atoms: C_25  and  O_50
   15  A    between atoms: C_26  and  C_46
   16  A    between atoms: C_26  and  C_48
   17  A    between atoms: C_26  and  O_50
   18  A    between atoms: C_29  and  C_40
   19  A    between atoms: C_32  and  C_40
   20  A    between atoms: O_33  and  C_45
   21  A    between atoms: C_46  and  N_51
   22  A    between atoms: C_53  and  C_54
   23  A    between atoms: C_54  and  C_55
                            x       y       z     vdW  Elec       q    Type
                         _______ _______ _______ _____ _____    ______ ____

>  <TORSDO>
F 23

$$$$
=
 OpenBabel11062412133D

 55 59  0  0  1  0  0  0  0  0999 V2000
  185.7220  178.0220  142.8800 O   0  0  0  0  0  0  0  0  0  0  0  0
  185.4830  178.9460  141.8540 C   0  0  2  0  0  3  0  0  0  0  0  0
  184.0000  179.0840  141.4900 C   0  0  1  0  0  3  0  0  0  0  0  0
  184.9120  178.2090  140.6540 C   0  0  1  0  0  3  0  0  0  0  0  0
  182.3350  179.0960  143.3000 C   0  0  0  0  0  0  0  0  0  0  0  0
  181.9820  177.6580  141.4480 C   0  0  0  0  0  2  0  0  0  0  0  0
  180.9070  179.3300  142.9270 C   0  0  2  0  0  0  0  0  0  0  0  0
  180.7050  178.4670  141.6730 C   0  0  1  0  0  3  0  0  0  0  0  0
  180.7050  180.6890  142.6630 O   0  0  0  0  0  1  0  0  0  0  0  0
  183.0670  178.2310  142.3400 C   0  0  1  0  0  3  0  0  0  0  0  0
  182.8740  179.4810  144.4580 C   0  0  0  0  0  2  0  0  0  0  0  0
  179.7440  177.3260  143.9850 C   0  0  0  0  0  1  0  0  0  0  0  0
  179.9250  178.8380  143.9940 C   0  0  0  0  0  2  0  0  0  0  0  0
  180.3320  179.2510  140.4170 C   0  0  0  0  0  2  0  0  0  0  0  0
  180.8000  178.5290  139.1590 C   0  0  0  0  0  2  0  0  0  0  0  0
  180.1920  179.1560  137.9100 C   0  0  1  0  0  3  0  0  0  0  0  0
  181.7770  181.0590  138.2780 C   0  0  0  0  0  1  0  0  0  0  0  0
  180.3410  180.6760  137.9450 C   0  0  1  0  0  3  0  0  0  0  0  0
  179.9550  181.2920  136.6040 C   0  0  0  0  0  2  0  0  0  0  0  0
  180.5370  183.1070  135.1570 O   0  0  0  0  0  1  0  0  0  0  0  0
  180.4550  182.7260  136.4980 C   0  0  0  0  0  2  0  0  0  0  0  0
  180.8490  178.6300  136.7650 O   0  0  0  0  0  0  0  0  0  0  0  0
  178.9330  177.9260  135.7150 O   0  0  0  0  0  1  0  0  0  0  0  0
  180.8820  176.9320  135.0380 O   0  0  0  0  0  0  0  0  0  0  0  0
  180.1830  177.8370  135.8300 C   0  0  0  0  0  0  0  0  0  0  0  0
  185.2740  178.9470  139.3740 C   0  0  0  0  0  2  0  0  0  0  0  0
  184.7400  177.0440  137.8480 C   0  0  0  0  0  1  0  0  0  0  0  0
  184.4140  178.4810  138.2120 C   0  0  0  0  0  2  0  0  0  0  0  0
  186.8960  177.3620  142.5000 C   0  0  0  0  0  2  0  0  0  0  0  0
  188.0360  177.7520  143.3850 C   0  0  0  0  0  0  0  0  0  0  0  0
  187.8430  177.9290  144.5780 O   0  0  0  0  0  0  0  0  0  0  0  0
  189.5350  177.4030  141.4390 C   0  0  0  0  0  0  0  0  0  0  0  0
  188.8950  177.0110  139.0580 C   0  0  0  0  0  2  0  0  0  0  0  0
  188.7020  177.6300  140.4110 C   0  0  0  0  0  3  0  0  0  0  0  0
  191.3960  176.6880  138.9690 C   0  0  2  0  0  3  0  0  0  0  0  0
  190.7650  176.5990  141.4010 C   0  0  1  0  0  3  0  0  0  0  0  0
  190.2030  177.4620  138.4150 C   0  0  0  0  0  2  0  0  0  0  0  0
  191.7400  177.1610  140.3760 C   0  0  0  0  0  2  0  0  0  0  0  0
  189.3900  177.9830  142.7800 C   0  0  2  0  0  3  0  0  0  0  0  0
  190.4190  177.3490  143.5930 N   0  0  0  0  0  2  0  0  0  0  0  0
  191.3540  176.7250  142.7320 N   0  0  0  0  0  2  0  0  0  0  0  0
  193.8900  176.4830  138.7270 C   0  0  0  0  0  2  0  0  0  0  0  0
  193.2840  175.6230  137.6390 C   0  0  2  0  0  0  0  0  0  0  0  0
  192.5890  176.9180  138.0420 C   0  0  1  0  0  3  0  0  0  0  0  0
  192.6780  174.4280  138.0400 O   0  0  0  0  0  1  0  0  0  0  0  0
  193.8670  175.6620  136.3620 O   0  0  0  0  0  0  0  0  0  0  0  0
  194.5950  174.4700  136.2030 C   0  0  1  0  0  3  0  0  0  0  0  0
  194.0430  173.6280  135.0510 C   0  0  0  0  0  2  0  0  0  0  0  0
  193.2020  172.6190  135.5310 O   0  0  0  0  0  0  0  0  0  0  0  0
  192.0870  172.6610  134.6930 C   0  0  0  0  0  1  0  0  0  0  0  0
  196.0970  174.7460  136.0940 C   0  0  0  0  0  2  0  0  0  0  0  0
  197.7920  171.3300  136.8280 C   0  0  0  0  0  1  0  0  0  0  0  0
  196.3100  172.6830  138.0940 O   0  0  0  0  0  0  0  0  0  0  0  0
  196.9520  172.5380  137.0210 C   0  0  0  0  0  0  0  0  0  0  0  0
  196.8840  173.5200  135.9850 N   0  0  0  0  0  2  0  0  0  0  0  0
  2  1  1  1  0  0  0
  3  2  1  0  0  0  0
  3 10  1  1  0  0  0
  4 26  1  6  0  0  0
  4  3  1  0  0  0  0
  4  2  1  0  0  0  0
  5 11  2  0  0  0  0
  6  8  1  0  0  0  0
  7  9  1  6  0  0  0
  7  5  1  0  0  0  0
  7 13  1  0  0  0  0
  8 14  1  6  0  0  0
  8  7  1  0  0  0  0
 10  6  1  6  0  0  0
 10  5  1  0  0  0  0
 12 13  1  0  0  0  0
 15 14  1  0  0  0  0
 16 18  1  0  0  0  0
 16 15  1  1  0  0  0
 18 17  1  6  0  0  0
 19 18  1  0  0  0  0
 20 21  1  0  0  0  0
 21 19  1  0  0  0  0
 22 16  1  0  0  0  0
 23 25  1  0  0  0  0
 24 25  2  0  0  0  0
 25 22  1  0  0  0  0
 27 28  1  0  0  0  0
 28 26  1  0  0  0  0
 29  1  1  0  0  0  0
 29 30  1  0  0  0  0
 30 31  2  0  0  0  0
 32 39  1  0  0  0  0
 33 34  1  0  0  0  0
 34 32  2  0  0  0  0
 35 37  1  6  0  0  0
 35 38  1  0  0  0  0
 36 38  1  6  0  0  0
 36 32  1  0  0  0  0
 36 41  1  0  0  0  0
 37 33  1  0  0  0  0
 39 30  1  1  0  0  0
 39 40  1  0  0  0  0
 41 40  1  0  0  0  0
 43 45  1  1  0  0  0
 43 44  1  0  0  0  0
 43 42  1  0  0  0  0
 44 42  1  1  0  0  0
 44 35  1  0  0  0  0
 46 43  1  0  0  0  0
 47 48  1  6  0  0  0
 47 46  1  0  0  0  0
 48 49  1  0  0  0  0
 50 49  1  0  0  0  0
 51 47  1  0  0  0  0
 52 54  1  0  0  0  0
 54 53  2  0  0  0  0
 55 51  1  0  0  0  0
 55 54  1  0  0  0  0
M  END
>  <MODEL>
9

>  <REMARK>
 VINA RESULT:      -4.4      3.580      8.081
  Name = 
  23 active torsions:
  status: ('A' for Active; 'I' for Inactive)
    1  A    between atoms: O_4  and  C_48
    2  A    between atoms: C_7  and  C_44
    3  A    between atoms: C_10  and  C_32
    4  A    between atoms: C_10  and  O_33
    5  A    between atoms: C_10  and  C_41
    6  A    between atoms: C_14  and  C_41
    7  A    between atoms: C_14  and  C_43
    8  A    between atoms: C_15  and  C_21
    9  A    between atoms: C_15  and  C_28
   10  A    between atoms: C_16  and  O_37
   11  A    between atoms: C_18  and  C_31
   12  A    between atoms: C_19  and  C_38
   13  A    between atoms: C_21  and  O_37
   14  A    between atoms: C_25  and  O_50
   15  A    between atoms: C_26  and  C_46
   16  A    between atoms: C_26  and  C_48
   17  A    between atoms: C_26  and  O_50
   18  A    between atoms: C_29  and  C_40
   19  A    between atoms: C_32  and  C_40
   20  A    between atoms: O_33  and  C_45
   21  A    between atoms: C_46  and  N_51
   22  A    between atoms: C_53  and  C_54
   23  A    between atoms: C_54  and  C_55
                            x       y       z     vdW  Elec       q    Type
                         _______ _______ _______ _____ _____    ______ ____

>  <TORSDO>
F 23

$$$$
