=
 OpenBabel11062415523D

 44 47  0  0  1  0  0  0  0  0999 V2000
  188.7670  176.4970  137.5450 N   0  0  0  0  0  0  0  0  0  0  0  0
  184.0470  177.8370  140.7990 C   0  0  2  0  0  3  0  0  0  0  0  0
  190.2510  178.2200  142.0330 O   0  0  0  0  0  0  0  0  0  0  0  0
  190.6370  178.2020  143.3820 C   0  0  2  0  0  3  0  0  0  0  0  0
  186.8780  177.8170  138.0700 N   0  0  0  0  0  0  0  0  0  0  0  0
  189.8360  176.9520  140.0760 C   0  0  2  0  0  3  0  0  0  0  0  0
  190.2030  176.8920  141.5360 C   0  0  2  0  0  3  0  0  0  0  0  0
  189.3930  178.3290  144.2630 C   0  0  0  0  0  2  0  0  0  0  0  0
  188.1110  177.3320  138.3940 C   0  0  0  0  0  0  0  0  0  0  0  0
  184.3310  178.2470  142.2390 C   0  0  0  0  0  2  0  0  0  0  0  0
  189.0920  176.0050  142.1730 C   0  0  0  0  0  2  0  0  0  0  0  0
  186.1930  178.6440  138.9100 C   0  0  0  0  0  0  0  0  0  0  0  0
  185.4300  177.3670  142.8150 C   0  0  0  0  0  2  0  0  0  0  0  0
  185.9410  177.9450  144.1290 C   0  0  0  0  0  2  0  0  0  0  0  0
  188.3710  177.2840  143.8190 C   0  0  1  0  0  3  0  0  0  0  0  0
  188.6730  177.6340  139.6510 C   0  0  1  0  0  3  0  0  0  0  0  0
  189.9360  175.8960  137.9020 C   0  0  0  0  0  3  0  0  0  0  0  0
  184.7630  178.9970  138.6190 C   0  0  0  0  0  2  0  0  0  0  0  0
  189.0130  176.0680  143.5690 O   0  0  0  0  0  0  0  0  0  0  0  0
  188.0170  178.5560  140.4720 C   0  0  0  0  0  3  0  0  0  0  0  0
  186.7920  179.0780  140.0960 C   0  0  0  0  0  3  0  0  0  0  0  0
  183.9100  179.0820  139.8980 C   0  0  1  0  0  3  0  0  0  0  0  0
  190.4700  176.0860  139.1800 C   0  0  0  0  0  3  0  0  0  0  0  0
  187.1000  177.1080  144.6680 C   0  0  1  0  0  3  0  0  0  0  0  0
  181.5810  179.6570  140.6220 O   0  0  0  0  0  1  0  0  0  0  0  0
  182.4980  179.4710  139.5940 C   0  0  0  0  0  0  0  0  0  0  0  0
  182.1420  179.6490  138.4010 O   0  0  0  0  0  0  0  0  0  0  0  0
  192.4390  179.0230  144.7080 O   0  0  0  0  0  1  0  0  0  0  0  0
  191.5750  179.3600  143.6650 C   0  0  0  0  0  2  0  0  0  0  0  0
  187.2600  177.2600  146.1900 C   0  0  2  0  0  3  0  0  0  0  0  0
  184.6560  178.3150  147.2480 C   0  0  0  0  0  1  0  0  0  0  0  0
  187.0970  178.6480  146.6050 N   0  0  0  0  0  2  0  0  0  0  0  0
  185.8770  179.1640  147.1440 C   0  0  0  0  0  0  0  0  0  0  0  0
  185.8290  180.3610  147.5300 O   0  0  0  0  0  0  0  0  0  0  0  0
  188.5940  176.7130  146.6820 C   0  0  0  0  0  2  0  0  0  0  0  0
  189.1160  177.5430  147.8410 C   0  0  0  0  0  2  0  0  0  0  0  0
  190.6320  177.5020  147.8660 C   0  0  0  0  0  2  0  0  0  0  0  0
  191.1130  176.6930  146.8010 O   0  0  0  0  0  0  0  0  0  0  0  0
  192.4020  174.9590  146.0380 O   0  0  0  0  0  0  0  0  0  0  0  0
  192.8950  175.6580  148.2540 C   0  0  0  0  0  1  0  0  0  0  0  0
  192.1260  175.7500  146.9780 C   0  0  0  0  0  0  0  0  0  0  0  0
  182.9370  176.9880  140.7300 O   0  0  0  0  0  0  0  0  0  0  0  0
  183.0810  176.3120  139.5170 C   0  0  0  0  0  2  0  0  0  0  0  0
  181.7750  175.6320  139.1590 C   0  0  0  0  0  1  0  0  0  0  0  0
  1 17  1  0  0  0  0
  1  9  2  0  0  0  0
  2 42  1  1  0  0  0
  2 10  1  0  0  0  0
  3  4  1  0  0  0  0
  4 29  1  6  0  0  0
  4  8  1  0  0  0  0
  5  9  1  0  0  0  0
  5 12  2  0  0  0  0
  6 23  1  1  0  0  0
  6  7  1  0  0  0  0
  7  3  1  0  0  0  0
  7 11  1  1  0  0  0
  9 16  1  0  0  0  0
 10 13  1  0  0  0  0
 11 19  1  0  0  0  0
 12 21  1  0  0  0  0
 13 14  1  0  0  0  0
 14 24  1  0  0  0  0
 15  8  1  1  0  0  0
 15 24  1  0  0  0  0
 16  6  1  0  0  0  0
 16 20  1  1  0  0  0
 17 23  2  0  0  0  0
 18 12  1  0  0  0  0
 18 22  1  0  0  0  0
 19 15  1  0  0  0  0
 21 20  2  0  0  0  0
 22 26  1  6  0  0  0
 22  2  1  0  0  0  0
 24 30  1  1  0  0  0
 26 25  1  0  0  0  0
 27 26  2  0  0  0  0
 29 28  1  0  0  0  0
 30 32  1  0  0  0  0
 30 35  1  6  0  0  0
 32 33  1  0  0  0  0
 33 31  1  0  0  0  0
 33 34  2  0  0  0  0
 35 36  1  0  0  0  0
 36 37  1  0  0  0  0
 38 41  1  0  0  0  0
 38 37  1  0  0  0  0
 39 41  2  0  0  0  0
 41 40  1  0  0  0  0
 43 42  1  0  0  0  0
 44 43  1  0  0  0  0
M  END
>  <MODEL>
1

>  <REMARK>
 VINA RESULT:      -6.4      0.000      0.000
  Name = 
  11 active torsions:
  status: ('A' for Active; 'I' for Inactive)
    1  A    between atoms: C_3  and  O_9
    2  A    between atoms: C_5  and  C_26
    3  A    between atoms: C_6  and  C_22
    4  A    between atoms: C_6  and  N_36
    5  A    between atoms: C_6  and  C_41
    6  A    between atoms: O_9  and  C_40
    7  A    between atoms: C_10  and  C_22
    8  A    between atoms: C_10  and  C_34
    9  A    between atoms: O_27  and  C_31
   10  A    between atoms: O_27  and  C_34
   11  A    between atoms: C_28  and  C_38
                            x       y       z     vdW  Elec       q    Type
                         _______ _______ _______ _____ _____    ______ ____

>  <TORSDO>
F 11

$$$$
=
 OpenBabel11062415523D

 44 47  0  0  1  0  0  0  0  0999 V2000
  179.1490  178.0260  139.5210 N   0  0  0  0  0  0  0  0  0  0  0  0
  182.8550  174.9150  136.1670 C   0  0  2  0  0  3  0  0  0  0  0  0
  183.8300  178.4970  141.3020 O   0  0  0  0  0  0  0  0  0  0  0  0
  185.1190  179.0230  141.4800 C   0  0  2  0  0  3  0  0  0  0  0  0
  180.0530  176.0010  138.7050 N   0  0  0  0  0  0  0  0  0  0  0  0
  181.6590  178.8320  140.4150 C   0  0  2  0  0  3  0  0  0  0  0  0
  183.0480  179.4040  140.5420 C   0  0  2  0  0  3  0  0  0  0  0  0
  186.0670  178.3860  140.4630 C   0  0  0  0  0  2  0  0  0  0  0  0
  180.1970  177.1700  139.3930 C   0  0  0  0  0  0  0  0  0  0  0  0
  184.3340  175.0660  136.5000 C   0  0  0  0  0  2  0  0  0  0  0  0
  183.5220  179.5870  139.0700 C   0  0  0  0  0  2  0  0  0  0  0  0
  181.0930  175.1330  138.5490 C   0  0  0  0  0  0  0  0  0  0  0  0
  184.6390  176.5190  136.8290 C   0  0  0  0  0  2  0  0  0  0  0  0
  186.0230  176.6440  137.4550 C   0  0  0  0  0  2  0  0  0  0  0  0
  185.4490  178.5150  139.0720 C   0  0  1  0  0  3  0  0  0  0  0  0
  181.4600  177.5280  139.9070 C   0  0  1  0  0  3  0  0  0  0  0  0
  179.3000  179.2550  140.0880 C   0  0  0  0  0  3  0  0  0  0  0  0
  180.9620  173.9590  137.6210 C   0  0  0  0  0  2  0  0  0  0  0  0
  184.8980  179.7880  138.9120 O   0  0  0  0  0  0  0  0  0  0  0  0
  182.5000  176.5980  139.8310 C   0  0  0  0  0  3  0  0  0  0  0  0
  182.3150  175.3940  139.1750 C   0  0  0  0  0  3  0  0  0  0  0  0
  182.2670  173.6670  136.8590 C   0  0  1  0  0  3  0  0  0  0  0  0
  180.5610  179.6900  140.5120 C   0  0  0  0  0  3  0  0  0  0  0  0
  186.2990  178.0920  137.8610 C   0  0  1  0  0  3  0  0  0  0  0  0
  180.8750  171.9770  135.6420 O   0  0  0  0  0  1  0  0  0  0  0  0
  182.1310  172.4740  135.9670 C   0  0  0  0  0  0  0  0  0  0  0  0
  183.1610  171.9290  135.4940 O   0  0  0  0  0  0  0  0  0  0  0  0
  186.6930  177.8470  142.8280 O   0  0  0  0  0  1  0  0  0  0  0  0
  185.6090  178.7240  142.8840 C   0  0  0  0  0  2  0  0  0  0  0  0
  187.8060  178.3900  137.9370 C   0  0  2  0  0  3  0  0  0  0  0  0
  189.0740  176.1880  136.3370 C   0  0  0  0  0  1  0  0  0  0  0  0
  188.3690  178.6190  136.6110 N   0  0  0  0  0  2  0  0  0  0  0  0
  188.9470  177.5790  135.8170 C   0  0  0  0  0  0  0  0  0  0  0  0
  189.3640  177.8440  134.6600 O   0  0  0  0  0  0  0  0  0  0  0  0
  188.5720  177.2870  138.6560 C   0  0  0  0  0  2  0  0  0  0  0  0
  189.6030  177.8810  139.5990 C   0  0  0  0  0  2  0  0  0  0  0  0
  189.6780  177.0570  140.8690 C   0  0  0  0  0  2  0  0  0  0  0  0
  190.6510  177.6080  141.7470 O   0  0  0  0  0  0  0  0  0  0  0  0
  189.7840  176.6080  143.6180 O   0  0  0  0  0  0  0  0  0  0  0  0
  191.4230  178.2700  144.0540 C   0  0  0  0  0  1  0  0  0  0  0  0
  190.5780  177.4550  143.1320 C   0  0  0  0  0  0  0  0  0  0  0  0
  182.6500  174.9190  134.7830 O   0  0  0  0  0  0  0  0  0  0  0  0
  181.4970  175.6820  134.5940 C   0  0  0  0  0  2  0  0  0  0  0  0
  181.6990  177.0600  135.1890 C   0  0  0  0  0  1  0  0  0  0  0  0
  1 17  1  0  0  0  0
  2 42  1  6  0  0  0
  2 10  1  0  0  0  0
  2 22  1  0  0  0  0
  3  4  1  0  0  0  0
  4 29  1  1  0  0  0
  5  9  1  0  0  0  0
  6 23  1  6  0  0  0
  6  7  1  0  0  0  0
  7 11  1  6  0  0  0
  7  3  1  0  0  0  0
  8  4  1  0  0  0  0
  9  1  2  0  0  0  0
  9 16  1  0  0  0  0
 10 13  1  0  0  0  0
 12  5  2  0  0  0  0
 12 21  1  0  0  0  0
 13 14  1  0  0  0  0
 14 24  1  0  0  0  0
 15  8  1  1  0  0  0
 16 20  1  6  0  0  0
 16  6  1  0  0  0  0
 17 23  2  0  0  0  0
 18 12  1  0  0  0  0
 19 11  1  0  0  0  0
 19 15  1  0  0  0  0
 21 20  2  0  0  0  0
 22 26  1  6  0  0  0
 22 18  1  0  0  0  0
 24 30  1  1  0  0  0
 24 15  1  0  0  0  0
 25 26  1  0  0  0  0
 27 26  2  0  0  0  0
 28 29  1  0  0  0  0
 30 35  1  6  0  0  0
 32 30  1  0  0  0  0
 33 31  1  0  0  0  0
 33 32  1  0  0  0  0
 34 33  2  0  0  0  0
 35 36  1  0  0  0  0
 36 37  1  0  0  0  0
 37 38  1  0  0  0  0
 38 41  1  0  0  0  0
 41 39  2  0  0  0  0
 41 40  1  0  0  0  0
 43 42  1  0  0  0  0
 43 44  1  0  0  0  0
M  END
>  <MODEL>
2

>  <REMARK>
 VINA RESULT:      -6.0      3.382      7.624
  Name = 
  11 active torsions:
  status: ('A' for Active; 'I' for Inactive)
    1  A    between atoms: C_3  and  O_9
    2  A    between atoms: C_5  and  C_26
    3  A    between atoms: C_6  and  C_22
    4  A    between atoms: C_6  and  N_36
    5  A    between atoms: C_6  and  C_41
    6  A    between atoms: O_9  and  C_40
    7  A    between atoms: C_10  and  C_22
    8  A    between atoms: C_10  and  C_34
    9  A    between atoms: O_27  and  C_31
   10  A    between atoms: O_27  and  C_34
   11  A    between atoms: C_28  and  C_38
                            x       y       z     vdW  Elec       q    Type
                         _______ _______ _______ _____ _____    ______ ____

>  <TORSDO>
F 11

$$$$
=
 OpenBabel11062415523D

 44 47  0  0  1  0  0  0  0  0999 V2000
  186.9580  177.8780  143.2060 N   0  0  0  0  0  0  0  0  0  0  0  0
  188.3860  175.9750  137.8210 C   0  0  2  0  0  3  0  0  0  0  0  0
  183.6460  179.6530  139.8610 O   0  0  0  0  0  0  0  0  0  0  0  0
  182.4940  179.7140  139.0620 C   0  0  2  0  0  3  0  0  0  0  0  0
  188.3300  177.8410  141.2820 N   0  0  0  0  0  0  0  0  0  0  0  0
  184.7500  178.5860  141.6650 C   0  0  2  0  0  3  0  0  0  0  0  0
  183.5210  178.5900  140.7920 C   0  0  2  0  0  3  0  0  0  0  0  0
  182.7720  179.0240  137.7250 C   0  0  0  0  0  2  0  0  0  0  0  0
  187.1310  178.1040  141.8770 C   0  0  0  0  0  0  0  0  0  0  0  0
  187.3970  176.3190  136.7140 C   0  0  0  0  0  2  0  0  0  0  0  0
  183.5040  177.1700  140.1510 C   0  0  0  0  0  2  0  0  0  0  0  0
  188.5250  178.0440  139.9480 C   0  0  0  0  0  0  0  0  0  0  0  0
  185.9750  176.1570  137.2280 C   0  0  0  0  0  2  0  0  0  0  0  0
  184.9820  176.7800  136.2550 C   0  0  0  0  0  2  0  0  0  0  0  0
  183.3540  177.6390  138.0020 C   0  0  1  0  0  3  0  0  0  0  0  0
  186.0420  178.5360  141.0930 C   0  0  1  0  0  3  0  0  0  0  0  0
  185.7380  178.0060  143.7960 C   0  0  0  0  0  3  0  0  0  0  0  0
  189.7830  177.5590  139.2880 C   0  0  0  0  0  2  0  0  0  0  0  0
  182.6550  177.0300  139.0470 O   0  0  0  0  0  0  0  0  0  0  0  0
  186.2650  178.8350  139.7470 C   0  0  0  0  0  3  0  0  0  0  0  0
  187.5070  178.6120  139.1770 C   0  0  0  0  0  3  0  0  0  0  0  0
  189.5270  177.0130  137.8710 C   0  0  1  0  0  3  0  0  0  0  0  0
  184.6110  178.3280  143.0320 C   0  0  0  0  0  3  0  0  0  0  0  0
  183.5600  176.6900  136.8090 C   0  0  1  0  0  3  0  0  0  0  0  0
  191.8470  176.0720  137.9730 O   0  0  0  0  0  1  0  0  0  0  0  0
  190.7940  176.5690  137.2130 C   0  0  0  0  0  0  0  0  0  0  0  0
  190.9010  176.6260  135.9620 O   0  0  0  0  0  0  0  0  0  0  0  0
  183.2600  181.9080  138.5380 O   0  0  0  0  0  1  0  0  0  0  0  0
  182.1150  181.1610  138.8140 C   0  0  0  0  0  2  0  0  0  0  0  0
  182.5040  176.7440  135.6930 C   0  0  2  0  0  3  0  0  0  0  0  0
  180.3080  178.5640  134.7530 C   0  0  0  0  0  1  0  0  0  0  0  0
  181.1520  176.6760  136.2370 N   0  0  0  0  0  2  0  0  0  0  0  0
  180.0830  177.5080  135.7810 C   0  0  0  0  0  0  0  0  0  0  0  0
  178.9310  177.3540  136.2620 O   0  0  0  0  0  0  0  0  0  0  0  0
  182.7130  175.6490  134.6540 C   0  0  0  0  0  2  0  0  0  0  0  0
  182.4880  174.2800  135.2690 C   0  0  0  0  0  2  0  0  0  0  0  0
  183.4430  173.2740  134.6580 C   0  0  0  0  0  2  0  0  0  0  0  0
  184.7420  173.4390  135.2120 O   0  0  0  0  0  0  0  0  0  0  0  0
  186.1010  171.7350  135.9180 O   0  0  0  0  0  0  0  0  0  0  0  0
  184.7760  172.7170  137.6270 C   0  0  0  0  0  1  0  0  0  0  0  0
  185.2390  172.6040  136.2130 C   0  0  0  0  0  0  0  0  0  0  0  0
  188.8490  174.6610  137.6880 O   0  0  0  0  0  0  0  0  0  0  0  0
  188.4500  174.2700  136.4090 C   0  0  0  0  0  2  0  0  0  0  0  0
  189.4900  173.3420  135.8160 C   0  0  0  0  0  1  0  0  0  0  0  0
  1 17  1  0  0  0  0
  2 42  1  6  0  0  0
  2 22  1  0  0  0  0
  3  7  1  0  0  0  0
  4 29  1  6  0  0  0
  4  3  1  0  0  0  0
  5  9  1  0  0  0  0
  6 23  1  1  0  0  0
  7 11  1  6  0  0  0
  7  6  1  0  0  0  0
  8  4  1  0  0  0  0
  9  1  2  0  0  0  0
 10 13  1  0  0  0  0
 10  2  1  0  0  0  0
 12  5  2  0  0  0  0
 14 24  1  0  0  0  0
 14 13  1  0  0  0  0
 15  8  1  6  0  0  0
 15 19  1  0  0  0  0
 16 20  1  6  0  0  0
 16  6  1  0  0  0  0
 16  9  1  0  0  0  0
 18 12  1  0  0  0  0
 19 11  1  0  0  0  0
 21 20  2  0  0  0  0
 21 12  1  0  0  0  0
 22 26  1  1  0  0  0
 22 18  1  0  0  0  0
 23 17  2  0  0  0  0
 24 30  1  6  0  0  0
 24 15  1  0  0  0  0
 26 25  1  0  0  0  0
 27 26  2  0  0  0  0
 28 29  1  0  0  0  0
 30 35  1  6  0  0  0
 30 32  1  0  0  0  0
 31 33  1  0  0  0  0
 33 32  1  0  0  0  0
 33 34  2  0  0  0  0
 35 36  1  0  0  0  0
 37 38  1  0  0  0  0
 37 36  1  0  0  0  0
 38 41  1  0  0  0  0
 39 41  2  0  0  0  0
 41 40  1  0  0  0  0
 43 42  1  0  0  0  0
 44 43  1  0  0  0  0
M  END
>  <MODEL>
3

>  <REMARK>
 VINA RESULT:      -5.7      4.072      9.326
  Name = 
  11 active torsions:
  status: ('A' for Active; 'I' for Inactive)
    1  A    between atoms: C_3  and  O_9
    2  A    between atoms: C_5  and  C_26
    3  A    between atoms: C_6  and  C_22
    4  A    between atoms: C_6  and  N_36
    5  A    between atoms: C_6  and  C_41
    6  A    between atoms: O_9  and  C_40
    7  A    between atoms: C_10  and  C_22
    8  A    between atoms: C_10  and  C_34
    9  A    between atoms: O_27  and  C_31
   10  A    between atoms: O_27  and  C_34
   11  A    between atoms: C_28  and  C_38
                            x       y       z     vdW  Elec       q    Type
                         _______ _______ _______ _____ _____    ______ ____

>  <TORSDO>
F 11

$$$$
=
 OpenBabel11062415523D

 44 47  0  0  1  0  0  0  0  0999 V2000
  186.7600  178.2870  142.5410 N   0  0  0  0  0  0  0  0  0  0  0  0
  186.8120  175.9740  137.1270 C   0  0  2  0  0  3  0  0  0  0  0  0
  182.4760  179.4490  140.1740 O   0  0  0  0  0  0  0  0  0  0  0  0
  181.1460  179.3380  139.7390 C   0  0  2  0  0  3  0  0  0  0  0  0
  187.5340  178.1670  140.3110 N   0  0  0  0  0  0  0  0  0  0  0  0
  184.1470  178.6590  141.6550 C   0  0  2  0  0  3  0  0  0  0  0  0
  182.7290  178.4780  141.1770 C   0  0  2  0  0  3  0  0  0  0  0  0
  181.1090  178.5420  138.4340 C   0  0  0  0  0  2  0  0  0  0  0  0
  186.5280  178.3920  141.2050 C   0  0  0  0  0  0  0  0  0  0  0  0
  185.5210  176.1270  136.3300 C   0  0  0  0  0  2  0  0  0  0  0  0
  182.6820  177.0050  140.6740 C   0  0  0  0  0  2  0  0  0  0  0  0
  187.3240  178.2500  138.9660 C   0  0  0  0  0  0  0  0  0  0  0  0
  184.3260  175.9030  137.2440 C   0  0  0  0  0  2  0  0  0  0  0  0
  183.0400  176.3450  136.5560 C   0  0  0  0  0  2  0  0  0  0  0  0
  181.8860  177.2420  138.6310 C   0  0  1  0  0  3  0  0  0  0  0  0
  185.2240  178.6550  140.7400 C   0  0  1  0  0  3  0  0  0  0  0  0
  185.7480  178.3760  143.4470 C   0  0  0  0  0  3  0  0  0  0  0  0
  188.3900  177.8040  138.0070 C   0  0  0  0  0  2  0  0  0  0  0  0
  181.5770  176.6880  139.8750 O   0  0  0  0  0  0  0  0  0  0  0  0
  185.0280  178.8350  139.3680 C   0  0  0  0  0  3  0  0  0  0  0  0
  186.0760  178.6560  138.4830 C   0  0  0  0  0  3  0  0  0  0  0  0
  187.8050  177.1000  136.7690 C   0  0  1  0  0  3  0  0  0  0  0  0
  184.4250  178.5290  143.0190 C   0  0  0  0  0  3  0  0  0  0  0  0
  181.8480  176.1980  137.5020 C   0  0  1  0  0  3  0  0  0  0  0  0
  189.9730  175.9590  136.2420 O   0  0  0  0  0  1  0  0  0  0  0  0
  188.8760  176.6940  135.8080 C   0  0  0  0  0  0  0  0  0  0  0  0
  188.7750  177.0040  134.5940 O   0  0  0  0  0  0  0  0  0  0  0  0
  179.4550  180.9080  140.3320 O   0  0  0  0  0  1  0  0  0  0  0  0
  180.5630  180.7180  139.5060 C   0  0  0  0  0  2  0  0  0  0  0  0
  180.5210  176.0560  136.7370 C   0  0  2  0  0  3  0  0  0  0  0  0
  179.2720  174.1690  138.7110 C   0  0  0  0  0  1  0  0  0  0  0  0
  180.2440  174.6620  136.4100 N   0  0  0  0  0  2  0  0  0  0  0  0
  179.6180  173.7550  137.3210 C   0  0  0  0  0  0  0  0  0  0  0  0
  179.3620  172.5810  136.9480 O   0  0  0  0  0  0  0  0  0  0  0  0
  180.4930  176.9120  135.4770 C   0  0  0  0  0  2  0  0  0  0  0  0
  179.1950  177.6950  135.3940 C   0  0  0  0  0  2  0  0  0  0  0  0
  179.4070  178.9650  134.5940 C   0  0  0  0  0  2  0  0  0  0  0  0
  180.4560  179.7320  135.1700 O   0  0  0  0  0  0  0  0  0  0  0  0
  181.1860  181.8270  134.5970 O   0  0  0  0  0  0  0  0  0  0  0  0
  179.4070  181.7940  136.1710 C   0  0  0  0  0  1  0  0  0  0  0  0
  180.3940  181.1220  135.2750 C   0  0  0  0  0  0  0  0  0  0  0  0
  187.3530  174.6950  136.9630 O   0  0  0  0  0  0  0  0  0  0  0  0
  186.6700  174.1560  135.8710 C   0  0  0  0  0  2  0  0  0  0  0  0
  187.3260  172.8550  135.4570 C   0  0  0  0  0  1  0  0  0  0  0  0
  1 17  1  0  0  0  0
  2 42  1  6  0  0  0
  3  7  1  0  0  0  0
  4 29  1  6  0  0  0
  4  3  1  0  0  0  0
  5  9  1  0  0  0  0
  6 23  1  1  0  0  0
  7 11  1  6  0  0  0
  7  6  1  0  0  0  0
  8  4  1  0  0  0  0
  9  1  2  0  0  0  0
 10  2  1  0  0  0  0
 10 13  1  0  0  0  0
 12  5  2  0  0  0  0
 14 13  1  0  0  0  0
 14 24  1  0  0  0  0
 15  8  1  6  0  0  0
 15 19  1  0  0  0  0
 16 20  1  6  0  0  0
 16  9  1  0  0  0  0
 16  6  1  0  0  0  0
 18 12  1  0  0  0  0
 19 11  1  0  0  0  0
 21 12  1  0  0  0  0
 21 20  2  0  0  0  0
 22 26  1  1  0  0  0
 22  2  1  0  0  0  0
 22 18  1  0  0  0  0
 23 17  2  0  0  0  0
 24 30  1  6  0  0  0
 24 15  1  0  0  0  0
 26 25  1  0  0  0  0
 27 26  2  0  0  0  0
 29 28  1  0  0  0  0
 30 35  1  6  0  0  0
 32 30  1  0  0  0  0
 32 33  1  0  0  0  0
 33 31  1  0  0  0  0
 34 33  2  0  0  0  0
 36 35  1  0  0  0  0
 37 38  1  0  0  0  0
 37 36  1  0  0  0  0
 38 41  1  0  0  0  0
 39 41  2  0  0  0  0
 41 40  1  0  0  0  0
 43 42  1  0  0  0  0
 44 43  1  0  0  0  0
M  END
>  <MODEL>
4

>  <REMARK>
 VINA RESULT:      -5.5      4.598     10.113
  Name = 
  11 active torsions:
  status: ('A' for Active; 'I' for Inactive)
    1  A    between atoms: C_3  and  O_9
    2  A    between atoms: C_5  and  C_26
    3  A    between atoms: C_6  and  C_22
    4  A    between atoms: C_6  and  N_36
    5  A    between atoms: C_6  and  C_41
    6  A    between atoms: O_9  and  C_40
    7  A    between atoms: C_10  and  C_22
    8  A    between atoms: C_10  and  C_34
    9  A    between atoms: O_27  and  C_31
   10  A    between atoms: O_27  and  C_34
   11  A    between atoms: C_28  and  C_38
                            x       y       z     vdW  Elec       q    Type
                         _______ _______ _______ _____ _____    ______ ____

>  <TORSDO>
F 11

$$$$
=
 OpenBabel11062415523D

 44 47  0  0  1  0  0  0  0  0999 V2000
  181.7690  175.5960  138.3210 N   0  0  0  0  0  0  0  0  0  0  0  0
  185.2350  177.9220  142.4730 C   0  0  2  0  0  3  0  0  0  0  0  0
  186.0180  177.2780  136.2170 O   0  0  0  0  0  0  0  0  0  0  0  0
  187.3360  177.2680  135.7350 C   0  0  2  0  0  3  0  0  0  0  0  0
  182.3280  177.2550  139.9090 N   0  0  0  0  0  0  0  0  0  0  0  0
  184.1840  175.9960  136.9950 C   0  0  2  0  0  3  0  0  0  0  0  0
  185.6180  175.9540  136.5300 C   0  0  2  0  0  3  0  0  0  0  0  0
  188.2880  177.6600  136.8660 C   0  0  0  0  0  2  0  0  0  0  0  0
  182.6010  176.5800  138.7560 C   0  0  0  0  0  0  0  0  0  0  0  0
  186.6210  178.3550  142.0110 C   0  0  0  0  0  2  0  0  0  0  0  0
  186.3870  175.3130  137.7230 C   0  0  0  0  0  2  0  0  0  0  0  0
  183.1550  178.2340  140.3750 C   0  0  0  0  0  0  0  0  0  0  0  0
  187.1800  177.3300  141.0370 C   0  0  0  0  0  2  0  0  0  0  0  0
  188.4140  177.8810  140.3330 C   0  0  0  0  0  2  0  0  0  0  0  0
  187.9870  176.7870  138.0830 C   0  0  1  0  0  3  0  0  0  0  0  0
  183.7940  176.8480  138.0530 C   0  0  1  0  0  3  0  0  0  0  0  0
  182.0860  174.8200  137.2480 C   0  0  0  0  0  3  0  0  0  0  0  0
  182.9370  178.8160  141.7420 C   0  0  0  0  0  2  0  0  0  0  0  0
  187.7780  175.4660  137.6800 O   0  0  0  0  0  0  0  0  0  0  0  0
  184.5920  177.9140  138.4760 C   0  0  0  0  0  3  0  0  0  0  0  0
  184.2650  178.6220  139.6200 C   0  0  0  0  0  3  0  0  0  0  0  0
  184.2620  179.1200  142.4650 C   0  0  1  0  0  3  0  0  0  0  0  0
  183.3090  174.9840  136.5900 C   0  0  0  0  0  3  0  0  0  0  0  0
  188.9300  176.8840  139.2950 C   0  0  1  0  0  3  0  0  0  0  0  0
  184.9020  180.6920  144.3080 O   0  0  0  0  0  0  0  0  0  0  0  0
  184.0290  179.7330  143.8090 C   0  0  0  0  0  0  0  0  0  0  0  0
  183.0250  179.3920  144.4850 O   0  0  0  0  0  1  0  0  0  0  0  0
  186.4200  179.1700  134.6290 O   0  0  0  0  0  1  0  0  0  0  0  0
  187.4750  178.2570  134.5940 C   0  0  0  0  0  2  0  0  0  0  0  0
  190.4230  177.0900  138.9930 C   0  0  2  0  0  3  0  0  0  0  0  0
  191.5940  176.3620  136.3240 C   0  0  0  0  0  1  0  0  0  0  0  0
  191.0980  175.8180  138.7620 N   0  0  0  0  0  2  0  0  0  0  0  0
  191.6930  175.4640  137.5100 C   0  0  0  0  0  0  0  0  0  0  0  0
  192.3050  174.3700  137.4040 O   0  0  0  0  0  0  0  0  0  0  0  0
  191.1280  177.8710  140.0940 C   0  0  0  0  0  2  0  0  0  0  0  0
  191.6120  176.9350  141.1860 C   0  0  0  0  0  2  0  0  0  0  0  0
  191.3130  177.5290  142.5490 C   0  0  0  0  0  2  0  0  0  0  0  0
  191.4520  176.5330  143.5540 O   0  0  0  0  0  0  0  0  0  0  0  0
  192.0450  176.3150  145.7560 O   0  0  0  0  0  0  0  0  0  0  0  0
  190.1300  177.6680  145.3760 C   0  0  0  0  0  1  0  0  0  0  0  0
  191.2540  176.8050  144.9080 C   0  0  0  0  0  0  0  0  0  0  0  0
  185.2990  177.2780  143.7130 O   0  0  0  0  0  0  0  0  0  0  0  0
  186.5560  177.6090  144.2220 C   0  0  0  0  0  2  0  0  0  0  0  0
  186.4810  177.7070  145.7320 C   0  0  0  0  0  1  0  0  0  0  0  0
  1  9  2  0  0  0  0
  2 42  1  1  0  0  0
  3  7  1  0  0  0  0
  4 29  1  6  0  0  0
  4  3  1  0  0  0  0
  4  8  1  0  0  0  0
  5 12  2  0  0  0  0
  6 23  1  1  0  0  0
  6 16  1  0  0  0  0
  7  6  1  0  0  0  0
  7 11  1  1  0  0  0
  9  5  1  0  0  0  0
 10  2  1  0  0  0  0
 12 18  1  0  0  0  0
 13 10  1  0  0  0  0
 14 13  1  0  0  0  0
 15  8  1  6  0  0  0
 15 24  1  0  0  0  0
 16 20  1  1  0  0  0
 16  9  1  0  0  0  0
 17  1  1  0  0  0  0
 18 22  1  0  0  0  0
 19 11  1  0  0  0  0
 19 15  1  0  0  0  0
 20 21  2  0  0  0  0
 21 12  1  0  0  0  0
 22  2  1  0  0  0  0
 22 26  1  1  0  0  0
 23 17  2  0  0  0  0
 24 30  1  6  0  0  0
 24 14  1  0  0  0  0
 26 25  2  0  0  0  0
 26 27  1  0  0  0  0
 29 28  1  0  0  0  0
 30 35  1  1  0  0  0
 31 33  1  0  0  0  0
 32 30  1  0  0  0  0
 33 32  1  0  0  0  0
 34 33  2  0  0  0  0
 35 36  1  0  0  0  0
 36 37  1  0  0  0  0
 37 38  1  0  0  0  0
 38 41  1  0  0  0  0
 41 40  1  0  0  0  0
 41 39  2  0  0  0  0
 42 43  1  0  0  0  0
 43 44  1  0  0  0  0
M  END
>  <MODEL>
5

>  <REMARK>
 VINA RESULT:      -5.4      2.856      6.734
  Name = 
  11 active torsions:
  status: ('A' for Active; 'I' for Inactive)
    1  A    between atoms: C_3  and  O_9
    2  A    between atoms: C_5  and  C_26
    3  A    between atoms: C_6  and  C_22
    4  A    between atoms: C_6  and  N_36
    5  A    between atoms: C_6  and  C_41
    6  A    between atoms: O_9  and  C_40
    7  A    between atoms: C_10  and  C_22
    8  A    between atoms: C_10  and  C_34
    9  A    between atoms: O_27  and  C_31
   10  A    between atoms: O_27  and  C_34
   11  A    between atoms: C_28  and  C_38
                            x       y       z     vdW  Elec       q    Type
                         _______ _______ _______ _____ _____    ______ ____

>  <TORSDO>
F 11

$$$$
=
 OpenBabel11062415523D

 44 47  0  0  1  0  0  0  0  0999 V2000
  189.2040  176.1020  137.4910 N   0  0  0  0  0  0  0  0  0  0  0  0
  184.1530  177.8670  139.9480 C   0  0  2  0  0  3  0  0  0  0  0  0
  190.1590  178.2720  141.9280 O   0  0  0  0  0  0  0  0  0  0  0  0
  190.3710  178.3940  143.3100 C   0  0  2  0  0  3  0  0  0  0  0  0
  187.3060  177.5040  137.6250 N   0  0  0  0  0  0  0  0  0  0  0  0
  189.9560  176.8080  140.0760 C   0  0  2  0  0  3  0  0  0  0  0  0
  190.1340  176.9000  141.5710 C   0  0  2  0  0  3  0  0  0  0  0  0
  189.0290  178.6360  144.0040 C   0  0  0  0  0  2  0  0  0  0  0  0
  188.4720  177.0350  138.1560 C   0  0  0  0  0  0  0  0  0  0  0  0
  184.2650  178.4250  141.3610 C   0  0  0  0  0  2  0  0  0  0  0  0
  188.9230  176.1070  142.1480 C   0  0  0  0  0  2  0  0  0  0  0  0
  186.5460  178.4280  138.2790 C   0  0  0  0  0  0  0  0  0  0  0  0
  185.2540  177.5940  142.1640 C   0  0  0  0  0  2  0  0  0  0  0  0
  185.6120  178.3010  143.4650 C   0  0  0  0  0  2  0  0  0  0  0  0
  188.0400  177.5670  143.5430 C   0  0  1  0  0  3  0  0  0  0  0  0
  188.8790  177.4610  139.4360 C   0  0  1  0  0  3  0  0  0  0  0  0
  190.2980  175.5220  138.0560 C   0  0  0  0  0  3  0  0  0  0  0  0
  185.1760  178.7730  137.7690 C   0  0  0  0  0  2  0  0  0  0  0  0
  188.6700  176.3210  143.5070 O   0  0  0  0  0  0  0  0  0  0  0  0
  188.1530  178.4770  140.0640 C   0  0  0  0  0  3  0  0  0  0  0  0
  187.0020  178.9780  139.4800 C   0  0  0  0  0  3  0  0  0  0  0  0
  184.1710  179.0100  138.9110 C   0  0  1  0  0  3  0  0  0  0  0  0
  190.6720  175.8400  139.3670 C   0  0  0  0  0  3  0  0  0  0  0  0
  186.6670  177.5060  144.2340 C   0  0  1  0  0  3  0  0  0  0  0  0
  182.3670  178.8830  137.1760 O   0  0  0  0  0  0  0  0  0  0  0  0
  182.8210  179.3890  138.3880 C   0  0  0  0  0  0  0  0  0  0  0  0
  182.0840  180.1550  139.0600 O   0  0  0  0  0  1  0  0  0  0  0  0
  192.2220  179.2010  144.5740 O   0  0  0  0  0  1  0  0  0  0  0  0
  191.3010  179.5580  143.5890 C   0  0  0  0  0  2  0  0  0  0  0  0
  186.6370  177.8190  145.7400 C   0  0  2  0  0  3  0  0  0  0  0  0
  188.6470  178.4510  147.8800 C   0  0  0  0  0  1  0  0  0  0  0  0
  187.3040  176.7760  146.5120 N   0  0  0  0  0  2  0  0  0  0  0  0
  188.2380  177.0540  147.5580 C   0  0  0  0  0  0  0  0  0  0  0  0
  188.7320  176.1020  148.2150 O   0  0  0  0  0  0  0  0  0  0  0  0
  185.2180  178.0320  146.2520 C   0  0  0  0  0  2  0  0  0  0  0  0
  184.5690  179.2090  145.5480 C   0  0  0  0  0  2  0  0  0  0  0  0
  183.0780  178.9700  145.4060 C   0  0  0  0  0  2  0  0  0  0  0  0
  182.6880  179.1330  144.0480 O   0  0  0  0  0  0  0  0  0  0  0  0
  180.5920  178.2610  144.3550 O   0  0  0  0  0  0  0  0  0  0  0  0
  180.9010  179.3880  142.2880 C   0  0  0  0  0  1  0  0  0  0  0  0
  181.3840  178.8980  143.6130 C   0  0  0  0  0  0  0  0  0  0  0  0
  183.0350  177.0350  139.8250 O   0  0  0  0  0  0  0  0  0  0  0  0
  183.4380  176.0230  138.9510 C   0  0  0  0  0  2  0  0  0  0  0  0
  182.2360  175.5050  138.1890 C   0  0  0  0  0  1  0  0  0  0  0  0
  1 17  1  0  0  0  0
  1  9  2  0  0  0  0
  2 42  1  1  0  0  0
  2 10  1  0  0  0  0
  3  4  1  0  0  0  0
  4 29  1  6  0  0  0
  4  8  1  0  0  0  0
  5  9  1  0  0  0  0
  5 12  2  0  0  0  0
  6 23  1  1  0  0  0
  6  7  1  0  0  0  0
  7  3  1  0  0  0  0
  7 11  1  1  0  0  0
  9 16  1  0  0  0  0
 10 13  1  0  0  0  0
 11 19  1  0  0  0  0
 12 21  1  0  0  0  0
 13 14  1  0  0  0  0
 14 24  1  0  0  0  0
 15  8  1  1  0  0  0
 15 24  1  0  0  0  0
 16 20  1  1  0  0  0
 16  6  1  0  0  0  0
 17 23  2  0  0  0  0
 18 12  1  0  0  0  0
 18 22  1  0  0  0  0
 19 15  1  0  0  0  0
 21 20  2  0  0  0  0
 22 26  1  6  0  0  0
 22  2  1  0  0  0  0
 24 30  1  1  0  0  0
 25 26  2  0  0  0  0
 26 27  1  0  0  0  0
 29 28  1  0  0  0  0
 30 35  1  1  0  0  0
 30 32  1  0  0  0  0
 32 33  1  0  0  0  0
 33 31  1  0  0  0  0
 33 34  2  0  0  0  0
 36 35  1  0  0  0  0
 37 36  1  0  0  0  0
 38 37  1  0  0  0  0
 40 41  1  0  0  0  0
 41 38  1  0  0  0  0
 41 39  2  0  0  0  0
 43 42  1  0  0  0  0
 44 43  1  0  0  0  0
M  END
>  <MODEL>
6

>  <REMARK>
 VINA RESULT:      -4.8      1.679      4.157
  Name = 
  11 active torsions:
  status: ('A' for Active; 'I' for Inactive)
    1  A    between atoms: C_3  and  O_9
    2  A    between atoms: C_5  and  C_26
    3  A    between atoms: C_6  and  C_22
    4  A    between atoms: C_6  and  N_36
    5  A    between atoms: C_6  and  C_41
    6  A    between atoms: O_9  and  C_40
    7  A    between atoms: C_10  and  C_22
    8  A    between atoms: C_10  and  C_34
    9  A    between atoms: O_27  and  C_31
   10  A    between atoms: O_27  and  C_34
   11  A    between atoms: C_28  and  C_38
                            x       y       z     vdW  Elec       q    Type
                         _______ _______ _______ _____ _____    ______ ____

>  <TORSDO>
F 11

$$$$
=
 OpenBabel11062415523D

 44 47  0  0  1  0  0  0  0  0999 V2000
  188.7990  178.2190  135.7910 N   0  0  0  0  0  0  0  0  0  0  0  0
  189.5710  178.1070  141.6260 C   0  0  2  0  0  3  0  0  0  0  0  0
  184.5170  176.8140  138.0280 O   0  0  0  0  0  0  0  0  0  0  0  0
  183.2560  176.9250  138.6330 C   0  0  2  0  0  3  0  0  0  0  0  0
  189.7070  177.3150  137.7760 N   0  0  0  0  0  0  0  0  0  0  0  0
  186.2160  177.8920  136.7770 C   0  0  2  0  0  3  0  0  0  0  0  0
  184.8830  178.0620  137.4600 C   0  0  2  0  0  3  0  0  0  0  0  0
  183.4360  177.1200  140.1390 C   0  0  0  0  0  2  0  0  0  0  0  0
  188.6280  177.6160  136.9970 C   0  0  0  0  0  0  0  0  0  0  0  0
  188.3220  177.8280  142.4540 C   0  0  0  0  0  2  0  0  0  0  0  0
  185.1280  179.1950  138.5000 C   0  0  0  0  0  2  0  0  0  0  0  0
  189.5620  176.7240  138.9970 C   0  0  0  0  0  0  0  0  0  0  0  0
  187.1360  178.5680  141.8550 C   0  0  0  0  0  2  0  0  0  0  0  0
  185.8330  178.0720  142.4700 C   0  0  0  0  0  2  0  0  0  0  0  0
  184.4210  178.2650  140.3700 C   0  0  1  0  0  3  0  0  0  0  0  0
  187.3270  177.3740  137.4800 C   0  0  1  0  0  3  0  0  0  0  0  0
  187.7370  178.6490  135.0550 C   0  0  0  0  0  3  0  0  0  0  0  0
  190.7440  176.5890  139.9140 C   0  0  0  0  0  2  0  0  0  0  0  0
  184.1450  179.3140  139.4890 O   0  0  0  0  0  0  0  0  0  0  0  0
  187.1800  176.6830  138.6860 C   0  0  0  0  0  3  0  0  0  0  0  0
  188.2920  176.3380  139.4340 C   0  0  0  0  0  3  0  0  0  0  0  0
  190.3660  176.8050  141.3900 C   0  0  1  0  0  3  0  0  0  0  0  0
  186.4340  178.5230  135.5490 C   0  0  0  0  0  3  0  0  0  0  0  0
  184.6340  178.7560  141.8120 C   0  0  1  0  0  3  0  0  0  0  0  0
  191.4300  175.9060  143.4730 O   0  0  0  0  0  1  0  0  0  0  0  0
  191.5460  176.6320  142.2930 C   0  0  0  0  0  0  0  0  0  0  0  0
  192.6550  177.1290  141.9730 O   0  0  0  0  0  0  0  0  0  0  0  0
  183.2930  174.6470  137.9360 O   0  0  0  0  0  1  0  0  0  0  0  0
  182.4500  175.6660  138.3790 C   0  0  0  0  0  2  0  0  0  0  0  0
  183.4000  178.7610  142.7290 C   0  0  2  0  0  3  0  0  0  0  0  0
  180.6140  178.2450  143.7230 C   0  0  0  0  0  1  0  0  0  0  0  0
  182.2220  179.2620  142.0310 N   0  0  0  0  0  2  0  0  0  0  0  0
  180.8880  179.0580  142.5030 C   0  0  0  0  0  0  0  0  0  0  0  0
  179.9240  179.5660  141.8740 O   0  0  0  0  0  0  0  0  0  0  0  0
  183.6390  179.5600  144.0050 C   0  0  0  0  0  2  0  0  0  0  0  0
  183.8620  178.6280  145.1830 C   0  0  0  0  0  2  0  0  0  0  0  0
  185.1440  179.0000  145.9020 C   0  0  0  0  0  2  0  0  0  0  0  0
  186.0520  177.9070  145.8700 O   0  0  0  0  0  0  0  0  0  0  0  0
  187.1190  178.2940  147.8620 O   0  0  0  0  0  0  0  0  0  0  0  0
  188.4740  177.2830  146.1930 C   0  0  0  0  0  1  0  0  0  0  0  0
  187.1850  177.8540  146.6840 C   0  0  0  0  0  0  0  0  0  0  0  0
  190.3410  179.1200  142.2080 O   0  0  0  0  0  0  0  0  0  0  0  0
  190.1070  179.0030  143.5790 C   0  0  0  0  0  2  0  0  0  0  0  0
  191.3030  179.5310  144.3430 C   0  0  0  0  0  1  0  0  0  0  0  0
  1  9  2  0  0  0  0
  2 42  1  1  0  0  0
  2 10  1  0  0  0  0
  3  4  1  0  0  0  0
  4 29  1  1  0  0  0
  4  8  1  0  0  0  0
  5 12  2  0  0  0  0
  6 23  1  1  0  0  0
  6  7  1  0  0  0  0
  6 16  1  0  0  0  0
  7  3  1  0  0  0  0
  7 11  1  1  0  0  0
  9 16  1  0  0  0  0
  9  5  1  0  0  0  0
 11 19  1  0  0  0  0
 12 21  1  0  0  0  0
 12 18  1  0  0  0  0
 13 10  1  0  0  0  0
 13 14  1  0  0  0  0
 15  8  1  1  0  0  0
 15 24  1  0  0  0  0
 16 20  1  1  0  0  0
 17 23  2  0  0  0  0
 17  1  1  0  0  0  0
 18 22  1  0  0  0  0
 19 15  1  0  0  0  0
 20 21  2  0  0  0  0
 22  2  1  0  0  0  0
 22 26  1  1  0  0  0
 24 14  1  0  0  0  0
 24 30  1  1  0  0  0
 26 25  1  0  0  0  0
 27 26  2  0  0  0  0
 28 29  1  0  0  0  0
 30 35  1  1  0  0  0
 32 33  1  0  0  0  0
 32 30  1  0  0  0  0
 33 31  1  0  0  0  0
 34 33  2  0  0  0  0
 35 36  1  0  0  0  0
 36 37  1  0  0  0  0
 38 37  1  0  0  0  0
 38 41  1  0  0  0  0
 40 41  1  0  0  0  0
 41 39  2  0  0  0  0
 42 43  1  0  0  0  0
 43 44  1  0  0  0  0
M  END
>  <MODEL>
7

>  <REMARK>
 VINA RESULT:      -4.7      2.221      6.728
  Name = 
  11 active torsions:
  status: ('A' for Active; 'I' for Inactive)
    1  A    between atoms: C_3  and  O_9
    2  A    between atoms: C_5  and  C_26
    3  A    between atoms: C_6  and  C_22
    4  A    between atoms: C_6  and  N_36
    5  A    between atoms: C_6  and  C_41
    6  A    between atoms: O_9  and  C_40
    7  A    between atoms: C_10  and  C_22
    8  A    between atoms: C_10  and  C_34
    9  A    between atoms: O_27  and  C_31
   10  A    between atoms: O_27  and  C_34
   11  A    between atoms: C_28  and  C_38
                            x       y       z     vdW  Elec       q    Type
                         _______ _______ _______ _____ _____    ______ ____

>  <TORSDO>
F 11

$$$$
=
 OpenBabel11062415523D

 44 47  0  0  1  0  0  0  0  0999 V2000
  186.9120  179.0790  147.3520 N   0  0  0  0  0  0  0  0  0  0  0  0
  185.3380  178.8550  141.6840 C   0  0  2  0  0  3  0  0  0  0  0  0
  190.1770  176.2170  144.8120 O   0  0  0  0  0  0  0  0  0  0  0  0
  191.3120  175.8720  144.0620 C   0  0  2  0  0  3  0  0  0  0  0  0
  185.4980  178.3960  145.5860 N   0  0  0  0  0  0  0  0  0  0  0  0
  189.0960  177.8660  146.1240 C   0  0  2  0  0  3  0  0  0  0  0  0
  190.3060  177.5490  145.2820 C   0  0  2  0  0  3  0  0  0  0  0  0
  190.9940  176.0200  142.5720 C   0  0  0  0  0  2  0  0  0  0  0  0
  186.7140  178.3780  146.2040 C   0  0  0  0  0  0  0  0  0  0  0  0
  186.3080  178.1330  140.7560 C   0  0  0  0  0  2  0  0  0  0  0  0
  190.2870  178.6320  144.1640 C   0  0  0  0  0  2  0  0  0  0  0  0
  185.2770  177.7150  144.4260 C   0  0  0  0  0  0  0  0  0  0  0  0
  187.7380  178.4820  141.1380 C   0  0  0  0  0  2  0  0  0  0  0  0
  188.7190  177.5510  140.4370 C   0  0  0  0  0  2  0  0  0  0  0  0
  190.3980  177.4060  142.3350 C   0  0  1  0  0  3  0  0  0  0  0  0
  187.7920  177.6950  145.6070 C   0  0  1  0  0  3  0  0  0  0  0  0
  188.1460  179.1850  147.9160 C   0  0  0  0  0  3  0  0  0  0  0  0
  183.9970  177.9140  143.6660 C   0  0  0  0  0  2  0  0  0  0  0  0
  191.1100  178.3610  143.0640 O   0  0  0  0  0  0  0  0  0  0  0  0
  187.5440  176.9190  144.4720 C   0  0  0  0  0  3  0  0  0  0  0  0
  186.2870  176.9080  143.8930 C   0  0  0  0  0  3  0  0  0  0  0  0
  184.2150  177.9010  142.1420 C   0  0  1  0  0  3  0  0  0  0  0  0
  189.2610  178.6100  147.2960 C   0  0  0  0  0  3  0  0  0  0  0  0
  190.1510  177.8470  140.8810 C   0  0  1  0  0  3  0  0  0  0  0  0
  181.9690  178.9720  141.8390 O   0  0  0  0  0  1  0  0  0  0  0  0
  182.9260  178.0650  141.4000 C   0  0  0  0  0  0  0  0  0  0  0  0
  182.7160  177.3900  140.3600 O   0  0  0  0  0  0  0  0  0  0  0  0
  192.5840  174.4020  145.4390 O   0  0  0  0  0  1  0  0  0  0  0  0
  191.7070  174.4380  144.3540 C   0  0  0  0  0  2  0  0  0  0  0  0
  191.1840  177.3920  139.8370 C   0  0  2  0  0  3  0  0  0  0  0  0
  190.4880  176.7430  136.9880 C   0  0  0  0  0  1  0  0  0  0  0  0
  190.9230  176.0270  139.3920 N   0  0  0  0  0  2  0  0  0  0  0  0
  190.6240  175.6910  138.0350 C   0  0  0  0  0  0  0  0  0  0  0  0
  190.4640  174.4840  137.7180 O   0  0  0  0  0  0  0  0  0  0  0  0
  192.6120  177.5190  140.3510 C   0  0  0  0  0  2  0  0  0  0  0  0
  193.6060  177.1660  139.2590 C   0  0  0  0  0  2  0  0  0  0  0  0
  194.5600  176.0960  139.7530 C   0  0  0  0  0  2  0  0  0  0  0  0
  194.8770  175.2030  138.6930 O   0  0  0  0  0  0  0  0  0  0  0  0
  195.4090  172.9890  138.9470 O   0  0  0  0  0  0  0  0  0  0  0  0
  197.2780  174.4520  138.8570 C   0  0  0  0  0  1  0  0  0  0  0  0
  195.8110  174.1760  138.8360 C   0  0  0  0  0  0  0  0  0  0  0  0
  184.8530  180.0240  141.0890 O   0  0  0  0  0  0  0  0  0  0  0  0
  184.8750  179.7630  139.7170 C   0  0  0  0  0  2  0  0  0  0  0  0
  183.6530  180.3760  139.0650 C   0  0  0  0  0  1  0  0  0  0  0  0
  1 17  1  0  0  0  0
  2 42  1  6  0  0  0
  2 22  1  0  0  0  0
  3  7  1  0  0  0  0
  4 29  1  6  0  0  0
  4  3  1  0  0  0  0
  5  9  1  0  0  0  0
  6 23  1  6  0  0  0
  7 11  1  6  0  0  0
  7  6  1  0  0  0  0
  8  4  1  0  0  0  0
  9  1  2  0  0  0  0
 10 13  1  0  0  0  0
 10  2  1  0  0  0  0
 12  5  2  0  0  0  0
 14 24  1  0  0  0  0
 14 13  1  0  0  0  0
 15  8  1  6  0  0  0
 15 19  1  0  0  0  0
 16 20  1  6  0  0  0
 16  6  1  0  0  0  0
 16  9  1  0  0  0  0
 18 12  1  0  0  0  0
 19 11  1  0  0  0  0
 21 12  1  0  0  0  0
 21 20  2  0  0  0  0
 22 26  1  6  0  0  0
 22 18  1  0  0  0  0
 23 17  2  0  0  0  0
 24 30  1  6  0  0  0
 24 15  1  0  0  0  0
 26 25  1  0  0  0  0
 27 26  2  0  0  0  0
 29 28  1  0  0  0  0
 30 35  1  1  0  0  0
 31 33  1  0  0  0  0
 32 30  1  0  0  0  0
 33 32  1  0  0  0  0
 34 33  2  0  0  0  0
 36 37  1  0  0  0  0
 36 35  1  0  0  0  0
 38 41  1  0  0  0  0
 38 37  1  0  0  0  0
 41 40  1  0  0  0  0
 41 39  2  0  0  0  0
 43 42  1  0  0  0  0
 44 43  1  0  0  0  0
M  END
>  <MODEL>
8

>  <REMARK>
 VINA RESULT:      -4.5      2.770      6.676
  Name = 
  11 active torsions:
  status: ('A' for Active; 'I' for Inactive)
    1  A    between atoms: C_3  and  O_9
    2  A    between atoms: C_5  and  C_26
    3  A    between atoms: C_6  and  C_22
    4  A    between atoms: C_6  and  N_36
    5  A    between atoms: C_6  and  C_41
    6  A    between atoms: O_9  and  C_40
    7  A    between atoms: C_10  and  C_22
    8  A    between atoms: C_10  and  C_34
    9  A    between atoms: O_27  and  C_31
   10  A    between atoms: O_27  and  C_34
   11  A    between atoms: C_28  and  C_38
                            x       y       z     vdW  Elec       q    Type
                         _______ _______ _______ _____ _____    ______ ____

>  <TORSDO>
F 11

$$$$
=
 OpenBabel11062415523D

 44 47  0  0  1  0  0  0  0  0999 V2000
  187.2340  178.0970  142.9120 N   0  0  0  0  0  0  0  0  0  0  0  0
  187.9120  175.8690  137.5050 C   0  0  2  0  0  3  0  0  0  0  0  0
  183.4790  179.6740  139.9600 O   0  0  0  0  0  0  0  0  0  0  0  0
  182.2270  179.6900  139.3270 C   0  0  2  0  0  3  0  0  0  0  0  0
  188.3260  177.9410  140.8220 N   0  0  0  0  0  0  0  0  0  0  0  0
  184.8290  178.7160  141.6540 C   0  0  2  0  0  3  0  0  0  0  0  0
  183.4910  178.6700  140.9620 C   0  0  2  0  0  3  0  0  0  0  0  0
  182.3200  178.9190  138.0080 C   0  0  0  0  0  2  0  0  0  0  0  0
  187.2190  178.2420  141.5600 C   0  0  0  0  0  0  0  0  0  0  0  0
  186.7760  176.1480  136.5280 C   0  0  0  0  0  2  0  0  0  0  0  0
  183.3930  177.2150  140.4160 C   0  0  0  0  0  2  0  0  0  0  0  0
  188.3320  178.0630  139.4640 C   0  0  0  0  0  0  0  0  0  0  0  0
  185.4410  176.0200  137.2440 C   0  0  0  0  0  2  0  0  0  0  0  0
  184.3180  176.5850  136.3830 C   0  0  0  0  0  2  0  0  0  0  0  0
  182.9430  177.5520  138.2840 C   0  0  1  0  0  3  0  0  0  0  0  0
  186.0290  178.6280  140.9120 C   0  0  1  0  0  3  0  0  0  0  0  0
  186.1070  178.2640  143.6580 C   0  0  0  0  0  3  0  0  0  0  0  0
  189.4890  177.5360  138.6650 C   0  0  0  0  0  2  0  0  0  0  0  0
  182.4000  177.0100  139.4510 O   0  0  0  0  0  0  0  0  0  0  0  0
  186.0610  178.8450  139.5320 C   0  0  0  0  0  3  0  0  0  0  0  0
  187.2130  178.5860  138.8100 C   0  0  0  0  0  3  0  0  0  0  0  0
  189.0420  176.9060  137.3340 C   0  0  1  0  0  3  0  0  0  0  0  0
  184.8830  178.5420  143.0400 C   0  0  0  0  0  3  0  0  0  0  0  0
  182.9880  176.5320  137.1330 C   0  0  1  0  0  3  0  0  0  0  0  0
  190.1260  176.3280  135.1500 O   0  0  0  0  0  0  0  0  0  0  0  0
  190.2090  176.4190  136.5340 C   0  0  0  0  0  0  0  0  0  0  0  0
  191.2780  176.1090  137.1170 O   0  0  0  0  0  1  0  0  0  0  0  0
  181.5100  181.2680  137.6920 O   0  0  0  0  0  1  0  0  0  0  0  0
  181.8080  181.1200  139.0470 C   0  0  0  0  0  2  0  0  0  0  0  0
  181.7860  176.5210  136.1730 C   0  0  2  0  0  3  0  0  0  0  0  0
  179.2540  176.9400  134.6130 C   0  0  0  0  0  1  0  0  0  0  0  0
  180.9150  177.6690  136.4000 N   0  0  0  0  0  2  0  0  0  0  0  0
  179.6890  177.8710  135.6940 C   0  0  0  0  0  0  0  0  0  0  0  0
  178.9640  178.8580  135.9830 O   0  0  0  0  0  0  0  0  0  0  0  0
  180.9910  175.2250  136.2680 C   0  0  0  0  0  2  0  0  0  0  0  0
  181.4120  174.4290  137.4900 C   0  0  0  0  0  2  0  0  0  0  0  0
  180.3800  173.3600  137.7930 C   0  0  0  0  0  2  0  0  0  0  0  0
  179.1840  173.9620  138.2730 O   0  0  0  0  0  0  0  0  0  0  0  0
  178.9840  176.1020  139.0690 O   0  0  0  0  0  0  0  0  0  0  0  0
  179.4020  174.4610  140.7350 C   0  0  0  0  0  1  0  0  0  0  0  0
  179.1810  174.8840  139.3200 C   0  0  0  0  0  0  0  0  0  0  0  0
  188.3590  174.5490  137.3890 O   0  0  0  0  0  0  0  0  0  0  0  0
  187.6420  174.0220  136.3130 C   0  0  0  0  0  2  0  0  0  0  0  0
  187.3950  172.5460  136.5440 C   0  0  0  0  0  1  0  0  0  0  0  0
  1 17  1  0  0  0  0
  2 42  1  6  0  0  0
  3  7  1  0  0  0  0
  4 29  1  6  0  0  0
  4  3  1  0  0  0  0
  5  9  1  0  0  0  0
  6 23  1  1  0  0  0
  7 11  1  6  0  0  0
  7  6  1  0  0  0  0
  8  4  1  0  0  0  0
  9  1  2  0  0  0  0
 10 13  1  0  0  0  0
 10  2  1  0  0  0  0
 12  5  2  0  0  0  0
 14 24  1  0  0  0  0
 14 13  1  0  0  0  0
 15  8  1  6  0  0  0
 15 19  1  0  0  0  0
 16 20  1  6  0  0  0
 16  9  1  0  0  0  0
 16  6  1  0  0  0  0
 18 12  1  0  0  0  0
 19 11  1  0  0  0  0
 21 12  1  0  0  0  0
 21 20  2  0  0  0  0
 22 26  1  1  0  0  0
 22  2  1  0  0  0  0
 22 18  1  0  0  0  0
 23 17  2  0  0  0  0
 24 30  1  6  0  0  0
 24 15  1  0  0  0  0
 25 26  2  0  0  0  0
 26 27  1  0  0  0  0
 28 29  1  0  0  0  0
 30 35  1  1  0  0  0
 30 32  1  0  0  0  0
 31 33  1  0  0  0  0
 33 34  2  0  0  0  0
 33 32  1  0  0  0  0
 35 36  1  0  0  0  0
 36 37  1  0  0  0  0
 37 38  1  0  0  0  0
 38 41  1  0  0  0  0
 39 41  2  0  0  0  0
 41 40  1  0  0  0  0
 43 44  1  0  0  0  0
 43 42  1  0  0  0  0
M  END
>  <MODEL>
9

>  <REMARK>
 VINA RESULT:      -4.5      4.202      9.509
  Name = 
  11 active torsions:
  status: ('A' for Active; 'I' for Inactive)
    1  A    between atoms: C_3  and  O_9
    2  A    between atoms: C_5  and  C_26
    3  A    between atoms: C_6  and  C_22
    4  A    between atoms: C_6  and  N_36
    5  A    between atoms: C_6  and  C_41
    6  A    between atoms: O_9  and  C_40
    7  A    between atoms: C_10  and  C_22
    8  A    between atoms: C_10  and  C_34
    9  A    between atoms: O_27  and  C_31
   10  A    between atoms: O_27  and  C_34
   11  A    between atoms: C_28  and  C_38
                            x       y       z     vdW  Elec       q    Type
                         _______ _______ _______ _____ _____    ______ ____

>  <TORSDO>
F 11

$$$$
