=
 OpenBabel11062416583D

 26 28  0  0  1  0  0  0  0  0999 V2000
  188.9240  176.7370  144.6190 N   0  0  0  0  0  0  0  0  0  0  0  0
  187.4740  177.5680  146.1870 C   0  0  0  0  0  0  0  0  0  0  0  0
  188.7700  177.2370  145.9290 C   0  0  0  0  0  0  0  0  0  0  0  0
  187.6380  176.8090  143.9330 C   0  0  0  0  0  2  0  0  0  0  0  0
  186.6230  177.3140  144.9890 C   0  0  2  0  0  3  0  0  0  0  0  0
  189.7610  177.4080  146.8940 C   0  0  0  0  0  3  0  0  0  0  0  0
  187.0950  178.0760  147.4290 C   0  0  0  0  0  3  0  0  0  0  0  0
  189.3970  177.9080  148.1110 N   0  0  0  0  0  0  0  0  0  0  0  0
  188.1000  178.2400  148.3970 C   0  0  0  0  0  3  0  0  0  0  0  0
  186.0250  178.5600  144.5350 N   0  0  0  0  0  2  0  0  0  0  0  0
  183.7730  178.9600  144.7750 C   0  0  0  0  0  2  0  0  0  0  0  0
  183.4230  178.4920  141.9580 C   0  0  0  0  0  2  0  0  0  0  0  0
  184.7640  178.7860  142.6260 C   0  0  0  0  0  2  0  0  0  0  0  0
  182.2990  179.1280  142.7710 C   0  0  0  0  0  2  0  0  0  0  0  0
  184.7750  178.2460  143.9840 N   0  0  0  0  0  0  0  0  0  0  0  0
  182.3770  178.6740  144.2260 C   0  0  0  0  0  2  0  0  0  0  0  0
  190.1520  176.6430  143.9480 N   0  0  0  0  0  2  0  0  0  0  0  0
  189.8770  176.1400  142.6120 C   0  0  0  0  0  2  0  0  0  0  0  0
  190.4080  177.1060  141.5660 C   0  0  0  0  0  2  0  0  0  0  0  0
  188.4270  178.5600  141.0590 C   0  0  0  0  0  1  0  0  0  0  0  0
  189.3320  177.4550  140.5400 C   0  0  1  0  0  3  0  0  0  0  0  0
  190.8250  176.7730  138.5850 C   0  0  0  0  0  1  0  0  0  0  0  0
  189.9190  177.8450  139.1790 C   0  0  1  0  0  3  0  0  0  0  0  0
  188.8530  178.2450  138.2120 C   0  0  0  0  0  0  0  0  0  0  0  0
  187.7990  177.3840  137.9230 O   0  0  0  0  0  1  0  0  0  0  0  0
  188.8970  179.3790  137.6690 O   0  0  0  0  0  0  0  0  0  0  0  0
  1  3  1  0  0  0  0
  2  7  1  0  0  0  0
  3  2  2  0  0  0  0
  3  6  1  0  0  0  0
  4  1  1  0  0  0  0
  4  5  1  0  0  0  0
  5 10  1  6  0  0  0
  5  2  1  0  0  0  0
  6  8  2  0  0  0  0
  7  9  2  0  0  0  0
  8  9  1  0  0  0  0
 12 13  1  0  0  0  0
 12 14  1  0  0  0  0
 13 15  1  0  0  0  0
 14 16  1  0  0  0  0
 15 10  1  0  0  0  0
 15 11  1  0  0  0  0
 16 11  1  0  0  0  0
 17  1  1  0  0  0  0
 18 17  1  0  0  0  0
 19 18  1  0  0  0  0
 21 20  1  1  0  0  0
 21 19  1  0  0  0  0
 23 22  1  6  0  0  0
 23 21  1  0  0  0  0
 24 23  1  0  0  0  0
 25 24  1  0  0  0  0
 26 24  2  0  0  0  0
M  END
>  <MODEL>
1

>  <REMARK>
 VINA RESULT:      -7.8      0.000      0.000
  Name = 
  8 active torsions:
  status: ('A' for Active; 'I' for Inactive)
    1  A    between atoms: N_1  and  N_18
    2  A    between atoms: N_5  and  C_8
    3  A    between atoms: N_5  and  N_20
    4  A    between atoms: C_13  and  C_22
    5  A    between atoms: C_15  and  C_16
    6  A    between atoms: C_15  and  C_23
    7  A    between atoms: C_16  and  C_22
    8  A    between atoms: N_18  and  C_23
                            x       y       z     vdW  Elec       q    Type
                         _______ _______ _______ _____ _____    ______ ____

>  <TORSDO>
F 8

$$$$
=
 OpenBabel11062416583D

 26 28  0  0  1  0  0  0  0  0999 V2000
  190.1540  176.5840  142.9960 N   0  0  0  0  0  0  0  0  0  0  0  0
  189.2300  176.9500  145.0610 C   0  0  0  0  0  0  0  0  0  0  0  0
  190.3890  176.7300  144.3790 C   0  0  0  0  0  0  0  0  0  0  0  0
  188.7330  176.7920  142.7350 C   0  0  0  0  0  2  0  0  0  0  0  0
  188.0710  176.9850  144.1220 C   0  0  2  0  0  3  0  0  0  0  0  0
  191.6130  176.6770  145.0420 C   0  0  0  0  0  3  0  0  0  0  0  0
  189.2310  177.1150  146.4450 C   0  0  0  0  0  3  0  0  0  0  0  0
  191.6220  176.8420  146.3970 N   0  0  0  0  0  0  0  0  0  0  0  0
  190.4700  177.0550  147.1040 C   0  0  0  0  0  3  0  0  0  0  0  0
  187.4290  178.2900  144.1800 N   0  0  0  0  0  2  0  0  0  0  0  0
  185.6850  178.7940  145.5930 C   0  0  0  0  0  2  0  0  0  0  0  0
  183.8580  178.4900  143.3910 C   0  0  0  0  0  2  0  0  0  0  0  0
  185.3660  178.6790  143.2440 C   0  0  0  0  0  2  0  0  0  0  0  0
  183.3880  179.1420  144.6890 C   0  0  0  0  0  2  0  0  0  0  0  0
  186.0590  178.0700  144.3780 N   0  0  0  0  0  0  0  0  0  0  0  0
  184.1950  178.6110  145.8700 C   0  0  0  0  0  2  0  0  0  0  0  0
  191.1430  176.6970  142.0090 N   0  0  0  0  0  2  0  0  0  0  0  0
  190.5400  177.3610  140.8650 C   0  0  0  0  0  2  0  0  0  0  0  0
  190.4890  176.4170  139.6750 C   0  0  0  0  0  2  0  0  0  0  0  0
  191.8260  176.4510  137.5520 C   0  0  0  0  0  1  0  0  0  0  0  0
  190.7600  177.1620  138.3690 C   0  0  1  0  0  3  0  0  0  0  0  0
  188.5880  176.1350  137.5070 C   0  0  0  0  0  1  0  0  0  0  0  0
  189.4930  177.3610  137.5300 C   0  0  1  0  0  3  0  0  0  0  0  0
  188.7380  178.5790  137.9520 C   0  0  0  0  0  0  0  0  0  0  0  0
  187.7870  178.5090  138.9650 O   0  0  0  0  0  1  0  0  0  0  0  0
  188.9790  179.6840  137.3990 O   0  0  0  0  0  0  0  0  0  0  0  0
  1  3  1  0  0  0  0
  2  7  1  0  0  0  0
  3  6  1  0  0  0  0
  3  2  2  0  0  0  0
  4  1  1  0  0  0  0
  4  5  1  0  0  0  0
  5 10  1  6  0  0  0
  5  2  1  0  0  0  0
  6  8  2  0  0  0  0
  7  9  2  0  0  0  0
  8  9  1  0  0  0  0
 10 15  1  0  0  0  0
 11 16  1  0  0  0  0
 12 14  1  0  0  0  0
 13 12  1  0  0  0  0
 13 15  1  0  0  0  0
 14 16  1  0  0  0  0
 15 11  1  0  0  0  0
 17  1  1  0  0  0  0
 18 17  1  0  0  0  0
 19 18  1  0  0  0  0
 21 20  1  6  0  0  0
 21 19  1  0  0  0  0
 23 22  1  1  0  0  0
 23 24  1  0  0  0  0
 23 21  1  0  0  0  0
 24 25  1  0  0  0  0
 26 24  2  0  0  0  0
M  END
>  <MODEL>
2

>  <REMARK>
 VINA RESULT:      -7.5      1.500      2.278
  Name = 
  8 active torsions:
  status: ('A' for Active; 'I' for Inactive)
    1  A    between atoms: N_1  and  N_18
    2  A    between atoms: N_5  and  C_8
    3  A    between atoms: N_5  and  N_20
    4  A    between atoms: C_13  and  C_22
    5  A    between atoms: C_15  and  C_16
    6  A    between atoms: C_15  and  C_23
    7  A    between atoms: C_16  and  C_22
    8  A    between atoms: N_18  and  C_23
                            x       y       z     vdW  Elec       q    Type
                         _______ _______ _______ _____ _____    ______ ____

>  <TORSDO>
F 8

$$$$
=
 OpenBabel11062416583D

 26 28  0  0  1  0  0  0  0  0999 V2000
  189.8140  176.2580  143.4320 N   0  0  0  0  0  0  0  0  0  0  0  0
  189.1400  176.9710  145.5030 C   0  0  0  0  0  0  0  0  0  0  0  0
  190.2070  176.5940  144.7450 C   0  0  0  0  0  0  0  0  0  0  0  0
  188.3820  176.4990  143.2930 C   0  0  0  0  0  2  0  0  0  0  0  0
  187.8860  176.9280  144.6970 C   0  0  2  0  0  3  0  0  0  0  0  0
  191.4950  176.5760  145.2760 C   0  0  0  0  0  3  0  0  0  0  0  0
  189.3010  177.3380  146.8390 C   0  0  0  0  0  3  0  0  0  0  0  0
  191.6610  176.9380  146.5810 N   0  0  0  0  0  0  0  0  0  0  0  0
  190.6040  177.3120  147.3660 C   0  0  0  0  0  3  0  0  0  0  0  0
  187.3010  178.2580  144.6230 N   0  0  0  0  0  2  0  0  0  0  0  0
  185.2800  178.9540  145.4720 C   0  0  0  0  0  2  0  0  0  0  0  0
  184.0710  178.4630  142.9090 C   0  0  0  0  0  2  0  0  0  0  0  0
  185.5730  178.5970  143.1450 C   0  0  0  0  0  2  0  0  0  0  0  0
  183.3160  179.2620  143.9680 C   0  0  0  0  0  2  0  0  0  0  0  0
  185.9160  178.0950  144.4750 N   0  0  0  0  0  0  0  0  0  0  0  0
  183.7610  178.8400  145.3650 C   0  0  0  0  0  2  0  0  0  0  0  0
  190.6910  176.1730  142.3420 N   0  0  0  0  0  2  0  0  0  0  0  0
  190.7510  177.4920  141.7320 C   0  0  0  0  0  2  0  0  0  0  0  0
  190.7830  177.3690  140.2170 C   0  0  0  0  0  2  0  0  0  0  0  0
  188.4690  178.3180  140.0230 C   0  0  0  0  0  1  0  0  0  0  0  0
  189.3800  177.1610  139.6510 C   0  0  1  0  0  3  0  0  0  0  0  0
  189.3530  178.2590  137.3470 C   0  0  0  0  0  1  0  0  0  0  0  0
  189.3810  176.9530  138.1320 C   0  0  1  0  0  3  0  0  0  0  0  0
  190.5170  176.0870  137.6960 C   0  0  0  0  0  0  0  0  0  0  0  0
  190.5580  174.7420  138.0460 O   0  0  0  0  0  1  0  0  0  0  0  0
  191.4360  176.5740  136.9870 O   0  0  0  0  0  0  0  0  0  0  0  0
  1  3  1  0  0  0  0
  2  7  1  0  0  0  0
  3  6  1  0  0  0  0
  3  2  2  0  0  0  0
  4  1  1  0  0  0  0
  4  5  1  0  0  0  0
  5 10  1  6  0  0  0
  5  2  1  0  0  0  0
  6  8  2  0  0  0  0
  7  9  2  0  0  0  0
  8  9  1  0  0  0  0
 12 13  1  0  0  0  0
 12 14  1  0  0  0  0
 13 15  1  0  0  0  0
 14 16  1  0  0  0  0
 15 10  1  0  0  0  0
 15 11  1  0  0  0  0
 16 11  1  0  0  0  0
 17  1  1  0  0  0  0
 18 17  1  0  0  0  0
 19 18  1  0  0  0  0
 21 20  1  6  0  0  0
 21 19  1  0  0  0  0
 23 22  1  6  0  0  0
 23 21  1  0  0  0  0
 24 25  1  0  0  0  0
 24 23  1  0  0  0  0
 26 24  2  0  0  0  0
M  END
>  <MODEL>
3

>  <REMARK>
 VINA RESULT:      -7.5      1.681      2.068
  Name = 
  8 active torsions:
  status: ('A' for Active; 'I' for Inactive)
    1  A    between atoms: N_1  and  N_18
    2  A    between atoms: N_5  and  C_8
    3  A    between atoms: N_5  and  N_20
    4  A    between atoms: C_13  and  C_22
    5  A    between atoms: C_15  and  C_16
    6  A    between atoms: C_15  and  C_23
    7  A    between atoms: C_16  and  C_22
    8  A    between atoms: N_18  and  C_23
                            x       y       z     vdW  Elec       q    Type
                         _______ _______ _______ _____ _____    ______ ____

>  <TORSDO>
F 8

$$$$
=
 OpenBabel11062416583D

 26 28  0  0  1  0  0  0  0  0999 V2000
  186.7860  178.3480  141.8450 N   0  0  0  0  0  0  0  0  0  0  0  0
  188.9110  177.5050  141.6850 C   0  0  0  0  0  0  0  0  0  0  0  0
  187.8970  178.1140  141.0080 C   0  0  0  0  0  0  0  0  0  0  0  0
  187.1190  177.9220  143.2000 C   0  0  0  0  0  2  0  0  0  0  0  0
  188.5320  177.2930  143.1120 C   0  0  2  0  0  3  0  0  0  0  0  0
  188.0270  178.4370  139.6590 C   0  0  0  0  0  3  0  0  0  0  0  0
  190.1050  177.1740  141.0450 C   0  0  0  0  0  3  0  0  0  0  0  0
  189.1940  178.1180  139.0270 N   0  0  0  0  0  0  0  0  0  0  0  0
  190.2230  177.4990  139.6840 C   0  0  0  0  0  3  0  0  0  0  0  0
  189.4460  178.0210  143.9790 N   0  0  0  0  0  2  0  0  0  0  0  0
  191.3150  177.1710  145.0170 C   0  0  0  0  0  2  0  0  0  0  0  0
  189.7660  176.7770  147.4090 C   0  0  0  0  0  2  0  0  0  0  0  0
  189.3530  177.6820  146.2510 C   0  0  0  0  0  2  0  0  0  0  0  0
  191.2880  176.6790  147.4610 C   0  0  0  0  0  2  0  0  0  0  0  0
  189.8530  177.1380  144.9890 N   0  0  0  0  0  0  0  0  0  0  0  0
  191.8360  176.2370  146.1070 C   0  0  0  0  0  2  0  0  0  0  0  0
  185.7510  179.2470  141.5520 N   0  0  0  0  0  2  0  0  0  0  0  0
  184.8200  179.2140  142.6690 C   0  0  0  0  0  2  0  0  0  0  0  0
  183.5000  178.6000  142.2350 C   0  0  0  0  0  2  0  0  0  0  0  0
  183.1290  179.1090  144.6630 C   0  0  0  0  0  1  0  0  0  0  0  0
  182.5080  178.5460  143.3960 C   0  0  1  0  0  3  0  0  0  0  0  0
  180.8400  179.2590  141.6000 C   0  0  0  0  0  1  0  0  0  0  0  0
  181.1940  179.2700  143.0820 C   0  0  1  0  0  3  0  0  0  0  0  0
  180.0650  178.7460  143.9090 C   0  0  0  0  0  0  0  0  0  0  0  0
  179.1560  179.6150  144.5000 O   0  0  0  0  0  1  0  0  0  0  0  0
  179.9250  177.5030  144.0560 O   0  0  0  0  0  0  0  0  0  0  0  0
  1  4  1  0  0  0  0
  2  5  1  0  0  0  0
  3  2  2  0  0  0  0
  3  1  1  0  0  0  0
  5  4  1  0  0  0  0
  5 10  1  1  0  0  0
  6  3  1  0  0  0  0
  7  2  1  0  0  0  0
  8  6  2  0  0  0  0
  8  9  1  0  0  0  0
  9  7  2  0  0  0  0
 10 15  1  0  0  0  0
 11 16  1  0  0  0  0
 12 14  1  0  0  0  0
 13 12  1  0  0  0  0
 15 11  1  0  0  0  0
 15 13  1  0  0  0  0
 16 14  1  0  0  0  0
 17  1  1  0  0  0  0
 17 18  1  0  0  0  0
 19 18  1  0  0  0  0
 19 21  1  0  0  0  0
 21 20  1  1  0  0  0
 23 22  1  6  0  0  0
 23 21  1  0  0  0  0
 23 24  1  0  0  0  0
 24 26  2  0  0  0  0
 24 25  1  0  0  0  0
M  END
>  <MODEL>
4

>  <REMARK>
 VINA RESULT:      -7.4      3.433      7.696
  Name = 
  8 active torsions:
  status: ('A' for Active; 'I' for Inactive)
    1  A    between atoms: N_1  and  N_18
    2  A    between atoms: N_5  and  C_8
    3  A    between atoms: N_5  and  N_20
    4  A    between atoms: C_13  and  C_22
    5  A    between atoms: C_15  and  C_16
    6  A    between atoms: C_15  and  C_23
    7  A    between atoms: C_16  and  C_22
    8  A    between atoms: N_18  and  C_23
                            x       y       z     vdW  Elec       q    Type
                         _______ _______ _______ _____ _____    ______ ____

>  <TORSDO>
F 8

$$$$
=
 OpenBabel11062416583D

 26 28  0  0  1  0  0  0  0  0999 V2000
  186.6270  177.4140  145.1120 N   0  0  0  0  0  0  0  0  0  0  0  0
  185.2040  178.2550  143.5240 C   0  0  0  0  0  0  0  0  0  0  0  0
  185.4290  178.1150  144.8610 C   0  0  0  0  0  0  0  0  0  0  0  0
  187.2810  177.1280  143.8400 C   0  0  0  0  0  2  0  0  0  0  0  0
  186.3120  177.6340  142.7420 C   0  0  2  0  0  3  0  0  0  0  0  0
  184.5380  178.6360  145.7970 C   0  0  0  0  0  3  0  0  0  0  0  0
  184.0680  178.9110  143.0510 C   0  0  0  0  0  3  0  0  0  0  0  0
  183.4260  179.2830  145.3400 N   0  0  0  0  0  0  0  0  0  0  0  0
  183.1740  179.4280  144.0030 C   0  0  0  0  0  3  0  0  0  0  0  0
  186.9740  178.6480  141.9350 N   0  0  0  0  0  2  0  0  0  0  0  0
  186.9630  178.2870  139.6630 C   0  0  0  0  0  2  0  0  0  0  0  0
  189.8130  177.9000  139.7450 C   0  0  0  0  0  2  0  0  0  0  0  0
  188.9990  178.5700  140.8490 C   0  0  0  0  0  2  0  0  0  0  0  0
  189.1070  178.0920  138.4050 C   0  0  0  0  0  2  0  0  0  0  0  0
  187.6620  177.9820  140.9120 N   0  0  0  0  0  0  0  0  0  0  0  0
  187.6640  177.6010  138.4930 C   0  0  0  0  0  2  0  0  0  0  0  0
  187.3000  177.4150  146.3420 N   0  0  0  0  0  2  0  0  0  0  0  0
  188.5950  178.0390  146.1260 C   0  0  0  0  0  2  0  0  0  0  0  0
  189.7100  177.0940  146.5410 C   0  0  0  0  0  2  0  0  0  0  0  0
  191.9010  176.1570  145.7530 C   0  0  0  0  0  1  0  0  0  0  0  0
  190.9920  177.3750  145.7590 C   0  0  1  0  0  3  0  0  0  0  0  0
  191.3860  179.1660  143.9840 C   0  0  0  0  0  1  0  0  0  0  0  0
  190.7170  177.8400  144.3250 C   0  0  1  0  0  3  0  0  0  0  0  0
  191.0690  176.7870  143.3260 C   0  0  0  0  0  0  0  0  0  0  0  0
  190.3050  175.6300  143.2170 O   0  0  0  0  0  1  0  0  0  0  0  0
  192.0560  176.9560  142.5640 O   0  0  0  0  0  0  0  0  0  0  0  0
  1 17  1  0  0  0  0
  2  3  1  0  0  0  0
  3  1  1  0  0  0  0
  3  6  2  0  0  0  0
  4  1  1  0  0  0  0
  5 10  1  6  0  0  0
  5  2  1  0  0  0  0
  5  4  1  0  0  0  0
  7  2  2  0  0  0  0
  7  9  1  0  0  0  0
  8  6  1  0  0  0  0
  9  8  2  0  0  0  0
 11 15  1  0  0  0  0
 12 13  1  0  0  0  0
 13 15  1  0  0  0  0
 14 16  1  0  0  0  0
 14 12  1  0  0  0  0
 15 10  1  0  0  0  0
 16 11  1  0  0  0  0
 18 17  1  0  0  0  0
 18 19  1  0  0  0  0
 21 20  1  6  0  0  0
 21 19  1  0  0  0  0
 23 22  1  6  0  0  0
 23 21  1  0  0  0  0
 24 23  1  0  0  0  0
 25 24  1  0  0  0  0
 26 24  2  0  0  0  0
M  END
>  <MODEL>
5

>  <REMARK>
 VINA RESULT:      -7.1      2.502      5.350
  Name = 
  8 active torsions:
  status: ('A' for Active; 'I' for Inactive)
    1  A    between atoms: N_1  and  N_18
    2  A    between atoms: N_5  and  C_8
    3  A    between atoms: N_5  and  N_20
    4  A    between atoms: C_13  and  C_22
    5  A    between atoms: C_15  and  C_16
    6  A    between atoms: C_15  and  C_23
    7  A    between atoms: C_16  and  C_22
    8  A    between atoms: N_18  and  C_23
                            x       y       z     vdW  Elec       q    Type
                         _______ _______ _______ _____ _____    ______ ____

>  <TORSDO>
F 8

$$$$
=
 OpenBabel11062416583D

 26 28  0  0  1  0  0  0  0  0999 V2000
  189.5020  177.7660  142.0600 N   0  0  0  0  0  0  0  0  0  0  0  0
  189.0420  177.2960  139.8650 C   0  0  0  0  0  0  0  0  0  0  0  0
  188.5950  177.9190  140.9910 C   0  0  0  0  0  0  0  0  0  0  0  0
  190.6750  177.0430  141.5820 C   0  0  0  0  0  2  0  0  0  0  0  0
  190.3680  176.6600  140.1130 C   0  0  2  0  0  3  0  0  0  0  0  0
  187.3820  178.6050  140.9980 C   0  0  0  0  0  3  0  0  0  0  0  0
  188.2940  177.3140  138.6880 C   0  0  0  0  0  3  0  0  0  0  0  0
  186.6470  178.6300  139.8490 N   0  0  0  0  0  0  0  0  0  0  0  0
  187.0710  178.0050  138.7080 C   0  0  0  0  0  3  0  0  0  0  0  0
  191.3690  177.2480  139.2350 N   0  0  0  0  0  2  0  0  0  0  0  0
  191.3670  176.4700  137.0700 C   0  0  0  0  0  2  0  0  0  0  0  0
  193.9380  175.2680  137.5340 C   0  0  0  0  0  2  0  0  0  0  0  0
  193.3200  176.3530  138.4110 C   0  0  0  0  0  2  0  0  0  0  0  0
  193.4020  175.3970  136.1110 C   0  0  0  0  0  2  0  0  0  0  0  0
  191.8640  176.2180  138.4220 N   0  0  0  0  0  0  0  0  0  0  0  0
  191.8760  175.3900  136.1180 C   0  0  0  0  0  2  0  0  0  0  0  0
  189.5030  178.5600  143.2150 N   0  0  0  0  0  2  0  0  0  0  0  0
  189.6830  177.6700  144.3510 C   0  0  0  0  0  2  0  0  0  0  0  0
  188.3810  176.9520  144.6680 C   0  0  0  0  0  2  0  0  0  0  0  0
  186.1000  177.8800  144.1880 C   0  0  0  0  0  1  0  0  0  0  0  0
  187.3020  177.9370  145.1150 C   0  0  1  0  0  3  0  0  0  0  0  0
  188.0210  177.7710  147.5590 C   0  0  0  0  0  1  0  0  0  0  0  0
  186.8650  177.7130  146.5670 C   0  0  1  0  0  3  0  0  0  0  0  0
  185.7680  178.6470  146.9630 C   0  0  0  0  0  0  0  0  0  0  0  0
  184.4370  178.2520  146.8820 O   0  0  0  0  0  0  0  0  0  0  0  0
  186.0520  179.7950  147.3910 O   0  0  0  0  0  1  0  0  0  0  0  0
  1 17  1  0  0  0  0
  2  5  1  0  0  0  0
  2  3  1  0  0  0  0
  3  6  2  0  0  0  0
  3  1  1  0  0  0  0
  4  1  1  0  0  0  0
  5 10  1  6  0  0  0
  5  4  1  0  0  0  0
  7  9  1  0  0  0  0
  7  2  2  0  0  0  0
  8  6  1  0  0  0  0
  9  8  2  0  0  0  0
 11 15  1  0  0  0  0
 12 13  1  0  0  0  0
 13 15  1  0  0  0  0
 14 16  1  0  0  0  0
 14 12  1  0  0  0  0
 15 10  1  0  0  0  0
 16 11  1  0  0  0  0
 17 18  1  0  0  0  0
 18 19  1  0  0  0  0
 19 21  1  0  0  0  0
 21 20  1  6  0  0  0
 21 23  1  0  0  0  0
 23 24  1  0  0  0  0
 23 22  1  1  0  0  0
 24 26  1  0  0  0  0
 25 24  2  0  0  0  0
M  END
>  <MODEL>
6

>  <REMARK>
 VINA RESULT:      -7.0      3.640      8.256
  Name = 
  8 active torsions:
  status: ('A' for Active; 'I' for Inactive)
    1  A    between atoms: N_1  and  N_18
    2  A    between atoms: N_5  and  C_8
    3  A    between atoms: N_5  and  N_20
    4  A    between atoms: C_13  and  C_22
    5  A    between atoms: C_15  and  C_16
    6  A    between atoms: C_15  and  C_23
    7  A    between atoms: C_16  and  C_22
    8  A    between atoms: N_18  and  C_23
                            x       y       z     vdW  Elec       q    Type
                         _______ _______ _______ _____ _____    ______ ____

>  <TORSDO>
F 8

$$$$
=
 OpenBabel11062416583D

 26 28  0  0  1  0  0  0  0  0999 V2000
  186.6560  178.1070  144.1340 N   0  0  0  0  0  0  0  0  0  0  0  0
  184.6200  178.6700  143.2480 C   0  0  0  0  0  0  0  0  0  0  0  0
  185.3210  178.4750  144.3990 C   0  0  0  0  0  0  0  0  0  0  0  0
  186.8730  178.1260  142.6920 C   0  0  0  0  0  2  0  0  0  0  0  0
  185.4960  178.4480  142.0610 C   0  0  2  0  0  3  0  0  0  0  0  0
  184.7190  178.6470  145.6440 C   0  0  0  0  0  3  0  0  0  0  0  0
  183.2740  179.0330  143.2780 C   0  0  0  0  0  3  0  0  0  0  0  0
  183.4030  179.0060  145.6810 N   0  0  0  0  0  0  0  0  0  0  0  0
  182.6750  179.1980  144.5380 C   0  0  0  0  0  3  0  0  0  0  0  0
  185.5890  179.6730  141.2810 N   0  0  0  0  0  2  0  0  0  0  0  0
  186.2600  178.5280  139.4020 C   0  0  0  0  0  2  0  0  0  0  0  0
  183.5000  178.1680  138.6750 C   0  0  0  0  0  2  0  0  0  0  0  0
  183.9830  178.5590  140.0690 C   0  0  0  0  0  2  0  0  0  0  0  0
  184.5870  177.3640  137.9670 C   0  0  0  0  0  2  0  0  0  0  0  0
  185.2010  179.3620  139.9700 N   0  0  0  0  0  0  0  0  0  0  0  0
  185.9030  178.1360  137.9700 C   0  0  0  0  0  2  0  0  0  0  0  0
  187.6970  178.1780  145.0710 N   0  0  0  0  0  2  0  0  0  0  0  0
  188.5510  177.0200  144.8590 C   0  0  0  0  0  2  0  0  0  0  0  0
  190.0050  177.3860  145.1070 C   0  0  0  0  0  2  0  0  0  0  0  0
  191.4270  179.2970  144.3190 C   0  0  0  0  0  1  0  0  0  0  0  0
  190.6120  178.0870  143.8930 C   0  0  1  0  0  3  0  0  0  0  0  0
  191.6640  175.7730  143.6640 C   0  0  0  0  0  1  0  0  0  0  0  0
  191.4660  177.1470  143.0350 C   0  0  1  0  0  3  0  0  0  0  0  0
  190.9310  177.0310  141.6460 C   0  0  0  0  0  0  0  0  0  0  0  0
  191.6530  177.5240  140.5640 O   0  0  0  0  0  0  0  0  0  0  0  0
  189.8250  176.4640  141.4490 O   0  0  0  0  0  1  0  0  0  0  0  0
  1  3  1  0  0  0  0
  1 17  1  0  0  0  0
  2  7  2  0  0  0  0
  2  3  1  0  0  0  0
  3  6  2  0  0  0  0
  4  1  1  0  0  0  0
  5 10  1  6  0  0  0
  5  4  1  0  0  0  0
  5  2  1  0  0  0  0
  6  8  1  0  0  0  0
  7  9  1  0  0  0  0
  9  8  2  0  0  0  0
 11 15  1  0  0  0  0
 12 13  1  0  0  0  0
 14 16  1  0  0  0  0
 14 12  1  0  0  0  0
 15 13  1  0  0  0  0
 15 10  1  0  0  0  0
 16 11  1  0  0  0  0
 18 17  1  0  0  0  0
 18 19  1  0  0  0  0
 21 20  1  1  0  0  0
 21 19  1  0  0  0  0
 23 22  1  1  0  0  0
 23 21  1  0  0  0  0
 24 23  1  0  0  0  0
 25 24  2  0  0  0  0
 26 24  1  0  0  0  0
M  END
>  <MODEL>
7

>  <REMARK>
 VINA RESULT:      -6.9      2.520      4.572
  Name = 
  8 active torsions:
  status: ('A' for Active; 'I' for Inactive)
    1  A    between atoms: N_1  and  N_18
    2  A    between atoms: N_5  and  C_8
    3  A    between atoms: N_5  and  N_20
    4  A    between atoms: C_13  and  C_22
    5  A    between atoms: C_15  and  C_16
    6  A    between atoms: C_15  and  C_23
    7  A    between atoms: C_16  and  C_22
    8  A    between atoms: N_18  and  C_23
                            x       y       z     vdW  Elec       q    Type
                         _______ _______ _______ _____ _____    ______ ____

>  <TORSDO>
F 8

$$$$
=
 OpenBabel11062416583D

 26 28  0  0  1  0  0  0  0  0999 V2000
  184.9830  178.3750  143.3950 N   0  0  0  0  0  0  0  0  0  0  0  0
  183.3740  178.5930  141.7790 C   0  0  0  0  0  0  0  0  0  0  0  0
  183.6190  178.6040  143.1190 C   0  0  0  0  0  0  0  0  0  0  0  0
  185.7090  178.2750  142.1330 C   0  0  0  0  0  2  0  0  0  0  0  0
  184.6360  178.3600  141.0190 C   0  0  2  0  0  3  0  0  0  0  0  0
  182.5940  178.8260  144.0350 C   0  0  0  0  0  3  0  0  0  0  0  0
  182.0860  178.7910  141.2820 C   0  0  0  0  0  3  0  0  0  0  0  0
  181.3310  179.0240  143.5560 N   0  0  0  0  0  0  0  0  0  0  0  0
  181.0580  179.0090  142.2150 C   0  0  0  0  0  3  0  0  0  0  0  0
  184.9120  179.5020  140.1600 N   0  0  0  0  0  2  0  0  0  0  0  0
  186.4810  178.3220  138.9610 C   0  0  0  0  0  2  0  0  0  0  0  0
  184.3970  177.4020  137.2040 C   0  0  0  0  0  2  0  0  0  0  0  0
  184.1590  178.0050  138.5860 C   0  0  0  0  0  2  0  0  0  0  0  0
  185.7730  176.7430  137.1660 C   0  0  0  0  0  2  0  0  0  0  0  0
  185.1880  179.0020  138.8800 N   0  0  0  0  0  0  0  0  0  0  0  0
  186.8470  177.7370  137.5990 C   0  0  0  0  0  2  0  0  0  0  0  0
  185.6020  178.6680  144.6190 N   0  0  0  0  0  2  0  0  0  0  0  0
  186.4290  177.5240  144.9700 C   0  0  0  0  0  2  0  0  0  0  0  0
  187.8900  177.9340  145.0430 C   0  0  0  0  0  2  0  0  0  0  0  0
  188.5060  176.2980  143.2430 C   0  0  0  0  0  1  0  0  0  0  0  0
  188.8080  176.7770  144.6530 C   0  0  1  0  0  3  0  0  0  0  0  0
  190.6000  178.5800  144.4270 C   0  0  0  0  0  1  0  0  0  0  0  0
  190.2930  177.1310  144.7870 C   0  0  1  0  0  3  0  0  0  0  0  0
  190.8220  176.7900  146.1420 C   0  0  0  0  0  0  0  0  0  0  0  0
  189.9580  176.4180  147.1670 O   0  0  0  0  0  1  0  0  0  0  0  0
  192.0620  176.8200  146.3530 O   0  0  0  0  0  0  0  0  0  0  0  0
  1 17  1  0  0  0  0
  2  3  1  0  0  0  0
  3  1  1  0  0  0  0
  3  6  2  0  0  0  0
  4  1  1  0  0  0  0
  5 10  1  6  0  0  0
  5  2  1  0  0  0  0
  5  4  1  0  0  0  0
  7  2  2  0  0  0  0
  7  9  1  0  0  0  0
  8  6  1  0  0  0  0
  9  8  2  0  0  0  0
 12 13  1  0  0  0  0
 13 15  1  0  0  0  0
 14 12  1  0  0  0  0
 14 16  1  0  0  0  0
 15 11  1  0  0  0  0
 15 10  1  0  0  0  0
 16 11  1  0  0  0  0
 17 18  1  0  0  0  0
 18 19  1  0  0  0  0
 21 20  1  6  0  0  0
 21 23  1  0  0  0  0
 21 19  1  0  0  0  0
 23 22  1  1  0  0  0
 23 24  1  0  0  0  0
 24 26  2  0  0  0  0
 24 25  1  0  0  0  0
M  END
>  <MODEL>
8

>  <REMARK>
 VINA RESULT:      -6.9      3.620      6.451
  Name = 
  8 active torsions:
  status: ('A' for Active; 'I' for Inactive)
    1  A    between atoms: N_1  and  N_18
    2  A    between atoms: N_5  and  C_8
    3  A    between atoms: N_5  and  N_20
    4  A    between atoms: C_13  and  C_22
    5  A    between atoms: C_15  and  C_16
    6  A    between atoms: C_15  and  C_23
    7  A    between atoms: C_16  and  C_22
    8  A    between atoms: N_18  and  C_23
                            x       y       z     vdW  Elec       q    Type
                         _______ _______ _______ _____ _____    ______ ____

>  <TORSDO>
F 8

$$$$
=
 OpenBabel11062416583D

 26 28  0  0  1  0  0  0  0  0999 V2000
  190.0120  176.9410  140.0920 N   0  0  0  0  0  0  0  0  0  0  0  0
  188.3110  177.9440  141.2550 C   0  0  0  0  0  0  0  0  0  0  0  0
  188.7290  177.5230  140.0280 C   0  0  0  0  0  0  0  0  0  0  0  0
  190.4480  176.9130  141.4840 C   0  0  0  0  0  2  0  0  0  0  0  0
  189.3410  177.6390  142.2890 C   0  0  2  0  0  3  0  0  0  0  0  0
  187.9230  177.6800  138.9020 C   0  0  0  0  0  3  0  0  0  0  0  0
  187.0700  178.5580  141.4200 C   0  0  0  0  0  3  0  0  0  0  0  0
  186.7050  178.2770  139.0570 N   0  0  0  0  0  0  0  0  0  0  0  0
  186.2680  178.7170  140.2770 C   0  0  0  0  0  3  0  0  0  0  0  0
  188.7870  176.7330  143.2850 N   0  0  0  0  0  2  0  0  0  0  0  0
  187.1020  177.1340  144.7980 C   0  0  0  0  0  2  0  0  0  0  0  0
  189.0780  177.8790  146.7510 C   0  0  0  0  0  2  0  0  0  0  0  0
  189.3750  177.0900  145.4780 C   0  0  0  0  0  2  0  0  0  0  0  0
  187.6370  177.6250  147.1830 C   0  0  0  0  0  2  0  0  0  0  0  0
  188.4640  177.5020  144.4120 N   0  0  0  0  0  0  0  0  0  0  0  0
  186.6800  177.9270  146.0330 C   0  0  0  0  0  2  0  0  0  0  0  0
  190.5570  176.1170  139.0970 N   0  0  0  0  0  2  0  0  0  0  0  0
  191.9320  176.5400  138.8900 C   0  0  0  0  0  2  0  0  0  0  0  0
  192.4380  176.0460  137.5450 C   0  0  0  0  0  2  0  0  0  0  0  0
  191.8900  173.7690  136.6450 C   0  0  0  0  0  1  0  0  0  0  0  0
  192.7760  174.5570  137.5960 C   0  0  1  0  0  3  0  0  0  0  0  0
  194.8670  175.2660  136.3160 C   0  0  0  0  0  1  0  0  0  0  0  0
  194.2540  174.2770  137.3000 C   0  0  1  0  0  3  0  0  0  0  0  0
  195.0600  174.1950  138.5550 C   0  0  0  0  0  0  0  0  0  0  0  0
  195.4260  172.9610  139.0830 O   0  0  0  0  0  0  0  0  0  0  0  0
  195.4300  175.2520  139.1290 O   0  0  0  0  0  1  0  0  0  0  0  0
  1  4  1  0  0  0  0
  2  7  1  0  0  0  0
  2  5  1  0  0  0  0
  3  1  1  0  0  0  0
  3  2  2  0  0  0  0
  4  5  1  0  0  0  0
  5 10  1  1  0  0  0
  6  8  2  0  0  0  0
  6  3  1  0  0  0  0
  8  9  1  0  0  0  0
  9  7  2  0  0  0  0
 10 15  1  0  0  0  0
 11 16  1  0  0  0  0
 12 14  1  0  0  0  0
 13 12  1  0  0  0  0
 15 11  1  0  0  0  0
 15 13  1  0  0  0  0
 16 14  1  0  0  0  0
 17  1  1  0  0  0  0
 18 17  1  0  0  0  0
 19 21  1  0  0  0  0
 19 18  1  0  0  0  0
 21 20  1  6  0  0  0
 23 22  1  6  0  0  0
 23 21  1  0  0  0  0
 23 24  1  0  0  0  0
 24 25  2  0  0  0  0
 24 26  1  0  0  0  0
M  END
>  <MODEL>
9

>  <REMARK>
 VINA RESULT:      -6.8      3.523      6.128
  Name = 
  8 active torsions:
  status: ('A' for Active; 'I' for Inactive)
    1  A    between atoms: N_1  and  N_18
    2  A    between atoms: N_5  and  C_8
    3  A    between atoms: N_5  and  N_20
    4  A    between atoms: C_13  and  C_22
    5  A    between atoms: C_15  and  C_16
    6  A    between atoms: C_15  and  C_23
    7  A    between atoms: C_16  and  C_22
    8  A    between atoms: N_18  and  C_23
                            x       y       z     vdW  Elec       q    Type
                         _______ _______ _______ _____ _____    ______ ____

>  <TORSDO>
F 8

$$$$
