=
 OpenBabel11062414063D

 53 59  0  0  1  0  0  0  0  0999 V2000
  189.9530  176.8700  134.9170 C   0  0  0  0  0  2  0  0  0  0  0  0
  187.3060  177.2550  135.7600 C   0  0  2  0  0  3  0  0  0  0  0  0
  192.9780  176.2880  138.4550 C   0  0  2  0  0  3  0  0  0  0  0  0
  187.3950  177.0440  138.2760 C   0  0  0  0  0  3  0  0  0  0  0  0
  191.0280  177.1090  139.7730 C   0  0  0  0  0  2  0  0  0  0  0  0
  191.5320  176.0230  138.8350 C   0  0  1  0  0  3  0  0  0  0  0  0
  193.0810  176.1390  136.9440 C   0  0  1  0  0  3  0  0  0  0  0  0
  189.0230  175.6910  134.5960 C   0  0  1  0  0  3  0  0  0  0  0  0
  190.7460  176.0750  137.5570 C   0  0  0  0  0  2  0  0  0  0  0  0
  188.4940  175.0460  135.8590 C   0  0  1  0  0  3  0  0  0  0  0  0
  193.6210  175.0520  137.8570 C   0  0  1  0  0  3  0  0  0  0  0  0
  191.4150  176.4690  135.1250 C   0  0  0  0  0  2  0  0  0  0  0  0
  187.5660  175.9220  135.0340 C   0  0  1  0  0  3  0  0  0  0  0  0
  188.2540  178.0440  138.5020 C   0  0  0  0  0  3  0  0  0  0  0  0
  186.5190  177.0470  137.0520 C   0  0  0  0  0  2  0  0  0  0  0  0
  189.6730  176.9150  140.0590 O   0  0  0  0  0  0  0  0  0  0  0  0
  189.0580  178.1430  139.7800 C   0  0  2  0  0  3  0  0  0  0  0  0
  191.7090  175.7400  136.4380 C   0  0  1  0  0  3  0  0  0  0  0  0
  187.2220  173.1910  134.5960 C   0  0  0  0  0  2  0  0  0  0  0  0
  186.2780  172.2760  135.3680 C   0  0  2  0  0  3  0  0  0  0  0  0
  188.9080  172.3340  137.6000 O   0  0  0  0  0  1  0  0  0  0  0  0
  185.4010  173.3990  137.5080 C   0  0  0  0  0  2  0  0  0  0  0  0
  185.1130  173.0700  136.0330 C   0  0  1  0  0  3  0  0  0  0  0  0
  186.8960  173.6590  137.7790 C   0  0  0  0  0  2  0  0  0  0  0  0
  187.0680  171.6930  136.3820 O   0  0  0  0  0  0  0  0  0  0  0  0
  188.2880  173.5420  135.6260 C   0  0  2  0  0  3  0  0  0  0  0  0
  187.8100  172.7900  136.8710 C   0  0  2  0  0  0  0  0  0  0  0  0
  184.7090  174.3360  135.2680 C   0  0  0  0  0  2  0  0  0  0  0  0
  180.7500  175.7090  136.1130 N   0  0  0  0  0  0  0  0  0  0  0  0
  180.9530  174.7500  135.1700 C   0  0  0  0  0  3  0  0  0  0  0  0
  183.0890  175.8250  136.5730 C   0  0  0  0  0  3  0  0  0  0  0  0
  183.3310  174.8460  135.5940 C   0  0  0  0  0  0  0  0  0  0  0  0
  182.2470  174.3010  134.8940 C   0  0  0  0  0  3  0  0  0  0  0  0
  181.7770  176.2370  136.8330 C   0  0  0  0  0  0  0  0  0  0  0  0
  181.5140  177.2660  137.8730 C   0  0  0  0  0  2  0  0  0  0  0  0
  180.8540  180.5650  136.5000 O   0  0  0  0  0  0  0  0  0  0  0  0
  179.5170  179.4820  138.1330 C   0  0  0  0  0  1  0  0  0  0  0  0
  181.7550  178.5910  137.3190 N   0  0  0  0  0  2  0  0  0  0  0  0
  180.7440  179.5990  137.2980 C   0  0  0  0  0  0  0  0  0  0  0  0
  185.1230  177.6350  134.5940 C   0  0  0  0  0  1  0  0  0  0  0  0
  186.5100  178.1830  134.8500 C   0  0  0  0  0  2  0  0  0  0  0  0
  195.5610  174.8500  136.7510 C   0  0  0  0  0  1  0  0  0  0  0  0
  195.0040  175.1610  138.0030 O   0  0  0  0  0  0  0  0  0  0  0  0
  188.1960  178.6170  140.9750 C   0  0  2  0  0  3  0  0  0  0  0  0
  188.5520  176.6370  142.4760 O   0  0  0  0  0  0  0  0  0  0  0  0
  189.2290  178.7310  143.1280 O   0  0  0  0  0  1  0  0  0  0  0  0
  188.6870  178.0030  142.2560 C   0  0  0  0  0  0  0  0  0  0  0  0
  186.7070  178.2770  140.7800 C   0  0  2  0  0  3  0  0  0  0  0  0
  186.0190  179.3690  140.2510 O   0  0  0  0  0  1  0  0  0  0  0  0
  186.0510  177.8980  142.1050 C   0  0  0  0  0  2  0  0  0  0  0  0
  184.8320  179.6390  143.1790 O   0  0  0  0  0  1  0  0  0  0  0  0
  183.6350  178.3740  141.6880 O   0  0  0  0  0  0  0  0  0  0  0  0
  184.8220  178.7110  142.3270 C   0  0  0  0  0  0  0  0  0  0  0  0
  1 12  1  0  0  0  0
  2 41  1  6  0  0  0
  2 15  1  0  0  0  0
  3  6  1  0  0  0  0
  4 14  2  0  0  0  0
  5 16  1  0  0  0  0
  6  5  1  0  0  0  0
  7 11  1  0  0  0  0
  7  3  1  0  0  0  0
  8  1  1  0  0  0  0
  8 13  1  0  0  0  0
  8 10  1  0  0  0  0
  9  6  1  0  0  0  0
 11 43  1  0  0  0  0
 11  3  1  0  0  0  0
 12 18  1  0  0  0  0
 13  2  1  0  0  0  0
 13 10  1  0  0  0  0
 14 17  1  0  0  0  0
 15  4  1  0  0  0  0
 17 16  1  0  0  0  0
 17 44  1  0  0  0  0
 18  7  1  0  0  0  0
 18  9  1  0  0  0  0
 19 20  1  0  0  0  0
 19 26  1  0  0  0  0
 20 23  1  0  0  0  0
 20 25  1  0  0  0  0
 22 24  1  0  0  0  0
 23 22  1  0  0  0  0
 25 27  1  0  0  0  0
 26 10  1  0  0  0  0
 26 27  1  0  0  0  0
 27 21  1  0  0  0  0
 27 24  1  0  0  0  0
 28 32  1  0  0  0  0
 28 23  1  0  0  0  0
 29 34  1  0  0  0  0
 30 29  2  0  0  0  0
 31 34  2  0  0  0  0
 32 31  1  0  0  0  0
 33 30  1  0  0  0  0
 33 32  2  0  0  0  0
 34 35  1  0  0  0  0
 36 39  2  0  0  0  0
 38 35  1  0  0  0  0
 39 38  1  0  0  0  0
 39 37  1  0  0  0  0
 40 41  1  0  0  0  0
 42 43  1  0  0  0  0
 44 47  1  0  0  0  0
 47 45  2  0  0  0  0
 47 46  1  0  0  0  0
 48 44  1  0  0  0  0
 48 50  1  0  0  0  0
 49 48  1  0  0  0  0
 50 53  1  0  0  0  0
 52 53  2  0  0  0  0
 53 51  1  0  0  0  0
M  END
>  <MODEL>
1

>  <REMARK>
 VINA RESULT:      -5.4      0.000      0.000
  Name = 
  12 active torsions:
  status: ('A' for Active; 'I' for Inactive)
    1  A    between atoms: C_4  and  C_52
    2  A    between atoms: C_14  and  C_41
    3  A    between atoms: C_14  and  C_45
    4  A    between atoms: C_14  and  C_48
    5  A    between atoms: N_15  and  C_47
    6  A    between atoms: C_20  and  C_51
    7  A    between atoms: C_25  and  C_35
    8  A    between atoms: C_28  and  O_50
    9  A    between atoms: C_32  and  C_44
   10  A    between atoms: C_37  and  C_51
   11  A    between atoms: C_41  and  C_44
   12  A    between atoms: C_47  and  C_49
                            x       y       z     vdW  Elec       q    Type
                         _______ _______ _______ _____ _____    ______ ____

>  <TORSDO>
F 12

$$$$
=
 OpenBabel11062414063D

 53 59  0  0  1  0  0  0  0  0999 V2000
  189.5950  176.9440  134.9300 C   0  0  0  0  0  2  0  0  0  0  0  0
  187.2010  177.1830  136.3720 C   0  0  2  0  0  3  0  0  0  0  0  0
  193.2500  175.6480  137.5690 C   0  0  2  0  0  3  0  0  0  0  0  0
  187.7970  176.4800  138.7250 C   0  0  0  0  0  3  0  0  0  0  0  0
  191.6590  176.2130  139.4010 C   0  0  0  0  0  2  0  0  0  0  0  0
  191.9020  175.3280  138.1890 C   0  0  1  0  0  3  0  0  0  0  0  0
  193.0320  175.7970  136.0700 C   0  0  1  0  0  3  0  0  0  0  0  0
  188.5600  175.8600  134.5950 C   0  0  1  0  0  3  0  0  0  0  0  0
  190.8730  175.6380  137.1400 C   0  0  0  0  0  2  0  0  0  0  0  0
  188.2700  174.9850  135.7950 C   0  0  1  0  0  3  0  0  0  0  0  0
  193.6920  174.5470  136.6240 C   0  0  1  0  0  3  0  0  0  0  0  0
  191.0460  176.4960  134.7430 C   0  0  0  0  0  2  0  0  0  0  0  0
  187.2380  176.0150  135.3680 C   0  0  1  0  0  3  0  0  0  0  0  0
  188.7340  177.4070  138.9490 C   0  0  0  0  0  3  0  0  0  0  0  0
  186.6890  176.7330  137.7380 C   0  0  0  0  0  2  0  0  0  0  0  0
  190.3830  175.9810  139.9260 O   0  0  0  0  0  0  0  0  0  0  0  0
  189.7880  177.2460  140.0230 C   0  0  2  0  0  3  0  0  0  0  0  0
  191.5670  175.5200  135.8000 C   0  0  1  0  0  3  0  0  0  0  0  0
  186.6160  173.4090  134.5990 C   0  0  0  0  0  2  0  0  0  0  0  0
  185.8910  172.3360  135.4050 C   0  0  2  0  0  3  0  0  0  0  0  0
  189.0460  171.9800  136.7550 O   0  0  0  0  0  1  0  0  0  0  0  0
  185.7040  172.9760  137.8880 C   0  0  0  0  0  2  0  0  0  0  0  0
  184.9970  172.9540  136.5220 C   0  0  1  0  0  3  0  0  0  0  0  0
  187.2240  173.2020  137.7680 C   0  0  0  0  0  2  0  0  0  0  0  0
  186.9110  171.5710  136.0100 O   0  0  0  0  0  0  0  0  0  0  0  0
  187.9430  173.5590  135.3300 C   0  0  2  0  0  3  0  0  0  0  0  0
  187.8060  172.5560  136.4790 C   0  0  2  0  0  0  0  0  0  0  0  0
  184.4470  174.3430  136.1790 C   0  0  0  0  0  2  0  0  0  0  0  0
  180.2850  174.7450  137.0690 N   0  0  0  0  0  0  0  0  0  0  0  0
  180.8770  173.5210  137.1130 C   0  0  0  0  0  3  0  0  0  0  0  0
  182.3480  175.7790  136.4610 C   0  0  0  0  0  3  0  0  0  0  0  0
  182.9830  174.5260  136.4850 C   0  0  0  0  0  0  0  0  0  0  0  0
  182.2380  173.3900  136.8230 C   0  0  0  0  0  3  0  0  0  0  0  0
  180.9870  175.8730  136.7750 C   0  0  0  0  0  0  0  0  0  0  0  0
  180.3100  177.1960  136.7600 C   0  0  0  0  0  2  0  0  0  0  0  0
  181.1390  179.3530  139.5640 O   0  0  0  0  0  0  0  0  0  0  0  0
  179.9320  177.3170  139.7270 C   0  0  0  0  0  1  0  0  0  0  0  0
  181.0510  178.1320  137.5940 N   0  0  0  0  0  2  0  0  0  0  0  0
  180.7580  178.3050  138.9810 C   0  0  0  0  0  0  0  0  0  0  0  0
  184.9400  177.7140  135.4370 C   0  0  0  0  0  1  0  0  0  0  0  0
  186.2840  178.2790  135.8440 C   0  0  0  0  0  2  0  0  0  0  0  0
  195.6070  173.6860  137.4070 C   0  0  0  0  0  1  0  0  0  0  0  0
  195.0790  174.6120  136.4910 O   0  0  0  0  0  0  0  0  0  0  0  0
  189.2160  177.4840  141.4410 C   0  0  2  0  0  3  0  0  0  0  0  0
  186.8000  178.0740  141.7710 O   0  0  0  0  0  1  0  0  0  0  0  0
  188.2910  179.6470  141.0170 O   0  0  0  0  0  0  0  0  0  0  0  0
  188.0790  178.4650  141.3940 C   0  0  0  0  0  0  0  0  0  0  0  0
  190.2920  177.9920  142.4170 C   0  0  2  0  0  3  0  0  0  0  0  0
  191.2610  177.0120  142.6350 O   0  0  0  0  0  1  0  0  0  0  0  0
  189.6820  178.3640  143.7650 C   0  0  0  0  0  2  0  0  0  0  0  0
  190.1330  176.6030  145.3030 O   0  0  0  0  0  1  0  0  0  0  0  0
  188.0860  176.5120  144.2750 O   0  0  0  0  0  0  0  0  0  0  0  0
  189.3020  177.1360  144.5200 C   0  0  0  0  0  0  0  0  0  0  0  0
  2 41  1  6  0  0  0
  2 15  1  0  0  0  0
  3  6  1  0  0  0  0
  4 14  2  0  0  0  0
  5 16  1  0  0  0  0
  6  5  1  0  0  0  0
  7 11  1  0  0  0  0
  7  3  1  0  0  0  0
  8  1  1  0  0  0  0
  8 13  1  0  0  0  0
  8 10  1  0  0  0  0
  9  6  1  0  0  0  0
 11  3  1  0  0  0  0
 12  1  1  0  0  0  0
 12 18  1  0  0  0  0
 13 10  1  0  0  0  0
 13  2  1  0  0  0  0
 14 17  1  0  0  0  0
 15  4  1  0  0  0  0
 16 17  1  0  0  0  0
 17 44  1  0  0  0  0
 18  7  1  0  0  0  0
 18  9  1  0  0  0  0
 19 26  1  0  0  0  0
 19 20  1  0  0  0  0
 20 25  1  0  0  0  0
 20 23  1  0  0  0  0
 23 22  1  0  0  0  0
 24 22  1  0  0  0  0
 25 27  1  0  0  0  0
 26 10  1  0  0  0  0
 26 27  1  0  0  0  0
 27 21  1  0  0  0  0
 27 24  1  0  0  0  0
 28 32  1  0  0  0  0
 28 23  1  0  0  0  0
 29 30  1  0  0  0  0
 31 32  2  0  0  0  0
 31 34  1  0  0  0  0
 32 33  1  0  0  0  0
 33 30  2  0  0  0  0
 34 29  2  0  0  0  0
 35 34  1  0  0  0  0
 35 38  1  0  0  0  0
 38 39  1  0  0  0  0
 39 36  2  0  0  0  0
 39 37  1  0  0  0  0
 40 41  1  0  0  0  0
 43 11  1  0  0  0  0
 43 42  1  0  0  0  0
 44 48  1  0  0  0  0
 46 47  2  0  0  0  0
 47 44  1  0  0  0  0
 47 45  1  0  0  0  0
 48 49  1  0  0  0  0
 48 50  1  0  0  0  0
 50 53  1  0  0  0  0
 52 53  2  0  0  0  0
 53 51  1  0  0  0  0
M  END
>  <MODEL>
2

>  <REMARK>
 VINA RESULT:      -4.9      1.428      2.169
  Name = 
  12 active torsions:
  status: ('A' for Active; 'I' for Inactive)
    1  A    between atoms: C_4  and  C_52
    2  A    between atoms: C_14  and  C_41
    3  A    between atoms: C_14  and  C_45
    4  A    between atoms: C_14  and  C_48
    5  A    between atoms: N_15  and  C_47
    6  A    between atoms: C_20  and  C_51
    7  A    between atoms: C_25  and  C_35
    8  A    between atoms: C_28  and  O_50
    9  A    between atoms: C_32  and  C_44
   10  A    between atoms: C_37  and  C_51
   11  A    between atoms: C_41  and  C_44
   12  A    between atoms: C_47  and  C_49
                            x       y       z     vdW  Elec       q    Type
                         _______ _______ _______ _____ _____    ______ ____

>  <TORSDO>
F 12

$$$$
=
 OpenBabel11062414063D

 53 59  0  0  1  0  0  0  0  0999 V2000
  189.5910  178.2730  138.5890 C   0  0  0  0  0  2  0  0  0  0  0  0
  187.3780  178.1490  136.8710 C   0  0  2  0  0  3  0  0  0  0  0  0
  188.4500  178.0500  143.1340 C   0  0  2  0  0  3  0  0  0  0  0  0
  185.3930  177.8300  138.4030 C   0  0  0  0  0  3  0  0  0  0  0  0
  186.1730  178.4510  142.2050 C   0  0  0  0  0  2  0  0  0  0  0  0
  187.3730  177.5180  142.2040 C   0  0  1  0  0  3  0  0  0  0  0  0
  189.7670  177.9970  142.3730 C   0  0  1  0  0  3  0  0  0  0  0  0
  189.5040  176.9680  137.7850 C   0  0  1  0  0  3  0  0  0  0  0  0
  187.9780  177.4970  140.8300 C   0  0  0  0  0  2  0  0  0  0  0  0
  188.2660  176.1780  138.1490 C   0  0  1  0  0  3  0  0  0  0  0  0
  189.4710  176.9770  143.4580 C   0  0  1  0  0  3  0  0  0  0  0  0
  190.2880  178.1240  139.9430 C   0  0  0  0  0  2  0  0  0  0  0  0
  188.3040  176.9200  136.8230 C   0  0  1  0  0  3  0  0  0  0  0  0
  185.5440  178.9510  139.1160 C   0  0  0  0  0  3  0  0  0  0  0  0
  185.9100  177.7420  136.9930 C   0  0  0  0  0  2  0  0  0  0  0  0
  185.2130  178.0100  141.2870 O   0  0  0  0  0  0  0  0  0  0  0  0
  184.9280  179.1250  140.4870 C   0  0  2  0  0  3  0  0  0  0  0  0
  189.4770  177.3920  141.0150 C   0  0  1  0  0  3  0  0  0  0  0  0
  189.9300  174.3280  137.4700 C   0  0  0  0  0  2  0  0  0  0  0  0
  189.6140  173.4450  136.2680 C   0  0  2  0  0  3  0  0  0  0  0  0
  186.4920  173.4880  137.7350 O   0  0  0  0  0  1  0  0  0  0  0  0
  188.0400  174.6200  134.6100 C   0  0  0  0  0  2  0  0  0  0  0  0
  189.4990  174.2730  134.9530 C   0  0  1  0  0  3  0  0  0  0  0  0
  187.1740  174.8560  135.8640 C   0  0  0  0  0  2  0  0  0  0  0  0
  188.3600  172.8630  136.5520 O   0  0  0  0  0  0  0  0  0  0  0  0
  188.5540  174.6750  138.0210 C   0  0  2  0  0  3  0  0  0  0  0  0
  187.6150  173.9530  137.0510 C   0  0  2  0  0  0  0  0  0  0  0  0
  190.3710  175.5330  134.9350 C   0  0  0  0  0  2  0  0  0  0  0  0
  194.5240  174.9270  135.7470 N   0  0  0  0  0  0  0  0  0  0  0  0
  193.9110  176.0730  136.1490 C   0  0  0  0  0  3  0  0  0  0  0  0
  192.4900  174.1030  134.8120 C   0  0  0  0  0  3  0  0  0  0  0  0
  191.8320  175.2830  135.2020 C   0  0  0  0  0  0  0  0  0  0  0  0
  192.5530  176.2710  135.8840 C   0  0  0  0  0  3  0  0  0  0  0  0
  193.8460  173.9340  135.1110 C   0  0  0  0  0  0  0  0  0  0  0  0
  194.5460  172.6850  134.7090 C   0  0  0  0  0  2  0  0  0  0  0  0
  193.9470  169.6320  136.5870 O   0  0  0  0  0  0  0  0  0  0  0  0
  195.4300  171.3640  137.2460 C   0  0  0  0  0  1  0  0  0  0  0  0
  193.8460  171.5350  135.2640 N   0  0  0  0  0  2  0  0  0  0  0  0
  194.3560  170.8040  136.3790 C   0  0  0  0  0  0  0  0  0  0  0  0
  186.4630  178.6540  134.5960 C   0  0  0  0  0  1  0  0  0  0  0  0
  187.5520  178.9680  135.5990 C   0  0  0  0  0  2  0  0  0  0  0  0
  189.0960  177.7900  145.5130 C   0  0  0  0  0  1  0  0  0  0  0  0
  190.1030  177.3180  144.6540 O   0  0  0  0  0  0  0  0  0  0  0  0
  183.4030  179.3800  140.4120 C   0  0  2  0  0  3  0  0  0  0  0  0
  182.8970  176.9430  140.0930 O   0  0  0  0  0  0  0  0  0  0  0  0
  181.7760  178.1680  141.6770 O   0  0  0  0  0  1  0  0  0  0  0  0
  182.6420  178.1330  140.7640 C   0  0  0  0  0  0  0  0  0  0  0  0
  182.9700  179.8700  139.0190 C   0  0  2  0  0  3  0  0  0  0  0  0
  183.2390  181.2310  138.8720 O   0  0  0  0  0  1  0  0  0  0  0  0
  181.4760  179.6550  138.8000 C   0  0  0  0  0  2  0  0  0  0  0  0
  182.0530  178.0100  137.1780 O   0  0  0  0  0  1  0  0  0  0  0  0
  180.1950  179.2620  136.6920 O   0  0  0  0  0  0  0  0  0  0  0  0
  181.2390  178.9030  137.5350 C   0  0  0  0  0  0  0  0  0  0  0  0
  1 12  1  0  0  0  0
  2 41  1  6  0  0  0
  2 15  1  0  0  0  0
  3 11  1  0  0  0  0
  4 14  2  0  0  0  0
  6  5  1  0  0  0  0
  6  3  1  0  0  0  0
  7  3  1  0  0  0  0
  7 11  1  0  0  0  0
  8 10  1  0  0  0  0
  8  1  1  0  0  0  0
  9 18  1  0  0  0  0
  9  6  1  0  0  0  0
 11 43  1  0  0  0  0
 12 18  1  0  0  0  0
 13  2  1  0  0  0  0
 13  8  1  0  0  0  0
 13 10  1  0  0  0  0
 14 17  1  0  0  0  0
 15  4  1  0  0  0  0
 16  5  1  0  0  0  0
 17 16  1  0  0  0  0
 18  7  1  0  0  0  0
 19 26  1  0  0  0  0
 20 25  1  0  0  0  0
 20 19  1  0  0  0  0
 22 23  1  0  0  0  0
 22 24  1  0  0  0  0
 23 20  1  0  0  0  0
 24 27  1  0  0  0  0
 25 27  1  0  0  0  0
 26 10  1  0  0  0  0
 27 21  1  0  0  0  0
 27 26  1  0  0  0  0
 28 23  1  0  0  0  0
 28 32  1  0  0  0  0
 29 30  1  0  0  0  0
 31 34  1  0  0  0  0
 31 32  2  0  0  0  0
 32 33  1  0  0  0  0
 33 30  2  0  0  0  0
 34 29  2  0  0  0  0
 35 34  1  0  0  0  0
 35 38  1  0  0  0  0
 38 39  1  0  0  0  0
 39 36  2  0  0  0  0
 39 37  1  0  0  0  0
 40 41  1  0  0  0  0
 43 42  1  0  0  0  0
 44 17  1  0  0  0  0
 44 47  1  0  0  0  0
 45 47  2  0  0  0  0
 47 46  1  0  0  0  0
 48 44  1  0  0  0  0
 49 48  1  0  0  0  0
 50 48  1  0  0  0  0
 51 53  1  0  0  0  0
 52 53  2  0  0  0  0
 53 50  1  0  0  0  0
M  END
>  <MODEL>
3

>  <REMARK>
 VINA RESULT:      -3.7      3.462      7.675
  Name = 
  12 active torsions:
  status: ('A' for Active; 'I' for Inactive)
    1  A    between atoms: C_4  and  C_52
    2  A    between atoms: C_14  and  C_41
    3  A    between atoms: C_14  and  C_45
    4  A    between atoms: C_14  and  C_48
    5  A    between atoms: N_15  and  C_47
    6  A    between atoms: C_20  and  C_51
    7  A    between atoms: C_25  and  C_35
    8  A    between atoms: C_28  and  O_50
    9  A    between atoms: C_32  and  C_44
   10  A    between atoms: C_37  and  C_51
   11  A    between atoms: C_41  and  C_44
   12  A    between atoms: C_47  and  C_49
                            x       y       z     vdW  Elec       q    Type
                         _______ _______ _______ _____ _____    ______ ____

>  <TORSDO>
F 12

$$$$
=
 OpenBabel11062414063D

 53 59  0  0  1  0  0  0  0  0999 V2000
  183.1690  178.2430  136.8300 C   0  0  0  0  0  2  0  0  0  0  0  0
  182.1340  177.8430  139.4060 C   0  0  2  0  0  3  0  0  0  0  0  0
  187.8570  178.1750  136.6630 C   0  0  2  0  0  3  0  0  0  0  0  0
  184.1640  177.4450  140.8580 C   0  0  0  0  0  3  0  0  0  0  0  0
  187.5810  178.3350  139.1350 C   0  0  0  0  0  2  0  0  0  0  0  0
  187.2770  177.5060  137.8970 C   0  0  1  0  0  3  0  0  0  0  0  0
  186.7630  178.1900  135.6040 C   0  0  1  0  0  3  0  0  0  0  0  0
  182.4600  176.8940  137.0090 C   0  0  1  0  0  3  0  0  0  0  0  0
  185.7910  177.4600  137.6900 C   0  0  0  0  0  2  0  0  0  0  0  0
  183.1750  176.0250  138.0210 C   0  0  1  0  0  3  0  0  0  0  0  0
  187.9180  177.2090  135.4960 C   0  0  1  0  0  3  0  0  0  0  0  0
  184.2820  178.2260  135.7800 C   0  0  0  0  0  2  0  0  0  0  0  0
  181.8680  176.6940  138.4160 C   0  0  1  0  0  3  0  0  0  0  0  0
  184.7730  178.6120  140.6250 C   0  0  0  0  0  3  0  0  0  0  0  0
  182.6680  177.3240  140.7390 C   0  0  0  0  0  2  0  0  0  0  0  0
  186.9780  177.7670  140.2620 O   0  0  0  0  0  0  0  0  0  0  0  0
  186.2550  178.8090  140.8580 C   0  0  2  0  0  3  0  0  0  0  0  0
  185.5570  177.4890  136.1950 C   0  0  1  0  0  3  0  0  0  0  0  0
  184.2170  173.6660  137.9610 C   0  0  0  0  0  2  0  0  0  0  0  0
  184.5600  173.0370  136.6150 C   0  0  2  0  0  3  0  0  0  0  0  0
  181.4730  174.3530  135.8160 O   0  0  0  0  0  1  0  0  0  0  0  0
  184.9670  174.8180  134.8070 C   0  0  0  0  0  2  0  0  0  0  0  0
  185.6170  173.8750  135.8350 C   0  0  1  0  0  3  0  0  0  0  0  0
  183.6020  175.3590  135.2760 C   0  0  0  0  0  2  0  0  0  0  0  0
  183.3530  173.0330  135.8850 O   0  0  0  0  0  0  0  0  0  0  0  0
  183.0170  174.5460  137.6380 C   0  0  2  0  0  3  0  0  0  0  0  0
  182.8300  174.3190  136.1350 C   0  0  2  0  0  0  0  0  0  0  0  0
  186.5860  174.6480  136.7370 C   0  0  0  0  0  2  0  0  0  0  0  0
  190.6290  173.3130  136.3560 N   0  0  0  0  0  0  0  0  0  0  0  0
  189.6630  172.8050  135.5430 C   0  0  0  0  0  3  0  0  0  0  0  0
  189.0420  174.7190  137.4500 C   0  0  0  0  0  3  0  0  0  0  0  0
  188.0210  174.2030  136.6350 C   0  0  0  0  0  0  0  0  0  0  0  0
  188.3420  173.2420  135.6680 C   0  0  0  0  0  3  0  0  0  0  0  0
  190.3570  174.2700  137.2840 C   0  0  0  0  0  0  0  0  0  0  0  0
  191.4430  174.8170  138.1380 C   0  0  0  0  0  2  0  0  0  0  0  0
  194.0690  176.9450  136.8030 O   0  0  0  0  0  0  0  0  0  0  0  0
  193.4380  176.8380  139.0880 C   0  0  0  0  0  1  0  0  0  0  0  0
  192.5420  175.2700  137.2980 N   0  0  0  0  0  2  0  0  0  0  0  0
  193.3970  176.3470  137.6830 C   0  0  0  0  0  0  0  0  0  0  0  0
  180.7730  179.0970  141.0920 C   0  0  0  0  0  1  0  0  0  0  0  0
  180.8390  178.6040  139.6620 C   0  0  0  0  0  2  0  0  0  0  0  0
  190.0590  176.9560  134.8850 C   0  0  0  0  0  1  0  0  0  0  0  0
  188.8820  177.6660  134.5970 O   0  0  0  0  0  0  0  0  0  0  0  0
  186.5970  178.9330  142.3620 C   0  0  2  0  0  3  0  0  0  0  0  0
  187.3790  176.6170  142.9310 O   0  0  0  0  0  1  0  0  0  0  0  0
  188.8630  178.3660  142.8720 O   0  0  0  0  0  0  0  0  0  0  0  0
  187.6790  177.9600  142.7390 C   0  0  0  0  0  0  0  0  0  0  0  0
  185.3640  178.7000  143.2530 C   0  0  2  0  0  3  0  0  0  0  0  0
  184.6860  179.8980  143.4770 O   0  0  0  0  0  1  0  0  0  0  0  0
  185.7650  178.1210  144.6070 C   0  0  0  0  0  2  0  0  0  0  0  0
  183.8140  178.6170  145.8790 O   0  0  0  0  0  0  0  0  0  0  0  0
  185.6940  179.7930  146.4610 O   0  0  0  0  0  1  0  0  0  0  0  0
  185.0450  178.8240  145.7060 C   0  0  0  0  0  0  0  0  0  0  0  0
  1  8  1  0  0  0  0
  2 41  1  1  0  0  0
  2 15  1  0  0  0  0
  3  6  1  0  0  0  0
  5 16  1  0  0  0  0
  6  5  1  0  0  0  0
  7 18  1  0  0  0  0
  7  3  1  0  0  0  0
  8 10  1  0  0  0  0
  8 13  1  0  0  0  0
  9  6  1  0  0  0  0
 10 13  1  0  0  0  0
 11  7  1  0  0  0  0
 11  3  1  0  0  0  0
 12 18  1  0  0  0  0
 12  1  1  0  0  0  0
 13  2  1  0  0  0  0
 14  4  2  0  0  0  0
 14 17  1  0  0  0  0
 15  4  1  0  0  0  0
 16 17  1  0  0  0  0
 17 44  1  0  0  0  0
 18  9  1  0  0  0  0
 20 19  1  0  0  0  0
 21 27  1  0  0  0  0
 22 24  1  0  0  0  0
 22 23  1  0  0  0  0
 23 20  1  0  0  0  0
 23 28  1  0  0  0  0
 24 27  1  0  0  0  0
 25 27  1  0  0  0  0
 25 20  1  0  0  0  0
 26 19  1  0  0  0  0
 26 10  1  0  0  0  0
 27 26  1  0  0  0  0
 29 34  1  0  0  0  0
 30 33  1  0  0  0  0
 30 29  2  0  0  0  0
 32 28  1  0  0  0  0
 32 31  1  0  0  0  0
 33 32  2  0  0  0  0
 34 31  2  0  0  0  0
 34 35  1  0  0  0  0
 36 39  2  0  0  0  0
 38 39  1  0  0  0  0
 38 35  1  0  0  0  0
 39 37  1  0  0  0  0
 41 40  1  0  0  0  0
 43 42  1  0  0  0  0
 43 11  1  0  0  0  0
 44 47  1  0  0  0  0
 44 48  1  0  0  0  0
 47 46  2  0  0  0  0
 47 45  1  0  0  0  0
 48 49  1  0  0  0  0
 48 50  1  0  0  0  0
 50 53  1  0  0  0  0
 53 51  2  0  0  0  0
 53 52  1  0  0  0  0
M  END
>  <MODEL>
4

>  <REMARK>
 VINA RESULT:      -3.1      2.906      6.487
  Name = 
  12 active torsions:
  status: ('A' for Active; 'I' for Inactive)
    1  A    between atoms: C_4  and  C_52
    2  A    between atoms: C_14  and  C_41
    3  A    between atoms: C_14  and  C_45
    4  A    between atoms: C_14  and  C_48
    5  A    between atoms: N_15  and  C_47
    6  A    between atoms: C_20  and  C_51
    7  A    between atoms: C_25  and  C_35
    8  A    between atoms: C_28  and  O_50
    9  A    between atoms: C_32  and  C_44
   10  A    between atoms: C_37  and  C_51
   11  A    between atoms: C_41  and  C_44
   12  A    between atoms: C_47  and  C_49
                            x       y       z     vdW  Elec       q    Type
                         _______ _______ _______ _____ _____    ______ ____

>  <TORSDO>
F 12

$$$$
=
 OpenBabel11062414063D

 53 59  0  0  1  0  0  0  0  0999 V2000
  190.2060  178.1450  138.9710 C   0  0  0  0  0  2  0  0  0  0  0  0
  187.7500  178.5460  137.6770 C   0  0  2  0  0  3  0  0  0  0  0  0
  189.7720  177.0100  143.5020 C   0  0  2  0  0  3  0  0  0  0  0  0
  186.0070  178.0320  139.4330 C   0  0  0  0  0  3  0  0  0  0  0  0
  187.4310  177.7550  143.0860 C   0  0  0  0  0  2  0  0  0  0  0  0
  188.5150  176.7680  142.6850 C   0  0  1  0  0  3  0  0  0  0  0  0
  190.9420  177.0380  142.5280 C   0  0  1  0  0  3  0  0  0  0  0  0
  189.8610  177.0550  137.9450 C   0  0  1  0  0  3  0  0  0  0  0  0
  188.8920  177.0070  141.2520 C   0  0  0  0  0  2  0  0  0  0  0  0
  188.6210  176.2890  138.3500 C   0  0  1  0  0  3  0  0  0  0  0  0
  190.7160  175.8270  143.4170 C   0  0  1  0  0  3  0  0  0  0  0  0
  191.0870  177.6570  140.1230 C   0  0  0  0  0  2  0  0  0  0  0  0
  188.5270  177.2980  137.2170 C   0  0  1  0  0  3  0  0  0  0  0  0
  186.3820  178.9580  140.3230 C   0  0  0  0  0  3  0  0  0  0  0  0
  186.2860  178.2210  137.9660 C   0  0  0  0  0  2  0  0  0  0  0  0
  186.2990  177.5900  142.2790 O   0  0  0  0  0  0  0  0  0  0  0  0
  186.0080  178.8690  141.7860 C   0  0  2  0  0  3  0  0  0  0  0  0
  190.3830  176.7640  141.1470 C   0  0  1  0  0  3  0  0  0  0  0  0
  190.1510  174.3340  137.6520 C   0  0  0  0  0  2  0  0  0  0  0  0
  190.1350  173.8540  136.2040 C   0  0  2  0  0  3  0  0  0  0  0  0
  186.7400  174.2360  136.6770 O   0  0  0  0  0  1  0  0  0  0  0  0
  189.3730  175.7090  134.5950 C   0  0  0  0  0  2  0  0  0  0  0  0
  190.5760  174.9760  135.2160 C   0  0  1  0  0  3  0  0  0  0  0  0
  188.1810  175.8240  135.5660 C   0  0  0  0  0  2  0  0  0  0  0  0
  188.7920  173.5140  135.9380 O   0  0  0  0  0  0  0  0  0  0  0  0
  188.7300  174.8350  137.8690 C   0  0  2  0  0  3  0  0  0  0  0  0
  188.0770  174.5900  136.5060 C   0  0  2  0  0  0  0  0  0  0  0  0
  191.5660  175.9800  135.8180 C   0  0  0  0  0  2  0  0  0  0  0  0
  195.6370  174.6790  135.7300 N   0  0  0  0  0  0  0  0  0  0  0  0
  195.0400  175.1310  134.5940 C   0  0  0  0  0  3  0  0  0  0  0  0
  193.6440  175.0540  136.9880 C   0  0  0  0  0  3  0  0  0  0  0  0
  192.9970  175.5120  135.8280 C   0  0  0  0  0  0  0  0  0  0  0  0
  193.7100  175.5570  134.6230 C   0  0  0  0  0  3  0  0  0  0  0  0
  194.9830  174.6530  136.9230 C   0  0  0  0  0  0  0  0  0  0  0  0
  195.6760  174.1750  138.1480 C   0  0  0  0  0  2  0  0  0  0  0  0
  195.0420  170.6000  137.9990 O   0  0  0  0  0  0  0  0  0  0  0  0
  197.0400  171.6560  137.2760 C   0  0  0  0  0  1  0  0  0  0  0  0
  195.1700  172.8580  138.5110 N   0  0  0  0  0  2  0  0  0  0  0  0
  195.7210  171.6580  137.9660 C   0  0  0  0  0  0  0  0  0  0  0  0
  186.9470  179.2210  135.4030 C   0  0  0  0  0  1  0  0  0  0  0  0
  187.8060  179.6100  136.5880 C   0  0  0  0  0  2  0  0  0  0  0  0
  191.3110  177.0750  145.1810 C   0  0  0  0  0  1  0  0  0  0  0  0
  191.5590  175.8560  144.5280 O   0  0  0  0  0  0  0  0  0  0  0  0
  184.5250  179.2350  142.0320 C   0  0  2  0  0  3  0  0  0  0  0  0
  183.1830  178.7360  144.0930 O   0  0  0  0  0  0  0  0  0  0  0  0
  185.0160  180.1130  144.2010 O   0  0  0  0  0  1  0  0  0  0  0  0
  184.2570  179.3910  143.5020 C   0  0  0  0  0  0  0  0  0  0  0  0
  183.5680  178.1820  141.4450 C   0  0  2  0  0  3  0  0  0  0  0  0
  184.2840  177.1250  140.8830 O   0  0  0  0  0  1  0  0  0  0  0  0
  182.6840  178.7870  140.3590 C   0  0  0  0  0  2  0  0  0  0  0  0
  180.9360  178.3220  141.9080 O   0  0  0  0  0  1  0  0  0  0  0  0
  180.2530  178.8830  139.7930 O   0  0  0  0  0  0  0  0  0  0  0  0
  181.2470  178.6890  140.7440 C   0  0  0  0  0  0  0  0  0  0  0  0
  1 12  1  0  0  0  0
  2 41  1  6  0  0  0
  2 15  1  0  0  0  0
  4 14  2  0  0  0  0
  6  5  1  0  0  0  0
  6  3  1  0  0  0  0
  7 11  1  0  0  0  0
  7  3  1  0  0  0  0
  8 10  1  0  0  0  0
  8  1  1  0  0  0  0
  9  6  1  0  0  0  0
 11  3  1  0  0  0  0
 11 43  1  0  0  0  0
 12 18  1  0  0  0  0
 13  2  1  0  0  0  0
 13  8  1  0  0  0  0
 13 10  1  0  0  0  0
 14 17  1  0  0  0  0
 15  4  1  0  0  0  0
 16  5  1  0  0  0  0
 17 44  1  0  0  0  0
 17 16  1  0  0  0  0
 18  9  1  0  0  0  0
 18  7  1  0  0  0  0
 19 26  1  0  0  0  0
 20 19  1  0  0  0  0
 22 23  1  0  0  0  0
 22 24  1  0  0  0  0
 23 28  1  0  0  0  0
 23 20  1  0  0  0  0
 24 27  1  0  0  0  0
 25 20  1  0  0  0  0
 25 27  1  0  0  0  0
 26 10  1  0  0  0  0
 27 21  1  0  0  0  0
 27 26  1  0  0  0  0
 28 32  1  0  0  0  0
 29 34  1  0  0  0  0
 30 33  1  0  0  0  0
 30 29  2  0  0  0  0
 32 31  1  0  0  0  0
 33 32  2  0  0  0  0
 34 31  2  0  0  0  0
 34 35  1  0  0  0  0
 35 38  1  0  0  0  0
 37 39  1  0  0  0  0
 39 36  2  0  0  0  0
 39 38  1  0  0  0  0
 40 41  1  0  0  0  0
 43 42  1  0  0  0  0
 44 47  1  0  0  0  0
 47 45  2  0  0  0  0
 47 46  1  0  0  0  0
 48 44  1  0  0  0  0
 49 48  1  0  0  0  0
 50 53  1  0  0  0  0
 50 48  1  0  0  0  0
 52 53  2  0  0  0  0
 53 51  1  0  0  0  0
M  END
>  <MODEL>
5

>  <REMARK>
 VINA RESULT:      -3.0      3.892      7.745
  Name = 
  12 active torsions:
  status: ('A' for Active; 'I' for Inactive)
    1  A    between atoms: C_4  and  C_52
    2  A    between atoms: C_14  and  C_41
    3  A    between atoms: C_14  and  C_45
    4  A    between atoms: C_14  and  C_48
    5  A    between atoms: N_15  and  C_47
    6  A    between atoms: C_20  and  C_51
    7  A    between atoms: C_25  and  C_35
    8  A    between atoms: C_28  and  O_50
    9  A    between atoms: C_32  and  C_44
   10  A    between atoms: C_37  and  C_51
   11  A    between atoms: C_41  and  C_44
   12  A    between atoms: C_47  and  C_49
                            x       y       z     vdW  Elec       q    Type
                         _______ _______ _______ _____ _____    ______ ____

>  <TORSDO>
F 12

$$$$
=
 OpenBabel11062414063D

 53 59  0  0  1  0  0  0  0  0999 V2000
  182.4000  177.3210  140.6790 C   0  0  0  0  0  2  0  0  0  0  0  0
  183.2130  177.7340  138.0270 C   0  0  2  0  0  3  0  0  0  0  0  0
  185.5710  178.7020  143.8480 C   0  0  2  0  0  3  0  0  0  0  0  0
  185.4600  178.8760  138.2150 C   0  0  0  0  0  3  0  0  0  0  0  0
  187.0190  178.7860  141.8210 C   0  0  0  0  0  2  0  0  0  0  0  0
  185.7600  179.3280  142.4780 C   0  0  1  0  0  3  0  0  0  0  0  0
  184.1230  178.2410  143.9360 C   0  0  1  0  0  3  0  0  0  0  0  0
  181.6140  178.4240  139.9550 C   0  0  1  0  0  3  0  0  0  0  0  0
  184.5670  178.9220  141.6620 C   0  0  0  0  0  2  0  0  0  0  0  0
  182.5120  179.5820  139.5760 C   0  0  1  0  0  3  0  0  0  0  0  0
  184.5740  179.4880  144.6760 C   0  0  1  0  0  3  0  0  0  0  0  0
  182.5000  177.5210  142.1930 C   0  0  0  0  0  2  0  0  0  0  0  0
  182.0460  178.6240  138.4910 C   0  0  1  0  0  3  0  0  0  0  0  0
  186.0870  177.9110  138.8970 C   0  0  0  0  0  3  0  0  0  0  0  0
  184.2950  178.5500  137.3200 C   0  0  0  0  0  2  0  0  0  0  0  0
  187.1520  179.2970  140.5260 O   0  0  0  0  0  0  0  0  0  0  0  0
  187.3380  178.1770  139.7050 C   0  0  2  0  0  3  0  0  0  0  0  0
  183.4470  178.6370  142.6400 C   0  0  1  0  0  3  0  0  0  0  0  0
  180.2310  180.7330  139.9320 C   0  0  0  0  0  2  0  0  0  0  0  0
  179.5510  181.4220  138.7540 C   0  0  2  0  0  3  0  0  0  0  0  0
  182.7760  182.5250  138.2260 O   0  0  0  0  0  1  0  0  0  0  0  0
  180.3080  180.4300  136.5060 C   0  0  0  0  0  2  0  0  0  0  0  0
  179.2290  180.4200  137.6040 C   0  0  1  0  0  3  0  0  0  0  0  0
  181.7210  180.6890  137.0630 C   0  0  0  0  0  2  0  0  0  0  0  0
  180.4840  182.3700  138.2850 O   0  0  0  0  0  0  0  0  0  0  0  0
  181.7130  180.8930  139.6220 C   0  0  2  0  0  3  0  0  0  0  0  0
  181.6960  181.6450  138.2880 C   0  0  2  0  0  0  0  0  0  0  0  0
  178.9620  178.9890  138.0830 C   0  0  0  0  0  2  0  0  0  0  0  0
  178.9560  176.1440  134.8930 N   0  0  0  0  0  0  0  0  0  0  0  0
  178.9300  177.4760  134.6190 C   0  0  0  0  0  3  0  0  0  0  0  0
  179.0010  176.5740  137.2390 C   0  0  0  0  0  3  0  0  0  0  0  0
  178.9600  177.9560  136.9870 C   0  0  0  0  0  0  0  0  0  0  0  0
  178.9330  178.4060  135.6620 C   0  0  0  0  0  3  0  0  0  0  0  0
  179.0150  175.6740  136.1680 C   0  0  0  0  0  0  0  0  0  0  0  0
  179.0660  174.2110  136.4270 C   0  0  0  0  0  2  0  0  0  0  0  0
  182.2830  172.6630  135.7480 O   0  0  0  0  0  0  0  0  0  0  0  0
  180.9730  172.2780  137.6880 C   0  0  0  0  0  1  0  0  0  0  0  0
  180.1720  173.6230  135.6840 N   0  0  0  0  0  2  0  0  0  0  0  0
  181.1760  172.8310  136.3210 C   0  0  0  0  0  0  0  0  0  0  0  0
  183.2220  176.9090  135.6630 C   0  0  0  0  0  1  0  0  0  0  0  0
  182.6940  176.6750  137.0630 C   0  0  0  0  0  2  0  0  0  0  0  0
  185.7060  178.1340  146.0580 C   0  0  0  0  0  1  0  0  0  0  0  0
  184.8090  179.2140  146.0240 O   0  0  0  0  0  0  0  0  0  0  0  0
  188.5860  178.3480  138.8050 C   0  0  2  0  0  3  0  0  0  0  0  0
  187.9480  177.4070  136.5680 O   0  0  0  0  0  0  0  0  0  0  0  0
  188.0460  179.6770  136.8930 O   0  0  0  0  0  1  0  0  0  0  0  0
  188.1810  178.5190  137.3690 C   0  0  0  0  0  0  0  0  0  0  0  0
  189.5520  177.1560  138.9290 C   0  0  2  0  0  3  0  0  0  0  0  0
  189.0010  176.0150  138.3440 O   0  0  0  0  0  1  0  0  0  0  0  0
  189.8540  176.8420  140.3910 C   0  0  0  0  0  2  0  0  0  0  0  0
  192.0870  177.5270  139.9260 O   0  0  0  0  0  0  0  0  0  0  0  0
  191.4320  177.7240  142.1140 O   0  0  0  0  0  1  0  0  0  0  0  0
  191.1710  177.4190  140.7840 C   0  0  0  0  0  0  0  0  0  0  0  0
  1 12  1  0  0  0  0
  2 41  1  6  0  0  0
  2 13  1  0  0  0  0
  3  7  1  0  0  0  0
  3 11  1  0  0  0  0
  4 14  2  0  0  0  0
  5  6  1  0  0  0  0
  6  3  1  0  0  0  0
  7 11  1  0  0  0  0
  8  1  1  0  0  0  0
  9  6  1  0  0  0  0
  9 18  1  0  0  0  0
 10 26  1  0  0  0  0
 10  8  1  0  0  0  0
 11 43  1  0  0  0  0
 12 18  1  0  0  0  0
 13 10  1  0  0  0  0
 13  8  1  0  0  0  0
 14 17  1  0  0  0  0
 15  2  1  0  0  0  0
 15  4  1  0  0  0  0
 16  5  1  0  0  0  0
 17 16  1  0  0  0  0
 18  7  1  0  0  0  0
 20 19  1  0  0  0  0
 21 27  1  0  0  0  0
 22 24  1  0  0  0  0
 22 23  1  0  0  0  0
 23 28  1  0  0  0  0
 23 20  1  0  0  0  0
 24 27  1  0  0  0  0
 25 27  1  0  0  0  0
 25 20  1  0  0  0  0
 26 19  1  0  0  0  0
 27 26  1  0  0  0  0
 29 34  1  0  0  0  0
 30 29  2  0  0  0  0
 30 33  1  0  0  0  0
 32 31  1  0  0  0  0
 32 28  1  0  0  0  0
 33 32  2  0  0  0  0
 34 35  1  0  0  0  0
 34 31  2  0  0  0  0
 36 39  2  0  0  0  0
 38 39  1  0  0  0  0
 38 35  1  0  0  0  0
 39 37  1  0  0  0  0
 40 41  1  0  0  0  0
 43 42  1  0  0  0  0
 44 48  1  0  0  0  0
 44 17  1  0  0  0  0
 45 47  2  0  0  0  0
 46 47  1  0  0  0  0
 47 44  1  0  0  0  0
 48 50  1  0  0  0  0
 49 48  1  0  0  0  0
 50 53  1  0  0  0  0
 51 53  2  0  0  0  0
 53 52  1  0  0  0  0
M  END
>  <MODEL>
6

>  <REMARK>
 VINA RESULT:      -2.8      3.225      7.879
  Name = 
  12 active torsions:
  status: ('A' for Active; 'I' for Inactive)
    1  A    between atoms: C_4  and  C_52
    2  A    between atoms: C_14  and  C_41
    3  A    between atoms: C_14  and  C_45
    4  A    between atoms: C_14  and  C_48
    5  A    between atoms: N_15  and  C_47
    6  A    between atoms: C_20  and  C_51
    7  A    between atoms: C_25  and  C_35
    8  A    between atoms: C_28  and  O_50
    9  A    between atoms: C_32  and  C_44
   10  A    between atoms: C_37  and  C_51
   11  A    between atoms: C_41  and  C_44
   12  A    between atoms: C_47  and  C_49
                            x       y       z     vdW  Elec       q    Type
                         _______ _______ _______ _____ _____    ______ ____

>  <TORSDO>
F 12

$$$$
=
 OpenBabel11062414063D

 53 59  0  0  1  0  0  0  0  0999 V2000
  181.9500  180.2310  139.4710 C   0  0  0  0  0  2  0  0  0  0  0  0
  180.8390  179.3870  141.9040 C   0  0  2  0  0  3  0  0  0  0  0  0
  186.3450  178.7310  138.8000 C   0  0  2  0  0  3  0  0  0  0  0  0
  182.6160  177.9270  142.9500 C   0  0  0  0  0  3  0  0  0  0  0  0
  186.1360  178.1800  141.2220 C   0  0  0  0  0  2  0  0  0  0  0  0
  185.5730  177.9280  139.8320 C   0  0  1  0  0  3  0  0  0  0  0  0
  185.3210  179.4270  137.9150 C   0  0  1  0  0  3  0  0  0  0  0  0
  180.8300  179.1930  139.3130 C   0  0  1  0  0  3  0  0  0  0  0  0
  184.1570  178.4250  139.7780 C   0  0  0  0  0  2  0  0  0  0  0  0
  181.2120  177.8690  139.9380 C   0  0  1  0  0  3  0  0  0  0  0  0
  186.0800  178.2180  137.3980 C   0  0  1  0  0  3  0  0  0  0  0  0
  182.9940  180.1940  138.3530 C   0  0  0  0  0  2  0  0  0  0  0  0
  180.2040  178.7580  140.6500 C   0  0  1  0  0  3  0  0  0  0  0  0
  183.5810  178.8500  143.0130 C   0  0  0  0  0  3  0  0  0  0  0  0
  181.1660  178.3320  142.9580 C   0  0  0  0  0  2  0  0  0  0  0  0
  185.3760  177.5080  142.1850 O   0  0  0  0  0  0  0  0  0  0  0  0
  185.0430  178.4810  143.1370 C   0  0  2  0  0  3  0  0  0  0  0  0
  183.9490  178.9980  138.3930 C   0  0  1  0  0  3  0  0  0  0  0  0
  181.4440  175.4850  138.9830 C   0  0  0  0  0  2  0  0  0  0  0  0
  181.4840  175.2870  137.4710 C   0  0  2  0  0  3  0  0  0  0  0  0
  178.9320  177.6020  137.6400 O   0  0  0  0  0  1  0  0  0  0  0  0
  182.3210  177.3930  136.2580 C   0  0  0  0  0  2  0  0  0  0  0  0
  182.7010  176.0140  136.8230 C   0  0  1  0  0  3  0  0  0  0  0  0
  181.2320  178.0980  137.0910 C   0  0  0  0  0  2  0  0  0  0  0  0
  180.2940  175.8710  136.9870 O   0  0  0  0  0  0  0  0  0  0  0  0
  180.5680  176.7190  139.1510 C   0  0  2  0  0  3  0  0  0  0  0  0
  180.2250  177.0840  137.7040 C   0  0  2  0  0  0  0  0  0  0  0  0
  183.9200  176.1260  137.7460 C   0  0  0  0  0  2  0  0  0  0  0  0
  186.7790  172.9980  137.1840 N   0  0  0  0  0  0  0  0  0  0  0  0
  185.4880  172.6960  137.4890 C   0  0  0  0  0  3  0  0  0  0  0  0
  186.2930  175.3340  137.2110 C   0  0  0  0  0  3  0  0  0  0  0  0
  184.9570  175.0530  137.5410 C   0  0  0  0  0  0  0  0  0  0  0  0
  184.5540  173.7190  137.6720 C   0  0  0  0  0  3  0  0  0  0  0  0
  187.1960  174.2830  137.0180 C   0  0  0  0  0  0  0  0  0  0  0  0
  188.6100  174.5730  136.6610 C   0  0  0  0  0  2  0  0  0  0  0  0
  191.0010  176.7740  138.2860 O   0  0  0  0  0  0  0  0  0  0  0  0
  190.9470  176.3080  135.9600 C   0  0  0  0  0  1  0  0  0  0  0  0
  189.1610  175.5410  137.5990 N   0  0  0  0  0  2  0  0  0  0  0  0
  190.3690  176.2520  137.3310 C   0  0  0  0  0  0  0  0  0  0  0  0
  179.0230  179.7580  143.5880 C   0  0  0  0  0  1  0  0  0  0  0  0
  179.8730  180.3980  142.5100 C   0  0  0  0  0  2  0  0  0  0  0  0
  188.1570  179.0590  137.4390 C   0  0  0  0  0  1  0  0  0  0  0  0
  187.1430  178.6040  136.5810 O   0  0  0  0  0  0  0  0  0  0  0  0
  185.4060  178.0070  144.5650 C   0  0  2  0  0  3  0  0  0  0  0  0
  185.2980  180.3510  145.4540 O   0  0  0  0  0  0  0  0  0  0  0  0
  184.2460  178.6360  146.5590 O   0  0  0  0  0  1  0  0  0  0  0  0
  184.9510  179.0120  145.5860 C   0  0  0  0  0  0  0  0  0  0  0  0
  186.9170  177.7620  144.7240 C   0  0  2  0  0  3  0  0  0  0  0  0
  187.2150  176.4080  144.5660 O   0  0  0  0  0  1  0  0  0  0  0  0
  187.4040  178.1970  146.1030 C   0  0  0  0  0  2  0  0  0  0  0  0
  188.6780  176.6850  147.4300 O   0  0  0  0  0  1  0  0  0  0  0  0
  189.8490  177.7920  145.7990 O   0  0  0  0  0  0  0  0  0  0  0  0
  188.6650  177.4860  146.4570 C   0  0  0  0  0  0  0  0  0  0  0  0
  2 41  1  1  0  0  0
  2 15  1  0  0  0  0
  3  6  1  0  0  0  0
  4 15  1  0  0  0  0
  4 14  2  0  0  0  0
  5 16  1  0  0  0  0
  6  5  1  0  0  0  0
  7 18  1  0  0  0  0
  7  3  1  0  0  0  0
  8  1  1  0  0  0  0
  8 10  1  0  0  0  0
  8 13  1  0  0  0  0
  9  6  1  0  0  0  0
 10 13  1  0  0  0  0
 11  7  1  0  0  0  0
 11  3  1  0  0  0  0
 12 18  1  0  0  0  0
 12  1  1  0  0  0  0
 13  2  1  0  0  0  0
 14 17  1  0  0  0  0
 16 17  1  0  0  0  0
 17 44  1  0  0  0  0
 18  9  1  0  0  0  0
 19 26  1  0  0  0  0
 20 19  1  0  0  0  0
 21 27  1  0  0  0  0
 22 23  1  0  0  0  0
 22 24  1  0  0  0  0
 23 20  1  0  0  0  0
 23 28  1  0  0  0  0
 24 27  1  0  0  0  0
 25 20  1  0  0  0  0
 25 27  1  0  0  0  0
 26 10  1  0  0  0  0
 27 26  1  0  0  0  0
 29 30  1  0  0  0  0
 30 33  2  0  0  0  0
 31 32  2  0  0  0  0
 32 33  1  0  0  0  0
 32 28  1  0  0  0  0
 34 29  2  0  0  0  0
 34 31  1  0  0  0  0
 35 34  1  0  0  0  0
 35 38  1  0  0  0  0
 37 39  1  0  0  0  0
 39 38  1  0  0  0  0
 39 36  2  0  0  0  0
 41 40  1  0  0  0  0
 43 11  1  0  0  0  0
 43 42  1  0  0  0  0
 44 48  1  0  0  0  0
 44 47  1  0  0  0  0
 45 47  2  0  0  0  0
 47 46  1  0  0  0  0
 48 50  1  0  0  0  0
 49 48  1  0  0  0  0
 50 53  1  0  0  0  0
 52 53  2  0  0  0  0
 53 51  1  0  0  0  0
M  END
>  <MODEL>
7

>  <REMARK>
 VINA RESULT:      -2.8      2.956      7.533
  Name = 
  12 active torsions:
  status: ('A' for Active; 'I' for Inactive)
    1  A    between atoms: C_4  and  C_52
    2  A    between atoms: C_14  and  C_41
    3  A    between atoms: C_14  and  C_45
    4  A    between atoms: C_14  and  C_48
    5  A    between atoms: N_15  and  C_47
    6  A    between atoms: C_20  and  C_51
    7  A    between atoms: C_25  and  C_35
    8  A    between atoms: C_28  and  O_50
    9  A    between atoms: C_32  and  C_44
   10  A    between atoms: C_37  and  C_51
   11  A    between atoms: C_41  and  C_44
   12  A    between atoms: C_47  and  C_49
                            x       y       z     vdW  Elec       q    Type
                         _______ _______ _______ _____ _____    ______ ____

>  <TORSDO>
F 12

$$$$
=
 OpenBabel11062414063D

 53 59  0  0  1  0  0  0  0  0999 V2000
  189.1260  175.1010  138.1240 C   0  0  0  0  0  2  0  0  0  0  0  0
  189.9430  174.7930  135.4590 C   0  0  2  0  0  3  0  0  0  0  0  0
  192.4680  176.8430  140.9180 C   0  0  2  0  0  3  0  0  0  0  0  0
  192.3000  175.7030  135.4010 C   0  0  0  0  0  3  0  0  0  0  0  0
  193.8890  176.2960  138.9450 C   0  0  0  0  0  2  0  0  0  0  0  0
  192.7030  177.1070  139.4410 C   0  0  1  0  0  3  0  0  0  0  0  0
  190.9810  176.5710  141.0950 C   0  0  1  0  0  3  0  0  0  0  0  0
  188.4520  176.0800  137.1530 C   0  0  1  0  0  3  0  0  0  0  0  0
  191.4630  176.6500  138.7300 C   0  0  0  0  0  2  0  0  0  0  0  0
  189.4610  177.0160  136.5230 C   0  0  1  0  0  3  0  0  0  0  0  0
  191.5700  177.9020  141.5270 C   0  0  1  0  0  3  0  0  0  0  0  0
  189.2680  175.6380  139.5500 C   0  0  0  0  0  2  0  0  0  0  0  0
  188.8820  175.8850  135.6880 C   0  0  1  0  0  3  0  0  0  0  0  0
  192.8300  174.8640  136.2970 C   0  0  0  0  0  3  0  0  0  0  0  0
  191.0950  175.3010  134.5940 C   0  0  0  0  0  2  0  0  0  0  0  0
  194.0580  176.4720  137.5680 O   0  0  0  0  0  0  0  0  0  0  0  0
  194.1140  175.1780  137.0340 C   0  0  2  0  0  3  0  0  0  0  0  0
  190.3320  176.7220  139.7340 C   0  0  1  0  0  3  0  0  0  0  0  0
  188.8630  179.3620  137.4110 C   0  0  0  0  0  2  0  0  0  0  0  0
  187.3990  179.7250  137.6350 C   0  0  2  0  0  3  0  0  0  0  0  0
  187.0950  178.1250  134.5940 O   0  0  0  0  0  1  0  0  0  0  0  0
  185.9540  177.6380  138.0440 C   0  0  0  0  0  2  0  0  0  0  0  0
  186.7270  178.7990  138.6930 C   0  0  1  0  0  3  0  0  0  0  0  0
  186.6150  177.1360  136.7450 C   0  0  0  0  0  2  0  0  0  0  0  0
  186.7690  179.5220  136.3880 O   0  0  0  0  0  0  0  0  0  0  0  0
  188.8060  178.3780  136.2510 C   0  0  2  0  0  3  0  0  0  0  0  0
  187.3050  178.2880  135.9620 C   0  0  2  0  0  0  0  0  0  0  0  0
  187.6930  178.2720  139.7600 C   0  0  0  0  0  2  0  0  0  0  0  0
  186.0380  178.3880  143.7000 N   0  0  0  0  0  0  0  0  0  0  0  0
  185.3480  178.9180  142.6530 C   0  0  0  0  0  3  0  0  0  0  0  0
  187.8280  177.7430  142.2600 C   0  0  0  0  0  3  0  0  0  0  0  0
  187.1450  178.2940  141.1620 C   0  0  0  0  0  0  0  0  0  0  0  0
  185.8890  178.8790  141.3660 C   0  0  0  0  0  3  0  0  0  0  0  0
  187.2460  177.7850  143.5310 C   0  0  0  0  0  0  0  0  0  0  0  0
  187.9600  177.1970  144.6960 C   0  0  0  0  0  2  0  0  0  0  0  0
  187.6290  177.9530  148.2340 O   0  0  0  0  0  0  0  0  0  0  0  0
  189.6370  177.2650  147.1740 C   0  0  0  0  0  1  0  0  0  0  0  0
  187.4990  177.8330  145.9220 N   0  0  0  0  0  2  0  0  0  0  0  0
  188.2220  177.7280  147.1480 C   0  0  0  0  0  0  0  0  0  0  0  0
  189.5340  172.3250  135.5480 C   0  0  0  0  0  1  0  0  0  0  0  0
  189.3020  173.5980  134.7640 C   0  0  0  0  0  2  0  0  0  0  0  0
  191.5750  176.6200  143.3660 C   0  0  0  0  0  1  0  0  0  0  0  0
  191.7930  177.9290  142.9040 O   0  0  0  0  0  0  0  0  0  0  0  0
  195.3600  175.0010  136.1350 C   0  0  2  0  0  3  0  0  0  0  0  0
  195.6090  172.5990  136.8190 O   0  0  0  0  0  1  0  0  0  0  0  0
  195.7080  173.1970  134.6050 O   0  0  0  0  0  0  0  0  0  0  0  0
  195.5720  173.5500  135.8060 C   0  0  0  0  0  0  0  0  0  0  0  0
  196.6300  175.5680  136.7940 C   0  0  2  0  0  3  0  0  0  0  0  0
  197.3950  176.2730  135.8640 O   0  0  0  0  0  1  0  0  0  0  0  0
  197.4960  174.4520  137.3720 C   0  0  0  0  0  2  0  0  0  0  0  0
  196.8890  174.6030  139.6700 O   0  0  0  0  0  1  0  0  0  0  0  0
  199.0440  175.2140  139.1790 O   0  0  0  0  0  0  0  0  0  0  0  0
  197.7990  174.7210  138.8070 C   0  0  0  0  0  0  0  0  0  0  0  0
  1 12  1  0  0  0  0
  2 41  1  6  0  0  0
  2 13  1  0  0  0  0
  3  7  1  0  0  0  0
  3 11  1  0  0  0  0
  4 14  2  0  0  0  0
  5  6  1  0  0  0  0
  6  3  1  0  0  0  0
  7 11  1  0  0  0  0
  8  1  1  0  0  0  0
  9  6  1  0  0  0  0
  9 18  1  0  0  0  0
 10  8  1  0  0  0  0
 11 43  1  0  0  0  0
 12 18  1  0  0  0  0
 13 10  1  0  0  0  0
 13  8  1  0  0  0  0
 14 17  1  0  0  0  0
 15  4  1  0  0  0  0
 15  2  1  0  0  0  0
 16  5  1  0  0  0  0
 17 16  1  0  0  0  0
 18  7  1  0  0  0  0
 19 20  1  0  0  0  0
 20 23  1  0  0  0  0
 21 27  1  0  0  0  0
 22 23  1  0  0  0  0
 23 28  1  0  0  0  0
 24 22  1  0  0  0  0
 25 20  1  0  0  0  0
 26 10  1  0  0  0  0
 26 19  1  0  0  0  0
 27 26  1  0  0  0  0
 27 25  1  0  0  0  0
 27 24  1  0  0  0  0
 28 32  1  0  0  0  0
 30 29  2  0  0  0  0
 31 34  2  0  0  0  0
 32 33  2  0  0  0  0
 32 31  1  0  0  0  0
 33 30  1  0  0  0  0
 34 29  1  0  0  0  0
 34 35  1  0  0  0  0
 35 38  1  0  0  0  0
 38 39  1  0  0  0  0
 39 37  1  0  0  0  0
 39 36  2  0  0  0  0
 41 40  1  0  0  0  0
 43 42  1  0  0  0  0
 44 48  1  0  0  0  0
 44 17  1  0  0  0  0
 46 47  2  0  0  0  0
 47 44  1  0  0  0  0
 47 45  1  0  0  0  0
 48 50  1  0  0  0  0
 49 48  1  0  0  0  0
 50 53  1  0  0  0  0
 53 52  2  0  0  0  0
 53 51  1  0  0  0  0
M  END
>  <MODEL>
8

>  <REMARK>
 VINA RESULT:      -2.8      3.733      8.237
  Name = 
  12 active torsions:
  status: ('A' for Active; 'I' for Inactive)
    1  A    between atoms: C_4  and  C_52
    2  A    between atoms: C_14  and  C_41
    3  A    between atoms: C_14  and  C_45
    4  A    between atoms: C_14  and  C_48
    5  A    between atoms: N_15  and  C_47
    6  A    between atoms: C_20  and  C_51
    7  A    between atoms: C_25  and  C_35
    8  A    between atoms: C_28  and  O_50
    9  A    between atoms: C_32  and  C_44
   10  A    between atoms: C_37  and  C_51
   11  A    between atoms: C_41  and  C_44
   12  A    between atoms: C_47  and  C_49
                            x       y       z     vdW  Elec       q    Type
                         _______ _______ _______ _____ _____    ______ ____

>  <TORSDO>
F 12

$$$$
=
 OpenBabel11062414063D

 53 59  0  0  1  0  0  0  0  0999 V2000
  185.0420  175.0290  138.3470 C   0  0  0  0  0  2  0  0  0  0  0  0
  185.3530  177.7390  139.0010 C   0  0  2  0  0  3  0  0  0  0  0  0
  181.1230  174.1220  135.9330 C   0  0  2  0  0  3  0  0  0  0  0  0
  183.3750  178.8890  137.9290 C   0  0  0  0  0  3  0  0  0  0  0  0
  180.5730  176.4400  136.6670 C   0  0  0  0  0  2  0  0  0  0  0  0
  181.5510  175.5790  135.8840 C   0  0  1  0  0  3  0  0  0  0  0  0
  182.3560  173.3040  136.2900 C   0  0  1  0  0  3  0  0  0  0  0  0
  186.1820  175.7230  137.5880 C   0  0  1  0  0  3  0  0  0  0  0  0
  182.8980  175.6430  136.5430 C   0  0  0  0  0  2  0  0  0  0  0  0
  185.6570  176.8180  136.6850 C   0  0  1  0  0  3  0  0  0  0  0  0
  181.8290  173.3090  134.8660 C   0  0  1  0  0  3  0  0  0  0  0  0
  184.4050  173.8650  137.5850 C   0  0  0  0  0  2  0  0  0  0  0  0
  186.3660  177.2010  137.9740 C   0  0  1  0  0  3  0  0  0  0  0  0
  182.4150  178.2170  138.5730 C   0  0  0  0  0  3  0  0  0  0  0  0
  184.7370  179.0600  138.5450 C   0  0  0  0  0  2  0  0  0  0  0  0
  181.0080  177.7690  136.6940 O   0  0  0  0  0  0  0  0  0  0  0  0
  180.9980  178.1320  138.0480 C   0  0  2  0  0  3  0  0  0  0  0  0
  183.5180  174.2690  136.4050 C   0  0  1  0  0  3  0  0  0  0  0  0
  187.7040  175.9460  135.3810 C   0  0  0  0  0  2  0  0  0  0  0  0
  188.9230  176.8470  135.2160 C   0  0  2  0  0  3  0  0  0  0  0  0
  186.4530  179.1730  134.5940 O   0  0  0  0  0  1  0  0  0  0  0  0
  189.0730  178.5980  137.0930 C   0  0  0  0  0  2  0  0  0  0  0  0
  189.5540  177.2260  136.5900 C   0  0  1  0  0  3  0  0  0  0  0  0
  187.6150  178.8990  136.6940 C   0  0  0  0  0  2  0  0  0  0  0  0
  188.4410  178.0200  134.5990 O   0  0  0  0  0  0  0  0  0  0  0  0
  186.5460  176.9330  135.4380 C   0  0  2  0  0  3  0  0  0  0  0  0
  187.2530  178.2850  135.3130 C   0  0  2  0  0  0  0  0  0  0  0  0
  189.3670  176.1590  137.6750 C   0  0  0  0  0  2  0  0  0  0  0  0
  191.3600  177.1010  141.3370 N   0  0  0  0  0  0  0  0  0  0  0  0
  192.0160  177.2260  140.1520 C   0  0  0  0  0  3  0  0  0  0  0  0
  189.3780  176.3750  140.2240 C   0  0  0  0  0  3  0  0  0  0  0  0
  190.0350  176.4800  138.9860 C   0  0  0  0  0  0  0  0  0  0  0  0
  191.3640  176.9180  138.9550 C   0  0  0  0  0  3  0  0  0  0  0  0
  190.0590  176.7090  141.4000 C   0  0  0  0  0  0  0  0  0  0  0  0
  189.3680  176.6070  142.7130 C   0  0  0  0  0  2  0  0  0  0  0  0
  189.9880  178.9590  145.4130 O   0  0  0  0  0  0  0  0  0  0  0  0
  191.1600  176.9210  145.0910 C   0  0  0  0  0  1  0  0  0  0  0  0
  189.4890  177.8710  143.4260 N   0  0  0  0  0  2  0  0  0  0  0  0
  190.2130  177.9830  144.6520 C   0  0  0  0  0  0  0  0  0  0  0  0
  185.5490  179.2220  141.0080 C   0  0  0  0  0  1  0  0  0  0  0  0
  186.0520  177.9620  140.3360 C   0  0  0  0  0  2  0  0  0  0  0  0
  180.2230  171.9970  135.7160 C   0  0  0  0  0  1  0  0  0  0  0  0
  181.0690  172.1680  134.6080 O   0  0  0  0  0  0  0  0  0  0  0  0
  180.2170  179.4500  138.2640 C   0  0  2  0  0  3  0  0  0  0  0  0
  181.5760  181.5550  138.4120 O   0  0  0  0  0  1  0  0  0  0  0  0
  180.9730  180.6980  136.3700 O   0  0  0  0  0  0  0  0  0  0  0  0
  180.9390  180.6020  137.6250 C   0  0  0  0  0  0  0  0  0  0  0  0
  179.9950  179.7490  139.7570 C   0  0  2  0  0  3  0  0  0  0  0  0
  181.2010  179.6940  140.4550 O   0  0  0  0  0  1  0  0  0  0  0  0
  179.0380  178.7390  140.3840 C   0  0  0  0  0  2  0  0  0  0  0  0
  179.4700  177.6300  142.4460 O   0  0  0  0  0  0  0  0  0  0  0  0
  178.9470  179.8550  142.6160 O   0  0  0  0  0  1  0  0  0  0  0  0
  179.2030  178.7150  141.8650 C   0  0  0  0  0  0  0  0  0  0  0  0
  2 41  1  1  0  0  0
  3  7  1  0  0  0  0
  4 15  1  0  0  0  0
  4 14  2  0  0  0  0
  5 16  1  0  0  0  0
  6  3  1  0  0  0  0
  6  9  1  0  0  0  0
  6  5  1  0  0  0  0
  7 18  1  0  0  0  0
  8 13  1  0  0  0  0
  8  1  1  0  0  0  0
 10  8  1  0  0  0  0
 10 13  1  0  0  0  0
 11  3  1  0  0  0  0
 11  7  1  0  0  0  0
 12  1  1  0  0  0  0
 13  2  1  0  0  0  0
 15  2  1  0  0  0  0
 16 17  1  0  0  0  0
 17 44  1  0  0  0  0
 17 14  1  0  0  0  0
 18  9  1  0  0  0  0
 18 12  1  0  0  0  0
 19 26  1  0  0  0  0
 20 19  1  0  0  0  0
 20 23  1  0  0  0  0
 21 27  1  0  0  0  0
 23 22  1  0  0  0  0
 23 28  1  0  0  0  0
 24 22  1  0  0  0  0
 25 20  1  0  0  0  0
 25 27  1  0  0  0  0
 26 10  1  0  0  0  0
 27 26  1  0  0  0  0
 27 24  1  0  0  0  0
 28 32  1  0  0  0  0
 29 34  1  0  0  0  0
 30 29  2  0  0  0  0
 31 34  2  0  0  0  0
 32 31  1  0  0  0  0
 33 32  2  0  0  0  0
 33 30  1  0  0  0  0
 34 35  1  0  0  0  0
 35 38  1  0  0  0  0
 38 39  1  0  0  0  0
 39 37  1  0  0  0  0
 39 36  2  0  0  0  0
 41 40  1  0  0  0  0
 43 11  1  0  0  0  0
 43 42  1  0  0  0  0
 44 48  1  0  0  0  0
 46 47  2  0  0  0  0
 47 44  1  0  0  0  0
 47 45  1  0  0  0  0
 48 50  1  0  0  0  0
 48 49  1  0  0  0  0
 50 53  1  0  0  0  0
 53 51  2  0  0  0  0
 53 52  1  0  0  0  0
M  END
>  <MODEL>
9

>  <REMARK>
 VINA RESULT:      -2.4      3.467      8.571
  Name = 
  12 active torsions:
  status: ('A' for Active; 'I' for Inactive)
    1  A    between atoms: C_4  and  C_52
    2  A    between atoms: C_14  and  C_41
    3  A    between atoms: C_14  and  C_45
    4  A    between atoms: C_14  and  C_48
    5  A    between atoms: N_15  and  C_47
    6  A    between atoms: C_20  and  C_51
    7  A    between atoms: C_25  and  C_35
    8  A    between atoms: C_28  and  O_50
    9  A    between atoms: C_32  and  C_44
   10  A    between atoms: C_37  and  C_51
   11  A    between atoms: C_41  and  C_44
   12  A    between atoms: C_47  and  C_49
                            x       y       z     vdW  Elec       q    Type
                         _______ _______ _______ _____ _____    ______ ____

>  <TORSDO>
F 12

$$$$
