=
 OpenBabel11062411013D

 49 55  0  0  1  0  0  0  0  0999 V2000
  184.4200  178.2720  143.4160 C   0  0  0  0  0  2  0  0  0  0  0  0
  185.4930  177.7300  144.3760 C   0  0  0  0  0  2  0  0  0  0  0  0
  188.5990  178.4870  142.1450 C   0  0  2  0  0  3  0  0  0  0  0  0
  184.8370  178.1170  141.9450 C   0  0  2  0  0  3  0  0  0  0  0  0
  186.8720  178.3400  144.0880 C   0  0  0  0  0  2  0  0  0  0  0  0
  186.2030  178.7790  141.7670 C   0  0  1  0  0  3  0  0  0  0  0  0
  187.2240  178.0540  142.6320 C   0  0  1  0  0  3  0  0  0  0  0  0
  186.6260  178.9630  140.3670 N   0  0  0  0  0  2  0  0  0  0  0  0
  188.8070  177.9980  140.6770 C   0  0  2  0  0  3  0  0  0  0  0  0
  187.5090  177.9360  139.9560 N   0  0  0  0  0  0  0  0  0  0  0  0
  191.1380  177.3260  144.7650 C   0  0  0  0  0  0  0  0  0  0  0  0
  191.9670  178.4500  144.8320 C   0  0  0  0  0  3  0  0  0  0  0  0
  191.7020  179.5730  144.0440 C   0  0  0  0  0  3  0  0  0  0  0  0
  189.7620  178.4610  143.1020 C   0  0  0  0  0  0  0  0  0  0  0  0
  190.0370  177.3380  143.8990 C   0  0  0  0  0  3  0  0  0  0  0  0
  190.6020  179.5770  143.1810 C   0  0  0  0  0  3  0  0  0  0  0  0
  191.6580  176.1820  147.0000 C   0  0  0  0  0  0  0  0  0  0  0  0
  191.9980  174.9050  147.6810 C   0  0  0  0  0  1  0  0  0  0  0  0
  191.4450  176.1870  145.5820 N   0  0  0  0  0  2  0  0  0  0  0  0
  191.5560  177.2360  147.6830 O   0  0  0  0  0  0  0  0  0  0  0  0
  181.3530  178.9970  140.4880 C   0  0  0  0  0  2  0  0  0  0  0  0
  183.7930  178.7030  141.0470 C   0  0  0  0  0  0  0  0  0  0  0  0
  184.1340  179.3680  139.9800 N   0  0  0  0  0  0  0  0  0  0  0  0
  182.4130  178.4460  141.3300 N   0  0  0  0  0  2  0  0  0  0  0  0
  181.8430  179.1750  139.0510 C   0  0  1  0  0  3  0  0  0  0  0  0
  183.1560  179.9620  139.0670 C   0  0  0  0  0  2  0  0  0  0  0  0
  182.0280  177.8310  138.3590 C   0  0  0  0  0  2  0  0  0  0  0  0
  181.1880  176.8270  139.0010 N   0  0  0  0  0  0  0  0  0  0  0  0
  180.8400  175.6930  138.4670 C   0  0  0  0  0  0  0  0  0  0  0  0
  185.6950  172.9560  137.6310 C   0  0  0  0  0  2  0  0  0  0  0  0
  182.6140  173.8180  135.5710 C   0  0  0  0  0  2  0  0  0  0  0  0
  180.5520  175.7300  136.1120 O   0  0  0  0  0  0  0  0  0  0  0  0
  182.3940  174.4980  136.8400 N   0  0  0  0  0  0  0  0  0  0  0  0
  186.4240  173.6290  135.3450 C   0  0  0  0  0  2  0  0  0  0  0  0
  181.2460  175.3260  137.0860 C   0  0  0  0  0  0  0  0  0  0  0  0
  184.2270  173.0880  137.2010 C   0  0  2  0  0  3  0  0  0  0  0  0
  183.9730  173.1410  135.6880 C   0  0  2  0  0  3  0  0  0  0  0  0
  185.0010  174.0120  134.9620 C   0  0  0  0  0  2  0  0  0  0  0  0
  184.2210  175.3710  137.9850 O   0  0  0  0  0  1  0  0  0  0  0  0
  183.4300  174.2280  137.8200 C   0  0  1  0  0  3  0  0  0  0  0  0
  186.6180  173.8720  136.8350 C   0  0  0  0  0  2  0  0  0  0  0  0
  179.9720  174.7880  139.2460 C   0  0  0  0  0  0  0  0  0  0  0  0
  179.7400  173.6220  138.8280 O   0  0  0  0  0  0  0  0  0  0  0  0
  179.4140  175.2050  140.4900 N   0  0  0  0  0  1  0  0  0  0  0  0
  191.0420  176.7090  140.4800 C   0  0  0  0  0  2  0  0  0  0  0  0
  189.5310  176.6500  140.4180 C   0  0  0  0  0  3  0  0  0  0  0  0
  190.3370  176.6180  139.1380 C   0  0  0  0  0  2  0  0  0  0  0  0
  187.7300  178.0950  138.5130 C   0  0  0  0  0  2  0  0  0  0  0  0
  186.4390  177.9800  137.7030 C   0  0  0  0  0  1  0  0  0  0  0  0
  1  2  1  0  0  0  0
  3  7  1  0  0  0  0
  3 14  1  1  0  0  0
  4 22  1  6  0  0  0
  4  1  1  0  0  0  0
  5  2  1  0  0  0  0
  6  8  1  6  0  0  0
  6  4  1  0  0  0  0
  6  7  1  0  0  0  0
  7  5  1  1  0  0  0
  9 46  1  1  0  0  0
  9  3  1  0  0  0  0
 10  8  1  0  0  0  0
 10  9  1  0  0  0  0
 11 12  1  0  0  0  0
 11 19  1  0  0  0  0
 13 12  2  0  0  0  0
 14 16  2  0  0  0  0
 14 15  1  0  0  0  0
 15 11  2  0  0  0  0
 16 13  1  0  0  0  0
 17 18  1  0  0  0  0
 17 20  2  0  0  0  0
 19 17  1  0  0  0  0
 21 24  1  0  0  0  0
 22 24  1  0  0  0  0
 23 22  2  0  0  0  0
 25 27  1  1  0  0  0
 25 26  1  0  0  0  0
 25 21  1  0  0  0  0
 26 23  1  0  0  0  0
 27 28  1  0  0  0  0
 29 28  2  0  0  0  0
 29 42  1  0  0  0  0
 31 37  1  0  0  0  0
 31 33  1  0  0  0  0
 32 35  2  0  0  0  0
 33 35  1  0  0  0  0
 33 40  1  0  0  0  0
 34 41  1  0  0  0  0
 35 29  1  0  0  0  0
 36 30  1  6  0  0  0
 36 40  1  0  0  0  0
 37 38  1  6  0  0  0
 37 36  1  0  0  0  0
 38 34  1  0  0  0  0
 40 39  1  6  0  0  0
 41 30  1  0  0  0  0
 42 44  1  0  0  0  0
 43 42  2  0  0  0  0
 46 45  1  0  0  0  0
 47 46  1  0  0  0  0
 47 45  1  0  0  0  0
 48 10  1  0  0  0  0
 49 48  1  0  0  0  0
M  END
>  <MODEL>
1

>  <REMARK>
 VINA RESULT:      -7.9      0.000      0.000
  Name = 
  9 active torsions:
  status: ('A' for Active; 'I' for Inactive)
    1  A    between atoms: C_1  and  N_27
    2  A    between atoms: C_4  and  N_44
    3  A    between atoms: N_6  and  C_29
    4  A    between atoms: C_7  and  C_21
    5  A    between atoms: C_19  and  C_26
    6  A    between atoms: C_20  and  C_42
    7  A    between atoms: C_24  and  C_42
    8  A    between atoms: C_29  and  C_32
    9  A    between atoms: C_39  and  C_43
                            x       y       z     vdW  Elec       q    Type
                         _______ _______ _______ _____ _____    ______ ____

>  <TORSDO>
F 9

$$$$
=
 OpenBabel11062411013D

 49 55  0  0  1  0  0  0  0  0999 V2000
  190.8890  177.9030  140.9930 C   0  0  0  0  0  2  0  0  0  0  0  0
  191.1950  178.2440  142.4620 C   0  0  0  0  0  2  0  0  0  0  0  0
  187.6320  177.5730  143.8930 C   0  0  2  0  0  3  0  0  0  0  0  0
  189.4300  178.2160  140.6250 C   0  0  2  0  0  3  0  0  0  0  0  0
  190.1920  177.5860  143.4190 C   0  0  0  0  0  2  0  0  0  0  0  0
  188.5240  177.4930  141.6200 C   0  0  1  0  0  3  0  0  0  0  0  0
  188.7900  178.0310  143.0180 C   0  0  1  0  0  3  0  0  0  0  0  0
  187.0970  177.4610  141.2510 N   0  0  0  0  0  2  0  0  0  0  0  0
  186.3090  178.2300  143.3880 C   0  0  2  0  0  3  0  0  0  0  0  0
  186.3680  178.4710  141.9230 N   0  0  0  0  0  0  0  0  0  0  0  0
  189.3130  177.0390  147.2920 C   0  0  0  0  0  0  0  0  0  0  0  0
  188.2040  177.1270  148.1400 C   0  0  0  0  0  3  0  0  0  0  0  0
  186.9280  177.3490  147.6170 C   0  0  0  0  0  3  0  0  0  0  0  0
  187.8510  177.3980  145.3740 C   0  0  0  0  0  0  0  0  0  0  0  0
  189.1290  177.1740  145.9090 C   0  0  0  0  0  3  0  0  0  0  0  0
  186.7530  177.4850  146.2370 C   0  0  0  0  0  3  0  0  0  0  0  0
  191.6970  176.0970  147.2690 C   0  0  0  0  0  0  0  0  0  0  0  0
  192.9690  175.9430  148.0240 C   0  0  0  0  0  1  0  0  0  0  0  0
  190.6100  176.8190  147.8640 N   0  0  0  0  0  2  0  0  0  0  0  0
  191.6010  175.5960  146.1170 O   0  0  0  0  0  0  0  0  0  0  0  0
  188.5400  178.5070  136.8620 C   0  0  0  0  0  2  0  0  0  0  0  0
  189.1590  177.8210  139.2070 C   0  0  0  0  0  0  0  0  0  0  0  0
  189.1580  176.5660  138.8580 N   0  0  0  0  0  0  0  0  0  0  0  0
  188.8120  178.8370  138.2590 N   0  0  0  0  0  2  0  0  0  0  0  0
  187.9750  177.0910  136.7420 C   0  0  1  0  0  3  0  0  0  0  0  0
  188.8980  176.1220  137.4860 C   0  0  0  0  0  2  0  0  0  0  0  0
  186.5570  177.0130  137.2890 C   0  0  0  0  0  2  0  0  0  0  0  0
  186.1630  175.6170  137.4370 N   0  0  0  0  0  0  0  0  0  0  0  0
  185.0260  175.1180  137.0470 C   0  0  0  0  0  0  0  0  0  0  0  0
  181.1240  177.5040  140.3390 C   0  0  0  0  0  2  0  0  0  0  0  0
  182.2620  177.8190  136.7220 C   0  0  0  0  0  2  0  0  0  0  0  0
  183.8990  176.0470  135.1790 O   0  0  0  0  0  0  0  0  0  0  0  0
  183.0510  176.7130  137.2460 N   0  0  0  0  0  0  0  0  0  0  0  0
  179.1130  177.7320  138.8850 C   0  0  0  0  0  2  0  0  0  0  0  0
  183.9710  175.9660  136.4350 C   0  0  0  0  0  0  0  0  0  0  0  0
  182.0300  177.6890  139.1130 C   0  0  2  0  0  3  0  0  0  0  0  0
  181.3560  178.2660  137.8610 C   0  0  2  0  0  3  0  0  0  0  0  0
  179.9680  177.6660  137.6270 C   0  0  0  0  0  2  0  0  0  0  0  0
  182.0970  175.2940  138.8230 O   0  0  0  0  0  1  0  0  0  0  0  0
  182.8300  176.4750  138.6610 C   0  0  1  0  0  3  0  0  0  0  0  0
  179.7720  176.9000  139.9750 C   0  0  0  0  0  2  0  0  0  0  0  0
  184.7750  173.6810  137.2820 C   0  0  0  0  0  0  0  0  0  0  0  0
  183.6980  173.1580  136.8890 O   0  0  0  0  0  0  0  0  0  0  0  0
  185.7530  172.8650  137.9200 N   0  0  0  0  0  1  0  0  0  0  0  0
  184.9020  179.3730  145.2360 C   0  0  0  0  0  2  0  0  0  0  0  0
  185.8160  179.5490  144.0420 C   0  0  0  0  0  3  0  0  0  0  0  0
  184.3300  179.7940  143.8930 C   0  0  0  0  0  2  0  0  0  0  0  0
  185.0100  178.4820  141.3630 C   0  0  0  0  0  2  0  0  0  0  0  0
  184.9250  179.2470  140.0420 C   0  0  0  0  0  1  0  0  0  0  0  0
  1  2  1  0  0  0  0
  2  5  1  0  0  0  0
  3 14  1  1  0  0  0
  4 22  1  6  0  0  0
  4  1  1  0  0  0  0
  4  6  1  0  0  0  0
  6  8  1  6  0  0  0
  6  7  1  0  0  0  0
  7  5  1  1  0  0  0
  7  3  1  0  0  0  0
  8 10  1  0  0  0  0
  9  3  1  0  0  0  0
  9 46  1  1  0  0  0
 10  9  1  0  0  0  0
 11 19  1  0  0  0  0
 11 12  1  0  0  0  0
 13 12  2  0  0  0  0
 14 15  1  0  0  0  0
 14 16  2  0  0  0  0
 15 11  2  0  0  0  0
 16 13  1  0  0  0  0
 17 19  1  0  0  0  0
 17 18  1  0  0  0  0
 20 17  2  0  0  0  0
 21 24  1  0  0  0  0
 23 22  2  0  0  0  0
 24 22  1  0  0  0  0
 25 21  1  0  0  0  0
 25 27  1  1  0  0  0
 25 26  1  0  0  0  0
 26 23  1  0  0  0  0
 27 28  1  0  0  0  0
 29 42  1  0  0  0  0
 29 28  2  0  0  0  0
 31 33  1  0  0  0  0
 32 35  2  0  0  0  0
 33 40  1  0  0  0  0
 34 41  1  0  0  0  0
 35 29  1  0  0  0  0
 35 33  1  0  0  0  0
 36 30  1  1  0  0  0
 37 31  1  6  0  0  0
 37 36  1  0  0  0  0
 38 37  1  0  0  0  0
 38 34  1  0  0  0  0
 40 39  1  6  0  0  0
 40 36  1  0  0  0  0
 41 30  1  0  0  0  0
 42 44  1  0  0  0  0
 43 42  2  0  0  0  0
 46 45  1  0  0  0  0
 47 46  1  0  0  0  0
 47 45  1  0  0  0  0
 48 10  1  0  0  0  0
 49 48  1  0  0  0  0
M  END
>  <MODEL>
2

>  <REMARK>
 VINA RESULT:      -7.6      2.039      5.158
  Name = 
  9 active torsions:
  status: ('A' for Active; 'I' for Inactive)
    1  A    between atoms: C_1  and  N_27
    2  A    between atoms: C_4  and  N_44
    3  A    between atoms: N_6  and  C_29
    4  A    between atoms: C_7  and  C_21
    5  A    between atoms: C_19  and  C_26
    6  A    between atoms: C_20  and  C_42
    7  A    between atoms: C_24  and  C_42
    8  A    between atoms: C_29  and  C_32
    9  A    between atoms: C_39  and  C_43
                            x       y       z     vdW  Elec       q    Type
                         _______ _______ _______ _____ _____    ______ ____

>  <TORSDO>
F 9

$$$$
=
 OpenBabel11062411013D

 49 55  0  0  1  0  0  0  0  0999 V2000
  183.2850  178.6400  143.5920 C   0  0  0  0  0  2  0  0  0  0  0  0
  183.6630  178.0980  144.9820 C   0  0  0  0  0  2  0  0  0  0  0  0
  187.5330  178.2270  144.5410 C   0  0  2  0  0  3  0  0  0  0  0  0
  184.3280  178.2650  142.5290 C   0  0  2  0  0  3  0  0  0  0  0  0
  185.0860  178.5080  145.3840 C   0  0  0  0  0  2  0  0  0  0  0  0
  185.6950  178.7420  143.0170 C   0  0  1  0  0  3  0  0  0  0  0  0
  186.0460  178.0130  144.3060 C   0  0  1  0  0  3  0  0  0  0  0  0
  186.7640  178.7090  142.0010 N   0  0  0  0  0  2  0  0  0  0  0  0
  188.3430  177.5460  143.3920 C   0  0  2  0  0  3  0  0  0  0  0  0
  187.5610  177.5470  142.1280 N   0  0  0  0  0  0  0  0  0  0  0  0
  189.8770  177.7670  147.5340 C   0  0  0  0  0  0  0  0  0  0  0  0
  189.0350  178.1620  148.5800 C   0  0  0  0  0  3  0  0  0  0  0  0
  187.7230  178.5650  148.3180 C   0  0  0  0  0  3  0  0  0  0  0  0
  188.0720  178.1820  145.9480 C   0  0  0  0  0  0  0  0  0  0  0  0
  189.3880  177.7780  146.2210 C   0  0  0  0  0  3  0  0  0  0  0  0
  187.2440  178.5750  147.0040 C   0  0  0  0  0  3  0  0  0  0  0  0
  191.7640  176.0430  147.7400 C   0  0  0  0  0  0  0  0  0  0  0  0
  193.1790  175.8070  148.1260 C   0  0  0  0  0  1  0  0  0  0  0  0
  191.2210  177.3670  147.8380 N   0  0  0  0  0  2  0  0  0  0  0  0
  191.0690  175.0780  147.3250 O   0  0  0  0  0  0  0  0  0  0  0  0
  182.1510  179.4370  139.5420 C   0  0  0  0  0  2  0  0  0  0  0  0
  183.9520  178.8550  141.2060 C   0  0  0  0  0  0  0  0  0  0  0  0
  184.8710  179.2750  140.3830 N   0  0  0  0  0  0  0  0  0  0  0  0
  182.5730  178.8700  140.8200 N   0  0  0  0  0  2  0  0  0  0  0  0
  183.2590  179.2980  138.4970 C   0  0  1  0  0  3  0  0  0  0  0  0
  184.5610  179.8600  139.0760 C   0  0  0  0  0  2  0  0  0  0  0  0
  183.4390  177.8480  138.0710 C   0  0  0  0  0  2  0  0  0  0  0  0
  184.7040  177.6970  137.3630 N   0  0  0  0  0  0  0  0  0  0  0  0
  184.8460  177.1220  136.2040 C   0  0  0  0  0  0  0  0  0  0  0  0
  183.5220  171.7390  137.2220 C   0  0  0  0  0  2  0  0  0  0  0  0
  181.9170  174.6950  135.4430 C   0  0  0  0  0  2  0  0  0  0  0  0
  183.1050  177.1590  134.5940 O   0  0  0  0  0  0  0  0  0  0  0  0
  183.2310  175.1870  135.8330 N   0  0  0  0  0  0  0  0  0  0  0  0
  182.4710  170.9300  135.1130 C   0  0  0  0  0  2  0  0  0  0  0  0
  183.6970  176.5040  135.4950 C   0  0  0  0  0  0  0  0  0  0  0  0
  182.9730  173.1480  136.9530 C   0  0  2  0  0  3  0  0  0  0  0  0
  181.8580  173.2450  135.9030 C   0  0  2  0  0  3  0  0  0  0  0  0
  182.1300  172.3520  134.6900 C   0  0  0  0  0  2  0  0  0  0  0  0
  185.0330  173.7170  135.8320 O   0  0  0  0  0  1  0  0  0  0  0  0
  183.9910  174.2280  136.6140 C   0  0  1  0  0  3  0  0  0  0  0  0
  183.7500  170.9510  135.9380 C   0  0  0  0  0  2  0  0  0  0  0  0
  186.2020  177.0390  135.6250 C   0  0  0  0  0  0  0  0  0  0  0  0
  186.4050  176.3430  134.5940 O   0  0  0  0  0  0  0  0  0  0  0  0
  187.2860  177.7660  136.1980 N   0  0  0  0  0  1  0  0  0  0  0  0
  190.3600  176.0030  143.8870 C   0  0  0  0  0  2  0  0  0  0  0  0
  188.8800  176.1030  143.5890 C   0  0  0  0  0  3  0  0  0  0  0  0
  189.8340  175.6470  142.5080 C   0  0  0  0  0  2  0  0  0  0  0  0
  188.4710  177.5070  140.9770 C   0  0  0  0  0  2  0  0  0  0  0  0
  187.8330  178.0590  139.7020 C   0  0  0  0  0  1  0  0  0  0  0  0
  1  2  1  0  0  0  0
  2  5  1  0  0  0  0
  3 14  1  1  0  0  0
  4 22  1  6  0  0  0
  4  6  1  0  0  0  0
  4  1  1  0  0  0  0
  6  8  1  6  0  0  0
  6  7  1  0  0  0  0
  7  3  1  0  0  0  0
  7  5  1  1  0  0  0
  8 10  1  0  0  0  0
  9 46  1  1  0  0  0
  9  3  1  0  0  0  0
 10  9  1  0  0  0  0
 11 19  1  0  0  0  0
 11 12  1  0  0  0  0
 13 12  2  0  0  0  0
 14 15  1  0  0  0  0
 14 16  2  0  0  0  0
 15 11  2  0  0  0  0
 16 13  1  0  0  0  0
 17 19  1  0  0  0  0
 17 18  1  0  0  0  0
 20 17  2  0  0  0  0
 21 24  1  0  0  0  0
 23 22  2  0  0  0  0
 24 22  1  0  0  0  0
 25 27  1  1  0  0  0
 25 26  1  0  0  0  0
 25 21  1  0  0  0  0
 26 23  1  0  0  0  0
 28 27  1  0  0  0  0
 29 28  2  0  0  0  0
 31 33  1  0  0  0  0
 31 37  1  0  0  0  0
 32 35  2  0  0  0  0
 33 40  1  0  0  0  0
 34 41  1  0  0  0  0
 35 33  1  0  0  0  0
 35 29  1  0  0  0  0
 36 30  1  6  0  0  0
 37 38  1  6  0  0  0
 37 36  1  0  0  0  0
 38 34  1  0  0  0  0
 40 39  1  6  0  0  0
 40 36  1  0  0  0  0
 41 30  1  0  0  0  0
 42 44  1  0  0  0  0
 42 29  1  0  0  0  0
 43 42  2  0  0  0  0
 46 45  1  0  0  0  0
 47 46  1  0  0  0  0
 47 45  1  0  0  0  0
 48 10  1  0  0  0  0
 49 48  1  0  0  0  0
M  END
>  <MODEL>
3

>  <REMARK>
 VINA RESULT:      -7.3      2.271      3.423
  Name = 
  9 active torsions:
  status: ('A' for Active; 'I' for Inactive)
    1  A    between atoms: C_1  and  N_27
    2  A    between atoms: C_4  and  N_44
    3  A    between atoms: N_6  and  C_29
    4  A    between atoms: C_7  and  C_21
    5  A    between atoms: C_19  and  C_26
    6  A    between atoms: C_20  and  C_42
    7  A    between atoms: C_24  and  C_42
    8  A    between atoms: C_29  and  C_32
    9  A    between atoms: C_39  and  C_43
                            x       y       z     vdW  Elec       q    Type
                         _______ _______ _______ _____ _____    ______ ____

>  <TORSDO>
F 9

$$$$
=
 OpenBabel11062411013D

 49 55  0  0  1  0  0  0  0  0999 V2000
  182.5820  178.7320  143.2690 C   0  0  0  0  0  2  0  0  0  0  0  0
  182.9560  178.0890  144.6160 C   0  0  0  0  0  2  0  0  0  0  0  0
  186.8260  178.4110  144.2740 C   0  0  2  0  0  3  0  0  0  0  0  0
  183.6600  178.4920  142.2010 C   0  0  2  0  0  3  0  0  0  0  0  0
  184.3540  178.5200  145.0820 C   0  0  0  0  0  2  0  0  0  0  0  0
  184.9970  178.9800  142.7580 C   0  0  1  0  0  3  0  0  0  0  0  0
  185.3530  178.1590  143.9890 C   0  0  1  0  0  3  0  0  0  0  0  0
  186.0850  179.0780  141.7670 N   0  0  0  0  0  2  0  0  0  0  0  0
  187.6850  177.8650  143.0900 C   0  0  2  0  0  3  0  0  0  0  0  0
  186.9280  177.9420  141.8140 N   0  0  0  0  0  0  0  0  0  0  0  0
  188.9130  177.3480  147.3030 C   0  0  0  0  0  0  0  0  0  0  0  0
  188.2790  178.0740  148.3170 C   0  0  0  0  0  3  0  0  0  0  0  0
  187.1850  178.8920  148.0230 C   0  0  0  0  0  3  0  0  0  0  0  0
  187.3390  178.2680  145.6840 C   0  0  0  0  0  0  0  0  0  0  0  0
  188.4370  177.4480  145.9890 C   0  0  0  0  0  3  0  0  0  0  0  0
  186.7170  178.9880  146.7090 C   0  0  0  0  0  3  0  0  0  0  0  0
  191.3580  176.6100  147.0810 C   0  0  0  0  0  0  0  0  0  0  0  0
  192.4010  175.6500  147.5290 C   0  0  0  0  0  1  0  0  0  0  0  0
  190.0390  176.5250  147.6380 N   0  0  0  0  0  2  0  0  0  0  0  0
  191.6540  177.4850  146.2250 O   0  0  0  0  0  0  0  0  0  0  0  0
  181.4770  180.0070  139.3780 C   0  0  0  0  0  2  0  0  0  0  0  0
  183.2850  179.1780  140.9250 C   0  0  0  0  0  0  0  0  0  0  0  0
  184.2020  179.5480  140.0770 N   0  0  0  0  0  0  0  0  0  0  0  0
  181.8980  179.3420  140.6080 N   0  0  0  0  0  2  0  0  0  0  0  0
  182.5180  179.8150  138.2750 C   0  0  1  0  0  3  0  0  0  0  0  0
  183.8930  180.2210  138.8140 C   0  0  0  0  0  2  0  0  0  0  0  0
  182.5380  178.3760  137.7780 C   0  0  0  0  0  2  0  0  0  0  0  0
  181.4830  177.6140  138.4350 N   0  0  0  0  0  0  0  0  0  0  0  0
  180.9610  176.5130  137.9760 C   0  0  0  0  0  0  0  0  0  0  0  0
  185.3220  172.9490  137.7770 C   0  0  0  0  0  2  0  0  0  0  0  0
  182.5570  174.0730  135.4170 C   0  0  0  0  0  2  0  0  0  0  0  0
  180.8210  176.3430  135.6140 O   0  0  0  0  0  0  0  0  0  0  0  0
  182.3820  174.9140  136.5940 N   0  0  0  0  0  0  0  0  0  0  0  0
  186.2850  173.2440  135.4980 C   0  0  0  0  0  2  0  0  0  0  0  0
  181.3780  175.9380  136.6720 C   0  0  0  0  0  0  0  0  0  0  0  0
  183.9250  173.2710  137.2260 C   0  0  2  0  0  3  0  0  0  0  0  0
  183.7720  173.2010  135.7010 C   0  0  2  0  0  3  0  0  0  0  0  0
  184.9730  173.8090  134.9730 C   0  0  0  0  0  2  0  0  0  0  0  0
  184.2610  175.5950  137.7830 O   0  0  0  0  0  1  0  0  0  0  0  0
  183.2990  174.5850  137.6710 C   0  0  1  0  0  3  0  0  0  0  0  0
  186.4310  173.6110  136.9670 C   0  0  0  0  0  2  0  0  0  0  0  0
  179.8880  175.8670  138.7590 C   0  0  0  0  0  0  0  0  0  0  0  0
  179.6000  174.6580  138.5540 O   0  0  0  0  0  0  0  0  0  0  0  0
  179.1910  176.5870  139.7720 N   0  0  0  0  0  1  0  0  0  0  0  0
  189.7200  176.3600  143.6310 C   0  0  0  0  0  2  0  0  0  0  0  0
  188.2790  176.4330  143.1760 C   0  0  0  0  0  3  0  0  0  0  0  0
  189.3720  176.1570  142.1670 C   0  0  0  0  0  2  0  0  0  0  0  0
  187.8610  178.0390  140.6840 C   0  0  0  0  0  2  0  0  0  0  0  0
  187.1490  178.0420  139.3310 C   0  0  0  0  0  1  0  0  0  0  0  0
  1  2  1  0  0  0  0
  2  5  1  0  0  0  0
  3 14  1  1  0  0  0
  4 22  1  6  0  0  0
  4  6  1  0  0  0  0
  4  1  1  0  0  0  0
  6  8  1  6  0  0  0
  6  7  1  0  0  0  0
  7  3  1  0  0  0  0
  7  5  1  1  0  0  0
  8 10  1  0  0  0  0
  9 46  1  1  0  0  0
  9  3  1  0  0  0  0
 10  9  1  0  0  0  0
 11 19  1  0  0  0  0
 11 12  1  0  0  0  0
 13 12  2  0  0  0  0
 14 15  1  0  0  0  0
 14 16  2  0  0  0  0
 15 11  2  0  0  0  0
 16 13  1  0  0  0  0
 17 18  1  0  0  0  0
 17 19  1  0  0  0  0
 20 17  2  0  0  0  0
 21 24  1  0  0  0  0
 23 22  2  0  0  0  0
 24 22  1  0  0  0  0
 25 27  1  1  0  0  0
 25 26  1  0  0  0  0
 25 21  1  0  0  0  0
 26 23  1  0  0  0  0
 27 28  1  0  0  0  0
 29 28  2  0  0  0  0
 29 42  1  0  0  0  0
 31 37  1  0  0  0  0
 31 33  1  0  0  0  0
 32 35  2  0  0  0  0
 33 35  1  0  0  0  0
 33 40  1  0  0  0  0
 34 41  1  0  0  0  0
 35 29  1  0  0  0  0
 36 40  1  0  0  0  0
 36 30  1  6  0  0  0
 37 38  1  6  0  0  0
 37 36  1  0  0  0  0
 38 34  1  0  0  0  0
 40 39  1  6  0  0  0
 41 30  1  0  0  0  0
 42 44  1  0  0  0  0
 43 42  2  0  0  0  0
 46 45  1  0  0  0  0
 47 46  1  0  0  0  0
 47 45  1  0  0  0  0
 48 10  1  0  0  0  0
 49 48  1  0  0  0  0
M  END
>  <MODEL>
4

>  <REMARK>
 VINA RESULT:      -7.3      1.511      2.190
  Name = 
  9 active torsions:
  status: ('A' for Active; 'I' for Inactive)
    1  A    between atoms: C_1  and  N_27
    2  A    between atoms: C_4  and  N_44
    3  A    between atoms: N_6  and  C_29
    4  A    between atoms: C_7  and  C_21
    5  A    between atoms: C_19  and  C_26
    6  A    between atoms: C_20  and  C_42
    7  A    between atoms: C_24  and  C_42
    8  A    between atoms: C_29  and  C_32
    9  A    between atoms: C_39  and  C_43
                            x       y       z     vdW  Elec       q    Type
                         _______ _______ _______ _____ _____    ______ ____

>  <TORSDO>
F 9

$$$$
=
 OpenBabel11062411013D

 49 55  0  0  1  0  0  0  0  0999 V2000
  190.4370  178.0500  140.8550 C   0  0  0  0  0  2  0  0  0  0  0  0
  190.8100  178.4200  142.3010 C   0  0  0  0  0  2  0  0  0  0  0  0
  187.3630  177.6240  143.9360 C   0  0  2  0  0  3  0  0  0  0  0  0
  188.9490  178.3000  140.5660 C   0  0  2  0  0  3  0  0  0  0  0  0
  189.8890  177.7330  143.3190 C   0  0  0  0  0  2  0  0  0  0  0  0
  188.1290  177.5530  141.6170 C   0  0  1  0  0  3  0  0  0  0  0  0
  188.4500  178.1180  142.9940 C   0  0  1  0  0  3  0  0  0  0  0  0
  186.6860  177.4600  141.3290 N   0  0  0  0  0  2  0  0  0  0  0  0
  185.9880  178.2220  143.5000 C   0  0  2  0  0  3  0  0  0  0  0  0
  185.9550  178.4480  142.0320 N   0  0  0  0  0  0  0  0  0  0  0  0
  189.1290  176.7590  147.2210 C   0  0  0  0  0  0  0  0  0  0  0  0
  188.2110  177.2670  148.1460 C   0  0  0  0  0  3  0  0  0  0  0  0
  187.0310  177.8750  147.7100 C   0  0  0  0  0  3  0  0  0  0  0  0
  187.6700  177.4750  145.4040 C   0  0  0  0  0  0  0  0  0  0  0  0
  188.8520  176.8650  145.8520 C   0  0  0  0  0  3  0  0  0  0  0  0
  186.7620  177.9790  146.3410 C   0  0  0  0  0  3  0  0  0  0  0  0
  191.6640  176.3730  147.2120 C   0  0  0  0  0  0  0  0  0  0  0  0
  192.7990  175.6260  147.8160 C   0  0  0  0  0  1  0  0  0  0  0  0
  190.3350  176.1490  147.7030 N   0  0  0  0  0  2  0  0  0  0  0  0
  191.8910  177.1940  146.2850 O   0  0  0  0  0  0  0  0  0  0  0  0
  187.8980  178.5200  136.8410 C   0  0  0  0  0  2  0  0  0  0  0  0
  188.6150  177.8790  139.1700 C   0  0  0  0  0  0  0  0  0  0  0  0
  188.5950  176.6170  138.8460 N   0  0  0  0  0  0  0  0  0  0  0  0
  188.2310  178.8770  138.2180 N   0  0  0  0  0  2  0  0  0  0  0  0
  187.3240  177.1050  136.7730 C   0  0  1  0  0  3  0  0  0  0  0  0
  188.2750  176.1470  137.4960 C   0  0  0  0  0  2  0  0  0  0  0  0
  185.9300  177.0440  137.3820 C   0  0  0  0  0  2  0  0  0  0  0  0
  184.9320  176.9740  136.3210 N   0  0  0  0  0  0  0  0  0  0  0  0
  183.6630  176.7520  136.5050 C   0  0  0  0  0  0  0  0  0  0  0  0
  179.7100  180.1920  138.5770 C   0  0  0  0  0  2  0  0  0  0  0  0
  181.1880  176.8070  139.4910 C   0  0  0  0  0  2  0  0  0  0  0  0
  183.6030  175.5780  138.5650 O   0  0  0  0  0  0  0  0  0  0  0  0
  181.9930  177.2520  138.3620 N   0  0  0  0  0  0  0  0  0  0  0  0
  180.0040  180.0890  141.0490 C   0  0  0  0  0  2  0  0  0  0  0  0
  183.1040  176.4950  137.8570 C   0  0  0  0  0  0  0  0  0  0  0  0
  180.1860  178.7370  138.4610 C   0  0  2  0  0  3  0  0  0  0  0  0
  180.1930  177.9270  139.7640 C   0  0  2  0  0  3  0  0  0  0  0  0
  180.7130  178.7450  140.9480 C   0  0  0  0  0  2  0  0  0  0  0  0
  182.4430  179.5210  138.1200 O   0  0  0  0  0  1  0  0  0  0  0  0
  181.5350  178.5070  137.7940 C   0  0  1  0  0  3  0  0  0  0  0  0
  180.2960  180.8990  139.7940 C   0  0  0  0  0  2  0  0  0  0  0  0
  182.7830  176.6990  135.3200 C   0  0  0  0  0  0  0  0  0  0  0  0
  182.6370  177.7210  134.5980 O   0  0  0  0  0  0  0  0  0  0  0  0
  182.1170  175.4920  134.9600 N   0  0  0  0  0  1  0  0  0  0  0  0
  184.4890  179.3300  145.2970 C   0  0  0  0  0  2  0  0  0  0  0  0
  185.4790  179.5280  144.1690 C   0  0  0  0  0  3  0  0  0  0  0  0
  184.0100  179.8070  143.9370 C   0  0  0  0  0  2  0  0  0  0  0  0
  184.5690  178.3990  141.5490 C   0  0  0  0  0  2  0  0  0  0  0  0
  184.3930  179.0880  140.1950 C   0  0  0  0  0  1  0  0  0  0  0  0
  1  2  1  0  0  0  0
  2  5  1  0  0  0  0
  3 14  1  1  0  0  0
  4 22  1  6  0  0  0
  4  1  1  0  0  0  0
  4  6  1  0  0  0  0
  6  8  1  6  0  0  0
  6  7  1  0  0  0  0
  7  5  1  1  0  0  0
  7  3  1  0  0  0  0
  8 10  1  0  0  0  0
  9  3  1  0  0  0  0
  9 46  1  1  0  0  0
 10  9  1  0  0  0  0
 11 19  1  0  0  0  0
 11 12  1  0  0  0  0
 13 12  2  0  0  0  0
 14 15  1  0  0  0  0
 14 16  2  0  0  0  0
 15 11  2  0  0  0  0
 16 13  1  0  0  0  0
 17 19  1  0  0  0  0
 17 18  1  0  0  0  0
 20 17  2  0  0  0  0
 21 24  1  0  0  0  0
 23 22  2  0  0  0  0
 24 22  1  0  0  0  0
 25 21  1  0  0  0  0
 25 27  1  1  0  0  0
 25 26  1  0  0  0  0
 26 23  1  0  0  0  0
 28 29  2  0  0  0  0
 28 27  1  0  0  0  0
 29 35  1  0  0  0  0
 30 41  1  0  0  0  0
 33 31  1  0  0  0  0
 35 33  1  0  0  0  0
 35 32  2  0  0  0  0
 36 30  1  1  0  0  0
 36 37  1  0  0  0  0
 37 31  1  6  0  0  0
 37 38  1  0  0  0  0
 38 34  1  0  0  0  0
 40 39  1  1  0  0  0
 40 33  1  0  0  0  0
 40 36  1  0  0  0  0
 41 34  1  0  0  0  0
 42 29  1  0  0  0  0
 43 42  2  0  0  0  0
 44 42  1  0  0  0  0
 46 45  1  0  0  0  0
 47 46  1  0  0  0  0
 47 45  1  0  0  0  0
 48 10  1  0  0  0  0
 49 48  1  0  0  0  0
M  END
>  <MODEL>
5

>  <REMARK>
 VINA RESULT:      -7.2      2.218      5.472
  Name = 
  9 active torsions:
  status: ('A' for Active; 'I' for Inactive)
    1  A    between atoms: C_1  and  N_27
    2  A    between atoms: C_4  and  N_44
    3  A    between atoms: N_6  and  C_29
    4  A    between atoms: C_7  and  C_21
    5  A    between atoms: C_19  and  C_26
    6  A    between atoms: C_20  and  C_42
    7  A    between atoms: C_24  and  C_42
    8  A    between atoms: C_29  and  C_32
    9  A    between atoms: C_39  and  C_43
                            x       y       z     vdW  Elec       q    Type
                         _______ _______ _______ _____ _____    ______ ____

>  <TORSDO>
F 9

$$$$
=
 OpenBabel11062411013D

 49 55  0  0  1  0  0  0  0  0999 V2000
  183.9420  178.5780  142.9290 C   0  0  0  0  0  2  0  0  0  0  0  0
  184.8860  177.9110  143.9450 C   0  0  0  0  0  2  0  0  0  0  0  0
  188.2070  178.4390  141.9750 C   0  0  2  0  0  3  0  0  0  0  0  0
  184.4530  178.4270  141.4880 C   0  0  2  0  0  3  0  0  0  0  0  0
  186.3320  178.3970  143.7810 C   0  0  0  0  0  2  0  0  0  0  0  0
  185.8830  178.9640  141.4340 C   0  0  1  0  0  3  0  0  0  0  0  0
  186.7660  178.1220  142.3450 C   0  0  1  0  0  3  0  0  0  0  0  0
  186.4270  179.1480  140.0760 N   0  0  0  0  0  2  0  0  0  0  0  0
  188.4810  177.9750  140.5090 C   0  0  2  0  0  3  0  0  0  0  0  0
  187.2410  178.0560  139.6940 N   0  0  0  0  0  0  0  0  0  0  0  0
  190.0040  177.9730  145.3240 C   0  0  0  0  0  0  0  0  0  0  0  0
  191.3350  177.9320  144.8950 C   0  0  0  0  0  3  0  0  0  0  0  0
  191.6460  178.0610  143.5390 C   0  0  0  0  0  3  0  0  0  0  0  0
  189.2880  178.2770  143.0130 C   0  0  0  0  0  0  0  0  0  0  0  0
  188.9860  178.1470  144.3780 C   0  0  0  0  0  3  0  0  0  0  0  0
  190.6240  178.2320  142.6010 C   0  0  0  0  0  3  0  0  0  0  0  0
  188.4230  177.7710  147.3320 C   0  0  0  0  0  0  0  0  0  0  0  0
  188.3180  177.6480  148.8090 C   0  0  0  0  0  1  0  0  0  0  0  0
  189.7200  177.8290  146.7230 N   0  0  0  0  0  2  0  0  0  0  0  0
  187.3710  177.8150  146.6410 O   0  0  0  0  0  0  0  0  0  0  0  0
  181.1850  179.6830  139.8230 C   0  0  0  0  0  2  0  0  0  0  0  0
  183.5380  179.1340  140.5380 C   0  0  0  0  0  0  0  0  0  0  0  0
  184.0180  179.7840  139.5160 N   0  0  0  0  0  0  0  0  0  0  0  0
  182.1230  179.0110  140.7190 N   0  0  0  0  0  2  0  0  0  0  0  0
  181.7900  179.8410  138.4280 C   0  0  1  0  0  3  0  0  0  0  0  0
  183.1700  180.4920  138.5550 C   0  0  0  0  0  2  0  0  0  0  0  0
  181.8900  178.5010  137.7130 C   0  0  0  0  0  2  0  0  0  0  0  0
  180.7300  177.6810  138.0400 N   0  0  0  0  0  0  0  0  0  0  0  0
  180.7830  176.4740  138.5240 C   0  0  0  0  0  0  0  0  0  0  0  0
  182.7740  172.9540  134.5990 C   0  0  0  0  0  2  0  0  0  0  0  0
  184.0990  174.6140  137.7560 C   0  0  0  0  0  2  0  0  0  0  0  0
  182.6540  175.9040  139.8650 O   0  0  0  0  0  0  0  0  0  0  0  0
  182.6940  174.9960  137.7180 N   0  0  0  0  0  0  0  0  0  0  0  0
  184.1420  171.2970  135.8610 C   0  0  0  0  0  2  0  0  0  0  0  0
  182.0770  175.7810  138.7500 C   0  0  0  0  0  0  0  0  0  0  0  0
  183.1340  174.0340  135.6300 C   0  0  2  0  0  3  0  0  0  0  0  0
  184.3230  173.7170  136.5460 C   0  0  2  0  0  3  0  0  0  0  0  0
  184.3110  172.2640  137.0250 C   0  0  0  0  0  2  0  0  0  0  0  0
  181.1380  173.4880  136.8720 O   0  0  0  0  0  1  0  0  0  0  0  0
  182.0080  174.5290  136.5270 C   0  0  1  0  0  3  0  0  0  0  0  0
  182.7970  171.5510  135.1970 C   0  0  0  0  0  2  0  0  0  0  0  0
  179.5120  175.7700  138.7910 C   0  0  0  0  0  0  0  0  0  0  0  0
  178.9310  175.1450  137.8640 O   0  0  0  0  0  0  0  0  0  0  0  0
  178.9450  175.7600  140.0990 N   0  0  0  0  0  1  0  0  0  0  0  0
  190.5960  176.5580  140.0490 C   0  0  0  0  0  2  0  0  0  0  0  0
  189.0970  176.5730  140.2560 C   0  0  0  0  0  3  0  0  0  0  0  0
  189.6610  176.3900  138.8640 C   0  0  0  0  0  2  0  0  0  0  0  0
  187.5850  178.2350  138.2770 C   0  0  0  0  0  2  0  0  0  0  0  0
  186.3750  178.0890  137.3540 C   0  0  0  0  0  1  0  0  0  0  0  0
  1  2  1  0  0  0  0
  3  7  1  0  0  0  0
  3 14  1  1  0  0  0
  4 22  1  6  0  0  0
  4  1  1  0  0  0  0
  5  2  1  0  0  0  0
  6  8  1  6  0  0  0
  6  4  1  0  0  0  0
  6  7  1  0  0  0  0
  7  5  1  1  0  0  0
  9 46  1  1  0  0  0
  9  3  1  0  0  0  0
 10  8  1  0  0  0  0
 10  9  1  0  0  0  0
 11 19  1  0  0  0  0
 12 11  1  0  0  0  0
 13 12  2  0  0  0  0
 14 15  1  0  0  0  0
 15 11  2  0  0  0  0
 16 14  2  0  0  0  0
 16 13  1  0  0  0  0
 17 18  1  0  0  0  0
 19 17  1  0  0  0  0
 20 17  2  0  0  0  0
 21 24  1  0  0  0  0
 22 24  1  0  0  0  0
 23 22  2  0  0  0  0
 25 27  1  1  0  0  0
 25 26  1  0  0  0  0
 25 21  1  0  0  0  0
 26 23  1  0  0  0  0
 27 28  1  0  0  0  0
 28 29  2  0  0  0  0
 29 35  1  0  0  0  0
 29 42  1  0  0  0  0
 30 41  1  0  0  0  0
 33 31  1  0  0  0  0
 33 35  1  0  0  0  0
 34 38  1  0  0  0  0
 35 32  2  0  0  0  0
 36 30  1  1  0  0  0
 36 40  1  0  0  0  0
 36 37  1  0  0  0  0
 37 38  1  1  0  0  0
 37 31  1  0  0  0  0
 40 39  1  1  0  0  0
 40 33  1  0  0  0  0
 41 34  1  0  0  0  0
 42 44  1  0  0  0  0
 43 42  2  0  0  0  0
 45 46  1  0  0  0  0
 47 45  1  0  0  0  0
 47 46  1  0  0  0  0
 48 10  1  0  0  0  0
 49 48  1  0  0  0  0
M  END
>  <MODEL>
6

>  <REMARK>
 VINA RESULT:      -6.8      1.509      2.034
  Name = 
  9 active torsions:
  status: ('A' for Active; 'I' for Inactive)
    1  A    between atoms: C_1  and  N_27
    2  A    between atoms: C_4  and  N_44
    3  A    between atoms: N_6  and  C_29
    4  A    between atoms: C_7  and  C_21
    5  A    between atoms: C_19  and  C_26
    6  A    between atoms: C_20  and  C_42
    7  A    between atoms: C_24  and  C_42
    8  A    between atoms: C_29  and  C_32
    9  A    between atoms: C_39  and  C_43
                            x       y       z     vdW  Elec       q    Type
                         _______ _______ _______ _____ _____    ______ ____

>  <TORSDO>
F 9

$$$$
=
 OpenBabel11062411013D

 49 55  0  0  1  0  0  0  0  0999 V2000
  186.9070  178.7690  139.9670 C   0  0  0  0  0  2  0  0  0  0  0  0
  188.4010  178.7430  140.3350 C   0  0  0  0  0  2  0  0  0  0  0  0
  188.0300  177.0910  143.8460 C   0  0  2  0  0  3  0  0  0  0  0  0
  186.0140  178.9100  141.2090 C   0  0  2  0  0  3  0  0  0  0  0  0
  188.7050  177.6820  141.4020 C   0  0  0  0  0  2  0  0  0  0  0  0
  186.3810  177.7950  142.1860 C   0  0  1  0  0  3  0  0  0  0  0  0
  187.8300  177.9670  142.6180 C   0  0  1  0  0  3  0  0  0  0  0  0
  185.4390  177.6160  143.3070 N   0  0  0  0  0  2  0  0  0  0  0  0
  187.1350  177.6200  145.0110 C   0  0  2  0  0  3  0  0  0  0  0  0
  185.9040  178.2590  144.4790 N   0  0  0  0  0  0  0  0  0  0  0  0
  191.3660  176.4120  145.5990 C   0  0  0  0  0  0  0  0  0  0  0  0
  191.9420  175.5020  144.7060 C   0  0  0  0  0  3  0  0  0  0  0  0
  191.2610  175.1200  143.5470 C   0  0  0  0  0  3  0  0  0  0  0  0
  189.4050  176.5590  144.1560 C   0  0  0  0  0  0  0  0  0  0  0  0
  190.0980  176.9370  145.3170 C   0  0  0  0  0  3  0  0  0  0  0  0
  189.9960  175.6480  143.2740 C   0  0  0  0  0  3  0  0  0  0  0  0
  192.2060  176.0040  147.9860 C   0  0  0  0  0  0  0  0  0  0  0  0
  192.9760  176.5540  149.1320 C   0  0  0  0  0  1  0  0  0  0  0  0
  192.0890  176.7760  146.7830 N   0  0  0  0  0  2  0  0  0  0  0  0
  191.6760  174.8660  148.0900 O   0  0  0  0  0  0  0  0  0  0  0  0
  182.2490  177.9870  141.2200 C   0  0  0  0  0  2  0  0  0  0  0  0
  184.5710  178.8780  140.8140 C   0  0  0  0  0  0  0  0  0  0  0  0
  184.1570  179.5250  139.7620 N   0  0  0  0  0  0  0  0  0  0  0  0
  183.6680  178.0530  141.5590 N   0  0  0  0  0  2  0  0  0  0  0  0
  182.0390  178.2340  139.7260 C   0  0  1  0  0  3  0  0  0  0  0  0
  182.7570  179.5280  139.3300 C   0  0  0  0  0  2  0  0  0  0  0  0
  182.5410  177.0620  138.8950 C   0  0  0  0  0  2  0  0  0  0  0  0
  182.0370  177.1740  137.5310 N   0  0  0  0  0  0  0  0  0  0  0  0
  182.4440  176.4570  136.5250 C   0  0  0  0  0  0  0  0  0  0  0  0
  187.8100  178.0790  135.9490 C   0  0  0  0  0  2  0  0  0  0  0  0
  185.9720  174.9840  137.1820 C   0  0  0  0  0  2  0  0  0  0  0  0
  183.2320  174.2380  136.8090 O   0  0  0  0  0  0  0  0  0  0  0  0
  184.9130  175.8500  136.6820 N   0  0  0  0  0  0  0  0  0  0  0  0
  189.0040  176.0550  135.1190 C   0  0  0  0  0  2  0  0  0  0  0  0
  183.5310  175.4560  136.6700 C   0  0  0  0  0  0  0  0  0  0  0  0
  186.8360  177.1830  136.7270 C   0  0  2  0  0  3  0  0  0  0  0  0
  187.2760  175.7270  136.9260 C   0  0  2  0  0  3  0  0  0  0  0  0
  187.9170  175.1410  135.6660 C   0  0  0  0  0  2  0  0  0  0  0  0
  185.3360  177.2010  134.8370 O   0  0  0  0  0  1  0  0  0  0  0  0
  185.3960  177.1430  136.2340 C   0  0  1  0  0  3  0  0  0  0  0  0
  188.3800  177.3830  134.7170 C   0  0  0  0  0  2  0  0  0  0  0  0
  181.8380  176.7020  135.2000 C   0  0  0  0  0  0  0  0  0  0  0  0
  181.2300  175.7730  134.6040 O   0  0  0  0  0  0  0  0  0  0  0  0
  181.9030  177.9910  134.5960 N   0  0  0  0  0  1  0  0  0  0  0  0
  188.3560  177.9480  147.2690 C   0  0  0  0  0  2  0  0  0  0  0  0
  187.7390  178.6010  146.0510 C   0  0  0  0  0  3  0  0  0  0  0  0
  187.0030  178.6300  147.3730 C   0  0  0  0  0  2  0  0  0  0  0  0
  184.8300  178.1860  145.4780 C   0  0  0  0  0  2  0  0  0  0  0  0
  183.5970  178.9960  145.0780 C   0  0  0  0  0  1  0  0  0  0  0  0
  1  2  1  0  0  0  0
  1  4  1  0  0  0  0
  2  5  1  0  0  0  0
  3 14  1  1  0  0  0
  3  9  1  0  0  0  0
  4 22  1  6  0  0  0
  4  6  1  0  0  0  0
  6  7  1  0  0  0  0
  6  8  1  1  0  0  0
  7  5  1  6  0  0  0
  7  3  1  0  0  0  0
  8 10  1  0  0  0  0
  9 46  1  6  0  0  0
 10  9  1  0  0  0  0
 10 48  1  0  0  0  0
 11 19  1  0  0  0  0
 12 11  2  0  0  0  0
 13 12  1  0  0  0  0
 14 15  2  0  0  0  0
 15 11  1  0  0  0  0
 16 13  2  0  0  0  0
 16 14  1  0  0  0  0
 17 20  2  0  0  0  0
 17 18  1  0  0  0  0
 19 17  1  0  0  0  0
 21 24  1  0  0  0  0
 22 24  1  0  0  0  0
 23 22  2  0  0  0  0
 25 27  1  6  0  0  0
 25 21  1  0  0  0  0
 26 25  1  0  0  0  0
 26 23  1  0  0  0  0
 28 27  1  0  0  0  0
 29 35  1  0  0  0  0
 29 28  2  0  0  0  0
 33 31  1  0  0  0  0
 34 38  1  0  0  0  0
 35 33  1  0  0  0  0
 35 32  2  0  0  0  0
 36 30  1  6  0  0  0
 36 37  1  0  0  0  0
 37 38  1  6  0  0  0
 37 31  1  0  0  0  0
 40 39  1  6  0  0  0
 40 33  1  0  0  0  0
 40 36  1  0  0  0  0
 41 34  1  0  0  0  0
 41 30  1  0  0  0  0
 42 29  1  0  0  0  0
 43 42  2  0  0  0  0
 44 42  1  0  0  0  0
 45 47  1  0  0  0  0
 46 45  1  0  0  0  0
 46 47  1  0  0  0  0
 49 48  1  0  0  0  0
M  END
>  <MODEL>
7

>  <REMARK>
 VINA RESULT:      -6.8      2.133      4.012
  Name = 
  9 active torsions:
  status: ('A' for Active; 'I' for Inactive)
    1  A    between atoms: C_1  and  N_27
    2  A    between atoms: C_4  and  N_44
    3  A    between atoms: N_6  and  C_29
    4  A    between atoms: C_7  and  C_21
    5  A    between atoms: C_19  and  C_26
    6  A    between atoms: C_20  and  C_42
    7  A    between atoms: C_24  and  C_42
    8  A    between atoms: C_29  and  C_32
    9  A    between atoms: C_39  and  C_43
                            x       y       z     vdW  Elec       q    Type
                         _______ _______ _______ _____ _____    ______ ____

>  <TORSDO>
F 9

$$$$
=
 OpenBabel11062411013D

 49 55  0  0  1  0  0  0  0  0999 V2000
  187.5370  178.8910  140.2730 C   0  0  0  0  0  2  0  0  0  0  0  0
  188.9680  178.9330  140.8360 C   0  0  0  0  0  2  0  0  0  0  0  0
  188.2170  177.2310  144.2610 C   0  0  2  0  0  3  0  0  0  0  0  0
  186.4810  178.9770  141.3860 C   0  0  2  0  0  3  0  0  0  0  0  0
  189.1800  177.8780  141.9300 C   0  0  0  0  0  2  0  0  0  0  0  0
  186.7700  177.8700  142.4000 C   0  0  1  0  0  3  0  0  0  0  0  0
  188.1390  178.1080  143.0210 C   0  0  1  0  0  3  0  0  0  0  0  0
  185.6980  177.6350  143.3850 N   0  0  0  0  0  2  0  0  0  0  0  0
  187.1510  177.7040  145.2990 C   0  0  2  0  0  3  0  0  0  0  0  0
  185.9710  178.2880  144.6100 N   0  0  0  0  0  0  0  0  0  0  0  0
  191.2960  176.6500  146.4620 C   0  0  0  0  0  0  0  0  0  0  0  0
  192.0560  175.8270  145.6240 C   0  0  0  0  0  3  0  0  0  0  0  0
  191.5800  175.4710  144.3600 C   0  0  0  0  0  3  0  0  0  0  0  0
  189.5640  176.7630  144.7490 C   0  0  0  0  0  0  0  0  0  0  0  0
  190.0510  177.1150  146.0180 C   0  0  0  0  0  3  0  0  0  0  0  0
  190.3360  175.9390  143.9250 C   0  0  0  0  0  3  0  0  0  0  0  0
  192.8180  176.2760  148.4910 C   0  0  0  0  0  0  0  0  0  0  0  0
  193.2100  176.7570  149.8420 C   0  0  0  0  0  1  0  0  0  0  0  0
  191.8110  176.9870  147.7580 N   0  0  0  0  0  2  0  0  0  0  0  0
  193.3820  175.2570  148.0120 O   0  0  0  0  0  0  0  0  0  0  0  0
  182.8110  177.8390  140.8670 C   0  0  0  0  0  2  0  0  0  0  0  0
  185.1070  178.8780  140.8030 C   0  0  0  0  0  0  0  0  0  0  0  0
  184.7930  179.5440  139.7280 N   0  0  0  0  0  0  0  0  0  0  0  0
  184.1670  177.9720  141.3930 N   0  0  0  0  0  2  0  0  0  0  0  0
  182.7820  178.1370  139.3680 C   0  0  1  0  0  3  0  0  0  0  0  0
  183.4640  179.4850  139.1150 C   0  0  0  0  0  2  0  0  0  0  0  0
  183.4600  177.0320  138.5700 C   0  0  0  0  0  2  0  0  0  0  0  0
  184.5310  177.5970  137.7590 N   0  0  0  0  0  0  0  0  0  0  0  0
  184.9420  177.1110  136.6240 C   0  0  0  0  0  0  0  0  0  0  0  0
  187.7250  172.2460  137.2150 C   0  0  0  0  0  2  0  0  0  0  0  0
  184.2530  173.3300  136.0990 C   0  0  0  0  0  2  0  0  0  0  0  0
  183.3220  175.9330  135.3530 O   0  0  0  0  0  0  0  0  0  0  0  0
  184.9630  174.5830  136.3120 N   0  0  0  0  0  0  0  0  0  0  0  0
  187.0590  170.8840  135.2370 C   0  0  0  0  0  2  0  0  0  0  0  0
  184.3670  175.8650  136.0560 C   0  0  0  0  0  0  0  0  0  0  0  0
  186.3470  172.9230  137.2120 C   0  0  2  0  0  3  0  0  0  0  0  0
  185.2570  172.2230  136.3880 C   0  0  2  0  0  3  0  0  0  0  0  0
  185.7900  171.7050  135.0510 C   0  0  0  0  0  2  0  0  0  0  0  0
  187.2360  174.6880  135.8260 O   0  0  0  0  0  1  0  0  0  0  0  0
  186.3060  174.3960  136.8310 C   0  0  1  0  0  3  0  0  0  0  0  0
  188.1430  171.7750  135.8260 C   0  0  0  0  0  2  0  0  0  0  0  0
  186.0500  177.7970  135.9280 C   0  0  0  0  0  0  0  0  0  0  0  0
  186.1090  177.7810  134.6690 O   0  0  0  0  0  0  0  0  0  0  0  0
  187.0420  178.5100  136.6630 N   0  0  0  0  0  1  0  0  0  0  0  0
  187.6340  178.1190  147.8080 C   0  0  0  0  0  2  0  0  0  0  0  0
  187.5620  178.7030  146.4130 C   0  0  0  0  0  3  0  0  0  0  0  0
  186.4640  179.0030  147.4100 C   0  0  0  0  0  2  0  0  0  0  0  0
  184.7790  178.1530  145.4570 C   0  0  0  0  0  2  0  0  0  0  0  0
  183.6050  178.9970  144.9600 C   0  0  0  0  0  1  0  0  0  0  0  0
  1  2  1  0  0  0  0
  1  4  1  0  0  0  0
  2  5  1  0  0  0  0
  3 14  1  1  0  0  0
  3  9  1  0  0  0  0
  4 22  1  6  0  0  0
  4  6  1  0  0  0  0
  6  7  1  0  0  0  0
  6  8  1  1  0  0  0
  7  5  1  6  0  0  0
  7  3  1  0  0  0  0
  8 10  1  0  0  0  0
  9 46  1  1  0  0  0
 10  9  1  0  0  0  0
 10 48  1  0  0  0  0
 11 19  1  0  0  0  0
 12 11  2  0  0  0  0
 13 12  1  0  0  0  0
 14 15  2  0  0  0  0
 15 11  1  0  0  0  0
 16 13  2  0  0  0  0
 16 14  1  0  0  0  0
 17 18  1  0  0  0  0
 19 17  1  0  0  0  0
 20 17  2  0  0  0  0
 21 24  1  0  0  0  0
 22 24  1  0  0  0  0
 23 22  2  0  0  0  0
 25 27  1  6  0  0  0
 25 21  1  0  0  0  0
 26 25  1  0  0  0  0
 26 23  1  0  0  0  0
 28 27  1  0  0  0  0
 29 28  2  0  0  0  0
 31 33  1  0  0  0  0
 31 37  1  0  0  0  0
 32 35  2  0  0  0  0
 33 40  1  0  0  0  0
 34 41  1  0  0  0  0
 35 33  1  0  0  0  0
 35 29  1  0  0  0  0
 36 30  1  6  0  0  0
 37 38  1  6  0  0  0
 37 36  1  0  0  0  0
 38 34  1  0  0  0  0
 40 39  1  6  0  0  0
 40 36  1  0  0  0  0
 41 30  1  0  0  0  0
 42 29  1  0  0  0  0
 42 44  1  0  0  0  0
 43 42  2  0  0  0  0
 46 47  1  0  0  0  0
 46 45  1  0  0  0  0
 47 45  1  0  0  0  0
 49 48  1  0  0  0  0
M  END
>  <MODEL>
8

>  <REMARK>
 VINA RESULT:      -6.8      2.325      4.234
  Name = 
  9 active torsions:
  status: ('A' for Active; 'I' for Inactive)
    1  A    between atoms: C_1  and  N_27
    2  A    between atoms: C_4  and  N_44
    3  A    between atoms: N_6  and  C_29
    4  A    between atoms: C_7  and  C_21
    5  A    between atoms: C_19  and  C_26
    6  A    between atoms: C_20  and  C_42
    7  A    between atoms: C_24  and  C_42
    8  A    between atoms: C_29  and  C_32
    9  A    between atoms: C_39  and  C_43
                            x       y       z     vdW  Elec       q    Type
                         _______ _______ _______ _____ _____    ______ ____

>  <TORSDO>
F 9

$$$$
=
 OpenBabel11062411013D

 49 55  0  0  1  0  0  0  0  0999 V2000
  189.4020  177.9320  141.2470 C   0  0  0  0  0  2  0  0  0  0  0  0
  190.6990  177.1130  141.1220 C   0  0  0  0  0  2  0  0  0  0  0  0
  190.2950  176.0900  137.3830 C   0  0  2  0  0  3  0  0  0  0  0  0
  188.2990  177.4020  140.3200 C   0  0  2  0  0  3  0  0  0  0  0  0
  191.1610  177.0000  139.6630 C   0  0  0  0  0  2  0  0  0  0  0  0
  188.8560  177.3570  138.8970 C   0  0  1  0  0  3  0  0  0  0  0  0
  190.0260  176.3850  138.8510 C   0  0  1  0  0  3  0  0  0  0  0  0
  187.8500  177.1330  137.8430 N   0  0  0  0  0  2  0  0  0  0  0  0
  189.0610  175.3570  136.7670 C   0  0  2  0  0  3  0  0  0  0  0  0
  187.8090  175.7750  137.4480 N   0  0  0  0  0  0  0  0  0  0  0  0
  193.6500  174.2600  137.1470 C   0  0  0  0  0  0  0  0  0  0  0  0
  194.2420  174.9500  136.0830 C   0  0  0  0  0  3  0  0  0  0  0  0
  193.5650  175.9990  135.4560 C   0  0  0  0  0  3  0  0  0  0  0  0
  191.6820  175.6870  136.9530 C   0  0  0  0  0  0  0  0  0  0  0  0
  192.3700  174.6340  137.5780 C   0  0  0  0  0  3  0  0  0  0  0  0
  192.2880  176.3650  135.8910 C   0  0  0  0  0  3  0  0  0  0  0  0
  194.6920  171.9170  137.1660 C   0  0  0  0  0  0  0  0  0  0  0  0
  195.4230  170.9010  137.9670 C   0  0  0  0  0  1  0  0  0  0  0  0
  194.3690  173.1820  137.7620 N   0  0  0  0  0  2  0  0  0  0  0  0
  194.3760  171.6530  135.9760 O   0  0  0  0  0  0  0  0  0  0  0  0
  185.5350  179.6330  141.8740 C   0  0  0  0  0  2  0  0  0  0  0  0
  187.0750  178.2560  140.4310 C   0  0  0  0  0  0  0  0  0  0  0  0
  186.3030  178.4440  139.3980 N   0  0  0  0  0  0  0  0  0  0  0  0
  186.7170  178.7900  141.7100 N   0  0  0  0  0  2  0  0  0  0  0  0
  184.4640  179.2670  140.8460 C   0  0  1  0  0  3  0  0  0  0  0  0
  185.0940  179.2690  139.4500 C   0  0  0  0  0  2  0  0  0  0  0  0
  183.8410  177.9130  141.1550 C   0  0  0  0  0  2  0  0  0  0  0  0
  182.6330  178.0970  141.9510 N   0  0  0  0  0  0  0  0  0  0  0  0
  181.4190  178.0290  141.4900 C   0  0  0  0  0  0  0  0  0  0  0  0
  181.0580  182.4210  137.9770 C   0  0  0  0  0  2  0  0  0  0  0  0
  181.2990  178.6370  137.6600 C   0  0  0  0  0  2  0  0  0  0  0  0
  180.8840  176.6240  139.6550 O   0  0  0  0  0  0  0  0  0  0  0  0
  181.1930  178.8670  139.0950 N   0  0  0  0  0  0  0  0  0  0  0  0
  179.5150  181.6700  136.1700 C   0  0  0  0  0  2  0  0  0  0  0  0
  181.1440  177.7940  140.0490 C   0  0  0  0  0  0  0  0  0  0  0  0
  181.5540  180.9790  138.1520 C   0  0  2  0  0  3  0  0  0  0  0  0
  181.2200  180.0110  137.0090 C   0  0  2  0  0  3  0  0  0  0  0  0
  179.7960  180.2070  136.4850 C   0  0  0  0  0  2  0  0  0  0  0  0
  179.8860  180.6310  139.8620 O   0  0  0  0  0  1  0  0  0  0  0  0
  181.1750  180.2750  139.4480 C   0  0  1  0  0  3  0  0  0  0  0  0
  179.6280  182.4830  137.4510 C   0  0  0  0  0  2  0  0  0  0  0  0
  180.3000  178.2520  142.4280 C   0  0  0  0  0  0  0  0  0  0  0  0
  179.1100  178.1400  142.0270 O   0  0  0  0  0  0  0  0  0  0  0  0
  180.5470  178.5630  143.7970 N   0  0  0  0  0  1  0  0  0  0  0  0
  189.9260  173.1930  135.6410 C   0  0  0  0  0  2  0  0  0  0  0  0
  189.0470  173.8050  136.7100 C   0  0  0  0  0  3  0  0  0  0  0  0
  188.4190  173.2400  135.4550 C   0  0  0  0  0  2  0  0  0  0  0  0
  186.6670  175.6130  136.5390 C   0  0  0  0  0  2  0  0  0  0  0  0
  186.1230  176.9490  136.0330 C   0  0  0  0  0  1  0  0  0  0  0  0
  2  1  1  0  0  0  0
  3 14  1  1  0  0  0
  3  7  1  0  0  0  0
  4 22  1  6  0  0  0
  4  1  1  0  0  0  0
  5  2  1  0  0  0  0
  6  8  1  6  0  0  0
  6  4  1  0  0  0  0
  7  6  1  0  0  0  0
  7  5  1  6  0  0  0
  9 46  1  1  0  0  0
  9  3  1  0  0  0  0
  9 10  1  0  0  0  0
 10  8  1  0  0  0  0
 11 15  1  0  0  0  0
 11 19  1  0  0  0  0
 12 11  2  0  0  0  0
 13 16  2  0  0  0  0
 13 12  1  0  0  0  0
 14 15  2  0  0  0  0
 16 14  1  0  0  0  0
 17 19  1  0  0  0  0
 17 18  1  0  0  0  0
 20 17  2  0  0  0  0
 22 24  1  0  0  0  0
 23 26  1  0  0  0  0
 23 22  2  0  0  0  0
 24 21  1  0  0  0  0
 25 27  1  1  0  0  0
 25 21  1  0  0  0  0
 26 25  1  0  0  0  0
 27 28  1  0  0  0  0
 29 28  2  0  0  0  0
 29 42  1  0  0  0  0
 31 33  1  0  0  0  0
 32 35  2  0  0  0  0
 33 40  1  0  0  0  0
 33 35  1  0  0  0  0
 34 38  1  0  0  0  0
 34 41  1  0  0  0  0
 35 29  1  0  0  0  0
 36 30  1  6  0  0  0
 36 40  1  0  0  0  0
 37 38  1  1  0  0  0
 37 31  1  0  0  0  0
 37 36  1  0  0  0  0
 40 39  1  6  0  0  0
 41 30  1  0  0  0  0
 42 44  1  0  0  0  0
 43 42  2  0  0  0  0
 45 46  1  0  0  0  0
 47 45  1  0  0  0  0
 47 46  1  0  0  0  0
 48 10  1  0  0  0  0
 49 48  1  0  0  0  0
M  END
>  <MODEL>
9

>  <REMARK>
 VINA RESULT:      -6.7      3.666      6.664
  Name = 
  9 active torsions:
  status: ('A' for Active; 'I' for Inactive)
    1  A    between atoms: C_1  and  N_27
    2  A    between atoms: C_4  and  N_44
    3  A    between atoms: N_6  and  C_29
    4  A    between atoms: C_7  and  C_21
    5  A    between atoms: C_19  and  C_26
    6  A    between atoms: C_20  and  C_42
    7  A    between atoms: C_24  and  C_42
    8  A    between atoms: C_29  and  C_32
    9  A    between atoms: C_39  and  C_43
                            x       y       z     vdW  Elec       q    Type
                         _______ _______ _______ _____ _____    ______ ____

>  <TORSDO>
F 9

$$$$
