=
 OpenBabel11062414213D

 45 48  0  0  1  0  0  0  0  0999 V2000
  178.9420  176.0000  141.5650 O   0  0  0  0  0  1  0  0  0  0  0  0
  183.4460  173.7050  137.2070 C   0  0  0  0  0  3  0  0  0  0  0  0
  180.6200  178.5070  138.5300 C   0  0  0  0  0  2  0  0  0  0  0  0
  183.3060  177.5800  139.0550 O   0  0  0  0  0  0  0  0  0  0  0  0
  183.4870  179.9570  138.8490 C   0  0  0  0  0  1  0  0  0  0  0  0
  181.8570  177.2060  138.2370 P   0  0  1  0  0  4  0  0  0  0  0  0
  181.1360  175.7410  139.0230 C   0  0  0  0  0  2  0  0  0  0  0  0
  181.0840  177.6550  135.7310 O   0  0  0  0  0  1  0  0  0  0  0  0
  186.0160  177.4680  137.7970 O   0  0  0  0  0  0  0  0  0  0  0  0
  180.0140  176.4700  140.8030 C   0  0  2  0  0  3  0  0  0  0  0  0
  180.1270  177.9750  140.9440 C   0  0  0  0  0  0  0  0  0  0  0  0
  182.2110  175.5480  135.9550 C   0  0  2  0  0  3  0  0  0  0  0  0
  187.0150  172.9970  137.6880 N   0  0  0  0  0  1  0  0  0  0  0  0
  185.8250  173.6420  137.2480 C   0  0  0  0  0  0  0  0  0  0  0  0
  180.5440  178.8350  139.9130 O   0  0  0  0  0  0  0  0  0  0  0  0
  187.2980  176.9720  138.0600 C   0  0  0  0  0  0  0  0  0  0  0  0
  183.9430  178.6020  138.3360 C   0  0  1  0  0  3  0  0  0  0  0  0
  184.6950  175.4190  136.0730 C   0  0  0  0  0  3  0  0  0  0  0  0
  187.8240  176.0590  137.2950 N   0  0  0  0  0  0  0  0  0  0  0  0
  183.4640  174.8770  136.4370 C   0  0  0  0  0  0  0  0  0  0  0  0
  185.4410  178.5160  138.5680 C   0  0  0  0  0  2  0  0  0  0  0  0
  187.1710  175.4830  136.1200 C   0  0  0  0  0  2  0  0  0  0  0  0
  182.1000  177.0010  136.4300 C   0  0  2  0  0  3  0  0  0  0  0  0
  179.9400  178.4780  142.0820 O   0  0  0  0  0  0  0  0  0  0  0  0
  185.8840  174.8150  136.4790 C   0  0  0  0  0  0  0  0  0  0  0  0
  179.8500  176.0570  139.4760 O   0  0  0  0  0  0  0  0  0  0  0  0
  184.6150  173.1220  137.5920 N   0  0  0  0  0  0  0  0  0  0  0  0
  188.0870  177.4960  139.2270 C   0  0  1  0  0  3  0  0  0  0  0  0
  189.0700  179.5210  138.1170 O   0  0  0  0  0  1  0  0  0  0  0  0
  190.4840  177.9050  139.0620 C   0  0  0  0  0  2  0  0  0  0  0  0
  189.2560  178.3250  138.8010 C   0  0  0  0  0  0  0  0  0  0  0  0
  187.2510  178.2260  140.1140 O   0  0  0  0  0  0  0  0  0  0  0  0
  187.3460  177.4530  144.2350 C   0  0  0  0  0  0  0  0  0  0  0  0
  186.2740  178.1770  143.6840 C   0  0  0  0  0  0  0  0  0  0  0  0
  187.2820  177.9760  141.4830 C   0  0  0  0  0  0  0  0  0  0  0  0
  185.1710  178.6690  144.5640 C   0  0  0  0  0  1  0  0  0  0  0  0
  185.1770  179.1300  141.7440 O   0  0  0  0  0  1  0  0  0  0  0  0
  188.3790  176.9980  143.4110 C   0  0  0  0  0  3  0  0  0  0  0  0
  186.2410  178.4290  142.3030 C   0  0  0  0  0  0  0  0  0  0  0  0
  188.3490  177.2580  142.0380 C   0  0  0  0  0  3  0  0  0  0  0  0
  187.3900  177.1850  145.6000 O   0  0  0  0  0  1  0  0  0  0  0  0
  181.0090  174.7770  136.2470 N   0  0  0  0  0  2  0  0  0  0  0  0
  180.5470  174.2100  134.9930 C   0  0  0  0  0  2  0  0  0  0  0  0
  180.0710  172.4390  136.5880 N   0  0  0  0  0  1  0  0  0  0  0  0
  180.2420  172.7350  135.1770 C   0  0  0  0  0  2  0  0  0  0  0  0
  2 27  1  0  0  0  0
  3 15  1  0  0  0  0
  6  3  1  1  0  0  0
  6  7  1  0  0  0  0
  6  4  1  0  0  0  0
  7 26  1  0  0  0  0
  9 16  1  0  0  0  0
  9 21  1  0  0  0  0
 10 11  1  0  0  0  0
 10  1  1  1  0  0  0
 11 24  2  0  0  0  0
 12 42  1  1  0  0  0
 12 23  1  0  0  0  0
 12 20  1  0  0  0  0
 14 27  2  0  0  0  0
 14 13  1  0  0  0  0
 15 11  1  0  0  0  0
 16 28  1  0  0  0  0
 17 21  1  0  0  0  0
 17  5  1  1  0  0  0
 17  4  1  0  0  0  0
 18 20  1  0  0  0  0
 18 25  2  0  0  0  0
 19 16  2  0  0  0  0
 20  2  2  0  0  0  0
 22 25  1  0  0  0  0
 22 19  1  0  0  0  0
 23  8  1  6  0  0  0
 23  6  1  0  0  0  0
 25 14  1  0  0  0  0
 26 10  1  0  0  0  0
 28 31  1  6  0  0  0
 28 32  1  0  0  0  0
 29 31  1  0  0  0  0
 31 30  2  0  0  0  0
 32 35  1  0  0  0  0
 33 41  1  0  0  0  0
 34 33  1  0  0  0  0
 34 36  1  0  0  0  0
 35 40  2  0  0  0  0
 35 39  1  0  0  0  0
 37 39  1  0  0  0  0
 38 33  2  0  0  0  0
 39 34  2  0  0  0  0
 40 38  1  0  0  0  0
 43 45  1  0  0  0  0
 43 42  1  0  0  0  0
 45 44  1  0  0  0  0
M  END
>  <MODEL>
1

>  <REMARK>
 VINA RESULT:      -7.3      0.000      0.000
  Name = 
  7 active torsions:
  status: ('A' for Active; 'I' for Inactive)
    1  A    between atoms: C_5  and  C_12
    2  A    between atoms: C_12  and  N_43
    3  A    between atoms: C_16  and  O_22
    4  A    between atoms: C_19  and  N_43
    5  A    between atoms: O_22  and  C_42
    6  A    between atoms: C_26  and  C_42
    7  A    between atoms: C_39  and  C_42
                            x       y       z     vdW  Elec       q    Type
                         _______ _______ _______ _____ _____    ______ ____

>  <TORSDO>
F 7

$$$$
=
 OpenBabel11062414213D

 45 48  0  0  1  0  0  0  0  0999 V2000
  183.7460  178.9680  143.7380 O   0  0  0  0  0  1  0  0  0  0  0  0
  179.7360  176.1620  139.2000 C   0  0  0  0  0  3  0  0  0  0  0  0
  184.1720  179.7660  139.5560 C   0  0  0  0  0  2  0  0  0  0  0  0
  183.9410  176.9720  138.8570 O   0  0  0  0  0  0  0  0  0  0  0  0
  185.7700  177.8000  137.5550 C   0  0  0  0  0  1  0  0  0  0  0  0
  183.0470  178.3710  139.2450 P   0  0  1  0  0  4  0  0  0  0  0  0
  182.2490  178.0960  140.8500 C   0  0  0  0  0  2  0  0  0  0  0  0
  181.9050  180.2140  137.7030 O   0  0  0  0  0  1  0  0  0  0  0  0
  183.3470  175.1980  136.5250 O   0  0  0  0  0  0  0  0  0  0  0  0
  183.7770  178.5670  142.4000 C   0  0  2  0  0  3  0  0  0  0  0  0
  185.0910  178.9810  141.7680 C   0  0  0  0  0  0  0  0  0  0  0  0
  180.4130  178.3950  138.1770 C   0  0  2  0  0  3  0  0  0  0  0  0
  179.7300  172.7350  137.8860 N   0  0  0  0  0  1  0  0  0  0  0  0
  179.9030  174.1460  137.9450 C   0  0  0  0  0  0  0  0  0  0  0  0
  185.2300  179.3820  140.4280 O   0  0  0  0  0  0  0  0  0  0  0  0
  183.2000  173.8400  136.2240 C   0  0  0  0  0  0  0  0  0  0  0  0
  184.4100  177.1230  137.5440 C   0  0  1  0  0  3  0  0  0  0  0  0
  180.5790  176.2350  136.9480 C   0  0  0  0  0  3  0  0  0  0  0  0
  182.0590  173.3750  135.8010 N   0  0  0  0  0  0  0  0  0  0  0  0
  180.2470  176.9040  138.1250 C   0  0  0  0  0  0  0  0  0  0  0  0
  184.5960  175.7510  136.9200 C   0  0  0  0  0  2  0  0  0  0  0  0
  180.8600  174.1850  135.5880 C   0  0  0  0  0  2  0  0  0  0  0  0
  181.8590  178.8370  137.9280 C   0  0  2  0  0  3  0  0  0  0  0  0
  186.1410  178.8560  142.4500 O   0  0  0  0  0  0  0  0  0  0  0  0
  180.4190  174.8550  136.8480 C   0  0  0  0  0  0  0  0  0  0  0  0
  182.6630  179.0950  141.7380 O   0  0  0  0  0  0  0  0  0  0  0  0
  179.5800  174.8140  139.0860 N   0  0  0  0  0  0  0  0  0  0  0  0
  184.3620  172.9000  136.3800 C   0  0  1  0  0  3  0  0  0  0  0  0
  183.1080  170.8800  137.1850 O   0  0  0  0  0  1  0  0  0  0  0  0
  184.4330  170.7400  135.2550 C   0  0  0  0  0  2  0  0  0  0  0  0
  183.9590  171.4660  136.2540 C   0  0  0  0  0  0  0  0  0  0  0  0
  185.3920  173.2150  135.4530 O   0  0  0  0  0  0  0  0  0  0  0  0
  189.3440  173.7110  136.7670 C   0  0  0  0  0  0  0  0  0  0  0  0
  188.7770  174.6490  135.8870 C   0  0  0  0  0  0  0  0  0  0  0  0
  186.7060  173.3790  135.8820 C   0  0  0  0  0  0  0  0  0  0  0  0
  189.5800  175.8190  135.4210 C   0  0  0  0  0  1  0  0  0  0  0  0
  186.8740  175.4150  134.5940 O   0  0  0  0  0  1  0  0  0  0  0  0
  188.5930  172.6140  137.1980 C   0  0  0  0  0  3  0  0  0  0  0  0
  187.4510  174.4840  135.4530 C   0  0  0  0  0  0  0  0  0  0  0  0
  187.2770  172.4470  136.7580 C   0  0  0  0  0  3  0  0  0  0  0  0
  190.6520  173.8640  137.2160 O   0  0  0  0  0  1  0  0  0  0  0  0
  179.8560  178.9830  139.3890 N   0  0  0  0  0  2  0  0  0  0  0  0
  178.9310  180.0240  138.9760 C   0  0  0  0  0  2  0  0  0  0  0  0
  179.9780  180.9320  140.9730 N   0  0  0  0  0  1  0  0  0  0  0  0
  179.1070  181.2480  139.8540 C   0  0  0  0  0  2  0  0  0  0  0  0
  3 15  1  0  0  0  0
  4  6  1  0  0  0  0
  6  3  1  1  0  0  0
  6  7  1  0  0  0  0
  7 26  1  0  0  0  0
  9 21  1  0  0  0  0
 10  1  1  1  0  0  0
 11 10  1  0  0  0  0
 11 24  2  0  0  0  0
 12 42  1  1  0  0  0
 13 14  1  0  0  0  0
 14 27  2  0  0  0  0
 15 11  1  0  0  0  0
 16 28  1  0  0  0  0
 16  9  1  0  0  0  0
 17  5  1  1  0  0  0
 17  4  1  0  0  0  0
 18 20  1  0  0  0  0
 19 16  2  0  0  0  0
 20 12  1  0  0  0  0
 20  2  2  0  0  0  0
 21 17  1  0  0  0  0
 22 19  1  0  0  0  0
 22 25  1  0  0  0  0
 23  8  1  1  0  0  0
 23 12  1  0  0  0  0
 23  6  1  0  0  0  0
 25 18  2  0  0  0  0
 25 14  1  0  0  0  0
 26 10  1  0  0  0  0
 27  2  1  0  0  0  0
 28 32  1  6  0  0  0
 30 31  2  0  0  0  0
 31 28  1  0  0  0  0
 31 29  1  0  0  0  0
 32 35  1  0  0  0  0
 33 38  1  0  0  0  0
 33 41  1  0  0  0  0
 34 33  2  0  0  0  0
 35 40  1  0  0  0  0
 36 34  1  0  0  0  0
 37 39  1  0  0  0  0
 39 35  2  0  0  0  0
 39 34  1  0  0  0  0
 40 38  2  0  0  0  0
 43 42  1  0  0  0  0
 43 45  1  0  0  0  0
 45 44  1  0  0  0  0
M  END
>  <MODEL>
2

>  <REMARK>
 VINA RESULT:      -6.1      2.892      6.500
  Name = 
  7 active torsions:
  status: ('A' for Active; 'I' for Inactive)
    1  A    between atoms: C_5  and  C_12
    2  A    between atoms: C_12  and  N_43
    3  A    between atoms: C_16  and  O_22
    4  A    between atoms: C_19  and  N_43
    5  A    between atoms: O_22  and  C_42
    6  A    between atoms: C_26  and  C_42
    7  A    between atoms: C_39  and  C_42
                            x       y       z     vdW  Elec       q    Type
                         _______ _______ _______ _____ _____    ______ ____

>  <TORSDO>
F 7

$$$$
