=
 OpenBabel11062416263D

 46 54  0  0  1  0  0  0  0  0999 V2000
  186.1000  177.7220  136.2690 C   0  0  0  0  0  0  0  0  0  0  0  0
  190.2820  178.2660  136.9100 C   0  0  0  0  0  1  0  0  0  0  0  0
  189.5550  173.6750  135.4830 C   0  0  0  0  0  2  0  0  0  0  0  0
  191.3030  173.8290  137.6210 C   0  0  0  0  0  2  0  0  0  0  0  0
  188.7370  177.1730  141.5710 C   0  0  0  0  0  0  0  0  0  0  0  0
  186.8940  175.6110  137.1280 O   0  0  0  0  0  0  0  0  0  0  0  0
  187.9370  177.3740  139.2700 C   0  0  0  0  0  0  0  0  0  0  0  0
  191.8530  176.2120  144.1410 C   0  0  0  0  0  3  0  0  0  0  0  0
  190.8360  176.5050  143.3270 C   0  0  0  0  0  0  0  0  0  0  0  0
  186.1600  179.0200  136.6240 N   0  0  0  0  0  0  0  0  0  0  0  0
  186.8540  177.7360  138.3440 C   0  0  0  0  0  0  0  0  0  0  0  0
  186.5150  176.9330  137.2890 C   0  0  1  0  0  3  0  0  0  0  0  0
  189.9970  176.7420  141.0700 C   0  0  0  0  0  0  0  0  0  0  0  0
  191.2640  175.3300  137.2840 C   0  0  2  0  0  3  0  0  0  0  0  0
  190.9820  172.7600  136.1690 S   0  0  0  0  0  0  0  0  0  0  0  0
  190.7120  177.3950  146.0030 C   0  0  0  0  0  2  0  0  0  0  0  0
  187.6610  176.2210  134.8160 C   0  0  0  0  0  2  0  0  0  0  0  0
  186.6290  179.0320  137.8980 C   0  0  0  0  0  3  0  0  0  0  0  0
  189.3840  177.1440  145.2920 C   0  0  0  0  0  2  0  0  0  0  0  0
  191.0100  176.4220  141.8800 C   0  0  0  0  0  3  0  0  0  0  0  0
  189.1970  176.9490  138.7790 C   0  0  0  0  0  0  0  0  0  0  0  0
  190.2130  176.6550  139.6940 C   0  0  0  0  0  3  0  0  0  0  0  0
  186.0480  177.0910  134.5950 S   0  0  0  0  0  0  0  0  0  0  0  0
  189.5000  177.0180  137.2860 C   0  0  2  0  0  3  0  0  0  0  0  0
  187.6260  175.1870  135.9770 C   0  0  1  0  0  3  0  0  0  0  0  0
  189.5810  176.9860  143.8440 N   0  0  0  0  0  0  0  0  0  0  0  0
  189.0210  174.7280  136.4430 C   0  0  2  0  0  3  0  0  0  0  0  0
  187.7230  177.4780  140.6440 C   0  0  0  0  0  3  0  0  0  0  0  0
  188.5140  177.2890  142.9110 C   0  0  0  0  0  0  0  0  0  0  0  0
  190.0280  175.8040  136.6200 N   0  0  2  0  0  0  0  0  0  0  0  0
  191.6910  176.2870  145.6310 C   0  0  0  0  0  2  0  0  0  0  0  0
  185.7070  178.1230  145.3050 C   0  0  0  0  0  3  0  0  0  0  0  0
  186.1680  178.0920  142.5500 C   0  0  0  0  0  3  0  0  0  0  0  0
  184.9240  178.4860  143.0440 C   0  0  0  0  0  3  0  0  0  0  0  0
  184.6850  178.5030  144.4250 C   0  0  0  0  0  0  0  0  0  0  0  0
  186.9540  177.7310  144.8100 C   0  0  0  0  0  3  0  0  0  0  0  0
  187.1900  177.7100  143.4320 C   0  0  0  0  0  0  0  0  0  0  0  0
  183.1720  178.9690  146.1920 O   0  0  0  0  0  1  0  0  0  0  0  0
  182.3450  179.2430  144.0770 O   0  0  0  0  0  0  0  0  0  0  0  0
  183.3730  178.9100  144.9500 C   0  0  0  0  0  0  0  0  0  0  0  0
  193.7890  176.3090  134.5940 C   0  0  0  0  0  3  0  0  0  0  0  0
  193.5420  176.3440  137.3790 C   0  0  0  0  0  3  0  0  0  0  0  0
  192.6250  175.8240  135.1990 C   0  0  0  0  0  3  0  0  0  0  0  0
  194.8310  176.8120  135.3800 C   0  0  0  0  0  3  0  0  0  0  0  0
  194.7050  176.8370  136.7710 C   0  0  0  0  0  3  0  0  0  0  0  0
  192.5020  175.8260  136.5980 C   0  0  0  0  0  0  0  0  0  0  0  0
  1 10  2  0  0  0  0
  3 15  1  0  0  0  0
  5 29  2  0  0  0  0
  6 12  1  0  0  0  0
  7 28  2  0  0  0  0
  8 31  1  0  0  0  0
  9 26  1  0  0  0  0
  9  8  2  0  0  0  0
 10 18  1  0  0  0  0
 11  7  1  0  0  0  0
 12  1  1  6  0  0  0
 12 11  1  0  0  0  0
 13  5  1  0  0  0  0
 13 20  2  0  0  0  0
 14 46  1  6  0  0  0
 14  4  1  0  0  0  0
 15  4  1  0  0  0  0
 18 11  2  0  0  0  0
 19 16  1  0  0  0  0
 20  9  1  0  0  0  0
 21  7  1  0  0  0  0
 21 22  2  0  0  0  0
 22 13  1  0  0  0  0
 23 17  1  0  0  0  0
 23  1  1  0  0  0  0
 24  2  1  1  0  0  0
 24 21  1  0  0  0  0
 25 17  1  6  0  0  0
 25 27  1  0  0  0  0
 25  6  1  0  0  0  0
 26 19  1  0  0  0  0
 27  3  1  6  0  0  0
 27 30  1  0  0  0  0
 28  5  1  0  0  0  0
 29 37  1  0  0  0  0
 29 26  1  0  0  0  0
 30 14  1  0  0  0  0
 30 24  1  0  0  0  0
 31 16  1  0  0  0  0
 33 34  2  0  0  0  0
 33 37  1  0  0  0  0
 34 35  1  0  0  0  0
 35 40  1  0  0  0  0
 35 32  2  0  0  0  0
 36 32  1  0  0  0  0
 37 36  2  0  0  0  0
 39 40  2  0  0  0  0
 40 38  1  0  0  0  0
 41 43  2  0  0  0  0
 41 44  1  0  0  0  0
 43 46  1  0  0  0  0
 44 45  2  0  0  0  0
 45 42  1  0  0  0  0
 46 42  2  0  0  0  0
M  END
>  <MODEL>
1

>  <REMARK>
 VINA RESULT:      -6.9      0.000      0.000
  Name = 
  3 active torsions:
  status: ('A' for Active; 'I' for Inactive)
    1  A    between atoms: C_13  and  C_22
    2  A    between atoms: C_23  and  C_46
    3  A    between atoms: C_35  and  C_43
                            x       y       z     vdW  Elec       q    Type
                         _______ _______ _______ _____ _____    ______ ____

>  <TORSDO>
F 3

$$$$
=
 OpenBabel11062416263D

 46 54  0  0  1  0  0  0  0  0999 V2000
  180.7050  179.0760  143.3640 C   0  0  0  0  0  0  0  0  0  0  0  0
  181.5260  180.8660  139.5800 C   0  0  0  0  0  1  0  0  0  0  0  0
  179.0800  176.7380  138.8010 C   0  0  0  0  0  2  0  0  0  0  0  0
  181.2280  177.0080  137.0790 C   0  0  0  0  0  2  0  0  0  0  0  0
  185.7890  178.3160  140.3730 C   0  0  0  0  0  0  0  0  0  0  0  0
  181.0750  177.2320  141.8520 O   0  0  0  0  0  0  0  0  0  0  0  0
  183.5800  178.7300  141.3350 C   0  0  0  0  0  0  0  0  0  0  0  0
  188.1280  177.9420  136.9630 C   0  0  0  0  0  3  0  0  0  0  0  0
  187.3840  178.0400  138.0680 C   0  0  0  0  0  0  0  0  0  0  0  0
  181.3470  180.2040  143.7240 N   0  0  0  0  0  2  0  0  0  0  0  0
  182.7420  178.8920  142.5320 C   0  0  0  0  0  0  0  0  0  0  0  0
  181.5260  178.2740  142.6440 C   0  0  0  0  0  0  0  0  0  0  0  0
  185.2250  178.4640  139.0750 C   0  0  0  0  0  0  0  0  0  0  0  0
  181.2400  178.4390  137.6430 C   0  0  2  0  0  3  0  0  0  0  0  0
  179.5650  176.2400  137.1100 S   0  0  0  0  0  0  0  0  0  0  0  0
  190.1890  178.2230  138.3190 C   0  0  0  0  0  2  0  0  0  0  0  0
  178.9760  178.5600  141.4810 C   0  0  0  0  0  2  0  0  0  0  0  0
  182.5980  180.0970  143.2090 C   0  0  0  0  0  3  0  0  0  0  0  0
  189.4170  177.6940  139.5260 C   0  0  0  0  0  2  0  0  0  0  0  0
  185.9590  178.3410  137.9660 C   0  0  0  0  0  3  0  0  0  0  0  0
  183.0280  178.8820  140.0390 C   0  0  0  0  0  0  0  0  0  0  0  0
  183.8700  178.7600  138.9290 C   0  0  0  0  0  3  0  0  0  0  0  0
  178.9310  178.8500  143.3030 S   0  0  0  0  0  0  0  0  0  0  0  0
  181.5950  179.3770  139.8700 C   0  0  2  0  0  3  0  0  0  0  0  0
  179.8710  177.3480  141.0930 C   0  0  1  0  0  3  0  0  0  0  0  0
  187.9740  177.9350  139.3780 N   0  0  0  0  0  0  0  0  0  0  0  0
  180.2450  177.3050  139.5980 C   0  0  2  0  0  3  0  0  0  0  0  0
  184.9380  178.4490  141.4870 C   0  0  0  0  0  3  0  0  0  0  0  0
  187.1160  178.0510  140.5390 C   0  0  0  0  0  0  0  0  0  0  0  0
  180.6790  178.5940  139.0050 N   0  0  2  0  0  0  0  0  0  0  0  0
  189.5920  177.6280  137.0490 C   0  0  0  0  0  2  0  0  0  0  0  0
  187.5420  176.9570  144.1350 C   0  0  0  0  0  3  0  0  0  0  0  0
  188.9400  178.4280  142.2150 C   0  0  0  0  0  3  0  0  0  0  0  0
  189.4810  178.2530  143.4900 C   0  0  0  0  0  3  0  0  0  0  0  0
  188.7850  177.5180  144.4590 C   0  0  0  0  0  0  0  0  0  0  0  0
  187.0020  177.1290  142.8570 C   0  0  0  0  0  3  0  0  0  0  0  0
  187.6960  177.8670  141.8930 C   0  0  0  0  0  0  0  0  0  0  0  0
  188.6090  177.4210  146.8230 O   0  0  0  0  0  1  0  0  0  0  0  0
  190.7000  177.0650  145.9660 O   0  0  0  0  0  0  0  0  0  0  0  0
  189.3470  177.3380  145.8060 C   0  0  0  0  0  0  0  0  0  0  0  0
  180.8000  180.6930  134.5940 C   0  0  0  0  0  3  0  0  0  0  0  0
  179.5270  180.1430  137.0210 C   0  0  0  0  0  3  0  0  0  0  0  0
  181.3350  179.7370  135.4630 C   0  0  0  0  0  3  0  0  0  0  0  0
  179.6280  181.3760  134.9370 C   0  0  0  0  0  3  0  0  0  0  0  0
  178.9870  181.0950  136.1450 C   0  0  0  0  0  3  0  0  0  0  0  0
  180.7070  179.4680  136.6900 C   0  0  0  0  0  0  0  0  0  0  0  0
  1 10  1  0  0  0  0
  4 15  1  0  0  0  0
  4 14  1  0  0  0  0
  5 29  2  0  0  0  0
  5 28  1  0  0  0  0
  6 12  1  0  0  0  0
  7 28  2  0  0  0  0
  7 11  1  0  0  0  0
  8 31  1  0  0  0  0
  8  9  2  0  0  0  0
  9 26  1  0  0  0  0
 11 12  1  0  0  0  0
 11 18  2  0  0  0  0
 12  1  2  0  0  0  0
 13  5  1  0  0  0  0
 14 46  1  6  0  0  0
 14 30  1  0  0  0  0
 15  3  1  0  0  0  0
 16 19  1  0  0  0  0
 17 23  1  0  0  0  0
 18 10  1  0  0  0  0
 20  9  1  0  0  0  0
 20 13  2  0  0  0  0
 21  7  1  0  0  0  0
 22 13  1  0  0  0  0
 22 21  2  0  0  0  0
 23  1  1  0  0  0  0
 24  2  1  6  0  0  0
 24 21  1  0  0  0  0
 25 17  1  6  0  0  0
 25  6  1  0  0  0  0
 26 19  1  0  0  0  0
 26 29  1  0  0  0  0
 27  3  1  6  0  0  0
 27 25  1  0  0  0  0
 29 37  1  0  0  0  0
 30 27  1  0  0  0  0
 30 24  1  0  0  0  0
 31 16  1  0  0  0  0
 32 35  1  0  0  0  0
 33 34  1  0  0  0  0
 34 35  2  0  0  0  0
 35 40  1  0  0  0  0
 36 32  2  0  0  0  0
 37 33  2  0  0  0  0
 37 36  1  0  0  0  0
 40 39  2  0  0  0  0
 40 38  1  0  0  0  0
 41 44  2  0  0  0  0
 41 43  1  0  0  0  0
 43 46  2  0  0  0  0
 44 45  1  0  0  0  0
 45 42  2  0  0  0  0
 46 42  1  0  0  0  0
M  END
>  <MODEL>
2

>  <REMARK>
 VINA RESULT:      -6.8      4.686      8.721
  Name = 
  3 active torsions:
  status: ('A' for Active; 'I' for Inactive)
    1  A    between atoms: C_13  and  C_22
    2  A    between atoms: C_23  and  C_46
    3  A    between atoms: C_35  and  C_43
                            x       y       z     vdW  Elec       q    Type
                         _______ _______ _______ _____ _____    ______ ____

>  <TORSDO>
F 3

$$$$
=
 OpenBabel11062416263D

 46 54  0  0  1  0  0  0  0  0999 V2000
  182.7150  175.4680  135.2040 C   0  0  0  0  0  0  0  0  0  0  0  0
  182.2820  176.0240  139.4110 C   0  0  0  0  0  1  0  0  0  0  0  0
  180.8900  180.1210  137.1930 C   0  0  0  0  0  2  0  0  0  0  0  0
  182.5120  180.6260  139.3770 C   0  0  0  0  0  2  0  0  0  0  0  0
  187.1310  177.2080  138.7870 C   0  0  0  0  0  0  0  0  0  0  0  0
  183.2470  177.7890  135.6000 O   0  0  0  0  0  0  0  0  0  0  0  0
  185.1240  176.5730  137.5450 C   0  0  0  0  0  0  0  0  0  0  0  0
  188.7690  179.1660  142.0620 C   0  0  0  0  0  3  0  0  0  0  0  0
  188.2570  178.5490  140.9930 C   0  0  0  0  0  0  0  0  0  0  0  0
  183.0990  174.2700  135.6830 N   0  0  0  0  0  2  0  0  0  0  0  0
  184.5250  175.8610  136.4050 C   0  0  0  0  0  0  0  0  0  0  0  0
  183.5580  176.4400  135.6290 C   0  0  0  0  0  0  0  0  0  0  0  0
  186.3050  177.8740  139.7340 C   0  0  0  0  0  0  0  0  0  0  0  0
  182.2620  179.1330  139.6520 C   0  0  2  0  0  3  0  0  0  0  0  0
  181.1460  181.4220  138.4520 S   0  0  0  0  0  0  0  0  0  0  0  0
  190.9110  177.9500  141.7450 C   0  0  0  0  0  2  0  0  0  0  0  0
  180.8450  177.1360  135.9280 C   0  0  0  0  0  2  0  0  0  0  0  0
  184.2080  174.5080  136.4280 C   0  0  0  0  0  3  0  0  0  0  0  0
  190.5560  177.7940  140.2680 C   0  0  0  0  0  2  0  0  0  0  0  0
  186.8120  178.5150  140.7910 C   0  0  0  0  0  3  0  0  0  0  0  0
  184.3080  177.2330  138.4960 C   0  0  0  0  0  0  0  0  0  0  0  0
  184.9170  177.8610  139.5860 C   0  0  0  0  0  3  0  0  0  0  0  0
  181.0840  175.8830  134.5940 S   0  0  0  0  0  0  0  0  0  0  0  0
  182.7910  177.0790  138.4430 C   0  0  2  0  0  3  0  0  0  0  0  0
  181.9300  178.2500  135.9000 C   0  0  1  0  0  3  0  0  0  0  0  0
  189.1000  177.8370  140.0670 N   0  0  0  0  0  0  0  0  0  0  0  0
  182.0000  179.0800  137.1970 C   0  0  2  0  0  3  0  0  0  0  0  0
  186.5110  176.5690  137.6970 C   0  0  0  0  0  3  0  0  0  0  0  0
  188.4870  177.1870  138.9260 C   0  0  0  0  0  0  0  0  0  0  0  0
  181.9600  178.3060  138.4620 N   0  0  2  0  0  0  0  0  0  0  0  0
  190.2520  179.2150  142.2830 C   0  0  0  0  0  2  0  0  0  0  0  0
  190.6580  174.5990  137.2260 C   0  0  0  0  0  3  0  0  0  0  0  0
  189.6720  177.1630  136.7190 C   0  0  0  0  0  3  0  0  0  0  0  0
  190.4840  176.5290  135.7760 C   0  0  0  0  0  3  0  0  0  0  0  0
  190.9840  175.2440  136.0240 C   0  0  0  0  0  0  0  0  0  0  0  0
  189.8430  175.2320  138.1680 C   0  0  0  0  0  3  0  0  0  0  0  0
  189.3490  176.5170  137.9210 C   0  0  0  0  0  0  0  0  0  0  0  0
  192.8740  175.1510  134.5940 O   0  0  0  0  0  0  0  0  0  0  0  0
  191.5360  173.2960  134.5950 O   0  0  0  0  0  1  0  0  0  0  0  0
  191.8460  174.5750  135.0380 C   0  0  0  0  0  0  0  0  0  0  0  0
  179.1150  178.2410  141.6190 C   0  0  0  0  0  3  0  0  0  0  0  0
  181.7630  179.0030  142.0930 C   0  0  0  0  0  3  0  0  0  0  0  0
  179.9760  178.4820  140.5440 C   0  0  0  0  0  3  0  0  0  0  0  0
  179.5760  178.3790  142.9320 C   0  0  0  0  0  3  0  0  0  0  0  0
  180.9010  178.7520  143.1700 C   0  0  0  0  0  3  0  0  0  0  0  0
  181.3030  178.8800  140.7770 C   0  0  0  0  0  0  0  0  0  0  0  0
  1 12  2  0  0  0  0
  1 10  1  0  0  0  0
  3 15  1  0  0  0  0
  4 14  1  0  0  0  0
  5 29  2  0  0  0  0
  5 13  1  0  0  0  0
  6 12  1  0  0  0  0
  6 25  1  0  0  0  0
  7 28  2  0  0  0  0
  7 21  1  0  0  0  0
  8 31  1  0  0  0  0
  9  8  2  0  0  0  0
 10 18  1  0  0  0  0
 11 18  2  0  0  0  0
 11  7  1  0  0  0  0
 12 11  1  0  0  0  0
 13 20  2  0  0  0  0
 14 46  1  1  0  0  0
 15  4  1  0  0  0  0
 16 31  1  0  0  0  0
 19 16  1  0  0  0  0
 20  9  1  0  0  0  0
 21 22  2  0  0  0  0
 22 13  1  0  0  0  0
 23  1  1  0  0  0  0
 23 17  1  0  0  0  0
 24 30  1  0  0  0  0
 24 21  1  0  0  0  0
 24  2  1  1  0  0  0
 25 17  1  1  0  0  0
 25 27  1  0  0  0  0
 26 19  1  0  0  0  0
 26  9  1  0  0  0  0
 27  3  1  1  0  0  0
 27 30  1  0  0  0  0
 28  5  1  0  0  0  0
 29 26  1  0  0  0  0
 30 14  1  0  0  0  0
 32 36  1  0  0  0  0
 33 37  1  0  0  0  0
 34 35  1  0  0  0  0
 34 33  2  0  0  0  0
 35 32  2  0  0  0  0
 37 36  2  0  0  0  0
 37 29  1  0  0  0  0
 38 40  2  0  0  0  0
 39 40  1  0  0  0  0
 40 35  1  0  0  0  0
 41 44  1  0  0  0  0
 42 45  1  0  0  0  0
 43 46  1  0  0  0  0
 43 41  2  0  0  0  0
 44 45  2  0  0  0  0
 46 42  2  0  0  0  0
M  END
>  <MODEL>
3

>  <REMARK>
 VINA RESULT:      -4.7      3.737      8.968
  Name = 
  3 active torsions:
  status: ('A' for Active; 'I' for Inactive)
    1  A    between atoms: C_13  and  C_22
    2  A    between atoms: C_23  and  C_46
    3  A    between atoms: C_35  and  C_43
                            x       y       z     vdW  Elec       q    Type
                         _______ _______ _______ _____ _____    ______ ____

>  <TORSDO>
F 3

$$$$
=
 OpenBabel11062416263D

 46 54  0  0  1  0  0  0  0  0999 V2000
  181.5800  171.6610  136.1480 C   0  0  0  0  0  0  0  0  0  0  0  0
  181.5990  174.8880  138.9380 C   0  0  0  0  0  1  0  0  0  0  0  0
  179.3670  176.4000  134.8920 C   0  0  0  0  0  2  0  0  0  0  0  0
  181.1590  178.2780  135.8490 C   0  0  0  0  0  2  0  0  0  0  0  0
  186.1120  175.4590  136.7890 C   0  0  0  0  0  0  0  0  0  0  0  0
  181.8180  173.6580  134.8130 O   0  0  0  0  0  0  0  0  0  0  0  0
  184.0780  174.1070  136.6770 C   0  0  0  0  0  0  0  0  0  0  0  0
  187.8460  179.1460  137.5860 C   0  0  0  0  0  3  0  0  0  0  0  0
  187.2990  177.9600  137.3070 C   0  0  0  0  0  0  0  0  0  0  0  0
  182.1890  171.1040  137.2120 N   0  0  0  0  0  2  0  0  0  0  0  0
  183.4500  172.8010  136.4250 C   0  0  0  0  0  0  0  0  0  0  0  0
  182.3210  172.6850  135.6610 C   0  0  0  0  0  0  0  0  0  0  0  0
  185.3230  176.5690  137.1990 C   0  0  0  0  0  0  0  0  0  0  0  0
  181.1630  177.3520  137.0770 C   0  0  2  0  0  3  0  0  0  0  0  0
  179.5880  178.2150  134.9090 S   0  0  0  0  0  0  0  0  0  0  0  0
  190.0850  178.0830  137.7470 C   0  0  0  0  0  2  0  0  0  0  0  0
  179.5940  173.3380  135.9360 C   0  0  0  0  0  2  0  0  0  0  0  0
  183.3370  171.8070  137.3900 C   0  0  0  0  0  3  0  0  0  0  0  0
  189.5740  176.9670  136.8380 C   0  0  0  0  0  2  0  0  0  0  0  0
  185.8600  177.7650  137.4540 C   0  0  0  0  0  3  0  0  0  0  0  0
  183.3000  175.2160  137.0930 C   0  0  0  0  0  0  0  0  0  0  0  0
  183.9440  176.4280  137.3620 C   0  0  0  0  0  3  0  0  0  0  0  0
  179.8430  171.5200  135.7380 S   0  0  0  0  0  0  0  0  0  0  0  0
  181.8270  175.0310  137.4430 C   0  0  2  0  0  3  0  0  0  0  0  0
  180.4960  174.1700  134.9790 C   0  0  1  0  0  3  0  0  0  0  0  0
  188.1140  176.8300  136.9380 N   0  0  0  0  0  0  0  0  0  0  0  0
  180.6070  175.6580  135.3680 C   0  0  2  0  0  3  0  0  0  0  0  0
  185.4590  174.2390  136.5290 C   0  0  0  0  0  3  0  0  0  0  0  0
  187.4630  175.5680  136.6480 C   0  0  0  0  0  0  0  0  0  0  0  0
  180.8360  175.9320  136.8080 N   0  0  2  0  0  0  0  0  0  0  0  0
  189.3220  179.3660  137.4350 C   0  0  0  0  0  2  0  0  0  0  0  0
  188.6420  172.5830  134.6460 C   0  0  0  0  0  3  0  0  0  0  0  0
  189.4600  174.0710  136.8650 C   0  0  0  0  0  3  0  0  0  0  0  0
  190.2250  172.9860  136.4320 C   0  0  0  0  0  3  0  0  0  0  0  0
  189.8200  172.2340  135.3210 C   0  0  0  0  0  0  0  0  0  0  0  0
  187.8780  173.6710  135.0780 C   0  0  0  0  0  3  0  0  0  0  0  0
  188.2800  174.4170  136.1900 C   0  0  0  0  0  0  0  0  0  0  0  0
  190.0810  169.9600  134.6990 O   0  0  0  0  0  1  0  0  0  0  0  0
  191.9750  171.2390  134.6050 O   0  0  0  0  0  0  0  0  0  0  0  0
  190.6190  171.0860  134.8650 C   0  0  0  0  0  0  0  0  0  0  0  0
  178.9380  177.6110  140.1680 C   0  0  0  0  0  3  0  0  0  0  0  0
  180.4960  179.2630  138.5360 C   0  0  0  0  0  3  0  0  0  0  0  0
  179.6260  177.0680  139.0780 C   0  0  0  0  0  3  0  0  0  0  0  0
  179.0280  178.9790  140.4450 C   0  0  0  0  0  3  0  0  0  0  0  0
  179.8130  179.8030  139.6350 C   0  0  0  0  0  3  0  0  0  0  0  0
  180.3980  177.8970  138.2470 C   0  0  0  0  0  0  0  0  0  0  0  0
  1 10  1  0  0  0  0
  3 15  1  0  0  0  0
  4 14  1  0  0  0  0
  5 13  1  0  0  0  0
  6 25  1  0  0  0  0
  6 12  1  0  0  0  0
  7 21  1  0  0  0  0
  9 20  1  0  0  0  0
  9  8  2  0  0  0  0
 10 18  1  0  0  0  0
 11  7  1  0  0  0  0
 11 18  2  0  0  0  0
 12  1  2  0  0  0  0
 12 11  1  0  0  0  0
 13 22  1  0  0  0  0
 13 20  2  0  0  0  0
 14 46  1  1  0  0  0
 15  4  1  0  0  0  0
 19 26  1  0  0  0  0
 19 16  1  0  0  0  0
 21 22  2  0  0  0  0
 21 24  1  0  0  0  0
 23 17  1  0  0  0  0
 23  1  1  0  0  0  0
 24  2  1  1  0  0  0
 25 27  1  0  0  0  0
 25 17  1  1  0  0  0
 26  9  1  0  0  0  0
 27  3  1  1  0  0  0
 27 30  1  0  0  0  0
 28  7  2  0  0  0  0
 28  5  1  0  0  0  0
 29  5  2  0  0  0  0
 29 26  1  0  0  0  0
 30 14  1  0  0  0  0
 30 24  1  0  0  0  0
 31  8  1  0  0  0  0
 31 16  1  0  0  0  0
 32 36  2  0  0  0  0
 32 35  1  0  0  0  0
 34 33  1  0  0  0  0
 35 34  2  0  0  0  0
 36 37  1  0  0  0  0
 37 29  1  0  0  0  0
 37 33  2  0  0  0  0
 38 40  1  0  0  0  0
 39 40  2  0  0  0  0
 40 35  1  0  0  0  0
 41 44  1  0  0  0  0
 42 45  1  0  0  0  0
 43 41  2  0  0  0  0
 45 44  2  0  0  0  0
 46 42  2  0  0  0  0
 46 43  1  0  0  0  0
M  END
>  <MODEL>
4

>  <REMARK>
 VINA RESULT:      -4.6      5.444     10.089
  Name = 
  3 active torsions:
  status: ('A' for Active; 'I' for Inactive)
    1  A    between atoms: C_13  and  C_22
    2  A    between atoms: C_23  and  C_46
    3  A    between atoms: C_35  and  C_43
                            x       y       z     vdW  Elec       q    Type
                         _______ _______ _______ _____ _____    ______ ____

>  <TORSDO>
F 3

$$$$
=
 OpenBabel11062416263D

 46 54  0  0  1  0  0  0  0  0999 V2000
  182.2900  179.1920  143.5010 C   0  0  0  0  0  0  0  0  0  0  0  0
  182.8050  180.6500  139.5260 C   0  0  0  0  0  1  0  0  0  0  0  0
  180.0270  176.6650  139.3260 C   0  0  0  0  0  2  0  0  0  0  0  0
  181.9870  176.6600  137.3730 C   0  0  0  0  0  2  0  0  0  0  0  0
  186.9560  177.8590  140.0630 C   0  0  0  0  0  0  0  0  0  0  0  0
  182.3720  177.2250  142.1050 O   0  0  0  0  0  0  0  0  0  0  0  0
  184.8970  178.4980  141.2160 C   0  0  0  0  0  0  0  0  0  0  0  0
  188.8780  177.0810  136.4660 C   0  0  0  0  0  3  0  0  0  0  0  0
  188.2680  177.3090  137.6320 C   0  0  0  0  0  0  0  0  0  0  0  0
  183.0380  180.2930  143.7040 N   0  0  0  0  0  2  0  0  0  0  0  0
  184.2070  178.8030  142.4780 C   0  0  0  0  0  0  0  0  0  0  0  0
  182.9740  178.2840  142.7630 C   0  0  0  0  0  0  0  0  0  0  0  0
  186.2640  177.9570  138.8240 C   0  0  0  0  0  0  0  0  0  0  0  0
  182.1530  178.1220  137.8210 C   0  0  2  0  0  3  0  0  0  0  0  0
  180.2920  176.0180  137.6360 S   0  0  0  0  0  0  0  0  0  0  0  0
  191.0900  177.3050  137.5740 C   0  0  0  0  0  2  0  0  0  0  0  0
  180.3350  178.6730  141.8540 C   0  0  0  0  0  2  0  0  0  0  0  0
  184.2160  180.0600  143.0710 C   0  0  0  0  0  3  0  0  0  0  0  0
  190.4220  176.9190  138.8920 C   0  0  0  0  0  2  0  0  0  0  0  0
  186.8630  177.7050  137.6570 C   0  0  0  0  0  3  0  0  0  0  0  0
  184.2170  178.5990  139.9770 C   0  0  0  0  0  0  0  0  0  0  0  0
  184.9230  178.3400  138.7970 C   0  0  0  0  0  3  0  0  0  0  0  0
  180.5080  179.0910  143.6430 S   0  0  0  0  0  0  0  0  0  0  0  0
  182.8090  179.1830  139.9200 C   0  0  2  0  0  3  0  0  0  0  0  0
  181.1020  177.3750  141.4690 C   0  0  1  0  0  3  0  0  0  0  0  0
  188.9900  177.2530  138.8770 N   0  0  0  0  0  0  0  0  0  0  0  0
  181.3070  177.2010  139.9510 C   0  0  2  0  0  3  0  0  0  0  0  0
  186.2420  178.1310  141.2460 C   0  0  0  0  0  3  0  0  0  0  0  0
  188.2730  177.5110  140.1100 C   0  0  0  0  0  0  0  0  0  0  0  0
  181.7560  178.4110  139.2190 N   0  0  2  0  0  0  0  0  0  0  0  0
  190.3200  176.6690  136.4220 C   0  0  0  0  0  2  0  0  0  0  0  0
  190.5950  178.2250  143.0090 C   0  0  0  0  0  3  0  0  0  0  0  0
  188.7240  176.2930  142.2520 C   0  0  0  0  0  3  0  0  0  0  0  0
  189.3960  176.1730  143.4700 C   0  0  0  0  0  3  0  0  0  0  0  0
  190.3370  177.1380  143.8560 C   0  0  0  0  0  0  0  0  0  0  0  0
  189.9200  178.3460  141.7910 C   0  0  0  0  0  3  0  0  0  0  0  0
  188.9840  177.3800  141.4060 C   0  0  0  0  0  0  0  0  0  0  0  0
  191.1560  175.8930  145.7020 O   0  0  0  0  0  0  0  0  0  0  0  0
  191.6320  178.1300  145.7220 O   0  0  0  0  0  1  0  0  0  0  0  0
  191.0530  177.0120  145.1340 C   0  0  0  0  0  0  0  0  0  0  0  0
  181.0240  179.8260  134.5980 C   0  0  0  0  0  3  0  0  0  0  0  0
  181.0170  180.2930  137.3550 C   0  0  0  0  0  3  0  0  0  0  0  0
  181.5750  178.8800  135.4680 C   0  0  0  0  0  3  0  0  0  0  0  0
  180.4690  181.0070  135.1040 C   0  0  0  0  0  3  0  0  0  0  0  0
  180.4580  181.2360  136.4810 C   0  0  0  0  0  3  0  0  0  0  0  0
  181.5860  179.1180  136.8530 C   0  0  0  0  0  0  0  0  0  0  0  0
  1 23  1  0  0  0  0
  1 10  1  0  0  0  0
  4 15  1  0  0  0  0
  4 14  1  0  0  0  0
  5 29  2  0  0  0  0
  5 28  1  0  0  0  0
  6 12  1  0  0  0  0
  7 28  2  0  0  0  0
  7 11  1  0  0  0  0
  8  9  2  0  0  0  0
  9 20  1  0  0  0  0
  9 26  1  0  0  0  0
 11 12  1  0  0  0  0
 11 18  2  0  0  0  0
 12  1  2  0  0  0  0
 13  5  1  0  0  0  0
 14 46  1  6  0  0  0
 14 30  1  0  0  0  0
 15  3  1  0  0  0  0
 16 19  1  0  0  0  0
 17 23  1  0  0  0  0
 18 10  1  0  0  0  0
 20 13  2  0  0  0  0
 21  7  1  0  0  0  0
 22 13  1  0  0  0  0
 22 21  2  0  0  0  0
 24  2  1  6  0  0  0
 24 21  1  0  0  0  0
 25 17  1  6  0  0  0
 25  6  1  0  0  0  0
 26 19  1  0  0  0  0
 26 29  1  0  0  0  0
 27  3  1  6  0  0  0
 27 25  1  0  0  0  0
 29 37  1  0  0  0  0
 30 24  1  0  0  0  0
 30 27  1  0  0  0  0
 31  8  1  0  0  0  0
 31 16  1  0  0  0  0
 32 35  1  0  0  0  0
 33 34  1  0  0  0  0
 34 35  2  0  0  0  0
 35 40  1  0  0  0  0
 36 32  2  0  0  0  0
 37 36  1  0  0  0  0
 37 33  2  0  0  0  0
 40 38  2  0  0  0  0
 40 39  1  0  0  0  0
 41 44  2  0  0  0  0
 41 43  1  0  0  0  0
 43 46  2  0  0  0  0
 44 45  1  0  0  0  0
 45 42  2  0  0  0  0
 46 42  1  0  0  0  0
M  END
>  <MODEL>
5

>  <REMARK>
 VINA RESULT:      -4.4      4.244      8.322
  Name = 
  3 active torsions:
  status: ('A' for Active; 'I' for Inactive)
    1  A    between atoms: C_13  and  C_22
    2  A    between atoms: C_23  and  C_46
    3  A    between atoms: C_35  and  C_43
                            x       y       z     vdW  Elec       q    Type
                         _______ _______ _______ _____ _____    ______ ____

>  <TORSDO>
F 3

$$$$
