=
 OpenBabel11062414423D

 27 29  0  0  1  0  0  0  0  0999 V2000
  184.9110  179.5930  140.2040 O   0  0  0  0  0  0  0  0  0  0  0  0
  184.3370  178.5470  140.6120 C   0  0  0  0  0  0  0  0  0  0  0  0
  184.7050  177.9910  141.8800 N   0  0  0  0  0  2  0  0  0  0  0  0
  185.7460  178.5680  142.7200 C   0  0  2  0  0  3  0  0  0  0  0  0
  185.3890  179.0200  147.4470 O   0  0  0  0  0  0  0  0  0  0  0  0
  186.8440  177.9740  145.9450 N   0  0  0  0  0  0  0  0  0  0  0  0
  187.3680  178.1010  144.5880 C   0  0  0  0  0  2  0  0  0  0  0  0
  187.7580  177.5030  146.9710 C   0  0  0  0  0  1  0  0  0  0  0  0
  186.4250  177.4840  143.5640 C   0  0  0  0  0  2  0  0  0  0  0  0
  185.2060  179.7580  143.5370 C   0  0  0  0  0  2  0  0  0  0  0  0
  182.7510  179.2970  143.8440 C   0  0  0  0  0  1  0  0  0  0  0  0
  184.3510  178.2610  145.4480 C   0  0  0  0  0  2  0  0  0  0  0  0
  185.5460  178.4620  146.3290 C   0  0  0  0  0  0  0  0  0  0  0  0
  184.0850  179.4590  144.5440 C   0  0  1  0  0  3  0  0  0  0  0  0
  182.3510  175.4260  137.9130 N   0  0  0  0  0  2  0  0  0  0  0  0
  184.8110  177.5530  137.9460 O   0  0  0  0  0  1  0  0  0  0  0  0
  181.9230  177.7540  140.3410 C   0  0  2  0  0  3  0  0  0  0  0  0
  183.3000  177.9090  139.7600 C   0  0  0  0  0  0  0  0  0  0  0  0
  182.4520  176.8690  137.6470 C   0  0  2  0  0  3  0  0  0  0  0  0
  181.2960  176.4410  139.8770 C   0  0  0  0  0  2  0  0  0  0  0  0
  183.5410  177.4680  138.5060 C   0  0  0  0  0  0  0  0  0  0  0  0
  181.2690  176.3230  138.3500 C   0  0  2  0  0  3  0  0  0  0  0  0
  181.0670  178.9310  140.0000 C   0  0  0  0  0  3  0  0  0  0  0  0
  180.5110  179.6330  140.9350 N   0  0  0  0  0  0  0  0  0  0  0  0
  179.3340  181.0540  139.3040 N   0  0  0  0  0  1  0  0  0  0  0  0
  179.2670  181.5090  141.5780 O   0  0  0  0  0  0  0  0  0  0  0  0
  179.6860  180.7640  140.6510 C   0  0  0  0  0  0  0  0  0  0  0  0
  1  2  2  0  0  0  0
  2  3  1  0  0  0  0
  4  3  1  1  0  0  0
  4 10  1  0  0  0  0
  4  9  1  0  0  0  0
  6 13  1  0  0  0  0
  6  8  1  0  0  0  0
  7  6  1  0  0  0  0
  9  7  1  0  0  0  0
 10 14  1  0  0  0  0
 12 13  1  0  0  0  0
 13  5  2  0  0  0  0
 14 11  1  6  0  0  0
 14 12  1  0  0  0  0
 15 22  1  0  0  0  0
 16 21  1  0  0  0  0
 17 23  1  6  0  0  0
 18 17  1  0  0  0  0
 18  2  1  0  0  0  0
 19 15  1  1  0  0  0
 19 22  1  0  0  0  0
 19 21  1  0  0  0  0
 20 17  1  0  0  0  0
 21 18  2  0  0  0  0
 22 20  1  1  0  0  0
 23 24  2  0  0  0  0
 25 27  1  0  0  0  0
 27 24  1  0  0  0  0
 27 26  2  0  0  0  0
M  END
>  <MODEL>
1

>  <REMARK>
 VINA RESULT:      -7.1      0.000      0.000
  Name = 
  4 active torsions:
  status: ('A' for Active; 'I' for Inactive)
    1  A    between atoms: C_2  and  N_24
    2  A    between atoms: C_4  and  C_13
    3  A    between atoms: N_8  and  C_26
    4  A    between atoms: C_17  and  C_18
                            x       y       z     vdW  Elec       q    Type
                         _______ _______ _______ _____ _____    ______ ____

>  <TORSDO>
F 4

$$$$
=
 OpenBabel11062414423D

 27 29  0  0  1  0  0  0  0  0999 V2000
  192.7970  178.0060  140.2230 O   0  0  0  0  0  0  0  0  0  0  0  0
  191.8060  177.2310  140.1300 C   0  0  0  0  0  0  0  0  0  0  0  0
  190.9810  177.0060  141.2790 N   0  0  0  0  0  2  0  0  0  0  0  0
  191.2500  177.6150  142.5750 C   0  0  2  0  0  3  0  0  0  0  0  0
  188.2080  177.5130  146.2370 O   0  0  0  0  0  0  0  0  0  0  0  0
  190.4060  176.8210  145.8330 N   0  0  0  0  0  0  0  0  0  0  0  0
  191.5770  177.1560  145.0290 C   0  0  0  0  0  2  0  0  0  0  0  0
  190.6390  176.3620  147.1910 C   0  0  0  0  0  1  0  0  0  0  0  0
  191.4970  176.5400  143.6390 C   0  0  0  0  0  2  0  0  0  0  0  0
  190.1580  178.6350  142.9490 C   0  0  0  0  0  2  0  0  0  0  0  0
  188.0760  177.8420  141.7770 C   0  0  0  0  0  1  0  0  0  0  0  0
  188.6280  176.8480  143.9940 C   0  0  0  0  0  2  0  0  0  0  0  0
  189.0610  177.1010  145.4060 C   0  0  0  0  0  0  0  0  0  0  0  0
  188.7290  178.0930  143.1210 C   0  0  1  0  0  3  0  0  0  0  0  0
  192.0430  174.0930  136.8050 N   0  0  0  0  0  2  0  0  0  0  0  0
  193.8400  176.3690  138.2770 O   0  0  0  0  0  1  0  0  0  0  0  0
  190.0900  176.2980  138.4840 C   0  0  2  0  0  3  0  0  0  0  0  0
  191.5270  176.5610  138.8350 C   0  0  0  0  0  0  0  0  0  0  0  0
  192.1770  175.5480  136.6390 C   0  0  2  0  0  3  0  0  0  0  0  0
  189.9580  174.9650  137.7490 C   0  0  0  0  0  2  0  0  0  0  0  0
  192.4970  176.1830  137.9720 C   0  0  0  0  0  0  0  0  0  0  0  0
  190.8510  174.9020  136.5060 C   0  0  2  0  0  3  0  0  0  0  0  0
  189.5200  177.4300  137.6910 C   0  0  0  0  0  3  0  0  0  0  0  0
  188.2870  177.4020  137.2980 N   0  0  0  0  0  0  0  0  0  0  0  0
  187.0680  178.1720  135.3010 N   0  0  0  0  0  1  0  0  0  0  0  0
  187.7520  179.6540  136.9490 O   0  0  0  0  0  0  0  0  0  0  0  0
  187.7050  178.4630  136.5380 C   0  0  0  0  0  0  0  0  0  0  0  0
  2  1  2  0  0  0  0
  2  3  1  0  0  0  0
  4  3  1  6  0  0  0
  4 10  1  0  0  0  0
  4  9  1  0  0  0  0
  6  8  1  0  0  0  0
  7  6  1  0  0  0  0
  9  7  1  0  0  0  0
 10 14  1  0  0  0  0
 12 13  1  0  0  0  0
 13  6  1  0  0  0  0
 13  5  2  0  0  0  0
 14 11  1  6  0  0  0
 14 12  1  0  0  0  0
 17 23  1  6  0  0  0
 17 18  1  0  0  0  0
 18  2  1  0  0  0  0
 19 15  1  1  0  0  0
 19 21  1  0  0  0  0
 20 17  1  0  0  0  0
 21 16  1  0  0  0  0
 21 18  2  0  0  0  0
 22 19  1  0  0  0  0
 22 15  1  0  0  0  0
 22 20  1  1  0  0  0
 24 23  2  0  0  0  0
 25 27  1  0  0  0  0
 27 26  2  0  0  0  0
 27 24  1  0  0  0  0
M  END
>  <MODEL>
2

>  <REMARK>
 VINA RESULT:      -7.0      5.906      7.467
  Name = 
  4 active torsions:
  status: ('A' for Active; 'I' for Inactive)
    1  A    between atoms: C_2  and  N_24
    2  A    between atoms: C_4  and  C_13
    3  A    between atoms: N_8  and  C_26
    4  A    between atoms: C_17  and  C_18
                            x       y       z     vdW  Elec       q    Type
                         _______ _______ _______ _____ _____    ______ ____

>  <TORSDO>
F 4

$$$$
=
 OpenBabel11062414423D

 27 29  0  0  1  0  0  0  0  0999 V2000
  184.1560  179.4980  139.9840 O   0  0  0  0  0  0  0  0  0  0  0  0
  183.5550  178.6580  140.7070 C   0  0  0  0  0  0  0  0  0  0  0  0
  184.1430  178.2520  141.9490 N   0  0  0  0  0  2  0  0  0  0  0  0
  185.4330  178.7490  142.4100 C   0  0  2  0  0  3  0  0  0  0  0  0
  186.9570  178.3910  146.9070 O   0  0  0  0  0  0  0  0  0  0  0  0
  187.7020  177.7030  144.8000 N   0  0  0  0  0  0  0  0  0  0  0  0
  187.6540  178.0850  143.3920 C   0  0  0  0  0  2  0  0  0  0  0  0
  188.9430  177.1290  145.2930 C   0  0  0  0  0  1  0  0  0  0  0  0
  186.3820  177.5860  142.7200 C   0  0  0  0  0  2  0  0  0  0  0  0
  185.2610  179.7500  143.5680 C   0  0  0  0  0  2  0  0  0  0  0  0
  183.1200  179.0880  144.7130 C   0  0  0  0  0  1  0  0  0  0  0  0
  185.2160  177.9060  145.3640 C   0  0  0  0  0  2  0  0  0  0  0  0
  186.6610  178.0360  145.7350 C   0  0  0  0  0  0  0  0  0  0  0  0
  184.6230  179.2180  144.8610 C   0  0  1  0  0  3  0  0  0  0  0  0
  180.1970  175.6100  140.0770 N   0  0  0  0  0  2  0  0  0  0  0  0
  183.2790  176.2000  139.2240 O   0  0  0  0  0  1  0  0  0  0  0  0
  181.0110  178.8600  140.6000 C   0  0  2  0  0  3  0  0  0  0  0  0
  182.2580  178.1000  140.2460 C   0  0  0  0  0  0  0  0  0  0  0  0
  180.8240  176.4410  139.0380 C   0  0  2  0  0  3  0  0  0  0  0  0
  179.8680  177.8930  140.9020 C   0  0  0  0  0  2  0  0  0  0  0  0
  182.1550  176.9560  139.5350 C   0  0  0  0  0  0  0  0  0  0  0  0
  179.6140  176.9210  139.7460 C   0  0  2  0  0  3  0  0  0  0  0  0
  180.6510  179.8250  139.5160 C   0  0  0  0  0  3  0  0  0  0  0  0
  180.4160  181.0680  139.7940 N   0  0  0  0  0  0  0  0  0  0  0  0
  180.8620  182.1190  137.6110 N   0  0  0  0  0  1  0  0  0  0  0  0
  179.0700  182.7770  138.9300 O   0  0  0  0  0  0  0  0  0  0  0  0
  180.0690  182.0210  138.7870 C   0  0  0  0  0  0  0  0  0  0  0  0
  1  2  2  0  0  0  0
  2  3  1  0  0  0  0
  4  3  1  1  0  0  0
  4  9  1  0  0  0  0
  4 10  1  0  0  0  0
  6  8  1  0  0  0  0
  6 13  1  0  0  0  0
  7  6  1  0  0  0  0
  9  7  1  0  0  0  0
 10 14  1  0  0  0  0
 12 13  1  0  0  0  0
 13  5  2  0  0  0  0
 14 11  1  6  0  0  0
 14 12  1  0  0  0  0
 16 21  1  0  0  0  0
 17 23  1  6  0  0  0
 17 20  1  0  0  0  0
 18 17  1  0  0  0  0
 18  2  1  0  0  0  0
 19 21  1  1  0  0  0
 19 22  1  0  0  0  0
 19 15  1  0  0  0  0
 21 18  2  0  0  0  0
 22 15  1  0  0  0  0
 22 20  1  1  0  0  0
 23 24  2  0  0  0  0
 25 27  1  0  0  0  0
 27 26  2  0  0  0  0
 27 24  1  0  0  0  0
M  END
>  <MODEL>
3

>  <REMARK>
 VINA RESULT:      -6.5      1.541      1.715
  Name = 
  4 active torsions:
  status: ('A' for Active; 'I' for Inactive)
    1  A    between atoms: C_2  and  N_24
    2  A    between atoms: C_4  and  C_13
    3  A    between atoms: N_8  and  C_26
    4  A    between atoms: C_17  and  C_18
                            x       y       z     vdW  Elec       q    Type
                         _______ _______ _______ _____ _____    ______ ____

>  <TORSDO>
F 4

$$$$
=
 OpenBabel11062414423D

 27 29  0  0  1  0  0  0  0  0999 V2000
  189.0090  179.2500  138.4380 O   0  0  0  0  0  0  0  0  0  0  0  0
  188.4460  178.1320  138.5910 C   0  0  0  0  0  0  0  0  0  0  0  0
  188.7220  177.3600  139.7650 N   0  0  0  0  0  2  0  0  0  0  0  0
  189.6570  177.7980  140.7940 C   0  0  2  0  0  3  0  0  0  0  0  0
  189.0830  176.9270  145.4400 O   0  0  0  0  0  0  0  0  0  0  0  0
  190.7040  176.4800  143.8150 N   0  0  0  0  0  0  0  0  0  0  0  0
  191.2570  177.0210  142.5760 C   0  0  0  0  0  2  0  0  0  0  0  0
  191.6320  175.8520  144.7390 C   0  0  0  0  0  1  0  0  0  0  0  0
  190.4300  176.6050  141.3670 C   0  0  0  0  0  2  0  0  0  0  0  0
  188.9510  178.6610  141.8560 C   0  0  0  0  0  2  0  0  0  0  0  0
  186.5590  177.8790  141.8710 C   0  0  0  0  0  1  0  0  0  0  0  0
  188.2140  176.6260  143.2490 C   0  0  0  0  0  2  0  0  0  0  0  0
  189.3450  176.7080  144.2270 C   0  0  0  0  0  0  0  0  0  0  0  0
  187.8380  177.9870  142.6750 C   0  0  1  0  0  3  0  0  0  0  0  0
  186.9610  175.7190  134.9930 N   0  0  0  0  0  2  0  0  0  0  0  0
  189.0650  178.0730  135.7750 O   0  0  0  0  0  1  0  0  0  0  0  0
  186.1820  177.1130  137.9850 C   0  0  2  0  0  3  0  0  0  0  0  0
  187.5190  177.6370  137.5400 C   0  0  0  0  0  0  0  0  0  0  0  0
  186.8390  177.1730  135.1760 C   0  0  2  0  0  3  0  0  0  0  0  0
  185.7640  175.9250  137.1210 C   0  0  0  0  0  2  0  0  0  0  0  0
  187.8240  177.6380  136.2240 C   0  0  0  0  0  0  0  0  0  0  0  0
  185.7540  176.2720  135.6290 C   0  0  2  0  0  3  0  0  0  0  0  0
  185.1550  178.1990  137.9720 C   0  0  0  0  0  3  0  0  0  0  0  0
  184.6210  178.6100  139.0780 N   0  0  0  0  0  0  0  0  0  0  0  0
  182.2820  179.3160  139.3960 N   0  0  0  0  0  1  0  0  0  0  0  0
  183.9500  180.8450  138.8820 O   0  0  0  0  0  0  0  0  0  0  0  0
  183.6350  179.6450  139.1080 C   0  0  0  0  0  0  0  0  0  0  0  0
  1  2  2  0  0  0  0
  2  3  1  0  0  0  0
  4  3  1  6  0  0  0
  4  9  1  0  0  0  0
  4 10  1  0  0  0  0
  6 13  1  0  0  0  0
  6  8  1  0  0  0  0
  7  6  1  0  0  0  0
  9  7  1  0  0  0  0
 10 14  1  0  0  0  0
 12 13  1  0  0  0  0
 13  5  2  0  0  0  0
 14 11  1  6  0  0  0
 14 12  1  0  0  0  0
 15 22  1  0  0  0  0
 16 21  1  0  0  0  0
 17 23  1  6  0  0  0
 18 17  1  0  0  0  0
 18  2  1  0  0  0  0
 19 15  1  6  0  0  0
 19 22  1  0  0  0  0
 19 21  1  0  0  0  0
 20 17  1  0  0  0  0
 21 18  2  0  0  0  0
 22 20  1  1  0  0  0
 23 24  2  0  0  0  0
 24 27  1  0  0  0  0
 26 27  2  0  0  0  0
 27 25  1  0  0  0  0
M  END
>  <MODEL>
4

>  <REMARK>
 VINA RESULT:      -6.3      3.779      4.715
  Name = 
  4 active torsions:
  status: ('A' for Active; 'I' for Inactive)
    1  A    between atoms: C_2  and  N_24
    2  A    between atoms: C_4  and  C_13
    3  A    between atoms: N_8  and  C_26
    4  A    between atoms: C_17  and  C_18
                            x       y       z     vdW  Elec       q    Type
                         _______ _______ _______ _____ _____    ______ ____

>  <TORSDO>
F 4

$$$$
=
 OpenBabel11062414423D

 27 29  0  0  1  0  0  0  0  0999 V2000
  184.7240  179.7490  139.9700 O   0  0  0  0  0  0  0  0  0  0  0  0
  184.0960  178.7980  140.5090 C   0  0  0  0  0  0  0  0  0  0  0  0
  184.5460  178.2820  141.7670 N   0  0  0  0  0  2  0  0  0  0  0  0
  185.7280  178.7930  142.4500 C   0  0  2  0  0  3  0  0  0  0  0  0
  186.4880  178.3350  147.1290 O   0  0  0  0  0  0  0  0  0  0  0  0
  187.5920  177.7250  145.1600 N   0  0  0  0  0  0  0  0  0  0  0  0
  187.7700  178.1470  143.7740 C   0  0  0  0  0  2  0  0  0  0  0  0
  188.7470  177.1630  145.8390 C   0  0  0  0  0  1  0  0  0  0  0  0
  186.6410  177.6410  142.8860 C   0  0  0  0  0  2  0  0  0  0  0  0
  185.3400  179.7560  143.5880 C   0  0  0  0  0  2  0  0  0  0  0  0
  183.0550  179.0150  144.3410 C   0  0  0  0  0  1  0  0  0  0  0  0
  185.0420  177.8600  145.3040 C   0  0  0  0  0  2  0  0  0  0  0  0
  186.4010  178.0090  145.9150 C   0  0  0  0  0  0  0  0  0  0  0  0
  184.5080  179.1730  144.7420 C   0  0  1  0  0  3  0  0  0  0  0  0
  179.8550  178.5440  138.8030 N   0  0  0  0  0  2  0  0  0  0  0  0
  181.4420  178.7130  141.6360 O   0  0  0  0  0  1  0  0  0  0  0  0
  183.1130  177.6810  138.4330 C   0  0  2  0  0  3  0  0  0  0  0  0
  182.9120  178.2270  139.8180 C   0  0  0  0  0  0  0  0  0  0  0  0
  180.5070  177.5470  139.6650 C   0  0  2  0  0  3  0  0  0  0  0  0
  181.8890  177.9700  137.5650 C   0  0  0  0  0  2  0  0  0  0  0  0
  181.6810  178.1800  140.3750 C   0  0  0  0  0  0  0  0  0  0  0  0
  180.5990  177.4320  138.1910 C   0  0  2  0  0  3  0  0  0  0  0  0
  183.4290  176.2200  138.4780 C   0  0  0  0  0  3  0  0  0  0  0  0
  183.8370  175.6030  137.4160 N   0  0  0  0  0  0  0  0  0  0  0  0
  183.1110  173.2570  137.2200 N   0  0  0  0  0  1  0  0  0  0  0  0
  185.3330  173.8110  137.5940 O   0  0  0  0  0  0  0  0  0  0  0  0
  184.1490  174.2090  137.4170 C   0  0  0  0  0  0  0  0  0  0  0  0
  1  2  2  0  0  0  0
  2  3  1  0  0  0  0
  4  3  1  1  0  0  0
  4  9  1  0  0  0  0
  4 10  1  0  0  0  0
  6  8  1  0  0  0  0
  6 13  1  0  0  0  0
  7  6  1  0  0  0  0
  9  7  1  0  0  0  0
 10 14  1  0  0  0  0
 12 13  1  0  0  0  0
 13  5  2  0  0  0  0
 14 11  1  6  0  0  0
 14 12  1  0  0  0  0
 17 23  1  1  0  0  0
 17 18  1  0  0  0  0
 18 21  2  0  0  0  0
 18  2  1  0  0  0  0
 19 15  1  6  0  0  0
 19 21  1  0  0  0  0
 20 17  1  0  0  0  0
 21 16  1  0  0  0  0
 22 20  1  1  0  0  0
 22 15  1  0  0  0  0
 22 19  1  0  0  0  0
 24 27  1  0  0  0  0
 24 23  2  0  0  0  0
 25 27  1  0  0  0  0
 27 26  2  0  0  0  0
M  END
>  <MODEL>
5

>  <REMARK>
 VINA RESULT:      -6.3      1.594      3.865
  Name = 
  4 active torsions:
  status: ('A' for Active; 'I' for Inactive)
    1  A    between atoms: C_2  and  N_24
    2  A    between atoms: C_4  and  C_13
    3  A    between atoms: N_8  and  C_26
    4  A    between atoms: C_17  and  C_18
                            x       y       z     vdW  Elec       q    Type
                         _______ _______ _______ _____ _____    ______ ____

>  <TORSDO>
F 4

$$$$
=
 OpenBabel11062414423D

 27 29  0  0  1  0  0  0  0  0999 V2000
  192.7830  177.8320  140.1360 O   0  0  0  0  0  0  0  0  0  0  0  0
  191.7350  177.1330  140.0810 C   0  0  0  0  0  0  0  0  0  0  0  0
  190.9550  176.9410  141.2670 N   0  0  0  0  0  2  0  0  0  0  0  0
  191.3340  177.5010  142.5580 C   0  0  2  0  0  3  0  0  0  0  0  0
  188.4150  177.7120  146.3150 O   0  0  0  0  0  0  0  0  0  0  0  0
  190.5030  176.7740  145.8350 N   0  0  0  0  0  0  0  0  0  0  0  0
  191.6800  176.9790  144.9970 C   0  0  0  0  0  2  0  0  0  0  0  0
  190.7220  176.2750  147.1810 C   0  0  0  0  0  1  0  0  0  0  0  0
  191.4850  176.3920  143.6050 C   0  0  0  0  0  2  0  0  0  0  0  0
  190.3800  178.6360  142.9750 C   0  0  0  0  0  2  0  0  0  0  0  0
  188.1850  178.1050  141.8640 C   0  0  0  0  0  1  0  0  0  0  0  0
  188.6840  177.0290  144.0550 C   0  0  0  0  0  2  0  0  0  0  0  0
  189.1870  177.2130  145.4530 C   0  0  0  0  0  0  0  0  0  0  0  0
  188.9040  178.2630  143.1880 C   0  0  1  0  0  3  0  0  0  0  0  0
  189.4900  176.5360  136.1350 N   0  0  0  0  0  2  0  0  0  0  0  0
  189.0240  176.4720  139.3530 O   0  0  0  0  0  1  0  0  0  0  0  0
  192.4330  176.2380  137.7920 C   0  0  2  0  0  3  0  0  0  0  0  0
  191.3430  176.5140  138.7890 C   0  0  0  0  0  0  0  0  0  0  0  0
  189.7080  175.5190  137.1750 C   0  0  2  0  0  3  0  0  0  0  0  0
  191.9270  176.4810  136.3720 C   0  0  0  0  0  2  0  0  0  0  0  0
  190.0670  176.1940  138.4780 C   0  0  0  0  0  0  0  0  0  0  0  0
  190.6710  175.6630  136.0590 C   0  0  2  0  0  3  0  0  0  0  0  0
  192.9710  174.8530  137.9620 C   0  0  0  0  0  3  0  0  0  0  0  0
  194.2440  174.6300  137.8930 N   0  0  0  0  0  0  0  0  0  0  0  0
  194.6280  172.3610  137.0140 N   0  0  0  0  0  1  0  0  0  0  0  0
  195.4310  173.0080  139.0920 O   0  0  0  0  0  0  0  0  0  0  0  0
  194.7970  173.3220  138.0480 C   0  0  0  0  0  0  0  0  0  0  0  0
  2  1  2  0  0  0  0
  2  3  1  0  0  0  0
  4  3  1  6  0  0  0
  4 10  1  0  0  0  0
  4  9  1  0  0  0  0
  6  8  1  0  0  0  0
  7  6  1  0  0  0  0
  9  7  1  0  0  0  0
 10 14  1  0  0  0  0
 12 13  1  0  0  0  0
 13  6  1  0  0  0  0
 13  5  2  0  0  0  0
 14 11  1  6  0  0  0
 14 12  1  0  0  0  0
 17 23  1  6  0  0  0
 17 18  1  0  0  0  0
 18  2  1  0  0  0  0
 19 15  1  6  0  0  0
 19 21  1  0  0  0  0
 20 17  1  0  0  0  0
 21 18  2  0  0  0  0
 21 16  1  0  0  0  0
 22 15  1  0  0  0  0
 22 20  1  1  0  0  0
 22 19  1  0  0  0  0
 24 23  2  0  0  0  0
 24 27  1  0  0  0  0
 25 27  1  0  0  0  0
 27 26  2  0  0  0  0
M  END
>  <MODEL>
6

>  <REMARK>
 VINA RESULT:      -6.2      6.925      9.266
  Name = 
  4 active torsions:
  status: ('A' for Active; 'I' for Inactive)
    1  A    between atoms: C_2  and  N_24
    2  A    between atoms: C_4  and  C_13
    3  A    between atoms: N_8  and  C_26
    4  A    between atoms: C_17  and  C_18
                            x       y       z     vdW  Elec       q    Type
                         _______ _______ _______ _____ _____    ______ ____

>  <TORSDO>
F 4

$$$$
=
 OpenBabel11062414423D

 27 29  0  0  1  0  0  0  0  0999 V2000
  185.7760  178.4740  141.2510 O   0  0  0  0  0  0  0  0  0  0  0  0
  184.9710  178.3460  142.2130 C   0  0  0  0  0  0  0  0  0  0  0  0
  183.5800  178.1380  141.9440 N   0  0  0  0  0  2  0  0  0  0  0  0
  183.0370  178.0940  140.5920 C   0  0  2  0  0  3  0  0  0  0  0  0
  179.1010  180.4080  139.2380 O   0  0  0  0  0  0  0  0  0  0  0  0
  181.3500  180.3600  138.5980 N   0  0  0  0  0  0  0  0  0  0  0  0
  182.5040  179.4670  138.5500 C   0  0  0  0  0  2  0  0  0  0  0  0
  181.1800  181.2900  137.4950 C   0  0  0  0  0  1  0  0  0  0  0  0
  183.2430  179.4360  139.8820 C   0  0  0  0  0  2  0  0  0  0  0  0
  181.5790  177.5970  140.5930 C   0  0  0  0  0  2  0  0  0  0  0  0
  180.6530  178.2530  142.8400 C   0  0  0  0  0  1  0  0  0  0  0  0
  180.6140  179.9470  141.0130 C   0  0  0  0  0  2  0  0  0  0  0  0
  180.3020  180.2290  139.5750 C   0  0  0  0  0  0  0  0  0  0  0  0
  180.5500  178.4600  141.3420 C   0  0  1  0  0  3  0  0  0  0  0  0
  184.9220  178.3910  146.7920 N   0  0  0  0  0  2  0  0  0  0  0  0
  183.9290  180.1280  144.2280 O   0  0  0  0  0  1  0  0  0  0  0  0
  186.6060  177.5030  143.9860 C   0  0  2  0  0  3  0  0  0  0  0  0
  185.4850  178.4280  143.6040 C   0  0  0  0  0  0  0  0  0  0  0  0
  185.5730  179.3790  145.9190 C   0  0  2  0  0  3  0  0  0  0  0  0
  186.4380  177.0320  145.4290 C   0  0  0  0  0  2  0  0  0  0  0  0
  184.9940  179.2860  144.5260 C   0  0  0  0  0  0  0  0  0  0  0  0
  186.3310  178.2040  146.4090 C   0  0  2  0  0  3  0  0  0  0  0  0
  187.9330  178.1560  143.7640 C   0  0  0  0  0  3  0  0  0  0  0  0
  188.9910  177.4390  143.5540 N   0  0  0  0  0  0  0  0  0  0  0  0
  191.1350  177.4850  142.3420 N   0  0  0  0  0  1  0  0  0  0  0  0
  190.6610  179.0110  144.0240 O   0  0  0  0  0  0  0  0  0  0  0  0
  190.2770  178.0240  143.3390 C   0  0  0  0  0  0  0  0  0  0  0  0
  1  2  2  0  0  0  0
  2 18  1  0  0  0  0
  3  2  1  0  0  0  0
  4 10  1  0  0  0  0
  4  3  1  1  0  0  0
  5 13  2  0  0  0  0
  6 13  1  0  0  0  0
  7  6  1  0  0  0  0
  7  9  1  0  0  0  0
  8  6  1  0  0  0  0
  9  4  1  0  0  0  0
 10 14  1  0  0  0  0
 12 14  1  0  0  0  0
 13 12  1  0  0  0  0
 14 11  1  1  0  0  0
 16 21  1  0  0  0  0
 17 23  1  1  0  0  0
 17 20  1  0  0  0  0
 18 17  1  0  0  0  0
 18 21  2  0  0  0  0
 19 21  1  6  0  0  0
 19 22  1  0  0  0  0
 19 15  1  0  0  0  0
 22 20  1  6  0  0  0
 22 15  1  0  0  0  0
 24 23  2  0  0  0  0
 25 27  1  0  0  0  0
 27 24  1  0  0  0  0
 27 26  2  0  0  0  0
M  END
>  <MODEL>
7

>  <REMARK>
 VINA RESULT:      -6.1      2.483      7.875
  Name = 
  4 active torsions:
  status: ('A' for Active; 'I' for Inactive)
    1  A    between atoms: C_2  and  N_24
    2  A    between atoms: C_4  and  C_13
    3  A    between atoms: N_8  and  C_26
    4  A    between atoms: C_17  and  C_18
                            x       y       z     vdW  Elec       q    Type
                         _______ _______ _______ _____ _____    ______ ____

>  <TORSDO>
F 4

$$$$
=
 OpenBabel11062414423D

 27 29  0  0  1  0  0  0  0  0999 V2000
  185.5710  179.5500  140.5600 O   0  0  0  0  0  0  0  0  0  0  0  0
  186.3620  178.7990  141.1920 C   0  0  0  0  0  0  0  0  0  0  0  0
  187.4950  178.2420  140.5160 N   0  0  0  0  0  2  0  0  0  0  0  0
  187.7680  178.4840  139.1050 C   0  0  2  0  0  3  0  0  0  0  0  0
  190.7020  175.8100  136.4760 O   0  0  0  0  0  0  0  0  0  0  0  0
  188.4520  176.4420  136.4000 N   0  0  0  0  0  0  0  0  0  0  0  0
  187.5590  177.5310  136.7840 C   0  0  0  0  0  2  0  0  0  0  0  0
  188.1820  175.7710  135.1400 C   0  0  0  0  0  1  0  0  0  0  0  0
  187.1140  177.4050  138.2350 C   0  0  0  0  0  2  0  0  0  0  0  0
  189.2760  178.6710  138.8530 C   0  0  0  0  0  2  0  0  0  0  0  0
  190.4230  177.3550  140.6660 C   0  0  0  0  0  1  0  0  0  0  0  0
  189.7080  176.1450  138.6090 C   0  0  0  0  0  2  0  0  0  0  0  0
  189.6650  176.1400  137.1110 C   0  0  0  0  0  0  0  0  0  0  0  0
  190.1890  177.4760  139.1740 C   0  0  1  0  0  3  0  0  0  0  0  0
  187.1770  178.1130  145.6450 N   0  0  0  0  0  2  0  0  0  0  0  0
  187.7650  176.8010  142.7280 O   0  0  0  0  0  1  0  0  0  0  0  0
  185.0280  179.3080  143.3110 C   0  0  2  0  0  3  0  0  0  0  0  0
  186.0900  178.4980  142.6210 C   0  0  0  0  0  0  0  0  0  0  0  0
  186.4110  177.2280  144.7550 C   0  0  2  0  0  3  0  0  0  0  0  0
  185.4250  179.5780  144.7610 C   0  0  0  0  0  2  0  0  0  0  0  0
  186.7470  177.5430  143.3160 C   0  0  0  0  0  0  0  0  0  0  0  0
  185.7210  178.2860  145.5280 C   0  0  2  0  0  3  0  0  0  0  0  0
  183.6980  178.6330  143.2150 C   0  0  0  0  0  3  0  0  0  0  0  0
  182.6040  179.3210  143.2960 N   0  0  0  0  0  0  0  0  0  0  0  0
  180.7770  178.3850  141.9350 N   0  0  0  0  0  1  0  0  0  0  0  0
  180.6430  178.4680  144.2490 O   0  0  0  0  0  0  0  0  0  0  0  0
  181.3140  178.7140  143.2100 C   0  0  0  0  0  0  0  0  0  0  0  0
  1  2  2  0  0  0  0
  2 18  1  0  0  0  0
  3  2  1  0  0  0  0
  4  3  1  1  0  0  0
  5 13  2  0  0  0  0
  6  7  1  0  0  0  0
  6 13  1  0  0  0  0
  7  9  1  0  0  0  0
  8  6  1  0  0  0  0
  9  4  1  0  0  0  0
 10  4  1  0  0  0  0
 10 14  1  0  0  0  0
 12 14  1  0  0  0  0
 13 12  1  0  0  0  0
 14 11  1  1  0  0  0
 16 21  1  0  0  0  0
 17 23  1  1  0  0  0
 17 20  1  0  0  0  0
 18 17  1  0  0  0  0
 18 21  2  0  0  0  0
 19 21  1  6  0  0  0
 19 22  1  0  0  0  0
 19 15  1  0  0  0  0
 22 20  1  6  0  0  0
 22 15  1  0  0  0  0
 23 24  2  0  0  0  0
 25 27  1  0  0  0  0
 27 24  1  0  0  0  0
 27 26  2  0  0  0  0
M  END
>  <MODEL>
8

>  <REMARK>
 VINA RESULT:      -6.1      3.846      7.072
  Name = 
  4 active torsions:
  status: ('A' for Active; 'I' for Inactive)
    1  A    between atoms: C_2  and  N_24
    2  A    between atoms: C_4  and  C_13
    3  A    between atoms: N_8  and  C_26
    4  A    between atoms: C_17  and  C_18
                            x       y       z     vdW  Elec       q    Type
                         _______ _______ _______ _____ _____    ______ ____

>  <TORSDO>
F 4

$$$$
=
 OpenBabel11062414423D

 27 29  0  0  1  0  0  0  0  0999 V2000
  184.7760  179.6500  139.3720 O   0  0  0  0  0  0  0  0  0  0  0  0
  183.9090  179.1990  140.1680 C   0  0  0  0  0  0  0  0  0  0  0  0
  184.2450  179.0240  141.5490 N   0  0  0  0  0  2  0  0  0  0  0  0
  185.5690  179.3210  142.0810 C   0  0  2  0  0  3  0  0  0  0  0  0
  187.1850  177.6690  146.2450 O   0  0  0  0  0  0  0  0  0  0  0  0
  187.8430  177.5620  144.0030 N   0  0  0  0  0  0  0  0  0  0  0  0
  187.7790  178.3210  142.7580 C   0  0  0  0  0  2  0  0  0  0  0  0
  189.0650  176.8240  144.2720 C   0  0  0  0  0  1  0  0  0  0  0  0
  186.4670  178.0800  142.0230 C   0  0  0  0  0  2  0  0  0  0  0  0
  185.4770  179.9680  143.4760 C   0  0  0  0  0  2  0  0  0  0  0  0
  183.3340  179.1020  144.4730 C   0  0  0  0  0  1  0  0  0  0  0  0
  185.3840  177.7020  144.6940 C   0  0  0  0  0  2  0  0  0  0  0  0
  186.8430  177.6650  145.0320 C   0  0  0  0  0  0  0  0  0  0  0  0
  184.8450  179.1250  144.5940 C   0  0  1  0  0  3  0  0  0  0  0  0
  180.5940  178.3090  137.1370 N   0  0  0  0  0  2  0  0  0  0  0  0
  182.4680  180.7430  138.2040 O   0  0  0  0  0  1  0  0  0  0  0  0
  181.9250  177.5890  140.1710 C   0  0  2  0  0  3  0  0  0  0  0  0
  182.5620  178.8460  139.6500 C   0  0  0  0  0  0  0  0  0  0  0  0
  180.5070  179.2370  138.2750 C   0  0  2  0  0  3  0  0  0  0  0  0
  181.1340  176.8960  139.0630 C   0  0  0  0  0  2  0  0  0  0  0  0
  181.8970  179.5970  138.7440 C   0  0  0  0  0  0  0  0  0  0  0  0
  180.0920  177.8240  138.4320 C   0  0  2  0  0  3  0  0  0  0  0  0
  181.0720  177.8800  141.3640 C   0  0  0  0  0  3  0  0  0  0  0  0
  180.8640  179.1020  141.7400 N   0  0  0  0  0  0  0  0  0  0  0  0
  179.4970  178.3740  143.6560 N   0  0  0  0  0  1  0  0  0  0  0  0
  179.8310  180.6220  143.1910 O   0  0  0  0  0  0  0  0  0  0  0  0
  180.0560  179.4220  142.8750 C   0  0  0  0  0  0  0  0  0  0  0  0
  1  2  2  0  0  0  0
  2  3  1  0  0  0  0
  4  3  1  1  0  0  0
  4 10  1  0  0  0  0
  6  8  1  0  0  0  0
  6 13  1  0  0  0  0
  7  6  1  0  0  0  0
  9  4  1  0  0  0  0
  9  7  1  0  0  0  0
 10 14  1  0  0  0  0
 12 13  1  0  0  0  0
 13  5  2  0  0  0  0
 14 11  1  6  0  0  0
 14 12  1  0  0  0  0
 15 22  1  0  0  0  0
 16 21  1  0  0  0  0
 17 23  1  1  0  0  0
 18  2  1  0  0  0  0
 18 17  1  0  0  0  0
 19 15  1  6  0  0  0
 19 22  1  0  0  0  0
 19 21  1  0  0  0  0
 20 17  1  0  0  0  0
 21 18  2  0  0  0  0
 22 20  1  1  0  0  0
 23 24  2  0  0  0  0
 24 27  1  0  0  0  0
 27 26  2  0  0  0  0
 27 25  1  0  0  0  0
M  END
>  <MODEL>
9

>  <REMARK>
 VINA RESULT:      -5.8      1.798      2.196
  Name = 
  4 active torsions:
  status: ('A' for Active; 'I' for Inactive)
    1  A    between atoms: C_2  and  N_24
    2  A    between atoms: C_4  and  C_13
    3  A    between atoms: N_8  and  C_26
    4  A    between atoms: C_17  and  C_18
                            x       y       z     vdW  Elec       q    Type
                         _______ _______ _______ _____ _____    ______ ____

>  <TORSDO>
F 4

$$$$
