=
 OpenBabel11062414323D

 31 34  0  0  1  0  0  0  0  0999 V2000
  182.3690  178.6620  139.6560 N   0  0  0  0  0  0  0  0  0  0  0  0
  181.0050  174.4070  138.2170 C   0  0  0  0  0  2  0  0  0  0  0  0
  181.6200  177.6400  138.9060 C   0  0  2  0  0  3  0  0  0  0  0  0
  182.1800  175.3460  138.1240 C   0  0  0  0  0  2  0  0  0  0  0  0
  180.1980  177.3820  139.4410 C   0  0  1  0  0  3  0  0  0  0  0  0
  182.0130  176.2250  139.3260 C   0  0  2  0  0  3  0  0  0  0  0  0
  180.5960  175.9560  139.7950 C   0  0  2  0  0  3  0  0  0  0  0  0
  179.9710  175.0600  138.9060 O   0  0  0  0  0  0  0  0  0  0  0  0
  179.1180  179.2530  140.6410 N   0  0  0  0  0  0  0  0  0  0  0  0
  178.9410  179.6930  142.0160 C   0  0  2  0  0  3  0  0  0  0  0  0
  179.6200  180.9620  142.2110 N   0  0  0  0  0  1  0  0  0  0  0  0
  179.6500  178.6170  142.7630 C   0  0  0  0  0  0  0  0  0  0  0  0
  179.8020  178.1540  140.6710 C   0  0  0  0  0  0  0  0  0  0  0  0
  179.7690  178.5430  144.2440 C   0  0  0  0  0  1  0  0  0  0  0  0
  180.1470  177.7240  141.9790 N   0  0  0  0  0  0  0  0  0  0  0  0
  182.7930  179.7000  138.7150 C   0  0  0  0  0  2  0  0  0  0  0  0
  181.0810  180.4640  137.0240 N   0  0  0  0  0  1  0  0  0  0  0  0
  181.6400  180.5650  138.3290 C   0  0  0  0  0  0  0  0  0  0  0  0
  181.1690  181.3980  139.1480 O   0  0  0  0  0  0  0  0  0  0  0  0
  183.5610  178.0730  140.2970 C   0  0  0  0  0  2  0  0  0  0  0  0
  184.6600  179.0920  140.6310 C   0  0  2  0  0  3  0  0  0  0  0  0
  185.8270  178.7710  139.9350 O   0  0  0  0  0  1  0  0  0  0  0  0
  184.9270  179.1580  142.1330 C   0  0  1  0  0  3  0  0  0  0  0  0
  183.7090  178.7380  142.9640 C   0  0  0  0  0  2  0  0  0  0  0  0
  185.4330  178.8160  144.8650 C   0  0  2  0  0  3  0  0  0  0  0  0
  183.9580  178.9540  144.4620 C   0  0  0  0  0  2  0  0  0  0  0  0
  186.1820  177.8480  143.9490 C   0  0  0  0  0  2  0  0  0  0  0  0
  186.1720  178.3350  142.4950 C   0  0  0  0  0  2  0  0  0  0  0  0
  186.7640  177.9670  146.8050 O   0  0  0  0  0  0  0  0  0  0  0  0
  184.5230  178.3970  147.0240 O   0  0  0  0  0  1  0  0  0  0  0  0
  185.5440  178.3860  146.2870 C   0  0  0  0  0  0  0  0  0  0  0  0
  1 20  1  0  0  0  0
  2  8  1  0  0  0  0
  3  6  1  0  0  0  0
  3  5  1  0  0  0  0
  3  1  1  1  0  0  0
  4  2  1  0  0  0  0
  5  7  1  0  0  0  0
  5 13  1  1  0  0  0
  6  4  1  6  0  0  0
  6  7  1  0  0  0  0
  7  8  1  6  0  0  0
  9 13  2  0  0  0  0
  9 10  1  0  0  0  0
 10 11  1  6  0  0  0
 10 12  1  0  0  0  0
 12 14  1  0  0  0  0
 13 15  1  0  0  0  0
 15 12  2  0  0  0  0
 16  1  1  0  0  0  0
 17 18  1  0  0  0  0
 18 16  1  0  0  0  0
 18 19  2  0  0  0  0
 20 21  1  0  0  0  0
 21 22  1  6  0  0  0
 23 21  1  6  0  0  0
 23 28  1  0  0  0  0
 23 24  1  0  0  0  0
 24 26  1  0  0  0  0
 25 31  1  1  0  0  0
 26 25  1  0  0  0  0
 27 25  1  0  0  0  0
 28 27  1  0  0  0  0
 31 29  2  0  0  0  0
 31 30  1  0  0  0  0
M  END
>  <MODEL>
1

>  <REMARK>
 VINA RESULT:      -7.0      0.000      0.000
  Name = 
  8 active torsions:
  status: ('A' for Active; 'I' for Inactive)
    1  A    between atoms: C_1  and  C_11
    2  A    between atoms: C_6  and  N_22
    3  A    between atoms: C_8  and  C_17
    4  A    between atoms: C_9  and  N_22
    5  A    between atoms: C_9  and  C_23
    6  A    between atoms: C_11  and  C_29
    7  A    between atoms: C_14  and  C_27
    8  A    between atoms: N_22  and  C_29
                            x       y       z     vdW  Elec       q    Type
                         _______ _______ _______ _____ _____    ______ ____

>  <TORSDO>
F 8

$$$$
=
 OpenBabel11062414323D

 31 34  0  0  1  0  0  0  0  0999 V2000
  189.7810  176.9400  138.6450 N   0  0  0  0  0  0  0  0  0  0  0  0
  193.7110  175.3770  136.6060 C   0  0  0  0  0  2  0  0  0  0  0  0
  190.8600  176.8240  137.6490 C   0  0  2  0  0  3  0  0  0  0  0  0
  193.2580  176.1790  137.7990 C   0  0  0  0  0  2  0  0  0  0  0  0
  190.4670  176.0340  136.3850 C   0  0  1  0  0  3  0  0  0  0  0  0
  191.8480  175.7160  138.0100 C   0  0  2  0  0  3  0  0  0  0  0  0
  191.5020  174.9730  136.7330 C   0  0  2  0  0  3  0  0  0  0  0  0
  192.5830  175.0600  135.8340 O   0  0  0  0  0  0  0  0  0  0  0  0
  188.0610  176.0330  135.8230 N   0  0  0  0  0  0  0  0  0  0  0  0
  186.9080  175.1660  136.0190 C   0  0  2  0  0  3  0  0  0  0  0  0
  185.9320  175.8390  136.8590 N   0  0  0  0  0  1  0  0  0  0  0  0
  187.5180  174.0280  136.7610 C   0  0  0  0  0  0  0  0  0  0  0  0
  189.0790  175.4510  136.3720 C   0  0  0  0  0  0  0  0  0  0  0  0
  186.7860  172.8140  137.2110 C   0  0  0  0  0  1  0  0  0  0  0  0
  188.7790  174.1960  136.9610 N   0  0  0  0  0  0  0  0  0  0  0  0
  189.4290  178.3550  138.7720 C   0  0  0  0  0  2  0  0  0  0  0  0
  187.7670  179.1680  137.0550 N   0  0  0  0  0  1  0  0  0  0  0  0
  188.0230  178.5910  138.3300 C   0  0  0  0  0  0  0  0  0  0  0  0
  187.0610  178.2970  139.0870 O   0  0  0  0  0  0  0  0  0  0  0  0
  190.2230  176.4310  139.9580 C   0  0  0  0  0  2  0  0  0  0  0  0
  190.6460  177.5290  140.9460 C   0  0  2  0  0  3  0  0  0  0  0  0
  192.0380  177.5780  141.0250 O   0  0  0  0  0  1  0  0  0  0  0  0
  190.0320  177.3070  142.3260 C   0  0  1  0  0  3  0  0  0  0  0  0
  190.4320  178.3970  143.3270 C   0  0  0  0  0  2  0  0  0  0  0  0
  188.6240  177.2500  144.7450 C   0  0  2  0  0  3  0  0  0  0  0  0
  189.9230  178.0690  144.7360 C   0  0  0  0  0  2  0  0  0  0  0  0
  187.7670  177.5350  143.5120 C   0  0  0  0  0  2  0  0  0  0  0  0
  188.5070  177.1660  142.2200 C   0  0  0  0  0  2  0  0  0  0  0  0
  188.3590  177.1240  147.2280 O   0  0  0  0  0  1  0  0  0  0  0  0
  186.7350  178.0850  145.9270 O   0  0  0  0  0  0  0  0  0  0  0  0
  187.8540  177.5120  145.9930 C   0  0  0  0  0  0  0  0  0  0  0  0
  1 16  1  0  0  0  0
  1 20  1  0  0  0  0
  2  4  1  0  0  0  0
  3  6  1  0  0  0  0
  3  1  1  1  0  0  0
  5 13  1  1  0  0  0
  5  7  1  0  0  0  0
  5  3  1  0  0  0  0
  6  4  1  6  0  0  0
  7  8  1  6  0  0  0
  7  6  1  0  0  0  0
  8  2  1  0  0  0  0
  9 10  1  0  0  0  0
  9 13  2  0  0  0  0
 10 12  1  0  0  0  0
 10 11  1  1  0  0  0
 12 15  2  0  0  0  0
 12 14  1  0  0  0  0
 13 15  1  0  0  0  0
 17 18  1  0  0  0  0
 18 16  1  0  0  0  0
 18 19  2  0  0  0  0
 20 21  1  0  0  0  0
 21 22  1  1  0  0  0
 23 21  1  6  0  0  0
 23 24  1  0  0  0  0
 24 26  1  0  0  0  0
 25 31  1  1  0  0  0
 26 25  1  0  0  0  0
 27 25  1  0  0  0  0
 28 23  1  0  0  0  0
 28 27  1  0  0  0  0
 30 31  2  0  0  0  0
 31 29  1  0  0  0  0
M  END
>  <MODEL>
2

>  <REMARK>
 VINA RESULT:      -6.8      6.094      8.440
  Name = 
  8 active torsions:
  status: ('A' for Active; 'I' for Inactive)
    1  A    between atoms: C_1  and  C_11
    2  A    between atoms: C_6  and  N_22
    3  A    between atoms: C_8  and  C_17
    4  A    between atoms: C_9  and  N_22
    5  A    between atoms: C_9  and  C_23
    6  A    between atoms: C_11  and  C_29
    7  A    between atoms: C_14  and  C_27
    8  A    between atoms: N_22  and  C_29
                            x       y       z     vdW  Elec       q    Type
                         _______ _______ _______ _____ _____    ______ ____

>  <TORSDO>
F 8

$$$$
=
 OpenBabel11062414323D

 31 34  0  0  1  0  0  0  0  0999 V2000
  189.1030  177.2670  139.6660 N   0  0  0  0  0  0  0  0  0  0  0  0
  193.1240  176.2300  137.4770 C   0  0  0  0  0  2  0  0  0  0  0  0
  190.2410  177.4100  138.7420 C   0  0  2  0  0  3  0  0  0  0  0  0
  192.6110  176.6590  138.8270 C   0  0  0  0  0  2  0  0  0  0  0  0
  189.9160  177.0450  137.2800 C   0  0  1  0  0  3  0  0  0  0  0  0
  191.1820  176.2090  138.8110 C   0  0  2  0  0  3  0  0  0  0  0  0
  190.9050  175.8910  137.3540 C   0  0  2  0  0  3  0  0  0  0  0  0
  192.0430  176.1990  136.5830 O   0  0  0  0  0  0  0  0  0  0  0  0
  188.1010  175.3690  137.3590 N   0  0  0  0  0  0  0  0  0  0  0  0
  186.7140  175.2610  136.9340 C   0  0  2  0  0  3  0  0  0  0  0  0
  186.5940  174.2240  135.9240 N   0  0  0  0  0  1  0  0  0  0  0  0
  186.4890  176.5990  136.3190 C   0  0  0  0  0  0  0  0  0  0  0  0
  188.5200  176.5450  137.0160 C   0  0  0  0  0  0  0  0  0  0  0  0
  185.2050  177.0600  135.7250 C   0  0  0  0  0  1  0  0  0  0  0  0
  187.5400  177.3420  136.3710 N   0  0  0  0  0  0  0  0  0  0  0  0
  188.5790  178.6030  139.9540 C   0  0  0  0  0  2  0  0  0  0  0  0
  186.5400  178.7040  141.4380 N   0  0  0  0  0  1  0  0  0  0  0  0
  187.0990  178.5630  140.1370 C   0  0  0  0  0  0  0  0  0  0  0  0
  186.3410  178.3890  139.1460 O   0  0  0  0  0  0  0  0  0  0  0  0
  189.5280  176.6300  140.9270 C   0  0  0  0  0  2  0  0  0  0  0  0
  190.2580  177.5760  141.8920 C   0  0  2  0  0  3  0  0  0  0  0  0
  191.5220  177.0640  142.1870 O   0  0  0  0  0  1  0  0  0  0  0  0
  189.4540  177.8030  143.1700 C   0  0  1  0  0  3  0  0  0  0  0  0
  188.4570  176.6710  143.4450 C   0  0  0  0  0  2  0  0  0  0  0  0
  188.2500  177.8910  145.6960 C   0  0  2  0  0  3  0  0  0  0  0  0
  187.5660  176.9980  144.6500 C   0  0  0  0  0  2  0  0  0  0  0  0
  189.7630  177.6820  145.7150 C   0  0  0  0  0  2  0  0  0  0  0  0
  190.3940  178.0350  144.3620 C   0  0  0  0  0  2  0  0  0  0  0  0
  186.4310  178.1820  147.3870 O   0  0  0  0  0  0  0  0  0  0  0  0
  188.3020  176.9550  147.8840 O   0  0  0  0  0  1  0  0  0  0  0  0
  187.6680  177.6470  147.0450 C   0  0  0  0  0  0  0  0  0  0  0  0
  1 16  1  0  0  0  0
  1 20  1  0  0  0  0
  2  4  1  0  0  0  0
  3  6  1  0  0  0  0
  3  1  1  1  0  0  0
  5 13  1  1  0  0  0
  5  7  1  0  0  0  0
  5  3  1  0  0  0  0
  6  4  1  6  0  0  0
  7  8  1  6  0  0  0
  7  6  1  0  0  0  0
  8  2  1  0  0  0  0
 10 11  1  6  0  0  0
 10  9  1  0  0  0  0
 12 15  2  0  0  0  0
 12 10  1  0  0  0  0
 13  9  2  0  0  0  0
 14 12  1  0  0  0  0
 15 13  1  0  0  0  0
 16 18  1  0  0  0  0
 18 17  1  0  0  0  0
 19 18  2  0  0  0  0
 20 21  1  0  0  0  0
 21 22  1  1  0  0  0
 23 21  1  6  0  0  0
 23 24  1  0  0  0  0
 23 28  1  0  0  0  0
 24 26  1  0  0  0  0
 25 27  1  0  0  0  0
 25 31  1  1  0  0  0
 26 25  1  0  0  0  0
 28 27  1  0  0  0  0
 31 29  2  0  0  0  0
 31 30  1  0  0  0  0
M  END
>  <MODEL>
3

>  <REMARK>
 VINA RESULT:      -6.8      5.337      7.962
  Name = 
  8 active torsions:
  status: ('A' for Active; 'I' for Inactive)
    1  A    between atoms: C_1  and  C_11
    2  A    between atoms: C_6  and  N_22
    3  A    between atoms: C_8  and  C_17
    4  A    between atoms: C_9  and  N_22
    5  A    between atoms: C_9  and  C_23
    6  A    between atoms: C_11  and  C_29
    7  A    between atoms: C_14  and  C_27
    8  A    between atoms: N_22  and  C_29
                            x       y       z     vdW  Elec       q    Type
                         _______ _______ _______ _____ _____    ______ ____

>  <TORSDO>
F 8

$$$$
=
 OpenBabel11062414323D

 31 34  0  0  1  0  0  0  0  0999 V2000
  182.3110  178.0740  140.4740 N   0  0  0  0  0  0  0  0  0  0  0  0
  179.2930  179.2730  143.8650 C   0  0  0  0  0  2  0  0  0  0  0  0
  181.0440  178.1540  141.2210 C   0  0  2  0  0  3  0  0  0  0  0  0
  180.5020  178.4020  143.6370 C   0  0  0  0  0  2  0  0  0  0  0  0
  180.0260  179.1500  140.6330 C   0  0  1  0  0  3  0  0  0  0  0  0
  181.1690  179.0430  142.4570 C   0  0  2  0  0  3  0  0  0  0  0  0
  180.1210  179.9880  141.9000 C   0  0  2  0  0  3  0  0  0  0  0  0
  178.9310  179.8550  142.6410 O   0  0  0  0  0  0  0  0  0  0  0  0
  181.1970  181.0120  139.5060 N   0  0  0  0  0  0  0  0  0  0  0  0
  181.4320  181.4720  138.1460 C   0  0  2  0  0  3  0  0  0  0  0  0
  180.7960  182.7640  137.9530 N   0  0  0  0  0  1  0  0  0  0  0  0
  180.7180  180.4310  137.3550 C   0  0  0  0  0  0  0  0  0  0  0  0
  180.4840  179.9340  139.4310 C   0  0  0  0  0  0  0  0  0  0  0  0
  180.6460  180.3880  135.8700 C   0  0  0  0  0  1  0  0  0  0  0  0
  180.1710  179.5380  138.1050 N   0  0  0  0  0  0  0  0  0  0  0  0
  182.2350  176.9270  139.5680 C   0  0  0  0  0  2  0  0  0  0  0  0
  183.8890  175.9850  137.9110 N   0  0  0  0  0  1  0  0  0  0  0  0
  183.1650  177.1020  138.4150 C   0  0  0  0  0  0  0  0  0  0  0  0
  183.3250  178.2370  137.8940 O   0  0  0  0  0  0  0  0  0  0  0  0
  183.4510  177.8930  141.3930 C   0  0  0  0  0  2  0  0  0  0  0  0
  184.3030  179.1550  141.5900 C   0  0  2  0  0  3  0  0  0  0  0  0
  185.0810  179.3800  140.4530 O   0  0  0  0  0  1  0  0  0  0  0  0
  185.1820  179.0500  142.8340 C   0  0  1  0  0  3  0  0  0  0  0  0
  184.3760  178.7200  144.0950 C   0  0  0  0  0  2  0  0  0  0  0  0
  186.7280  178.4010  145.0760 C   0  0  2  0  0  3  0  0  0  0  0  0
  185.2620  178.7660  145.3470 C   0  0  0  0  0  2  0  0  0  0  0  0
  186.8620  177.4310  143.9030 C   0  0  0  0  0  2  0  0  0  0  0  0
  186.3180  178.0430  142.6060 C   0  0  0  0  0  2  0  0  0  0  0  0
  188.5540  177.1340  146.2210 O   0  0  0  0  0  0  0  0  0  0  0  0
  186.7950  177.9860  147.4190 O   0  0  0  0  0  1  0  0  0  0  0  0
  187.3560  177.8340  146.3020 C   0  0  0  0  0  0  0  0  0  0  0  0
  1 20  1  0  0  0  0
  3  1  1  6  0  0  0
  3  6  1  0  0  0  0
  4  2  1  0  0  0  0
  5 13  1  6  0  0  0
  5  3  1  0  0  0  0
  5  7  1  0  0  0  0
  6  4  1  1  0  0  0
  7  6  1  0  0  0  0
  7  8  1  1  0  0  0
  8  2  1  0  0  0  0
 10 11  1  1  0  0  0
 10  9  1  0  0  0  0
 12 15  2  0  0  0  0
 12 10  1  0  0  0  0
 13  9  2  0  0  0  0
 14 12  1  0  0  0  0
 15 13  1  0  0  0  0
 16  1  1  0  0  0  0
 17 18  1  0  0  0  0
 18 16  1  0  0  0  0
 19 18  2  0  0  0  0
 20 21  1  0  0  0  0
 21 22  1  6  0  0  0
 23 21  1  6  0  0  0
 23 24  1  0  0  0  0
 24 26  1  0  0  0  0
 25 26  1  0  0  0  0
 25 31  1  1  0  0  0
 27 25  1  0  0  0  0
 28 23  1  0  0  0  0
 28 27  1  0  0  0  0
 29 31  2  0  0  0  0
 31 30  1  0  0  0  0
M  END
>  <MODEL>
4

>  <REMARK>
 VINA RESULT:      -6.5      1.935      3.892
  Name = 
  8 active torsions:
  status: ('A' for Active; 'I' for Inactive)
    1  A    between atoms: C_1  and  C_11
    2  A    between atoms: C_6  and  N_22
    3  A    between atoms: C_8  and  C_17
    4  A    between atoms: C_9  and  N_22
    5  A    between atoms: C_9  and  C_23
    6  A    between atoms: C_11  and  C_29
    7  A    between atoms: C_14  and  C_27
    8  A    between atoms: N_22  and  C_29
                            x       y       z     vdW  Elec       q    Type
                         _______ _______ _______ _____ _____    ______ ____

>  <TORSDO>
F 8

$$$$
=
 OpenBabel11062414323D

 31 34  0  0  1  0  0  0  0  0999 V2000
  182.4620  178.1940  139.4330 N   0  0  0  0  0  0  0  0  0  0  0  0
  184.3780  175.6580  135.9780 C   0  0  0  0  0  2  0  0  0  0  0  0
  182.6700  177.6520  138.0800 C   0  0  2  0  0  3  0  0  0  0  0  0
  184.6810  176.8430  136.8590 C   0  0  0  0  0  2  0  0  0  0  0  0
  181.6750  176.5440  137.6850 C   0  0  1  0  0  3  0  0  0  0  0  0
  183.7980  176.6220  138.0500 C   0  0  2  0  0  3  0  0  0  0  0  0
  182.8240  175.5490  137.6010 C   0  0  2  0  0  3  0  0  0  0  0  0
  183.0700  175.2290  136.2510 O   0  0  0  0  0  0  0  0  0  0  0  0
  179.6360  176.8330  139.0510 N   0  0  0  0  0  0  0  0  0  0  0  0
  178.9350  176.1170  140.1060 C   0  0  2  0  0  3  0  0  0  0  0  0
  178.9420  176.9130  141.3210 N   0  0  0  0  0  1  0  0  0  0  0  0
  179.8050  174.9200  140.2790 C   0  0  0  0  0  0  0  0  0  0  0  0
  180.6830  176.1360  138.7410 C   0  0  0  0  0  0  0  0  0  0  0  0
  179.5480  173.8100  141.2350 C   0  0  0  0  0  1  0  0  0  0  0  0
  180.8170  174.9330  139.4820 N   0  0  0  0  0  0  0  0  0  0  0  0
  182.3590  179.6510  139.3300 C   0  0  0  0  0  2  0  0  0  0  0  0
  180.3060  181.1180  139.2640 N   0  0  0  0  0  1  0  0  0  0  0  0
  181.0840  180.1350  139.9360 C   0  0  0  0  0  0  0  0  0  0  0  0
  180.7010  179.6890  141.0500 O   0  0  0  0  0  0  0  0  0  0  0  0
  183.5920  177.8490  140.3170 C   0  0  0  0  0  2  0  0  0  0  0  0
  184.5300  179.0270  140.6220 C   0  0  2  0  0  3  0  0  0  0  0  0
  185.7090  178.8920  139.8870 O   0  0  0  0  0  1  0  0  0  0  0  0
  184.8320  179.1300  142.1150 C   0  0  1  0  0  3  0  0  0  0  0  0
  183.6320  178.7410  142.9850 C   0  0  0  0  0  2  0  0  0  0  0  0
  185.4020  178.8580  144.8420 C   0  0  2  0  0  3  0  0  0  0  0  0
  183.9180  178.9960  144.4700 C   0  0  0  0  0  2  0  0  0  0  0  0
  186.1220  177.8620  143.9350 C   0  0  0  0  0  2  0  0  0  0  0  0
  186.0810  178.3090  142.4690 C   0  0  0  0  0  2  0  0  0  0  0  0
  186.7990  178.2290  146.8180 O   0  0  0  0  0  0  0  0  0  0  0  0
  184.5160  178.3420  146.9910 O   0  0  0  0  0  1  0  0  0  0  0  0
  185.5430  178.4660  146.2730 C   0  0  0  0  0  0  0  0  0  0  0  0
  1 20  1  0  0  0  0
  2  8  1  0  0  0  0
  2  4  1  0  0  0  0
  3  1  1  1  0  0  0
  5  3  1  0  0  0  0
  5 13  1  1  0  0  0
  6  4  1  6  0  0  0
  6  3  1  0  0  0  0
  7  8  1  6  0  0  0
  7  5  1  0  0  0  0
  7  6  1  0  0  0  0
  9 10  1  0  0  0  0
 10 12  1  0  0  0  0
 10 11  1  1  0  0  0
 12 14  1  0  0  0  0
 13  9  2  0  0  0  0
 13 15  1  0  0  0  0
 15 12  2  0  0  0  0
 16  1  1  0  0  0  0
 16 18  1  0  0  0  0
 17 18  1  0  0  0  0
 18 19  2  0  0  0  0
 20 21  1  0  0  0  0
 21 22  1  6  0  0  0
 23 21  1  6  0  0  0
 23 28  1  0  0  0  0
 23 24  1  0  0  0  0
 24 26  1  0  0  0  0
 25 31  1  1  0  0  0
 26 25  1  0  0  0  0
 27 25  1  0  0  0  0
 28 27  1  0  0  0  0
 31 29  2  0  0  0  0
 31 30  1  0  0  0  0
M  END
>  <MODEL>
5

>  <REMARK>
 VINA RESULT:      -6.4      1.843      2.549
  Name = 
  8 active torsions:
  status: ('A' for Active; 'I' for Inactive)
    1  A    between atoms: C_1  and  C_11
    2  A    between atoms: C_6  and  N_22
    3  A    between atoms: C_8  and  C_17
    4  A    between atoms: C_9  and  N_22
    5  A    between atoms: C_9  and  C_23
    6  A    between atoms: C_11  and  C_29
    7  A    between atoms: C_14  and  C_27
    8  A    between atoms: N_22  and  C_29
                            x       y       z     vdW  Elec       q    Type
                         _______ _______ _______ _____ _____    ______ ____

>  <TORSDO>
F 8

$$$$
=
 OpenBabel11062414323D

 31 34  0  0  1  0  0  0  0  0999 V2000
  187.4910  178.2220  142.5520 N   0  0  0  0  0  0  0  0  0  0  0  0
  189.3010  177.4520  138.2890 C   0  0  0  0  0  2  0  0  0  0  0  0
  188.0080  177.4750  141.3940 C   0  0  2  0  0  3  0  0  0  0  0  0
  188.0290  177.9230  138.9470 C   0  0  0  0  0  2  0  0  0  0  0  0
  189.4520  176.9630  141.5660 C   0  0  1  0  0  3  0  0  0  0  0  0
  188.4930  178.4090  140.2860 C   0  0  2  0  0  3  0  0  0  0  0  0
  189.9000  177.8570  140.4190 C   0  0  2  0  0  3  0  0  0  0  0  0
  190.1990  177.0630  139.2950 O   0  0  0  0  0  0  0  0  0  0  0  0
  190.4000  178.5660  143.1910 N   0  0  0  0  0  0  0  0  0  0  0  0
  191.0670  178.5240  144.4830 C   0  0  2  0  0  3  0  0  0  0  0  0
  192.4220  179.0320  144.3460 N   0  0  0  0  0  1  0  0  0  0  0  0
  191.0990  177.0590  144.7510 C   0  0  0  0  0  0  0  0  0  0  0  0
  190.1410  177.3440  142.8500 C   0  0  0  0  0  0  0  0  0  0  0  0
  191.6630  176.4280  145.9740 C   0  0  0  0  0  1  0  0  0  0  0  0
  190.5580  176.3780  143.8010 N   0  0  0  0  0  0  0  0  0  0  0  0
  186.9250  177.2610  143.5000 C   0  0  0  0  0  2  0  0  0  0  0  0
  185.6700  177.9210  145.5870 N   0  0  0  0  0  1  0  0  0  0  0  0
  186.9000  177.8300  144.8790 C   0  0  0  0  0  0  0  0  0  0  0  0
  187.9620  178.2440  145.4150 O   0  0  0  0  0  0  0  0  0  0  0  0
  186.4400  179.1720  142.1380 C   0  0  0  0  0  2  0  0  0  0  0  0
  185.3560  178.5530  141.2420 C   0  0  2  0  0  3  0  0  0  0  0  0
  185.1730  179.3470  140.1090 O   0  0  0  0  0  1  0  0  0  0  0  0
  184.0410  178.3750  141.9970 C   0  0  1  0  0  3  0  0  0  0  0  0
  183.8800  179.3810  143.1410 C   0  0  0  0  0  2  0  0  0  0  0  0
  181.4940  178.4300  143.1580 C   0  0  2  0  0  3  0  0  0  0  0  0
  182.6230  179.0840  143.9690 C   0  0  0  0  0  2  0  0  0  0  0  0
  181.5370  178.8490  141.6890 C   0  0  0  0  0  2  0  0  0  0  0  0
  182.8530  178.4240  141.0250 C   0  0  0  0  0  2  0  0  0  0  0  0
  179.6580  180.0440  143.6840 O   0  0  0  0  0  0  0  0  0  0  0  0
  179.5130  177.8540  144.3450 O   0  0  0  0  0  1  0  0  0  0  0  0
  180.1700  178.7540  143.7590 C   0  0  0  0  0  0  0  0  0  0  0  0
  1 16  1  0  0  0  0
  2  4  1  0  0  0  0
  2  8  1  0  0  0  0
  3  5  1  0  0  0  0
  3  1  1  1  0  0  0
  5 13  1  1  0  0  0
  6  4  1  6  0  0  0
  6  7  1  0  0  0  0
  6  3  1  0  0  0  0
  7  8  1  6  0  0  0
  7  5  1  0  0  0  0
  9 10  1  0  0  0  0
 10 11  1  6  0  0  0
 10 12  1  0  0  0  0
 12 14  1  0  0  0  0
 13  9  2  0  0  0  0
 13 15  1  0  0  0  0
 15 12  2  0  0  0  0
 16 18  1  0  0  0  0
 18 19  2  0  0  0  0
 18 17  1  0  0  0  0
 20  1  1  0  0  0  0
 21 22  1  6  0  0  0
 21 20  1  0  0  0  0
 23 21  1  6  0  0  0
 23 24  1  0  0  0  0
 24 26  1  0  0  0  0
 25 31  1  1  0  0  0
 25 26  1  0  0  0  0
 27 25  1  0  0  0  0
 28 27  1  0  0  0  0
 28 23  1  0  0  0  0
 29 31  2  0  0  0  0
 31 30  1  0  0  0  0
M  END
>  <MODEL>
6

>  <REMARK>
 VINA RESULT:      -6.4      4.629      8.118
  Name = 
  8 active torsions:
  status: ('A' for Active; 'I' for Inactive)
    1  A    between atoms: C_1  and  C_11
    2  A    between atoms: C_6  and  N_22
    3  A    between atoms: C_8  and  C_17
    4  A    between atoms: C_9  and  N_22
    5  A    between atoms: C_9  and  C_23
    6  A    between atoms: C_11  and  C_29
    7  A    between atoms: C_14  and  C_27
    8  A    between atoms: N_22  and  C_29
                            x       y       z     vdW  Elec       q    Type
                         _______ _______ _______ _____ _____    ______ ____

>  <TORSDO>
F 8

$$$$
=
 OpenBabel11062414323D

 31 34  0  0  1  0  0  0  0  0999 V2000
  189.1720  177.6760  138.0530 N   0  0  0  0  0  0  0  0  0  0  0  0
  193.2270  175.3310  137.7410 C   0  0  0  0  0  2  0  0  0  0  0  0
  190.3930  177.1170  137.4480 C   0  0  2  0  0  3  0  0  0  0  0  0
  192.6510  176.5840  138.3480 C   0  0  0  0  0  2  0  0  0  0  0  0
  190.1560  175.8510  136.6020 C   0  0  1  0  0  3  0  0  0  0  0  0
  191.1870  176.2770  138.4470 C   0  0  2  0  0  3  0  0  0  0  0  0
  191.0030  175.0460  137.5790 C   0  0  2  0  0  3  0  0  0  0  0  0
  192.2290  174.7130  136.9720 O   0  0  0  0  0  0  0  0  0  0  0  0
  188.1170  174.8690  137.5950 N   0  0  0  0  0  0  0  0  0  0  0  0
  186.7870  174.4740  137.1570 C   0  0  2  0  0  3  0  0  0  0  0  0
  186.6320  173.0380  137.3070 N   0  0  0  0  0  1  0  0  0  0  0  0
  186.8350  174.8320  135.7120 C   0  0  0  0  0  0  0  0  0  0  0  0
  188.7410  175.3370  136.5620 C   0  0  0  0  0  0  0  0  0  0  0  0
  185.7100  174.6610  134.7530 C   0  0  0  0  0  1  0  0  0  0  0  0
  187.9710  175.3350  135.3700 N   0  0  0  0  0  0  0  0  0  0  0  0
  188.7250  178.7970  137.2250 C   0  0  0  0  0  2  0  0  0  0  0  0
  186.3180  178.0670  137.4280 N   0  0  0  0  0  1  0  0  0  0  0  0
  187.3970  178.5050  136.6110 C   0  0  0  0  0  0  0  0  0  0  0  0
  187.2310  178.6280  135.3690 O   0  0  0  0  0  0  0  0  0  0  0  0
  189.4380  178.1590  139.4220 C   0  0  0  0  0  2  0  0  0  0  0  0
  188.3470  177.7920  140.4380 C   0  0  2  0  0  3  0  0  0  0  0  0
  187.2430  178.6280  140.2660 O   0  0  0  0  0  1  0  0  0  0  0  0
  188.8660  177.8700  141.8720 C   0  0  1  0  0  3  0  0  0  0  0  0
  187.8980  177.2450  142.8820 C   0  0  0  0  0  2  0  0  0  0  0  0
  189.9040  177.5620  144.4530 C   0  0  2  0  0  3  0  0  0  0  0  0
  188.3770  177.4690  144.3220 C   0  0  0  0  0  2  0  0  0  0  0  0
  190.6160  176.7450  143.3760 C   0  0  0  0  0  2  0  0  0  0  0  0
  190.2680  177.2510  141.9700 C   0  0  0  0  0  2  0  0  0  0  0  0
  191.6810  177.1280  146.1590 O   0  0  0  0  0  0  0  0  0  0  0  0
  189.4730  176.7530  146.6500 O   0  0  0  0  0  1  0  0  0  0  0  0
  190.3350  177.1280  145.8120 C   0  0  0  0  0  0  0  0  0  0  0  0
  1 20  1  0  0  0  0
  2  4  1  0  0  0  0
  3  1  1  1  0  0  0
  3  6  1  0  0  0  0
  5 13  1  1  0  0  0
  5  3  1  0  0  0  0
  5  7  1  0  0  0  0
  6  4  1  6  0  0  0
  7  8  1  6  0  0  0
  7  6  1  0  0  0  0
  8  2  1  0  0  0  0
 10 11  1  6  0  0  0
 10  9  1  0  0  0  0
 12 10  1  0  0  0  0
 13  9  2  0  0  0  0
 14 12  1  0  0  0  0
 15 12  2  0  0  0  0
 15 13  1  0  0  0  0
 16  1  1  0  0  0  0
 18 16  1  0  0  0  0
 18 17  1  0  0  0  0
 19 18  2  0  0  0  0
 20 21  1  0  0  0  0
 21 22  1  1  0  0  0
 23 21  1  6  0  0  0
 23 28  1  0  0  0  0
 23 24  1  0  0  0  0
 24 26  1  0  0  0  0
 25 31  1  1  0  0  0
 26 25  1  0  0  0  0
 27 25  1  0  0  0  0
 28 27  1  0  0  0  0
 31 29  2  0  0  0  0
 31 30  1  0  0  0  0
M  END
>  <MODEL>
7

>  <REMARK>
 VINA RESULT:      -6.3      6.026      8.238
  Name = 
  8 active torsions:
  status: ('A' for Active; 'I' for Inactive)
    1  A    between atoms: C_1  and  C_11
    2  A    between atoms: C_6  and  N_22
    3  A    between atoms: C_8  and  C_17
    4  A    between atoms: C_9  and  N_22
    5  A    between atoms: C_9  and  C_23
    6  A    between atoms: C_11  and  C_29
    7  A    between atoms: C_14  and  C_27
    8  A    between atoms: N_22  and  C_29
                            x       y       z     vdW  Elec       q    Type
                         _______ _______ _______ _____ _____    ______ ____

>  <TORSDO>
F 8

$$$$
=
 OpenBabel11062414323D

 31 34  0  0  1  0  0  0  0  0999 V2000
  180.8930  178.1560  140.2670 N   0  0  0  0  0  0  0  0  0  0  0  0
  179.8820  182.2820  138.2670 C   0  0  0  0  0  2  0  0  0  0  0  0
  180.2310  179.1280  139.3790 C   0  0  2  0  0  3  0  0  0  0  0  0
  179.7340  181.5570  139.5800 C   0  0  0  0  0  2  0  0  0  0  0  0
  180.7330  179.0940  137.9220 C   0  0  1  0  0  3  0  0  0  0  0  0
  180.8230  180.5280  139.5300 C   0  0  2  0  0  3  0  0  0  0  0  0
  181.2600  180.5140  138.0770 C   0  0  2  0  0  3  0  0  0  0  0  0
  180.4500  181.3980  137.3370 O   0  0  0  0  0  0  0  0  0  0  0  0
  181.6660  176.9000  137.2730 N   0  0  0  0  0  0  0  0  0  0  0  0
  182.9770  176.2990  137.0840 C   0  0  2  0  0  3  0  0  0  0  0  0
  183.1710  175.2390  138.0580 N   0  0  0  0  0  1  0  0  0  0  0  0
  183.8750  177.4460  137.3970 C   0  0  0  0  0  0  0  0  0  0  0  0
  181.8520  178.1310  137.6280 C   0  0  0  0  0  0  0  0  0  0  0  0
  185.3610  177.4070  137.3420 C   0  0  0  0  0  1  0  0  0  0  0  0
  183.2170  178.5090  137.7100 N   0  0  0  0  0  0  0  0  0  0  0  0
  179.8580  177.3430  140.9050 C   0  0  0  0  0  2  0  0  0  0  0  0
  180.1220  174.8560  140.5600 N   0  0  0  0  0  1  0  0  0  0  0  0
  179.5990  176.1030  140.1160 C   0  0  0  0  0  0  0  0  0  0  0  0
  178.9310  176.1560  139.0500 O   0  0  0  0  0  0  0  0  0  0  0  0
  181.6790  178.8470  141.3080 C   0  0  0  0  0  2  0  0  0  0  0  0
  183.1930  178.6070  141.2130 C   0  0  2  0  0  3  0  0  0  0  0  0
  183.4360  177.2940  140.8090 O   0  0  0  0  0  1  0  0  0  0  0  0
  183.8920  178.9040  142.5370 C   0  0  1  0  0  3  0  0  0  0  0  0
  183.0300  178.5370  143.7510 C   0  0  0  0  0  2  0  0  0  0  0  0
  185.2310  178.9910  144.9940 C   0  0  2  0  0  3  0  0  0  0  0  0
  183.6970  178.9820  145.0590 C   0  0  0  0  0  2  0  0  0  0  0  0
  185.7620  177.9480  144.0120 C   0  0  0  0  0  2  0  0  0  0  0  0
  185.2640  178.2170  142.5860 C   0  0  0  0  0  2  0  0  0  0  0  0
  185.6360  179.7310  147.3480 O   0  0  0  0  0  1  0  0  0  0  0  0
  186.4600  177.7290  146.5950 O   0  0  0  0  0  0  0  0  0  0  0  0
  185.8080  178.7780  146.3510 C   0  0  0  0  0  0  0  0  0  0  0  0
  1 16  1  0  0  0  0
  1 20  1  0  0  0  0
  2  4  1  0  0  0  0
  3  6  1  0  0  0  0
  3  1  1  1  0  0  0
  5 13  1  1  0  0  0
  5  7  1  0  0  0  0
  5  3  1  0  0  0  0
  6  4  1  6  0  0  0
  7  8  1  6  0  0  0
  7  6  1  0  0  0  0
  8  2  1  0  0  0  0
  9 13  2  0  0  0  0
 10  9  1  0  0  0  0
 10 12  1  0  0  0  0
 10 11  1  1  0  0  0
 12 15  2  0  0  0  0
 13 15  1  0  0  0  0
 14 12  1  0  0  0  0
 18 17  1  0  0  0  0
 18 16  1  0  0  0  0
 19 18  2  0  0  0  0
 21 22  1  1  0  0  0
 21 20  1  0  0  0  0
 23 21  1  6  0  0  0
 23 28  1  0  0  0  0
 23 24  1  0  0  0  0
 24 26  1  0  0  0  0
 25 26  1  0  0  0  0
 25 31  1  1  0  0  0
 27 25  1  0  0  0  0
 28 27  1  0  0  0  0
 31 30  2  0  0  0  0
 31 29  1  0  0  0  0
M  END
>  <MODEL>
8

>  <REMARK>
 VINA RESULT:      -6.1      1.929      4.653
  Name = 
  8 active torsions:
  status: ('A' for Active; 'I' for Inactive)
    1  A    between atoms: C_1  and  C_11
    2  A    between atoms: C_6  and  N_22
    3  A    between atoms: C_8  and  C_17
    4  A    between atoms: C_9  and  N_22
    5  A    between atoms: C_9  and  C_23
    6  A    between atoms: C_11  and  C_29
    7  A    between atoms: C_14  and  C_27
    8  A    between atoms: N_22  and  C_29
                            x       y       z     vdW  Elec       q    Type
                         _______ _______ _______ _____ _____    ______ ____

>  <TORSDO>
F 8

$$$$
=
 OpenBabel11062414323D

 31 34  0  0  1  0  0  0  0  0999 V2000
  187.2500  177.8670  140.7380 N   0  0  0  0  0  0  0  0  0  0  0  0
  190.1580  177.3300  137.0920 C   0  0  0  0  0  2  0  0  0  0  0  0
  188.0880  178.2330  139.5840 C   0  0  2  0  0  3  0  0  0  0  0  0
  190.1510  177.2540  138.5970 C   0  0  0  0  0  2  0  0  0  0  0  0
  187.2960  178.5020  138.2900 C   0  0  1  0  0  3  0  0  0  0  0  0
  188.7100  177.0040  138.9230 C   0  0  2  0  0  3  0  0  0  0  0  0
  187.9750  177.3090  137.6310 C   0  0  2  0  0  3  0  0  0  0  0  0
  188.8930  177.7660  136.6670 O   0  0  0  0  0  0  0  0  0  0  0  0
  185.2220  177.1650  138.1510 N   0  0  0  0  0  0  0  0  0  0  0  0
  183.7920  177.3720  138.3210 C   0  0  2  0  0  3  0  0  0  0  0  0
  183.1150  177.1500  137.0550 N   0  0  0  0  0  1  0  0  0  0  0  0
  183.7440  178.8180  138.6760 C   0  0  0  0  0  0  0  0  0  0  0  0
  185.8060  178.3000  138.3700 C   0  0  0  0  0  0  0  0  0  0  0  0
  182.5040  179.5790  138.9880 C   0  0  0  0  0  1  0  0  0  0  0  0
  184.9160  179.3530  138.7060 N   0  0  0  0  0  0  0  0  0  0  0  0
  186.7660  179.1010  141.3600 C   0  0  0  0  0  2  0  0  0  0  0  0
  185.2160  179.6560  143.2720 N   0  0  0  0  0  1  0  0  0  0  0  0
  185.5220  178.8470  142.1430 C   0  0  0  0  0  0  0  0  0  0  0  0
  184.7480  177.9080  141.8190 O   0  0  0  0  0  0  0  0  0  0  0  0
  188.0270  177.0970  141.7280 C   0  0  0  0  0  2  0  0  0  0  0  0
  189.1960  177.8770  142.3500 C   0  0  2  0  0  3  0  0  0  0  0  0
  190.3960  177.2160  142.0840 O   0  0  0  0  0  1  0  0  0  0  0  0
  189.0050  178.0700  143.8520 C   0  0  1  0  0  3  0  0  0  0  0  0
  187.8340  177.2510  144.4050 C   0  0  0  0  0  2  0  0  0  0  0  0
  188.8390  178.0020  146.6460 C   0  0  2  0  0  3  0  0  0  0  0  0
  187.5760  177.5780  145.8810 C   0  0  0  0  0  2  0  0  0  0  0  0
  190.0960  177.3580  146.0630 C   0  0  0  0  0  2  0  0  0  0  0  0
  190.3110  177.7730  144.6030 C   0  0  0  0  0  2  0  0  0  0  0  0
  189.4280  178.3800  149.0460 O   0  0  0  0  0  1  0  0  0  0  0  0
  187.9280  176.7520  148.4550 O   0  0  0  0  0  0  0  0  0  0  0  0
  188.7020  177.6760  148.0930 C   0  0  0  0  0  0  0  0  0  0  0  0
  1 16  1  0  0  0  0
  1 20  1  0  0  0  0
  2  4  1  0  0  0  0
  3  1  1  1  0  0  0
  5 13  1  1  0  0  0
  5  3  1  0  0  0  0
  6  4  1  6  0  0  0
  6  3  1  0  0  0  0
  7  8  1  6  0  0  0
  7  5  1  0  0  0  0
  7  6  1  0  0  0  0
  8  2  1  0  0  0  0
  9 10  1  0  0  0  0
  9 13  2  0  0  0  0
 10 11  1  6  0  0  0
 10 12  1  0  0  0  0
 12 15  2  0  0  0  0
 12 14  1  0  0  0  0
 13 15  1  0  0  0  0
 16 18  1  0  0  0  0
 18 17  1  0  0  0  0
 19 18  2  0  0  0  0
 20 21  1  0  0  0  0
 21 22  1  1  0  0  0
 23 21  1  6  0  0  0
 23 24  1  0  0  0  0
 23 28  1  0  0  0  0
 24 26  1  0  0  0  0
 25 31  1  1  0  0  0
 26 25  1  0  0  0  0
 27 25  1  0  0  0  0
 28 27  1  0  0  0  0
 31 30  2  0  0  0  0
 31 29  1  0  0  0  0
M  END
>  <MODEL>
9

>  <REMARK>
 VINA RESULT:      -6.0      3.633      6.093
  Name = 
  8 active torsions:
  status: ('A' for Active; 'I' for Inactive)
    1  A    between atoms: C_1  and  C_11
    2  A    between atoms: C_6  and  N_22
    3  A    between atoms: C_8  and  C_17
    4  A    between atoms: C_9  and  N_22
    5  A    between atoms: C_9  and  C_23
    6  A    between atoms: C_11  and  C_29
    7  A    between atoms: C_14  and  C_27
    8  A    between atoms: N_22  and  C_29
                            x       y       z     vdW  Elec       q    Type
                         _______ _______ _______ _____ _____    ______ ____

>  <TORSDO>
F 8

$$$$
