=
 OpenBabel11062413483D

 52 56  0  0  1  0  0  0  0  0999 V2000
  189.4950  176.9650  146.6390 N   0  0  0  0  0  0  0  0  0  0  0  0
  187.9360  177.9340  145.0840 C   0  0  0  0  0  0  0  0  0  0  0  0
  187.0360  178.1190  146.1530 C   0  0  0  0  0  0  0  0  0  0  0  0
  189.1920  177.3320  145.3630 C   0  0  0  0  0  0  0  0  0  0  0  0
  188.6370  177.1530  147.6730 C   0  0  0  0  0  3  0  0  0  0  0  0
  187.3950  177.7380  147.4500 C   0  0  0  0  0  3  0  0  0  0  0  0
  185.6580  180.1880  146.0900 O   0  0  0  0  0  1  0  0  0  0  0  0
  184.6540  178.1580  146.5860 O   0  0  0  0  0  0  0  0  0  0  0  0
  184.6460  178.1080  145.1730 C   0  0  2  0  0  3  0  0  0  0  0  0
  185.7210  178.8000  145.9310 C   0  0  2  0  0  0  0  0  0  0  0  0
  183.6050  179.0780  144.6320 C   0  0  0  0  0  2  0  0  0  0  0  0
  181.5790  179.6050  142.0760 C   0  0  2  0  0  3  0  0  0  0  0  0
  182.4970  178.3320  143.9200 C   0  0  2  0  0  3  0  0  0  0  0  0
  182.6200  178.5690  142.4250 C   0  0  0  0  0  2  0  0  0  0  0  0
  180.4710  179.3930  143.0800 C   0  0  0  0  0  2  0  0  0  0  0  0
  181.1470  178.8880  144.3390 C   0  0  0  0  0  2  0  0  0  0  0  0
  179.8420  179.6720  140.4510 O   0  0  0  0  0  0  0  0  0  0  0  0
  181.0670  179.4780  140.6750 C   0  0  0  0  0  0  0  0  0  0  0  0
  181.9530  179.1750  139.5960 N   0  0  0  0  0  2  0  0  0  0  0  0
  181.4750  178.9720  138.2370 C   0  0  1  0  0  3  0  0  0  0  0  0
  181.2760  180.3230  137.5610 C   0  0  0  0  0  1  0  0  0  0  0  0
  183.8000  178.0010  138.1500 C   0  0  0  0  0  1  0  0  0  0  0  0
  181.8960  176.7270  137.2950 N   0  0  0  0  0  1  0  0  0  0  0  0
  182.4410  178.0720  137.4600 C   0  0  1  0  0  3  0  0  0  0  0  0
  190.2060  177.0490  144.3020 C   0  0  0  0  0  2  0  0  0  0  0  0
  190.7110  178.3400  143.6650 C   0  0  0  0  0  2  0  0  0  0  0  0
  191.8300  178.0430  142.6740 C   0  0  0  0  0  2  0  0  0  0  0  0
  191.2730  177.3660  141.4240 C   0  0  0  0  0  2  0  0  0  0  0  0
  192.3030  177.3570  140.3020 C   0  0  0  0  0  2  0  0  0  0  0  0
  191.7350  176.7900  139.0130 C   0  0  0  0  0  2  0  0  0  0  0  0
  192.8530  176.4270  138.0560 C   0  0  1  0  0  3  0  0  0  0  0  0
  193.1090  174.9220  138.1340 C   0  0  0  0  0  2  0  0  0  0  0  0
  192.3980  175.5010  136.9290 C   0  0  1  0  0  0  0  0  0  0  0  0
  190.6370  173.9060  137.3650 O   0  0  0  0  0  1  0  0  0  0  0  0
  190.9100  175.1580  136.7980 C   0  0  2  0  0  3  0  0  0  0  0  0
  190.4190  175.2390  135.3500 C   0  0  0  0  0  2  0  0  0  0  0  0
  189.2500  174.4850  135.1630 O   0  0  0  0  0  0  0  0  0  0  0  0
  188.2700  175.4430  134.8800 C   0  0  0  0  0  2  0  0  0  0  0  0
  186.9630  175.1170  135.5860 C   0  0  2  0  0  3  0  0  0  0  0  0
  186.0200  174.6390  134.6770 O   0  0  0  0  0  1  0  0  0  0  0  0
  186.4490  176.2860  136.2800 N   0  0  0  0  0  2  0  0  0  0  0  0
  187.4920  176.7160  137.1920 C   0  0  0  0  0  2  0  0  0  0  0  0
  188.8460  178.6360  137.9590 C   0  0  0  0  0  1  0  0  0  0  0  0
  187.6390  178.2250  137.1350 C   0  0  0  0  0  2  0  0  0  0  0  0
  193.1900  175.6100  135.7800 O   0  0  0  0  0  0  0  0  0  0  0  0
  193.8780  176.7550  135.9070 O   0  0  0  0  0  0  0  0  0  0  0  0
  195.1070  176.9100  135.2710 C   0  0  0  0  0  3  0  0  0  0  0  0
  196.1480  176.4160  135.7650 O   0  0  0  0  0  0  0  0  0  0  0  0
  187.5300  178.3660  143.8060 O   0  0  0  0  0  0  0  0  0  0  0  0
  187.2230  177.5340  142.7060 C   0  0  0  0  0  3  0  0  0  0  0  0
  186.3460  178.3000  141.7390 C   0  0  0  0  0  2  0  0  0  0  0  0
  187.8200  178.1240  141.4550 C   0  0  0  0  0  2  0  0  0  0  0  0
  1  5  1  0  0  0  0
  2  4  1  0  0  0  0
  2  3  2  0  0  0  0
  3  6  1  0  0  0  0
  4  1  2  0  0  0  0
  6  5  2  0  0  0  0
  9 11  1  6  0  0  0
  9 10  1  0  0  0  0
  9  8  1  0  0  0  0
 10  7  1  6  0  0  0
 10  3  1  0  0  0  0
 10  8  1  0  0  0  0
 12 18  1  6  0  0  0
 12 14  1  0  0  0  0
 12 15  1  0  0  0  0
 13 16  1  0  0  0  0
 13 11  1  1  0  0  0
 14 13  1  0  0  0  0
 15 16  1  0  0  0  0
 17 18  2  0  0  0  0
 19 18  1  0  0  0  0
 20 21  1  6  0  0  0
 20 19  1  0  0  0  0
 23 24  1  0  0  0  0
 24 22  1  1  0  0  0
 24 20  1  0  0  0  0
 25  4  1  0  0  0  0
 26 25  1  0  0  0  0
 27 26  1  0  0  0  0
 28 27  1  0  0  0  0
 29 28  1  0  0  0  0
 30 29  1  0  0  0  0
 31 32  1  0  0  0  0
 31 30  1  1  0  0  0
 33 45  1  6  0  0  0
 33 31  1  0  0  0  0
 33 32  1  0  0  0  0
 35 33  1  0  0  0  0
 35 34  1  6  0  0  0
 36 35  1  0  0  0  0
 37 36  1  0  0  0  0
 38 37  1  0  0  0  0
 38 39  1  0  0  0  0
 39 40  1  6  0  0  0
 39 41  1  0  0  0  0
 41 42  1  0  0  0  0
 44 42  1  0  0  0  0
 44 43  1  0  0  0  0
 45 46  1  0  0  0  0
 47 48  2  0  0  0  0
 47 46  1  0  0  0  0
 49  2  1  0  0  0  0
 50 49  1  0  0  0  0
 51 50  1  0  0  0  0
 52 51  1  0  0  0  0
 52 50  1  0  0  0  0
M  END
>  <MODEL>
1

>  <REMARK>
 VINA RESULT:      -5.6      0.000      0.000
  Name = 
  26 active torsions:
  status: ('A' for Active; 'I' for Inactive)
    1  A    between atoms: C_2  and  C_21
    2  A    between atoms: C_2  and  C_22
    3  A    between atoms: C_3  and  C_19
    4  A    between atoms: C_4  and  C_5
    5  A    between atoms: C_4  and  C_34
    6  A    between atoms: C_6  and  N_31
    7  A    between atoms: C_6  and  C_39
    8  A    between atoms: O_7  and  C_37
    9  A    between atoms: O_7  and  O_40
   10  A    between atoms: C_8  and  N_25
   11  A    between atoms: C_8  and  C_43
   12  A    between atoms: C_12  and  C_41
   13  A    between atoms: C_12  and  O_50
   14  A    between atoms: O_14  and  C_15
   15  A    between atoms: O_14  and  C_16
   16  A    between atoms: C_18  and  C_24
   17  A    between atoms: C_18  and  C_29
   18  A    between atoms: C_21  and  C_26
   19  A    between atoms: C_23  and  C_48
   20  A    between atoms: C_24  and  C_42
   21  A    between atoms: N_25  and  C_30
   22  A    between atoms: C_26  and  C_29
   23  A    between atoms: C_28  and  O_40
   24  A    between atoms: C_28  and  C_41
   25  A    between atoms: C_30  and  C_44
   26  A    between atoms: C_43  and  O_50
                            x       y       z     vdW  Elec       q    Type
                         _______ _______ _______ _____ _____    ______ ____

>  <TORSDO>
F 26

$$$$
=
 OpenBabel11062413483D

 52 56  0  0  1  0  0  0  0  0999 V2000
  183.4270  178.0260  137.9860 N   0  0  0  0  0  0  0  0  0  0  0  0
  185.8310  178.0430  137.9060 C   0  0  0  0  0  0  0  0  0  0  0  0
  185.7640  177.2750  136.7260 C   0  0  0  0  0  0  0  0  0  0  0  0
  184.6120  178.4100  138.5360 C   0  0  0  0  0  0  0  0  0  0  0  0
  183.3570  177.2990  136.8430 C   0  0  0  0  0  3  0  0  0  0  0  0
  184.5240  176.9140  136.1900 C   0  0  0  0  0  3  0  0  0  0  0  0
  187.6820  177.9070  135.2760 O   0  0  0  0  0  1  0  0  0  0  0  0
  186.8690  175.7370  135.2180 O   0  0  0  0  0  0  0  0  0  0  0  0
  187.7360  175.6540  136.3310 C   0  0  2  0  0  3  0  0  0  0  0  0
  187.0120  176.9050  135.9870 C   0  0  2  0  0  0  0  0  0  0  0  0
  189.1820  175.6740  135.8560 C   0  0  0  0  0  2  0  0  0  0  0  0
  192.4170  175.1240  136.2420 C   0  0  2  0  0  3  0  0  0  0  0  0
  190.1240  175.3280  136.9900 C   0  0  2  0  0  3  0  0  0  0  0  0
  191.4190  176.1010  136.8140 C   0  0  0  0  0  2  0  0  0  0  0  0
  191.9900  173.7770  136.7780 C   0  0  0  0  0  2  0  0  0  0  0  0
  190.4850  173.8540  136.9320 C   0  0  0  0  0  2  0  0  0  0  0  0
  194.1320  176.6100  136.9590 O   0  0  0  0  0  0  0  0  0  0  0  0
  193.8310  175.4320  136.6280 C   0  0  0  0  0  0  0  0  0  0  0  0
  194.8230  174.4040  136.6560 N   0  0  0  0  0  2  0  0  0  0  0  0
  196.2190  174.6850  136.9540 C   0  0  1  0  0  3  0  0  0  0  0  0
  196.7110  173.7250  138.0300 C   0  0  0  0  0  1  0  0  0  0  0  0
  197.0940  175.9520  134.9580 C   0  0  0  0  0  1  0  0  0  0  0  0
  198.4250  174.1660  135.9700 N   0  0  0  0  0  1  0  0  0  0  0  0
  197.0630  174.6070  135.6780 C   0  0  1  0  0  3  0  0  0  0  0  0
  184.5640  179.1870  139.8120 C   0  0  0  0  0  2  0  0  0  0  0  0
  184.0980  178.3130  140.9730 C   0  0  0  0  0  2  0  0  0  0  0  0
  183.1440  179.0870  141.8730 C   0  0  0  0  0  2  0  0  0  0  0  0
  182.6780  178.2160  143.0360 C   0  0  0  0  0  2  0  0  0  0  0  0
  182.5650  179.0290  144.3190 C   0  0  0  0  0  2  0  0  0  0  0  0
  183.8030  178.8960  145.1880 C   0  0  0  0  0  2  0  0  0  0  0  0
  184.9430  178.2830  144.3980 C   0  0  1  0  0  3  0  0  0  0  0  0
  186.1460  179.2240  144.4460 C   0  0  0  0  0  2  0  0  0  0  0  0
  186.1570  177.9480  145.2620 C   0  0  1  0  0  0  0  0  0  0  0  0
  185.3880  179.3070  147.1060 O   0  0  0  0  0  1  0  0  0  0  0  0
  186.0630  178.1220  146.7820 C   0  0  2  0  0  3  0  0  0  0  0  0
  187.4340  178.0510  147.4610 C   0  0  0  0  0  2  0  0  0  0  0  0
  188.2600  177.0950  146.8500 O   0  0  0  0  0  0  0  0  0  0  0  0
  189.5220  177.6970  146.8360 C   0  0  0  0  0  2  0  0  0  0  0  0
  190.6100  176.7000  147.2080 C   0  0  2  0  0  3  0  0  0  0  0  0
  191.5420  177.2870  148.0630 O   0  0  0  0  0  1  0  0  0  0  0  0
  191.2680  176.1900  146.0160 N   0  0  0  0  0  2  0  0  0  0  0  0
  191.4700  177.3270  145.1380 C   0  0  0  0  0  2  0  0  0  0  0  0
  191.5960  178.0350  142.7730 C   0  0  0  0  0  1  0  0  0  0  0  0
  191.6890  176.8480  143.7150 C   0  0  0  0  0  2  0  0  0  0  0  0
  186.9400  176.9190  144.7270 O   0  0  0  0  0  0  0  0  0  0  0  0
  187.5740  177.4450  143.6670 O   0  0  0  0  0  0  0  0  0  0  0  0
  188.3280  176.6310  142.8250 C   0  0  0  0  0  3  0  0  0  0  0  0
  188.5900  175.4490  143.1470 O   0  0  0  0  0  0  0  0  0  0  0  0
  187.1080  178.4010  138.3810 O   0  0  0  0  0  0  0  0  0  0  0  0
  187.6990  177.9650  139.5890 C   0  0  0  0  0  3  0  0  0  0  0  0
  189.0630  177.3840  139.2880 C   0  0  0  0  0  2  0  0  0  0  0  0
  188.9380  178.7790  139.8570 C   0  0  0  0  0  2  0  0  0  0  0  0
  1  4  1  0  0  0  0
  2 49  1  0  0  0  0
  2  4  2  0  0  0  0
  3  2  1  0  0  0  0
  4 25  1  0  0  0  0
  5  1  2  0  0  0  0
  6  3  2  0  0  0  0
  6  5  1  0  0  0  0
  8 10  1  0  0  0  0
  8  9  1  0  0  0  0
  9 11  1  6  0  0  0
 10  7  1  6  0  0  0
 10  9  1  0  0  0  0
 10  3  1  0  0  0  0
 12 18  1  1  0  0  0
 12 15  1  0  0  0  0
 12 14  1  0  0  0  0
 13 11  1  6  0  0  0
 14 13  1  0  0  0  0
 15 16  1  0  0  0  0
 16 13  1  0  0  0  0
 18 19  1  0  0  0  0
 18 17  2  0  0  0  0
 19 20  1  0  0  0  0
 20 21  1  1  0  0  0
 24 22  1  1  0  0  0
 24 23  1  0  0  0  0
 24 20  1  0  0  0  0
 25 26  1  0  0  0  0
 26 27  1  0  0  0  0
 27 28  1  0  0  0  0
 28 29  1  0  0  0  0
 29 30  1  0  0  0  0
 31 32  1  0  0  0  0
 31 30  1  1  0  0  0
 31 33  1  0  0  0  0
 32 33  1  0  0  0  0
 33 45  1  6  0  0  0
 33 35  1  0  0  0  0
 35 34  1  6  0  0  0
 35 36  1  0  0  0  0
 37 36  1  0  0  0  0
 38 37  1  0  0  0  0
 38 39  1  0  0  0  0
 39 40  1  1  0  0  0
 41 39  1  0  0  0  0
 42 41  1  0  0  0  0
 43 44  1  0  0  0  0
 44 42  1  0  0  0  0
 46 45  1  0  0  0  0
 47 48  2  0  0  0  0
 47 46  1  0  0  0  0
 49 50  1  0  0  0  0
 50 52  1  0  0  0  0
 51 50  1  0  0  0  0
 51 52  1  0  0  0  0
M  END
>  <MODEL>
2

>  <REMARK>
 VINA RESULT:      -5.5      2.938     11.188
  Name = 
  26 active torsions:
  status: ('A' for Active; 'I' for Inactive)
    1  A    between atoms: C_2  and  C_21
    2  A    between atoms: C_2  and  C_22
    3  A    between atoms: C_3  and  C_19
    4  A    between atoms: C_4  and  C_5
    5  A    between atoms: C_4  and  C_34
    6  A    between atoms: C_6  and  N_31
    7  A    between atoms: C_6  and  C_39
    8  A    between atoms: O_7  and  C_37
    9  A    between atoms: O_7  and  O_40
   10  A    between atoms: C_8  and  N_25
   11  A    between atoms: C_8  and  C_43
   12  A    between atoms: C_12  and  C_41
   13  A    between atoms: C_12  and  O_50
   14  A    between atoms: O_14  and  C_15
   15  A    between atoms: O_14  and  C_16
   16  A    between atoms: C_18  and  C_24
   17  A    between atoms: C_18  and  C_29
   18  A    between atoms: C_21  and  C_26
   19  A    between atoms: C_23  and  C_48
   20  A    between atoms: C_24  and  C_42
   21  A    between atoms: N_25  and  C_30
   22  A    between atoms: C_26  and  C_29
   23  A    between atoms: C_28  and  O_40
   24  A    between atoms: C_28  and  C_41
   25  A    between atoms: C_30  and  C_44
   26  A    between atoms: C_43  and  O_50
                            x       y       z     vdW  Elec       q    Type
                         _______ _______ _______ _____ _____    ______ ____

>  <TORSDO>
F 26

$$$$
=
 OpenBabel11062413483D

 52 56  0  0  1  0  0  0  0  0999 V2000
  188.9390  178.1920  139.4890 N   0  0  0  0  0  0  0  0  0  0  0  0
  189.8810  176.2160  138.4920 C   0  0  0  0  0  0  0  0  0  0  0  0
  188.7170  176.0960  137.7080 C   0  0  0  0  0  0  0  0  0  0  0  0
  189.9650  177.3010  139.4050 C   0  0  0  0  0  0  0  0  0  0  0  0
  187.8220  178.0890  138.7270 C   0  0  0  0  0  3  0  0  0  0  0  0
  187.6930  177.0420  137.8200 C   0  0  0  0  0  3  0  0  0  0  0  0
  188.9840  173.7130  137.0530 O   0  0  0  0  0  1  0  0  0  0  0  0
  189.1150  175.3670  135.4340 O   0  0  0  0  0  0  0  0  0  0  0  0
  187.7150  175.1910  135.5060 C   0  0  2  0  0  3  0  0  0  0  0  0
  188.5940  175.0060  136.6890 C   0  0  2  0  0  0  0  0  0  0  0  0
  187.3300  173.8680  134.8590 C   0  0  0  0  0  2  0  0  0  0  0  0
  184.9620  174.7200  137.0000 C   0  0  2  0  0  3  0  0  0  0  0  0
  185.8580  173.5810  135.0600 C   0  0  2  0  0  3  0  0  0  0  0  0
  185.1600  174.8530  135.5090 C   0  0  0  0  0  2  0  0  0  0  0  0
  184.8290  173.2350  137.2410 C   0  0  0  0  0  2  0  0  0  0  0  0
  185.6760  172.5680  136.1760 C   0  0  0  0  0  2  0  0  0  0  0  0
  183.9120  176.5920  138.0280 O   0  0  0  0  0  0  0  0  0  0  0  0
  183.7590  175.4560  137.5030 C   0  0  0  0  0  0  0  0  0  0  0  0
  182.4500  174.9020  137.3630 N   0  0  0  0  0  2  0  0  0  0  0  0
  181.2710  175.5570  137.9060 C   0  0  1  0  0  3  0  0  0  0  0  0
  181.2910  175.4590  139.4270 C   0  0  0  0  0  1  0  0  0  0  0  0
  180.6120  177.0840  136.0110 C   0  0  0  0  0  1  0  0  0  0  0  0
  180.4000  177.8300  138.3310 N   0  0  0  0  0  1  0  0  0  0  0  0
  181.1930  177.0070  137.4200 C   0  0  1  0  0  3  0  0  0  0  0  0
  191.1340  177.5030  140.3150 C   0  0  0  0  0  2  0  0  0  0  0  0
  190.8950  176.8500  141.6730 C   0  0  0  0  0  2  0  0  0  0  0  0
  190.8150  177.9080  142.7670 C   0  0  0  0  0  2  0  0  0  0  0  0
  189.3720  178.0970  143.2250 C   0  0  0  0  0  2  0  0  0  0  0  0
  188.6950  176.7550  143.4680 C   0  0  0  0  0  2  0  0  0  0  0  0
  187.1930  176.8980  143.6410 C   0  0  0  0  0  2  0  0  0  0  0  0
  186.6280  177.8470  142.6020 C   0  0  1  0  0  3  0  0  0  0  0  0
  185.1940  177.4310  142.2730 C   0  0  0  0  0  2  0  0  0  0  0  0
  185.4440  178.6630  143.1190 C   0  0  1  0  0  0  0  0  0  0  0  0
  183.6560  178.6010  144.7420 O   0  0  0  0  0  1  0  0  0  0  0  0
  185.0500  178.5550  144.5960 C   0  0  2  0  0  3  0  0  0  0  0  0
  185.7410  179.6120  145.4620 C   0  0  0  0  0  2  0  0  0  0  0  0
  186.0090  179.1230  146.7490 O   0  0  0  0  0  0  0  0  0  0  0  0
  186.6400  177.8950  146.5220 C   0  0  0  0  0  2  0  0  0  0  0  0
  187.7780  177.6710  147.5070 C   0  0  2  0  0  3  0  0  0  0  0  0
  187.5970  178.4480  148.6510 O   0  0  0  0  0  1  0  0  0  0  0  0
  189.0580  177.9720  146.8890 N   0  0  0  0  0  2  0  0  0  0  0  0
  190.0290  177.0780  147.4940 C   0  0  0  0  0  2  0  0  0  0  0  0
  192.1100  175.7970  147.1310 C   0  0  0  0  0  1  0  0  0  0  0  0
  191.0400  176.6330  146.4540 C   0  0  0  0  0  2  0  0  0  0  0  0
  185.2830  179.8780  142.4430 O   0  0  0  0  0  0  0  0  0  0  0  0
  185.6070  179.6400  141.1630 O   0  0  0  0  0  0  0  0  0  0  0  0
  184.6150  179.3550  140.2280 C   0  0  0  0  0  3  0  0  0  0  0  0
  184.3150  180.1880  139.3420 O   0  0  0  0  0  0  0  0  0  0  0  0
  190.8910  175.2500  138.3140 O   0  0  0  0  0  0  0  0  0  0  0  0
  192.2420  175.5080  137.9900 C   0  0  0  0  0  3  0  0  0  0  0  0
  192.7330  174.4400  137.0370 C   0  0  0  0  0  2  0  0  0  0  0  0
  192.3510  175.8080  136.5170 C   0  0  0  0  0  2  0  0  0  0  0  0
  2  4  2  0  0  0  0
  3  6  2  0  0  0  0
  3  2  1  0  0  0  0
  4  1  1  0  0  0  0
  4 25  1  0  0  0  0
  5  1  2  0  0  0  0
  6  5  1  0  0  0  0
  8  9  1  0  0  0  0
  8 10  1  0  0  0  0
  9 11  1  6  0  0  0
  9 10  1  0  0  0  0
 10  7  1  1  0  0  0
 10  3  1  0  0  0  0
 12 15  1  0  0  0  0
 12 18  1  6  0  0  0
 13 11  1  1  0  0  0
 13 14  1  0  0  0  0
 13 16  1  0  0  0  0
 14 12  1  0  0  0  0
 16 15  1  0  0  0  0
 18 17  2  0  0  0  0
 19 18  1  0  0  0  0
 19 20  1  0  0  0  0
 20 21  1  1  0  0  0
 24 22  1  6  0  0  0
 24 20  1  0  0  0  0
 24 23  1  0  0  0  0
 25 26  1  0  0  0  0
 26 27  1  0  0  0  0
 27 28  1  0  0  0  0
 28 29  1  0  0  0  0
 29 30  1  0  0  0  0
 31 33  1  0  0  0  0
 31 30  1  1  0  0  0
 32 31  1  0  0  0  0
 32 33  1  0  0  0  0
 33 45  1  6  0  0  0
 33 35  1  0  0  0  0
 35 34  1  6  0  0  0
 35 36  1  0  0  0  0
 36 37  1  0  0  0  0
 38 37  1  0  0  0  0
 38 39  1  0  0  0  0
 39 40  1  1  0  0  0
 41 42  1  0  0  0  0
 41 39  1  0  0  0  0
 44 43  1  0  0  0  0
 44 42  1  0  0  0  0
 46 45  1  0  0  0  0
 47 46  1  0  0  0  0
 48 47  2  0  0  0  0
 49  2  1  0  0  0  0
 50 49  1  0  0  0  0
 51 50  1  0  0  0  0
 52 51  1  0  0  0  0
 52 50  1  0  0  0  0
M  END
>  <MODEL>
3

>  <REMARK>
 VINA RESULT:      -5.5      2.410      9.030
  Name = 
  26 active torsions:
  status: ('A' for Active; 'I' for Inactive)
    1  A    between atoms: C_2  and  C_21
    2  A    between atoms: C_2  and  C_22
    3  A    between atoms: C_3  and  C_19
    4  A    between atoms: C_4  and  C_5
    5  A    between atoms: C_4  and  C_34
    6  A    between atoms: C_6  and  N_31
    7  A    between atoms: C_6  and  C_39
    8  A    between atoms: O_7  and  C_37
    9  A    between atoms: O_7  and  O_40
   10  A    between atoms: C_8  and  N_25
   11  A    between atoms: C_8  and  C_43
   12  A    between atoms: C_12  and  C_41
   13  A    between atoms: C_12  and  O_50
   14  A    between atoms: O_14  and  C_15
   15  A    between atoms: O_14  and  C_16
   16  A    between atoms: C_18  and  C_24
   17  A    between atoms: C_18  and  C_29
   18  A    between atoms: C_21  and  C_26
   19  A    between atoms: C_23  and  C_48
   20  A    between atoms: C_24  and  C_42
   21  A    between atoms: N_25  and  C_30
   22  A    between atoms: C_26  and  C_29
   23  A    between atoms: C_28  and  O_40
   24  A    between atoms: C_28  and  C_41
   25  A    between atoms: C_30  and  C_44
   26  A    between atoms: C_43  and  O_50
                            x       y       z     vdW  Elec       q    Type
                         _______ _______ _______ _____ _____    ______ ____

>  <TORSDO>
F 26

$$$$
=
 OpenBabel11062413483D

 52 56  0  0  1  0  0  0  0  0999 V2000
  189.2120  177.8620  137.0980 N   0  0  0  0  0  0  0  0  0  0  0  0
  187.6870  176.0100  136.9320 C   0  0  0  0  0  0  0  0  0  0  0  0
  186.7530  176.8760  136.3300 C   0  0  0  0  0  0  0  0  0  0  0  0
  188.9430  176.5470  137.3230 C   0  0  0  0  0  0  0  0  0  0  0  0
  188.3220  178.6970  136.5060 C   0  0  0  0  0  3  0  0  0  0  0  0
  187.0780  178.2180  136.1070 C   0  0  0  0  0  3  0  0  0  0  0  0
  185.4230  175.5230  134.7220 O   0  0  0  0  0  1  0  0  0  0  0  0
  184.4500  177.3560  135.7550 O   0  0  0  0  0  0  0  0  0  0  0  0
  184.2540  176.3700  136.7490 C   0  0  2  0  0  3  0  0  0  0  0  0
  185.4340  176.3560  135.8460 C   0  0  2  0  0  0  0  0  0  0  0  0
  183.1720  175.3990  136.3010 C   0  0  0  0  0  2  0  0  0  0  0  0
  181.1230  175.7370  138.8710 C   0  0  2  0  0  3  0  0  0  0  0  0
  181.7950  175.9740  136.5570 C   0  0  2  0  0  3  0  0  0  0  0  0
  181.7940  176.6800  137.9010 C   0  0  0  0  0  2  0  0  0  0  0  0
  180.1480  174.9470  138.0290 C   0  0  0  0  0  2  0  0  0  0  0  0
  180.7750  174.8530  136.6520 C   0  0  0  0  0  2  0  0  0  0  0  0
  179.7310  175.7680  140.8000 O   0  0  0  0  0  0  0  0  0  0  0  0
  180.4190  176.4430  139.9880 C   0  0  0  0  0  0  0  0  0  0  0  0
  180.5480  177.8550  140.1580 N   0  0  0  0  0  2  0  0  0  0  0  0
  179.8180  178.5800  141.1870 C   0  0  1  0  0  3  0  0  0  0  0  0
  180.6580  178.6400  142.4580 C   0  0  0  0  0  1  0  0  0  0  0  0
  179.1840  180.9290  141.8480 C   0  0  0  0  0  1  0  0  0  0  0  0
  180.4490  180.5210  139.7950 N   0  0  0  0  0  1  0  0  0  0  0  0
  179.4280  179.9730  140.6840 C   0  0  1  0  0  3  0  0  0  0  0  0
  189.9920  175.7310  138.0070 C   0  0  0  0  0  2  0  0  0  0  0  0
  191.1770  175.4700  137.0820 C   0  0  0  0  0  2  0  0  0  0  0  0
  192.4400  176.1150  137.6400 C   0  0  0  0  0  2  0  0  0  0  0  0
  192.0930  177.0960  138.7570 C   0  0  0  0  0  2  0  0  0  0  0  0
  193.0760  176.9780  139.9140 C   0  0  0  0  0  2  0  0  0  0  0  0
  192.4300  177.3120  141.2460 C   0  0  0  0  0  2  0  0  0  0  0  0
  190.9490  177.5840  141.0640 C   0  0  1  0  0  3  0  0  0  0  0  0
  190.1540  176.3910  141.5920 C   0  0  0  0  0  2  0  0  0  0  0  0
  190.1920  177.6800  142.3880 C   0  0  1  0  0  0  0  0  0  0  0  0
  191.3210  176.3150  144.0310 O   0  0  0  0  0  1  0  0  0  0  0  0
  190.9760  177.6340  143.7030 C   0  0  2  0  0  3  0  0  0  0  0  0
  190.2310  178.3220  144.8500 C   0  0  0  0  0  2  0  0  0  0  0  0
  189.0290  177.6620  145.1480 O   0  0  0  0  0  0  0  0  0  0  0  0
  189.1950  177.2370  146.4710 C   0  0  0  0  0  2  0  0  0  0  0  0
  188.5630  178.2190  147.4460 C   0  0  2  0  0  3  0  0  0  0  0  0
  189.3390  178.3340  148.5990 O   0  0  0  0  0  1  0  0  0  0  0  0
  187.2110  177.8070  147.7860 N   0  0  0  0  0  2  0  0  0  0  0  0
  186.3350  178.8900  147.3820 C   0  0  0  0  0  2  0  0  0  0  0  0
  185.3240  179.1370  145.1410 C   0  0  0  0  0  1  0  0  0  0  0  0
  185.2610  178.3660  146.4470 C   0  0  0  0  0  2  0  0  0  0  0  0
  189.0310  178.4570  142.2970 O   0  0  0  0  0  0  0  0  0  0  0  0
  188.2810  177.8970  141.3350 O   0  0  0  0  0  0  0  0  0  0  0  0
  187.0660  178.4700  140.9690 C   0  0  0  0  0  3  0  0  0  0  0  0
  186.7650  178.6120  139.7610 O   0  0  0  0  0  0  0  0  0  0  0  0
  187.3130  174.6620  137.1030 O   0  0  0  0  0  0  0  0  0  0  0  0
  187.6720  173.5860  136.2610 C   0  0  0  0  0  3  0  0  0  0  0  0
  188.3870  172.5350  137.0830 C   0  0  0  0  0  2  0  0  0  0  0  0
  186.9370  172.3450  136.6980 C   0  0  0  0  0  2  0  0  0  0  0  0
  1  4  1  0  0  0  0
  2 49  1  0  0  0  0
  2  4  2  0  0  0  0
  3  2  1  0  0  0  0
  4 25  1  0  0  0  0
  5  1  2  0  0  0  0
  6  3  2  0  0  0  0
  6  5  1  0  0  0  0
  8 10  1  0  0  0  0
  8  9  1  0  0  0  0
  9 11  1  6  0  0  0
 10  7  1  6  0  0  0
 10  3  1  0  0  0  0
 10  9  1  0  0  0  0
 12 18  1  1  0  0  0
 13 11  1  1  0  0  0
 13 16  1  0  0  0  0
 13 14  1  0  0  0  0
 14 12  1  0  0  0  0
 15 12  1  0  0  0  0
 16 15  1  0  0  0  0
 18 19  1  0  0  0  0
 18 17  2  0  0  0  0
 19 20  1  0  0  0  0
 20 21  1  1  0  0  0
 23 24  1  0  0  0  0
 24 20  1  0  0  0  0
 24 22  1  1  0  0  0
 26 27  1  0  0  0  0
 26 25  1  0  0  0  0
 27 28  1  0  0  0  0
 28 29  1  0  0  0  0
 29 30  1  0  0  0  0
 31 30  1  1  0  0  0
 31 32  1  0  0  0  0
 31 33  1  0  0  0  0
 32 33  1  0  0  0  0
 33 45  1  6  0  0  0
 33 35  1  0  0  0  0
 35 34  1  1  0  0  0
 35 36  1  0  0  0  0
 36 37  1  0  0  0  0
 37 38  1  0  0  0  0
 38 39  1  0  0  0  0
 39 41  1  0  0  0  0
 39 40  1  1  0  0  0
 42 41  1  0  0  0  0
 43 44  1  0  0  0  0
 44 42  1  0  0  0  0
 46 45  1  0  0  0  0
 47 46  1  0  0  0  0
 48 47  2  0  0  0  0
 50 52  1  0  0  0  0
 50 51  1  0  0  0  0
 50 49  1  0  0  0  0
 52 51  1  0  0  0  0
M  END
>  <MODEL>
4

>  <REMARK>
 VINA RESULT:      -5.4      2.731      8.221
  Name = 
  26 active torsions:
  status: ('A' for Active; 'I' for Inactive)
    1  A    between atoms: C_2  and  C_21
    2  A    between atoms: C_2  and  C_22
    3  A    between atoms: C_3  and  C_19
    4  A    between atoms: C_4  and  C_5
    5  A    between atoms: C_4  and  C_34
    6  A    between atoms: C_6  and  N_31
    7  A    between atoms: C_6  and  C_39
    8  A    between atoms: O_7  and  C_37
    9  A    between atoms: O_7  and  O_40
   10  A    between atoms: C_8  and  N_25
   11  A    between atoms: C_8  and  C_43
   12  A    between atoms: C_12  and  C_41
   13  A    between atoms: C_12  and  O_50
   14  A    between atoms: O_14  and  C_15
   15  A    between atoms: O_14  and  C_16
   16  A    between atoms: C_18  and  C_24
   17  A    between atoms: C_18  and  C_29
   18  A    between atoms: C_21  and  C_26
   19  A    between atoms: C_23  and  C_48
   20  A    between atoms: C_24  and  C_42
   21  A    between atoms: N_25  and  C_30
   22  A    between atoms: C_26  and  C_29
   23  A    between atoms: C_28  and  O_40
   24  A    between atoms: C_28  and  C_41
   25  A    between atoms: C_30  and  C_44
   26  A    between atoms: C_43  and  O_50
                            x       y       z     vdW  Elec       q    Type
                         _______ _______ _______ _____ _____    ______ ____

>  <TORSDO>
F 26

$$$$
=
 OpenBabel11062413483D

 52 56  0  0  1  0  0  0  0  0999 V2000
  187.7310  177.4260  136.7710 N   0  0  0  0  0  0  0  0  0  0  0  0
  186.5590  175.4800  135.9820 C   0  0  0  0  0  0  0  0  0  0  0  0
  185.3900  175.9770  136.5920 C   0  0  0  0  0  0  0  0  0  0  0  0
  187.7510  176.2450  136.0960 C   0  0  0  0  0  0  0  0  0  0  0  0
  186.6040  177.9160  137.3480 C   0  0  0  0  0  3  0  0  0  0  0  0
  185.4130  177.2020  137.2650 C   0  0  0  0  0  3  0  0  0  0  0  0
  183.9170  174.0660  137.1930 O   0  0  0  0  0  1  0  0  0  0  0  0
  183.6880  175.0790  135.1210 O   0  0  0  0  0  0  0  0  0  0  0  0
  182.8970  175.9410  135.9140 C   0  0  2  0  0  3  0  0  0  0  0  0
  184.0910  175.2430  136.4580 C   0  0  2  0  0  0  0  0  0  0  0  0
  181.5980  175.2420  136.2910 C   0  0  0  0  0  2  0  0  0  0  0  0
  181.6170  176.6590  139.2760 C   0  0  2  0  0  3  0  0  0  0  0  0
  180.7030  176.1670  137.0880 C   0  0  2  0  0  3  0  0  0  0  0  0
  181.5660  177.1560  137.8520 C   0  0  0  0  0  2  0  0  0  0  0  0
  180.3040  175.9390  139.4800 C   0  0  0  0  0  2  0  0  0  0  0  0
  179.9300  175.3720  138.1250 C   0  0  0  0  0  2  0  0  0  0  0  0
  182.9120  178.3190  140.3830 O   0  0  0  0  0  0  0  0  0  0  0  0
  181.7890  177.7570  140.2790 C   0  0  0  0  0  0  0  0  0  0  0  0
  180.6920  178.1910  141.0850 N   0  0  0  0  0  2  0  0  0  0  0  0
  180.8450  179.2020  142.1190 C   0  0  1  0  0  3  0  0  0  0  0  0
  179.6620  180.1620  142.0700 C   0  0  0  0  0  1  0  0  0  0  0  0
  182.3260  178.9310  144.1410 C   0  0  0  0  0  1  0  0  0  0  0  0
  179.8910  178.8950  144.3770 N   0  0  0  0  0  1  0  0  0  0  0  0
  181.0000  178.5440  143.4930 C   0  0  1  0  0  3  0  0  0  0  0  0
  189.0570  175.7950  135.5250 C   0  0  0  0  0  2  0  0  0  0  0  0
  190.0110  175.3390  136.6240 C   0  0  0  0  0  2  0  0  0  0  0  0
  191.1540  176.3340  136.7840 C   0  0  0  0  0  2  0  0  0  0  0  0
  192.1590  175.8340  137.8180 C   0  0  0  0  0  2  0  0  0  0  0  0
  192.4570  176.9080  138.8560 C   0  0  0  0  0  2  0  0  0  0  0  0
  191.5410  176.8030  140.0620 C   0  0  0  0  0  2  0  0  0  0  0  0
  190.3050  177.6600  139.8660 C   0  0  1  0  0  3  0  0  0  0  0  0
  189.0800  176.7520  139.7560 C   0  0  0  0  0  2  0  0  0  0  0  0
  189.3130  177.5520  141.0220 C   0  0  1  0  0  0  0  0  0  0  0  0
  188.5550  176.2890  142.9380 O   0  0  0  0  0  1  0  0  0  0  0  0
  189.6990  176.7430  142.2660 C   0  0  2  0  0  3  0  0  0  0  0  0
  190.6290  177.5210  143.2000 C   0  0  0  0  0  2  0  0  0  0  0  0
  189.9050  178.2190  144.1790 O   0  0  0  0  0  0  0  0  0  0  0  0
  190.4250  177.7460  145.3880 C   0  0  0  0  0  2  0  0  0  0  0  0
  189.3570  177.7140  146.4710 C   0  0  2  0  0  3  0  0  0  0  0  0
  189.4490  176.5400  147.2180 O   0  0  0  0  0  1  0  0  0  0  0  0
  188.0320  177.8400  145.8880 N   0  0  0  0  0  2  0  0  0  0  0  0
  187.1090  178.0160  146.9940 C   0  0  0  0  0  2  0  0  0  0  0  0
  184.6650  178.2670  146.7320 C   0  0  0  0  0  1  0  0  0  0  0  0
  186.0010  178.9730  146.5960 C   0  0  0  0  0  2  0  0  0  0  0  0
  188.5030  178.6860  141.1540 O   0  0  0  0  0  0  0  0  0  0  0  0
  187.2360  178.2450  141.1220 O   0  0  0  0  0  0  0  0  0  0  0  0
  186.2150  179.0010  141.6920 C   0  0  0  0  0  3  0  0  0  0  0  0
  185.7100  178.6670  142.7890 O   0  0  0  0  0  0  0  0  0  0  0  0
  186.4660  174.2540  135.2920 O   0  0  0  0  0  0  0  0  0  0  0  0
  187.2860  173.1210  135.4960 C   0  0  0  0  0  3  0  0  0  0  0  0
  186.7600  172.3390  136.6800 C   0  0  0  0  0  2  0  0  0  0  0  0
  186.4720  171.8730  135.2710 C   0  0  0  0  0  2  0  0  0  0  0  0
  1  5  1  0  0  0  0
  2  4  1  0  0  0  0
  2  3  2  0  0  0  0
  3  6  1  0  0  0  0
  4  1  2  0  0  0  0
  6  5  2  0  0  0  0
  8  9  1  0  0  0  0
  8 10  1  0  0  0  0
  9 11  1  1  0  0  0
  9 10  1  0  0  0  0
 10  3  1  0  0  0  0
 10  7  1  1  0  0  0
 12 15  1  0  0  0  0
 12 18  1  1  0  0  0
 13 11  1  1  0  0  0
 13 14  1  0  0  0  0
 13 16  1  0  0  0  0
 14 12  1  0  0  0  0
 16 15  1  0  0  0  0
 18 17  2  0  0  0  0
 18 19  1  0  0  0  0
 19 20  1  0  0  0  0
 20 21  1  1  0  0  0
 20 24  1  0  0  0  0
 24 22  1  1  0  0  0
 24 23  1  0  0  0  0
 25  4  1  0  0  0  0
 25 26  1  0  0  0  0
 26 27  1  0  0  0  0
 27 28  1  0  0  0  0
 28 29  1  0  0  0  0
 29 30  1  0  0  0  0
 31 30  1  1  0  0  0
 31 33  1  0  0  0  0
 32 31  1  0  0  0  0
 32 33  1  0  0  0  0
 33 45  1  1  0  0  0
 33 35  1  0  0  0  0
 35 34  1  1  0  0  0
 35 36  1  0  0  0  0
 36 37  1  0  0  0  0
 37 38  1  0  0  0  0
 38 39  1  0  0  0  0
 39 40  1  6  0  0  0
 41 39  1  0  0  0  0
 41 42  1  0  0  0  0
 44 43  1  0  0  0  0
 44 42  1  0  0  0  0
 46 45  1  0  0  0  0
 46 47  1  0  0  0  0
 47 48  2  0  0  0  0
 49 50  1  0  0  0  0
 49  2  1  0  0  0  0
 50 51  1  0  0  0  0
 52 50  1  0  0  0  0
 52 51  1  0  0  0  0
M  END
>  <MODEL>
5

>  <REMARK>
 VINA RESULT:      -5.3      2.755      8.254
  Name = 
  26 active torsions:
  status: ('A' for Active; 'I' for Inactive)
    1  A    between atoms: C_2  and  C_21
    2  A    between atoms: C_2  and  C_22
    3  A    between atoms: C_3  and  C_19
    4  A    between atoms: C_4  and  C_5
    5  A    between atoms: C_4  and  C_34
    6  A    between atoms: C_6  and  N_31
    7  A    between atoms: C_6  and  C_39
    8  A    between atoms: O_7  and  C_37
    9  A    between atoms: O_7  and  O_40
   10  A    between atoms: C_8  and  N_25
   11  A    between atoms: C_8  and  C_43
   12  A    between atoms: C_12  and  C_41
   13  A    between atoms: C_12  and  O_50
   14  A    between atoms: O_14  and  C_15
   15  A    between atoms: O_14  and  C_16
   16  A    between atoms: C_18  and  C_24
   17  A    between atoms: C_18  and  C_29
   18  A    between atoms: C_21  and  C_26
   19  A    between atoms: C_23  and  C_48
   20  A    between atoms: C_24  and  C_42
   21  A    between atoms: N_25  and  C_30
   22  A    between atoms: C_26  and  C_29
   23  A    between atoms: C_28  and  O_40
   24  A    between atoms: C_28  and  C_41
   25  A    between atoms: C_30  and  C_44
   26  A    between atoms: C_43  and  O_50
                            x       y       z     vdW  Elec       q    Type
                         _______ _______ _______ _____ _____    ______ ____

>  <TORSDO>
F 26

$$$$
=
 OpenBabel11062413483D

 52 56  0  0  1  0  0  0  0  0999 V2000
  188.4540  177.5700  141.7080 N   0  0  0  0  0  0  0  0  0  0  0  0
  187.1400  177.7930  143.7100 C   0  0  0  0  0  0  0  0  0  0  0  0
  186.2000  178.5380  142.9700 C   0  0  0  0  0  0  0  0  0  0  0  0
  188.2940  177.3130  143.0350 C   0  0  0  0  0  0  0  0  0  0  0  0
  187.5450  178.2750  140.9880 C   0  0  0  0  0  3  0  0  0  0  0  0
  186.4000  178.7680  141.6050 C   0  0  0  0  0  3  0  0  0  0  0  0
  185.0060  180.1450  144.4450 O   0  0  0  0  0  1  0  0  0  0  0  0
  184.1910  177.9880  144.2050 O   0  0  0  0  0  0  0  0  0  0  0  0
  183.6190  178.6040  143.0680 C   0  0  2  0  0  3  0  0  0  0  0  0
  184.9370  179.0220  143.6130 C   0  0  2  0  0  0  0  0  0  0  0  0
  182.4940  179.5330  143.5010 C   0  0  0  0  0  2  0  0  0  0  0  0
  180.8250  179.1580  140.6740 C   0  0  2  0  0  3  0  0  0  0  0  0
  181.1500  178.9870  143.0670 C   0  0  2  0  0  3  0  0  0  0  0  0
  181.3190  178.2330  141.7600 C   0  0  0  0  0  2  0  0  0  0  0  0
  179.7660  180.0050  141.3400 C   0  0  0  0  0  2  0  0  0  0  0  0
  180.1920  180.1310  142.7890 C   0  0  0  0  0  2  0  0  0  0  0  0
  179.1870  177.7920  139.6170 O   0  0  0  0  0  0  0  0  0  0  0  0
  180.2660  178.4320  139.4900 C   0  0  0  0  0  0  0  0  0  0  0  0
  180.9210  178.4870  138.2220 N   0  0  0  0  0  2  0  0  0  0  0  0
  180.4440  177.7330  137.0720 C   0  0  1  0  0  3  0  0  0  0  0  0
  180.0390  178.6980  135.9650 C   0  0  0  0  0  1  0  0  0  0  0  0
  182.5640  177.4190  135.7430 C   0  0  0  0  0  1  0  0  0  0  0  0
  182.1490  176.0770  137.7460 N   0  0  0  0  0  1  0  0  0  0  0  0
  181.5100  176.7350  136.6090 C   0  0  1  0  0  3  0  0  0  0  0  0
  189.3750  176.5490  143.7280 C   0  0  0  0  0  2  0  0  0  0  0  0
  190.5190  176.2220  142.7730 C   0  0  0  0  0  2  0  0  0  0  0  0
  191.2810  177.4890  142.4010 C   0  0  0  0  0  2  0  0  0  0  0  0
  192.2940  177.2000  141.2970 C   0  0  0  0  0  2  0  0  0  0  0  0
  191.7470  177.6000  139.9330 C   0  0  0  0  0  2  0  0  0  0  0  0
  191.7800  176.4460  138.9460 C   0  0  0  0  0  2  0  0  0  0  0  0
  193.0020  176.5480  138.0530 C   0  0  1  0  0  3  0  0  0  0  0  0
  193.6060  175.1560  137.8740 C   0  0  0  0  0  2  0  0  0  0  0  0
  192.8400  175.7960  136.7330 C   0  0  1  0  0  0  0  0  0  0  0  0
  191.6600  173.8750  135.8670 O   0  0  0  0  0  1  0  0  0  0  0  0
  191.4870  175.1630  136.3930 C   0  0  2  0  0  3  0  0  0  0  0  0
  190.6490  176.0430  135.4620 C   0  0  0  0  0  2  0  0  0  0  0  0
  189.8650  175.2690  134.5940 O   0  0  0  0  0  0  0  0  0  0  0  0
  188.6120  175.8920  134.6220 C   0  0  0  0  0  2  0  0  0  0  0  0
  187.6860  175.2200  135.6240 C   0  0  2  0  0  3  0  0  0  0  0  0
  186.8640  174.2910  134.9860 O   0  0  0  0  0  1  0  0  0  0  0  0
  186.8830  176.2080  136.3240 N   0  0  0  0  0  2  0  0  0  0  0  0
  187.7280  176.7630  137.3660 C   0  0  0  0  0  2  0  0  0  0  0  0
  188.9800  178.8860  137.1880 C   0  0  0  0  0  1  0  0  0  0  0  0
  187.6040  178.2750  137.3810 C   0  0  0  0  0  2  0  0  0  0  0  0
  193.6430  176.3130  135.7090 O   0  0  0  0  0  0  0  0  0  0  0  0
  194.8510  176.5270  136.2530 O   0  0  0  0  0  0  0  0  0  0  0  0
  195.9820  175.9220  135.7100 C   0  0  0  0  0  3  0  0  0  0  0  0
  197.1260  176.3680  135.9600 O   0  0  0  0  0  0  0  0  0  0  0  0
  186.8680  177.5690  145.0740 O   0  0  0  0  0  0  0  0  0  0  0  0
  187.2920  178.3810  146.1500 C   0  0  0  0  0  3  0  0  0  0  0  0
  186.2430  178.3390  147.2410 C   0  0  0  0  0  2  0  0  0  0  0  0
  187.5070  177.5190  147.3680 C   0  0  0  0  0  2  0  0  0  0  0  0
  1  4  1  0  0  0  0
  2 49  1  0  0  0  0
  3 10  1  0  0  0  0
  3  2  1  0  0  0  0
  4  2  2  0  0  0  0
  4 25  1  0  0  0  0
  5  6  1  0  0  0  0
  5  1  2  0  0  0  0
  6  3  2  0  0  0  0
  9 11  1  1  0  0  0
  9 10  1  0  0  0  0
  9  8  1  0  0  0  0
 10  8  1  0  0  0  0
 10  7  1  1  0  0  0
 12 18  1  6  0  0  0
 12 15  1  0  0  0  0
 12 14  1  0  0  0  0
 13 11  1  6  0  0  0
 14 13  1  0  0  0  0
 15 16  1  0  0  0  0
 16 13  1  0  0  0  0
 18 17  2  0  0  0  0
 19 18  1  0  0  0  0
 20 21  1  6  0  0  0
 20 19  1  0  0  0  0
 24 22  1  1  0  0  0
 24 20  1  0  0  0  0
 24 23  1  0  0  0  0
 26 25  1  0  0  0  0
 27 26  1  0  0  0  0
 28 27  1  0  0  0  0
 29 28  1  0  0  0  0
 30 29  1  0  0  0  0
 31 30  1  1  0  0  0
 32 31  1  0  0  0  0
 33 45  1  6  0  0  0
 33 32  1  0  0  0  0
 33 31  1  0  0  0  0
 35 34  1  6  0  0  0
 35 33  1  0  0  0  0
 36 35  1  0  0  0  0
 37 38  1  0  0  0  0
 37 36  1  0  0  0  0
 38 39  1  0  0  0  0
 39 40  1  6  0  0  0
 39 41  1  0  0  0  0
 41 42  1  0  0  0  0
 42 44  1  0  0  0  0
 43 44  1  0  0  0  0
 45 46  1  0  0  0  0
 47 48  2  0  0  0  0
 47 46  1  0  0  0  0
 49 50  1  0  0  0  0
 50 51  1  0  0  0  0
 50 52  1  0  0  0  0
 51 52  1  0  0  0  0
M  END
>  <MODEL>
6

>  <REMARK>
 VINA RESULT:      -5.1      1.458      2.429
  Name = 
  26 active torsions:
  status: ('A' for Active; 'I' for Inactive)
    1  A    between atoms: C_2  and  C_21
    2  A    between atoms: C_2  and  C_22
    3  A    between atoms: C_3  and  C_19
    4  A    between atoms: C_4  and  C_5
    5  A    between atoms: C_4  and  C_34
    6  A    between atoms: C_6  and  N_31
    7  A    between atoms: C_6  and  C_39
    8  A    between atoms: O_7  and  C_37
    9  A    between atoms: O_7  and  O_40
   10  A    between atoms: C_8  and  N_25
   11  A    between atoms: C_8  and  C_43
   12  A    between atoms: C_12  and  C_41
   13  A    between atoms: C_12  and  O_50
   14  A    between atoms: O_14  and  C_15
   15  A    between atoms: O_14  and  C_16
   16  A    between atoms: C_18  and  C_24
   17  A    between atoms: C_18  and  C_29
   18  A    between atoms: C_21  and  C_26
   19  A    between atoms: C_23  and  C_48
   20  A    between atoms: C_24  and  C_42
   21  A    between atoms: N_25  and  C_30
   22  A    between atoms: C_26  and  C_29
   23  A    between atoms: C_28  and  O_40
   24  A    between atoms: C_28  and  C_41
   25  A    between atoms: C_30  and  C_44
   26  A    between atoms: C_43  and  O_50
                            x       y       z     vdW  Elec       q    Type
                         _______ _______ _______ _____ _____    ______ ____

>  <TORSDO>
F 26

$$$$
=
 OpenBabel11062413483D

 52 56  0  0  1  0  0  0  0  0999 V2000
  186.5100  178.9400  137.7370 N   0  0  0  0  0  0  0  0  0  0  0  0
  186.3820  176.5670  137.3650 C   0  0  0  0  0  0  0  0  0  0  0  0
  187.6650  176.6220  136.7850 C   0  0  0  0  0  0  0  0  0  0  0  0
  185.8100  177.7770  137.8410 C   0  0  0  0  0  0  0  0  0  0  0  0
  187.7510  178.9960  137.1920 C   0  0  0  0  0  3  0  0  0  0  0  0
  188.3520  177.8370  136.7100 C   0  0  0  0  0  3  0  0  0  0  0  0
  188.0650  174.9120  135.0240 O   0  0  0  0  0  1  0  0  0  0  0  0
  188.2810  174.3280  137.2570 O   0  0  0  0  0  0  0  0  0  0  0  0
  189.5590  174.8800  137.0130 C   0  0  2  0  0  3  0  0  0  0  0  0
  188.3420  175.3710  136.3160 C   0  0  2  0  0  0  0  0  0  0  0  0
  190.3740  173.9260  136.1510 C   0  0  0  0  0  2  0  0  0  0  0  0
  193.2760  174.5420  137.6050 C   0  0  2  0  0  3  0  0  0  0  0  0
  191.6990  174.5490  135.7680 C   0  0  2  0  0  3  0  0  0  0  0  0
  192.8250  173.7510  136.4020 C   0  0  0  0  0  2  0  0  0  0  0  0
  193.0010  175.9830  137.2440 C   0  0  0  0  0  2  0  0  0  0  0  0
  191.7920  175.9560  136.3310 C   0  0  0  0  0  2  0  0  0  0  0  0
  195.2450  175.0360  138.8460 O   0  0  0  0  0  0  0  0  0  0  0  0
  194.7210  174.3380  137.9370 C   0  0  0  0  0  0  0  0  0  0  0  0
  195.4940  173.3440  137.2630 N   0  0  0  0  0  2  0  0  0  0  0  0
  196.9170  173.1710  137.5100 C   0  0  1  0  0  3  0  0  0  0  0  0
  197.2780  171.6950  137.3940 C   0  0  0  0  0  1  0  0  0  0  0  0
  197.0080  174.2360  135.2270 C   0  0  0  0  0  1  0  0  0  0  0  0
  198.0370  175.3440  137.1490 N   0  0  0  0  0  1  0  0  0  0  0  0
  197.7360  174.0440  136.5530 C   0  0  1  0  0  3  0  0  0  0  0  0
  184.4400  177.8440  138.4360 C   0  0  0  0  0  2  0  0  0  0  0  0
  184.4830  177.6190  139.9440 C   0  0  0  0  0  2  0  0  0  0  0  0
  184.3870  178.9470  140.6840 C   0  0  0  0  0  2  0  0  0  0  0  0
  185.7530  179.3590  141.2250 C   0  0  0  0  0  2  0  0  0  0  0  0
  186.6020  178.1380  141.5550 C   0  0  0  0  0  2  0  0  0  0  0  0
  188.0550  178.3330  141.1620 C   0  0  0  0  0  2  0  0  0  0  0  0
  188.8100  177.0210  141.2560 C   0  0  1  0  0  3  0  0  0  0  0  0
  190.2500  177.2390  140.7930 C   0  0  0  0  0  2  0  0  0  0  0  0
  189.9540  177.0600  142.2680 C   0  0  1  0  0  0  0  0  0  0  0  0
  191.4620  178.4150  143.5810 O   0  0  0  0  0  1  0  0  0  0  0  0
  190.1340  178.3030  143.1450 C   0  0  2  0  0  3  0  0  0  0  0  0
  189.1520  178.3350  144.3190 C   0  0  0  0  0  2  0  0  0  0  0  0
  189.4100  177.3000  145.2300 O   0  0  0  0  0  0  0  0  0  0  0  0
  189.6700  177.9630  146.4340 C   0  0  0  0  0  2  0  0  0  0  0  0
  188.4980  177.8320  147.3970 C   0  0  2  0  0  3  0  0  0  0  0  0
  188.2830  176.4950  147.7290 O   0  0  0  0  0  1  0  0  0  0  0  0
  187.2960  178.4120  146.8230 N   0  0  0  0  0  2  0  0  0  0  0  0
  186.5480  177.3150  146.2370 C   0  0  0  0  0  2  0  0  0  0  0  0
  185.0230  179.1080  145.4840 C   0  0  0  0  0  1  0  0  0  0  0  0
  185.7140  177.8200  145.0750 C   0  0  0  0  0  2  0  0  0  0  0  0
  190.2740  175.7960  142.7780 O   0  0  0  0  0  0  0  0  0  0  0  0
  191.5440  175.8750  143.2030 O   0  0  0  0  0  0  0  0  0  0  0  0
  191.9270  175.2610  144.3930 C   0  0  0  0  0  3  0  0  0  0  0  0
  192.3490  174.0820  144.3950 O   0  0  0  0  0  0  0  0  0  0  0  0
  185.7510  175.3090  137.4380 O   0  0  0  0  0  0  0  0  0  0  0  0
  184.7950  174.8040  136.5290 C   0  0  0  0  0  3  0  0  0  0  0  0
  184.9520  173.3010  136.4340 C   0  0  0  0  0  2  0  0  0  0  0  0
  183.8390  173.9000  137.2650 C   0  0  0  0  0  2  0  0  0  0  0  0
  1  4  1  0  0  0  0
  2 49  1  0  0  0  0
  2  4  2  0  0  0  0
  3  2  1  0  0  0  0
  4 25  1  0  0  0  0
  5  1  2  0  0  0  0
  6  3  2  0  0  0  0
  6  5  1  0  0  0  0
  9 11  1  6  0  0  0
  9  8  1  0  0  0  0
 10  7  1  6  0  0  0
 10  3  1  0  0  0  0
 10  9  1  0  0  0  0
 10  8  1  0  0  0  0
 12 18  1  6  0  0  0
 13 11  1  1  0  0  0
 13 16  1  0  0  0  0
 13 14  1  0  0  0  0
 14 12  1  0  0  0  0
 15 12  1  0  0  0  0
 16 15  1  0  0  0  0
 18 17  2  0  0  0  0
 19 20  1  0  0  0  0
 19 18  1  0  0  0  0
 20 21  1  6  0  0  0
 24 22  1  6  0  0  0
 24 23  1  0  0  0  0
 24 20  1  0  0  0  0
 25 26  1  0  0  0  0
 26 27  1  0  0  0  0
 27 28  1  0  0  0  0
 28 29  1  0  0  0  0
 30 29  1  0  0  0  0
 31 30  1  1  0  0  0
 31 33  1  0  0  0  0
 32 31  1  0  0  0  0
 32 33  1  0  0  0  0
 33 45  1  1  0  0  0
 33 35  1  0  0  0  0
 35 34  1  1  0  0  0
 35 36  1  0  0  0  0
 36 37  1  0  0  0  0
 37 38  1  0  0  0  0
 38 39  1  0  0  0  0
 39 40  1  6  0  0  0
 41 39  1  0  0  0  0
 42 41  1  0  0  0  0
 44 43  1  0  0  0  0
 44 42  1  0  0  0  0
 45 46  1  0  0  0  0
 46 47  1  0  0  0  0
 47 48  2  0  0  0  0
 50 52  1  0  0  0  0
 50 49  1  0  0  0  0
 51 50  1  0  0  0  0
 51 52  1  0  0  0  0
M  END
>  <MODEL>
7

>  <REMARK>
 VINA RESULT:      -5.0      3.245     10.817
  Name = 
  26 active torsions:
  status: ('A' for Active; 'I' for Inactive)
    1  A    between atoms: C_2  and  C_21
    2  A    between atoms: C_2  and  C_22
    3  A    between atoms: C_3  and  C_19
    4  A    between atoms: C_4  and  C_5
    5  A    between atoms: C_4  and  C_34
    6  A    between atoms: C_6  and  N_31
    7  A    between atoms: C_6  and  C_39
    8  A    between atoms: O_7  and  C_37
    9  A    between atoms: O_7  and  O_40
   10  A    between atoms: C_8  and  N_25
   11  A    between atoms: C_8  and  C_43
   12  A    between atoms: C_12  and  C_41
   13  A    between atoms: C_12  and  O_50
   14  A    between atoms: O_14  and  C_15
   15  A    between atoms: O_14  and  C_16
   16  A    between atoms: C_18  and  C_24
   17  A    between atoms: C_18  and  C_29
   18  A    between atoms: C_21  and  C_26
   19  A    between atoms: C_23  and  C_48
   20  A    between atoms: C_24  and  C_42
   21  A    between atoms: N_25  and  C_30
   22  A    between atoms: C_26  and  C_29
   23  A    between atoms: C_28  and  O_40
   24  A    between atoms: C_28  and  C_41
   25  A    between atoms: C_30  and  C_44
   26  A    between atoms: C_43  and  O_50
                            x       y       z     vdW  Elec       q    Type
                         _______ _______ _______ _____ _____    ______ ____

>  <TORSDO>
F 26

$$$$
=
 OpenBabel11062413483D

 52 56  0  0  1  0  0  0  0  0999 V2000
  189.2400  178.2570  139.0570 N   0  0  0  0  0  0  0  0  0  0  0  0
  189.4920  176.0600  138.1110 C   0  0  0  0  0  0  0  0  0  0  0  0
  188.2760  176.2520  137.4250 C   0  0  0  0  0  0  0  0  0  0  0  0
  189.9600  177.1070  138.9490 C   0  0  0  0  0  0  0  0  0  0  0  0
  188.0760  178.4520  138.3870 C   0  0  0  0  0  3  0  0  0  0  0  0
  187.5760  177.4550  137.5560 C   0  0  0  0  0  3  0  0  0  0  0  0
  187.6480  173.8930  136.9500 O   0  0  0  0  0  1  0  0  0  0  0  0
  188.3760  175.2540  135.2210 O   0  0  0  0  0  0  0  0  0  0  0  0
  187.0090  175.6100  135.2670 C   0  0  2  0  0  3  0  0  0  0  0  0
  187.7600  175.2070  136.4840 C   0  0  2  0  0  0  0  0  0  0  0  0
  186.1640  174.4750  134.7070 C   0  0  0  0  0  2  0  0  0  0  0  0
  183.9570  174.8880  137.1310 C   0  0  2  0  0  3  0  0  0  0  0  0
  184.6890  174.7950  134.8240 C   0  0  2  0  0  3  0  0  0  0  0  0
  184.4780  175.7370  135.9960 C   0  0  0  0  0  2  0  0  0  0  0  0
  183.2040  173.7650  136.4570 C   0  0  0  0  0  2  0  0  0  0  0  0
  183.9090  173.5300  135.1360 C   0  0  0  0  0  2  0  0  0  0  0  0
  182.0120  175.0950  138.4850 O   0  0  0  0  0  0  0  0  0  0  0  0
  183.0700  175.6410  138.0720 C   0  0  0  0  0  0  0  0  0  0  0  0
  183.4260  176.9470  138.5280 N   0  0  0  0  0  2  0  0  0  0  0  0
  182.5510  177.7340  139.3830 C   0  0  1  0  0  3  0  0  0  0  0  0
  182.9250  177.5030  140.8420 C   0  0  0  0  0  1  0  0  0  0  0  0
  184.0520  179.7280  139.0250 C   0  0  0  0  0  1  0  0  0  0  0  0
  182.0320  179.4420  137.6750 N   0  0  0  0  0  1  0  0  0  0  0  0
  182.6150  179.2140  138.9950 C   0  0  1  0  0  3  0  0  0  0  0  0
  191.2140  176.9960  139.7560 C   0  0  0  0  0  2  0  0  0  0  0  0
  190.9020  176.7510  141.2290 C   0  0  0  0  0  2  0  0  0  0  0  0
  191.6820  177.7210  142.1080 C   0  0  0  0  0  2  0  0  0  0  0  0
  190.7290  178.5980  142.9160 C   0  0  0  0  0  2  0  0  0  0  0  0
  190.7100  178.1800  144.3800 C   0  0  0  0  0  2  0  0  0  0  0  0
  189.3350  177.7120  144.8200 C   0  0  0  0  0  2  0  0  0  0  0  0
  188.2880  178.1030  143.7950 C   0  0  1  0  0  3  0  0  0  0  0  0
  187.4790  176.8640  143.4110 C   0  0  0  0  0  2  0  0  0  0  0  0
  186.8580  177.9210  144.3020 C   0  0  1  0  0  0  0  0  0  0  0  0
  185.6190  176.5470  145.8560 O   0  0  0  0  0  1  0  0  0  0  0  0
  186.6280  177.5170  145.7620 C   0  0  2  0  0  3  0  0  0  0  0  0
  186.3350  178.7220  146.6600 C   0  0  0  0  0  2  0  0  0  0  0  0
  187.3840  178.9550  147.5620 O   0  0  0  0  0  0  0  0  0  0  0  0
  187.6240  177.7020  148.1360 C   0  0  0  0  0  2  0  0  0  0  0  0
  189.0790  177.5620  148.5610 C   0  0  2  0  0  3  0  0  0  0  0  0
  189.6700  178.8170  148.7080 O   0  0  0  0  0  1  0  0  0  0  0  0
  189.8200  176.7630  147.6000 N   0  0  0  0  0  2  0  0  0  0  0  0
  191.2240  177.0660  147.8060 C   0  0  0  0  0  2  0  0  0  0  0  0
  192.0570  175.3400  146.2460 C   0  0  0  0  0  1  0  0  0  0  0  0
  192.0480  175.7980  147.6930 C   0  0  0  0  0  2  0  0  0  0  0  0
  185.9410  178.7600  143.6600 O   0  0  0  0  0  0  0  0  0  0  0  0
  184.7270  178.2420  143.9010 O   0  0  0  0  0  0  0  0  0  0  0  0
  183.6430  179.0790  144.1540 C   0  0  0  0  0  3  0  0  0  0  0  0
  182.4690  178.6640  144.0130 O   0  0  0  0  0  0  0  0  0  0  0  0
  190.1670  174.8390  137.9160 O   0  0  0  0  0  0  0  0  0  0  0  0
  191.5120  174.6870  137.5110 C   0  0  0  0  0  3  0  0  0  0  0  0
  191.5750  173.6890  136.3760 C   0  0  0  0  0  2  0  0  0  0  0  0
  191.6620  175.1710  136.0920 C   0  0  0  0  0  2  0  0  0  0  0  0
  2  4  2  0  0  0  0
  3  6  2  0  0  0  0
  3  2  1  0  0  0  0
  4  1  1  0  0  0  0
  4 25  1  0  0  0  0
  5  1  2  0  0  0  0
  6  5  1  0  0  0  0
  8  9  1  0  0  0  0
  8 10  1  0  0  0  0
  9 11  1  6  0  0  0
  9 10  1  0  0  0  0
 10  7  1  1  0  0  0
 10  3  1  0  0  0  0
 12 18  1  1  0  0  0
 13 11  1  1  0  0  0
 13 16  1  0  0  0  0
 13 14  1  0  0  0  0
 14 12  1  0  0  0  0
 15 12  1  0  0  0  0
 16 15  1  0  0  0  0
 18 17  2  0  0  0  0
 18 19  1  0  0  0  0
 19 20  1  0  0  0  0
 20 21  1  1  0  0  0
 23 24  1  0  0  0  0
 24 22  1  6  0  0  0
 24 20  1  0  0  0  0
 25 26  1  0  0  0  0
 26 27  1  0  0  0  0
 27 28  1  0  0  0  0
 28 29  1  0  0  0  0
 29 30  1  0  0  0  0
 31 33  1  0  0  0  0
 31 30  1  1  0  0  0
 32 31  1  0  0  0  0
 32 33  1  0  0  0  0
 33 45  1  6  0  0  0
 33 35  1  0  0  0  0
 35 34  1  6  0  0  0
 35 36  1  0  0  0  0
 36 37  1  0  0  0  0
 37 38  1  0  0  0  0
 38 39  1  0  0  0  0
 39 40  1  6  0  0  0
 41 42  1  0  0  0  0
 41 39  1  0  0  0  0
 43 44  1  0  0  0  0
 44 42  1  0  0  0  0
 45 46  1  0  0  0  0
 46 47  1  0  0  0  0
 48 47  2  0  0  0  0
 49  2  1  0  0  0  0
 50 49  1  0  0  0  0
 51 50  1  0  0  0  0
 52 51  1  0  0  0  0
 52 50  1  0  0  0  0
M  END
>  <MODEL>
8

>  <REMARK>
 VINA RESULT:      -4.9      2.215      9.274
  Name = 
  26 active torsions:
  status: ('A' for Active; 'I' for Inactive)
    1  A    between atoms: C_2  and  C_21
    2  A    between atoms: C_2  and  C_22
    3  A    between atoms: C_3  and  C_19
    4  A    between atoms: C_4  and  C_5
    5  A    between atoms: C_4  and  C_34
    6  A    between atoms: C_6  and  N_31
    7  A    between atoms: C_6  and  C_39
    8  A    between atoms: O_7  and  C_37
    9  A    between atoms: O_7  and  O_40
   10  A    between atoms: C_8  and  N_25
   11  A    between atoms: C_8  and  C_43
   12  A    between atoms: C_12  and  C_41
   13  A    between atoms: C_12  and  O_50
   14  A    between atoms: O_14  and  C_15
   15  A    between atoms: O_14  and  C_16
   16  A    between atoms: C_18  and  C_24
   17  A    between atoms: C_18  and  C_29
   18  A    between atoms: C_21  and  C_26
   19  A    between atoms: C_23  and  C_48
   20  A    between atoms: C_24  and  C_42
   21  A    between atoms: N_25  and  C_30
   22  A    between atoms: C_26  and  C_29
   23  A    between atoms: C_28  and  O_40
   24  A    between atoms: C_28  and  C_41
   25  A    between atoms: C_30  and  C_44
   26  A    between atoms: C_43  and  O_50
                            x       y       z     vdW  Elec       q    Type
                         _______ _______ _______ _____ _____    ______ ____

>  <TORSDO>
F 26

$$$$
=
 OpenBabel11062413483D

 52 56  0  0  1  0  0  0  0  0999 V2000
  187.7450  178.1720  141.8810 N   0  0  0  0  0  0  0  0  0  0  0  0
  186.2350  178.1140  143.7530 C   0  0  0  0  0  0  0  0  0  0  0  0
  185.3300  178.8930  143.0050 C   0  0  0  0  0  0  0  0  0  0  0  0
  187.4740  177.7630  143.1510 C   0  0  0  0  0  0  0  0  0  0  0  0
  186.8710  178.9100  141.1520 C   0  0  0  0  0  3  0  0  0  0  0  0
  185.6460  179.2800  141.6990 C   0  0  0  0  0  3  0  0  0  0  0  0
  183.8710  180.4200  144.3160 O   0  0  0  0  0  1  0  0  0  0  0  0
  183.3560  178.1630  144.2030 O   0  0  0  0  0  0  0  0  0  0  0  0
  182.7610  178.6210  143.0050 C   0  0  2  0  0  3  0  0  0  0  0  0
  183.9870  179.2460  143.5650 C   0  0  2  0  0  0  0  0  0  0  0  0
  181.5060  179.4190  143.3280 C   0  0  0  0  0  2  0  0  0  0  0  0
  180.9910  179.1510  140.0750 C   0  0  2  0  0  3  0  0  0  0  0  0
  180.3680  179.0230  142.4110 C   0  0  2  0  0  3  0  0  0  0  0  0
  180.9220  178.2110  141.2540 C   0  0  0  0  0  2  0  0  0  0  0  0
  179.8730  180.1400  140.3040 C   0  0  0  0  0  2  0  0  0  0  0  0
  179.7340  180.2640  141.8080 C   0  0  0  0  0  2  0  0  0  0  0  0
  179.6750  178.2650  138.3020 O   0  0  0  0  0  0  0  0  0  0  0  0
  180.8340  178.4570  138.7580 C   0  0  0  0  0  0  0  0  0  0  0  0
  181.9770  178.0470  138.0050 N   0  0  0  0  0  2  0  0  0  0  0  0
  181.8570  177.3060  136.7590 C   0  0  1  0  0  3  0  0  0  0  0  0
  181.8840  178.2780  135.5860 C   0  0  0  0  0  1  0  0  0  0  0  0
  184.2390  176.7200  137.3430 C   0  0  0  0  0  1  0  0  0  0  0  0
  182.5260  174.9760  137.2360 N   0  0  0  0  0  1  0  0  0  0  0  0
  182.9590  176.2470  136.6590 C   0  0  1  0  0  3  0  0  0  0  0  0
  188.5250  176.9770  143.8660 C   0  0  0  0  0  2  0  0  0  0  0  0
  189.2000  175.9800  142.9290 C   0  0  0  0  0  2  0  0  0  0  0  0
  190.5410  176.5230  142.4500 C   0  0  0  0  0  2  0  0  0  0  0  0
  190.5000  176.8090  140.9520 C   0  0  0  0  0  2  0  0  0  0  0  0
  191.7980  177.4510  140.4810 C   0  0  0  0  0  2  0  0  0  0  0  0
  192.3080  176.8260  139.1940 C   0  0  0  0  0  2  0  0  0  0  0  0
  191.2140  176.0110  138.5310 C   0  0  1  0  0  3  0  0  0  0  0  0
  190.7210  176.7540  137.2900 C   0  0  0  0  0  2  0  0  0  0  0  0
  191.5960  175.5260  137.1330 C   0  0  1  0  0  0  0  0  0  0  0  0
  192.9870  176.3670  135.3460 O   0  0  0  0  0  1  0  0  0  0  0  0
  193.0170  175.7750  136.6170 C   0  0  2  0  0  3  0  0  0  0  0  0
  193.8700  174.5040  136.6250 C   0  0  0  0  0  2  0  0  0  0  0  0
  194.2820  174.1720  137.9240 O   0  0  0  0  0  0  0  0  0  0  0  0
  195.5250  173.5570  137.7390 C   0  0  0  0  0  2  0  0  0  0  0  0
  196.4100  174.3750  136.8100 C   0  0  2  0  0  3  0  0  0  0  0  0
  197.0770  173.5440  135.9100 O   0  0  0  0  0  1  0  0  0  0  0  0
  197.3630  175.1640  137.5720 N   0  0  0  0  0  2  0  0  0  0  0  0
  197.6390  174.4190  138.7860 C   0  0  0  0  0  2  0  0  0  0  0  0
  197.6890  175.4850  141.0150 C   0  0  0  0  0  1  0  0  0  0  0  0
  198.4710  175.2640  139.7330 C   0  0  0  0  0  2  0  0  0  0  0  0
  190.9100  174.3670  136.7520 O   0  0  0  0  0  0  0  0  0  0  0  0
  190.2260  174.6840  135.6430 O   0  0  0  0  0  0  0  0  0  0  0  0
  188.8920  174.3060  135.5070 C   0  0  0  0  0  3  0  0  0  0  0  0
  188.2440  173.8890  136.4950 O   0  0  0  0  0  0  0  0  0  0  0  0
  185.8490  177.7300  145.0520 O   0  0  0  0  0  0  0  0  0  0  0  0
  186.5010  178.0850  146.2540 C   0  0  0  0  0  3  0  0  0  0  0  0
  186.0460  179.4670  146.6720 C   0  0  0  0  0  2  0  0  0  0  0  0
  185.4770  178.2400  147.3490 C   0  0  0  0  0  2  0  0  0  0  0  0
  1  4  1  0  0  0  0
  2 49  1  0  0  0  0
  3 10  1  0  0  0  0
  3  2  1  0  0  0  0
  4  2  2  0  0  0  0
  4 25  1  0  0  0  0
  5  6  1  0  0  0  0
  5  1  2  0  0  0  0
  6  3  2  0  0  0  0
  9 11  1  1  0  0  0
  9 10  1  0  0  0  0
  9  8  1  0  0  0  0
 10  8  1  0  0  0  0
 10  7  1  1  0  0  0
 12 18  1  6  0  0  0
 12 15  1  0  0  0  0
 12 14  1  0  0  0  0
 13 11  1  1  0  0  0
 14 13  1  0  0  0  0
 15 16  1  0  0  0  0
 16 13  1  0  0  0  0
 17 18  2  0  0  0  0
 19 18  1  0  0  0  0
 20 21  1  6  0  0  0
 20 19  1  0  0  0  0
 24 20  1  0  0  0  0
 24 23  1  0  0  0  0
 24 22  1  1  0  0  0
 26 25  1  0  0  0  0
 27 26  1  0  0  0  0
 28 27  1  0  0  0  0
 29 28  1  0  0  0  0
 30 29  1  0  0  0  0
 31 30  1  1  0  0  0
 32 31  1  0  0  0  0
 33 45  1  6  0  0  0
 33 32  1  0  0  0  0
 33 31  1  0  0  0  0
 35 34  1  6  0  0  0
 35 36  1  0  0  0  0
 35 33  1  0  0  0  0
 36 37  1  0  0  0  0
 38 37  1  0  0  0  0
 39 40  1  6  0  0  0
 39 41  1  0  0  0  0
 39 38  1  0  0  0  0
 41 42  1  0  0  0  0
 42 44  1  0  0  0  0
 44 43  1  0  0  0  0
 46 45  1  0  0  0  0
 47 46  1  0  0  0  0
 47 48  2  0  0  0  0
 49 50  1  0  0  0  0
 50 51  1  0  0  0  0
 50 52  1  0  0  0  0
 51 52  1  0  0  0  0
M  END
>  <MODEL>
9

>  <REMARK>
 VINA RESULT:      -4.8      2.629      5.036
  Name = 
  26 active torsions:
  status: ('A' for Active; 'I' for Inactive)
    1  A    between atoms: C_2  and  C_21
    2  A    between atoms: C_2  and  C_22
    3  A    between atoms: C_3  and  C_19
    4  A    between atoms: C_4  and  C_5
    5  A    between atoms: C_4  and  C_34
    6  A    between atoms: C_6  and  N_31
    7  A    between atoms: C_6  and  C_39
    8  A    between atoms: O_7  and  C_37
    9  A    between atoms: O_7  and  O_40
   10  A    between atoms: C_8  and  N_25
   11  A    between atoms: C_8  and  C_43
   12  A    between atoms: C_12  and  C_41
   13  A    between atoms: C_12  and  O_50
   14  A    between atoms: O_14  and  C_15
   15  A    between atoms: O_14  and  C_16
   16  A    between atoms: C_18  and  C_24
   17  A    between atoms: C_18  and  C_29
   18  A    between atoms: C_21  and  C_26
   19  A    between atoms: C_23  and  C_48
   20  A    between atoms: C_24  and  C_42
   21  A    between atoms: N_25  and  C_30
   22  A    between atoms: C_26  and  C_29
   23  A    between atoms: C_28  and  O_40
   24  A    between atoms: C_28  and  C_41
   25  A    between atoms: C_30  and  C_44
   26  A    between atoms: C_43  and  O_50
                            x       y       z     vdW  Elec       q    Type
                         _______ _______ _______ _____ _____    ______ ____

>  <TORSDO>
F 26

$$$$
