=
 OpenBabel11062415033D

 31 36  0  0  1  0  0  0  0  0999 V2000
  185.0500  178.6720  146.2950 C   0  0  0  0  0  3  0  0  0  0  0  0
  187.4300  176.9620  143.1770 C   0  0  1  0  0  3  0  0  0  0  0  0
  189.7090  176.4920  142.5140 C   0  0  0  0  0  2  0  0  0  0  0  0
  189.1330  177.5730  141.6110 C   0  0  0  0  0  2  0  0  0  0  0  0
  183.2960  178.1180  142.4910 C   0  0  2  0  0  3  0  0  0  0  0  0
  183.3070  179.1650  144.6870 O   0  0  0  0  0  0  0  0  0  0  0  0
  185.3190  177.9880  143.9950 C   0  0  0  0  0  0  0  0  0  0  0  0
  185.5170  178.8040  141.7190 O   0  0  0  0  0  0  0  0  0  0  0  0
  188.6810  176.2190  143.6020 C   0  0  0  0  0  2  0  0  0  0  0  0
  182.8700  179.3240  143.3360 C   0  0  2  0  0  3  0  0  0  0  0  0
  186.8870  178.7230  141.4070 C   0  0  0  0  0  0  0  0  0  0  0  0
  186.5830  177.4770  144.3050 C   0  0  0  0  0  0  0  0  0  0  0  0
  187.0520  177.5830  145.6220 C   0  0  0  0  0  3  0  0  0  0  0  0
  187.2880  179.3110  140.3680 O   0  0  0  0  0  0  0  0  0  0  0  0
  184.5540  178.6140  144.9930 C   0  0  0  0  0  0  0  0  0  0  0  0
  186.2780  178.1580  146.5810 N   0  0  0  0  0  0  0  0  0  0  0  0
  187.9200  178.1200  142.3380 C   0  0  1  0  0  3  0  0  0  0  0  0
  184.8150  177.9030  142.5770 C   0  0  2  0  0  3  0  0  0  0  0  0
  179.4930  180.3030  142.8550 N   0  0  0  0  0  0  0  0  0  0  0  0
  181.4250  179.4870  143.3020 N   0  0  0  0  0  0  0  0  0  0  0  0
  179.3650  179.2580  143.7030 C   0  0  0  0  0  3  0  0  0  0  0  0
  180.7890  180.4240  142.6250 N   0  0  0  0  0  0  0  0  0  0  0  0
  180.5790  178.7430  143.9900 N   0  0  0  0  0  0  0  0  0  0  0  0
  182.9030  178.2910  141.1590 O   0  0  0  0  0  0  0  0  0  0  0  0
  182.9600  176.5830  137.1950 O   0  0  0  0  0  1  0  0  0  0  0  0
  182.8220  177.3660  138.3400 C   0  0  1  0  0  3  0  0  0  0  0  0
  181.5050  178.1510  138.2760 C   0  0  0  0  0  2  0  0  0  0  0  0
  182.2640  177.0980  140.8070 C   0  0  1  0  0  3  0  0  0  0  0  0
  180.3990  177.4630  139.0700 C   0  0  0  0  0  2  0  0  0  0  0  0
  180.7690  177.3630  140.5550 C   0  0  0  0  0  2  0  0  0  0  0  0
  182.9490  176.4770  139.5860 C   0  0  0  0  0  2  0  0  0  0  0  0
  1 16  1  0  0  0  0
  2  9  1  1  0  0  0
  2 12  1  0  0  0  0
  3  9  1  0  0  0  0
  4  3  1  0  0  0  0
  5 24  1  6  0  0  0
  5 18  1  0  0  0  0
  5 10  1  0  0  0  0
  6 15  1  0  0  0  0
  7 12  2  0  0  0  0
  7 15  1  0  0  0  0
 10 20  1  1  0  0  0
 10  6  1  0  0  0  0
 11  8  1  0  0  0  0
 11 17  1  0  0  0  0
 12 13  1  0  0  0  0
 13 16  2  0  0  0  0
 14 11  2  0  0  0  0
 15  1  2  0  0  0  0
 17  4  1  6  0  0  0
 17  2  1  0  0  0  0
 18  8  1  6  0  0  0
 18  7  1  0  0  0  0
 19 21  1  0  0  0  0
 20 23  1  0  0  0  0
 21 23  2  0  0  0  0
 22 19  2  0  0  0  0
 22 20  1  0  0  0  0
 26 25  1  6  0  0  0
 26 31  1  0  0  0  0
 27 26  1  0  0  0  0
 27 29  1  0  0  0  0
 28 24  1  6  0  0  0
 29 30  1  0  0  0  0
 30 28  1  0  0  0  0
 31 28  1  0  0  0  0
M  END
>  <MODEL>
1

>  <REMARK>
 VINA RESULT:      -7.6      0.000      0.000
  Name = 
  3 active torsions:
  status: ('A' for Active; 'I' for Inactive)
    1  A    between atoms: C_7  and  O_31
    2  A    between atoms: C_12  and  N_17
    3  A    between atoms: C_18  and  O_31
                            x       y       z     vdW  Elec       q    Type
                         _______ _______ _______ _____ _____    ______ ____

>  <TORSDO>
F 3

$$$$
=
 OpenBabel11062415033D

 31 36  0  0  1  0  0  0  0  0999 V2000
  185.4890  178.5550  142.4840 C   0  0  0  0  0  3  0  0  0  0  0  0
  188.8570  177.1030  144.6870 C   0  0  1  0  0  3  0  0  0  0  0  0
  189.8280  177.0020  146.9020 C   0  0  0  0  0  2  0  0  0  0  0  0
  190.6760  177.9070  146.0190 C   0  0  0  0  0  2  0  0  0  0  0  0
  188.9750  177.4670  140.3570 C   0  0  2  0  0  3  0  0  0  0  0  0
  186.8430  178.6320  140.4760 O   0  0  0  0  0  0  0  0  0  0  0  0
  187.7770  177.7890  142.5560 C   0  0  0  0  0  0  0  0  0  0  0  0
  190.0860  178.4850  142.2880 O   0  0  0  0  0  0  0  0  0  0  0  0
  188.5930  176.6190  146.1000 C   0  0  0  0  0  2  0  0  0  0  0  0
  188.1200  178.6280  139.8370 C   0  0  2  0  0  3  0  0  0  0  0  0
  190.5920  178.6280  143.5930 C   0  0  0  0  0  0  0  0  0  0  0  0
  187.6380  177.5280  143.9220 C   0  0  0  0  0  0  0  0  0  0  0  0
  186.4070  177.7970  144.5410 C   0  0  0  0  0  3  0  0  0  0  0  0
  191.6980  179.2120  143.7330 O   0  0  0  0  0  0  0  0  0  0  0  0
  186.7020  178.3300  141.8330 C   0  0  0  0  0  0  0  0  0  0  0  0
  185.3670  178.2840  143.8120 N   0  0  0  0  0  0  0  0  0  0  0  0
  189.8000  178.2750  144.8380 C   0  0  1  0  0  3  0  0  0  0  0  0
  189.1030  177.5290  141.8870 C   0  0  2  0  0  3  0  0  0  0  0  0
  188.2230  178.8890  136.2990 N   0  0  0  0  0  0  0  0  0  0  0  0
  187.9490  178.5310  138.3960 N   0  0  0  0  0  0  0  0  0  0  0  0
  187.1820  178.0480  136.4890 C   0  0  0  0  0  3  0  0  0  0  0  0
  188.6790  179.1770  137.5060 N   0  0  0  0  0  0  0  0  0  0  0  0
  187.0040  177.8220  137.8080 N   0  0  0  0  0  0  0  0  0  0  0  0
  190.2400  177.4850  139.7600 O   0  0  0  0  0  0  0  0  0  0  0  0
  193.4720  176.1890  137.2090 O   0  0  0  0  0  1  0  0  0  0  0  0
  192.3390  176.7520  137.7930 C   0  0  1  0  0  3  0  0  0  0  0  0
  191.1840  176.7630  136.7820 C   0  0  0  0  0  2  0  0  0  0  0  0
  190.5340  176.1460  139.4810 C   0  0  1  0  0  3  0  0  0  0  0  0
  190.2420  175.5810  136.9870 C   0  0  0  0  0  2  0  0  0  0  0  0
  189.5970  175.6280  138.3770 C   0  0  0  0  0  2  0  0  0  0  0  0
  192.0090  176.0040  139.0940 C   0  0  0  0  0  2  0  0  0  0  0  0
  1 16  1  0  0  0  0
  2 17  1  0  0  0  0
  2  9  1  1  0  0  0
  4  3  1  0  0  0  0
  5 24  1  6  0  0  0
  5 18  1  0  0  0  0
  6 15  1  0  0  0  0
  7 12  2  0  0  0  0
  8 11  1  0  0  0  0
  9  3  1  0  0  0  0
 10 20  1  6  0  0  0
 10  5  1  0  0  0  0
 10  6  1  0  0  0  0
 11 14  2  0  0  0  0
 11 17  1  0  0  0  0
 12 13  1  0  0  0  0
 12  2  1  0  0  0  0
 15  1  2  0  0  0  0
 15  7  1  0  0  0  0
 16 13  2  0  0  0  0
 17  4  1  1  0  0  0
 18  8  1  6  0  0  0
 18  7  1  0  0  0  0
 19 21  1  0  0  0  0
 19 22  2  0  0  0  0
 21 23  2  0  0  0  0
 22 20  1  0  0  0  0
 23 20  1  0  0  0  0
 26 25  1  6  0  0  0
 26 31  1  0  0  0  0
 27 29  1  0  0  0  0
 27 26  1  0  0  0  0
 28 24  1  6  0  0  0
 29 30  1  0  0  0  0
 30 28  1  0  0  0  0
 31 28  1  0  0  0  0
M  END
>  <MODEL>
2

>  <REMARK>
 VINA RESULT:      -7.5      4.504      6.916
  Name = 
  3 active torsions:
  status: ('A' for Active; 'I' for Inactive)
    1  A    between atoms: C_7  and  O_31
    2  A    between atoms: C_12  and  N_17
    3  A    between atoms: C_18  and  O_31
                            x       y       z     vdW  Elec       q    Type
                         _______ _______ _______ _____ _____    ______ ____

>  <TORSDO>
F 3

$$$$
=
 OpenBabel11062415033D

 31 36  0  0  1  0  0  0  0  0999 V2000
  185.2310  178.4820  145.0790 C   0  0  0  0  0  3  0  0  0  0  0  0
  189.2070  176.9770  145.5670 C   0  0  1  0  0  3  0  0  0  0  0  0
  190.9870  176.6910  147.1810 C   0  0  0  0  0  2  0  0  0  0  0  0
  191.4050  177.7270  146.1480 C   0  0  0  0  0  2  0  0  0  0  0  0
  187.5720  177.8060  141.6260 C   0  0  2  0  0  3  0  0  0  0  0  0
  185.6630  178.8410  142.7220 O   0  0  0  0  0  0  0  0  0  0  0  0
  187.3590  177.8300  144.1410 C   0  0  0  0  0  0  0  0  0  0  0  0
  189.3620  178.6680  143.0580 O   0  0  0  0  0  0  0  0  0  0  0  0
  189.5350  176.3330  146.9000 C   0  0  0  0  0  2  0  0  0  0  0  0
  186.5750  178.9700  141.6300 C   0  0  2  0  0  3  0  0  0  0  0  0
  190.3490  178.6960  144.0600 C   0  0  0  0  0  0  0  0  0  0  0  0
  187.7810  177.4190  145.4080 C   0  0  0  0  0  0  0  0  0  0  0  0
  186.9020  177.5570  146.4930 C   0  0  0  0  0  3  0  0  0  0  0  0
  191.4160  179.3190  143.8150 O   0  0  0  0  0  0  0  0  0  0  0  0
  186.0820  178.3900  143.9760 C   0  0  0  0  0  0  0  0  0  0  0  0
  185.6550  178.0650  146.3030 N   0  0  0  0  0  0  0  0  0  0  0  0
  190.1260  178.1730  145.4660 C   0  0  1  0  0  3  0  0  0  0  0  0
  188.3040  177.7110  142.9730 C   0  0  2  0  0  3  0  0  0  0  0  0
  185.3970  178.8530  138.2850 N   0  0  0  0  0  0  0  0  0  0  0  0
  185.8400  179.0190  140.3770 N   0  0  0  0  0  0  0  0  0  0  0  0
  184.3470  179.4020  138.9340 C   0  0  0  0  0  3  0  0  0  0  0  0
  186.3150  178.6280  139.2090 N   0  0  0  0  0  0  0  0  0  0  0  0
  184.6220  179.5110  140.2510 N   0  0  0  0  0  0  0  0  0  0  0  0
  188.4900  177.9520  140.5800 O   0  0  0  0  0  0  0  0  0  0  0  0
  192.7020  177.1750  140.0430 O   0  0  0  0  0  1  0  0  0  0  0  0
  191.3750  177.5950  139.9780 C   0  0  1  0  0  3  0  0  0  0  0  0
  190.9260  177.6760  138.5130 C   0  0  0  0  0  2  0  0  0  0  0  0
  189.0380  176.6790  140.3910 C   0  0  1  0  0  3  0  0  0  0  0  0
  190.1580  176.4290  138.0870 C   0  0  0  0  0  2  0  0  0  0  0  0
  188.8810  176.2590  138.9190 C   0  0  0  0  0  2  0  0  0  0  0  0
  190.5030  176.6670  140.8380 C   0  0  0  0  0  2  0  0  0  0  0  0
  1 16  1  0  0  0  0
  2  9  1  1  0  0  0
  4  3  1  0  0  0  0
  5 24  1  6  0  0  0
  5 10  1  0  0  0  0
  5 18  1  0  0  0  0
  6 15  1  0  0  0  0
  7 12  2  0  0  0  0
  8 11  1  0  0  0  0
  9  3  1  0  0  0  0
 10 20  1  6  0  0  0
 10  6  1  0  0  0  0
 11 17  1  0  0  0  0
 12  2  1  0  0  0  0
 12 13  1  0  0  0  0
 14 11  2  0  0  0  0
 15  7  1  0  0  0  0
 15  1  2  0  0  0  0
 16 13  2  0  0  0  0
 17  2  1  0  0  0  0
 17  4  1  6  0  0  0
 18  8  1  1  0  0  0
 18  7  1  0  0  0  0
 19 21  1  0  0  0  0
 19 22  2  0  0  0  0
 21 23  2  0  0  0  0
 22 20  1  0  0  0  0
 23 20  1  0  0  0  0
 26 25  1  6  0  0  0
 26 31  1  0  0  0  0
 27 26  1  0  0  0  0
 28 24  1  6  0  0  0
 28 31  1  0  0  0  0
 29 27  1  0  0  0  0
 29 30  1  0  0  0  0
 30 28  1  0  0  0  0
M  END
>  <MODEL>
3

>  <REMARK>
 VINA RESULT:      -7.4      3.300      5.684
  Name = 
  3 active torsions:
  status: ('A' for Active; 'I' for Inactive)
    1  A    between atoms: C_7  and  O_31
    2  A    between atoms: C_12  and  N_17
    3  A    between atoms: C_18  and  O_31
                            x       y       z     vdW  Elec       q    Type
                         _______ _______ _______ _____ _____    ______ ____

>  <TORSDO>
F 3

$$$$
=
 OpenBabel11062415033D

 31 36  0  0  1  0  0  0  0  0999 V2000
  183.5620  179.3100  145.0600 C   0  0  0  0  0  3  0  0  0  0  0  0
  186.8580  177.2880  143.2290 C   0  0  1  0  0  3  0  0  0  0  0  0
  189.2470  176.9360  143.3870 C   0  0  0  0  0  2  0  0  0  0  0  0
  188.9390  177.7590  142.1450 C   0  0  0  0  0  2  0  0  0  0  0  0
  183.1020  177.8590  141.1180 C   0  0  2  0  0  3  0  0  0  0  0  0
  182.3880  179.3030  142.9410 O   0  0  0  0  0  0  0  0  0  0  0  0
  184.5590  178.2290  143.1450 C   0  0  0  0  0  0  0  0  0  0  0  0
  185.4240  178.6080  140.9100 O   0  0  0  0  0  0  0  0  0  0  0  0
  187.9430  176.7730  144.1540 C   0  0  0  0  0  2  0  0  0  0  0  0
  182.3870  179.1530  141.5200 C   0  0  2  0  0  3  0  0  0  0  0  0
  186.8250  178.6110  141.0420 C   0  0  0  0  0  0  0  0  0  0  0  0
  185.6830  177.9190  143.9170 C   0  0  0  0  0  0  0  0  0  0  0  0
  185.7150  178.3240  145.2590 C   0  0  0  0  0  3  0  0  0  0  0  0
  187.5060  179.0270  140.0680 O   0  0  0  0  0  0  0  0  0  0  0  0
  183.4980  178.9520  143.7130 C   0  0  0  0  0  0  0  0  0  0  0  0
  184.6590  178.9900  145.7990 N   0  0  0  0  0  0  0  0  0  0  0  0
  187.5400  178.3070  142.3450 C   0  0  1  0  0  3  0  0  0  0  0  0
  184.5250  177.8220  141.6940 C   0  0  2  0  0  3  0  0  0  0  0  0
  178.9310  178.7020  140.8530 N   0  0  0  0  0  0  0  0  0  0  0  0
  181.0190  179.1570  141.0250 N   0  0  0  0  0  0  0  0  0  0  0  0
  179.3180  179.4780  139.8160 C   0  0  0  0  0  3  0  0  0  0  0  0
  180.0130  178.5150  141.5890 N   0  0  0  0  0  0  0  0  0  0  0  0
  180.6330  179.7650  139.9190 N   0  0  0  0  0  0  0  0  0  0  0  0
  183.1360  177.7320  139.7250 O   0  0  0  0  0  0  0  0  0  0  0  0
  182.3470  176.0530  135.8270 O   0  0  0  0  0  1  0  0  0  0  0  0
  182.3550  176.7470  137.0350 C   0  0  1  0  0  3  0  0  0  0  0  0
  180.9210  176.8870  137.5640 C   0  0  0  0  0  2  0  0  0  0  0  0
  182.9620  176.3660  139.4760 C   0  0  1  0  0  3  0  0  0  0  0  0
  180.5990  175.8230  138.6100 C   0  0  0  0  0  2  0  0  0  0  0  0
  181.5220  175.9530  139.8280 C   0  0  0  0  0  2  0  0  0  0  0  0
  183.3080  176.0500  138.0180 C   0  0  0  0  0  2  0  0  0  0  0  0
  1 16  1  0  0  0  0
  2 12  1  0  0  0  0
  2  9  1  1  0  0  0
  3  9  1  0  0  0  0
  4  3  1  0  0  0  0
  5 24  1  6  0  0  0
  5 10  1  0  0  0  0
  5 18  1  0  0  0  0
  6 15  1  0  0  0  0
  7 15  1  0  0  0  0
  7 12  2  0  0  0  0
  8 11  1  0  0  0  0
 10 20  1  1  0  0  0
 10  6  1  0  0  0  0
 11 17  1  0  0  0  0
 12 13  1  0  0  0  0
 13 16  2  0  0  0  0
 14 11  2  0  0  0  0
 15  1  2  0  0  0  0
 17  4  1  6  0  0  0
 17  2  1  0  0  0  0
 18  8  1  6  0  0  0
 18  7  1  0  0  0  0
 19 22  2  0  0  0  0
 20 22  1  0  0  0  0
 21 23  2  0  0  0  0
 21 19  1  0  0  0  0
 23 20  1  0  0  0  0
 26 25  1  6  0  0  0
 26 27  1  0  0  0  0
 26 31  1  0  0  0  0
 27 29  1  0  0  0  0
 28 24  1  6  0  0  0
 28 30  1  0  0  0  0
 29 30  1  0  0  0  0
 31 28  1  0  0  0  0
M  END
>  <MODEL>
4

>  <REMARK>
 VINA RESULT:      -7.3      1.541      1.817
  Name = 
  3 active torsions:
  status: ('A' for Active; 'I' for Inactive)
    1  A    between atoms: C_7  and  O_31
    2  A    between atoms: C_12  and  N_17
    3  A    between atoms: C_18  and  O_31
                            x       y       z     vdW  Elec       q    Type
                         _______ _______ _______ _____ _____    ______ ____

>  <TORSDO>
F 3

$$$$
=
 OpenBabel11062415033D

 31 36  0  0  1  0  0  0  0  0999 V2000
  186.2520  178.8560  141.2720 C   0  0  0  0  0  3  0  0  0  0  0  0
  189.6980  176.6300  142.4900 C   0  0  1  0  0  3  0  0  0  0  0  0
  191.3000  176.3650  144.2840 C   0  0  0  0  0  2  0  0  0  0  0  0
  191.9960  176.9590  143.0690 C   0  0  0  0  0  2  0  0  0  0  0  0
  188.4390  176.7520  138.3310 C   0  0  2  0  0  3  0  0  0  0  0  0
  186.8270  178.4650  138.9510 O   0  0  0  0  0  0  0  0  0  0  0  0
  188.1690  177.4910  140.7300 C   0  0  0  0  0  0  0  0  0  0  0  0
  190.3490  177.5090  139.6650 O   0  0  0  0  0  0  0  0  0  0  0  0
  189.8130  176.3020  143.9660 C   0  0  0  0  0  2  0  0  0  0  0  0
  187.7730  178.0790  137.9520 C   0  0  2  0  0  3  0  0  0  0  0  0
  191.2820  177.5650  140.7160 C   0  0  0  0  0  0  0  0  0  0  0  0
  188.4360  177.3410  142.0930 C   0  0  0  0  0  0  0  0  0  0  0  0
  187.5920  177.9670  143.0220 C   0  0  0  0  0  3  0  0  0  0  0  0
  192.4790  177.8270  140.4250 O   0  0  0  0  0  0  0  0  0  0  0  0
  187.0820  178.2750  140.3120 C   0  0  0  0  0  0  0  0  0  0  0  0
  186.5210  178.6890  142.5960 N   0  0  0  0  0  0  0  0  0  0  0  0
  190.8940  177.5010  142.1810 C   0  0  1  0  0  3  0  0  0  0  0  0
  189.0850  176.8450  139.7210 C   0  0  2  0  0  3  0  0  0  0  0  0
  185.6780  177.4090  135.1670 N   0  0  0  0  0  0  0  0  0  0  0  0
  187.1090  177.9690  136.6630 N   0  0  0  0  0  0  0  0  0  0  0  0
  186.7030  178.0780  134.5940 C   0  0  0  0  0  3  0  0  0  0  0  0
  185.9610  177.3520  136.4580 N   0  0  0  0  0  0  0  0  0  0  0  0
  187.6080  178.4300  135.5310 N   0  0  0  0  0  0  0  0  0  0  0  0
  189.3940  176.3930  137.3730 O   0  0  0  0  0  0  0  0  0  0  0  0
  192.4440  173.6840  135.9620 O   0  0  0  0  0  1  0  0  0  0  0  0
  191.5160  174.7040  136.1680 C   0  0  1  0  0  3  0  0  0  0  0  0
  190.8520  175.0790  134.8370 C   0  0  0  0  0  2  0  0  0  0  0  0
  189.1900  175.0280  137.1440 C   0  0  1  0  0  3  0  0  0  0  0  0
  189.4990  174.3950  134.6680 C   0  0  0  0  0  2  0  0  0  0  0  0
  188.5240  174.8250  135.7720 C   0  0  0  0  0  2  0  0  0  0  0  0
  190.5180  174.2740  137.2540 C   0  0  0  0  0  2  0  0  0  0  0  0
  1 16  1  0  0  0  0
  2  9  1  1  0  0  0
  4  3  1  0  0  0  0
  5 24  1  6  0  0  0
  5 18  1  0  0  0  0
  6 15  1  0  0  0  0
  7 12  2  0  0  0  0
  8 11  1  0  0  0  0
  9  3  1  0  0  0  0
 10 20  1  6  0  0  0
 10  5  1  0  0  0  0
 10  6  1  0  0  0  0
 11 17  1  0  0  0  0
 12  2  1  0  0  0  0
 12 13  1  0  0  0  0
 14 11  2  0  0  0  0
 15  7  1  0  0  0  0
 15  1  2  0  0  0  0
 16 13  2  0  0  0  0
 17  2  1  0  0  0  0
 17  4  1  1  0  0  0
 18  8  1  6  0  0  0
 18  7  1  0  0  0  0
 19 22  2  0  0  0  0
 21 19  1  0  0  0  0
 21 23  2  0  0  0  0
 22 20  1  0  0  0  0
 23 20  1  0  0  0  0
 26 25  1  6  0  0  0
 26 31  1  0  0  0  0
 27 26  1  0  0  0  0
 28 31  1  0  0  0  0
 28 24  1  6  0  0  0
 29 27  1  0  0  0  0
 29 30  1  0  0  0  0
 30 28  1  0  0  0  0
M  END
>  <MODEL>
5

>  <REMARK>
 VINA RESULT:      -6.7      5.211      7.184
  Name = 
  3 active torsions:
  status: ('A' for Active; 'I' for Inactive)
    1  A    between atoms: C_7  and  O_31
    2  A    between atoms: C_12  and  N_17
    3  A    between atoms: C_18  and  O_31
                            x       y       z     vdW  Elec       q    Type
                         _______ _______ _______ _____ _____    ______ ____

>  <TORSDO>
F 3

$$$$
=
 OpenBabel11062415033D

 31 36  0  0  1  0  0  0  0  0999 V2000
  193.4090  176.3760  139.0150 C   0  0  0  0  0  3  0  0  0  0  0  0
  189.6920  176.3550  136.8950 C   0  0  1  0  0  3  0  0  0  0  0  0
  188.7240  176.3900  134.6780 C   0  0  0  0  0  2  0  0  0  0  0  0
  188.4250  177.7070  135.3800 C   0  0  0  0  0  2  0  0  0  0  0  0
  189.8810  177.3730  141.1170 C   0  0  2  0  0  3  0  0  0  0  0  0
  192.3060  177.3750  140.9270 O   0  0  0  0  0  0  0  0  0  0  0  0
  191.0270  176.7660  138.9510 C   0  0  0  0  0  0  0  0  0  0  0  0
  189.3220  178.4910  139.0110 O   0  0  0  0  0  0  0  0  0  0  0  0
  189.6580  175.5990  135.5810 C   0  0  0  0  0  2  0  0  0  0  0  0
  191.1950  178.0630  141.5020 C   0  0  2  0  0  3  0  0  0  0  0  0
  188.9050  178.6570  137.6770 C   0  0  0  0  0  0  0  0  0  0  0  0
  190.9900  176.2700  137.6450 C   0  0  0  0  0  0  0  0  0  0  0  0
  192.1840  175.8370  137.0510 C   0  0  0  0  0  3  0  0  0  0  0  0
  188.1980  179.6630  137.4040 O   0  0  0  0  0  0  0  0  0  0  0  0
  192.2500  176.8440  139.6360 C   0  0  0  0  0  0  0  0  0  0  0  0
  193.3520  175.8850  137.7470 N   0  0  0  0  0  0  0  0  0  0  0  0
  189.4040  177.7940  136.5340 C   0  0  1  0  0  3  0  0  0  0  0  0
  189.7540  177.2590  139.5910 C   0  0  2  0  0  3  0  0  0  0  0  0
  191.7060  177.4880  144.9660 N   0  0  0  0  0  0  0  0  0  0  0  0
  191.3410  178.1140  142.9480 N   0  0  0  0  0  0  0  0  0  0  0  0
  191.2880  178.7730  144.9530 C   0  0  0  0  0  3  0  0  0  0  0  0
  191.7260  177.1020  143.7020 N   0  0  0  0  0  0  0  0  0  0  0  0
  191.0540  179.1710  143.6850 N   0  0  0  0  0  0  0  0  0  0  0  0
  188.7890  178.0700  141.6470 O   0  0  0  0  0  0  0  0  0  0  0  0
  185.3870  178.7460  144.2160 O   0  0  0  0  0  1  0  0  0  0  0  0
  186.6400  178.6200  143.6190 C   0  0  1  0  0  3  0  0  0  0  0  0
  187.6570  178.1060  144.6470 C   0  0  0  0  0  2  0  0  0  0  0  0
  187.8620  177.0840  142.0010 C   0  0  1  0  0  3  0  0  0  0  0  0
  187.8660  176.6000  144.5290 C   0  0  0  0  0  2  0  0  0  0  0  0
  188.4240  176.2290  143.1490 C   0  0  0  0  0  2  0  0  0  0  0  0
  186.5240  177.7320  142.3710 C   0  0  0  0  0  2  0  0  0  0  0  0
  1 15  1  0  0  0  0
  2  9  1  6  0  0  0
  2 12  1  0  0  0  0
  3  4  1  0  0  0  0
  3  9  1  0  0  0  0
  5 10  1  0  0  0  0
  5 24  1  6  0  0  0
  6 10  1  0  0  0  0
  7 15  2  0  0  0  0
  8 18  1  0  0  0  0
 10 20  1  1  0  0  0
 11  8  1  0  0  0  0
 12  7  1  0  0  0  0
 13 12  2  0  0  0  0
 13 16  1  0  0  0  0
 14 11  2  0  0  0  0
 15  6  1  0  0  0  0
 16  1  2  0  0  0  0
 17  4  1  6  0  0  0
 17  2  1  0  0  0  0
 17 11  1  0  0  0  0
 18  7  1  6  0  0  0
 18  5  1  0  0  0  0
 20 23  1  0  0  0  0
 20 22  1  0  0  0  0
 21 19  1  0  0  0  0
 22 19  2  0  0  0  0
 23 21  2  0  0  0  0
 26 25  1  1  0  0  0
 26 27  1  0  0  0  0
 28 24  1  1  0  0  0
 28 31  1  0  0  0  0
 28 30  1  0  0  0  0
 29 27  1  0  0  0  0
 30 29  1  0  0  0  0
 31 26  1  0  0  0  0
M  END
>  <MODEL>
6

>  <REMARK>
 VINA RESULT:      -6.6      5.266      8.430
  Name = 
  3 active torsions:
  status: ('A' for Active; 'I' for Inactive)
    1  A    between atoms: C_7  and  O_31
    2  A    between atoms: C_12  and  N_17
    3  A    between atoms: C_18  and  O_31
                            x       y       z     vdW  Elec       q    Type
                         _______ _______ _______ _____ _____    ______ ____

>  <TORSDO>
F 3

$$$$
=
 OpenBabel11062415033D

 31 36  0  0  1  0  0  0  0  0999 V2000
  191.9700  176.9980  138.7780 C   0  0  0  0  0  3  0  0  0  0  0  0
  190.6210  177.9930  142.7150 C   0  0  1  0  0  3  0  0  0  0  0  0
  191.2330  177.9060  145.0540 C   0  0  0  0  0  2  0  0  0  0  0  0
  190.0800  176.9480  144.7990 C   0  0  0  0  0  2  0  0  0  0  0  0
  187.8580  177.7780  139.3650 C   0  0  2  0  0  3  0  0  0  0  0  0
  189.6690  176.8480  138.0340 O   0  0  0  0  0  0  0  0  0  0  0  0
  190.1810  177.5080  140.3170 C   0  0  0  0  0  0  0  0  0  0  0  0
  188.2550  176.5750  141.4620 O   0  0  0  0  0  0  0  0  0  0  0  0
  191.6750  178.4500  143.7040 C   0  0  0  0  0  2  0  0  0  0  0  0
  188.2740  176.7370  138.3200 C   0  0  2  0  0  3  0  0  0  0  0  0
  188.6810  176.3300  142.7800 C   0  0  0  0  0  0  0  0  0  0  0  0
  191.1230  177.7320  141.3250 C   0  0  0  0  0  0  0  0  0  0  0  0
  192.4850  177.5760  141.0250 C   0  0  0  0  0  3  0  0  0  0  0  0
  187.9410  175.6240  143.5150 O   0  0  0  0  0  0  0  0  0  0  0  0
  190.6040  177.1130  139.0380 C   0  0  0  0  0  0  0  0  0  0  0  0
  192.8740  177.2310  139.7680 N   0  0  0  0  0  0  0  0  0  0  0  0
  190.0510  176.7210  143.3000 C   0  0  1  0  0  3  0  0  0  0  0  0
  188.7130  177.6460  140.6350 C   0  0  2  0  0  3  0  0  0  0  0  0
  186.6580  177.8170  135.3510 N   0  0  0  0  0  0  0  0  0  0  0  0
  187.5050  176.9050  137.0970 N   0  0  0  0  0  0  0  0  0  0  0  0
  186.1530  176.5730  135.5100 C   0  0  0  0  0  3  0  0  0  0  0  0
  187.4960  177.9980  136.3580 N   0  0  0  0  0  0  0  0  0  0  0  0
  186.6820  175.9960  136.6100 N   0  0  0  0  0  0  0  0  0  0  0  0
  186.5000  177.6440  139.6760 O   0  0  0  0  0  0  0  0  0  0  0  0
  184.0210  178.7500  143.0320 O   0  0  0  0  0  1  0  0  0  0  0  0
  184.6000  178.2110  141.8840 C   0  0  1  0  0  3  0  0  0  0  0  0
  183.5220  177.9910  140.8130 C   0  0  0  0  0  2  0  0  0  0  0  0
  186.0510  178.9450  139.9280 C   0  0  1  0  0  3  0  0  0  0  0  0
  183.4870  179.1340  139.8040 C   0  0  0  0  0  2  0  0  0  0  0  0
  184.8210  179.2480  139.0560 C   0  0  0  0  0  2  0  0  0  0  0  0
  185.7520  179.1150  141.4200 C   0  0  0  0  0  2  0  0  0  0  0  0
  1 15  2  0  0  0  0
  1 16  1  0  0  0  0
  2 17  1  0  0  0  0
  2  9  1  1  0  0  0
  4  3  1  0  0  0  0
  5 24  1  1  0  0  0
  5 18  1  0  0  0  0
  6 10  1  0  0  0  0
  6 15  1  0  0  0  0
  7 12  2  0  0  0  0
  8 11  1  0  0  0  0
  9  3  1  0  0  0  0
 10 20  1  6  0  0  0
 10  5  1  0  0  0  0
 11 17  1  0  0  0  0
 11 14  2  0  0  0  0
 12  2  1  0  0  0  0
 13 12  1  0  0  0  0
 15  7  1  0  0  0  0
 16 13  2  0  0  0  0
 17  4  1  1  0  0  0
 18  7  1  6  0  0  0
 18  8  1  0  0  0  0
 19 21  1  0  0  0  0
 19 22  2  0  0  0  0
 21 23  2  0  0  0  0
 22 20  1  0  0  0  0
 23 20  1  0  0  0  0
 26 25  1  1  0  0  0
 27 26  1  0  0  0  0
 28 24  1  1  0  0  0
 28 31  1  0  0  0  0
 29 27  1  0  0  0  0
 30 29  1  0  0  0  0
 30 28  1  0  0  0  0
 31 26  1  0  0  0  0
M  END
>  <MODEL>
7

>  <REMARK>
 VINA RESULT:      -6.2      4.559      6.607
  Name = 
  3 active torsions:
  status: ('A' for Active; 'I' for Inactive)
    1  A    between atoms: C_7  and  O_31
    2  A    between atoms: C_12  and  N_17
    3  A    between atoms: C_18  and  O_31
                            x       y       z     vdW  Elec       q    Type
                         _______ _______ _______ _____ _____    ______ ____

>  <TORSDO>
F 3

$$$$
=
 OpenBabel11062415033D

 31 36  0  0  1  0  0  0  0  0999 V2000
  183.7950  179.3320  144.2730 C   0  0  0  0  0  3  0  0  0  0  0  0
  187.2390  177.2240  142.8570 C   0  0  1  0  0  3  0  0  0  0  0  0
  189.5700  176.7800  143.3300 C   0  0  0  0  0  2  0  0  0  0  0  0
  189.4640  177.6390  142.0780 C   0  0  0  0  0  2  0  0  0  0  0  0
  183.8280  177.9790  140.2700 C   0  0  2  0  0  3  0  0  0  0  0  0
  182.9220  179.4120  142.0140 O   0  0  0  0  0  0  0  0  0  0  0  0
  185.0070  178.2530  142.4850 C   0  0  0  0  0  0  0  0  0  0  0  0
  186.1820  178.6450  140.3990 O   0  0  0  0  0  0  0  0  0  0  0  0
  188.1680  176.6500  143.9080 C   0  0  0  0  0  2  0  0  0  0  0  0
  183.1100  179.2910  140.6030 C   0  0  2  0  0  3  0  0  0  0  0  0
  187.5510  178.5920  140.7210 C   0  0  0  0  0  0  0  0  0  0  0  0
  186.0030  177.8850  143.3940 C   0  0  0  0  0  0  0  0  0  0  0  0
  185.8650  178.2610  144.7390 C   0  0  0  0  0  3  0  0  0  0  0  0
  188.3720  179.0010  139.8590 O   0  0  0  0  0  0  0  0  0  0  0  0
  183.9040  179.0040  142.9210 C   0  0  0  0  0  0  0  0  0  0  0  0
  184.7680  178.9550  145.1460 N   0  0  0  0  0  0  0  0  0  0  0  0
  188.0700  178.2350  142.1000 C   0  0  1  0  0  3  0  0  0  0  0  0
  185.1570  177.8770  141.0330 C   0  0  2  0  0  3  0  0  0  0  0  0
  180.2960  179.9450  138.5430 N   0  0  0  0  0  0  0  0  0  0  0  0
  181.8240  179.3570  139.9270 N   0  0  0  0  0  0  0  0  0  0  0  0
  179.7830  179.0930  139.4580 C   0  0  0  0  0  3  0  0  0  0  0  0
  181.5700  180.0940  138.8630 N   0  0  0  0  0  0  0  0  0  0  0  0
  180.7400  178.7220  140.3340 N   0  0  0  0  0  0  0  0  0  0  0  0
  184.0480  177.8790  138.8910 O   0  0  0  0  0  0  0  0  0  0  0  0
  184.7280  176.1310  135.0030 O   0  0  0  0  0  1  0  0  0  0  0  0
  184.3310  176.8780  136.1110 C   0  0  1  0  0  3  0  0  0  0  0  0
  182.8450  177.2410  135.9880 C   0  0  0  0  0  2  0  0  0  0  0  0
  183.7960  176.5400  138.5750 C   0  0  1  0  0  3  0  0  0  0  0  0
  181.9620  176.2870  136.7860 C   0  0  0  0  0  2  0  0  0  0  0  0
  182.2980  176.3490  138.2820 C   0  0  0  0  0  2  0  0  0  0  0  0
  184.6710  176.1060  137.3950 C   0  0  0  0  0  2  0  0  0  0  0  0
  1 16  1  0  0  0  0
  2 12  1  0  0  0  0
  2  9  1  1  0  0  0
  3  9  1  0  0  0  0
  4  3  1  0  0  0  0
  5 24  1  6  0  0  0
  5 10  1  0  0  0  0
  5 18  1  0  0  0  0
  6 15  1  0  0  0  0
  7 15  1  0  0  0  0
  7 12  2  0  0  0  0
  8 11  1  0  0  0  0
 10 20  1  6  0  0  0
 10  6  1  0  0  0  0
 11 17  1  0  0  0  0
 12 13  1  0  0  0  0
 13 16  2  0  0  0  0
 14 11  2  0  0  0  0
 15  1  2  0  0  0  0
 17  4  1  6  0  0  0
 17  2  1  0  0  0  0
 18  8  1  6  0  0  0
 18  7  1  0  0  0  0
 19 22  2  0  0  0  0
 19 21  1  0  0  0  0
 20 23  1  0  0  0  0
 21 23  2  0  0  0  0
 22 20  1  0  0  0  0
 26 25  1  6  0  0  0
 26 31  1  0  0  0  0
 27 26  1  0  0  0  0
 27 29  1  0  0  0  0
 28 24  1  6  0  0  0
 29 30  1  0  0  0  0
 30 28  1  0  0  0  0
 31 28  1  0  0  0  0
M  END
>  <MODEL>
8

>  <REMARK>
 VINA RESULT:      -6.2      1.983      2.490
  Name = 
  3 active torsions:
  status: ('A' for Active; 'I' for Inactive)
    1  A    between atoms: C_7  and  O_31
    2  A    between atoms: C_12  and  N_17
    3  A    between atoms: C_18  and  O_31
                            x       y       z     vdW  Elec       q    Type
                         _______ _______ _______ _____ _____    ______ ____

>  <TORSDO>
F 3

$$$$
=
 OpenBabel11062415033D

 31 36  0  0  1  0  0  0  0  0999 V2000
  179.6360  180.3630  141.2870 C   0  0  0  0  0  3  0  0  0  0  0  0
  183.0090  178.5560  143.2040 C   0  0  1  0  0  3  0  0  0  0  0  0
  184.5250  178.7820  145.0760 C   0  0  0  0  0  2  0  0  0  0  0  0
  185.2800  179.0410  143.7800 C   0  0  0  0  0  2  0  0  0  0  0  0
  181.9430  177.5750  139.1050 C   0  0  2  0  0  3  0  0  0  0  0  0
  180.3150  179.3800  139.1790 O   0  0  0  0  0  0  0  0  0  0  0  0
  181.5670  178.9150  141.2110 C   0  0  0  0  0  0  0  0  0  0  0  0
  183.7940  178.6670  140.2790 O   0  0  0  0  0  0  0  0  0  0  0  0
  183.0540  178.6280  144.7170 C   0  0  0  0  0  2  0  0  0  0  0  0
  181.3030  178.7520  138.3610 C   0  0  2  0  0  3  0  0  0  0  0  0
  184.6790  179.0040  141.3210 C   0  0  0  0  0  0  0  0  0  0  0  0
  181.7710  179.1300  142.5770 C   0  0  0  0  0  0  0  0  0  0  0  0
  180.8880  179.9720  143.2690 C   0  0  0  0  0  3  0  0  0  0  0  0
  185.8890  179.1870  141.0270 O   0  0  0  0  0  0  0  0  0  0  0  0
  180.5050  179.5560  140.5520 C   0  0  0  0  0  0  0  0  0  0  0  0
  179.8430  180.5510  142.6190 N   0  0  0  0  0  0  0  0  0  0  0  0
  184.2230  179.3240  142.7320 C   0  0  1  0  0  3  0  0  0  0  0  0
  182.5250  178.0340  140.4510 C   0  0  2  0  0  3  0  0  0  0  0  0
  180.3690  178.0190  135.0170 N   0  0  0  0  0  0  0  0  0  0  0  0
  180.6990  178.3020  137.1170 N   0  0  0  0  0  0  0  0  0  0  0  0
  179.3490  177.4770  135.7190 C   0  0  0  0  0  3  0  0  0  0  0  0
  181.1940  178.5300  135.9150 N   0  0  0  0  0  0  0  0  0  0  0  0
  179.5510  177.6560  137.0410 N   0  0  0  0  0  0  0  0  0  0  0  0
  182.9390  176.9830  138.3190 O   0  0  0  0  0  0  0  0  0  0  0  0
  184.0390  173.7790  135.6440 O   0  0  0  0  0  1  0  0  0  0  0  0
  183.4840  174.8760  136.3010 C   0  0  1  0  0  3  0  0  0  0  0  0
  181.9640  174.8930  136.0910 C   0  0  0  0  0  2  0  0  0  0  0  0
  182.9230  175.6280  138.6660 C   0  0  1  0  0  3  0  0  0  0  0  0
  181.2230  174.2840  137.2770 C   0  0  0  0  0  2  0  0  0  0  0  0
  181.4890  175.0810  138.5600 C   0  0  0  0  0  2  0  0  0  0  0  0
  183.9010  174.8490  137.7800 C   0  0  0  0  0  2  0  0  0  0  0  0
  1 16  1  0  0  0  0
  2  9  1  1  0  0  0
  4  3  1  0  0  0  0
  5 24  1  6  0  0  0
  5 18  1  0  0  0  0
  6 15  1  0  0  0  0
  7 12  2  0  0  0  0
  8 11  1  0  0  0  0
  9  3  1  0  0  0  0
 10 20  1  6  0  0  0
 10  5  1  0  0  0  0
 10  6  1  0  0  0  0
 11 17  1  0  0  0  0
 12  2  1  0  0  0  0
 12 13  1  0  0  0  0
 14 11  2  0  0  0  0
 15  7  1  0  0  0  0
 15  1  2  0  0  0  0
 16 13  2  0  0  0  0
 17  2  1  0  0  0  0
 17  4  1  1  0  0  0
 18  8  1  6  0  0  0
 18  7  1  0  0  0  0
 19 21  1  0  0  0  0
 19 22  2  0  0  0  0
 21 23  2  0  0  0  0
 22 20  1  0  0  0  0
 23 20  1  0  0  0  0
 26 25  1  6  0  0  0
 26 31  1  0  0  0  0
 27 26  1  0  0  0  0
 27 29  1  0  0  0  0
 28 24  1  6  0  0  0
 29 30  1  0  0  0  0
 30 28  1  0  0  0  0
 31 28  1  0  0  0  0
M  END
>  <MODEL>
9

>  <REMARK>
 VINA RESULT:      -6.1      3.154      5.255
  Name = 
  3 active torsions:
  status: ('A' for Active; 'I' for Inactive)
    1  A    between atoms: C_7  and  O_31
    2  A    between atoms: C_12  and  N_17
    3  A    between atoms: C_18  and  O_31
                            x       y       z     vdW  Elec       q    Type
                         _______ _______ _______ _____ _____    ______ ____

>  <TORSDO>
F 3

$$$$
