=
 OpenBabel11062416333D

 29 33  0  0  1  0  0  0  0  0999 V2000
  188.5700  177.5860  142.8250 C   0  0  1  0  0  3  0  0  0  0  0  0
  189.3740  177.2280  141.6410 N   0  0  0  0  0  0  0  0  0  0  0  0
  191.4180  177.0550  145.3120 C   0  0  0  0  0  3  0  0  0  0  0  0
  187.3290  176.9370  142.7760 O   0  0  0  0  0  0  0  0  0  0  0  0
  189.3970  177.0240  146.5420 C   0  0  0  0  0  3  0  0  0  0  0  0
  190.7510  176.9740  146.4910 N   0  0  0  0  0  0  0  0  0  0  0  0
  184.6450  179.3570  143.6540 C   0  0  0  0  0  1  0  0  0  0  0  0
  186.4890  178.4300  145.1270 C   0  0  1  0  0  3  0  0  0  0  0  0
  190.7200  177.2150  144.1160 C   0  0  0  0  0  0  0  0  0  0  0  0
  187.1560  177.1200  145.5210 C   0  0  0  0  0  2  0  0  0  0  0  0
  188.6430  177.1760  145.3760 C   0  0  0  0  0  0  0  0  0  0  0  0
  185.5800  178.1840  143.9090 C   0  0  2  0  0  3  0  0  0  0  0  0
  189.3070  177.2720  144.1270 C   0  0  0  0  0  0  0  0  0  0  0  0
  191.5000  177.2170  142.8380 C   0  0  0  0  0  2  0  0  0  0  0  0
  186.3970  177.9740  142.6380 C   0  0  0  0  0  2  0  0  0  0  0  0
  190.7000  177.8480  141.7120 C   0  0  0  0  0  2  0  0  0  0  0  0
  184.7060  178.1270  146.9730 C   0  0  0  0  0  1  0  0  0  0  0  0
  185.7440  178.9680  146.3170 C   0  0  0  0  0  0  0  0  0  0  0  0
  185.9820  180.0850  146.7510 O   0  0  0  0  0  0  0  0  0  0  0  0
  188.7200  177.6210  140.4460 N   0  0  0  0  0  2  0  0  0  0  0  0
  189.6250  176.2960  138.5530 C   0  0  0  0  0  2  0  0  0  0  0  0
  189.2880  178.8490  138.3740 C   0  0  0  0  0  2  0  0  0  0  0  0
  189.6330  177.6550  139.2910 C   0  0  1  0  0  3  0  0  0  0  0  0
  188.7260  177.3350  136.4680 C   0  0  2  0  0  3  0  0  0  0  0  0
  188.5550  176.1900  137.4460 C   0  0  2  0  0  3  0  0  0  0  0  0
  190.0500  177.4800  136.0370 O   0  0  0  0  0  1  0  0  0  0  0  0
  188.2470  178.5200  137.2810 C   0  0  1  0  0  3  0  0  0  0  0  0
  187.1750  176.4650  138.0320 C   0  0  0  0  0  2  0  0  0  0  0  0
  186.9740  177.9800  137.9250 C   0  0  0  0  0  2  0  0  0  0  0  0
  1  4  1  1  0  0  0
  1 13  1  0  0  0  0
  2 16  1  0  0  0  0
  2  1  1  0  0  0  0
  3  6  1  0  0  0  0
  6  5  2  0  0  0  0
  8 10  1  0  0  0  0
  8 18  1  1  0  0  0
  9 13  1  0  0  0  0
  9  3  2  0  0  0  0
 11 10  1  0  0  0  0
 11  5  1  0  0  0  0
 12  7  1  6  0  0  0
 12  8  1  0  0  0  0
 13 11  2  0  0  0  0
 14  9  1  0  0  0  0
 15  4  1  0  0  0  0
 15 12  1  0  0  0  0
 16 14  1  0  0  0  0
 18 19  2  0  0  0  0
 18 17  1  0  0  0  0
 20  2  1  0  0  0  0
 21 23  1  0  0  0  0
 22 23  1  0  0  0  0
 23 20  1  1  0  0  0
 24 26  1  1  0  0  0
 24 27  1  0  0  0  0
 24 25  1  0  0  0  0
 25 28  1  1  0  0  0
 25 21  1  0  0  0  0
 27 29  1  1  0  0  0
 27 22  1  0  0  0  0
 29 28  1  0  0  0  0
M  END
>  <MODEL>
1

>  <REMARK>
 VINA RESULT:      -9.1      0.000      0.000
  Name = 
  3 active torsions:
  status: ('A' for Active; 'I' for Inactive)
    1  A    between atoms: N_2  and  N_18
    2  A    between atoms: C_7  and  N_18
    3  A    between atoms: C_12  and  C_19
                            x       y       z     vdW  Elec       q    Type
                         _______ _______ _______ _____ _____    ______ ____

>  <TORSDO>
F 3

$$$$
=
 OpenBabel11062416333D

 29 33  0  0  1  0  0  0  0  0999 V2000
  187.3570  178.1040  140.1380 C   0  0  1  0  0  3  0  0  0  0  0  0
  188.8300  178.1220  140.2050 N   0  0  0  0  0  0  0  0  0  0  0  0
  187.2210  177.0350  136.4760 C   0  0  0  0  0  3  0  0  0  0  0  0
  186.8350  179.2660  140.7230 O   0  0  0  0  0  0  0  0  0  0  0  0
  185.1010  177.9330  137.0240 C   0  0  0  0  0  3  0  0  0  0  0  0
  185.9410  177.3370  136.1420 N   0  0  0  0  0  0  0  0  0  0  0  0
  183.9880  178.3550  142.9360 C   0  0  0  0  0  1  0  0  0  0  0  0
  184.1540  178.1840  140.4110 C   0  0  1  0  0  3  0  0  0  0  0  0
  187.7010  177.3140  137.7540 C   0  0  0  0  0  0  0  0  0  0  0  0
  184.5640  178.9870  139.1850 C   0  0  0  0  0  2  0  0  0  0  0  0
  185.5270  178.2430  138.3180 C   0  0  0  0  0  0  0  0  0  0  0  0
  184.6290  178.9200  141.6770 C   0  0  2  0  0  3  0  0  0  0  0  0
  186.8560  177.9340  138.7040 C   0  0  0  0  0  0  0  0  0  0  0  0
  189.1430  177.0350  138.0440 C   0  0  0  0  0  2  0  0  0  0  0  0
  186.1400  178.8090  141.8500 C   0  0  0  0  0  2  0  0  0  0  0  0
  189.3910  176.9440  139.5390 C   0  0  0  0  0  2  0  0  0  0  0  0
  182.1160  176.6570  139.9630 C   0  0  0  0  0  1  0  0  0  0  0  0
  182.6650  177.9790  140.3750 C   0  0  0  0  0  0  0  0  0  0  0  0
  181.9010  178.8820  140.6820 O   0  0  0  0  0  0  0  0  0  0  0  0
  189.2760  178.1760  141.5510 N   0  0  0  0  0  2  0  0  0  0  0  0
  191.5540  177.4670  142.2340 C   0  0  0  0  0  2  0  0  0  0  0  0
  189.4490  176.2210  143.0590 C   0  0  0  0  0  2  0  0  0  0  0  0
  190.1100  177.0170  141.9120 C   0  0  1  0  0  3  0  0  0  0  0  0
  191.3690  176.6690  144.5930 C   0  0  2  0  0  3  0  0  0  0  0  0
  191.7810  177.8340  143.7160 C   0  0  2  0  0  3  0  0  0  0  0  0
  191.9200  175.4550  144.1650 O   0  0  0  0  0  1  0  0  0  0  0  0
  189.8600  176.6970  144.4690 C   0  0  1  0  0  3  0  0  0  0  0  0
  190.7970  178.9210  144.1350 C   0  0  0  0  0  2  0  0  0  0  0  0
  189.5470  178.1820  144.6260 C   0  0  0  0  0  2  0  0  0  0  0  0
  1 13  1  6  0  0  0
  1  2  1  0  0  0  0
  1  4  1  0  0  0  0
  2 20  1  0  0  0  0
  3  9  1  0  0  0  0
  4 15  1  0  0  0  0
  5 11  2  0  0  0  0
  6  3  2  0  0  0  0
  6  5  1  0  0  0  0
  8 18  1  1  0  0  0
  8 12  1  0  0  0  0
  9 14  1  0  0  0  0
  9 13  2  0  0  0  0
 10  8  1  0  0  0  0
 11 13  1  0  0  0  0
 11 10  1  0  0  0  0
 12 15  1  0  0  0  0
 12  7  1  1  0  0  0
 14 16  1  0  0  0  0
 16  2  1  0  0  0  0
 17 18  1  0  0  0  0
 18 19  2  0  0  0  0
 23 20  1  1  0  0  0
 23 21  1  0  0  0  0
 23 22  1  0  0  0  0
 24 26  1  6  0  0  0
 25 21  1  6  0  0  0
 25 28  1  0  0  0  0
 25 24  1  0  0  0  0
 27 22  1  6  0  0  0
 27 24  1  0  0  0  0
 27 29  1  0  0  0  0
 28 29  1  0  0  0  0
M  END
>  <MODEL>
2

>  <REMARK>
 VINA RESULT:      -8.2      2.611      6.455
  Name = 
  3 active torsions:
  status: ('A' for Active; 'I' for Inactive)
    1  A    between atoms: N_2  and  N_18
    2  A    between atoms: C_7  and  N_18
    3  A    between atoms: C_12  and  C_19
                            x       y       z     vdW  Elec       q    Type
                         _______ _______ _______ _____ _____    ______ ____

>  <TORSDO>
F 3

$$$$
=
 OpenBabel11062416333D

 29 33  0  0  1  0  0  0  0  0999 V2000
  186.1550  178.4210  142.8820 C   0  0  1  0  0  3  0  0  0  0  0  0
  184.8220  179.0460  142.7890 N   0  0  0  0  0  0  0  0  0  0  0  0
  186.0170  177.9470  146.6670 C   0  0  0  0  0  3  0  0  0  0  0  0
  187.0830  179.1560  142.1320 O   0  0  0  0  0  0  0  0  0  0  0  0
  188.2880  177.7800  146.0210 C   0  0  0  0  0  3  0  0  0  0  0  0
  187.3210  177.7290  146.9710 N   0  0  0  0  0  0  0  0  0  0  0  0
  189.1760  176.8200  140.1350 C   0  0  0  0  0  1  0  0  0  0  0  0
  189.0820  177.1080  142.6520 C   0  0  1  0  0  3  0  0  0  0  0  0
  185.6330  178.2090  145.3530 C   0  0  0  0  0  0  0  0  0  0  0  0
  189.1060  178.1810  143.7320 C   0  0  0  0  0  2  0  0  0  0  0  0
  187.9650  178.0460  144.6890 C   0  0  0  0  0  0  0  0  0  0  0  0
  188.8940  177.7800  141.2800 C   0  0  2  0  0  3  0  0  0  0  0  0
  186.6100  178.2700  144.3320 C   0  0  0  0  0  0  0  0  0  0  0  0
  184.1940  178.5210  145.0870 C   0  0  0  0  0  2  0  0  0  0  0  0
  187.4670  178.2900  141.1010 C   0  0  0  0  0  2  0  0  0  0  0  0
  183.8550  178.3230  143.6200 C   0  0  0  0  0  2  0  0  0  0  0  0
  191.6640  177.0050  142.7230 C   0  0  0  0  0  1  0  0  0  0  0  0
  190.3490  176.3050  142.7440 C   0  0  0  0  0  0  0  0  0  0  0  0
  190.3140  175.0880  142.8370 O   0  0  0  0  0  0  0  0  0  0  0  0
  184.3720  179.0820  141.4440 N   0  0  0  0  0  2  0  0  0  0  0  0
  181.9580  179.2060  140.8840 C   0  0  0  0  0  2  0  0  0  0  0  0
  183.4020  177.1810  140.1910 C   0  0  0  0  0  2  0  0  0  0  0  0
  183.1500  178.2870  141.2400 C   0  0  1  0  0  3  0  0  0  0  0  0
  181.6970  178.1430  138.6390 C   0  0  2  0  0  3  0  0  0  0  0  0
  181.7970  179.4660  139.3710 C   0  0  2  0  0  3  0  0  0  0  0  0
  180.7630  177.2770  139.2200 O   0  0  0  0  0  1  0  0  0  0  0  0
  183.1140  177.6180  138.7380 C   0  0  1  0  0  3  0  0  0  0  0  0
  183.0860  180.0530  138.8070 C   0  0  0  0  0  2  0  0  0  0  0  0
  183.9430  178.8520  138.3950 C   0  0  0  0  0  2  0  0  0  0  0  0
  1  4  1  6  0  0  0
  1 13  1  0  0  0  0
  2  1  1  0  0  0  0
  2 16  1  0  0  0  0
  3  6  1  0  0  0  0
  5  6  2  0  0  0  0
  8 18  1  6  0  0  0
  8 10  1  0  0  0  0
  9  3  2  0  0  0  0
 10 11  1  0  0  0  0
 11  5  1  0  0  0  0
 12  7  1  6  0  0  0
 12  8  1  0  0  0  0
 13 11  2  0  0  0  0
 13  9  1  0  0  0  0
 14  9  1  0  0  0  0
 15 12  1  0  0  0  0
 15  4  1  0  0  0  0
 16 14  1  0  0  0  0
 17 18  1  0  0  0  0
 18 19  2  0  0  0  0
 20  2  1  0  0  0  0
 21 23  1  0  0  0  0
 22 23  1  0  0  0  0
 23 20  1  6  0  0  0
 24 27  1  0  0  0  0
 24 26  1  1  0  0  0
 24 25  1  0  0  0  0
 25 28  1  6  0  0  0
 25 21  1  0  0  0  0
 27 29  1  1  0  0  0
 27 22  1  0  0  0  0
 29 28  1  0  0  0  0
M  END
>  <MODEL>
3

>  <REMARK>
 VINA RESULT:      -7.8      3.181      5.715
  Name = 
  3 active torsions:
  status: ('A' for Active; 'I' for Inactive)
    1  A    between atoms: N_2  and  N_18
    2  A    between atoms: C_7  and  N_18
    3  A    between atoms: C_12  and  C_19
                            x       y       z     vdW  Elec       q    Type
                         _______ _______ _______ _____ _____    ______ ____

>  <TORSDO>
F 3

$$$$
=
 OpenBabel11062416333D

 29 33  0  0  1  0  0  0  0  0999 V2000
  186.8100  178.2710  141.8580 C   0  0  1  0  0  3  0  0  0  0  0  0
  186.4220  178.5050  140.4540 N   0  0  0  0  0  0  0  0  0  0  0  0
  190.2050  176.7530  140.9970 C   0  0  0  0  0  3  0  0  0  0  0  0
  185.7480  177.6820  142.5580 O   0  0  0  0  0  0  0  0  0  0  0  0
  189.6960  176.1190  143.2200 C   0  0  0  0  0  3  0  0  0  0  0  0
  190.5380  176.1330  142.1570 N   0  0  0  0  0  0  0  0  0  0  0  0
  185.3530  179.3780  145.8440 C   0  0  0  0  0  1  0  0  0  0  0  0
  187.2700  177.9360  145.0230 C   0  0  1  0  0  3  0  0  0  0  0  0
  188.9840  177.4150  140.8770 C   0  0  0  0  0  0  0  0  0  0  0  0
  187.5550  176.6060  144.3390 C   0  0  0  0  0  2  0  0  0  0  0  0
  188.4560  176.7600  143.1560 C   0  0  0  0  0  0  0  0  0  0  0  0
  185.7650  178.2410  144.9210 C   0  0  2  0  0  3  0  0  0  0  0  0
  188.0780  177.4250  141.9620 C   0  0  0  0  0  0  0  0  0  0  0  0
  188.6330  178.0120  139.5500 C   0  0  0  0  0  2  0  0  0  0  0  0
  185.3740  178.6460  143.5030 C   0  0  0  0  0  2  0  0  0  0  0  0
  187.5450  179.0610  139.6950 C   0  0  0  0  0  2  0  0  0  0  0  0
  189.2240  177.8770  146.7150 C   0  0  0  0  0  1  0  0  0  0  0  0
  187.7590  177.8620  146.4420 C   0  0  0  0  0  0  0  0  0  0  0  0
  186.9710  177.7920  147.3730 O   0  0  0  0  0  0  0  0  0  0  0  0
  185.3050  179.3770  140.3750 N   0  0  0  0  0  2  0  0  0  0  0  0
  184.4540  177.8580  138.6070 C   0  0  0  0  0  2  0  0  0  0  0  0
  183.3260  180.1280  139.0940 C   0  0  0  0  0  2  0  0  0  0  0  0
  184.6450  179.3240  139.0600 C   0  0  1  0  0  3  0  0  0  0  0  0
  181.9670  178.0870  138.6140 C   0  0  2  0  0  3  0  0  0  0  0  0
  183.1260  177.2250  139.0740 C   0  0  2  0  0  3  0  0  0  0  0  0
  182.0510  178.4200  137.2570 O   0  0  0  0  0  1  0  0  0  0  0  0
  182.0960  179.2960  139.5170 C   0  0  1  0  0  3  0  0  0  0  0  0
  183.0160  177.3130  140.5920 C   0  0  0  0  0  2  0  0  0  0  0  0
  182.3460  178.6610  140.8810 C   0  0  0  0  0  2  0  0  0  0  0  0
  1 13  1  6  0  0  0
  1  4  1  0  0  0  0
  2  1  1  0  0  0  0
  3  6  1  0  0  0  0
  4 15  1  0  0  0  0
  6  5  2  0  0  0  0
  8 18  1  1  0  0  0
  9  3  2  0  0  0  0
  9 13  1  0  0  0  0
 10  8  1  0  0  0  0
 11  5  1  0  0  0  0
 11 10  1  0  0  0  0
 12  8  1  0  0  0  0
 12  7  1  1  0  0  0
 13 11  2  0  0  0  0
 14 16  1  0  0  0  0
 14  9  1  0  0  0  0
 15 12  1  0  0  0  0
 16  2  1  0  0  0  0
 18 17  1  0  0  0  0
 18 19  2  0  0  0  0
 20  2  1  0  0  0  0
 21 23  1  0  0  0  0
 23 22  1  0  0  0  0
 23 20  1  1  0  0  0
 24 26  1  6  0  0  0
 24 25  1  0  0  0  0
 24 27  1  0  0  0  0
 25 21  1  6  0  0  0
 25 28  1  0  0  0  0
 27 22  1  6  0  0  0
 27 29  1  0  0  0  0
 28 29  1  0  0  0  0
M  END
>  <MODEL>
4

>  <REMARK>
 VINA RESULT:      -7.8      2.915      4.288
  Name = 
  3 active torsions:
  status: ('A' for Active; 'I' for Inactive)
    1  A    between atoms: N_2  and  N_18
    2  A    between atoms: C_7  and  N_18
    3  A    between atoms: C_12  and  C_19
                            x       y       z     vdW  Elec       q    Type
                         _______ _______ _______ _____ _____    ______ ____

>  <TORSDO>
F 3

$$$$
=
 OpenBabel11062416333D

 29 33  0  0  1  0  0  0  0  0999 V2000
  186.8390  178.1940  140.0940 C   0  0  1  0  0  3  0  0  0  0  0  0
  185.7710  178.7090  139.2150 N   0  0  0  0  0  0  0  0  0  0  0  0
  184.7140  178.2980  143.2640 C   0  0  0  0  0  3  0  0  0  0  0  0
  188.0410  178.8650  139.8320 O   0  0  0  0  0  0  0  0  0  0  0  0
  186.9790  178.1830  143.9400 C   0  0  0  0  0  3  0  0  0  0  0  0
  185.6560  178.2150  144.2370 N   0  0  0  0  0  0  0  0  0  0  0  0
  190.8110  176.3910  139.6430 C   0  0  0  0  0  1  0  0  0  0  0  0
  189.4120  177.0550  141.6500 C   0  0  1  0  0  3  0  0  0  0  0  0
  185.0880  178.3310  141.9210 C   0  0  0  0  0  0  0  0  0  0  0  0
  188.8910  178.2800  142.3890 C   0  0  0  0  0  2  0  0  0  0  0  0
  187.4140  178.2200  142.6140 C   0  0  0  0  0  0  0  0  0  0  0  0
  189.9930  177.4950  140.2940 C   0  0  2  0  0  3  0  0  0  0  0  0
  186.4570  178.2970  141.5700 C   0  0  0  0  0  0  0  0  0  0  0  0
  184.0130  178.5030  140.8940 C   0  0  0  0  0  2  0  0  0  0  0  0
  188.8880  177.8770  139.3140 C   0  0  0  0  0  2  0  0  0  0  0  0
  184.4940  178.0610  139.5230 C   0  0  0  0  0  2  0  0  0  0  0  0
  191.5900  177.1220  143.0410 C   0  0  0  0  0  1  0  0  0  0  0  0
  190.4200  176.3600  142.5230 C   0  0  0  0  0  0  0  0  0  0  0  0
  190.2890  175.1800  142.8130 O   0  0  0  0  0  0  0  0  0  0  0  0
  186.0990  178.5090  137.8490 N   0  0  0  0  0  2  0  0  0  0  0  0
  184.8780  177.4010  135.9950 C   0  0  0  0  0  2  0  0  0  0  0  0
  186.7830  176.2050  137.2600 C   0  0  0  0  0  2  0  0  0  0  0  0
  185.6170  177.2140  137.3410 C   0  0  1  0  0  3  0  0  0  0  0  0
  186.5530  176.0020  134.7810 C   0  0  2  0  0  3  0  0  0  0  0  0
  185.7970  177.3150  134.7580 C   0  0  2  0  0  3  0  0  0  0  0  0
  185.7140  174.9040  135.0070 O   0  0  0  0  0  1  0  0  0  0  0  0
  187.5360  176.2230  135.9120 C   0  0  1  0  0  3  0  0  0  0  0  0
  186.9200  178.3400  134.8750 C   0  0  0  0  0  2  0  0  0  0  0  0
  188.0520  177.6300  135.6260 C   0  0  0  0  0  2  0  0  0  0  0  0
  1  4  1  1  0  0  0
  1 13  1  0  0  0  0
  2 16  1  0  0  0  0
  2  1  1  0  0  0  0
  3  6  1  0  0  0  0
  5  6  2  0  0  0  0
  8 10  1  0  0  0  0
  8 18  1  1  0  0  0
  9  3  2  0  0  0  0
 10 11  1  0  0  0  0
 11  5  1  0  0  0  0
 12  7  1  6  0  0  0
 12  8  1  0  0  0  0
 13  9  1  0  0  0  0
 13 11  2  0  0  0  0
 14  9  1  0  0  0  0
 15  4  1  0  0  0  0
 15 12  1  0  0  0  0
 16 14  1  0  0  0  0
 18 19  2  0  0  0  0
 18 17  1  0  0  0  0
 20  2  1  0  0  0  0
 21 23  1  0  0  0  0
 22 23  1  0  0  0  0
 23 20  1  6  0  0  0
 24 26  1  1  0  0  0
 24 27  1  0  0  0  0
 25 24  1  0  0  0  0
 25 28  1  1  0  0  0
 25 21  1  0  0  0  0
 27 29  1  6  0  0  0
 27 22  1  0  0  0  0
 28 29  1  0  0  0  0
M  END
>  <MODEL>
5

>  <REMARK>
 VINA RESULT:      -7.3      2.831      5.201
  Name = 
  3 active torsions:
  status: ('A' for Active; 'I' for Inactive)
    1  A    between atoms: N_2  and  N_18
    2  A    between atoms: C_7  and  N_18
    3  A    between atoms: C_12  and  C_19
                            x       y       z     vdW  Elec       q    Type
                         _______ _______ _______ _____ _____    ______ ____

>  <TORSDO>
F 3

$$$$
=
 OpenBabel11062416333D

 29 33  0  0  1  0  0  0  0  0999 V2000
  185.3280  178.5420  140.6460 C   0  0  1  0  0  3  0  0  0  0  0  0
  185.2580  178.7260  139.1840 N   0  0  0  0  0  0  0  0  0  0  0  0
  181.5440  178.5750  141.1500 C   0  0  0  0  0  3  0  0  0  0  0  0
  186.2850  179.4090  141.1930 O   0  0  0  0  0  0  0  0  0  0  0  0
  182.5370  179.0000  143.2560 C   0  0  0  0  0  3  0  0  0  0  0  0
  181.4400  178.7970  142.4850 N   0  0  0  0  0  0  0  0  0  0  0  0
  188.3760  177.5440  143.6380 C   0  0  0  0  0  1  0  0  0  0  0  0
  185.9150  178.1360  143.7820 C   0  0  1  0  0  3  0  0  0  0  0  0
  182.7960  178.5280  140.5380 C   0  0  0  0  0  0  0  0  0  0  0  0
  184.9570  179.3060  143.6070 C   0  0  0  0  0  2  0  0  0  0  0  0
  183.8170  178.9730  142.6980 C   0  0  0  0  0  0  0  0  0  0  0  0
  187.2930  178.5270  143.2190 C   0  0  2  0  0  3  0  0  0  0  0  0
  183.9650  178.7340  141.3080 C   0  0  0  0  0  0  0  0  0  0  0  0
  182.8500  178.3610  139.0520 C   0  0  0  0  0  2  0  0  0  0  0  0
  187.2810  178.5610  141.6930 C   0  0  0  0  0  2  0  0  0  0  0  0
  184.2170  177.8720  138.6080 C   0  0  0  0  0  2  0  0  0  0  0  0
  185.3200  178.6590  146.2430 C   0  0  0  0  0  1  0  0  0  0  0  0
  185.9590  177.7650  145.2380 C   0  0  0  0  0  0  0  0  0  0  0  0
  186.5110  176.7380  145.6060 O   0  0  0  0  0  0  0  0  0  0  0  0
  186.5080  178.4410  138.5770 N   0  0  0  0  0  2  0  0  0  0  0  0
  187.0960  178.4570  136.1660 C   0  0  0  0  0  2  0  0  0  0  0  0
  186.8230  176.2490  137.4740 C   0  0  0  0  0  2  0  0  0  0  0  0
  186.3620  177.7130  137.3060 C   0  0  1  0  0  3  0  0  0  0  0  0
  188.6600  176.5430  135.8070 C   0  0  2  0  0  3  0  0  0  0  0  0
  188.5740  178.0440  135.9980 C   0  0  2  0  0  3  0  0  0  0  0  0
  187.7710  176.0750  134.8310 O   0  0  0  0  0  1  0  0  0  0  0  0
  188.3250  176.0280  137.1910 C   0  0  1  0  0  3  0  0  0  0  0  0
  189.3210  178.2480  137.3110 C   0  0  0  0  0  2  0  0  0  0  0  0
  189.1600  176.9370  138.0880 C   0  0  0  0  0  2  0  0  0  0  0  0
  1  4  1  1  0  0  0
  1 13  1  0  0  0  0
  2  1  1  0  0  0  0
  3  6  1  0  0  0  0
  4 15  1  0  0  0  0
  6  5  2  0  0  0  0
  8 18  1  1  0  0  0
  9  3  2  0  0  0  0
  9 13  1  0  0  0  0
 10  8  1  0  0  0  0
 11  5  1  0  0  0  0
 11 10  1  0  0  0  0
 12  7  1  6  0  0  0
 12  8  1  0  0  0  0
 13 11  2  0  0  0  0
 14  9  1  0  0  0  0
 15 12  1  0  0  0  0
 16 14  1  0  0  0  0
 16  2  1  0  0  0  0
 18 19  2  0  0  0  0
 18 17  1  0  0  0  0
 20  2  1  0  0  0  0
 21 23  1  0  0  0  0
 23 22  1  0  0  0  0
 23 20  1  1  0  0  0
 24 26  1  6  0  0  0
 24 25  1  0  0  0  0
 24 27  1  0  0  0  0
 25 21  1  1  0  0  0
 25 28  1  0  0  0  0
 27 22  1  1  0  0  0
 27 29  1  0  0  0  0
 28 29  1  0  0  0  0
M  END
>  <MODEL>
6

>  <REMARK>
 VINA RESULT:      -7.3      2.675      5.161
  Name = 
  3 active torsions:
  status: ('A' for Active; 'I' for Inactive)
    1  A    between atoms: N_2  and  N_18
    2  A    between atoms: C_7  and  N_18
    3  A    between atoms: C_12  and  C_19
                            x       y       z     vdW  Elec       q    Type
                         _______ _______ _______ _____ _____    ______ ____

>  <TORSDO>
F 3

$$$$
=
 OpenBabel11062416333D

 29 33  0  0  1  0  0  0  0  0999 V2000
  188.6530  177.4170  139.1670 C   0  0  1  0  0  3  0  0  0  0  0  0
  188.9210  177.4280  137.7160 N   0  0  0  0  0  0  0  0  0  0  0  0
  185.1160  178.8150  138.8440 C   0  0  0  0  0  3  0  0  0  0  0  0
  189.7420  177.9620  139.8600 O   0  0  0  0  0  0  0  0  0  0  0  0
  185.7940  179.1330  141.0890 C   0  0  0  0  0  3  0  0  0  0  0  0
  184.8580  179.2260  140.1110 N   0  0  0  0  0  0  0  0  0  0  0  0
  190.5310  175.8120  142.7910 C   0  0  0  0  0  1  0  0  0  0  0  0
  188.4700  177.2290  142.3720 C   0  0  1  0  0  3  0  0  0  0  0  0
  186.3540  178.2640  138.5180 C   0  0  0  0  0  0  0  0  0  0  0  0
  188.0520  178.6260  141.9350 C   0  0  0  0  0  2  0  0  0  0  0  0
  187.0550  178.5960  140.8210 C   0  0  0  0  0  0  0  0  0  0  0  0
  189.9740  177.0470  142.0980 C   0  0  2  0  0  3  0  0  0  0  0  0
  187.3560  178.1490  139.5090 C   0  0  0  0  0  0  0  0  0  0  0  0
  186.6120  177.9030  137.0890 C   0  0  0  0  0  2  0  0  0  0  0  0
  190.2530  176.8920  140.6060 C   0  0  0  0  0  2  0  0  0  0  0  0
  187.7640  176.9210  136.9740 C   0  0  0  0  0  2  0  0  0  0  0  0
  188.8730  177.7960  144.8620 C   0  0  0  0  0  1  0  0  0  0  0  0
  188.1120  177.0510  143.8210 C   0  0  0  0  0  0  0  0  0  0  0  0
  187.2030  176.3050  144.1530 O   0  0  0  0  0  0  0  0  0  0  0  0
  190.0710  176.6560  137.4070 N   0  0  0  0  0  2  0  0  0  0  0  0
  190.6310  175.8290  135.1360 C   0  0  0  0  0  2  0  0  0  0  0  0
  189.9960  174.2100  137.0430 C   0  0  0  0  0  2  0  0  0  0  0  0
  189.7900  175.6050  136.4150 C   0  0  1  0  0  3  0  0  0  0  0  0
  191.8410  173.6660  135.4490 C   0  0  2  0  0  3  0  0  0  0  0  0
  192.0150  175.1450  135.1680 C   0  0  2  0  0  3  0  0  0  0  0  0
  190.8770  173.0730  134.6250 O   0  0  0  0  0  1  0  0  0  0  0  0
  191.4360  173.6680  136.9090 C   0  0  1  0  0  3  0  0  0  0  0  0
  192.7980  175.6190  136.3880 C   0  0  0  0  0  2  0  0  0  0  0  0
  192.4210  174.6580  137.5210 C   0  0  0  0  0  2  0  0  0  0  0  0
  1 13  1  6  0  0  0
  1  4  1  0  0  0  0
  2  1  1  0  0  0  0
  3  6  1  0  0  0  0
  4 15  1  0  0  0  0
  6  5  2  0  0  0  0
  8 18  1  1  0  0  0
  9  3  2  0  0  0  0
  9 13  1  0  0  0  0
 10  8  1  0  0  0  0
 11  5  1  0  0  0  0
 11 10  1  0  0  0  0
 12  8  1  0  0  0  0
 12  7  1  1  0  0  0
 13 11  2  0  0  0  0
 14  9  1  0  0  0  0
 15 12  1  0  0  0  0
 16 14  1  0  0  0  0
 16  2  1  0  0  0  0
 18 19  2  0  0  0  0
 18 17  1  0  0  0  0
 20  2  1  0  0  0  0
 21 23  1  0  0  0  0
 23 22  1  0  0  0  0
 23 20  1  1  0  0  0
 24 26  1  6  0  0  0
 24 27  1  0  0  0  0
 25 21  1  1  0  0  0
 25 24  1  0  0  0  0
 25 28  1  0  0  0  0
 27 22  1  6  0  0  0
 27 29  1  0  0  0  0
 28 29  1  0  0  0  0
M  END
>  <MODEL>
7

>  <REMARK>
 VINA RESULT:      -7.1      2.899      5.462
  Name = 
  3 active torsions:
  status: ('A' for Active; 'I' for Inactive)
    1  A    between atoms: N_2  and  N_18
    2  A    between atoms: C_7  and  N_18
    3  A    between atoms: C_12  and  C_19
                            x       y       z     vdW  Elec       q    Type
                         _______ _______ _______ _____ _____    ______ ____

>  <TORSDO>
F 3

$$$$
=
 OpenBabel11062416333D

 29 33  0  0  1  0  0  0  0  0999 V2000
  186.9280  178.1510  140.9630 C   0  0  1  0  0  3  0  0  0  0  0  0
  185.8470  178.7890  141.7380 N   0  0  0  0  0  0  0  0  0  0  0  0
  188.8990  177.0310  144.0330 C   0  0  0  0  0  3  0  0  0  0  0  0
  187.3410  179.0010  139.9280 O   0  0  0  0  0  0  0  0  0  0  0  0
  190.3790  176.9680  142.1870 C   0  0  0  0  0  3  0  0  0  0  0  0
  190.1180  176.7580  143.5020 N   0  0  0  0  0  0  0  0  0  0  0  0
  187.6910  177.0350  136.7900 C   0  0  0  0  0  1  0  0  0  0  0  0
  189.0620  176.8850  138.9180 C   0  0  1  0  0  3  0  0  0  0  0  0
  187.8710  177.5180  143.2280 C   0  0  0  0  0  0  0  0  0  0  0  0
  189.8000  177.7550  139.9250 C   0  0  0  0  0  2  0  0  0  0  0  0
  189.3910  177.4620  141.3330 C   0  0  0  0  0  0  0  0  0  0  0  0
  188.2040  177.7850  138.0100 C   0  0  2  0  0  3  0  0  0  0  0  0
  188.1030  177.7500  141.8520 C   0  0  0  0  0  0  0  0  0  0  0  0
  186.5730  177.8780  143.8810 C   0  0  0  0  0  2  0  0  0  0  0  0
  186.9860  178.3240  138.7550 C   0  0  0  0  0  2  0  0  0  0  0  0
  185.4490  177.9390  142.8620 C   0  0  0  0  0  2  0  0  0  0  0  0
  191.2920  176.7350  137.6190 C   0  0  0  0  0  1  0  0  0  0  0  0
  190.0700  176.0720  138.1540 C   0  0  0  0  0  0  0  0  0  0  0  0
  189.9000  174.8770  137.9680 O   0  0  0  0  0  0  0  0  0  0  0  0
  184.7230  179.0590  140.9150 N   0  0  0  0  0  2  0  0  0  0  0  0
  182.3050  178.9670  141.4610 C   0  0  0  0  0  2  0  0  0  0  0  0
  183.4400  177.1280  140.0500 C   0  0  0  0  0  2  0  0  0  0  0  0
  183.5940  178.1560  141.1920 C   0  0  1  0  0  3  0  0  0  0  0  0
  181.1660  177.9820  139.4690 C   0  0  2  0  0  3  0  0  0  0  0  0
  181.4820  179.2750  140.1920 C   0  0  2  0  0  3  0  0  0  0  0  0
  180.6430  177.0030  140.3230 O   0  0  0  0  0  1  0  0  0  0  0  0
  182.5180  177.5970  138.9040 C   0  0  1  0  0  3  0  0  0  0  0  0
  182.3510  180.0120  139.1780 C   0  0  0  0  0  2  0  0  0  0  0  0
  183.0250  178.9200  138.3400 C   0  0  0  0  0  2  0  0  0  0  0  0
  1  4  1  6  0  0  0
  1  2  1  0  0  0  0
  1 13  1  0  0  0  0
  2 16  1  0  0  0  0
  5  6  2  0  0  0  0
  6  3  1  0  0  0  0
  8 18  1  6  0  0  0
  8 10  1  0  0  0  0
  9 14  1  0  0  0  0
  9  3  2  0  0  0  0
 10 11  1  0  0  0  0
 11 13  2  0  0  0  0
 11  5  1  0  0  0  0
 12  7  1  6  0  0  0
 12 15  1  0  0  0  0
 12  8  1  0  0  0  0
 13  9  1  0  0  0  0
 15  4  1  0  0  0  0
 16 14  1  0  0  0  0
 17 18  1  0  0  0  0
 19 18  2  0  0  0  0
 20  2  1  0  0  0  0
 22 23  1  0  0  0  0
 23 20  1  6  0  0  0
 23 21  1  0  0  0  0
 24 25  1  0  0  0  0
 24 26  1  1  0  0  0
 25 28  1  6  0  0  0
 25 21  1  0  0  0  0
 27 29  1  1  0  0  0
 27 24  1  0  0  0  0
 27 22  1  0  0  0  0
 29 28  1  0  0  0  0
M  END
>  <MODEL>
8

>  <REMARK>
 VINA RESULT:      -7.1      3.098      6.456
  Name = 
  3 active torsions:
  status: ('A' for Active; 'I' for Inactive)
    1  A    between atoms: N_2  and  N_18
    2  A    between atoms: C_7  and  N_18
    3  A    between atoms: C_12  and  C_19
                            x       y       z     vdW  Elec       q    Type
                         _______ _______ _______ _____ _____    ______ ____

>  <TORSDO>
F 3

$$$$
=
 OpenBabel11062416333D

 29 33  0  0  1  0  0  0  0  0999 V2000
  186.4600  178.1440  142.6050 C   0  0  1  0  0  3  0  0  0  0  0  0
  185.7540  178.3220  141.3220 N   0  0  0  0  0  0  0  0  0  0  0  0
  189.7640  177.1010  141.0010 C   0  0  0  0  0  3  0  0  0  0  0  0
  185.6600  177.4160  143.4960 O   0  0  0  0  0  0  0  0  0  0  0  0
  189.8300  176.4050  143.2630 C   0  0  0  0  0  3  0  0  0  0  0  0
  190.4170  176.5320  142.0460 N   0  0  0  0  0  0  0  0  0  0  0  0
  185.7550  179.0440  146.8390 C   0  0  0  0  0  1  0  0  0  0  0  0
  187.6270  177.8760  145.5890 C   0  0  1  0  0  3  0  0  0  0  0  0
  188.4690  177.5910  141.1610 C   0  0  0  0  0  0  0  0  0  0  0  0
  187.9330  176.5970  144.8230 C   0  0  0  0  0  2  0  0  0  0  0  0
  188.5320  176.8700  143.4810 C   0  0  0  0  0  0  0  0  0  0  0  0
  186.1070  177.9730  145.8180 C   0  0  2  0  0  3  0  0  0  0  0  0
  187.8220  177.4780  142.4140 C   0  0  0  0  0  0  0  0  0  0  0  0
  187.7660  178.1340  139.9560 C   0  0  0  0  0  2  0  0  0  0  0  0
  185.3720  178.3200  144.5270 C   0  0  0  0  0  2  0  0  0  0  0  0
  186.6040  179.0250  140.3590 C   0  0  0  0  0  2  0  0  0  0  0  0
  188.2020  176.7720  147.8550 C   0  0  0  0  0  1  0  0  0  0  0  0
  188.4140  177.8690  146.8700 C   0  0  0  0  0  0  0  0  0  0  0  0
  189.2240  178.7510  147.1120 O   0  0  0  0  0  0  0  0  0  0  0  0
  184.5400  179.0340  141.5060 N   0  0  0  0  0  2  0  0  0  0  0  0
  182.0630  178.9970  141.3660 C   0  0  0  0  0  2  0  0  0  0  0  0
  183.5040  177.1510  140.2800 C   0  0  0  0  0  2  0  0  0  0  0  0
  183.3600  178.1570  141.4430 C   0  0  1  0  0  3  0  0  0  0  0  0
  181.4960  178.0730  139.1160 C   0  0  2  0  0  3  0  0  0  0  0  0
  181.6280  179.3470  139.9270 C   0  0  2  0  0  3  0  0  0  0  0  0
  180.7380  177.0960  139.7720 O   0  0  0  0  0  1  0  0  0  0  0  0
  182.9430  177.6620  138.9360 C   0  0  1  0  0  3  0  0  0  0  0  0
  182.7580  180.0760  139.2070 C   0  0  0  0  0  2  0  0  0  0  0  0
  183.6130  178.9800  138.5620 C   0  0  0  0  0  2  0  0  0  0  0  0
  1 13  1  6  0  0  0
  1  4  1  0  0  0  0
  2 20  1  0  0  0  0
  2  1  1  0  0  0  0
  3  9  2  0  0  0  0
  3  6  1  0  0  0  0
  4 15  1  0  0  0  0
  5 11  1  0  0  0  0
  6  5  2  0  0  0  0
  8 12  1  0  0  0  0
  8 18  1  1  0  0  0
  9 13  1  0  0  0  0
 10  8  1  0  0  0  0
 11 10  1  0  0  0  0
 12  7  1  1  0  0  0
 13 11  2  0  0  0  0
 14 16  1  0  0  0  0
 14  9  1  0  0  0  0
 15 12  1  0  0  0  0
 16  2  1  0  0  0  0
 18 19  2  0  0  0  0
 18 17  1  0  0  0  0
 21 23  1  0  0  0  0
 22 23  1  0  0  0  0
 23 20  1  6  0  0  0
 24 26  1  1  0  0  0
 24 25  1  0  0  0  0
 25 28  1  6  0  0  0
 25 21  1  0  0  0  0
 27 29  1  1  0  0  0
 27 24  1  0  0  0  0
 27 22  1  0  0  0  0
 29 28  1  0  0  0  0
M  END
>  <MODEL>
9

>  <REMARK>
 VINA RESULT:      -7.0      3.057      4.845
  Name = 
  3 active torsions:
  status: ('A' for Active; 'I' for Inactive)
    1  A    between atoms: N_2  and  N_18
    2  A    between atoms: C_7  and  N_18
    3  A    between atoms: C_12  and  C_19
                            x       y       z     vdW  Elec       q    Type
                         _______ _______ _______ _____ _____    ______ ____

>  <TORSDO>
F 3

$$$$
