=
 OpenBabel11062413513D

 25 28  0  0  1  0  0  0  0  0999 V2000
  183.3630  179.0480  145.7990 O   0  0  0  0  0  0  0  0  0  0  0  0
  186.5710  177.5440  144.8400 C   0  0  0  0  0  0  0  0  0  0  0  0
  185.1970  178.1170  144.5760 C   0  0  1  0  0  3  0  0  0  0  0  0
  186.5770  178.5020  147.0910 C   0  0  0  0  0  3  0  0  0  0  0  0
  187.2080  177.7470  145.9990 C   0  0  0  0  0  3  0  0  0  0  0  0
  185.3580  178.9330  146.9900 N   0  0  0  0  0  0  0  0  0  0  0  0
  184.5760  178.7140  145.8110 C   0  0  0  0  0  0  0  0  0  0  0  0
  187.2460  176.7390  143.7760 C   0  0  0  0  0  2  0  0  0  0  0  0
  188.7170  176.5130  144.0960 C   0  0  0  0  0  2  0  0  0  0  0  0
  191.0900  177.0920  143.3410 C   0  0  1  0  0  0  0  0  0  0  0  0
  191.3980  175.7980  146.6510 O   0  0  0  0  0  1  0  0  0  0  0  0
  190.5750  178.2400  144.1910 C   0  0  2  0  0  0  0  0  0  0  0  0
  190.8300  177.8870  145.6490 C   0  0  0  0  0  2  0  0  0  0  0  0
  191.6160  176.0240  144.2860 C   0  0  0  0  0  2  0  0  0  0  0  0
  189.6060  177.4670  143.2990 C   0  0  2  0  0  3  0  0  0  0  0  0
  190.9700  179.5020  143.7430 O   0  0  0  0  0  1  0  0  0  0  0  0
  191.9320  177.4850  142.1380 C   0  0  0  0  0  1  0  0  0  0  0  0
  191.7610  176.6890  145.6420 C   0  0  2  0  0  3  0  0  0  0  0  0
  185.2800  179.1340  143.5370 N   0  0  0  0  0  2  0  0  0  0  0  0
  183.2320  178.8460  142.2520 C   0  0  0  0  0  2  0  0  0  0  0  0
  184.7660  178.6710  139.8230 C   0  0  0  0  0  2  0  0  0  0  0  0
  184.7300  178.5550  142.3230 C   0  0  1  0  0  3  0  0  0  0  0  0
  182.6690  178.2760  141.0280 N   0  0  0  0  0  2  0  0  0  0  0  0
  183.2670  178.9550  139.8790 C   0  0  0  0  0  2  0  0  0  0  0  0
  185.4250  179.1610  141.1070 C   0  0  0  0  0  2  0  0  0  0  0  0
  1  7  2  0  0  0  0
  2  5  2  0  0  0  0
  3 19  1  6  0  0  0
  3  2  1  0  0  0  0
  3  7  1  0  0  0  0
  5  4  1  0  0  0  0
  6  4  2  0  0  0  0
  7  6  1  0  0  0  0
  8  9  1  0  0  0  0
  8  2  1  0  0  0  0
 10 17  1  6  0  0  0
 10 12  1  0  0  0  0
 10 14  1  0  0  0  0
 12 16  1  6  0  0  0
 12 13  1  0  0  0  0
 14 18  1  0  0  0  0
 15 10  1  0  0  0  0
 15  9  1  1  0  0  0
 15 12  1  0  0  0  0
 18 13  1  0  0  0  0
 18 11  1  1  0  0  0
 20 22  1  0  0  0  0
 21 24  1  0  0  0  0
 21 25  1  0  0  0  0
 22 19  1  1  0  0  0
 23 20  1  0  0  0  0
 24 23  1  0  0  0  0
 25 22  1  0  0  0  0
M  END
>  <MODEL>
1

>  <REMARK>
 VINA RESULT:      -8.2      0.000      0.000
  Name = 
  5 active torsions:
  status: ('A' for Active; 'I' for Inactive)
    1  A    between atoms: C_3  and  C_6
    2  A    between atoms: C_6  and  C_14
    3  A    between atoms: C_7  and  N_21
    4  A    between atoms: C_14  and  C_19
    5  A    between atoms: C_15  and  N_21
                            x       y       z     vdW  Elec       q    Type
                         _______ _______ _______ _____ _____    ______ ____

>  <TORSDO>
F 5

$$$$
=
 OpenBabel11062413513D

 25 28  0  0  1  0  0  0  0  0999 V2000
  183.2230  179.0940  145.3930 O   0  0  0  0  0  0  0  0  0  0  0  0
  186.5050  177.5520  144.8230 C   0  0  0  0  0  0  0  0  0  0  0  0
  185.1650  178.1100  144.3990 C   0  0  1  0  0  3  0  0  0  0  0  0
  186.2950  178.6140  147.0160 C   0  0  0  0  0  3  0  0  0  0  0  0
  187.0270  177.8100  146.0270 C   0  0  0  0  0  3  0  0  0  0  0  0
  185.0920  179.0380  146.7760 N   0  0  0  0  0  0  0  0  0  0  0  0
  184.4280  178.7630  145.5380 C   0  0  0  0  0  0  0  0  0  0  0  0
  187.2780  176.6990  143.8680 C   0  0  0  0  0  2  0  0  0  0  0  0
  188.7010  177.2100  143.6910 C   0  0  0  0  0  2  0  0  0  0  0  0
  190.6840  176.9510  145.2840 C   0  0  1  0  0  0  0  0  0  0  0  0
  191.1160  180.1080  143.6780 O   0  0  0  0  0  1  0  0  0  0  0  0
  191.1450  176.5520  143.8930 C   0  0  2  0  0  0  0  0  0  0  0  0
  191.5490  177.8200  143.1560 C   0  0  0  0  0  2  0  0  0  0  0  0
  190.7670  178.4660  145.3740 C   0  0  0  0  0  2  0  0  0  0  0  0
  189.7100  176.2560  144.3280 C   0  0  2  0  0  3  0  0  0  0  0  0
  192.0300  175.4720  143.8740 O   0  0  0  0  0  1  0  0  0  0  0  0
  191.2360  176.1170  146.4280 C   0  0  0  0  0  1  0  0  0  0  0  0
  191.6190  178.9170  144.2020 C   0  0  2  0  0  3  0  0  0  0  0  0
  185.3520  179.0770  143.3270 N   0  0  0  0  0  2  0  0  0  0  0  0
  183.3500  178.6600  142.0050 C   0  0  0  0  0  2  0  0  0  0  0  0
  184.9350  178.5820  139.6050 C   0  0  0  0  0  2  0  0  0  0  0  0
  184.8620  178.4640  142.1040 C   0  0  1  0  0  3  0  0  0  0  0  0
  182.8460  178.0550  140.7720 N   0  0  0  0  0  2  0  0  0  0  0  0
  183.4200  178.7710  139.6340 C   0  0  0  0  0  2  0  0  0  0  0  0
  185.5390  179.1130  140.9000 C   0  0  0  0  0  2  0  0  0  0  0  0
  1  7  2  0  0  0  0
  2  5  2  0  0  0  0
  3 19  1  6  0  0  0
  3  2  1  0  0  0  0
  3  7  1  0  0  0  0
  5  4  1  0  0  0  0
  6  4  2  0  0  0  0
  7  6  1  0  0  0  0
  8  2  1  0  0  0  0
  9  8  1  0  0  0  0
 10 14  1  0  0  0  0
 10 17  1  1  0  0  0
 12 16  1  6  0  0  0
 12 15  1  0  0  0  0
 12 10  1  0  0  0  0
 13 12  1  0  0  0  0
 13 18  1  0  0  0  0
 15  9  1  6  0  0  0
 15 10  1  0  0  0  0
 18 11  1  6  0  0  0
 18 14  1  0  0  0  0
 20 22  1  0  0  0  0
 21 24  1  0  0  0  0
 21 25  1  0  0  0  0
 22 19  1  1  0  0  0
 23 20  1  0  0  0  0
 24 23  1  0  0  0  0
 25 22  1  0  0  0  0
M  END
>  <MODEL>
2

>  <REMARK>
 VINA RESULT:      -7.7      0.830      1.990
  Name = 
  5 active torsions:
  status: ('A' for Active; 'I' for Inactive)
    1  A    between atoms: C_3  and  C_6
    2  A    between atoms: C_6  and  C_14
    3  A    between atoms: C_7  and  N_21
    4  A    between atoms: C_14  and  C_19
    5  A    between atoms: C_15  and  N_21
                            x       y       z     vdW  Elec       q    Type
                         _______ _______ _______ _____ _____    ______ ____

>  <TORSDO>
F 5

$$$$
=
 OpenBabel11062413513D

 25 28  0  0  1  0  0  0  0  0999 V2000
  188.9910  176.8270  147.2240 O   0  0  0  0  0  0  0  0  0  0  0  0
  189.1750  176.9930  143.5610 C   0  0  0  0  0  0  0  0  0  0  0  0
  188.4820  177.1000  144.9010 C   0  0  1  0  0  3  0  0  0  0  0  0
  191.3650  177.0240  144.6500 C   0  0  0  0  0  3  0  0  0  0  0  0
  190.5080  176.9800  143.4570 C   0  0  0  0  0  3  0  0  0  0  0  0
  190.8540  177.0050  145.8430 N   0  0  0  0  0  0  0  0  0  0  0  0
  189.4390  176.9600  146.0560 C   0  0  0  0  0  0  0  0  0  0  0  0
  188.3510  176.9110  142.3160 C   0  0  0  0  0  2  0  0  0  0  0  0
  189.1970  177.1440  141.0720 C   0  0  0  0  0  2  0  0  0  0  0  0
  188.1430  177.3630  138.7530 C   0  0  1  0  0  0  0  0  0  0  0  0
  190.9570  175.2070  138.3550 O   0  0  0  0  0  1  0  0  0  0  0  0
  189.3110  178.3300  138.8310 C   0  0  2  0  0  0  0  0  0  0  0  0
  190.5760  177.5590  138.4850 C   0  0  0  0  0  2  0  0  0  0  0  0
  188.7060  175.9950  138.4040 C   0  0  0  0  0  2  0  0  0  0  0  0
  188.4750  178.0530  140.0790 C   0  0  2  0  0  3  0  0  0  0  0  0
  189.0870  179.5470  138.1830 O   0  0  0  0  0  1  0  0  0  0  0  0
  186.9170  177.8640  138.0060 C   0  0  0  0  0  1  0  0  0  0  0  0
  190.1210  176.2300  137.9100 C   0  0  2  0  0  3  0  0  0  0  0  0
  187.7940  178.3790  144.9970 N   0  0  0  0  0  2  0  0  0  0  0  0
  185.7450  178.8620  146.2210 C   0  0  0  0  0  2  0  0  0  0  0  0
  184.1960  178.3770  143.8450 C   0  0  0  0  0  2  0  0  0  0  0  0
  186.3700  178.0980  145.0550 C   0  0  1  0  0  3  0  0  0  0  0  0
  184.3080  178.5950  146.2820 N   0  0  0  0  0  2  0  0  0  0  0  0
  183.6820  179.1260  145.0720 C   0  0  0  0  0  2  0  0  0  0  0  0
  185.7090  178.5340  143.7490 C   0  0  0  0  0  2  0  0  0  0  0  0
  2  3  1  0  0  0  0
  3 19  1  6  0  0  0
  3  7  1  0  0  0  0
  4  6  2  0  0  0  0
  5  2  2  0  0  0  0
  5  4  1  0  0  0  0
  6  7  1  0  0  0  0
  7  1  2  0  0  0  0
  8  2  1  0  0  0  0
  9  8  1  0  0  0  0
 10 17  1  6  0  0  0
 10 12  1  0  0  0  0
 10 15  1  0  0  0  0
 12 16  1  6  0  0  0
 12 15  1  0  0  0  0
 13 12  1  0  0  0  0
 14 10  1  0  0  0  0
 15  9  1  1  0  0  0
 18 11  1  1  0  0  0
 18 14  1  0  0  0  0
 18 13  1  0  0  0  0
 20 23  1  0  0  0  0
 21 24  1  0  0  0  0
 22 19  1  6  0  0  0
 22 20  1  0  0  0  0
 24 23  1  0  0  0  0
 25 21  1  0  0  0  0
 25 22  1  0  0  0  0
M  END
>  <MODEL>
3

>  <REMARK>
 VINA RESULT:      -7.6      3.292      5.223
  Name = 
  5 active torsions:
  status: ('A' for Active; 'I' for Inactive)
    1  A    between atoms: C_3  and  C_6
    2  A    between atoms: C_6  and  C_14
    3  A    between atoms: C_7  and  N_21
    4  A    between atoms: C_14  and  C_19
    5  A    between atoms: C_15  and  N_21
                            x       y       z     vdW  Elec       q    Type
                         _______ _______ _______ _____ _____    ______ ____

>  <TORSDO>
F 5

$$$$
=
 OpenBabel11062413513D

 25 28  0  0  1  0  0  0  0  0999 V2000
  185.0910  178.6470  147.3420 O   0  0  0  0  0  0  0  0  0  0  0  0
  187.4270  177.0150  145.0280 C   0  0  0  0  0  0  0  0  0  0  0  0
  186.1200  177.6690  145.4150 C   0  0  1  0  0  3  0  0  0  0  0  0
  188.5010  177.8830  147.0480 C   0  0  0  0  0  3  0  0  0  0  0  0
  188.5270  177.1390  145.7800 C   0  0  0  0  0  3  0  0  0  0  0  0
  187.3960  178.3810  147.5090 N   0  0  0  0  0  0  0  0  0  0  0  0
  186.1560  178.2500  146.8040 C   0  0  0  0  0  0  0  0  0  0  0  0
  187.5010  176.2180  143.7650 C   0  0  0  0  0  2  0  0  0  0  0  0
  188.9310  176.1100  143.2560 C   0  0  0  0  0  2  0  0  0  0  0  0
  190.4980  177.1350  141.5140 C   0  0  1  0  0  0  0  0  0  0  0  0
  191.6980  178.2370  144.6880 O   0  0  0  0  0  1  0  0  0  0  0  0
  189.4760  178.1880  141.9040 C   0  0  2  0  0  0  0  0  0  0  0  0
  189.9780  178.8780  143.1640 C   0  0  0  0  0  2  0  0  0  0  0  0
  191.5970  177.1560  142.5640 C   0  0  0  0  0  2  0  0  0  0  0  0
  189.0650  176.7180  141.8610 C   0  0  2  0  0  3  0  0  0  0  0  0
  189.0510  178.9900  140.8420 O   0  0  0  0  0  1  0  0  0  0  0  0
  190.8860  177.1010  140.0450 C   0  0  0  0  0  1  0  0  0  0  0  0
  191.4240  178.4490  143.3370 C   0  0  2  0  0  3  0  0  0  0  0  0
  185.7950  178.7200  144.4610 N   0  0  0  0  0  2  0  0  0  0  0  0
  183.4370  179.2280  144.1290 C   0  0  0  0  0  2  0  0  0  0  0  0
  183.5470  178.0780  141.4930 C   0  0  0  0  0  2  0  0  0  0  0  0
  184.5950  178.3040  143.7550 C   0  0  1  0  0  3  0  0  0  0  0  0
  182.2250  178.8250  143.4160 N   0  0  0  0  0  2  0  0  0  0  0  0
  182.4430  179.0120  141.9820 C   0  0  0  0  0  2  0  0  0  0  0  0
  184.8370  178.3750  142.2500 C   0  0  0  0  0  2  0  0  0  0  0  0
  2  3  1  0  0  0  0
  2  5  2  0  0  0  0
  3 19  1  6  0  0  0
  3  7  1  0  0  0  0
  4  6  2  0  0  0  0
  5  4  1  0  0  0  0
  7  1  2  0  0  0  0
  7  6  1  0  0  0  0
  8  2  1  0  0  0  0
  9  8  1  0  0  0  0
 10 17  1  6  0  0  0
 10 15  1  0  0  0  0
 10 12  1  0  0  0  0
 10 14  1  0  0  0  0
 12 16  1  6  0  0  0
 12 13  1  0  0  0  0
 13 18  1  0  0  0  0
 14 18  1  0  0  0  0
 15 12  1  0  0  0  0
 15  9  1  1  0  0  0
 18 11  1  1  0  0  0
 21 24  1  0  0  0  0
 21 25  1  0  0  0  0
 22 20  1  0  0  0  0
 22 19  1  1  0  0  0
 23 20  1  0  0  0  0
 24 23  1  0  0  0  0
 25 22  1  0  0  0  0
M  END
>  <MODEL>
4

>  <REMARK>
 VINA RESULT:      -7.5      1.717      2.109
  Name = 
  5 active torsions:
  status: ('A' for Active; 'I' for Inactive)
    1  A    between atoms: C_3  and  C_6
    2  A    between atoms: C_6  and  C_14
    3  A    between atoms: C_7  and  N_21
    4  A    between atoms: C_14  and  C_19
    5  A    between atoms: C_15  and  N_21
                            x       y       z     vdW  Elec       q    Type
                         _______ _______ _______ _____ _____    ______ ____

>  <TORSDO>
F 5

$$$$
=
 OpenBabel11062413513D

 25 28  0  0  1  0  0  0  0  0999 V2000
  185.9400  179.1080  146.7140 O   0  0  0  0  0  0  0  0  0  0  0  0
  184.9340  178.6980  143.2070 C   0  0  0  0  0  0  0  0  0  0  0  0
  185.9010  178.6340  144.3680 C   0  0  1  0  0  3  0  0  0  0  0  0
  183.0430  178.9080  144.7460 C   0  0  0  0  0  3  0  0  0  0  0  0
  183.6140  178.8030  143.3950 C   0  0  0  0  0  3  0  0  0  0  0  0
  183.8080  178.9730  145.7920 N   0  0  0  0  0  0  0  0  0  0  0  0
  185.2350  178.9270  145.6870 C   0  0  0  0  0  0  0  0  0  0  0  0
  185.4620  178.6290  141.8100 C   0  0  0  0  0  2  0  0  0  0  0  0
  184.3890  178.9830  140.7900 C   0  0  0  0  0  2  0  0  0  0  0  0
  183.2380  178.2250  138.6360 C   0  0  1  0  0  0  0  0  0  0  0  0
  180.7610  179.9760  140.5140 O   0  0  0  0  0  1  0  0  0  0  0  0
  182.8900  177.2300  139.7290 C   0  0  2  0  0  0  0  0  0  0  0  0
  181.6990  177.7820  140.4980 C   0  0  0  0  0  2  0  0  0  0  0  0
  182.2850  179.4020  138.7710 C   0  0  0  0  0  2  0  0  0  0  0  0
  184.2650  177.8960  139.7230 C   0  0  2  0  0  3  0  0  0  0  0  0
  182.8330  175.9040  139.2950 O   0  0  0  0  0  1  0  0  0  0  0  0
  183.4840  177.6350  137.2570 C   0  0  0  0  0  1  0  0  0  0  0  0
  181.1580  178.9360  139.6740 C   0  0  2  0  0  3  0  0  0  0  0  0
  186.5190  177.3170  144.4210 N   0  0  0  0  0  2  0  0  0  0  0  0
  188.7770  177.5650  145.2970 C   0  0  0  0  0  2  0  0  0  0  0  0
  189.8490  176.3690  142.9090 C   0  0  0  0  0  2  0  0  0  0  0  0
  187.9110  177.4790  144.0410 C   0  0  1  0  0  3  0  0  0  0  0  0
  190.1830  177.7180  144.9270 N   0  0  0  0  0  2  0  0  0  0  0  0
  190.6150  176.5120  144.2230 C   0  0  0  0  0  2  0  0  0  0  0  0
  188.3540  176.2860  143.1990 C   0  0  0  0  0  2  0  0  0  0  0  0
  2  5  2  0  0  0  0
  2  3  1  0  0  0  0
  3 19  1  1  0  0  0
  3  7  1  0  0  0  0
  4  6  2  0  0  0  0
  5  4  1  0  0  0  0
  7  6  1  0  0  0  0
  7  1  2  0  0  0  0
  8  2  1  0  0  0  0
  9  8  1  0  0  0  0
 10 17  1  6  0  0  0
 10 14  1  0  0  0  0
 10 15  1  0  0  0  0
 10 12  1  0  0  0  0
 12 16  1  6  0  0  0
 12 13  1  0  0  0  0
 14 18  1  0  0  0  0
 15 12  1  0  0  0  0
 15  9  1  1  0  0  0
 18 13  1  0  0  0  0
 18 11  1  1  0  0  0
 21 25  1  0  0  0  0
 21 24  1  0  0  0  0
 22 19  1  1  0  0  0
 22 20  1  0  0  0  0
 23 20  1  0  0  0  0
 24 23  1  0  0  0  0
 25 22  1  0  0  0  0
M  END
>  <MODEL>
5

>  <REMARK>
 VINA RESULT:      -7.2      2.647      7.320
  Name = 
  5 active torsions:
  status: ('A' for Active; 'I' for Inactive)
    1  A    between atoms: C_3  and  C_6
    2  A    between atoms: C_6  and  C_14
    3  A    between atoms: C_7  and  N_21
    4  A    between atoms: C_14  and  C_19
    5  A    between atoms: C_15  and  N_21
                            x       y       z     vdW  Elec       q    Type
                         _______ _______ _______ _____ _____    ______ ____

>  <TORSDO>
F 5

$$$$
=
 OpenBabel11062413513D

 25 28  0  0  1  0  0  0  0  0999 V2000
  183.2710  179.2300  145.4830 O   0  0  0  0  0  0  0  0  0  0  0  0
  186.4720  177.5180  144.9320 C   0  0  0  0  0  0  0  0  0  0  0  0
  185.2170  178.2420  144.4990 C   0  0  1  0  0  3  0  0  0  0  0  0
  186.1490  178.2630  147.2400 C   0  0  0  0  0  3  0  0  0  0  0  0
  186.9040  177.5530  146.1970 C   0  0  0  0  0  3  0  0  0  0  0  0
  185.0050  178.8170  146.9780 N   0  0  0  0  0  0  0  0  0  0  0  0
  184.4320  178.7820  145.6660 C   0  0  0  0  0  0  0  0  0  0  0  0
  187.2610  176.7520  143.9190 C   0  0  0  0  0  2  0  0  0  0  0  0
  188.2920  177.6360  143.2310 C   0  0  0  0  0  2  0  0  0  0  0  0
  190.7180  178.4070  143.4780 C   0  0  1  0  0  0  0  0  0  0  0  0
  190.6590  176.2300  140.6520 O   0  0  0  0  0  1  0  0  0  0  0  0
  190.5930  177.0370  144.1210 C   0  0  2  0  0  0  0  0  0  0  0  0
  190.7470  175.9930  143.0240 C   0  0  0  0  0  2  0  0  0  0  0  0
  190.9020  178.1940  141.9840 C   0  0  0  0  0  2  0  0  0  0  0  0
  189.4200  178.0130  144.1900 C   0  0  2  0  0  3  0  0  0  0  0  0
  191.3500  176.8830  145.2840 O   0  0  0  0  0  1  0  0  0  0  0  0
  191.6220  179.3950  144.1960 C   0  0  0  0  0  1  0  0  0  0  0  0
  191.2640  176.7320  141.8040 C   0  0  2  0  0  3  0  0  0  0  0  0
  185.5640  179.3360  143.6040 N   0  0  0  0  0  2  0  0  0  0  0  0
  185.4910  179.4270  141.1720 C   0  0  0  0  0  2  0  0  0  0  0  0
  183.1740  177.7210  141.1640 C   0  0  0  0  0  2  0  0  0  0  0  0
  184.6800  179.2480  142.4540 C   0  0  1  0  0  3  0  0  0  0  0  0
  184.6130  179.3310  140.0060 N   0  0  0  0  0  2  0  0  0  0  0  0
  184.0610  177.9780  139.9480 C   0  0  0  0  0  2  0  0  0  0  0  0
  183.9960  177.8840  142.4370 C   0  0  0  0  0  2  0  0  0  0  0  0
  1  7  2  0  0  0  0
  2  5  2  0  0  0  0
  3 19  1  6  0  0  0
  3  2  1  0  0  0  0
  3  7  1  0  0  0  0
  5  4  1  0  0  0  0
  6  4  2  0  0  0  0
  7  6  1  0  0  0  0
  8  2  1  0  0  0  0
  9  8  1  0  0  0  0
 10 12  1  0  0  0  0
 10 15  1  0  0  0  0
 10 17  1  1  0  0  0
 12 15  1  0  0  0  0
 12 16  1  1  0  0  0
 13 12  1  0  0  0  0
 14 10  1  0  0  0  0
 15  9  1  6  0  0  0
 18 11  1  6  0  0  0
 18 14  1  0  0  0  0
 18 13  1  0  0  0  0
 20 22  1  0  0  0  0
 21 25  1  0  0  0  0
 22 19  1  1  0  0  0
 23 20  1  0  0  0  0
 24 23  1  0  0  0  0
 24 21  1  0  0  0  0
 25 22  1  0  0  0  0
M  END
>  <MODEL>
6

>  <REMARK>
 VINA RESULT:      -7.2      1.359      2.218
  Name = 
  5 active torsions:
  status: ('A' for Active; 'I' for Inactive)
    1  A    between atoms: C_3  and  C_6
    2  A    between atoms: C_6  and  C_14
    3  A    between atoms: C_7  and  N_21
    4  A    between atoms: C_14  and  C_19
    5  A    between atoms: C_15  and  N_21
                            x       y       z     vdW  Elec       q    Type
                         _______ _______ _______ _____ _____    ______ ____

>  <TORSDO>
F 5

$$$$
=
 OpenBabel11062413513D

 25 28  0  0  1  0  0  0  0  0999 V2000
  185.9650  177.8060  145.5660 O   0  0  0  0  0  0  0  0  0  0  0  0
  187.0280  178.3700  142.0980 C   0  0  0  0  0  0  0  0  0  0  0  0
  187.1980  177.8740  143.5160 C   0  0  1  0  0  3  0  0  0  0  0  0
  184.6130  178.5880  142.4250 C   0  0  0  0  0  3  0  0  0  0  0  0
  185.8250  178.6760  141.5980 C   0  0  0  0  0  3  0  0  0  0  0  0
  184.6830  178.2780  143.6830 N   0  0  0  0  0  0  0  0  0  0  0  0
  185.9310  177.9900  144.3220 C   0  0  0  0  0  0  0  0  0  0  0  0
  188.2320  178.5110  141.2220 C   0  0  0  0  0  2  0  0  0  0  0  0
  188.1890  177.5370  140.0540 C   0  0  0  0  0  2  0  0  0  0  0  0
  187.8640  177.3370  137.5250 C   0  0  1  0  0  0  0  0  0  0  0  0
  190.5550  175.1440  138.3480 O   0  0  0  0  0  1  0  0  0  0  0  0
  189.0090  178.3020  137.7770 C   0  0  2  0  0  0  0  0  0  0  0  0
  190.2780  177.4810  137.9550 C   0  0  0  0  0  2  0  0  0  0  0  0
  188.4310  175.9290  137.5970 C   0  0  0  0  0  2  0  0  0  0  0  0
  187.8350  178.2540  138.7520 C   0  0  2  0  0  3  0  0  0  0  0  0
  189.0460  179.3840  136.8930 O   0  0  0  0  0  1  0  0  0  0  0  0
  186.9350  177.6960  136.3770 C   0  0  0  0  0  1  0  0  0  0  0  0
  189.9390  176.0710  137.5080 C   0  0  2  0  0  3  0  0  0  0  0  0
  187.6360  176.4850  143.5010 N   0  0  0  0  0  2  0  0  0  0  0  0
  189.9780  176.0340  143.0110 C   0  0  0  0  0  2  0  0  0  0  0  0
  190.7770  177.8440  145.1010 C   0  0  0  0  0  2  0  0  0  0  0  0
  188.9670  176.4470  144.0800 C   0  0  1  0  0  3  0  0  0  0  0  0
  191.3240  176.0020  143.5810 N   0  0  0  0  0  2  0  0  0  0  0  0
  191.6940  177.3590  143.9810 C   0  0  0  0  0  2  0  0  0  0  0  0
  189.3310  177.8290  144.6170 C   0  0  0  0  0  2  0  0  0  0  0  0
  2  3  1  0  0  0  0
  3 19  1  6  0  0  0
  3  7  1  0  0  0  0
  4  6  2  0  0  0  0
  5  2  2  0  0  0  0
  5  4  1  0  0  0  0
  6  7  1  0  0  0  0
  7  1  2  0  0  0  0
  8  2  1  0  0  0  0
  9  8  1  0  0  0  0
 10 17  1  6  0  0  0
 10 14  1  0  0  0  0
 10 12  1  0  0  0  0
 10 15  1  0  0  0  0
 12 16  1  6  0  0  0
 12 13  1  0  0  0  0
 12 15  1  0  0  0  0
 15  9  1  1  0  0  0
 18 14  1  0  0  0  0
 18 13  1  0  0  0  0
 18 11  1  1  0  0  0
 20 23  1  0  0  0  0
 20 22  1  0  0  0  0
 22 19  1  6  0  0  0
 22 25  1  0  0  0  0
 23 24  1  0  0  0  0
 24 21  1  0  0  0  0
 25 21  1  0  0  0  0
M  END
>  <MODEL>
7

>  <REMARK>
 VINA RESULT:      -7.0      3.682      6.174
  Name = 
  5 active torsions:
  status: ('A' for Active; 'I' for Inactive)
    1  A    between atoms: C_3  and  C_6
    2  A    between atoms: C_6  and  C_14
    3  A    between atoms: C_7  and  N_21
    4  A    between atoms: C_14  and  C_19
    5  A    between atoms: C_15  and  N_21
                            x       y       z     vdW  Elec       q    Type
                         _______ _______ _______ _____ _____    ______ ____

>  <TORSDO>
F 5

$$$$
=
 OpenBabel11062413513D

 25 28  0  0  1  0  0  0  0  0999 V2000
  185.5640  178.6820  145.7750 O   0  0  0  0  0  0  0  0  0  0  0  0
  186.9770  178.3180  142.4070 C   0  0  0  0  0  0  0  0  0  0  0  0
  187.0310  178.3260  143.9180 C   0  0  1  0  0  3  0  0  0  0  0  0
  184.5340  178.1960  142.4580 C   0  0  0  0  0  3  0  0  0  0  0  0
  185.8180  178.2360  141.7440 C   0  0  0  0  0  3  0  0  0  0  0  0
  184.4830  178.3100  143.7500 N   0  0  0  0  0  0  0  0  0  0  0  0
  185.6660  178.4600  144.5410 C   0  0  0  0  0  0  0  0  0  0  0  0
  188.2520  178.3910  141.6290 C   0  0  0  0  0  2  0  0  0  0  0  0
  188.0010  178.2530  140.1340 C   0  0  0  0  0  2  0  0  0  0  0  0
  189.5850  177.6010  138.2350 C   0  0  1  0  0  0  0  0  0  0  0  0
  187.1100  179.7140  136.7720 O   0  0  0  0  0  1  0  0  0  0  0  0
  188.3720  176.6900  138.1680 C   0  0  2  0  0  0  0  0  0  0  0  0
  187.2880  177.4150  137.3850 C   0  0  0  0  0  2  0  0  0  0  0  0
  189.2200  178.8980  137.5300 C   0  0  0  0  0  2  0  0  0  0  0  0
  188.8860  177.1650  139.5260 C   0  0  2  0  0  3  0  0  0  0  0  0
  188.6700  175.3720  137.8120 O   0  0  0  0  0  1  0  0  0  0  0  0
  190.9220  176.9490  137.9240 C   0  0  0  0  0  1  0  0  0  0  0  0
  187.9610  178.6100  136.7340 C   0  0  2  0  0  3  0  0  0  0  0  0
  187.6600  177.1020  144.3940 N   0  0  0  0  0  2  0  0  0  0  0  0
  188.6300  177.1180  146.6270 C   0  0  0  0  0  2  0  0  0  0  0  0
  191.2740  177.0510  145.4920 C   0  0  0  0  0  2  0  0  0  0  0  0
  188.8320  177.4900  145.1580 C   0  0  1  0  0  3  0  0  0  0  0  0
  189.8090  177.4950  147.4050 N   0  0  0  0  0  2  0  0  0  0  0  0
  190.9470  176.7020  146.9430 C   0  0  0  0  0  2  0  0  0  0  0  0
  190.0600  176.7650  144.6150 C   0  0  0  0  0  2  0  0  0  0  0  0
  2  3  1  0  0  0  0
  3 19  1  1  0  0  0
  3  7  1  0  0  0  0
  4  6  2  0  0  0  0
  5  2  2  0  0  0  0
  5  4  1  0  0  0  0
  6  7  1  0  0  0  0
  7  1  2  0  0  0  0
  8  2  1  0  0  0  0
  9  8  1  0  0  0  0
 10 17  1  6  0  0  0
 10 15  1  0  0  0  0
 12 16  1  6  0  0  0
 12 10  1  0  0  0  0
 12 15  1  0  0  0  0
 13 12  1  0  0  0  0
 14 10  1  0  0  0  0
 15  9  1  6  0  0  0
 18 11  1  1  0  0  0
 18 13  1  0  0  0  0
 18 14  1  0  0  0  0
 20 23  1  0  0  0  0
 21 24  1  0  0  0  0
 22 19  1  6  0  0  0
 22 20  1  0  0  0  0
 24 23  1  0  0  0  0
 25 22  1  0  0  0  0
 25 21  1  0  0  0  0
M  END
>  <MODEL>
8

>  <REMARK>
 VINA RESULT:      -6.9      3.605      6.472
  Name = 
  5 active torsions:
  status: ('A' for Active; 'I' for Inactive)
    1  A    between atoms: C_3  and  C_6
    2  A    between atoms: C_6  and  C_14
    3  A    between atoms: C_7  and  N_21
    4  A    between atoms: C_14  and  C_19
    5  A    between atoms: C_15  and  N_21
                            x       y       z     vdW  Elec       q    Type
                         _______ _______ _______ _____ _____    ______ ____

>  <TORSDO>
F 5

$$$$
=
 OpenBabel11062413513D

 25 28  0  0  1  0  0  0  0  0999 V2000
  186.4940  178.7460  147.0960 O   0  0  0  0  0  0  0  0  0  0  0  0
  185.2110  178.5520  143.6620 C   0  0  0  0  0  0  0  0  0  0  0  0
  186.2690  178.4240  144.7350 C   0  0  1  0  0  3  0  0  0  0  0  0
  183.4500  178.6400  145.3580 C   0  0  0  0  0  3  0  0  0  0  0  0
  183.9100  178.6290  143.9620 C   0  0  0  0  0  3  0  0  0  0  0  0
  184.2960  178.6460  146.3410 N   0  0  0  0  0  0  0  0  0  0  0  0
  185.7110  178.6240  146.1200 C   0  0  0  0  0  0  0  0  0  0  0  0
  185.6260  178.5800  142.2250 C   0  0  0  0  0  2  0  0  0  0  0  0
  184.5120  178.0830  141.3140 C   0  0  0  0  0  2  0  0  0  0  0  0
  182.4760  178.7990  139.9430 C   0  0  1  0  0  0  0  0  0  0  0  0
  183.8040  175.9220  138.3050 O   0  0  0  0  0  1  0  0  0  0  0  0
  183.7160  179.3520  139.2640 C   0  0  2  0  0  0  0  0  0  0  0  0
  184.2800  178.2590  138.3680 C   0  0  0  0  0  2  0  0  0  0  0  0
  182.3130  177.3570  139.4930 C   0  0  0  0  0  2  0  0  0  0  0  0
  183.6730  179.2460  140.7870 C   0  0  2  0  0  3  0  0  0  0  0  0
  183.5470  180.6260  138.7180 O   0  0  0  0  0  1  0  0  0  0  0  0
  181.2590  179.7100  139.9410 C   0  0  0  0  0  1  0  0  0  0  0  0
  183.2120  177.1840  138.2830 C   0  0  2  0  0  3  0  0  0  0  0  0
  186.8980  177.1140  144.6520 N   0  0  0  0  0  2  0  0  0  0  0  0
  189.2220  177.3430  145.3420 C   0  0  0  0  0  2  0  0  0  0  0  0
  190.0900  176.2960  142.8060 C   0  0  0  0  0  2  0  0  0  0  0  0
  188.2500  177.3160  144.1620 C   0  0  1  0  0  3  0  0  0  0  0  0
  190.5890  177.5360  144.8600 N   0  0  0  0  0  2  0  0  0  0  0  0
  190.9670  176.3760  144.0540 C   0  0  0  0  0  2  0  0  0  0  0  0
  188.6280  176.1770  143.2190 C   0  0  0  0  0  2  0  0  0  0  0  0
  2  5  2  0  0  0  0
  2  3  1  0  0  0  0
  3 19  1  1  0  0  0
  3  7  1  0  0  0  0
  4  6  2  0  0  0  0
  5  4  1  0  0  0  0
  7  6  1  0  0  0  0
  7  1  2  0  0  0  0
  8  2  1  0  0  0  0
  9  8  1  0  0  0  0
 10 17  1  1  0  0  0
 10 15  1  0  0  0  0
 12 16  1  6  0  0  0
 12 10  1  0  0  0  0
 12 15  1  0  0  0  0
 13 12  1  0  0  0  0
 14 10  1  0  0  0  0
 15  9  1  6  0  0  0
 18 11  1  1  0  0  0
 18 13  1  0  0  0  0
 18 14  1  0  0  0  0
 21 25  1  0  0  0  0
 21 24  1  0  0  0  0
 22 19  1  1  0  0  0
 22 20  1  0  0  0  0
 23 20  1  0  0  0  0
 24 23  1  0  0  0  0
 25 22  1  0  0  0  0
M  END
>  <MODEL>
9

>  <REMARK>
 VINA RESULT:      -6.8      2.879      7.097
  Name = 
  5 active torsions:
  status: ('A' for Active; 'I' for Inactive)
    1  A    between atoms: C_3  and  C_6
    2  A    between atoms: C_6  and  C_14
    3  A    between atoms: C_7  and  N_21
    4  A    between atoms: C_14  and  C_19
    5  A    between atoms: C_15  and  N_21
                            x       y       z     vdW  Elec       q    Type
                         _______ _______ _______ _____ _____    ______ ____

>  <TORSDO>
F 5

$$$$
