=
 OpenBabel11062414043D

 53 59  0  0  1  0  0  0  0  0999 V2000
  182.2140  178.1800  143.7340 C   0  0  0  0  0  2  0  0  0  0  0  0
  181.5700  179.1150  139.0340 C   0  0  2  0  0  3  0  0  0  0  0  0
  184.4450  179.5600  143.0880 C   0  0  1  0  0  0  0  0  0  0  0  0
  181.2830  179.0160  142.8740 C   0  0  2  0  0  3  0  0  0  0  0  0
  183.0710  179.4560  138.9940 C   0  0  0  0  0  2  0  0  0  0  0  0
  185.1970  180.6120  143.5890 F   0  0  0  0  0  0  0  0  0  0  0  0
  184.7360  179.2450  140.8660 C   0  0  0  0  0  2  0  0  0  0  0  0
  183.5020  178.9160  144.1020 C   0  0  1  0  0  0  0  0  0  0  0  0
  180.9020  179.4250  140.3860 C   0  0  1  0  0  3  0  0  0  0  0  0
  180.1250  178.1680  142.3970 C   0  0  0  0  0  2  0  0  0  0  0  0
  181.3000  178.4190  141.4730 C   0  0  2  0  0  3  0  0  0  0  0  0
  181.1680  180.7480  140.7600 O   0  0  0  0  0  1  0  0  0  0  0  0
  183.8530  179.7420  141.8310 O   0  0  0  0  0  0  0  0  0  0  0  0
  183.9380  178.4940  139.8060 C   0  0  2  0  0  3  0  0  0  0  0  0
  183.6190  179.3600  145.4220 O   0  0  0  0  0  1  0  0  0  0  0  0
  184.7160  178.1370  143.5830 C   0  0  2  0  0  3  0  0  0  0  0  0
  179.4290  176.1530  137.7080 C   0  0  0  0  0  2  0  0  0  0  0  0
  181.0740  174.5550  138.6440 C   0  0  0  0  0  2  0  0  0  0  0  0
  179.7510  177.5130  138.3450 C   0  0  0  0  0  2  0  0  0  0  0  0
  182.1190  175.6730  138.5680 C   0  0  0  0  0  2  0  0  0  0  0  0
  179.6690  175.0000  138.5970 N   0  0  0  0  0  0  0  0  0  0  0  0
  181.7590  176.7400  139.3930 O   0  0  0  0  0  0  0  0  0  0  0  0
  181.2570  177.7060  138.5130 C   0  0  2  0  0  3  0  0  0  0  0  0
  179.1570  175.2310  139.9470 C   0  0  0  0  0  2  0  0  0  0  0  0
  179.6450  174.1510  140.8990 C   0  0  0  0  0  2  0  0  0  0  0  0
  178.9310  174.2160  142.0960 O   0  0  0  0  0  1  0  0  0  0  0  0
  185.7120  178.2670  138.0840 C   0  0  0  0  0  2  0  0  0  0  0  0
  184.8410  177.6930  138.9160 C   0  0  0  0  0  3  0  0  0  0  0  0
  185.8760  178.0970  144.5710 C   0  0  0  0  0  2  0  0  0  0  0  0
  190.2030  177.7010  143.6060 N   0  0  0  0  0  0  0  0  0  0  0  0
  186.7650  176.9410  144.2700 C   0  0  0  0  0  3  0  0  0  0  0  0
  189.1140  177.0310  141.2280 S   0  0  0  0  0  0  0  0  0  0  0  0
  191.3380  177.6880  142.6980 C   0  0  0  0  0  2  0  0  0  0  0  0
  190.9280  176.9180  141.4430 C   0  0  2  0  0  3  0  0  0  0  0  0
  187.8760  177.1440  143.6210 C   0  0  0  0  0  0  0  0  0  0  0  0
  188.9800  177.3740  142.9640 C   0  0  0  0  0  0  0  0  0  0  0  0
  191.6390  177.5100  140.2350 C   0  0  0  0  0  2  0  0  0  0  0  0
  191.7200  176.5380  139.0620 C   0  0  1  0  0  3  0  0  0  0  0  0
  192.8130  176.5470  136.8680 O   0  0  0  0  0  0  0  0  0  0  0  0
  194.0160  175.8300  138.7390 O   0  0  0  0  0  1  0  0  0  0  0  0
  190.2490  175.4200  137.6850 C   0  0  2  0  0  3  0  0  0  0  0  0
  190.6120  176.6870  138.2070 O   0  0  0  0  0  0  0  0  0  0  0  0
  190.9970  173.3730  136.6060 O   0  0  0  0  0  1  0  0  0  0  0  0
  193.0220  176.6910  138.2640 C   0  0  2  0  0  3  0  0  0  0  0  0
  192.5680  175.1980  136.5050 C   0  0  0  0  0  2  0  0  0  0  0  0
  191.4370  174.5080  137.2880 C   0  0  1  0  0  3  0  0  0  0  0  0
  189.3670  176.9830  136.3880 C   0  0  0  0  0  1  0  0  0  0  0  0
  189.3930  175.6020  136.5940 O   0  0  0  0  0  0  0  0  0  0  0  0
  190.2710  178.1160  145.0110 C   0  0  0  0  0  2  0  0  0  0  0  0
  190.3900  176.9360  145.9620 C   0  0  0  0  0  2  0  0  0  0  0  0
  188.6150  178.0870  147.2290 C   0  0  0  0  0  2  0  0  0  0  0  0
  188.6410  176.6420  147.6780 C   0  0  0  0  0  2  0  0  0  0  0  0
  189.9350  177.3540  147.3440 C   0  0  0  0  0  3  0  0  0  0  0  0
  1  8  1  0  0  0  0
  2  5  1  1  0  0  0
  2  9  1  0  0  0  0
  3 16  1  0  0  0  0
  3  6  1  1  0  0  0
  3  8  1  0  0  0  0
  4 10  1  1  0  0  0
  4  1  1  0  0  0  0
  5 14  1  0  0  0  0
  7 13  1  0  0  0  0
  8 15  1  1  0  0  0
  9 12  1  1  0  0  0
  9 11  1  0  0  0  0
 11 10  1  1  0  0  0
 11  4  1  0  0  0  0
 13  3  1  0  0  0  0
 14 28  1  6  0  0  0
 14  7  1  0  0  0  0
 16  8  1  0  0  0  0
 16 29  1  1  0  0  0
 17 19  1  0  0  0  0
 17 21  1  0  0  0  0
 20 18  1  0  0  0  0
 20 22  1  0  0  0  0
 21 18  1  0  0  0  0
 21 24  1  0  0  0  0
 23 19  1  1  0  0  0
 23  2  1  0  0  0  0
 23 22  1  0  0  0  0
 24 25  1  0  0  0  0
 25 26  1  0  0  0  0
 27 28  2  0  0  0  0
 30 49  1  0  0  0  0
 31 29  1  0  0  0  0
 32 34  1  0  0  0  0
 32 36  1  0  0  0  0
 33 30  1  0  0  0  0
 34 37  1  6  0  0  0
 34 33  1  0  0  0  0
 35 31  2  0  0  0  0
 36 30  1  0  0  0  0
 36 35  2  0  0  0  0
 38 37  1  1  0  0  0
 39 44  1  0  0  0  0
 41 48  1  6  0  0  0
 41 42  1  0  0  0  0
 42 38  1  0  0  0  0
 44 40  1  1  0  0  0
 44 38  1  0  0  0  0
 45 39  1  0  0  0  0
 45 46  1  0  0  0  0
 46 43  1  6  0  0  0
 46 41  1  0  0  0  0
 47 48  1  0  0  0  0
 49 50  1  0  0  0  0
 50 53  1  0  0  0  0
 51 53  1  0  0  0  0
 51 52  1  0  0  0  0
 53 52  1  0  0  0  0
M  END
>  <MODEL>
1

>  <REMARK>
 VINA RESULT:      -8.4      0.000      0.000
  Name = 
  12 active torsions:
  status: ('A' for Active; 'I' for Inactive)
    1  A    between atoms: N_1  and  C_29
    2  A    between atoms: C_2  and  C_4
    3  A    between atoms: C_2  and  C_43
    4  A    between atoms: C_3  and  C_25
    5  A    between atoms: O_11  and  C_19
    6  A    between atoms: C_12  and  C_35
    7  A    between atoms: C_13  and  C_50
    8  A    between atoms: C_25  and  C_47
    9  A    between atoms: N_27  and  C_35
   10  A    between atoms: C_29  and  C_52
   11  A    between atoms: C_40  and  C_51
   12  A    between atoms: C_49  and  C_52
                            x       y       z     vdW  Elec       q    Type
                         _______ _______ _______ _____ _____    ______ ____

>  <TORSDO>
F 12

$$$$
=
 OpenBabel11062414043D

 53 59  0  0  1  0  0  0  0  0999 V2000
  184.2340  176.7270  136.8780 C   0  0  0  0  0  2  0  0  0  0  0  0
  188.8970  176.7740  135.6010 C   0  0  2  0  0  3  0  0  0  0  0  0
  185.2010  178.8610  138.2240 C   0  0  1  0  0  0  0  0  0  0  0  0
  185.0500  176.9770  135.6230 C   0  0  2  0  0  3  0  0  0  0  0  0
  189.1140  177.7280  136.7910 C   0  0  0  0  0  2  0  0  0  0  0  0
  184.8550  180.1830  138.4620 F   0  0  0  0  0  0  0  0  0  0  0  0
  187.4130  178.4650  138.4880 C   0  0  0  0  0  2  0  0  0  0  0  0
  184.0530  177.9850  137.7280 C   0  0  1  0  0  0  0  0  0  0  0  0
  187.5080  176.9080  134.9490 C   0  0  1  0  0  3  0  0  0  0  0  0
  185.3450  175.6630  134.9330 C   0  0  0  0  0  2  0  0  0  0  0  0
  186.4000  176.2990  135.8160 C   0  0  2  0  0  3  0  0  0  0  0  0
  187.2580  178.2460  134.6250 O   0  0  0  0  0  1  0  0  0  0  0  0
  186.4000  178.6300  137.5370 O   0  0  0  0  0  0  0  0  0  0  0  0
  188.3300  177.3330  138.0420 C   0  0  2  0  0  3  0  0  0  0  0  0
  182.7860  178.5760  137.7170 O   0  0  0  0  0  1  0  0  0  0  0  0
  184.6380  177.7600  139.1270 C   0  0  2  0  0  3  0  0  0  0  0  0
  191.0920  173.8130  136.8360 C   0  0  0  0  0  2  0  0  0  0  0  0
  189.9340  172.3030  135.2500 C   0  0  0  0  0  2  0  0  0  0  0  0
  190.7280  175.2410  136.4030 C   0  0  0  0  0  2  0  0  0  0  0  0
  188.7510  173.2760  135.2750 C   0  0  0  0  0  2  0  0  0  0  0  0
  191.2180  172.8580  135.7190 N   0  0  0  0  0  0  0  0  0  0  0  0
  189.1280  174.5230  134.7740 O   0  0  0  0  0  0  0  0  0  0  0  0
  189.2830  175.3220  135.9130 C   0  0  2  0  0  3  0  0  0  0  0  0
  191.9750  173.4180  134.6000 C   0  0  0  0  0  2  0  0  0  0  0  0
  193.3990  172.8880  134.5960 C   0  0  0  0  0  2  0  0  0  0  0  0
  194.0770  173.3390  135.7300 O   0  0  0  0  0  1  0  0  0  0  0  0
  190.3670  177.5830  139.4400 C   0  0  0  0  0  2  0  0  0  0  0  0
  189.2500  176.9120  139.1500 C   0  0  0  0  0  3  0  0  0  0  0  0
  183.7730  178.3370  140.2430 C   0  0  0  0  0  2  0  0  0  0  0  0
  184.4930  178.9570  144.5910 N   0  0  0  0  0  0  0  0  0  0  0  0
  183.7950  177.4310  141.4250 C   0  0  0  0  0  3  0  0  0  0  0  0
  186.7100  177.5660  143.9270 S   0  0  0  0  0  0  0  0  0  0  0  0
  185.3410  179.0780  145.7660 C   0  0  0  0  0  2  0  0  0  0  0  0
  186.4180  177.9960  145.6820 C   0  0  2  0  0  3  0  0  0  0  0  0
  184.4360  177.8000  142.4970 C   0  0  0  0  0  0  0  0  0  0  0  0
  185.0910  178.1900  143.5570 C   0  0  0  0  0  0  0  0  0  0  0  0
  187.7010  178.5130  146.3180 C   0  0  0  0  0  2  0  0  0  0  0  0
  188.9400  177.7600  145.8430 C   0  0  1  0  0  3  0  0  0  0  0  0
  191.2030  177.4100  146.7170 O   0  0  0  0  0  0  0  0  0  0  0  0
  189.4800  175.9930  147.4130 O   0  0  0  0  0  1  0  0  0  0  0  0
  190.2780  177.7150  143.9670 C   0  0  2  0  0  3  0  0  0  0  0  0
  189.6990  178.5480  144.9560 O   0  0  0  0  0  0  0  0  0  0  0  0
  191.5460  175.6940  143.4960 O   0  0  0  0  0  1  0  0  0  0  0  0
  189.8200  177.2880  147.0090 C   0  0  2  0  0  3  0  0  0  0  0  0
  191.6380  176.4300  145.7890 C   0  0  0  0  0  2  0  0  0  0  0  0
  190.8230  176.3600  144.4860 C   0  0  1  0  0  3  0  0  0  0  0  0
  191.4530  179.5880  144.0550 C   0  0  0  0  0  1  0  0  0  0  0  0
  191.2870  178.4210  143.3060 O   0  0  0  0  0  0  0  0  0  0  0  0
  183.2060  179.6400  144.4250 C   0  0  0  0  0  2  0  0  0  0  0  0
  182.0360  178.6710  144.3670 C   0  0  0  0  0  2  0  0  0  0  0  0
  180.1210  177.9960  142.9690 C   0  0  0  0  0  2  0  0  0  0  0  0
  179.6450  179.0780  143.9140 C   0  0  0  0  0  2  0  0  0  0  0  0
  181.0410  179.1440  143.3300 C   0  0  0  0  0  3  0  0  0  0  0  0
  1  8  1  0  0  0  0
  2 23  1  0  0  0  0
  2  5  1  1  0  0  0
  3  6  1  1  0  0  0
  3 16  1  0  0  0  0
  4 10  1  6  0  0  0
  4 11  1  0  0  0  0
  4  1  1  0  0  0  0
  5 14  1  0  0  0  0
  8 15  1  6  0  0  0
  8  3  1  0  0  0  0
  8 16  1  0  0  0  0
  9 12  1  1  0  0  0
  9  2  1  0  0  0  0
  9 11  1  0  0  0  0
 11 10  1  6  0  0  0
 13  3  1  0  0  0  0
 13  7  1  0  0  0  0
 14  7  1  0  0  0  0
 14 28  1  1  0  0  0
 16 29  1  1  0  0  0
 18 20  1  0  0  0  0
 18 21  1  0  0  0  0
 19 17  1  0  0  0  0
 21 17  1  0  0  0  0
 22 20  1  0  0  0  0
 22 23  1  0  0  0  0
 23 19  1  6  0  0  0
 24 21  1  0  0  0  0
 25 24  1  0  0  0  0
 25 26  1  0  0  0  0
 28 27  2  0  0  0  0
 29 31  1  0  0  0  0
 30 33  1  0  0  0  0
 31 35  2  0  0  0  0
 32 34  1  0  0  0  0
 34 33  1  0  0  0  0
 34 37  1  6  0  0  0
 35 36  2  0  0  0  0
 36 32  1  0  0  0  0
 36 30  1  0  0  0  0
 38 37  1  1  0  0  0
 38 44  1  0  0  0  0
 39 44  1  0  0  0  0
 41 48  1  1  0  0  0
 41 46  1  0  0  0  0
 41 42  1  0  0  0  0
 42 38  1  0  0  0  0
 44 40  1  6  0  0  0
 45 39  1  0  0  0  0
 46 43  1  6  0  0  0
 46 45  1  0  0  0  0
 48 47  1  0  0  0  0
 49 30  1  0  0  0  0
 50 49  1  0  0  0  0
 51 53  1  0  0  0  0
 51 52  1  0  0  0  0
 53 52  1  0  0  0  0
 53 50  1  0  0  0  0
M  END
>  <MODEL>
2

>  <REMARK>
 VINA RESULT:      -7.6      3.272      8.349
  Name = 
  12 active torsions:
  status: ('A' for Active; 'I' for Inactive)
    1  A    between atoms: N_1  and  C_29
    2  A    between atoms: C_2  and  C_4
    3  A    between atoms: C_2  and  C_43
    4  A    between atoms: C_3  and  C_25
    5  A    between atoms: O_11  and  C_19
    6  A    between atoms: C_12  and  C_35
    7  A    between atoms: C_13  and  C_50
    8  A    between atoms: C_25  and  C_47
    9  A    between atoms: N_27  and  C_35
   10  A    between atoms: C_29  and  C_52
   11  A    between atoms: C_40  and  C_51
   12  A    between atoms: C_49  and  C_52
                            x       y       z     vdW  Elec       q    Type
                         _______ _______ _______ _____ _____    ______ ____

>  <TORSDO>
F 12

$$$$
=
 OpenBabel11062414043D

 53 59  0  0  1  0  0  0  0  0999 V2000
  179.6820  176.8180  141.1850 C   0  0  0  0  0  2  0  0  0  0  0  0
  181.6710  177.8010  136.8900 C   0  0  2  0  0  3  0  0  0  0  0  0
  180.7830  179.2540  141.5800 C   0  0  1  0  0  0  0  0  0  0  0  0
  179.2110  177.1090  139.7720 C   0  0  2  0  0  3  0  0  0  0  0  0
  182.4620  178.9050  137.6160 C   0  0  0  0  0  2  0  0  0  0  0  0
  180.4290  180.4770  142.1280 F   0  0  0  0  0  0  0  0  0  0  0  0
  182.4680  179.4120  140.0790 C   0  0  0  0  0  2  0  0  0  0  0  0
  179.8980  178.0860  142.0110 C   0  0  1  0  0  0  0  0  0  0  0  0
  180.2810  177.5370  137.4970 C   0  0  1  0  0  3  0  0  0  0  0  0
  179.1970  175.8310  138.9620 C   0  0  0  0  0  2  0  0  0  0  0  0
  180.3660  176.7880  138.8330 C   0  0  2  0  0  3  0  0  0  0  0  0
  179.5680  178.7370  137.6020 O   0  0  0  0  0  1  0  0  0  0  0  0
  181.0870  179.2310  140.2130 O   0  0  0  0  0  0  0  0  0  0  0  0
  182.9850  178.4800  138.9880 C   0  0  2  0  0  3  0  0  0  0  0  0
  178.9510  178.3620  143.0010 O   0  0  0  0  0  1  0  0  0  0  0  0
  181.3540  178.1590  142.4860 C   0  0  2  0  0  3  0  0  0  0  0  0
  182.9820  174.6370  135.0510 C   0  0  0  0  0  2  0  0  0  0  0  0
  183.4310  173.5620  137.2370 C   0  0  0  0  0  2  0  0  0  0  0  0
  182.0890  175.8510  135.3520 C   0  0  0  0  0  2  0  0  0  0  0  0
  183.5170  174.9660  137.8460 C   0  0  0  0  0  2  0  0  0  0  0  0
  182.7440  173.4800  135.9340 N   0  0  0  0  0  0  0  0  0  0  0  0
  182.2950  175.6300  137.7260 O   0  0  0  0  0  0  0  0  0  0  0  0
  182.4880  176.5220  136.6650 C   0  0  2  0  0  3  0  0  0  0  0  0
  181.3170  173.2170  136.1220 C   0  0  0  0  0  2  0  0  0  0  0  0
  181.1000  172.2040  137.2350 C   0  0  0  0  0  2  0  0  0  0  0  0
  179.8700  172.4360  137.8530 O   0  0  0  0  0  1  0  0  0  0  0  0
  185.1960  178.2220  137.8890 C   0  0  0  0  0  2  0  0  0  0  0  0
  184.4830  178.4100  139.0020 C   0  0  0  0  0  3  0  0  0  0  0  0
  181.4960  178.6390  143.9260 C   0  0  0  0  0  2  0  0  0  0  0  0
  185.9130  178.0850  143.9530 N   0  0  0  0  0  0  0  0  0  0  0  0
  182.6530  179.5700  144.0410 C   0  0  0  0  0  3  0  0  0  0  0  0
  185.5040  178.8380  146.5140 S   0  0  0  0  0  0  0  0  0  0  0  0
  187.1870  177.8170  144.6000 C   0  0  0  0  0  2  0  0  0  0  0  0
  187.2160  178.5870  145.9200 C   0  0  2  0  0  3  0  0  0  0  0  0
  183.8040  179.1090  144.4380 C   0  0  0  0  0  0  0  0  0  0  0  0
  184.9460  178.6230  144.8440 C   0  0  0  0  0  0  0  0  0  0  0  0
  188.0190  177.7980  146.9450 C   0  0  0  0  0  2  0  0  0  0  0  0
  189.2970  177.2030  146.3620 C   0  0  1  0  0  3  0  0  0  0  0  0
  191.6290  177.0370  147.0970 O   0  0  0  0  0  0  0  0  0  0  0  0
  190.0970  175.4170  147.7940 O   0  0  0  0  0  1  0  0  0  0  0  0
  190.5240  177.3960  144.4210 C   0  0  2  0  0  3  0  0  0  0  0  0
  189.9230  178.1110  145.4870 O   0  0  0  0  0  0  0  0  0  0  0  0
  191.9560  175.5430  143.7650 O   0  0  0  0  0  1  0  0  0  0  0  0
  190.2840  176.7600  147.4510 C   0  0  2  0  0  3  0  0  0  0  0  0
  192.1050  176.1580  146.0910 C   0  0  0  0  0  2  0  0  0  0  0  0
  191.2290  176.0770  144.8290 C   0  0  1  0  0  3  0  0  0  0  0  0
  190.9930  179.5290  144.0630 C   0  0  0  0  0  1  0  0  0  0  0  0
  191.4190  178.2360  143.7530 O   0  0  0  0  0  0  0  0  0  0  0  0
  185.6000  177.7400  142.5630 C   0  0  0  0  0  2  0  0  0  0  0  0
  186.1160  178.7750  141.5760 C   0  0  0  0  0  2  0  0  0  0  0  0
  188.1380  177.3750  141.3950 C   0  0  0  0  0  2  0  0  0  0  0  0
  188.1540  178.3610  140.2470 C   0  0  0  0  0  2  0  0  0  0  0  0
  187.6300  178.7860  141.6030 C   0  0  0  0  0  3  0  0  0  0  0  0
  1  8  1  0  0  0  0
  2  9  1  0  0  0  0
  2  5  1  1  0  0  0
  3  8  1  0  0  0  0
  3  6  1  1  0  0  0
  3 16  1  0  0  0  0
  4 10  1  6  0  0  0
  4  1  1  0  0  0  0
  5 14  1  0  0  0  0
  7 13  1  0  0  0  0
  8 16  1  0  0  0  0
  8 15  1  1  0  0  0
  9 12  1  1  0  0  0
  9 11  1  0  0  0  0
 11 10  1  6  0  0  0
 11  4  1  0  0  0  0
 13  3  1  0  0  0  0
 14 28  1  6  0  0  0
 14  7  1  0  0  0  0
 16 29  1  1  0  0  0
 17 19  1  0  0  0  0
 17 21  1  0  0  0  0
 18 20  1  0  0  0  0
 21 24  1  0  0  0  0
 21 18  1  0  0  0  0
 22 20  1  0  0  0  0
 23 19  1  6  0  0  0
 23  2  1  0  0  0  0
 23 22  1  0  0  0  0
 24 25  1  0  0  0  0
 25 26  1  0  0  0  0
 27 28  2  0  0  0  0
 29 31  1  0  0  0  0
 30 33  1  0  0  0  0
 30 36  1  0  0  0  0
 31 35  2  0  0  0  0
 33 34  1  0  0  0  0
 34 32  1  0  0  0  0
 34 37  1  1  0  0  0
 35 36  2  0  0  0  0
 36 32  1  0  0  0  0
 38 37  1  1  0  0  0
 38 44  1  0  0  0  0
 39 44  1  0  0  0  0
 41 48  1  1  0  0  0
 41 46  1  0  0  0  0
 41 42  1  0  0  0  0
 42 38  1  0  0  0  0
 44 40  1  6  0  0  0
 45 39  1  0  0  0  0
 46 43  1  6  0  0  0
 46 45  1  0  0  0  0
 48 47  1  0  0  0  0
 49 30  1  0  0  0  0
 50 53  1  0  0  0  0
 50 49  1  0  0  0  0
 51 53  1  0  0  0  0
 52 51  1  0  0  0  0
 52 53  1  0  0  0  0
M  END
>  <MODEL>
3

>  <REMARK>
 VINA RESULT:      -7.4      3.448      5.544
  Name = 
  12 active torsions:
  status: ('A' for Active; 'I' for Inactive)
    1  A    between atoms: N_1  and  C_29
    2  A    between atoms: C_2  and  C_4
    3  A    between atoms: C_2  and  C_43
    4  A    between atoms: C_3  and  C_25
    5  A    between atoms: O_11  and  C_19
    6  A    between atoms: C_12  and  C_35
    7  A    between atoms: C_13  and  C_50
    8  A    between atoms: C_25  and  C_47
    9  A    between atoms: N_27  and  C_35
   10  A    between atoms: C_29  and  C_52
   11  A    between atoms: C_40  and  C_51
   12  A    between atoms: C_49  and  C_52
                            x       y       z     vdW  Elec       q    Type
                         _______ _______ _______ _____ _____    ______ ____

>  <TORSDO>
F 12

$$$$
=
 OpenBabel11062414043D

 53 59  0  0  1  0  0  0  0  0999 V2000
  182.1700  178.2210  142.9640 C   0  0  0  0  0  2  0  0  0  0  0  0
  182.0350  178.8490  138.1720 C   0  0  2  0  0  3  0  0  0  0  0  0
  184.5280  179.4400  142.4540 C   0  0  1  0  0  0  0  0  0  0  0  0
  181.3750  179.0380  141.9620 C   0  0  2  0  0  3  0  0  0  0  0  0
  183.5500  179.1120  138.2600 C   0  0  0  0  0  2  0  0  0  0  0  0
  185.2850  180.4860  142.9570 F   0  0  0  0  0  0  0  0  0  0  0  0
  185.0130  178.9530  140.2990 C   0  0  0  0  0  2  0  0  0  0  0  0
  183.4560  178.9170  143.4100 C   0  0  1  0  0  0  0  0  0  0  0  0
  181.2590  179.2880  139.4270 C   0  0  1  0  0  3  0  0  0  0  0  0
  180.2220  178.2170  141.4290 C   0  0  0  0  0  2  0  0  0  0  0  0
  181.4930  178.3430  140.6130 C   0  0  2  0  0  3  0  0  0  0  0  0
  181.5620  180.6180  139.7370 O   0  0  0  0  0  1  0  0  0  0  0  0
  184.0700  179.5600  141.1350 O   0  0  0  0  0  0  0  0  0  0  0  0
  184.2800  178.1690  139.2160 C   0  0  2  0  0  3  0  0  0  0  0  0
  183.4700  179.4480  144.7020 O   0  0  0  0  0  1  0  0  0  0  0  0
  184.6700  178.0440  143.0670 C   0  0  2  0  0  3  0  0  0  0  0  0
  181.3940  175.0260  138.4660 C   0  0  0  0  0  2  0  0  0  0  0  0
  182.1030  174.7340  136.1110 C   0  0  0  0  0  2  0  0  0  0  0  0
  181.8480  176.4370  138.8720 C   0  0  0  0  0  2  0  0  0  0  0  0
  181.7340  176.2020  135.8770 C   0  0  0  0  0  2  0  0  0  0  0  0
  182.3030  174.3500  137.5210 N   0  0  0  0  0  0  0  0  0  0  0  0
  182.5300  177.0400  136.6590 O   0  0  0  0  0  0  0  0  0  0  0  0
  181.6960  177.4240  137.7160 C   0  0  2  0  0  3  0  0  0  0  0  0
  183.7060  174.5050  137.9020 C   0  0  0  0  0  2  0  0  0  0  0  0
  184.5680  173.4560  137.2170 C   0  0  0  0  0  2  0  0  0  0  0  0
  185.7210  173.2260  137.9690 O   0  0  0  0  0  1  0  0  0  0  0  0
  185.8840  177.6620  137.3900 C   0  0  0  0  0  2  0  0  0  0  0  0
  185.2180  177.2620  138.4750 C   0  0  0  0  0  3  0  0  0  0  0  0
  185.7250  178.0180  144.1670 C   0  0  0  0  0  2  0  0  0  0  0  0
  190.1410  177.7160  143.6990 N   0  0  0  0  0  0  0  0  0  0  0  0
  186.6640  176.8840  143.9460 C   0  0  0  0  0  3  0  0  0  0  0  0
  189.3450  177.0820  141.1980 S   0  0  0  0  0  0  0  0  0  0  0  0
  191.3730  177.7430  142.9280 C   0  0  0  0  0  2  0  0  0  0  0  0
  191.1240  176.9950  141.6180 C   0  0  2  0  0  3  0  0  0  0  0  0
  187.8380  177.1200  143.4340 C   0  0  0  0  0  0  0  0  0  0  0  0
  189.0060  177.3840  142.9130 C   0  0  0  0  0  0  0  0  0  0  0  0
  191.9580  177.6260  140.5120 C   0  0  0  0  0  2  0  0  0  0  0  0
  192.1660  176.6930  139.3230 C   0  0  1  0  0  3  0  0  0  0  0  0
  193.5480  176.7370  137.3000 O   0  0  0  0  0  0  0  0  0  0  0  0
  194.4620  175.9120  139.2860 O   0  0  0  0  0  1  0  0  0  0  0  0
  190.8610  175.6780  137.7180 C   0  0  2  0  0  3  0  0  0  0  0  0
  191.1900  176.9120  138.3330 O   0  0  0  0  0  0  0  0  0  0  0  0
  191.6840  173.6430  136.6710 O   0  0  0  0  0  1  0  0  0  0  0  0
  193.5690  176.8250  138.7150 C   0  0  2  0  0  3  0  0  0  0  0  0
  193.3120  175.4110  136.8540 C   0  0  0  0  0  2  0  0  0  0  0  0
  192.0630  174.7370  137.4490 C   0  0  1  0  0  3  0  0  0  0  0  0
  189.5510  177.1640  136.7320 C   0  0  0  0  0  1  0  0  0  0  0  0
  190.1690  175.9290  136.5300 O   0  0  0  0  0  0  0  0  0  0  0  0
  190.0390  178.1010  145.1100 C   0  0  0  0  0  2  0  0  0  0  0  0
  190.2720  176.9290  146.0510 C   0  0  0  0  0  2  0  0  0  0  0  0
  191.9880  176.1600  147.6460 C   0  0  0  0  0  2  0  0  0  0  0  0
  192.0580  175.2680  146.4250 C   0  0  0  0  0  2  0  0  0  0  0  0
  191.7590  176.7450  146.2680 C   0  0  0  0  0  3  0  0  0  0  0  0
  1  8  1  0  0  0  0
  2  5  1  1  0  0  0
  2  9  1  0  0  0  0
  3  6  1  1  0  0  0
  3 16  1  0  0  0  0
  3  8  1  0  0  0  0
  4 10  1  1  0  0  0
  4  1  1  0  0  0  0
  5 14  1  0  0  0  0
  7 13  1  0  0  0  0
  8 15  1  1  0  0  0
  9 12  1  1  0  0  0
  9 11  1  0  0  0  0
 11 10  1  1  0  0  0
 11  4  1  0  0  0  0
 13  3  1  0  0  0  0
 14 28  1  6  0  0  0
 14  7  1  0  0  0  0
 16  8  1  0  0  0  0
 16 29  1  1  0  0  0
 17 19  1  0  0  0  0
 18 21  1  0  0  0  0
 20 18  1  0  0  0  0
 20 22  1  0  0  0  0
 21 24  1  0  0  0  0
 21 17  1  0  0  0  0
 22 23  1  0  0  0  0
 23  2  1  0  0  0  0
 23 19  1  1  0  0  0
 25 24  1  0  0  0  0
 25 26  1  0  0  0  0
 27 28  2  0  0  0  0
 30 49  1  0  0  0  0
 31 29  1  0  0  0  0
 32 34  1  0  0  0  0
 32 36  1  0  0  0  0
 33 30  1  0  0  0  0
 34 37  1  6  0  0  0
 34 33  1  0  0  0  0
 35 31  2  0  0  0  0
 36 35  2  0  0  0  0
 36 30  1  0  0  0  0
 38 37  1  1  0  0  0
 39 44  1  0  0  0  0
 41 48  1  6  0  0  0
 41 42  1  0  0  0  0
 42 38  1  0  0  0  0
 44 40  1  1  0  0  0
 44 38  1  0  0  0  0
 45 39  1  0  0  0  0
 45 46  1  0  0  0  0
 46 43  1  6  0  0  0
 46 41  1  0  0  0  0
 48 47  1  0  0  0  0
 49 50  1  0  0  0  0
 50 53  1  0  0  0  0
 52 51  1  0  0  0  0
 53 52  1  0  0  0  0
 53 51  1  0  0  0  0
M  END
>  <MODEL>
4

>  <REMARK>
 VINA RESULT:      -7.4      1.547      2.066
  Name = 
  12 active torsions:
  status: ('A' for Active; 'I' for Inactive)
    1  A    between atoms: N_1  and  C_29
    2  A    between atoms: C_2  and  C_4
    3  A    between atoms: C_2  and  C_43
    4  A    between atoms: C_3  and  C_25
    5  A    between atoms: O_11  and  C_19
    6  A    between atoms: C_12  and  C_35
    7  A    between atoms: C_13  and  C_50
    8  A    between atoms: C_25  and  C_47
    9  A    between atoms: N_27  and  C_35
   10  A    between atoms: C_29  and  C_52
   11  A    between atoms: C_40  and  C_51
   12  A    between atoms: C_49  and  C_52
                            x       y       z     vdW  Elec       q    Type
                         _______ _______ _______ _____ _____    ______ ____

>  <TORSDO>
F 12

$$$$
=
 OpenBabel11062414043D

 53 59  0  0  1  0  0  0  0  0999 V2000
  182.4500  178.2170  142.8120 C   0  0  0  0  0  2  0  0  0  0  0  0
  182.3090  178.7410  138.0080 C   0  0  2  0  0  3  0  0  0  0  0  0
  184.8400  179.3520  142.2650 C   0  0  1  0  0  0  0  0  0  0  0  0
  181.6740  179.0350  141.7960 C   0  0  2  0  0  3  0  0  0  0  0  0
  183.8320  178.9590  138.0840 C   0  0  0  0  0  2  0  0  0  0  0  0
  185.6310  180.3860  142.7410 F   0  0  0  0  0  0  0  0  0  0  0  0
  185.2990  178.8020  140.1190 C   0  0  0  0  0  2  0  0  0  0  0  0
  183.7580  178.8830  143.2370 C   0  0  1  0  0  0  0  0  0  0  0  0
  181.5530  179.2310  139.2560 C   0  0  1  0  0  3  0  0  0  0  0  0
  180.4940  178.2370  141.2870 C   0  0  0  0  0  2  0  0  0  0  0  0
  181.7640  178.3070  140.4620 C   0  0  2  0  0  3  0  0  0  0  0  0
  181.8980  180.5580  139.5350 O   0  0  0  0  0  1  0  0  0  0  0  0
  184.3800  179.4560  140.9460 O   0  0  0  0  0  0  0  0  0  0  0  0
  184.5380  178.0160  139.0570 C   0  0  2  0  0  3  0  0  0  0  0  0
  183.7950  179.4420  144.5170 O   0  0  0  0  0  1  0  0  0  0  0  0
  184.9430  177.9660  142.9090 C   0  0  2  0  0  3  0  0  0  0  0  0
  181.5130  174.9560  138.3980 C   0  0  0  0  0  2  0  0  0  0  0  0
  182.2620  174.5660  136.0700 C   0  0  0  0  0  2  0  0  0  0  0  0
  182.0120  176.3600  138.7740 C   0  0  0  0  0  2  0  0  0  0  0  0
  181.9570  176.0400  135.7840 C   0  0  0  0  0  2  0  0  0  0  0  0
  182.4150  174.2170  137.4940 N   0  0  0  0  0  0  0  0  0  0  0  0
  182.7670  176.8700  136.5600 O   0  0  0  0  0  0  0  0  0  0  0  0
  181.9250  177.3170  137.5860 C   0  0  2  0  0  3  0  0  0  0  0  0
  183.8150  174.3300  137.9040 C   0  0  0  0  0  2  0  0  0  0  0  0
  184.6600  173.2650  137.2230 C   0  0  0  0  0  2  0  0  0  0  0  0
  185.8230  173.0400  137.9630 O   0  0  0  0  0  1  0  0  0  0  0  0
  186.1140  177.4190  137.2350 C   0  0  0  0  0  2  0  0  0  0  0  0
  185.4440  177.0650  138.3330 C   0  0  0  0  0  3  0  0  0  0  0  0
  186.0020  177.9330  144.0040 C   0  0  0  0  0  2  0  0  0  0  0  0
  190.3230  177.8360  142.9390 N   0  0  0  0  0  0  0  0  0  0  0  0
  186.9760  176.8380  143.7390 C   0  0  0  0  0  3  0  0  0  0  0  0
  189.2360  176.9500  140.6320 S   0  0  0  0  0  0  0  0  0  0  0  0
  191.4330  177.8660  142.0010 C   0  0  0  0  0  2  0  0  0  0  0  0
  191.0580  176.9970  140.8010 C   0  0  2  0  0  3  0  0  0  0  0  0
  188.0500  177.0940  143.0490 C   0  0  0  0  0  0  0  0  0  0  0  0
  189.1160  177.3760  142.3500 C   0  0  0  0  0  0  0  0  0  0  0  0
  191.6890  177.5770  139.5430 C   0  0  0  0  0  2  0  0  0  0  0  0
  191.6880  176.5950  138.3750 C   0  0  1  0  0  3  0  0  0  0  0  0
  190.2400  174.7550  137.6530 O   0  0  0  0  0  0  0  0  0  0  0  0
  189.7090  176.9390  137.0160 O   0  0  0  0  0  1  0  0  0  0  0  0
  193.1350  175.0570  137.4550 C   0  0  2  0  0  3  0  0  0  0  0  0
  192.5050  175.4830  138.6510 O   0  0  0  0  0  0  0  0  0  0  0  0
  192.8670  174.4680  135.1110 O   0  0  0  0  0  1  0  0  0  0  0  0
  190.2730  176.1280  138.0060 C   0  0  2  0  0  3  0  0  0  0  0  0
  190.8170  174.5200  136.3790 C   0  0  0  0  0  2  0  0  0  0  0  0
  192.2370  175.0840  136.1920 C   0  0  1  0  0  3  0  0  0  0  0  0
  194.9580  173.9900  138.1170 C   0  0  0  0  0  1  0  0  0  0  0  0
  193.6610  173.7750  137.6460 O   0  0  0  0  0  0  0  0  0  0  0  0
  190.3900  178.3330  144.3170 C   0  0  0  0  0  2  0  0  0  0  0  0
  191.5300  177.7090  145.1060 C   0  0  0  0  0  2  0  0  0  0  0  0
  192.0260  175.6840  146.4230 C   0  0  0  0  0  2  0  0  0  0  0  0
  191.7650  176.8150  147.3940 C   0  0  0  0  0  2  0  0  0  0  0  0
  190.9700  176.7230  146.1080 C   0  0  0  0  0  3  0  0  0  0  0  0
  1  8  1  0  0  0  0
  2  5  1  1  0  0  0
  2  9  1  0  0  0  0
  3  6  1  1  0  0  0
  3 16  1  0  0  0  0
  3  8  1  0  0  0  0
  4 10  1  1  0  0  0
  4  1  1  0  0  0  0
  5 14  1  0  0  0  0
  7 13  1  0  0  0  0
  8 15  1  1  0  0  0
  9 12  1  1  0  0  0
  9 11  1  0  0  0  0
 11 10  1  1  0  0  0
 11  4  1  0  0  0  0
 13  3  1  0  0  0  0
 14 28  1  6  0  0  0
 14  7  1  0  0  0  0
 16  8  1  0  0  0  0
 16 29  1  1  0  0  0
 17 19  1  0  0  0  0
 18 21  1  0  0  0  0
 20 18  1  0  0  0  0
 20 22  1  0  0  0  0
 21 24  1  0  0  0  0
 21 17  1  0  0  0  0
 22 23  1  0  0  0  0
 23  2  1  0  0  0  0
 23 19  1  1  0  0  0
 25 24  1  0  0  0  0
 25 26  1  0  0  0  0
 27 28  2  0  0  0  0
 30 49  1  0  0  0  0
 31 29  1  0  0  0  0
 32 34  1  0  0  0  0
 32 36  1  0  0  0  0
 33 30  1  0  0  0  0
 34 37  1  6  0  0  0
 34 33  1  0  0  0  0
 35 31  2  0  0  0  0
 36 30  1  0  0  0  0
 36 35  2  0  0  0  0
 38 42  1  0  0  0  0
 38 37  1  1  0  0  0
 39 44  1  0  0  0  0
 41 48  1  1  0  0  0
 41 42  1  0  0  0  0
 44 40  1  6  0  0  0
 44 38  1  0  0  0  0
 45 39  1  0  0  0  0
 46 43  1  6  0  0  0
 46 45  1  0  0  0  0
 46 41  1  0  0  0  0
 48 47  1  0  0  0  0
 49 50  1  0  0  0  0
 50 53  1  0  0  0  0
 51 52  1  0  0  0  0
 53 51  1  0  0  0  0
 53 52  1  0  0  0  0
M  END
>  <MODEL>
5

>  <REMARK>
 VINA RESULT:      -6.5      1.789      2.659
  Name = 
  12 active torsions:
  status: ('A' for Active; 'I' for Inactive)
    1  A    between atoms: N_1  and  C_29
    2  A    between atoms: C_2  and  C_4
    3  A    between atoms: C_2  and  C_43
    4  A    between atoms: C_3  and  C_25
    5  A    between atoms: O_11  and  C_19
    6  A    between atoms: C_12  and  C_35
    7  A    between atoms: C_13  and  C_50
    8  A    between atoms: C_25  and  C_47
    9  A    between atoms: N_27  and  C_35
   10  A    between atoms: C_29  and  C_52
   11  A    between atoms: C_40  and  C_51
   12  A    between atoms: C_49  and  C_52
                            x       y       z     vdW  Elec       q    Type
                         _______ _______ _______ _____ _____    ______ ____

>  <TORSDO>
F 12

$$$$
=
 OpenBabel11062414043D

 53 59  0  0  1  0  0  0  0  0999 V2000
  185.1210  178.0690  137.8990 C   0  0  0  0  0  2  0  0  0  0  0  0
  182.4760  174.9530  135.3150 C   0  0  2  0  0  3  0  0  0  0  0  0
  186.7870  177.4040  135.8780 C   0  0  1  0  0  0  0  0  0  0  0  0
  183.8700  178.1030  137.0400 C   0  0  2  0  0  3  0  0  0  0  0  0
  183.7960  174.5470  134.6330 C   0  0  0  0  0  2  0  0  0  0  0  0
  187.6260  178.0370  134.9740 F   0  0  0  0  0  0  0  0  0  0  0  0
  186.1120  175.3610  135.1780 C   0  0  0  0  0  2  0  0  0  0  0  0
  186.4040  178.2530  137.0880 C   0  0  1  0  0  0  0  0  0  0  0  0
  182.4390  176.4280  135.7570 C   0  0  1  0  0  3  0  0  0  0  0  0
  182.6640  177.7310  137.8730 C   0  0  0  0  0  2  0  0  0  0  0  0
  183.3150  176.6860  136.9890 C   0  0  2  0  0  3  0  0  0  0  0  0
  182.7720  177.2590  134.6810 O   0  0  0  0  0  1  0  0  0  0  0  0
  185.7040  176.6880  135.3490 O   0  0  0  0  0  0  0  0  0  0  0  0
  184.9750  174.4370  135.5990 C   0  0  2  0  0  3  0  0  0  0  0  0
  187.0530  179.4850  137.2080 O   0  0  0  0  0  1  0  0  0  0  0  0
  187.3160  177.0330  137.2660 C   0  0  2  0  0  3  0  0  0  0  0  0
  181.6810  171.5450  137.0070 C   0  0  0  0  0  2  0  0  0  0  0  0
  180.0540  172.6720  138.4960 C   0  0  0  0  0  2  0  0  0  0  0  0
  181.9940  172.5480  135.8860 C   0  0  0  0  0  2  0  0  0  0  0  0
  180.8280  173.9740  138.2620 C   0  0  0  0  0  2  0  0  0  0  0  0
  180.2930  171.6080  137.5020 N   0  0  0  0  0  0  0  0  0  0  0  0
  180.7840  174.3380  136.9160 O   0  0  0  0  0  0  0  0  0  0  0  0
  182.0420  173.9790  136.4180 C   0  0  2  0  0  3  0  0  0  0  0  0
  179.3240  171.6990  136.4100 C   0  0  0  0  0  2  0  0  0  0  0  0
  178.9320  170.3120  135.9250 C   0  0  0  0  0  2  0  0  0  0  0  0
  179.4430  170.0970  134.6440 O   0  0  0  0  0  1  0  0  0  0  0  0
  186.7390  172.6900  135.6430 C   0  0  0  0  0  2  0  0  0  0  0  0
  185.4480  173.0180  135.7210 C   0  0  0  0  0  3  0  0  0  0  0  0
  188.7880  177.3980  137.4220 C   0  0  0  0  0  2  0  0  0  0  0  0
  190.9770  177.5050  141.2960 N   0  0  0  0  0  0  0  0  0  0  0  0
  188.9490  178.4240  138.4880 C   0  0  0  0  0  3  0  0  0  0  0  0
  188.4260  177.4960  142.1810 S   0  0  0  0  0  0  0  0  0  0  0  0
  191.1080  177.2650  142.7240 C   0  0  0  0  0  2  0  0  0  0  0  0
  189.7900  177.6610  143.3900 C   0  0  2  0  0  3  0  0  0  0  0  0
  189.2900  178.0480  139.6880 C   0  0  0  0  0  0  0  0  0  0  0  0
  189.6250  177.6440  140.8830 C   0  0  0  0  0  0  0  0  0  0  0  0
  189.5420  176.7570  144.5900 C   0  0  0  0  0  2  0  0  0  0  0  0
  188.6550  177.4100  145.6470 C   0  0  1  0  0  3  0  0  0  0  0  0
  187.9140  176.8100  147.9040 O   0  0  0  0  0  0  0  0  0  0  0  0
  189.9650  177.8950  147.6290 O   0  0  0  0  0  1  0  0  0  0  0  0
  186.5080  178.2350  145.7810 C   0  0  2  0  0  3  0  0  0  0  0  0
  187.2980  177.1160  145.4170 O   0  0  0  0  0  0  0  0  0  0  0  0
  186.0150  179.9160  147.4680 O   0  0  0  0  0  1  0  0  0  0  0  0
  189.0470  176.9980  147.0730 C   0  0  2  0  0  3  0  0  0  0  0  0
  187.3060  178.0410  148.2600 C   0  0  0  0  0  2  0  0  0  0  0  0
  186.9520  178.9590  147.0780 C   0  0  1  0  0  3  0  0  0  0  0  0
  184.4800  178.6970  145.0260 C   0  0  0  0  0  1  0  0  0  0  0  0
  185.1710  177.8380  145.8830 O   0  0  0  0  0  0  0  0  0  0  0  0
  192.0950  177.4910  140.3480 C   0  0  0  0  0  2  0  0  0  0  0  0
  191.8460  176.5670  139.1670 C   0  0  0  0  0  2  0  0  0  0  0  0
  192.9120  175.2360  137.3860 C   0  0  0  0  0  2  0  0  0  0  0  0
  193.2120  176.6940  137.1150 C   0  0  0  0  0  2  0  0  0  0  0  0
  193.1690  176.1820  138.5400 C   0  0  0  0  0  3  0  0  0  0  0  0
  2  5  1  1  0  0  0
  2  9  1  0  0  0  0
  2 23  1  0  0  0  0
  3  6  1  6  0  0  0
  3  8  1  0  0  0  0
  3 16  1  0  0  0  0
  4 10  1  1  0  0  0
  4  1  1  0  0  0  0
  5 14  1  0  0  0  0
  7 13  1  0  0  0  0
  7 14  1  0  0  0  0
  8 15  1  1  0  0  0
  8 16  1  0  0  0  0
  8  1  1  0  0  0  0
  9 12  1  6  0  0  0
  9 11  1  0  0  0  0
 11  4  1  0  0  0  0
 11 10  1  1  0  0  0
 13  3  1  0  0  0  0
 14 28  1  6  0  0  0
 16 29  1  6  0  0  0
 17 21  1  0  0  0  0
 19 17  1  0  0  0  0
 20 18  1  0  0  0  0
 21 18  1  0  0  0  0
 22 20  1  0  0  0  0
 23 19  1  6  0  0  0
 23 22  1  0  0  0  0
 24 21  1  0  0  0  0
 25 24  1  0  0  0  0
 26 25  1  0  0  0  0
 27 28  2  0  0  0  0
 29 31  1  0  0  0  0
 30 33  1  0  0  0  0
 31 35  2  0  0  0  0
 32 34  1  0  0  0  0
 33 34  1  0  0  0  0
 34 37  1  1  0  0  0
 35 36  2  0  0  0  0
 36 30  1  0  0  0  0
 36 32  1  0  0  0  0
 38 37  1  6  0  0  0
 38 44  1  0  0  0  0
 39 45  1  0  0  0  0
 41 48  1  1  0  0  0
 41 46  1  0  0  0  0
 42 38  1  0  0  0  0
 42 41  1  0  0  0  0
 44 40  1  1  0  0  0
 44 39  1  0  0  0  0
 46 43  1  1  0  0  0
 46 45  1  0  0  0  0
 47 48  1  0  0  0  0
 49 30  1  0  0  0  0
 50 49  1  0  0  0  0
 51 53  1  0  0  0  0
 52 51  1  0  0  0  0
 52 53  1  0  0  0  0
 53 50  1  0  0  0  0
M  END
>  <MODEL>
6

>  <REMARK>
 VINA RESULT:      -6.1      3.455      7.430
  Name = 
  12 active torsions:
  status: ('A' for Active; 'I' for Inactive)
    1  A    between atoms: N_1  and  C_29
    2  A    between atoms: C_2  and  C_4
    3  A    between atoms: C_2  and  C_43
    4  A    between atoms: C_3  and  C_25
    5  A    between atoms: O_11  and  C_19
    6  A    between atoms: C_12  and  C_35
    7  A    between atoms: C_13  and  C_50
    8  A    between atoms: C_25  and  C_47
    9  A    between atoms: N_27  and  C_35
   10  A    between atoms: C_29  and  C_52
   11  A    between atoms: C_40  and  C_51
   12  A    between atoms: C_49  and  C_52
                            x       y       z     vdW  Elec       q    Type
                         _______ _______ _______ _____ _____    ______ ____

>  <TORSDO>
F 12

$$$$
=
 OpenBabel11062414043D

 53 59  0  0  1  0  0  0  0  0999 V2000
  182.3950  178.3290  143.6830 C   0  0  0  0  0  2  0  0  0  0  0  0
  181.2700  178.4700  138.9820 C   0  0  2  0  0  3  0  0  0  0  0  0
  184.5570  179.5230  142.5870 C   0  0  1  0  0  0  0  0  0  0  0  0
  181.3850  179.0300  142.7920 C   0  0  2  0  0  3  0  0  0  0  0  0
  182.7620  178.7620  138.7330 C   0  0  0  0  0  2  0  0  0  0  0  0
  185.3650  180.6260  142.8210 F   0  0  0  0  0  0  0  0  0  0  0  0
  184.6120  178.8290  140.4340 C   0  0  0  0  0  2  0  0  0  0  0  0
  183.7200  179.0840  143.7870 C   0  0  1  0  0  0  0  0  0  0  0  0
  180.7500  179.0220  140.3220 C   0  0  1  0  0  3  0  0  0  0  0  0
  180.1780  178.1430  142.5870 C   0  0  0  0  0  2  0  0  0  0  0  0
  181.2520  178.2050  141.5190 C   0  0  2  0  0  3  0  0  0  0  0  0
  181.0640  180.3810  140.4350 O   0  0  0  0  0  1  0  0  0  0  0  0
  183.8380  179.5040  141.3840 O   0  0  0  0  0  0  0  0  0  0  0  0
  183.7020  177.9300  139.6040 C   0  0  2  0  0  3  0  0  0  0  0  0
  183.9780  179.7420  144.9930 O   0  0  0  0  0  1  0  0  0  0  0  0
  184.8680  178.1980  143.2880 C   0  0  2  0  0  3  0  0  0  0  0  0
  181.1040  175.0420  137.1580 C   0  0  0  0  0  2  0  0  0  0  0  0
  178.9460  174.5620  138.2740 C   0  0  0  0  0  2  0  0  0  0  0  0
  181.3620  176.5420  137.3640 C   0  0  0  0  0  2  0  0  0  0  0  0
  179.3590  175.5450  139.3730 C   0  0  0  0  0  2  0  0  0  0  0  0
  179.6790  174.6910  137.0010 N   0  0  0  0  0  0  0  0  0  0  0  0
  179.5090  176.8310  138.8520 O   0  0  0  0  0  0  0  0  0  0  0  0
  180.8950  177.0020  138.7440 C   0  0  2  0  0  3  0  0  0  0  0  0
  178.9850  175.6080  136.0990 C   0  0  0  0  0  2  0  0  0  0  0  0
  179.6210  175.5880  134.7180 C   0  0  0  0  0  2  0  0  0  0  0  0
  180.5270  176.6440  134.5980 O   0  0  0  0  0  1  0  0  0  0  0  0
  184.8150  177.2140  137.5040 C   0  0  0  0  0  2  0  0  0  0  0  0
  184.5010  176.9670  138.7770 C   0  0  0  0  0  3  0  0  0  0  0  0
  186.1240  178.2980  144.1460 C   0  0  0  0  0  2  0  0  0  0  0  0
  190.2630  177.9670  142.5420 N   0  0  0  0  0  0  0  0  0  0  0  0
  187.0310  177.1520  143.8570 C   0  0  0  0  0  3  0  0  0  0  0  0
  188.8620  176.9180  140.4850 S   0  0  0  0  0  0  0  0  0  0  0  0
  191.2400  177.8770  141.4690 C   0  0  0  0  0  2  0  0  0  0  0  0
  190.6910  176.9190  140.4120 C   0  0  2  0  0  3  0  0  0  0  0  0
  188.0100  177.3120  143.0130 C   0  0  0  0  0  0  0  0  0  0  0  0
  188.9790  177.4970  142.1580 C   0  0  0  0  0  0  0  0  0  0  0  0
  191.1620  177.3670  139.0350 C   0  0  0  0  0  2  0  0  0  0  0  0
  190.9640  176.2960  137.9660 C   0  0  1  0  0  3  0  0  0  0  0  0
  192.1300  175.6570  135.9080 O   0  0  0  0  0  0  0  0  0  0  0  0
  192.8650  174.7910  137.9500 O   0  0  0  0  0  1  0  0  0  0  0  0
  189.2840  175.6130  136.5450 C   0  0  2  0  0  3  0  0  0  0  0  0
  190.0440  176.7230  136.9890 O   0  0  0  0  0  0  0  0  0  0  0  0
  189.3110  173.3200  135.7340 O   0  0  0  0  0  1  0  0  0  0  0  0
  192.2840  175.8840  137.2990 C   0  0  2  0  0  3  0  0  0  0  0  0
  191.4390  174.4480  135.6400 C   0  0  0  0  0  2  0  0  0  0  0  0
  190.0850  174.2990  136.3560 C   0  0  1  0  0  3  0  0  0  0  0  0
  187.3230  175.4810  135.5260 C   0  0  0  0  0  1  0  0  0  0  0  0
  188.6270  175.9530  135.3580 O   0  0  0  0  0  0  0  0  0  0  0  0
  190.5220  178.5790  143.8490 C   0  0  0  0  0  2  0  0  0  0  0  0
  190.5040  177.5640  144.9810 C   0  0  0  0  0  2  0  0  0  0  0  0
  191.6840  175.6100  145.9120 C   0  0  0  0  0  2  0  0  0  0  0  0
  191.6320  175.4450  144.4080 C   0  0  0  0  0  2  0  0  0  0  0  0
  191.8220  176.8210  145.0130 C   0  0  0  0  0  3  0  0  0  0  0  0
  1  8  1  0  0  0  0
  2  5  1  1  0  0  0
  2  9  1  0  0  0  0
  3  6  1  1  0  0  0
  3 16  1  0  0  0  0
  3  8  1  0  0  0  0
  4 10  1  1  0  0  0
  4  1  1  0  0  0  0
  5 14  1  0  0  0  0
  7 13  1  0  0  0  0
  8 15  1  1  0  0  0
  9 12  1  1  0  0  0
  9 11  1  0  0  0  0
 11 10  1  1  0  0  0
 11  4  1  0  0  0  0
 13  3  1  0  0  0  0
 14 28  1  6  0  0  0
 14  7  1  0  0  0  0
 16  8  1  0  0  0  0
 16 29  1  1  0  0  0
 17 19  1  0  0  0  0
 18 20  1  0  0  0  0
 21 17  1  0  0  0  0
 21 18  1  0  0  0  0
 22 20  1  0  0  0  0
 23 19  1  6  0  0  0
 23 22  1  0  0  0  0
 23  2  1  0  0  0  0
 24 21  1  0  0  0  0
 25 24  1  0  0  0  0
 26 25  1  0  0  0  0
 27 28  2  0  0  0  0
 30 49  1  0  0  0  0
 31 29  1  0  0  0  0
 32 36  1  0  0  0  0
 33 30  1  0  0  0  0
 34 37  1  6  0  0  0
 34 32  1  0  0  0  0
 34 33  1  0  0  0  0
 35 31  2  0  0  0  0
 36 30  1  0  0  0  0
 36 35  2  0  0  0  0
 38 37  1  1  0  0  0
 39 44  1  0  0  0  0
 41 48  1  6  0  0  0
 41 42  1  0  0  0  0
 42 38  1  0  0  0  0
 44 40  1  1  0  0  0
 44 38  1  0  0  0  0
 45 39  1  0  0  0  0
 45 46  1  0  0  0  0
 46 43  1  6  0  0  0
 46 41  1  0  0  0  0
 48 47  1  0  0  0  0
 49 50  1  0  0  0  0
 50 53  1  0  0  0  0
 52 53  1  0  0  0  0
 52 51  1  0  0  0  0
 53 51  1  0  0  0  0
M  END
>  <MODEL>
7

>  <REMARK>
 VINA RESULT:      -5.7      1.457      2.162
  Name = 
  12 active torsions:
  status: ('A' for Active; 'I' for Inactive)
    1  A    between atoms: N_1  and  C_29
    2  A    between atoms: C_2  and  C_4
    3  A    between atoms: C_2  and  C_43
    4  A    between atoms: C_3  and  C_25
    5  A    between atoms: O_11  and  C_19
    6  A    between atoms: C_12  and  C_35
    7  A    between atoms: C_13  and  C_50
    8  A    between atoms: C_25  and  C_47
    9  A    between atoms: N_27  and  C_35
   10  A    between atoms: C_29  and  C_52
   11  A    between atoms: C_40  and  C_51
   12  A    between atoms: C_49  and  C_52
                            x       y       z     vdW  Elec       q    Type
                         _______ _______ _______ _____ _____    ______ ____

>  <TORSDO>
F 12

$$$$
=
 OpenBabel11062414043D

 53 59  0  0  1  0  0  0  0  0999 V2000
  184.1920  177.7510  135.3860 C   0  0  0  0  0  2  0  0  0  0  0  0
  180.7460  177.1220  138.7190 C   0  0  2  0  0  3  0  0  0  0  0  0
  185.5130  176.4990  137.3830 C   0  0  1  0  0  0  0  0  0  0  0  0
  182.9150  176.9440  135.5400 C   0  0  2  0  0  3  0  0  0  0  0  0
  181.8910  176.8380  139.7100 C   0  0  0  0  0  2  0  0  0  0  0  0
  186.3970  175.4420  137.5400 F   0  0  0  0  0  0  0  0  0  0  0  0
  184.3620  176.9770  139.2710 C   0  0  0  0  0  2  0  0  0  0  0  0
  185.4180  177.0370  135.9560 C   0  0  1  0  0  0  0  0  0  0  0  0
  181.0620  176.6950  137.2730 C   0  0  1  0  0  3  0  0  0  0  0  0
  181.7260  177.7820  135.1270 C   0  0  0  0  0  2  0  0  0  0  0  0
  182.0650  177.6370  136.5970 C   0  0  2  0  0  3  0  0  0  0  0  0
  181.4820  175.3600  137.2490 O   0  0  0  0  0  1  0  0  0  0  0  0
  184.2650  176.3840  138.0080 O   0  0  0  0  0  0  0  0  0  0  0  0
  183.0900  177.7710  139.5430 C   0  0  2  0  0  3  0  0  0  0  0  0
  186.3240  176.5070  135.0340 O   0  0  0  0  0  1  0  0  0  0  0  0
  186.0560  177.8930  137.0570 C   0  0  2  0  0  3  0  0  0  0  0  0
  178.9310  180.3770  137.6160 C   0  0  0  0  0  2  0  0  0  0  0  0
  180.3680  181.6890  139.1480 C   0  0  0  0  0  2  0  0  0  0  0  0
  179.5920  178.9960  137.4940 C   0  0  0  0  0  2  0  0  0  0  0  0
  180.5750  180.4070  139.9610 C   0  0  0  0  0  2  0  0  0  0  0  0
  179.8850  181.4920  137.7690 N   0  0  0  0  0  0  0  0  0  0  0  0
  181.2200  179.4360  139.1930 O   0  0  0  0  0  0  0  0  0  0  0  0
  180.1990  178.5510  138.8230 C   0  0  2  0  0  3  0  0  0  0  0  0
  181.0110  181.3810  136.8420 C   0  0  0  0  0  2  0  0  0  0  0  0
  180.8870  182.4020  135.7220 C   0  0  0  0  0  2  0  0  0  0  0  0
  181.3720  183.6380  136.1520 O   0  0  0  0  0  1  0  0  0  0  0  0
  184.4510  179.0830  141.1520 C   0  0  0  0  0  2  0  0  0  0  0  0
  183.2540  178.6640  140.7380 C   0  0  0  0  0  3  0  0  0  0  0  0
  187.5800  177.9050  137.0050 C   0  0  0  0  0  2  0  0  0  0  0  0
  190.1260  177.1780  140.5830 N   0  0  0  0  0  0  0  0  0  0  0  0
  188.1200  178.7790  138.0820 C   0  0  0  0  0  3  0  0  0  0  0  0
  187.7750  177.7630  141.7740 S   0  0  0  0  0  0  0  0  0  0  0  0
  190.3440  176.8140  141.9730 C   0  0  0  0  0  2  0  0  0  0  0  0
  189.2570  177.4870  142.8110 C   0  0  2  0  0  3  0  0  0  0  0  0
  188.4780  178.2460  139.2160 C   0  0  0  0  0  0  0  0  0  0  0  0
  188.8230  177.6880  140.3440 C   0  0  0  0  0  0  0  0  0  0  0  0
  188.9120  176.5970  143.9960 C   0  0  0  0  0  2  0  0  0  0  0  0
  188.2400  177.3610  145.1330 C   0  0  1  0  0  3  0  0  0  0  0  0
  187.8460  176.9410  147.5160 O   0  0  0  0  0  0  0  0  0  0  0  0
  189.8750  177.8890  146.8450 O   0  0  0  0  0  1  0  0  0  0  0  0
  186.1840  178.3150  145.5500 C   0  0  2  0  0  3  0  0  0  0  0  0
  186.8510  177.1320  145.1430 O   0  0  0  0  0  0  0  0  0  0  0  0
  186.0510  180.1200  147.1750 O   0  0  0  0  0  1  0  0  0  0  0  0
  188.8380  177.0140  146.5040 C   0  0  2  0  0  3  0  0  0  0  0  0
  187.3640  178.2240  147.8790 C   0  0  0  0  0  2  0  0  0  0  0  0
  186.8660  179.0890  146.7070 C   0  0  1  0  0  3  0  0  0  0  0  0
  184.0840  178.8340  145.0820 C   0  0  0  0  0  1  0  0  0  0  0  0
  184.8650  178.0030  145.8890 O   0  0  0  0  0  0  0  0  0  0  0  0
  191.0930  176.9440  139.5050 C   0  0  0  0  0  2  0  0  0  0  0  0
  190.5910  175.9370  138.4820 C   0  0  0  0  0  2  0  0  0  0  0  0
  191.2310  174.6550  136.4760 C   0  0  0  0  0  2  0  0  0  0  0  0
  190.8180  176.0390  136.0270 C   0  0  0  0  0  2  0  0  0  0  0  0
  191.5690  175.8590  137.3300 C   0  0  0  0  0  3  0  0  0  0  0  0
  1  4  1  0  0  0  0
  1  8  1  0  0  0  0
  2 23  1  0  0  0  0
  2  5  1  1  0  0  0
  3  6  1  1  0  0  0
  3 13  1  0  0  0  0
  4 10  1  6  0  0  0
  4 11  1  0  0  0  0
  7 14  1  0  0  0  0
  8 15  1  6  0  0  0
  8 16  1  0  0  0  0
  8  3  1  0  0  0  0
  9 12  1  1  0  0  0
  9  2  1  0  0  0  0
 11 10  1  6  0  0  0
 11  9  1  0  0  0  0
 13  7  1  0  0  0  0
 14  5  1  0  0  0  0
 14 28  1  1  0  0  0
 16 29  1  6  0  0  0
 16  3  1  0  0  0  0
 17 21  1  0  0  0  0
 18 20  1  0  0  0  0
 19 17  1  0  0  0  0
 21 18  1  0  0  0  0
 22 20  1  0  0  0  0
 23 19  1  6  0  0  0
 23 22  1  0  0  0  0
 24 21  1  0  0  0  0
 25 26  1  0  0  0  0
 25 24  1  0  0  0  0
 28 27  2  0  0  0  0
 29 31  1  0  0  0  0
 30 33  1  0  0  0  0
 31 35  2  0  0  0  0
 32 34  1  0  0  0  0
 33 34  1  0  0  0  0
 34 37  1  1  0  0  0
 35 36  2  0  0  0  0
 36 30  1  0  0  0  0
 36 32  1  0  0  0  0
 38 37  1  6  0  0  0
 38 42  1  0  0  0  0
 38 44  1  0  0  0  0
 39 45  1  0  0  0  0
 41 48  1  1  0  0  0
 41 46  1  0  0  0  0
 42 41  1  0  0  0  0
 44 40  1  1  0  0  0
 44 39  1  0  0  0  0
 46 43  1  1  0  0  0
 46 45  1  0  0  0  0
 47 48  1  0  0  0  0
 49 30  1  0  0  0  0
 50 49  1  0  0  0  0
 51 53  1  0  0  0  0
 52 51  1  0  0  0  0
 52 53  1  0  0  0  0
 53 50  1  0  0  0  0
M  END
>  <MODEL>
8

>  <REMARK>
 VINA RESULT:      -5.6      3.045      7.485
  Name = 
  12 active torsions:
  status: ('A' for Active; 'I' for Inactive)
    1  A    between atoms: N_1  and  C_29
    2  A    between atoms: C_2  and  C_4
    3  A    between atoms: C_2  and  C_43
    4  A    between atoms: C_3  and  C_25
    5  A    between atoms: O_11  and  C_19
    6  A    between atoms: C_12  and  C_35
    7  A    between atoms: C_13  and  C_50
    8  A    between atoms: C_25  and  C_47
    9  A    between atoms: N_27  and  C_35
   10  A    between atoms: C_29  and  C_52
   11  A    between atoms: C_40  and  C_51
   12  A    between atoms: C_49  and  C_52
                            x       y       z     vdW  Elec       q    Type
                         _______ _______ _______ _____ _____    ______ ____

>  <TORSDO>
F 12

$$$$
=
 OpenBabel11062414043D

 53 59  0  0  1  0  0  0  0  0999 V2000
  185.4180  175.1050  135.7680 C   0  0  0  0  0  2  0  0  0  0  0  0
  189.3660  177.7720  136.5920 C   0  0  2  0  0  3  0  0  0  0  0  0
  184.3910  177.4160  136.7210 C   0  0  1  0  0  0  0  0  0  0  0  0
  186.5130  175.7690  134.9530 C   0  0  2  0  0  3  0  0  0  0  0  0
  188.4570  178.6840  137.4370 C   0  0  0  0  0  2  0  0  0  0  0  0
  183.3820  178.3120  136.4040 F   0  0  0  0  0  0  0  0  0  0  0  0
  186.0280  178.3370  137.9830 C   0  0  0  0  0  2  0  0  0  0  0  0
  184.2480  176.0430  136.0660 C   0  0  1  0  0  0  0  0  0  0  0  0
  188.6410  177.0980  135.4140 C   0  0  1  0  0  3  0  0  0  0  0  0
  187.7110  174.8500  134.8560 C   0  0  0  0  0  2  0  0  0  0  0  0
  187.7080  175.9720  135.8760 C   0  0  2  0  0  3  0  0  0  0  0  0
  187.9750  178.0610  134.6470 O   0  0  0  0  0  1  0  0  0  0  0  0
  185.7050  177.9000  136.6930 O   0  0  0  0  0  0  0  0  0  0  0  0
  187.4580  177.9190  138.3040 C   0  0  2  0  0  3  0  0  0  0  0  0
  183.0640  175.8160  135.3600 O   0  0  0  0  0  1  0  0  0  0  0  0
  184.0680  176.1900  137.5810 C   0  0  2  0  0  3  0  0  0  0  0  0
  192.0650  176.5790  139.1230 C   0  0  0  0  0  2  0  0  0  0  0  0
  192.1830  174.3970  137.9580 C   0  0  0  0  0  2  0  0  0  0  0  0
  191.3090  177.5240  138.1770 C   0  0  0  0  0  2  0  0  0  0  0  0
  190.7640  174.6600  137.4420 C   0  0  0  0  0  2  0  0  0  0  0  0
  192.9120  175.5870  138.4340 N   0  0  0  0  0  0  0  0  0  0  0  0
  190.7390  175.7920  136.6260 O   0  0  0  0  0  0  0  0  0  0  0  0
  190.1900  176.7920  137.4380 C   0  0  2  0  0  3  0  0  0  0  0  0
  193.6850  176.1860  137.3460 C   0  0  0  0  0  2  0  0  0  0  0  0
  194.5880  175.1500  136.6960 C   0  0  0  0  0  2  0  0  0  0  0  0
  195.7690  175.0230  137.4300 O   0  0  0  0  0  1  0  0  0  0  0  0
  188.9330  178.5540  140.1960 C   0  0  0  0  0  2  0  0  0  0  0  0
  187.7580  178.0920  139.7630 C   0  0  0  0  0  3  0  0  0  0  0  0
  182.6080  176.1810  138.0190 C   0  0  0  0  0  2  0  0  0  0  0  0
  182.1470  178.3820  141.8600 N   0  0  0  0  0  0  0  0  0  0  0  0
  182.5050  175.7600  139.4440 C   0  0  0  0  0  3  0  0  0  0  0  0
  184.6670  177.4530  142.1350 S   0  0  0  0  0  0  0  0  0  0  0  0
  182.6540  179.0980  143.0190 C   0  0  0  0  0  2  0  0  0  0  0  0
  183.8930  178.3580  143.5240 C   0  0  2  0  0  3  0  0  0  0  0  0
  182.7970  176.6150  140.3830 C   0  0  0  0  0  0  0  0  0  0  0  0
  183.1000  177.4890  141.3040 C   0  0  0  0  0  0  0  0  0  0  0  0
  184.8750  179.3630  144.1100 C   0  0  0  0  0  2  0  0  0  0  0  0
  185.7800  178.7520  145.1760 C   0  0  1  0  0  3  0  0  0  0  0  0
  186.6980  179.5080  147.3180 O   0  0  0  0  0  0  0  0  0  0  0  0
  184.5660  178.5520  147.2660 O   0  0  0  0  0  1  0  0  0  0  0  0
  187.8710  177.7910  145.2730 C   0  0  2  0  0  3  0  0  0  0  0  0
  187.1360  178.9240  144.8440 O   0  0  0  0  0  0  0  0  0  0  0  0
  188.3550  176.2460  147.0880 O   0  0  0  0  0  1  0  0  0  0  0  0
  185.5050  179.3240  146.5740 C   0  0  2  0  0  3  0  0  0  0  0  0
  187.2430  178.2760  147.7610 C   0  0  0  0  0  2  0  0  0  0  0  0
  187.4610  177.2260  146.6570 C   0  0  1  0  0  3  0  0  0  0  0  0
  189.6220  177.9470  143.9270 C   0  0  0  0  0  1  0  0  0  0  0  0
  189.2350  178.0970  145.2610 O   0  0  0  0  0  0  0  0  0  0  0  0
  180.8370  178.6230  141.2450 C   0  0  0  0  0  2  0  0  0  0  0  0
  180.7430  179.9970  140.5990 C   0  0  0  0  0  2  0  0  0  0  0  0
  181.2890  181.1960  138.5160 C   0  0  0  0  0  2  0  0  0  0  0  0
  182.3270  180.1120  138.7100 C   0  0  0  0  0  2  0  0  0  0  0  0
  180.8850  179.8580  139.0990 C   0  0  0  0  0  3  0  0  0  0  0  0
  1  8  1  0  0  0  0
  2  5  1  1  0  0  0
  2 23  1  0  0  0  0
  3  6  1  6  0  0  0
  3 16  1  0  0  0  0
  4 10  1  6  0  0  0
  4  1  1  0  0  0  0
  4 11  1  0  0  0  0
  5 14  1  0  0  0  0
  7 14  1  0  0  0  0
  8 15  1  6  0  0  0
  8  3  1  0  0  0  0
  8 16  1  0  0  0  0
  9 12  1  1  0  0  0
  9 11  1  0  0  0  0
  9  2  1  0  0  0  0
 11 10  1  6  0  0  0
 13  3  1  0  0  0  0
 13  7  1  0  0  0  0
 14 28  1  1  0  0  0
 16 29  1  6  0  0  0
 18 21  1  0  0  0  0
 19 17  1  0  0  0  0
 20 18  1  0  0  0  0
 21 17  1  0  0  0  0
 22 23  1  0  0  0  0
 22 20  1  0  0  0  0
 23 19  1  6  0  0  0
 24 21  1  0  0  0  0
 25 24  1  0  0  0  0
 25 26  1  0  0  0  0
 28 27  2  0  0  0  0
 29 31  1  0  0  0  0
 30 33  1  0  0  0  0
 31 35  2  0  0  0  0
 32 34  1  0  0  0  0
 33 34  1  0  0  0  0
 34 37  1  6  0  0  0
 35 36  2  0  0  0  0
 36 30  1  0  0  0  0
 36 32  1  0  0  0  0
 38 37  1  6  0  0  0
 38 44  1  0  0  0  0
 39 45  1  0  0  0  0
 41 48  1  1  0  0  0
 41 46  1  0  0  0  0
 42 38  1  0  0  0  0
 42 41  1  0  0  0  0
 44 40  1  1  0  0  0
 44 39  1  0  0  0  0
 46 43  1  1  0  0  0
 46 45  1  0  0  0  0
 47 48  1  0  0  0  0
 49 30  1  0  0  0  0
 50 49  1  0  0  0  0
 51 52  1  0  0  0  0
 51 53  1  0  0  0  0
 52 53  1  0  0  0  0
 53 50  1  0  0  0  0
M  END
>  <MODEL>
9

>  <REMARK>
 VINA RESULT:      -5.5      2.904      9.735
  Name = 
  12 active torsions:
  status: ('A' for Active; 'I' for Inactive)
    1  A    between atoms: N_1  and  C_29
    2  A    between atoms: C_2  and  C_4
    3  A    between atoms: C_2  and  C_43
    4  A    between atoms: C_3  and  C_25
    5  A    between atoms: O_11  and  C_19
    6  A    between atoms: C_12  and  C_35
    7  A    between atoms: C_13  and  C_50
    8  A    between atoms: C_25  and  C_47
    9  A    between atoms: N_27  and  C_35
   10  A    between atoms: C_29  and  C_52
   11  A    between atoms: C_40  and  C_51
   12  A    between atoms: C_49  and  C_52
                            x       y       z     vdW  Elec       q    Type
                         _______ _______ _______ _____ _____    ______ ____

>  <TORSDO>
F 12

$$$$
