=
 OpenBabel11062412303D

 33 34  0  0  1  0  0  0  0  0999 V2000
  187.2100  178.0540  142.3900 C   0  0  0  0  0  3  0  0  0  0  0  0
  189.3480  176.9170  142.0930 C   0  0  0  0  0  0  0  0  0  0  0  0
  188.4570  178.3760  140.3530 C   0  0  0  0  0  3  0  0  0  0  0  0
  189.4700  177.5310  140.8200 C   0  0  0  0  0  0  0  0  0  0  0  0
  187.3380  178.6450  141.1370 C   0  0  0  0  0  3  0  0  0  0  0  0
  188.1880  177.1790  142.8720 C   0  0  0  0  0  0  0  0  0  0  0  0
  190.6360  177.3140  139.9380 C   0  0  0  0  0  0  0  0  0  0  0  0
  191.7800  177.6470  140.3490 O   0  0  0  0  0  0  0  0  0  0  0  0
  190.4850  174.5970  137.2530 C   0  0  0  0  0  0  0  0  0  0  0  0
  190.7930  173.3840  137.1200 O   0  0  0  0  0  0  0  0  0  0  0  0
  190.2390  177.3740  137.5610 N   0  0  0  0  0  0  0  0  0  0  0  0
  190.5050  176.6660  138.6190 C   0  0  0  0  0  0  0  0  0  0  0  0
  189.8530  175.3480  136.1180 C   0  0  2  0  0  3  0  0  0  0  0  0
  190.6910  175.2510  138.5040 N   0  0  0  0  0  2  0  0  0  0  0  0
  190.0790  176.7840  136.2940 N   0  0  0  0  0  2  0  0  0  0  0  0
  187.8910  174.1560  135.0370 N   0  0  0  0  0  2  0  0  0  0  0  0
  187.5370  175.8400  136.6200 N   0  0  0  0  0  1  0  0  0  0  0  0
  188.3780  175.0610  136.0240 C   0  0  0  0  0  0  0  0  0  0  0  0
  190.4250  176.0070  142.5510 C   0  0  0  0  0  3  0  0  0  0  0  0
  191.3260  176.3580  143.3570 O   0  0  0  0  0  0  0  0  0  0  0  0
  187.9510  176.5530  144.2170 C   0  0  0  0  0  2  0  0  0  0  0  0
  189.1540  178.4700  144.8710 F   0  0  0  0  0  0  0  0  0  0  0  0
  188.5520  177.3390  145.3970 C   0  0  0  0  0  0  0  0  0  0  0  0
  189.5510  176.5960  146.0070 F   0  0  0  0  0  0  0  0  0  0  0  0
  187.5680  179.1500  146.6490 F   0  0  0  0  0  0  0  0  0  0  0  0
  187.4900  177.7730  146.4480 C   0  0  2  0  0  0  0  0  0  0  0  0
  188.1090  177.9520  148.6690 C   0  0  0  0  0  1  0  0  0  0  0  0
  187.6590  177.0750  147.6690 O   0  0  0  0  0  0  0  0  0  0  0  0
  186.0740  177.4520  145.9520 C   0  0  0  0  0  2  0  0  0  0  0  0
  185.0570  178.5260  146.3140 C   0  0  0  0  0  2  0  0  0  0  0  0
  183.0690  178.6230  144.8150 O   0  0  0  0  0  1  0  0  0  0  0  0
  184.9900  179.7540  144.2770 O   0  0  0  0  0  0  0  0  0  0  0  0
  184.3750  179.0110  145.0850 C   0  0  0  0  0  0  0  0  0  0  0  0
  1  6  1  0  0  0  0
  2 19  1  0  0  0  0
  2  6  2  0  0  0  0
  3  4  2  0  0  0  0
  3  5  1  0  0  0  0
  4  2  1  0  0  0  0
  5  1  2  0  0  0  0
  6 21  1  0  0  0  0
  7  8  2  0  0  0  0
  7  4  1  0  0  0  0
  9 14  1  0  0  0  0
 10  9  2  0  0  0  0
 11 12  2  0  0  0  0
 12  7  1  0  0  0  0
 13 18  1  1  0  0  0
 13 15  1  0  0  0  0
 13  9  1  0  0  0  0
 14 12  1  0  0  0  0
 15 11  1  0  0  0  0
 16 18  2  0  0  0  0
 18 17  1  0  0  0  0
 19 20  2  0  0  0  0
 21 23  1  0  0  0  0
 22 23  1  0  0  0  0
 23 24  1  0  0  0  0
 23 26  1  0  0  0  0
 26 25  1  1  0  0  0
 26 28  1  0  0  0  0
 28 27  1  0  0  0  0
 29 30  1  0  0  0  0
 29 26  1  0  0  0  0
 31 33  1  0  0  0  0
 32 33  2  0  0  0  0
 33 30  1  0  0  0  0
M  END
>  <MODEL>
1

>  <REMARK>
 VINA RESULT:      -7.6      0.000      0.000
  Name = 
  11 active torsions:
  status: ('A' for Active; 'I' for Inactive)
    1  A    between atoms: C_5  and  C_25
    2  A    between atoms: C_9  and  C_14
    3  A    between atoms: C_9  and  C_28
    4  A    between atoms: C_11  and  C_19
    5  A    between atoms: C_11  and  C_32
    6  A    between atoms: C_14  and  C_33
    7  A    between atoms: C_15  and  C_22
    8  A    between atoms: C_18  and  C_24
    9  A    between atoms: C_19  and  C_28
   10  A    between atoms: O_21  and  C_28
   11  A    between atoms: C_23  and  C_24
                            x       y       z     vdW  Elec       q    Type
                         _______ _______ _______ _____ _____    ______ ____

>  <TORSDO>
F 11

$$$$
=
 OpenBabel11062412303D

 33 34  0  0  1  0  0  0  0  0999 V2000
  186.3580  178.0040  146.5950 C   0  0  0  0  0  3  0  0  0  0  0  0
  186.4720  177.9920  144.1580 C   0  0  0  0  0  0  0  0  0  0  0  0
  184.5810  179.0090  145.3150 C   0  0  0  0  0  3  0  0  0  0  0  0
  185.2350  178.6870  144.1210 C   0  0  0  0  0  0  0  0  0  0  0  0
  185.1430  178.6800  146.5450 C   0  0  0  0  0  3  0  0  0  0  0  0
  187.0210  177.6380  145.4200 C   0  0  0  0  0  0  0  0  0  0  0  0
  184.5850  179.0920  142.8570 C   0  0  0  0  0  0  0  0  0  0  0  0
  185.2670  179.7000  141.9890 O   0  0  0  0  0  0  0  0  0  0  0  0
  180.8230  178.5870  143.3120 C   0  0  0  0  0  0  0  0  0  0  0  0
  179.9880  178.5070  144.2510 O   0  0  0  0  0  0  0  0  0  0  0  0
  182.8320  178.3710  141.3680 N   0  0  0  0  0  0  0  0  0  0  0  0
  183.1800  178.7530  142.5610 C   0  0  0  0  0  0  0  0  0  0  0  0
  180.3710  178.4810  141.8860 C   0  0  2  0  0  3  0  0  0  0  0  0
  182.1990  178.8290  143.6010 N   0  0  0  0  0  2  0  0  0  0  0  0
  181.4960  178.0680  141.0450 N   0  0  0  0  0  2  0  0  0  0  0  0
  179.6960  180.8950  142.2780 N   0  0  0  0  0  1  0  0  0  0  0  0
  179.1470  179.8140  140.2790 N   0  0  0  0  0  2  0  0  0  0  0  0
  179.8030  179.7850  141.3920 C   0  0  0  0  0  0  0  0  0  0  0  0
  187.1300  177.6420  142.8760 C   0  0  0  0  0  3  0  0  0  0  0  0
  188.0570  178.3270  142.3690 O   0  0  0  0  0  0  0  0  0  0  0  0
  188.3080  176.8750  145.5630 C   0  0  0  0  0  2  0  0  0  0  0  0
  189.3480  178.2340  147.1820 F   0  0  0  0  0  0  0  0  0  0  0  0
  189.5310  177.7490  145.8970 C   0  0  0  0  0  0  0  0  0  0  0  0
  189.5780  178.8470  145.0530 F   0  0  0  0  0  0  0  0  0  0  0  0
  190.6190  175.6000  145.7870 F   0  0  0  0  0  0  0  0  0  0  0  0
  190.8760  176.9690  145.8370 C   0  0  2  0  0  0  0  0  0  0  0  0
  192.0430  176.1180  147.6440 C   0  0  0  0  0  1  0  0  0  0  0  0
  191.7040  177.2870  146.9420 O   0  0  0  0  0  0  0  0  0  0  0  0
  191.6640  177.3440  144.5760 C   0  0  0  0  0  2  0  0  0  0  0  0
  191.8550  176.1730  143.6220 C   0  0  0  0  0  2  0  0  0  0  0  0
  190.9360  177.1150  141.5060 O   0  0  0  0  0  0  0  0  0  0  0  0
  189.8190  175.4520  142.6230 O   0  0  0  0  0  1  0  0  0  0  0  0
  190.8170  176.2150  142.5570 C   0  0  0  0  0  0  0  0  0  0  0  0
  2  6  1  0  0  0  0
  3  5  2  0  0  0  0
  4  2  2  0  0  0  0
  4  3  1  0  0  0  0
  5  1  1  0  0  0  0
  6 21  1  0  0  0  0
  6  1  2  0  0  0  0
  7  4  1  0  0  0  0
  8  7  2  0  0  0  0
  9 14  1  0  0  0  0
  9 10  2  0  0  0  0
 11 12  2  0  0  0  0
 12  7  1  0  0  0  0
 12 14  1  0  0  0  0
 13 18  1  6  0  0  0
 13  9  1  0  0  0  0
 15 11  1  0  0  0  0
 15 13  1  0  0  0  0
 17 18  2  0  0  0  0
 18 16  1  0  0  0  0
 19  2  1  0  0  0  0
 20 19  2  0  0  0  0
 21 23  1  0  0  0  0
 23 22  1  0  0  0  0
 24 23  1  0  0  0  0
 26 25  1  6  0  0  0
 26 23  1  0  0  0  0
 26 28  1  0  0  0  0
 28 27  1  0  0  0  0
 29 26  1  0  0  0  0
 30 29  1  0  0  0  0
 31 33  2  0  0  0  0
 33 32  1  0  0  0  0
 33 30  1  0  0  0  0
M  END
>  <MODEL>
2

>  <REMARK>
 VINA RESULT:      -7.6      4.360      7.468
  Name = 
  11 active torsions:
  status: ('A' for Active; 'I' for Inactive)
    1  A    between atoms: C_5  and  C_25
    2  A    between atoms: C_9  and  C_14
    3  A    between atoms: C_9  and  C_28
    4  A    between atoms: C_11  and  C_19
    5  A    between atoms: C_11  and  C_32
    6  A    between atoms: C_14  and  C_33
    7  A    between atoms: C_15  and  C_22
    8  A    between atoms: C_18  and  C_24
    9  A    between atoms: C_19  and  C_28
   10  A    between atoms: O_21  and  C_28
   11  A    between atoms: C_23  and  C_24
                            x       y       z     vdW  Elec       q    Type
                         _______ _______ _______ _____ _____    ______ ____

>  <TORSDO>
F 11

$$$$
=
 OpenBabel11062412303D

 33 34  0  0  1  0  0  0  0  0999 V2000
  190.9390  176.7350  142.9240 C   0  0  0  0  0  3  0  0  0  0  0  0
  188.9750  177.3610  141.6180 C   0  0  0  0  0  0  0  0  0  0  0  0
  191.2110  177.4890  140.6520 C   0  0  0  0  0  3  0  0  0  0  0  0
  189.8270  177.6480  140.5200 C   0  0  0  0  0  0  0  0  0  0  0  0
  191.7640  177.0260  141.8420 C   0  0  0  0  0  3  0  0  0  0  0  0
  189.5550  176.9150  142.8370 C   0  0  0  0  0  0  0  0  0  0  0  0
  189.3160  178.1210  139.2170 C   0  0  0  0  0  0  0  0  0  0  0  0
  189.0740  179.3490  139.0670 O   0  0  0  0  0  0  0  0  0  0  0  0
  190.0660  176.1260  136.0440 C   0  0  0  0  0  0  0  0  0  0  0  0
  190.9200  176.1100  135.1180 O   0  0  0  0  0  0  0  0  0  0  0  0
  188.0290  176.5450  137.9250 N   0  0  0  0  0  0  0  0  0  0  0  0
  189.1380  177.2080  138.0720 C   0  0  0  0  0  0  0  0  0  0  0  0
  188.9490  175.1250  136.0620 C   0  0  2  0  0  3  0  0  0  0  0  0
  190.1880  177.0670  137.1090 N   0  0  0  0  0  2  0  0  0  0  0  0
  187.8380  175.6440  136.8610 N   0  0  0  0  0  2  0  0  0  0  0  0
  188.5550  172.6610  136.5250 N   0  0  0  0  0  2  0  0  0  0  0  0
  190.4250  173.7560  137.4050 N   0  0  0  0  0  1  0  0  0  0  0  0
  189.4090  173.7990  136.6090 C   0  0  0  0  0  0  0  0  0  0  0  0
  187.5150  177.5620  141.4580 C   0  0  0  0  0  3  0  0  0  0  0  0
  186.9370  178.6500  141.7200 O   0  0  0  0  0  0  0  0  0  0  0  0
  188.7420  176.6160  144.0650 C   0  0  0  0  0  2  0  0  0  0  0  0
  189.5480  178.6970  144.8180 F   0  0  0  0  0  0  0  0  0  0  0  0
  189.1070  177.4730  145.2920 C   0  0  0  0  0  0  0  0  0  0  0  0
  190.1650  176.8990  145.9780 F   0  0  0  0  0  0  0  0  0  0  0  0
  187.8030  179.0630  146.5520 F   0  0  0  0  0  0  0  0  0  0  0  0
  187.9060  177.7050  146.2540 C   0  0  2  0  0  0  0  0  0  0  0  0
  188.2250  177.7840  148.5430 C   0  0  0  0  0  1  0  0  0  0  0  0
  188.0400  176.9380  147.4370 O   0  0  0  0  0  0  0  0  0  0  0  0
  186.5910  177.2690  145.5950 C   0  0  0  0  0  2  0  0  0  0  0  0
  185.7930  178.4350  145.0280 C   0  0  0  0  0  2  0  0  0  0  0  0
  184.7340  178.5270  147.2820 O   0  0  0  0  0  1  0  0  0  0  0  0
  183.5530  179.1400  145.4140 O   0  0  0  0  0  0  0  0  0  0  0  0
  184.6330  178.7300  145.9120 C   0  0  0  0  0  0  0  0  0  0  0  0
  2  6  2  0  0  0  0
  3  5  1  0  0  0  0
  4  3  2  0  0  0  0
  4  2  1  0  0  0  0
  5  1  2  0  0  0  0
  6  1  1  0  0  0  0
  6 21  1  0  0  0  0
  7  4  1  0  0  0  0
  8  7  2  0  0  0  0
  9 13  1  0  0  0  0
  9 14  1  0  0  0  0
 10  9  2  0  0  0  0
 11 12  2  0  0  0  0
 12  7  1  0  0  0  0
 13 18  1  1  0  0  0
 13 15  1  0  0  0  0
 14 12  1  0  0  0  0
 15 11  1  0  0  0  0
 16 18  2  0  0  0  0
 18 17  1  0  0  0  0
 19  2  1  0  0  0  0
 19 20  2  0  0  0  0
 21 23  1  0  0  0  0
 22 23  1  0  0  0  0
 23 24  1  0  0  0  0
 23 26  1  0  0  0  0
 26 25  1  1  0  0  0
 26 28  1  0  0  0  0
 28 27  1  0  0  0  0
 29 26  1  0  0  0  0
 30 29  1  0  0  0  0
 30 33  1  0  0  0  0
 32 33  2  0  0  0  0
 33 31  1  0  0  0  0
M  END
>  <MODEL>
3

>  <REMARK>
 VINA RESULT:      -7.4      1.590      2.335
  Name = 
  11 active torsions:
  status: ('A' for Active; 'I' for Inactive)
    1  A    between atoms: C_5  and  C_25
    2  A    between atoms: C_9  and  C_14
    3  A    between atoms: C_9  and  C_28
    4  A    between atoms: C_11  and  C_19
    5  A    between atoms: C_11  and  C_32
    6  A    between atoms: C_14  and  C_33
    7  A    between atoms: C_15  and  C_22
    8  A    between atoms: C_18  and  C_24
    9  A    between atoms: C_19  and  C_28
   10  A    between atoms: O_21  and  C_28
   11  A    between atoms: C_23  and  C_24
                            x       y       z     vdW  Elec       q    Type
                         _______ _______ _______ _____ _____    ______ ____

>  <TORSDO>
F 11

$$$$
=
 OpenBabel11062412303D

 33 34  0  0  1  0  0  0  0  0999 V2000
  187.6310  177.7200  142.7870 C   0  0  0  0  0  3  0  0  0  0  0  0
  189.0180  177.3460  140.8140 C   0  0  0  0  0  0  0  0  0  0  0  0
  186.9480  178.6270  140.6610 C   0  0  0  0  0  3  0  0  0  0  0  0
  188.0890  178.0970  140.0490 C   0  0  0  0  0  0  0  0  0  0  0  0
  186.7240  178.4500  142.0240 C   0  0  0  0  0  3  0  0  0  0  0  0
  188.7640  177.1490  142.1990 C   0  0  0  0  0  0  0  0  0  0  0  0
  188.2660  178.3500  138.6040 C   0  0  0  0  0  0  0  0  0  0  0  0
  189.0490  179.2670  138.2370 O   0  0  0  0  0  0  0  0  0  0  0  0
  186.9130  175.2830  136.7660 C   0  0  0  0  0  0  0  0  0  0  0  0
  187.0590  174.0320  136.7820 O   0  0  0  0  0  0  0  0  0  0  0  0
  187.0030  178.0790  136.5680 N   0  0  0  0  0  0  0  0  0  0  0  0
  187.5980  177.5220  137.5810 C   0  0  0  0  0  0  0  0  0  0  0  0
  185.9540  175.9220  135.8060 C   0  0  2  0  0  3  0  0  0  0  0  0
  187.6240  176.0950  137.6990 N   0  0  0  0  0  2  0  0  0  0  0  0
  186.3330  177.3190  135.5910 N   0  0  0  0  0  2  0  0  0  0  0  0
  183.4510  175.9130  135.3870 N   0  0  0  0  0  2  0  0  0  0  0  0
  184.2950  175.9970  137.5660 N   0  0  0  0  0  1  0  0  0  0  0  0
  184.5370  175.8370  136.3070 C   0  0  0  0  0  0  0  0  0  0  0  0
  190.2050  176.7760  140.1330 C   0  0  0  0  0  3  0  0  0  0  0  0
  191.2960  177.3950  140.0180 O   0  0  0  0  0  0  0  0  0  0  0  0
  189.6700  176.3430  143.0870 C   0  0  0  0  0  2  0  0  0  0  0  0
  191.0350  178.2490  142.8590 F   0  0  0  0  0  0  0  0  0  0  0  0
  190.8640  177.1300  143.6570 C   0  0  0  0  0  0  0  0  0  0  0  0
  192.0240  176.3790  143.5550 F   0  0  0  0  0  0  0  0  0  0  0  0
  190.2210  178.9140  145.1480 F   0  0  0  0  0  0  0  0  0  0  0  0
  190.6490  177.5880  145.1300 C   0  0  2  0  0  0  0  0  0  0  0  0
  191.7970  176.2020  146.5820 C   0  0  0  0  0  1  0  0  0  0  0  0
  191.8300  177.4270  145.8950 O   0  0  0  0  0  0  0  0  0  0  0  0
  189.5670  176.7370  145.8080 C   0  0  0  0  0  2  0  0  0  0  0  0
  188.4110  177.5660  146.3520 C   0  0  0  0  0  2  0  0  0  0  0  0
  189.6370  178.2970  148.3940 O   0  0  0  0  0  0  0  0  0  0  0  0
  187.6270  177.2070  148.5700 O   0  0  0  0  0  1  0  0  0  0  0  0
  188.5260  177.6840  147.8300 C   0  0  0  0  0  0  0  0  0  0  0  0
  2  6  2  0  0  0  0
  3  5  1  0  0  0  0
  4  3  2  0  0  0  0
  4  2  1  0  0  0  0
  5  1  2  0  0  0  0
  6  1  1  0  0  0  0
  6 21  1  0  0  0  0
  7  4  1  0  0  0  0
  8  7  2  0  0  0  0
  9 10  2  0  0  0  0
  9 14  1  0  0  0  0
 11 12  2  0  0  0  0
 12 14  1  0  0  0  0
 12  7  1  0  0  0  0
 13 18  1  1  0  0  0
 13  9  1  0  0  0  0
 15 13  1  0  0  0  0
 15 11  1  0  0  0  0
 16 18  2  0  0  0  0
 18 17  1  0  0  0  0
 19  2  1  0  0  0  0
 20 19  2  0  0  0  0
 21 23  1  0  0  0  0
 22 23  1  0  0  0  0
 23 26  1  0  0  0  0
 24 23  1  0  0  0  0
 26 25  1  1  0  0  0
 26 29  1  0  0  0  0
 26 28  1  0  0  0  0
 28 27  1  0  0  0  0
 29 30  1  0  0  0  0
 30 33  1  0  0  0  0
 33 31  2  0  0  0  0
 33 32  1  0  0  0  0
M  END
>  <MODEL>
4

>  <REMARK>
 VINA RESULT:      -7.3      2.582      3.598
  Name = 
  11 active torsions:
  status: ('A' for Active; 'I' for Inactive)
    1  A    between atoms: C_5  and  C_25
    2  A    between atoms: C_9  and  C_14
    3  A    between atoms: C_9  and  C_28
    4  A    between atoms: C_11  and  C_19
    5  A    between atoms: C_11  and  C_32
    6  A    between atoms: C_14  and  C_33
    7  A    between atoms: C_15  and  C_22
    8  A    between atoms: C_18  and  C_24
    9  A    between atoms: C_19  and  C_28
   10  A    between atoms: O_21  and  C_28
   11  A    between atoms: C_23  and  C_24
                            x       y       z     vdW  Elec       q    Type
                         _______ _______ _______ _____ _____    ______ ____

>  <TORSDO>
F 11

$$$$
=
 OpenBabel11062412303D

 33 34  0  0  1  0  0  0  0  0999 V2000
  185.8140  178.3230  146.2230 C   0  0  0  0  0  3  0  0  0  0  0  0
  186.9860  177.6930  144.1780 C   0  0  0  0  0  0  0  0  0  0  0  0
  185.0020  179.1090  144.0950 C   0  0  0  0  0  3  0  0  0  0  0  0
  186.0430  178.4490  143.4340 C   0  0  0  0  0  0  0  0  0  0  0  0
  184.8930  179.0560  145.4810 C   0  0  0  0  0  3  0  0  0  0  0  0
  186.8480  177.6250  145.5910 C   0  0  0  0  0  0  0  0  0  0  0  0
  186.1030  178.5720  141.9630 C   0  0  0  0  0  0  0  0  0  0  0  0
  187.2310  178.6080  141.4000 O   0  0  0  0  0  0  0  0  0  0  0  0
  183.5280  179.6850  139.3660 C   0  0  0  0  0  0  0  0  0  0  0  0
  183.2520  180.7100  138.6890 O   0  0  0  0  0  0  0  0  0  0  0  0
  184.0070  177.6400  141.2240 N   0  0  0  0  0  0  0  0  0  0  0  0
  184.8840  178.5960  141.1330 C   0  0  0  0  0  0  0  0  0  0  0  0
  182.7050  178.4390  139.2240 C   0  0  2  0  0  3  0  0  0  0  0  0
  184.6590  179.6880  140.2360 N   0  0  0  0  0  2  0  0  0  0  0  0
  182.8470  177.6170  140.4270 N   0  0  0  0  0  2  0  0  0  0  0  0
  184.4670  177.2720  137.8200 N   0  0  0  0  0  1  0  0  0  0  0  0
  182.3000  177.5800  136.9980 N   0  0  0  0  0  2  0  0  0  0  0  0
  183.1070  177.6520  138.0050 C   0  0  0  0  0  0  0  0  0  0  0  0
  188.0650  176.9840  143.4480 C   0  0  0  0  0  3  0  0  0  0  0  0
  188.0390  175.7470  143.2130 O   0  0  0  0  0  0  0  0  0  0  0  0
  187.7750  176.8270  146.4630 C   0  0  0  0  0  2  0  0  0  0  0  0
  188.8750  177.9540  148.2150 F   0  0  0  0  0  0  0  0  0  0  0  0
  189.0480  177.5790  146.8920 C   0  0  0  0  0  0  0  0  0  0  0  0
  189.1860  178.7450  146.1560 F   0  0  0  0  0  0  0  0  0  0  0  0
  190.0780  175.4250  147.2330 F   0  0  0  0  0  0  0  0  0  0  0  0
  190.3380  176.7160  146.7760 C   0  0  2  0  0  0  0  0  0  0  0  0
  192.2230  176.2950  148.0480 C   0  0  0  0  0  1  0  0  0  0  0  0
  191.4130  177.2990  147.4910 O   0  0  0  0  0  0  0  0  0  0  0  0
  190.7900  176.6130  145.3130 C   0  0  0  0  0  2  0  0  0  0  0  0
  191.8380  177.6510  144.9380 C   0  0  0  0  0  2  0  0  0  0  0  0
  191.4290  177.8300  142.4870 O   0  0  0  0  0  0  0  0  0  0  0  0
  190.9910  179.6030  143.8740 O   0  0  0  0  0  1  0  0  0  0  0  0
  191.3880  178.4160  143.7460 C   0  0  0  0  0  0  0  0  0  0  0  0
  2  6  2  0  0  0  0
  3  5  1  0  0  0  0
  4  3  2  0  0  0  0
  4  2  1  0  0  0  0
  5  1  2  0  0  0  0
  6  1  1  0  0  0  0
  6 21  1  0  0  0  0
  7  4  1  0  0  0  0
  8  7  2  0  0  0  0
  9 14  1  0  0  0  0
 10  9  2  0  0  0  0
 12 11  2  0  0  0  0
 12  7  1  0  0  0  0
 13 18  1  6  0  0  0
 13  9  1  0  0  0  0
 13 15  1  0  0  0  0
 14 12  1  0  0  0  0
 15 11  1  0  0  0  0
 16 18  1  0  0  0  0
 17 18  2  0  0  0  0
 19  2  1  0  0  0  0
 20 19  2  0  0  0  0
 21 23  1  0  0  0  0
 23 22  1  0  0  0  0
 24 23  1  0  0  0  0
 26 23  1  0  0  0  0
 26 25  1  1  0  0  0
 26 28  1  0  0  0  0
 28 27  1  0  0  0  0
 29 26  1  0  0  0  0
 30 29  1  0  0  0  0
 31 33  2  0  0  0  0
 33 32  1  0  0  0  0
 33 30  1  0  0  0  0
M  END
>  <MODEL>
5

>  <REMARK>
 VINA RESULT:      -7.3      3.915      5.726
  Name = 
  11 active torsions:
  status: ('A' for Active; 'I' for Inactive)
    1  A    between atoms: C_5  and  C_25
    2  A    between atoms: C_9  and  C_14
    3  A    between atoms: C_9  and  C_28
    4  A    between atoms: C_11  and  C_19
    5  A    between atoms: C_11  and  C_32
    6  A    between atoms: C_14  and  C_33
    7  A    between atoms: C_15  and  C_22
    8  A    between atoms: C_18  and  C_24
    9  A    between atoms: C_19  and  C_28
   10  A    between atoms: O_21  and  C_28
   11  A    between atoms: C_23  and  C_24
                            x       y       z     vdW  Elec       q    Type
                         _______ _______ _______ _____ _____    ______ ____

>  <TORSDO>
F 11

$$$$
=
 OpenBabel11062412303D

 33 34  0  0  1  0  0  0  0  0999 V2000
  186.7880  178.7010  141.9830 C   0  0  0  0  0  3  0  0  0  0  0  0
  188.2140  178.1570  140.0800 C   0  0  0  0  0  0  0  0  0  0  0  0
  185.8360  178.5980  139.7720 C   0  0  0  0  0  3  0  0  0  0  0  0
  187.0860  178.2830  139.2290 C   0  0  0  0  0  0  0  0  0  0  0  0
  185.6880  178.8160  141.1390 C   0  0  0  0  0  3  0  0  0  0  0  0
  188.0450  178.3560  141.4780 C   0  0  0  0  0  0  0  0  0  0  0  0
  187.1650  178.0900  137.7660 C   0  0  0  0  0  0  0  0  0  0  0  0
  187.6770  178.9980  137.0580 O   0  0  0  0  0  0  0  0  0  0  0  0
  187.0280  174.4150  136.7230 C   0  0  0  0  0  0  0  0  0  0  0  0
  187.7790  173.4040  136.7250 O   0  0  0  0  0  0  0  0  0  0  0  0
  185.6290  176.8250  136.4050 N   0  0  0  0  0  0  0  0  0  0  0  0
  186.7150  176.8420  137.1210 C   0  0  0  0  0  0  0  0  0  0  0  0
  185.6270  174.3160  136.1970 C   0  0  2  0  0  3  0  0  0  0  0  0
  187.4910  175.6480  137.2700 N   0  0  0  0  0  2  0  0  0  0  0  0
  185.1570  175.6450  135.8000 N   0  0  0  0  0  2  0  0  0  0  0  0
  184.5400  172.3050  137.2990 N   0  0  0  0  0  2  0  0  0  0  0  0
  183.8310  174.4730  137.8110 N   0  0  0  0  0  1  0  0  0  0  0  0
  184.6970  173.7190  137.2200 C   0  0  0  0  0  0  0  0  0  0  0  0
  189.5220  177.7980  139.4800 C   0  0  0  0  0  3  0  0  0  0  0  0
  189.9880  176.6290  139.4940 O   0  0  0  0  0  0  0  0  0  0  0  0
  189.1700  178.2130  142.4640 C   0  0  0  0  0  2  0  0  0  0  0  0
  190.1910  176.1860  143.0930 F   0  0  0  0  0  0  0  0  0  0  0  0
  189.0750  176.9630  143.3580 C   0  0  0  0  0  0  0  0  0  0  0  0
  187.9650  176.2100  143.0110 F   0  0  0  0  0  0  0  0  0  0  0  0
  189.3230  178.6520  145.0620 F   0  0  0  0  0  0  0  0  0  0  0  0
  189.0410  177.2990  144.8780 C   0  0  2  0  0  0  0  0  0  0  0  0
  189.8460  176.7610  146.9780 C   0  0  0  0  0  1  0  0  0  0  0  0
  189.9500  176.4900  145.6030 O   0  0  0  0  0  0  0  0  0  0  0  0
  187.6490  177.0270  145.4620 C   0  0  0  0  0  2  0  0  0  0  0  0
  186.7520  178.2570  145.4630 C   0  0  0  0  0  2  0  0  0  0  0  0
  184.7800  178.5960  146.9490 O   0  0  0  0  0  0  0  0  0  0  0  0
  186.8960  178.4920  147.8260 O   0  0  0  0  0  1  0  0  0  0  0  0
  186.1540  178.4450  146.8120 C   0  0  0  0  0  0  0  0  0  0  0  0
  2  6  2  0  0  0  0
  3  5  1  0  0  0  0
  4  3  2  0  0  0  0
  4  2  1  0  0  0  0
  5  1  2  0  0  0  0
  6  1  1  0  0  0  0
  6 21  1  0  0  0  0
  7  4  1  0  0  0  0
  8  7  2  0  0  0  0
  9 10  2  0  0  0  0
  9 14  1  0  0  0  0
 11 12  2  0  0  0  0
 12 14  1  0  0  0  0
 12  7  1  0  0  0  0
 13  9  1  0  0  0  0
 13 18  1  1  0  0  0
 15 13  1  0  0  0  0
 15 11  1  0  0  0  0
 18 16  2  0  0  0  0
 18 17  1  0  0  0  0
 19 20  2  0  0  0  0
 19  2  1  0  0  0  0
 21 23  1  0  0  0  0
 22 23  1  0  0  0  0
 23 26  1  0  0  0  0
 24 23  1  0  0  0  0
 26 25  1  1  0  0  0
 26 29  1  0  0  0  0
 26 28  1  0  0  0  0
 28 27  1  0  0  0  0
 29 30  1  0  0  0  0
 30 33  1  0  0  0  0
 33 31  2  0  0  0  0
 33 32  1  0  0  0  0
M  END
>  <MODEL>
6

>  <REMARK>
 VINA RESULT:      -7.1      2.440      3.382
  Name = 
  11 active torsions:
  status: ('A' for Active; 'I' for Inactive)
    1  A    between atoms: C_5  and  C_25
    2  A    between atoms: C_9  and  C_14
    3  A    between atoms: C_9  and  C_28
    4  A    between atoms: C_11  and  C_19
    5  A    between atoms: C_11  and  C_32
    6  A    between atoms: C_14  and  C_33
    7  A    between atoms: C_15  and  C_22
    8  A    between atoms: C_18  and  C_24
    9  A    between atoms: C_19  and  C_28
   10  A    between atoms: O_21  and  C_28
   11  A    between atoms: C_23  and  C_24
                            x       y       z     vdW  Elec       q    Type
                         _______ _______ _______ _____ _____    ______ ____

>  <TORSDO>
F 11

$$$$
=
 OpenBabel11062412303D

 33 34  0  0  1  0  0  0  0  0999 V2000
  190.8940  177.0530  141.4810 C   0  0  0  0  0  3  0  0  0  0  0  0
  188.9160  178.2210  140.6590 C   0  0  0  0  0  0  0  0  0  0  0  0
  190.4920  177.1900  139.1090 C   0  0  0  0  0  3  0  0  0  0  0  0
  189.3110  177.9070  139.3330 C   0  0  0  0  0  0  0  0  0  0  0  0
  191.2740  176.7560  140.1750 C   0  0  0  0  0  3  0  0  0  0  0  0
  189.7380  177.7950  141.7380 C   0  0  0  0  0  0  0  0  0  0  0  0
  188.5250  178.3110  138.1490 C   0  0  0  0  0  0  0  0  0  0  0  0
  188.7250  179.4490  137.6440 O   0  0  0  0  0  0  0  0  0  0  0  0
  186.7050  175.0980  137.1610 C   0  0  0  0  0  0  0  0  0  0  0  0
  186.8950  173.8540  137.2040 O   0  0  0  0  0  0  0  0  0  0  0  0
  186.6060  177.8720  136.7580 N   0  0  0  0  0  0  0  0  0  0  0  0
  187.5570  177.4000  137.5090 C   0  0  0  0  0  0  0  0  0  0  0  0
  185.4330  175.6510  136.5890 C   0  0  2  0  0  3  0  0  0  0  0  0
  187.6800  175.9870  137.7030 N   0  0  0  0  0  2  0  0  0  0  0  0
  185.6500  177.0320  136.1560 N   0  0  0  0  0  2  0  0  0  0  0  0
  183.6050  174.3670  137.7950 N   0  0  0  0  0  2  0  0  0  0  0  0
  183.7910  176.6850  138.0360 N   0  0  0  0  0  1  0  0  0  0  0  0
  184.3090  175.5890  137.5900 C   0  0  0  0  0  0  0  0  0  0  0  0
  187.6730  179.0030  140.8640 C   0  0  0  0  0  3  0  0  0  0  0  0
  186.5670  178.4740  141.1520 O   0  0  0  0  0  0  0  0  0  0  0  0
  189.4220  178.1060  143.1740 C   0  0  0  0  0  2  0  0  0  0  0  0
  189.8930  176.0460  144.2160 F   0  0  0  0  0  0  0  0  0  0  0  0
  188.8460  176.9190  143.9680 C   0  0  0  0  0  0  0  0  0  0  0  0
  187.9200  176.2330  143.1980 F   0  0  0  0  0  0  0  0  0  0  0  0
  188.4410  178.6970  145.5450 F   0  0  0  0  0  0  0  0  0  0  0  0
  188.2080  177.3410  145.3230 C   0  0  2  0  0  0  0  0  0  0  0  0
  188.5160  177.2300  147.6130 C   0  0  0  0  0  1  0  0  0  0  0  0
  188.7100  176.5600  146.3930 O   0  0  0  0  0  0  0  0  0  0  0  0
  186.6890  177.1250  145.2970 C   0  0  0  0  0  2  0  0  0  0  0  0
  185.9260  178.3220  144.7470 C   0  0  0  0  0  2  0  0  0  0  0  0
  185.6800  179.3740  146.9920 O   0  0  0  0  0  1  0  0  0  0  0  0
  183.8420  179.0030  145.6720 O   0  0  0  0  0  0  0  0  0  0  0  0
  185.0890  178.9230  145.8190 C   0  0  0  0  0  0  0  0  0  0  0  0
  1  6  1  0  0  0  0
  2 19  1  0  0  0  0
  2  6  2  0  0  0  0
  3  4  2  0  0  0  0
  3  5  1  0  0  0  0
  4  2  1  0  0  0  0
  5  1  2  0  0  0  0
  6 21  1  0  0  0  0
  7  4  1  0  0  0  0
  8  7  2  0  0  0  0
  9 10  2  0  0  0  0
  9 14  1  0  0  0  0
 11 12  2  0  0  0  0
 12 14  1  0  0  0  0
 12  7  1  0  0  0  0
 13  9  1  0  0  0  0
 13 18  1  1  0  0  0
 15 13  1  0  0  0  0
 15 11  1  0  0  0  0
 18 16  2  0  0  0  0
 18 17  1  0  0  0  0
 19 20  2  0  0  0  0
 21 23  1  0  0  0  0
 23 22  1  0  0  0  0
 23 26  1  0  0  0  0
 24 23  1  0  0  0  0
 26 25  1  1  0  0  0
 26 28  1  0  0  0  0
 28 27  1  0  0  0  0
 29 26  1  0  0  0  0
 30 29  1  0  0  0  0
 30 33  1  0  0  0  0
 32 33  2  0  0  0  0
 33 31  1  0  0  0  0
M  END
>  <MODEL>
7

>  <REMARK>
 VINA RESULT:      -7.1      2.368      3.279
  Name = 
  11 active torsions:
  status: ('A' for Active; 'I' for Inactive)
    1  A    between atoms: C_5  and  C_25
    2  A    between atoms: C_9  and  C_14
    3  A    between atoms: C_9  and  C_28
    4  A    between atoms: C_11  and  C_19
    5  A    between atoms: C_11  and  C_32
    6  A    between atoms: C_14  and  C_33
    7  A    between atoms: C_15  and  C_22
    8  A    between atoms: C_18  and  C_24
    9  A    between atoms: C_19  and  C_28
   10  A    between atoms: O_21  and  C_28
   11  A    between atoms: C_23  and  C_24
                            x       y       z     vdW  Elec       q    Type
                         _______ _______ _______ _____ _____    ______ ____

>  <TORSDO>
F 11

$$$$
=
 OpenBabel11062412303D

 33 34  0  0  1  0  0  0  0  0999 V2000
  186.6300  177.8030  145.2470 C   0  0  0  0  0  3  0  0  0  0  0  0
  186.7060  177.8990  142.8100 C   0  0  0  0  0  0  0  0  0  0  0  0
  184.7580  178.7100  144.0310 C   0  0  0  0  0  3  0  0  0  0  0  0
  185.4170  178.4910  142.8170 C   0  0  0  0  0  0  0  0  0  0  0  0
  185.3630  178.3790  145.2400 C   0  0  0  0  0  3  0  0  0  0  0  0
  187.3030  177.5410  144.0490 C   0  0  0  0  0  0  0  0  0  0  0  0
  184.7160  178.8920  141.5790 C   0  0  0  0  0  0  0  0  0  0  0  0
  185.2500  179.7530  140.8290 O   0  0  0  0  0  0  0  0  0  0  0  0
  180.9710  178.1610  141.3410 C   0  0  0  0  0  0  0  0  0  0  0  0
  179.9170  178.4180  141.9800 O   0  0  0  0  0  0  0  0  0  0  0  0
  183.4270  177.3340  140.2680 N   0  0  0  0  0  0  0  0  0  0  0  0
  183.4420  178.2700  141.1700 C   0  0  0  0  0  0  0  0  0  0  0  0
  180.9160  177.3440  140.0840 C   0  0  2  0  0  3  0  0  0  0  0  0
  182.2200  178.6910  141.7840 N   0  0  0  0  0  2  0  0  0  0  0  0
  182.2260  176.7410  139.8340 N   0  0  0  0  0  2  0  0  0  0  0  0
  179.9420  177.5520  137.7500 N   0  0  0  0  0  2  0  0  0  0  0  0
  180.8960  179.4030  138.8130 N   0  0  0  0  0  1  0  0  0  0  0  0
  180.4930  178.1790  138.9050 C   0  0  0  0  0  0  0  0  0  0  0  0
  187.3710  177.6570  141.5060 C   0  0  0  0  0  3  0  0  0  0  0  0
  188.0870  178.5160  140.9290 O   0  0  0  0  0  0  0  0  0  0  0  0
  188.6500  176.8810  144.1450 C   0  0  0  0  0  2  0  0  0  0  0  0
  189.4680  178.8700  145.1040 F   0  0  0  0  0  0  0  0  0  0  0  0
  189.8330  177.8630  144.2270 C   0  0  0  0  0  0  0  0  0  0  0  0
  190.0470  178.4570  142.9940 F   0  0  0  0  0  0  0  0  0  0  0  0
  192.0570  178.1870  145.1030 F   0  0  0  0  0  0  0  0  0  0  0  0
  191.1450  177.1980  144.7370 C   0  0  2  0  0  0  0  0  0  0  0  0
  192.0550  175.1100  144.3420 C   0  0  0  0  0  1  0  0  0  0  0  0
  191.6990  176.3370  143.7590 O   0  0  0  0  0  0  0  0  0  0  0  0
  190.8690  176.3350  145.9750 C   0  0  0  0  0  2  0  0  0  0  0  0
  190.9080  177.1270  147.2750 C   0  0  0  0  0  2  0  0  0  0  0  0
  189.1790  178.4690  148.4670 O   0  0  0  0  0  1  0  0  0  0  0  0
  188.6840  176.3770  147.6680 O   0  0  0  0  0  0  0  0  0  0  0  0
  189.5280  177.3000  147.8020 C   0  0  0  0  0  0  0  0  0  0  0  0
  2  4  2  0  0  0  0
  2  6  1  0  0  0  0
  3  5  2  0  0  0  0
  4  3  1  0  0  0  0
  5  1  1  0  0  0  0
  6 21  1  0  0  0  0
  6  1  2  0  0  0  0
  7  4  1  0  0  0  0
  8  7  2  0  0  0  0
  9 14  1  0  0  0  0
  9 10  2  0  0  0  0
 11 12  2  0  0  0  0
 12  7  1  0  0  0  0
 12 14  1  0  0  0  0
 13 18  1  6  0  0  0
 13  9  1  0  0  0  0
 15 13  1  0  0  0  0
 15 11  1  0  0  0  0
 16 18  2  0  0  0  0
 17 18  1  0  0  0  0
 19  2  1  0  0  0  0
 20 19  2  0  0  0  0
 21 23  1  0  0  0  0
 23 26  1  0  0  0  0
 23 22  1  0  0  0  0
 24 23  1  0  0  0  0
 26 25  1  1  0  0  0
 26 29  1  0  0  0  0
 28 27  1  0  0  0  0
 28 26  1  0  0  0  0
 29 30  1  0  0  0  0
 30 33  1  0  0  0  0
 32 33  2  0  0  0  0
 33 31  1  0  0  0  0
M  END
>  <MODEL>
8

>  <REMARK>
 VINA RESULT:      -7.0      4.088      6.558
  Name = 
  11 active torsions:
  status: ('A' for Active; 'I' for Inactive)
    1  A    between atoms: C_5  and  C_25
    2  A    between atoms: C_9  and  C_14
    3  A    between atoms: C_9  and  C_28
    4  A    between atoms: C_11  and  C_19
    5  A    between atoms: C_11  and  C_32
    6  A    between atoms: C_14  and  C_33
    7  A    between atoms: C_15  and  C_22
    8  A    between atoms: C_18  and  C_24
    9  A    between atoms: C_19  and  C_28
   10  A    between atoms: O_21  and  C_28
   11  A    between atoms: C_23  and  C_24
                            x       y       z     vdW  Elec       q    Type
                         _______ _______ _______ _____ _____    ______ ____

>  <TORSDO>
F 11

$$$$
=
 OpenBabel11062412303D

 33 34  0  0  1  0  0  0  0  0999 V2000
  187.2490  178.0930  142.4700 C   0  0  0  0  0  3  0  0  0  0  0  0
  189.4200  177.0160  142.1820 C   0  0  0  0  0  0  0  0  0  0  0  0
  188.3970  178.2710  140.3590 C   0  0  0  0  0  3  0  0  0  0  0  0
  189.4630  177.5120  140.8540 C   0  0  0  0  0  0  0  0  0  0  0  0
  187.3010  178.5690  141.1640 C   0  0  0  0  0  3  0  0  0  0  0  0
  188.2830  177.3040  142.9850 C   0  0  0  0  0  0  0  0  0  0  0  0
  190.5990  177.2590  139.9440 C   0  0  0  0  0  0  0  0  0  0  0  0
  191.7680  177.5090  140.3450 O   0  0  0  0  0  0  0  0  0  0  0  0
  190.3030  174.6590  137.1570 C   0  0  0  0  0  0  0  0  0  0  0  0
  190.5860  173.4470  136.9630 O   0  0  0  0  0  0  0  0  0  0  0  0
  190.1150  177.4240  137.5880 N   0  0  0  0  0  0  0  0  0  0  0  0
  190.4090  176.6690  138.6050 C   0  0  0  0  0  0  0  0  0  0  0  0
  189.6420  175.4650  136.0790 C   0  0  2  0  0  3  0  0  0  0  0  0
  190.5670  175.2570  138.4250 N   0  0  0  0  0  2  0  0  0  0  0  0
  189.8990  176.8890  136.3040 N   0  0  0  0  0  2  0  0  0  0  0  0
  187.6770  173.8820  135.8080 N   0  0  0  0  0  2  0  0  0  0  0  0
  187.3430  176.1950  135.8880 N   0  0  0  0  0  1  0  0  0  0  0  0
  188.1600  175.2050  136.0290 C   0  0  0  0  0  0  0  0  0  0  0  0
  190.5530  176.1940  142.6710 C   0  0  0  0  0  3  0  0  0  0  0  0
  190.4350  174.9820  142.9940 O   0  0  0  0  0  0  0  0  0  0  0  0
  188.1290  176.7980  144.3920 C   0  0  0  0  0  2  0  0  0  0  0  0
  187.1570  178.6830  145.4160 F   0  0  0  0  0  0  0  0  0  0  0  0
  188.2840  177.8800  145.4760 C   0  0  0  0  0  0  0  0  0  0  0  0
  189.3730  178.6880  145.1930 F   0  0  0  0  0  0  0  0  0  0  0  0
  187.1880  176.7530  147.3050 F   0  0  0  0  0  0  0  0  0  0  0  0
  188.4120  177.2930  146.9120 C   0  0  2  0  0  0  0  0  0  0  0  0
  188.0470  178.2500  148.9860 C   0  0  0  0  0  1  0  0  0  0  0  0
  188.8490  178.2770  147.8320 O   0  0  0  0  0  0  0  0  0  0  0  0
  189.4540  176.1670  146.9460 C   0  0  0  0  0  2  0  0  0  0  0  0
  190.8410  176.6510  147.3450 C   0  0  0  0  0  2  0  0  0  0  0  0
  192.0500  177.4950  145.3360 O   0  0  0  0  0  0  0  0  0  0  0  0
  192.3360  175.3320  146.0450 O   0  0  0  0  0  1  0  0  0  0  0  0
  191.7890  176.4520  146.2160 C   0  0  0  0  0  0  0  0  0  0  0  0
  1  6  1  0  0  0  0
  2 19  1  0  0  0  0
  2  6  2  0  0  0  0
  3  4  2  0  0  0  0
  3  5  1  0  0  0  0
  4  2  1  0  0  0  0
  5  1  2  0  0  0  0
  6 21  1  0  0  0  0
  7  8  2  0  0  0  0
  7  4  1  0  0  0  0
  9 14  1  0  0  0  0
 10  9  2  0  0  0  0
 11 12  2  0  0  0  0
 12  7  1  0  0  0  0
 13 18  1  1  0  0  0
 13 15  1  0  0  0  0
 13  9  1  0  0  0  0
 14 12  1  0  0  0  0
 15 11  1  0  0  0  0
 16 18  2  0  0  0  0
 17 18  1  0  0  0  0
 19 20  2  0  0  0  0
 21 23  1  0  0  0  0
 22 23  1  0  0  0  0
 23 26  1  0  0  0  0
 24 23  1  0  0  0  0
 26 29  1  0  0  0  0
 26 25  1  1  0  0  0
 26 28  1  0  0  0  0
 28 27  1  0  0  0  0
 29 30  1  0  0  0  0
 31 33  2  0  0  0  0
 32 33  1  0  0  0  0
 33 30  1  0  0  0  0
M  END
>  <MODEL>
9

>  <REMARK>
 VINA RESULT:      -7.0      1.922      3.010
  Name = 
  11 active torsions:
  status: ('A' for Active; 'I' for Inactive)
    1  A    between atoms: C_5  and  C_25
    2  A    between atoms: C_9  and  C_14
    3  A    between atoms: C_9  and  C_28
    4  A    between atoms: C_11  and  C_19
    5  A    between atoms: C_11  and  C_32
    6  A    between atoms: C_14  and  C_33
    7  A    between atoms: C_15  and  C_22
    8  A    between atoms: C_18  and  C_24
    9  A    between atoms: C_19  and  C_28
   10  A    between atoms: O_21  and  C_28
   11  A    between atoms: C_23  and  C_24
                            x       y       z     vdW  Elec       q    Type
                         _______ _______ _______ _____ _____    ______ ____

>  <TORSDO>
F 11

$$$$
