=
 OpenBabel11062415373D

 34 37  0  0  1  0  0  0  0  0999 V2000
  190.7060  178.1640  144.3490 N   0  0  0  0  0  0  0  0  0  0  0  0
  191.9170  178.7670  144.3680 O   0  0  0  0  0  1  0  0  0  0  0  0
  188.0200  177.5150  144.6740 C   0  0  0  0  0  0  0  0  0  0  0  0
  188.3900  178.1600  143.5630 C   0  0  0  0  0  3  0  0  0  0  0  0
  189.8460  178.2830  143.1600 C   0  0  2  0  0  3  0  0  0  0  0  0
  190.3120  177.3580  145.4670 C   0  0  0  0  0  3  0  0  0  0  0  0
  189.0310  177.0270  145.6280 C   0  0  0  0  0  3  0  0  0  0  0  0
  191.3970  177.6780  141.4180 C   0  0  0  0  0  2  0  0  0  0  0  0
  190.1910  177.2550  142.1600 N   0  0  2  0  0  0  0  0  0  0  0  0
  191.4810  177.0410  140.0330 C   0  0  0  0  0  2  0  0  0  0  0  0
  189.0240  177.0190  141.2760 C   0  0  0  0  0  2  0  0  0  0  0  0
  189.0640  177.8440  139.9860 C   0  0  0  0  0  2  0  0  0  0  0  0
  190.3140  177.5160  139.1640 C   0  0  2  0  0  3  0  0  0  0  0  0
  190.4850  176.7980  136.3990 O   0  0  0  0  0  0  0  0  0  0  0  0
  190.6380  174.9630  138.2490 O   0  0  0  0  0  1  0  0  0  0  0  0
  189.9350  176.2580  137.9040 P   0  0  1  0  0  0  0  0  0  0  0  0
  188.2590  176.0010  137.8130 O   0  0  0  0  0  0  0  0  0  0  0  0
  187.8510  176.5910  136.6130 C   0  0  0  0  0  2  0  0  0  0  0  0
  186.8950  177.7330  136.8970 C   0  0  0  0  0  2  0  0  0  0  0  0
  185.1810  177.1320  136.8920 S   0  0  0  0  0  1  0  0  0  0  0  0
  186.5710  177.3690  144.9920 C   0  0  0  0  0  2  0  0  0  0  0  0
  186.0120  178.6590  145.5730 C   0  0  2  0  0  3  0  0  0  0  0  0
  185.0840  178.3380  146.7280 C   0  0  0  0  0  1  0  0  0  0  0  0
  185.2360  179.4190  144.5090 C   0  0  0  0  0  2  0  0  0  0  0  0
  181.1690  178.9590  141.8440 C   0  0  0  0  0  2  0  0  0  0  0  0
  183.6830  178.8860  139.9670 C   0  0  0  0  0  2  0  0  0  0  0  0
  180.9230  178.5990  140.0700 S   0  0  0  0  0  0  0  0  0  0  0  0
  185.5890  179.5880  141.8050 O   0  0  0  0  0  1  0  0  0  0  0  0
  182.5820  178.6920  142.2640 C   0  0  2  0  0  3  0  0  0  0  0  0
  183.6580  178.2060  141.3490 C   0  0  2  0  0  3  0  0  0  0  0  0
  182.3760  179.5830  139.5760 C   0  0  0  0  0  2  0  0  0  0  0  0
  184.9440  178.3960  142.1640 C   0  0  2  0  0  3  0  0  0  0  0  0
  183.0060  178.8480  143.5070 C   0  0  0  0  0  2  0  0  0  0  0  0
  184.4440  178.4620  143.6180 C   0  0  2  0  0  3  0  0  0  0  0  0
  1  2  1  0  0  0  0
  1  6  1  0  0  0  0
  3 21  1  0  0  0  0
  3  7  1  0  0  0  0
  4  3  2  0  0  0  0
  5  4  1  1  0  0  0
  5  1  1  0  0  0  0
  6  7  2  0  0  0  0
  8  9  1  0  0  0  0
  9 11  1  6  0  0  0
  9  5  1  0  0  0  0
 10  8  1  0  0  0  0
 12 11  1  0  0  0  0
 13 16  1  6  0  0  0
 13 12  1  0  0  0  0
 13 10  1  0  0  0  0
 16 14  2  6  0  0  0
 16 15  1  0  0  0  0
 17 16  1  0  0  0  0
 18 19  1  0  0  0  0
 18 17  1  0  0  0  0
 20 19  1  0  0  0  0
 21 22  1  0  0  0  0
 22 23  1  1  0  0  0
 24 22  1  0  0  0  0
 27 25  1  0  0  0  0
 29 25  1  1  0  0  0
 29 33  1  0  0  0  0
 30 26  1  6  0  0  0
 30 32  1  0  0  0  0
 30 29  1  0  0  0  0
 31 26  1  0  0  0  0
 31 27  1  0  0  0  0
 32 28  1  6  0  0  0
 32 34  1  0  0  0  0
 33 34  1  0  0  0  0
 34 24  1  1  0  0  0
M  END
>  <MODEL>
1

>  <REMARK>
 VINA RESULT:      -8.7      0.000      0.000
  Name = 
  9 active torsions:
  status: ('A' for Active; 'I' for Inactive)
    1  A    between atoms: N_3  and  C_26
    2  A    between atoms: C_4  and  C_15
    3  A    between atoms: C_4  and  C_21
    4  A    between atoms: C_11  and  C_15
    5  A    between atoms: C_14  and  C_25
    6  A    between atoms: P_18  and  O_27
    7  A    between atoms: P_18  and  C_30
    8  A    between atoms: C_21  and  C_34
    9  A    between atoms: C_25  and  O_27
                            x       y       z     vdW  Elec       q    Type
                         _______ _______ _______ _____ _____    ______ ____

>  <TORSDO>
F 9

$$$$
=
 OpenBabel11062415373D

 34 37  0  0  1  0  0  0  0  0999 V2000
  190.6700  178.1750  144.2990 N   0  0  0  0  0  0  0  0  0  0  0  0
  191.8820  178.7780  144.2940 O   0  0  0  0  0  1  0  0  0  0  0  0
  187.9900  177.5280  144.6720 C   0  0  0  0  0  0  0  0  0  0  0  0
  188.3420  178.1680  143.5520 C   0  0  0  0  0  3  0  0  0  0  0  0
  189.7910  178.2890  143.1230 C   0  0  2  0  0  3  0  0  0  0  0  0
  190.2950  177.3750  145.4270 C   0  0  0  0  0  3  0  0  0  0  0  0
  189.0180  177.0450  145.6110 C   0  0  0  0  0  3  0  0  0  0  0  0
  191.3510  177.6420  141.4050 C   0  0  0  0  0  2  0  0  0  0  0  0
  190.1180  177.2550  142.1230 N   0  0  2  0  0  0  0  0  0  0  0  0
  191.4380  177.0110  140.0170 C   0  0  0  0  0  2  0  0  0  0  0  0
  188.9610  177.0640  141.2180 C   0  0  0  0  0  2  0  0  0  0  0  0
  189.0510  177.8950  139.9340 C   0  0  0  0  0  2  0  0  0  0  0  0
  190.3040  177.5300  139.1320 C   0  0  2  0  0  3  0  0  0  0  0  0
  188.2320  176.0420  137.8330 O   0  0  0  0  0  1  0  0  0  0  0  0
  190.3460  176.7980  136.5010 O   0  0  0  0  0  0  0  0  0  0  0  0
  189.9050  176.2930  137.8570 P   0  0  1  0  0  0  0  0  0  0  0  0
  190.6730  174.8190  138.2050 O   0  0  0  0  0  0  0  0  0  0  0  0
  191.4870  174.5470  137.1020 C   0  0  0  0  0  2  0  0  0  0  0  0
  192.9370  174.4670  137.5370 C   0  0  0  0  0  2  0  0  0  0  0  0
  193.9600  175.5630  136.5110 S   0  0  0  0  0  1  0  0  0  0  0  0
  186.5480  177.3830  145.0150 C   0  0  0  0  0  2  0  0  0  0  0  0
  185.9930  178.6820  145.5820 C   0  0  2  0  0  3  0  0  0  0  0  0
  185.0720  178.3780  146.7470 C   0  0  0  0  0  1  0  0  0  0  0  0
  185.2130  179.4300  144.5130 C   0  0  0  0  0  2  0  0  0  0  0  0
  181.1650  178.9140  141.8280 C   0  0  0  0  0  2  0  0  0  0  0  0
  183.6890  178.8610  139.9650 C   0  0  0  0  0  2  0  0  0  0  0  0
  180.9320  178.5450  140.0550 S   0  0  0  0  0  0  0  0  0  0  0  0
  185.5770  179.5920  141.8100 O   0  0  0  0  0  1  0  0  0  0  0  0
  182.5790  178.6640  142.2570 C   0  0  2  0  0  3  0  0  0  0  0  0
  183.6650  178.1870  141.3500 C   0  0  2  0  0  3  0  0  0  0  0  0
  182.3770  179.5420  139.5650 C   0  0  0  0  0  2  0  0  0  0  0  0
  184.9440  178.3950  142.1710 C   0  0  2  0  0  3  0  0  0  0  0  0
  182.9940  178.8300  143.5020 C   0  0  0  0  0  2  0  0  0  0  0  0
  184.4360  178.4600  143.6210 C   0  0  2  0  0  3  0  0  0  0  0  0
  1  6  1  0  0  0  0
  2  1  1  0  0  0  0
  3 21  1  0  0  0  0
  3  7  1  0  0  0  0
  4  3  2  0  0  0  0
  5  4  1  1  0  0  0
  5  1  1  0  0  0  0
  6  7  2  0  0  0  0
  8  9  1  0  0  0  0
  9 11  1  6  0  0  0
  9  5  1  0  0  0  0
 10  8  1  0  0  0  0
 12 11  1  0  0  0  0
 13 16  1  6  0  0  0
 13 12  1  0  0  0  0
 13 10  1  0  0  0  0
 14 16  1  0  0  0  0
 16 15  2  6  0  0  0
 16 17  1  0  0  0  0
 18 19  1  0  0  0  0
 18 17  1  0  0  0  0
 20 19  1  0  0  0  0
 21 22  1  0  0  0  0
 22 23  1  1  0  0  0
 24 22  1  0  0  0  0
 27 25  1  0  0  0  0
 29 25  1  1  0  0  0
 29 33  1  0  0  0  0
 30 26  1  6  0  0  0
 30 32  1  0  0  0  0
 30 29  1  0  0  0  0
 31 26  1  0  0  0  0
 31 27  1  0  0  0  0
 32 28  1  6  0  0  0
 32 34  1  0  0  0  0
 33 34  1  0  0  0  0
 34 24  1  1  0  0  0
M  END
>  <MODEL>
2

>  <REMARK>
 VINA RESULT:      -8.7      1.792      2.213
  Name = 
  9 active torsions:
  status: ('A' for Active; 'I' for Inactive)
    1  A    between atoms: N_3  and  C_26
    2  A    between atoms: C_4  and  C_15
    3  A    between atoms: C_4  and  C_21
    4  A    between atoms: C_11  and  C_15
    5  A    between atoms: C_14  and  C_25
    6  A    between atoms: P_18  and  O_27
    7  A    between atoms: P_18  and  C_30
    8  A    between atoms: C_21  and  C_34
    9  A    between atoms: C_25  and  O_27
                            x       y       z     vdW  Elec       q    Type
                         _______ _______ _______ _____ _____    ______ ____

>  <TORSDO>
F 9

$$$$
=
 OpenBabel11062415373D

 34 37  0  0  1  0  0  0  0  0999 V2000
  190.5840  178.3210  144.1790 N   0  0  0  0  0  0  0  0  0  0  0  0
  191.7430  179.0010  144.0200 O   0  0  0  0  0  1  0  0  0  0  0  0
  188.0100  177.5170  144.8650 C   0  0  0  0  0  0  0  0  0  0  0  0
  188.1950  178.1290  143.6910 C   0  0  0  0  0  3  0  0  0  0  0  0
  189.5780  178.3260  143.1030 C   0  0  2  0  0  3  0  0  0  0  0  0
  190.3880  177.5470  145.3690 C   0  0  0  0  0  3  0  0  0  0  0  0
  189.1630  177.1420  145.7020 C   0  0  0  0  0  3  0  0  0  0  0  0
  191.1390  177.5880  141.4220 C   0  0  0  0  0  2  0  0  0  0  0  0
  189.8690  177.2740  142.1100 N   0  0  2  0  0  0  0  0  0  0  0  0
  191.2210  176.9520  140.0360 C   0  0  0  0  0  2  0  0  0  0  0  0
  188.7240  177.1500  141.1780 C   0  0  0  0  0  2  0  0  0  0  0  0
  188.8930  177.9730  139.8970 C   0  0  0  0  0  2  0  0  0  0  0  0
  190.1400  177.5350  139.1240 C   0  0  2  0  0  3  0  0  0  0  0  0
  190.1400  176.9340  136.3260 O   0  0  0  0  0  0  0  0  0  0  0  0
  190.4470  175.0280  138.0830 O   0  0  0  0  0  1  0  0  0  0  0  0
  189.7000  176.3210  137.8400 P   0  0  1  0  0  0  0  0  0  0  0  0
  188.0270  176.0340  137.8480 O   0  0  0  0  0  0  0  0  0  0  0  0
  187.5390  176.6080  136.6700 C   0  0  0  0  0  2  0  0  0  0  0  0
  186.4170  177.5750  136.9910 C   0  0  0  0  0  2  0  0  0  0  0  0
  184.8240  176.8880  136.4520 S   0  0  0  0  0  1  0  0  0  0  0  0
  186.6260  177.2930  145.3680 C   0  0  0  0  0  2  0  0  0  0  0  0
  185.8510  178.6020  145.4210 C   0  0  2  0  0  3  0  0  0  0  0  0
  185.9070  179.1700  146.8260 C   0  0  0  0  0  1  0  0  0  0  0  0
  184.3990  178.3660  145.0360 C   0  0  0  0  0  2  0  0  0  0  0  0
  183.6550  177.6410  140.2640 C   0  0  0  0  0  2  0  0  0  0  0  0
  180.9840  178.5640  141.6270 C   0  0  0  0  0  2  0  0  0  0  0  0
  182.2060  177.9740  139.2040 S   0  0  0  0  0  0  0  0  0  0  0  0
  181.7860  178.4190  144.2420 O   0  0  0  0  0  1  0  0  0  0  0  0
  183.5260  178.3180  141.5940 C   0  0  2  0  0  3  0  0  0  0  0  0
  182.3570  179.1490  142.0100 C   0  0  2  0  0  3  0  0  0  0  0  0
  181.0280  177.5110  140.5160 C   0  0  0  0  0  2  0  0  0  0  0  0
  182.5600  179.3370  143.5180 C   0  0  2  0  0  3  0  0  0  0  0  0
  184.4600  178.2530  142.5290 C   0  0  0  0  0  2  0  0  0  0  0  0
  184.0610  179.0630  143.7180 C   0  0  2  0  0  3  0  0  0  0  0  0
  1  6  1  0  0  0  0
  2  1  1  0  0  0  0
  3 21  1  0  0  0  0
  3  7  1  0  0  0  0
  4  3  2  0  0  0  0
  5  4  1  1  0  0  0
  5  1  1  0  0  0  0
  6  7  2  0  0  0  0
  8  9  1  0  0  0  0
  9 11  1  6  0  0  0
  9  5  1  0  0  0  0
 10  8  1  0  0  0  0
 12 11  1  0  0  0  0
 13 16  1  6  0  0  0
 13 12  1  0  0  0  0
 13 10  1  0  0  0  0
 16 14  2  6  0  0  0
 16 17  1  0  0  0  0
 16 15  1  0  0  0  0
 18 19  1  0  0  0  0
 18 17  1  0  0  0  0
 20 19  1  0  0  0  0
 21 22  1  0  0  0  0
 22 23  1  1  0  0  0
 24 22  1  0  0  0  0
 27 25  1  0  0  0  0
 27 31  1  0  0  0  0
 29 25  1  6  0  0  0
 29 30  1  0  0  0  0
 29 33  1  0  0  0  0
 30 26  1  1  0  0  0
 30 32  1  0  0  0  0
 31 26  1  0  0  0  0
 32 34  1  0  0  0  0
 32 28  1  1  0  0  0
 33 34  1  0  0  0  0
 34 24  1  1  0  0  0
M  END
>  <MODEL>
3

>  <REMARK>
 VINA RESULT:      -8.1      1.079      1.482
  Name = 
  9 active torsions:
  status: ('A' for Active; 'I' for Inactive)
    1  A    between atoms: N_3  and  C_26
    2  A    between atoms: C_4  and  C_15
    3  A    between atoms: C_4  and  C_21
    4  A    between atoms: C_11  and  C_15
    5  A    between atoms: C_14  and  C_25
    6  A    between atoms: P_18  and  O_27
    7  A    between atoms: P_18  and  C_30
    8  A    between atoms: C_21  and  C_34
    9  A    between atoms: C_25  and  O_27
                            x       y       z     vdW  Elec       q    Type
                         _______ _______ _______ _____ _____    ______ ____

>  <TORSDO>
F 9

$$$$
=
 OpenBabel11062415373D

 34 37  0  0  1  0  0  0  0  0999 V2000
  181.7040  176.7680  139.6150 N   0  0  0  0  0  0  0  0  0  0  0  0
  181.0440  175.7080  139.0940 O   0  0  0  0  0  1  0  0  0  0  0  0
  182.9410  178.6000  141.3050 C   0  0  0  0  0  0  0  0  0  0  0  0
  183.6860  177.6350  140.7560 C   0  0  0  0  0  3  0  0  0  0  0  0
  183.1770  176.7920  139.6030 C   0  0  2  0  0  3  0  0  0  0  0  0
  180.9510  177.8840  140.1070 C   0  0  0  0  0  3  0  0  0  0  0  0
  181.5340  178.7770  140.9050 C   0  0  0  0  0  3  0  0  0  0  0  0
  184.0640  176.1880  137.4460 C   0  0  0  0  0  2  0  0  0  0  0  0
  183.6810  177.3170  138.3200 N   0  0  2  0  0  0  0  0  0  0  0  0
  185.1110  176.5860  136.4090 C   0  0  0  0  0  2  0  0  0  0  0  0
  184.8020  178.2510  138.5790 C   0  0  0  0  0  2  0  0  0  0  0  0
  186.1790  177.5850  138.4940 C   0  0  0  0  0  2  0  0  0  0  0  0
  186.4140  176.9890  137.1030 C   0  0  2  0  0  3  0  0  0  0  0  0
  186.5020  178.3630  134.5940 O   0  0  0  0  0  0  0  0  0  0  0  0
  187.4290  179.5010  136.7520 O   0  0  0  0  0  1  0  0  0  0  0  0
  187.3310  178.1610  136.0550 P   0  0  1  0  0  0  0  0  0  0  0  0
  188.8850  177.5650  135.7230 O   0  0  0  0  0  0  0  0  0  0  0  0
  189.2220  176.7590  136.8140 C   0  0  0  0  0  2  0  0  0  0  0  0
  190.0770  177.5420  137.7920 C   0  0  0  0  0  2  0  0  0  0  0  0
  190.3790  176.5580  139.2880 S   0  0  0  0  0  1  0  0  0  0  0  0
  183.5120  179.4410  142.3940 C   0  0  0  0  0  2  0  0  0  0  0  0
  183.8410  178.5960  143.6160 C   0  0  2  0  0  3  0  0  0  0  0  0
  182.7400  178.7410  144.6470 C   0  0  0  0  0  1  0  0  0  0  0  0
  185.1580  179.0480  144.2260 C   0  0  0  0  0  2  0  0  0  0  0  0
  189.5020  177.3490  145.6760 C   0  0  0  0  0  2  0  0  0  0  0  0
  187.7480  178.0560  148.1810 C   0  0  0  0  0  2  0  0  0  0  0  0
  190.1410  176.9290  147.3350 S   0  0  0  0  0  0  0  0  0  0  0  0
  185.6840  179.3160  146.8940 O   0  0  0  0  0  1  0  0  0  0  0  0
  188.0150  177.5320  145.6950 C   0  0  2  0  0  3  0  0  0  0  0  0
  187.1620  177.4030  146.9140 C   0  0  2  0  0  3  0  0  0  0  0  0
  189.2570  178.3140  148.1250 C   0  0  0  0  0  2  0  0  0  0  0  0
  185.8110  177.9830  146.4770 C   0  0  2  0  0  3  0  0  0  0  0  0
  187.3110  177.8130  144.6110 C   0  0  0  0  0  2  0  0  0  0  0  0
  185.8570  177.8920  144.9430 C   0  0  2  0  0  3  0  0  0  0  0  0
  1  6  1  0  0  0  0
  2  1  1  0  0  0  0
  3 21  1  0  0  0  0
  4  3  2  0  0  0  0
  5  1  1  0  0  0  0
  5  4  1  1  0  0  0
  6  7  2  0  0  0  0
  7  3  1  0  0  0  0
  9  8  1  6  0  0  0
  9 11  1  0  0  0  0
  9  5  1  0  0  0  0
 10 13  1  0  0  0  0
 10  8  1  0  0  0  0
 12 11  1  0  0  0  0
 13 16  1  6  0  0  0
 13 12  1  0  0  0  0
 16 14  2  6  0  0  0
 16 15  1  0  0  0  0
 17 16  1  0  0  0  0
 17 18  1  0  0  0  0
 18 19  1  0  0  0  0
 19 20  1  0  0  0  0
 21 22  1  0  0  0  0
 22 24  1  0  0  0  0
 22 23  1  1  0  0  0
 25 29  1  0  0  0  0
 25 27  1  0  0  0  0
 27 31  1  0  0  0  0
 29 33  1  6  0  0  0
 29 30  1  0  0  0  0
 30 26  1  1  0  0  0
 31 26  1  0  0  0  0
 32 28  1  6  0  0  0
 32 30  1  0  0  0  0
 33 34  1  0  0  0  0
 34 24  1  6  0  0  0
 34 32  1  0  0  0  0
M  END
>  <MODEL>
4

>  <REMARK>
 VINA RESULT:      -7.2      3.791      6.814
  Name = 
  9 active torsions:
  status: ('A' for Active; 'I' for Inactive)
    1  A    between atoms: N_3  and  C_26
    2  A    between atoms: C_4  and  C_15
    3  A    between atoms: C_4  and  C_21
    4  A    between atoms: C_11  and  C_15
    5  A    between atoms: C_14  and  C_25
    6  A    between atoms: P_18  and  O_27
    7  A    between atoms: P_18  and  C_30
    8  A    between atoms: C_21  and  C_34
    9  A    between atoms: C_25  and  O_27
                            x       y       z     vdW  Elec       q    Type
                         _______ _______ _______ _____ _____    ______ ____

>  <TORSDO>
F 9

$$$$
=
 OpenBabel11062415373D

 34 37  0  0  1  0  0  0  0  0999 V2000
  191.1990  177.3150  141.7210 N   0  0  0  0  0  0  0  0  0  0  0  0
  192.3290  177.8730  141.2280 O   0  0  0  0  0  1  0  0  0  0  0  0
  188.9550  176.6790  143.2390 C   0  0  0  0  0  0  0  0  0  0  0  0
  188.8120  177.5240  142.2130 C   0  0  0  0  0  3  0  0  0  0  0  0
  189.8900  177.6900  141.1600 C   0  0  2  0  0  3  0  0  0  0  0  0
  191.3050  176.3130  142.7400 C   0  0  0  0  0  3  0  0  0  0  0  0
  190.2360  175.9870  143.4640 C   0  0  0  0  0  3  0  0  0  0  0  0
  190.7250  176.9070  139.0390 C   0  0  0  0  0  2  0  0  0  0  0  0
  189.5770  176.8740  139.9710 N   0  0  2  0  0  0  0  0  0  0  0  0
  190.3090  176.6330  137.5960 C   0  0  0  0  0  2  0  0  0  0  0  0
  188.3210  177.3630  139.3560 C   0  0  0  0  0  2  0  0  0  0  0  0
  188.5530  178.3680  138.2230 C   0  0  0  0  0  2  0  0  0  0  0  0
  189.3800  177.7420  137.0970 C   0  0  2  0  0  3  0  0  0  0  0  0
  187.2040  178.2990  135.3230 O   0  0  0  0  0  1  0  0  0  0  0  0
  189.1180  176.6810  134.5940 O   0  0  0  0  0  0  0  0  0  0  0  0
  188.2910  177.0900  135.7920 P   0  0  1  0  0  0  0  0  0  0  0  0
  187.4100  175.7590  136.3700 O   0  0  0  0  0  0  0  0  0  0  0  0
  186.0700  176.1580  136.3620 C   0  0  0  0  0  2  0  0  0  0  0  0
  185.1670  174.9410  136.3690 C   0  0  0  0  0  2  0  0  0  0  0  0
  185.9850  173.5590  137.2180 S   0  0  0  0  0  1  0  0  0  0  0  0
  187.8400  176.5070  144.2120 C   0  0  0  0  0  2  0  0  0  0  0  0
  187.5400  177.8160  144.9290 C   0  0  2  0  0  3  0  0  0  0  0  0
  188.2840  177.8560  146.2490 C   0  0  0  0  0  1  0  0  0  0  0  0
  186.0480  177.9380  145.1940 C   0  0  0  0  0  2  0  0  0  0  0  0
  183.2960  178.1770  141.1650 C   0  0  0  0  0  2  0  0  0  0  0  0
  181.7120  179.3550  143.6050 C   0  0  0  0  0  2  0  0  0  0  0  0
  181.6730  178.9550  140.8570 S   0  0  0  0  0  0  0  0  0  0  0  0
  183.4350  178.6230  145.6050 O   0  0  0  0  0  1  0  0  0  0  0  0
  183.8830  178.6340  142.4660 C   0  0  2  0  0  3  0  0  0  0  0  0
  183.2210  179.5930  143.4010 C   0  0  2  0  0  3  0  0  0  0  0  0
  181.0470  178.5140  142.5120 C   0  0  0  0  0  2  0  0  0  0  0  0
  184.0520  179.4830  144.6850 C   0  0  2  0  0  3  0  0  0  0  0  0
  185.0660  178.2360  142.9020 C   0  0  0  0  0  2  0  0  0  0  0  0
  185.3900  178.8970  144.2010 C   0  0  2  0  0  3  0  0  0  0  0  0
  1  6  1  0  0  0  0
  2  1  1  0  0  0  0
  3  7  1  0  0  0  0
  3 21  1  0  0  0  0
  4  3  2  0  0  0  0
  5  1  1  0  0  0  0
  5  4  1  1  0  0  0
  6  7  2  0  0  0  0
  9  8  1  6  0  0  0
  9  5  1  0  0  0  0
 10  8  1  0  0  0  0
 11  9  1  0  0  0  0
 12 11  1  0  0  0  0
 13 16  1  6  0  0  0
 13 10  1  0  0  0  0
 13 12  1  0  0  0  0
 14 16  1  0  0  0  0
 16 15  2  6  0  0  0
 16 17  1  0  0  0  0
 18 19  1  0  0  0  0
 18 17  1  0  0  0  0
 19 20  1  0  0  0  0
 21 22  1  0  0  0  0
 22 24  1  0  0  0  0
 22 23  1  1  0  0  0
 27 25  1  0  0  0  0
 27 31  1  0  0  0  0
 29 25  1  6  0  0  0
 29 33  1  0  0  0  0
 29 30  1  0  0  0  0
 30 26  1  1  0  0  0
 30 32  1  0  0  0  0
 31 26  1  0  0  0  0
 32 28  1  1  0  0  0
 33 34  1  0  0  0  0
 34 32  1  0  0  0  0
 34 24  1  1  0  0  0
M  END
>  <MODEL>
5

>  <REMARK>
 VINA RESULT:      -7.1      1.968      2.706
  Name = 
  9 active torsions:
  status: ('A' for Active; 'I' for Inactive)
    1  A    between atoms: N_3  and  C_26
    2  A    between atoms: C_4  and  C_15
    3  A    between atoms: C_4  and  C_21
    4  A    between atoms: C_11  and  C_15
    5  A    between atoms: C_14  and  C_25
    6  A    between atoms: P_18  and  O_27
    7  A    between atoms: P_18  and  C_30
    8  A    between atoms: C_21  and  C_34
    9  A    between atoms: C_25  and  O_27
                            x       y       z     vdW  Elec       q    Type
                         _______ _______ _______ _____ _____    ______ ____

>  <TORSDO>
F 9

$$$$
=
 OpenBabel11062415373D

 34 37  0  0  1  0  0  0  0  0999 V2000
  191.2070  176.5230  143.2390 N   0  0  0  0  0  0  0  0  0  0  0  0
  191.9950  175.9710  144.1920 O   0  0  0  0  0  1  0  0  0  0  0  0
  189.7410  177.0440  140.9330 C   0  0  0  0  0  0  0  0  0  0  0  0
  189.1210  176.4620  141.9650 C   0  0  0  0  0  3  0  0  0  0  0  0
  189.7430  176.4170  143.3470 C   0  0  2  0  0  3  0  0  0  0  0  0
  191.8180  177.2650  142.1760 C   0  0  0  0  0  3  0  0  0  0  0  0
  191.1230  177.5350  141.0720 C   0  0  0  0  0  3  0  0  0  0  0  0
  189.2210  177.0750  145.6050 C   0  0  0  0  0  2  0  0  0  0  0  0
  189.2000  177.5000  144.1900 N   0  0  2  0  0  0  0  0  0  0  0  0
  188.1790  177.8080  146.4470 C   0  0  0  0  0  2  0  0  0  0  0  0
  187.8420  177.8570  143.7150 C   0  0  0  0  0  2  0  0  0  0  0  0
  186.7250  177.1290  144.4700 C   0  0  0  0  0  2  0  0  0  0  0  0
  186.7700  177.4570  145.9650 C   0  0  2  0  0  3  0  0  0  0  0  0
  184.3890  178.2430  147.3430 O   0  0  0  0  0  1  0  0  0  0  0  0
  186.3760  179.9160  147.0870 O   0  0  0  0  0  0  0  0  0  0  0  0
  185.6310  178.8230  146.3520 P   0  0  1  0  0  0  0  0  0  0  0  0
  184.9480  179.4430  144.9270 O   0  0  0  0  0  0  0  0  0  0  0  0
  183.6210  179.0040  144.9200 C   0  0  0  0  0  2  0  0  0  0  0  0
  183.0300  179.1610  143.5330 C   0  0  0  0  0  2  0  0  0  0  0  0
  184.2300  178.6300  142.2770 S   0  0  0  0  0  1  0  0  0  0  0  0
  189.0590  177.1170  139.6110 C   0  0  0  0  0  2  0  0  0  0  0  0
  190.0750  177.1910  138.4800 C   0  0  2  0  0  3  0  0  0  0  0  0
  189.5570  178.1040  137.3870 C   0  0  0  0  0  1  0  0  0  0  0  0
  190.3150  175.8060  137.9000 C   0  0  0  0  0  2  0  0  0  0  0  0
  195.0330  174.5990  138.2720 C   0  0  0  0  0  2  0  0  0  0  0  0
  193.6020  172.6780  136.2440 C   0  0  0  0  0  2  0  0  0  0  0  0
  196.0490  173.4000  137.3420 S   0  0  0  0  0  0  0  0  0  0  0  0
  191.0140  173.4530  136.7010 O   0  0  0  0  0  1  0  0  0  0  0  0
  193.7200  174.8450  137.5930 C   0  0  2  0  0  3  0  0  0  0  0  0
  193.2870  174.1850  136.3250 C   0  0  2  0  0  3  0  0  0  0  0  0
  194.6820  172.2000  137.2190 C   0  0  0  0  0  2  0  0  0  0  0  0
  191.7940  174.5190  136.2310 C   0  0  2  0  0  3  0  0  0  0  0  0
  192.8190  175.6950  138.0560 C   0  0  0  0  0  2  0  0  0  0  0  0
  191.6410  175.7510  137.1400 C   0  0  2  0  0  3  0  0  0  0  0  0
  1  5  1  0  0  0  0
  1  2  1  0  0  0  0
  3  7  1  0  0  0  0
  3  4  2  0  0  0  0
  5  4  1  6  0  0  0
  5  9  1  0  0  0  0
  6  1  1  0  0  0  0
  7  6  2  0  0  0  0
  8 10  1  0  0  0  0
  9 11  1  6  0  0  0
  9  8  1  0  0  0  0
 11 12  1  0  0  0  0
 12 13  1  0  0  0  0
 13 16  1  6  0  0  0
 13 10  1  0  0  0  0
 16 15  2  1  0  0  0
 16 14  1  0  0  0  0
 17 16  1  0  0  0  0
 18 17  1  0  0  0  0
 19 18  1  0  0  0  0
 20 19  1  0  0  0  0
 21  3  1  0  0  0  0
 22 23  1  6  0  0  0
 22 21  1  0  0  0  0
 24 22  1  0  0  0  0
 26 31  1  0  0  0  0
 27 25  1  0  0  0  0
 29 33  1  6  0  0  0
 29 25  1  0  0  0  0
 30 26  1  1  0  0  0
 30 29  1  0  0  0  0
 31 27  1  0  0  0  0
 32 30  1  0  0  0  0
 32 28  1  1  0  0  0
 32 34  1  0  0  0  0
 34 24  1  1  0  0  0
 34 33  1  0  0  0  0
M  END
>  <MODEL>
6

>  <REMARK>
 VINA RESULT:      -7.1      3.971      8.997
  Name = 
  9 active torsions:
  status: ('A' for Active; 'I' for Inactive)
    1  A    between atoms: N_3  and  C_26
    2  A    between atoms: C_4  and  C_15
    3  A    between atoms: C_4  and  C_21
    4  A    between atoms: C_11  and  C_15
    5  A    between atoms: C_14  and  C_25
    6  A    between atoms: P_18  and  O_27
    7  A    between atoms: P_18  and  C_30
    8  A    between atoms: C_21  and  C_34
    9  A    between atoms: C_25  and  O_27
                            x       y       z     vdW  Elec       q    Type
                         _______ _______ _______ _____ _____    ______ ____

>  <TORSDO>
F 9

$$$$
=
 OpenBabel11062415373D

 34 37  0  0  1  0  0  0  0  0999 V2000
  186.4100  178.4540  138.7730 N   0  0  0  0  0  0  0  0  0  0  0  0
  186.8960  178.4470  137.5100 O   0  0  0  0  0  1  0  0  0  0  0  0
  185.6220  179.1580  141.3460 C   0  0  0  0  0  0  0  0  0  0  0  0
  184.7300  179.2600  140.3560 C   0  0  0  0  0  3  0  0  0  0  0  0
  184.9650  178.6220  139.0010 C   0  0  2  0  0  3  0  0  0  0  0  0
  187.3090  178.2260  139.8660 C   0  0  0  0  0  3  0  0  0  0  0  0
  186.9390  178.5450  141.1050 C   0  0  0  0  0  3  0  0  0  0  0  0
  183.9110  177.0530  137.5060 C   0  0  0  0  0  2  0  0  0  0  0  0
  184.2670  177.3250  138.9150 N   0  0  2  0  0  0  0  0  0  0  0  0
  182.7190  176.1080  137.3810 C   0  0  0  0  0  2  0  0  0  0  0  0
  183.0890  177.3420  139.8140 C   0  0  0  0  0  2  0  0  0  0  0  0
  181.7910  177.7370  139.1040 C   0  0  0  0  0  2  0  0  0  0  0  0
  181.4670  176.7600  137.9710 C   0  0  2  0  0  3  0  0  0  0  0  0
  180.2040  175.5490  140.2360 O   0  0  0  0  0  1  0  0  0  0  0  0
  178.9480  175.7030  137.9530 O   0  0  0  0  0  0  0  0  0  0  0  0
  180.3180  175.4710  138.5500 P   0  0  1  0  0  0  0  0  0  0  0  0
  180.8880  173.9330  138.1120 O   0  0  0  0  0  0  0  0  0  0  0  0
  179.7480  173.1490  137.9140 C   0  0  0  0  0  2  0  0  0  0  0  0
  180.1510  171.7290  137.5640 C   0  0  0  0  0  2  0  0  0  0  0  0
  179.0250  171.0500  136.3110 S   0  0  0  0  0  1  0  0  0  0  0  0
  185.3130  179.7500  142.6780 C   0  0  0  0  0  2  0  0  0  0  0  0
  184.6220  178.7330  143.5750 C   0  0  2  0  0  3  0  0  0  0  0  0
  183.1210  178.8140  143.3740 C   0  0  0  0  0  1  0  0  0  0  0  0
  184.9450  179.0170  145.0340 C   0  0  0  0  0  2  0  0  0  0  0  0
  189.4280  177.1940  145.6950 C   0  0  0  0  0  2  0  0  0  0  0  0
  188.2230  178.0790  148.4540 C   0  0  0  0  0  2  0  0  0  0  0  0
  190.3640  176.8150  147.2160 S   0  0  0  0  0  0  0  0  0  0  0  0
  185.9910  179.3710  147.5320 O   0  0  0  0  0  1  0  0  0  0  0  0
  187.9800  177.4420  145.9920 C   0  0  2  0  0  3  0  0  0  0  0  0
  187.3790  177.4000  147.3580 C   0  0  2  0  0  3  0  0  0  0  0  0
  189.7000  178.2690  148.0940 C   0  0  0  0  0  2  0  0  0  0  0  0
  185.9890  178.0180  147.1650 C   0  0  2  0  0  3  0  0  0  0  0  0
  187.0880  177.7080  145.0530 C   0  0  0  0  0  2  0  0  0  0  0  0
  185.7300  177.8620  145.6570 C   0  0  2  0  0  3  0  0  0  0  0  0
  1  5  1  0  0  0  0
  1  6  1  0  0  0  0
  2  1  1  0  0  0  0
  3 21  1  0  0  0  0
  4  3  2  0  0  0  0
  5  4  1  1  0  0  0
  6  7  2  0  0  0  0
  7  3  1  0  0  0  0
  9  8  1  6  0  0  0
  9  5  1  0  0  0  0
  9 11  1  0  0  0  0
 10  8  1  0  0  0  0
 10 13  1  0  0  0  0
 12 11  1  0  0  0  0
 13 16  1  1  0  0  0
 13 12  1  0  0  0  0
 16 15  2  6  0  0  0
 16 14  1  0  0  0  0
 17 16  1  0  0  0  0
 18 17  1  0  0  0  0
 19 18  1  0  0  0  0
 20 19  1  0  0  0  0
 21 22  1  0  0  0  0
 22 23  1  1  0  0  0
 22 24  1  0  0  0  0
 25 29  1  0  0  0  0
 25 27  1  0  0  0  0
 27 31  1  0  0  0  0
 29 33  1  6  0  0  0
 29 30  1  0  0  0  0
 30 26  1  1  0  0  0
 31 26  1  0  0  0  0
 32 30  1  0  0  0  0
 32 28  1  6  0  0  0
 33 34  1  0  0  0  0
 34 24  1  6  0  0  0
 34 32  1  0  0  0  0
M  END
>  <MODEL>
7

>  <REMARK>
 VINA RESULT:      -7.0      4.860      7.599
  Name = 
  9 active torsions:
  status: ('A' for Active; 'I' for Inactive)
    1  A    between atoms: N_3  and  C_26
    2  A    between atoms: C_4  and  C_15
    3  A    between atoms: C_4  and  C_21
    4  A    between atoms: C_11  and  C_15
    5  A    between atoms: C_14  and  C_25
    6  A    between atoms: P_18  and  O_27
    7  A    between atoms: P_18  and  C_30
    8  A    between atoms: C_21  and  C_34
    9  A    between atoms: C_25  and  O_27
                            x       y       z     vdW  Elec       q    Type
                         _______ _______ _______ _____ _____    ______ ____

>  <TORSDO>
F 9

$$$$
=
 OpenBabel11062415373D

 34 37  0  0  1  0  0  0  0  0999 V2000
  191.1940  177.3170  144.6880 N   0  0  0  0  0  0  0  0  0  0  0  0
  191.7120  177.2580  145.9360 O   0  0  0  0  0  1  0  0  0  0  0  0
  190.5080  176.8290  142.0360 C   0  0  0  0  0  0  0  0  0  0  0  0
  189.7110  176.3540  142.9990 C   0  0  0  0  0  3  0  0  0  0  0  0
  189.8310  176.8190  144.4360 C   0  0  2  0  0  3  0  0  0  0  0  0
  191.9610  177.9290  143.6440 C   0  0  0  0  0  3  0  0  0  0  0  0
  191.6350  177.7170  142.3690 C   0  0  0  0  0  3  0  0  0  0  0  0
  188.1330  177.5440  145.9860 C   0  0  0  0  0  2  0  0  0  0  0  0
  188.8310  177.8660  144.7230 N   0  0  2  0  0  0  0  0  0  0  0  0
  186.7440  178.1740  146.0590 C   0  0  0  0  0  2  0  0  0  0  0  0
  187.9080  177.9910  143.5700 C   0  0  0  0  0  2  0  0  0  0  0  0
  186.6290  177.1620  143.7250 C   0  0  0  0  0  2  0  0  0  0  0  0
  185.8440  177.5910  144.9670 C   0  0  2  0  0  3  0  0  0  0  0  0
  183.5130  179.0060  145.8350 O   0  0  0  0  0  1  0  0  0  0  0  0
  185.2020  180.1320  144.1940 O   0  0  0  0  0  0  0  0  0  0  0  0
  184.5590  178.8020  144.5220 P   0  0  1  0  0  0  0  0  0  0  0  0
  183.6630  178.2470  143.1910 O   0  0  0  0  0  0  0  0  0  0  0  0
  184.1330  178.9700  142.0900 C   0  0  0  0  0  2  0  0  0  0  0  0
  183.5550  178.3980  140.8110 C   0  0  0  0  0  2  0  0  0  0  0  0
  184.1230  179.3630  139.3810 S   0  0  0  0  0  1  0  0  0  0  0  0
  190.3060  176.3850  140.6280 C   0  0  0  0  0  2  0  0  0  0  0  0
  190.4070  177.5630  139.6690 C   0  0  2  0  0  3  0  0  0  0  0  0
  189.0400  178.1940  139.4910 C   0  0  0  0  0  1  0  0  0  0  0  0
  190.9200  177.0950  138.3170 C   0  0  0  0  0  2  0  0  0  0  0  0
  192.0660  173.0490  135.8330 C   0  0  0  0  0  2  0  0  0  0  0  0
  194.6860  174.5730  136.6460 C   0  0  0  0  0  2  0  0  0  0  0  0
  193.6770  172.2590  135.4890 S   0  0  0  0  0  0  0  0  0  0  0  0
  193.5440  176.8790  137.5860 O   0  0  0  0  0  1  0  0  0  0  0  0
  192.1880  174.0970  136.8970 C   0  0  2  0  0  3  0  0  0  0  0  0
  193.4650  174.4630  137.5800 C   0  0  2  0  0  3  0  0  0  0  0  0
  194.5230  173.8630  135.2990 C   0  0  0  0  0  2  0  0  0  0  0  0
  193.1230  175.7620  138.3210 C   0  0  2  0  0  3  0  0  0  0  0  0
  191.1560  174.7920  137.3440 C   0  0  0  0  0  2  0  0  0  0  0  0
  191.5890  175.7240  138.4280 C   0  0  2  0  0  3  0  0  0  0  0  0
  1  2  1  0  0  0  0
  3  7  1  0  0  0  0
  3  4  2  0  0  0  0
  5  4  1  6  0  0  0
  5  1  1  0  0  0  0
  5  9  1  0  0  0  0
  6  1  1  0  0  0  0
  7  6  2  0  0  0  0
  8 10  1  0  0  0  0
  9 11  1  6  0  0  0
  9  8  1  0  0  0  0
 11 12  1  0  0  0  0
 12 13  1  0  0  0  0
 13 16  1  6  0  0  0
 13 10  1  0  0  0  0
 16 15  2  6  0  0  0
 16 14  1  0  0  0  0
 17 16  1  0  0  0  0
 18 17  1  0  0  0  0
 19 18  1  0  0  0  0
 20 19  1  0  0  0  0
 21  3  1  0  0  0  0
 22 23  1  6  0  0  0
 22 21  1  0  0  0  0
 24 22  1  0  0  0  0
 27 25  1  0  0  0  0
 29 25  1  1  0  0  0
 29 33  1  0  0  0  0
 29 30  1  0  0  0  0
 30 26  1  6  0  0  0
 30 32  1  0  0  0  0
 31 27  1  0  0  0  0
 31 26  1  0  0  0  0
 32 28  1  6  0  0  0
 32 34  1  0  0  0  0
 33 34  1  0  0  0  0
 34 24  1  6  0  0  0
M  END
>  <MODEL>
8

>  <REMARK>
 VINA RESULT:      -6.9      3.537      8.292
  Name = 
  9 active torsions:
  status: ('A' for Active; 'I' for Inactive)
    1  A    between atoms: N_3  and  C_26
    2  A    between atoms: C_4  and  C_15
    3  A    between atoms: C_4  and  C_21
    4  A    between atoms: C_11  and  C_15
    5  A    between atoms: C_14  and  C_25
    6  A    between atoms: P_18  and  O_27
    7  A    between atoms: P_18  and  C_30
    8  A    between atoms: C_21  and  C_34
    9  A    between atoms: C_25  and  O_27
                            x       y       z     vdW  Elec       q    Type
                         _______ _______ _______ _____ _____    ______ ____

>  <TORSDO>
F 9

$$$$
=
 OpenBabel11062415373D

 34 37  0  0  1  0  0  0  0  0999 V2000
  184.6750  179.2200  144.3810 N   0  0  0  0  0  0  0  0  0  0  0  0
  185.0330  179.8610  145.5180 O   0  0  0  0  0  1  0  0  0  0  0  0
  183.6480  178.5440  141.8860 C   0  0  0  0  0  0  0  0  0  0  0  0
  184.9080  178.9860  141.9580 C   0  0  0  0  0  3  0  0  0  0  0  0
  185.6430  179.0860  143.2800 C   0  0  2  0  0  3  0  0  0  0  0  0
  183.3760  178.6210  144.3000 C   0  0  0  0  0  3  0  0  0  0  0  0
  182.8770  178.2790  143.1130 C   0  0  0  0  0  3  0  0  0  0  0  0
  187.0690  177.9360  144.8450 C   0  0  0  0  0  2  0  0  0  0  0  0
  186.5030  177.9040  143.4800 N   0  0  2  0  0  0  0  0  0  0  0  0
  188.3770  177.1550  144.9500 C   0  0  0  0  0  2  0  0  0  0  0  0
  187.5430  177.8690  142.4250 C   0  0  0  0  0  2  0  0  0  0  0  0
  188.8630  178.5170  142.8540 C   0  0  0  0  0  2  0  0  0  0  0  0
  189.4510  177.8060  144.0770 C   0  0  2  0  0  3  0  0  0  0  0  0
  189.8520  175.2530  142.8480 O   0  0  0  0  0  1  0  0  0  0  0  0
  191.6180  177.1510  142.5480 O   0  0  0  0  0  0  0  0  0  0  0  0
  190.6670  176.5530  143.5610 P   0  0  1  0  0  0  0  0  0  0  0  0
  191.5330  175.9830  144.9050 O   0  0  0  0  0  0  0  0  0  0  0  0
  191.6810  177.0840  145.7540 C   0  0  0  0  0  2  0  0  0  0  0  0
  191.2520  176.7140  147.1610 C   0  0  0  0  0  2  0  0  0  0  0  0
  192.4930  175.6360  147.9320 S   0  0  0  0  0  1  0  0  0  0  0  0
  182.9920  178.4050  140.5550 C   0  0  0  0  0  2  0  0  0  0  0  0
  183.8690  178.9870  139.4560 C   0  0  2  0  0  3  0  0  0  0  0  0
  183.1100  180.0720  138.7190 C   0  0  0  0  0  1  0  0  0  0  0  0
  184.2650  177.8980  138.4710 C   0  0  0  0  0  2  0  0  0  0  0  0
  189.1170  177.6420  138.9650 C   0  0  0  0  0  2  0  0  0  0  0  0
  188.1900  175.7870  136.6100 C   0  0  0  0  0  2  0  0  0  0  0  0
  190.3930  176.8260  137.9450 S   0  0  0  0  0  0  0  0  0  0  0  0
  185.4840  175.9390  137.0080 O   0  0  0  0  0  1  0  0  0  0  0  0
  187.8040  177.7100  138.2470 C   0  0  2  0  0  3  0  0  0  0  0  0
  187.5620  177.1690  136.8760 C   0  0  2  0  0  3  0  0  0  0  0  0
  189.3150  175.4020  137.5760 C   0  0  0  0  0  2  0  0  0  0  0  0
  186.0340  177.2000  136.7370 C   0  0  2  0  0  3  0  0  0  0  0  0
  186.7290  178.2810  138.7640 C   0  0  0  0  0  2  0  0  0  0  0  0
  185.5950  178.2280  137.7930 C   0  0  2  0  0  3  0  0  0  0  0  0
  1  2  1  0  0  0  0
  3  4  2  0  0  0  0
  3  7  1  0  0  0  0
  5  4  1  6  0  0  0
  5  9  1  0  0  0  0
  5  1  1  0  0  0  0
  6  1  1  0  0  0  0
  7  6  2  0  0  0  0
  8 10  1  0  0  0  0
  9 11  1  6  0  0  0
  9  8  1  0  0  0  0
 11 12  1  0  0  0  0
 12 13  1  0  0  0  0
 13 16  1  6  0  0  0
 13 10  1  0  0  0  0
 14 16  1  0  0  0  0
 16 15  2  6  0  0  0
 16 17  1  0  0  0  0
 17 18  1  0  0  0  0
 18 19  1  0  0  0  0
 19 20  1  0  0  0  0
 21  3  1  0  0  0  0
 22 23  1  6  0  0  0
 22 21  1  0  0  0  0
 24 22  1  0  0  0  0
 26 31  1  0  0  0  0
 27 25  1  0  0  0  0
 29 33  1  6  0  0  0
 29 25  1  0  0  0  0
 30 26  1  1  0  0  0
 30 29  1  0  0  0  0
 31 27  1  0  0  0  0
 32 30  1  0  0  0  0
 32 28  1  1  0  0  0
 32 34  1  0  0  0  0
 34 24  1  1  0  0  0
 34 33  1  0  0  0  0
M  END
>  <MODEL>
9

>  <REMARK>
 VINA RESULT:      -6.9      3.370      6.895
  Name = 
  9 active torsions:
  status: ('A' for Active; 'I' for Inactive)
    1  A    between atoms: N_3  and  C_26
    2  A    between atoms: C_4  and  C_15
    3  A    between atoms: C_4  and  C_21
    4  A    between atoms: C_11  and  C_15
    5  A    between atoms: C_14  and  C_25
    6  A    between atoms: P_18  and  O_27
    7  A    between atoms: P_18  and  C_30
    8  A    between atoms: C_21  and  C_34
    9  A    between atoms: C_25  and  O_27
                            x       y       z     vdW  Elec       q    Type
                         _______ _______ _______ _____ _____    ______ ____

>  <TORSDO>
F 9

$$$$
