=
 OpenBabel11062410583D

 49 56  0  0  1  0  0  0  0  0999 V2000
  186.8890  175.5730  137.7340 O   0  0  0  0  0  0  0  0  0  0  0  0
  186.3760  175.1090  136.5110 C   0  0  1  0  0  3  0  0  0  0  0  0
  188.0270  174.2590  134.9280 C   0  0  2  0  0  3  0  0  0  0  0  0
  187.0940  173.8400  136.0470 C   0  0  2  0  0  0  0  0  0  0  0  0
  186.7690  173.4750  134.6120 C   0  0  0  0  0  2  0  0  0  0  0  0
  188.5970  173.8310  136.2610 C   0  0  0  0  0  2  0  0  0  0  0  0
  184.8590  174.8480  136.5980 C   0  0  1  0  0  3  0  0  0  0  0  0
  184.5530  173.5030  137.2020 C   0  0  0  0  0  0  0  0  0  0  0  0
  185.1290  173.1350  138.2640 O   0  0  0  0  0  0  0  0  0  0  0  0
  183.8040  171.2700  136.4960 C   0  0  0  0  0  1  0  0  0  0  0  0
  183.6190  172.6770  136.5770 O   0  0  0  0  0  0  0  0  0  0  0  0
  183.9360  177.0440  136.3410 O   0  0  0  0  0  1  0  0  0  0  0  0
  184.1110  176.0120  137.2690 C   0  0  1  0  0  3  0  0  0  0  0  0
  182.7960  179.5530  138.7150 C   0  0  0  0  0  2  0  0  0  0  0  0
  183.9460  177.4350  139.9670 C   0  0  1  0  0  3  0  0  0  0  0  0
  182.7560  175.3950  139.2400 O   0  0  0  0  0  0  0  0  0  0  0  0
  182.6230  176.6350  139.9140 C   0  0  2  0  0  3  0  0  0  0  0  0
  182.2230  178.7170  137.5800 C   0  0  0  0  0  2  0  0  0  0  0  0
  183.9780  178.8370  139.3590 C   0  0  2  0  0  0  0  0  0  0  0  0
  181.5150  176.3250  137.3000 C   0  0  0  0  0  2  0  0  0  0  0  0
  183.8030  178.6670  140.8510 C   0  0  0  0  0  2  0  0  0  0  0  0
  182.7480  175.5590  137.8270 C   0  0  1  0  0  3  0  0  0  0  0  0
  181.2670  177.6230  138.0610 C   0  0  1  0  0  3  0  0  0  0  0  0
  181.3210  177.3540  139.5610 C   0  0  0  0  0  2  0  0  0  0  0  0
  185.2470  179.3220  139.0520 O   0  0  0  0  0  1  0  0  0  0  0  0
  187.2320  176.9080  137.5150 C   0  0  0  0  0  2  0  0  0  0  0  0
  188.7270  177.0380  137.3350 C   0  0  0  0  0  2  0  0  0  0  0  0
  189.3740  178.1540  138.6090 S   0  0  0  0  0  0  0  0  0  0  0  0
  190.1200  176.8100  139.5390 C   0  0  0  0  0  0  0  0  0  0  0  0
  190.5630  175.7440  138.8860 C   0  0  0  0  0  2  0  0  0  0  0  0
  190.2210  176.8200  141.0410 C   0  0  0  0  0  2  0  0  0  0  0  0
  190.5620  178.2820  143.1580 C   0  0  2  0  0  3  0  0  0  0  0  0
  190.5870  178.1850  141.6230 C   0  0  1  0  0  3  0  0  0  0  0  0
  191.8690  178.0390  142.4150 C   0  0  0  0  0  2  0  0  0  0  0  0
  189.7140  176.7050  146.1490 N   0  0  0  0  0  0  0  0  0  0  0  0
  185.8320  178.0940  146.1880 C   0  0  0  0  0  3  0  0  0  0  0  0
  190.0460  177.0690  143.8090 N   0  0  0  0  0  0  0  0  0  0  0  0
  187.1440  177.6310  146.1430 C   0  0  0  0  0  0  0  0  0  0  0  0
  189.0020  176.7510  147.3000 C   0  0  0  0  0  3  0  0  0  0  0  0
  187.1530  177.9400  143.7170 C   0  0  0  0  0  0  0  0  0  0  0  0
  189.1910  177.1120  144.9610 C   0  0  0  0  0  0  0  0  0  0  0  0
  187.7210  177.8130  142.3470 C   0  0  0  0  0  1  0  0  0  0  0  0
  187.8470  177.5700  144.9070 C   0  0  0  0  0  0  0  0  0  0  0  0
  185.1840  178.4950  145.0210 C   0  0  0  0  0  0  0  0  0  0  0  0
  187.7330  177.2190  147.2930 N   0  0  0  0  0  0  0  0  0  0  0  0
  185.8360  178.4050  143.7950 C   0  0  0  0  0  3  0  0  0  0  0  0
  183.7850  178.9910  145.0810 C   0  0  0  0  0  1  0  0  0  0  0  0
  190.5160  175.7700  143.3500 C   0  0  0  0  0  2  0  0  0  0  0  0
  191.7250  175.4550  143.9720 O   0  0  0  0  0  1  0  0  0  0  0  0
  2  7  1  0  0  0  0
  2  1  1  1  0  0  0
  3  5  1  6  0  0  0
  3  4  1  0  0  0  0
  3  6  1  0  0  0  0
  4  6  1  0  0  0  0
  4  2  1  1  0  0  0
  5  4  1  0  0  0  0
  7  8  1  1  0  0  0
  7 13  1  0  0  0  0
  8  9  2  0  0  0  0
 10 11  1  0  0  0  0
 11  8  1  0  0  0  0
 13 12  1  6  0  0  0
 14 19  1  0  0  0  0
 15 21  1  1  0  0  0
 16 17  1  0  0  0  0
 17 24  1  6  0  0  0
 17 15  1  0  0  0  0
 18 23  1  0  0  0  0
 18 14  1  0  0  0  0
 19 25  1  6  0  0  0
 19 15  1  0  0  0  0
 19 21  1  0  0  0  0
 20 22  1  0  0  0  0
 22 13  1  1  0  0  0
 22 16  1  0  0  0  0
 23 20  1  6  0  0  0
 23 24  1  0  0  0  0
 26  1  1  0  0  0  0
 27 26  1  0  0  0  0
 27 28  1  0  0  0  0
 28 29  1  0  0  0  0
 29 31  1  0  0  0  0
 30 29  2  0  0  0  0
 32 37  1  1  0  0  0
 33 31  1  1  0  0  0
 33 34  1  0  0  0  0
 33 32  1  0  0  0  0
 34 32  1  0  0  0  0
 35 39  1  0  0  0  0
 37 41  1  0  0  0  0
 38 36  1  0  0  0  0
 38 45  1  0  0  0  0
 40 46  2  0  0  0  0
 40 43  1  0  0  0  0
 41 35  2  0  0  0  0
 42 40  1  0  0  0  0
 43 41  1  0  0  0  0
 43 38  2  0  0  0  0
 44 47  1  0  0  0  0
 44 36  2  0  0  0  0
 45 39  2  0  0  0  0
 46 44  1  0  0  0  0
 48 37  1  0  0  0  0
 48 49  1  0  0  0  0
M  END
>  <MODEL>
1

>  <REMARK>
 VINA RESULT:      -7.4      0.000      0.000
  Name = 
  15 active torsions:
  status: ('A' for Active; 'I' for Inactive)
    1  A    between atoms: C_5  and  N_12
    2  A    between atoms: C_6  and  O_25
    3  A    between atoms: C_6  and  C_29
    4  A    between atoms: C_6  and  C_46
    5  A    between atoms: C_11  and  C_31
    6  A    between atoms: N_12  and  C_38
    7  A    between atoms: C_14  and  C_46
    8  A    between atoms: C_14  and  O_47
    9  A    between atoms: C_15  and  C_31
   10  A    between atoms: C_15  and  S_45
   11  A    between atoms: C_17  and  O_25
   12  A    between atoms: C_17  and  C_48
   13  A    between atoms: C_36  and  C_39
   14  A    between atoms: C_39  and  C_46
   15  A    between atoms: S_45  and  C_48
                            x       y       z     vdW  Elec       q    Type
                         _______ _______ _______ _____ _____    ______ ____

>  <TORSDO>
F 15

$$$$
=
 OpenBabel11062410583D

 49 56  0  0  1  0  0  0  0  0999 V2000
  187.7770  176.5190  138.0080 O   0  0  0  0  0  0  0  0  0  0  0  0
  187.3050  176.7440  136.7040 C   0  0  1  0  0  3  0  0  0  0  0  0
  189.3020  177.8050  135.7880 C   0  0  2  0  0  3  0  0  0  0  0  0
  188.4190  176.5780  135.6680 C   0  0  2  0  0  0  0  0  0  0  0  0
  188.3830  177.6480  134.5940 C   0  0  0  0  0  2  0  0  0  0  0  0
  189.8210  176.4570  136.2390 C   0  0  0  0  0  2  0  0  0  0  0  0
  186.1290  175.8070  136.3600 C   0  0  1  0  0  3  0  0  0  0  0  0
  186.3520  174.4110  136.8780 C   0  0  0  0  0  0  0  0  0  0  0  0
  185.7100  173.9950  137.8830 O   0  0  0  0  0  0  0  0  0  0  0  0
  188.3900  173.0350  136.9050 C   0  0  0  0  0  1  0  0  0  0  0  0
  187.2680  173.5860  136.2270 O   0  0  0  0  0  0  0  0  0  0  0  0
  184.8870  177.8030  136.8260 O   0  0  0  0  0  1  0  0  0  0  0  0
  184.7740  176.4090  136.7660 C   0  0  1  0  0  3  0  0  0  0  0  0
  181.5990  178.0160  138.6900 C   0  0  0  0  0  2  0  0  0  0  0  0
  182.5220  175.4630  138.6010 C   0  0  1  0  0  3  0  0  0  0  0  0
  182.9060  174.8850  136.2300 O   0  0  0  0  0  0  0  0  0  0  0  0
  181.9290  175.2570  137.1870 C   0  0  2  0  0  3  0  0  0  0  0  0
  182.1840  178.3960  137.3370 C   0  0  0  0  0  2  0  0  0  0  0  0
  182.3460  176.8230  139.2760 C   0  0  2  0  0  0  0  0  0  0  0  0
  182.7890  177.1590  135.2390 C   0  0  0  0  0  2  0  0  0  0  0  0
  181.4190  175.6820  139.6270 C   0  0  0  0  0  2  0  0  0  0  0  0
  183.6600  176.0050  135.7820 C   0  0  1  0  0  3  0  0  0  0  0  0
  181.6570  177.5320  136.1890 C   0  0  1  0  0  3  0  0  0  0  0  0
  180.9260  176.2700  136.6340 C   0  0  0  0  0  2  0  0  0  0  0  0
  183.2340  177.0900  140.3150 O   0  0  0  0  0  1  0  0  0  0  0  0
  187.6510  177.7440  138.6680 C   0  0  0  0  0  2  0  0  0  0  0  0
  188.8300  177.9600  139.5880 C   0  0  0  0  0  2  0  0  0  0  0  0
  189.7260  176.3940  139.7700 S   0  0  0  0  0  0  0  0  0  0  0  0
  190.9550  177.1160  140.8620 C   0  0  0  0  0  0  0  0  0  0  0  0
  192.1170  177.5080  140.3540 C   0  0  0  0  0  2  0  0  0  0  0  0
  190.7430  177.2550  142.3450 C   0  0  0  0  0  2  0  0  0  0  0  0
  190.4220  178.9090  144.3190 C   0  0  2  0  0  3  0  0  0  0  0  0
  190.7910  178.7000  142.8400 C   0  0  1  0  0  3  0  0  0  0  0  0
  191.8790  178.8120  143.8870 C   0  0  0  0  0  2  0  0  0  0  0  0
  189.2360  177.4390  147.2490 N   0  0  0  0  0  0  0  0  0  0  0  0
  185.2760  178.3060  146.4990 C   0  0  0  0  0  3  0  0  0  0  0  0
  189.9420  177.6860  144.9780 N   0  0  0  0  0  0  0  0  0  0  0  0
  186.6200  178.0170  146.7200 C   0  0  0  0  0  0  0  0  0  0  0  0
  188.3280  177.4690  148.2530 C   0  0  0  0  0  3  0  0  0  0  0  0
  187.0320  178.1620  144.3150 C   0  0  0  0  0  0  0  0  0  0  0  0
  188.8930  177.6940  145.9580 C   0  0  0  0  0  0  0  0  0  0  0  0
  187.8490  178.0190  143.0790 C   0  0  0  0  0  1  0  0  0  0  0  0
  187.5370  177.9660  145.6340 C   0  0  0  0  0  0  0  0  0  0  0  0
  184.8080  178.5390  145.2070 C   0  0  0  0  0  0  0  0  0  0  0  0
  187.0350  177.7640  147.9870 N   0  0  0  0  0  0  0  0  0  0  0  0
  185.6770  178.4540  144.1240 C   0  0  0  0  0  3  0  0  0  0  0  0
  183.3730  178.8500  144.9820 C   0  0  0  0  0  1  0  0  0  0  0  0
  190.6370  176.4320  144.7240 C   0  0  0  0  0  2  0  0  0  0  0  0
  191.6470  176.2480  145.6690 O   0  0  0  0  0  1  0  0  0  0  0  0
  1 26  1  0  0  0  0
  2  1  1  1  0  0  0
  3  5  1  6  0  0  0
  3  6  1  0  0  0  0
  4  3  1  0  0  0  0
  4  6  1  0  0  0  0
  4  2  1  1  0  0  0
  5  4  1  0  0  0  0
  7  2  1  0  0  0  0
  7 13  1  0  0  0  0
  7  8  1  1  0  0  0
  8  9  2  0  0  0  0
 11  8  1  0  0  0  0
 11 10  1  0  0  0  0
 13 12  1  6  0  0  0
 14 19  1  0  0  0  0
 15 19  1  0  0  0  0
 15 21  1  1  0  0  0
 16 17  1  0  0  0  0
 17 24  1  6  0  0  0
 17 15  1  0  0  0  0
 18 14  1  0  0  0  0
 19 21  1  0  0  0  0
 19 25  1  1  0  0  0
 20 22  1  0  0  0  0
 22 16  1  0  0  0  0
 22 13  1  1  0  0  0
 23 20  1  6  0  0  0
 23 24  1  0  0  0  0
 23 18  1  0  0  0  0
 26 27  1  0  0  0  0
 27 28  1  0  0  0  0
 28 29  1  0  0  0  0
 29 31  1  0  0  0  0
 30 29  2  0  0  0  0
 32 37  1  1  0  0  0
 33 31  1  1  0  0  0
 33 34  1  0  0  0  0
 33 32  1  0  0  0  0
 34 32  1  0  0  0  0
 35 39  1  0  0  0  0
 36 38  1  0  0  0  0
 37 41  1  0  0  0  0
 38 45  1  0  0  0  0
 40 43  1  0  0  0  0
 41 35  2  0  0  0  0
 42 40  1  0  0  0  0
 43 41  1  0  0  0  0
 43 38  2  0  0  0  0
 44 36  2  0  0  0  0
 45 39  2  0  0  0  0
 46 40  2  0  0  0  0
 46 44  1  0  0  0  0
 47 44  1  0  0  0  0
 48 37  1  0  0  0  0
 48 49  1  0  0  0  0
M  END
>  <MODEL>
2

>  <REMARK>
 VINA RESULT:      -7.3      1.594      2.241
  Name = 
  15 active torsions:
  status: ('A' for Active; 'I' for Inactive)
    1  A    between atoms: C_5  and  N_12
    2  A    between atoms: C_6  and  O_25
    3  A    between atoms: C_6  and  C_29
    4  A    between atoms: C_6  and  C_46
    5  A    between atoms: C_11  and  C_31
    6  A    between atoms: N_12  and  C_38
    7  A    between atoms: C_14  and  C_46
    8  A    between atoms: C_14  and  O_47
    9  A    between atoms: C_15  and  C_31
   10  A    between atoms: C_15  and  S_45
   11  A    between atoms: C_17  and  O_25
   12  A    between atoms: C_17  and  C_48
   13  A    between atoms: C_36  and  C_39
   14  A    between atoms: C_39  and  C_46
   15  A    between atoms: S_45  and  C_48
                            x       y       z     vdW  Elec       q    Type
                         _______ _______ _______ _____ _____    ______ ____

>  <TORSDO>
F 15

$$$$
=
 OpenBabel11062410583D

 49 56  0  0  1  0  0  0  0  0999 V2000
  185.9560  178.5850  139.0710 O   0  0  0  0  0  0  0  0  0  0  0  0
  184.8460  178.4020  138.2300 C   0  0  1  0  0  3  0  0  0  0  0  0
  184.0040  177.2320  136.2610 C   0  0  2  0  0  3  0  0  0  0  0  0
  184.9530  177.0980  137.4370 C   0  0  2  0  0  0  0  0  0  0  0  0
  183.6520  176.3170  137.4170 C   0  0  0  0  0  2  0  0  0  0  0  0
  185.4990  177.2400  136.0280 C   0  0  0  0  0  2  0  0  0  0  0  0
  183.5250  178.4220  139.0260 C   0  0  1  0  0  3  0  0  0  0  0  0
  183.7310  178.0360  140.4680 C   0  0  0  0  0  0  0  0  0  0  0  0
  183.4380  176.8740  140.8640 O   0  0  0  0  0  0  0  0  0  0  0  0
  183.7940  179.0850  142.6910 C   0  0  0  0  0  1  0  0  0  0  0  0
  184.2580  178.9770  141.3510 O   0  0  0  0  0  0  0  0  0  0  0  0
  183.6760  180.7970  138.7460 O   0  0  0  0  0  1  0  0  0  0  0  0
  182.7610  179.7430  138.8420 C   0  0  1  0  0  3  0  0  0  0  0  0
  179.2590  180.8470  140.5400 C   0  0  0  0  0  2  0  0  0  0  0  0
  180.2120  178.3970  139.8570 C   0  0  1  0  0  3  0  0  0  0  0  0
  181.0460  178.5360  137.5350 O   0  0  0  0  0  0  0  0  0  0  0  0
  179.9010  178.6500  138.3620 C   0  0  2  0  0  3  0  0  0  0  0  0
  180.0860  181.5860  139.4980 C   0  0  0  0  0  2  0  0  0  0  0  0
  179.8940  179.5000  140.8660 C   0  0  2  0  0  0  0  0  0  0  0  0
  181.0930  181.0060  137.2730 C   0  0  0  0  0  2  0  0  0  0  0  0
  178.9310  178.3510  140.6790 C   0  0  0  0  0  2  0  0  0  0  0  0
  181.8580  179.7030  137.5940 C   0  0  1  0  0  3  0  0  0  0  0  0
  179.7960  181.1300  138.0650 C   0  0  1  0  0  3  0  0  0  0  0  0
  179.0100  179.8280  137.9670 C   0  0  0  0  0  2  0  0  0  0  0  0
  180.5660  179.4030  142.0820 O   0  0  0  0  0  1  0  0  0  0  0  0
  187.0690  178.2360  138.3030 C   0  0  0  0  0  2  0  0  0  0  0  0
  188.3140  178.2430  139.1610 C   0  0  0  0  0  2  0  0  0  0  0  0
  189.5990  177.2660  138.3350 S   0  0  0  0  0  0  0  0  0  0  0  0
  190.5450  177.0600  139.8470 C   0  0  0  0  0  0  0  0  0  0  0  0
  191.8470  177.3140  139.8310 C   0  0  0  0  0  2  0  0  0  0  0  0
  189.9310  176.5640  141.1290 C   0  0  0  0  0  2  0  0  0  0  0  0
  191.1600  176.4900  143.4140 C   0  0  2  0  0  3  0  0  0  0  0  0
  190.9180  175.8370  142.0420 C   0  0  1  0  0  3  0  0  0  0  0  0
  190.1690  175.3440  143.2610 C   0  0  0  0  0  2  0  0  0  0  0  0
  188.1950  178.3100  143.1870 N   0  0  0  0  0  0  0  0  0  0  0  0
  187.0140  177.5400  147.0610 C   0  0  0  0  0  3  0  0  0  0  0  0
  190.5000  177.7960  143.5610 N   0  0  0  0  0  0  0  0  0  0  0  0
  187.4430  177.7930  145.7610 C   0  0  0  0  0  0  0  0  0  0  0  0
  186.8970  178.4250  143.5550 C   0  0  0  0  0  3  0  0  0  0  0  0
  189.7500  177.3790  146.4590 C   0  0  0  0  0  0  0  0  0  0  0  0
  189.1630  177.9360  144.0660 C   0  0  0  0  0  0  0  0  0  0  0  0
  191.2270  177.3560  146.2760 C   0  0  0  0  0  1  0  0  0  0  0  0
  188.8210  177.6890  145.4220 C   0  0  0  0  0  0  0  0  0  0  0  0
  187.9300  177.1930  148.0520 C   0  0  0  0  0  0  0  0  0  0  0  0
  186.5290  178.1590  144.8290 N   0  0  0  0  0  0  0  0  0  0  0  0
  189.2880  177.1270  147.7550 C   0  0  0  0  0  3  0  0  0  0  0  0
  187.4610  176.9220  149.4360 C   0  0  0  0  0  1  0  0  0  0  0  0
  191.1740  178.9850  143.0610 C   0  0  0  0  0  2  0  0  0  0  0  0
  191.1380  179.9930  144.0260 O   0  0  0  0  0  1  0  0  0  0  0  0
  2  7  1  0  0  0  0
  2  1  1  1  0  0  0
  3  6  1  6  0  0  0
  3  5  1  0  0  0  0
  3  4  1  0  0  0  0
  4  2  1  1  0  0  0
  5  4  1  0  0  0  0
  6  4  1  0  0  0  0
  7  8  1  1  0  0  0
  8  9  2  0  0  0  0
  8 11  1  0  0  0  0
 11 10  1  0  0  0  0
 13 12  1  6  0  0  0
 13  7  1  0  0  0  0
 14 19  1  0  0  0  0
 15 21  1  1  0  0  0
 15 19  1  0  0  0  0
 16 22  1  0  0  0  0
 16 17  1  0  0  0  0
 17 24  1  1  0  0  0
 17 15  1  0  0  0  0
 18 14  1  0  0  0  0
 19 25  1  1  0  0  0
 20 22  1  0  0  0  0
 21 19  1  0  0  0  0
 22 13  1  1  0  0  0
 23 20  1  6  0  0  0
 23 18  1  0  0  0  0
 24 23  1  0  0  0  0
 26  1  1  0  0  0  0
 26 27  1  0  0  0  0
 28 27  1  0  0  0  0
 28 29  1  0  0  0  0
 29 31  1  0  0  0  0
 30 29  2  0  0  0  0
 32 37  1  6  0  0  0
 33 31  1  6  0  0  0
 33 34  1  0  0  0  0
 33 32  1  0  0  0  0
 34 32  1  0  0  0  0
 35 39  2  0  0  0  0
 35 41  1  0  0  0  0
 36 44  2  0  0  0  0
 37 41  1  0  0  0  0
 38 36  1  0  0  0  0
 39 45  1  0  0  0  0
 40 46  2  0  0  0  0
 41 43  2  0  0  0  0
 42 40  1  0  0  0  0
 43 38  1  0  0  0  0
 43 40  1  0  0  0  0
 44 47  1  0  0  0  0
 45 38  2  0  0  0  0
 46 44  1  0  0  0  0
 48 37  1  0  0  0  0
 48 49  1  0  0  0  0
M  END
>  <MODEL>
3

>  <REMARK>
 VINA RESULT:      -7.2      2.467      4.187
  Name = 
  15 active torsions:
  status: ('A' for Active; 'I' for Inactive)
    1  A    between atoms: C_5  and  N_12
    2  A    between atoms: C_6  and  O_25
    3  A    between atoms: C_6  and  C_29
    4  A    between atoms: C_6  and  C_46
    5  A    between atoms: C_11  and  C_31
    6  A    between atoms: N_12  and  C_38
    7  A    between atoms: C_14  and  C_46
    8  A    between atoms: C_14  and  O_47
    9  A    between atoms: C_15  and  C_31
   10  A    between atoms: C_15  and  S_45
   11  A    between atoms: C_17  and  O_25
   12  A    between atoms: C_17  and  C_48
   13  A    between atoms: C_36  and  C_39
   14  A    between atoms: C_39  and  C_46
   15  A    between atoms: S_45  and  C_48
                            x       y       z     vdW  Elec       q    Type
                         _______ _______ _______ _____ _____    ______ ____

>  <TORSDO>
F 15

$$$$
=
 OpenBabel11062410583D

 49 56  0  0  1  0  0  0  0  0999 V2000
  185.9180  176.7610  137.9910 O   0  0  0  0  0  0  0  0  0  0  0  0
  184.9800  176.2060  137.1050 C   0  0  1  0  0  3  0  0  0  0  0  0
  184.2880  174.2460  135.8280 C   0  0  2  0  0  3  0  0  0  0  0  0
  185.1290  174.6860  137.0110 C   0  0  2  0  0  0  0  0  0  0  0  0
  183.8200  173.9540  137.2400 C   0  0  0  0  0  2  0  0  0  0  0  0
  185.7970  174.1790  135.7450 C   0  0  0  0  0  2  0  0  0  0  0  0
  183.5360  176.5640  137.5140 C   0  0  1  0  0  3  0  0  0  0  0  0
  183.4800  177.2100  138.8740 C   0  0  0  0  0  0  0  0  0  0  0  0
  183.0550  176.5610  139.8700 O   0  0  0  0  0  0  0  0  0  0  0  0
  184.4280  179.0160  140.2470 C   0  0  0  0  0  1  0  0  0  0  0  0
  183.9130  178.5280  139.0150 O   0  0  0  0  0  0  0  0  0  0  0  0
  183.6800  177.5760  135.3480 O   0  0  0  0  0  1  0  0  0  0  0  0
  182.8070  177.3610  136.4200 C   0  0  1  0  0  3  0  0  0  0  0  0
  180.3540  180.5450  135.9700 C   0  0  0  0  0  2  0  0  0  0  0  0
  180.5670  178.7320  137.9810 C   0  0  1  0  0  3  0  0  0  0  0  0
  180.5650  176.4800  136.9650 O   0  0  0  0  0  0  0  0  0  0  0  0
  179.8120  177.6660  137.1510 C   0  0  2  0  0  3  0  0  0  0  0  0
  180.8900  179.5990  134.9050 C   0  0  0  0  0  2  0  0  0  0  0  0
  180.8150  180.1040  137.3540 C   0  0  2  0  0  0  0  0  0  0  0  0
  180.9540  177.1090  134.5940 C   0  0  0  0  0  2  0  0  0  0  0  0
  179.6590  179.9100  138.3090 C   0  0  0  0  0  2  0  0  0  0  0  0
  181.5390  176.6290  135.9400 C   0  0  1  0  0  3  0  0  0  0  0  0
  180.0510  178.3270  134.7530 C   0  0  1  0  0  3  0  0  0  0  0  0
  179.0610  178.0860  135.8880 C   0  0  0  0  0  2  0  0  0  0  0  0
  181.8350  180.8490  137.9420 O   0  0  0  0  0  1  0  0  0  0  0  0
  186.7750  177.5270  137.1980 C   0  0  0  0  0  2  0  0  0  0  0  0
  188.1350  177.6260  137.8500 C   0  0  0  0  0  2  0  0  0  0  0  0
  188.7180  175.9550  138.2420 S   0  0  0  0  0  0  0  0  0  0  0  0
  190.0520  176.5630  139.2790 C   0  0  0  0  0  0  0  0  0  0  0  0
  191.2230  176.8460  138.7220 C   0  0  0  0  0  2  0  0  0  0  0  0
  189.9150  176.7230  140.7690 C   0  0  0  0  0  2  0  0  0  0  0  0
  190.3560  178.2740  142.8030 C   0  0  2  0  0  3  0  0  0  0  0  0
  190.2860  178.1170  141.2740 C   0  0  1  0  0  3  0  0  0  0  0  0
  191.6190  178.0290  141.9870 C   0  0  0  0  0  2  0  0  0  0  0  0
  189.7380  176.7980  145.9010 N   0  0  0  0  0  0  0  0  0  0  0  0
  185.8380  178.1130  146.1430 C   0  0  0  0  0  3  0  0  0  0  0  0
  189.9100  177.0770  143.5320 N   0  0  0  0  0  0  0  0  0  0  0  0
  187.1540  177.6730  146.0290 C   0  0  0  0  0  0  0  0  0  0  0  0
  189.1030  176.8750  147.0940 C   0  0  0  0  0  3  0  0  0  0  0  0
  186.9990  177.8890  143.5980 C   0  0  0  0  0  0  0  0  0  0  0  0
  189.1300  177.1490  144.7350 C   0  0  0  0  0  0  0  0  0  0  0  0
  187.4790  177.7200  142.2000 C   0  0  0  0  0  1  0  0  0  0  0  0
  187.7770  177.5780  144.7530 C   0  0  0  0  0  0  0  0  0  0  0  0
  185.1080  178.4560  145.0070 C   0  0  0  0  0  0  0  0  0  0  0  0
  187.8260  177.3180  147.1530 N   0  0  0  0  0  0  0  0  0  0  0  0
  185.6800  178.3310  143.7450 C   0  0  0  0  0  3  0  0  0  0  0  0
  183.7050  178.9270  145.1400 C   0  0  0  0  0  1  0  0  0  0  0  0
  190.3770  175.7710  143.0920 C   0  0  0  0  0  2  0  0  0  0  0  0
  191.5410  175.4260  143.7800 O   0  0  0  0  0  1  0  0  0  0  0  0
  2  7  1  0  0  0  0
  2  1  1  1  0  0  0
  3  6  1  6  0  0  0
  3  4  1  0  0  0  0
  3  5  1  0  0  0  0
  4  2  1  1  0  0  0
  4  5  1  0  0  0  0
  6  4  1  0  0  0  0
  7  8  1  1  0  0  0
  8 11  1  0  0  0  0
  8  9  2  0  0  0  0
 11 10  1  0  0  0  0
 13 12  1  6  0  0  0
 13  7  1  0  0  0  0
 14 19  1  0  0  0  0
 15 21  1  1  0  0  0
 16 17  1  0  0  0  0
 17 24  1  6  0  0  0
 17 15  1  0  0  0  0
 18 14  1  0  0  0  0
 19 25  1  1  0  0  0
 19 15  1  0  0  0  0
 19 21  1  0  0  0  0
 20 22  1  0  0  0  0
 22 13  1  1  0  0  0
 22 16  1  0  0  0  0
 23 20  1  1  0  0  0
 23 18  1  0  0  0  0
 23 24  1  0  0  0  0
 26 27  1  0  0  0  0
 26  1  1  0  0  0  0
 27 28  1  0  0  0  0
 28 29  1  0  0  0  0
 29 31  1  0  0  0  0
 30 29  2  0  0  0  0
 32 37  1  1  0  0  0
 33 31  1  1  0  0  0
 33 34  1  0  0  0  0
 33 32  1  0  0  0  0
 34 32  1  0  0  0  0
 35 39  1  0  0  0  0
 37 41  1  0  0  0  0
 38 36  1  0  0  0  0
 38 45  1  0  0  0  0
 39 45  2  0  0  0  0
 40 46  2  0  0  0  0
 40 43  1  0  0  0  0
 41 43  1  0  0  0  0
 41 35  2  0  0  0  0
 42 40  1  0  0  0  0
 43 38  2  0  0  0  0
 44 47  1  0  0  0  0
 44 36  2  0  0  0  0
 46 44  1  0  0  0  0
 48 37  1  0  0  0  0
 48 49  1  0  0  0  0
M  END
>  <MODEL>
4

>  <REMARK>
 VINA RESULT:      -7.1      1.594      2.837
  Name = 
  15 active torsions:
  status: ('A' for Active; 'I' for Inactive)
    1  A    between atoms: C_5  and  N_12
    2  A    between atoms: C_6  and  O_25
    3  A    between atoms: C_6  and  C_29
    4  A    between atoms: C_6  and  C_46
    5  A    between atoms: C_11  and  C_31
    6  A    between atoms: N_12  and  C_38
    7  A    between atoms: C_14  and  C_46
    8  A    between atoms: C_14  and  O_47
    9  A    between atoms: C_15  and  C_31
   10  A    between atoms: C_15  and  S_45
   11  A    between atoms: C_17  and  O_25
   12  A    between atoms: C_17  and  C_48
   13  A    between atoms: C_36  and  C_39
   14  A    between atoms: C_39  and  C_46
   15  A    between atoms: S_45  and  C_48
                            x       y       z     vdW  Elec       q    Type
                         _______ _______ _______ _____ _____    ______ ____

>  <TORSDO>
F 15

$$$$
=
 OpenBabel11062410583D

 49 56  0  0  1  0  0  0  0  0999 V2000
  184.1280  178.2500  144.3190 O   0  0  0  0  0  0  0  0  0  0  0  0
  185.4710  178.6130  144.1280 C   0  0  1  0  0  3  0  0  0  0  0  0
  185.3940  178.2230  146.5350 C   0  0  2  0  0  3  0  0  0  0  0  0
  186.3290  178.2450  145.3410 C   0  0  2  0  0  0  0  0  0  0  0  0
  186.3890  179.3550  146.3730 C   0  0  0  0  0  2  0  0  0  0  0  0
  185.9740  176.9280  146.0090 C   0  0  0  0  0  2  0  0  0  0  0  0
  186.0570  177.9620  142.8580 C   0  0  1  0  0  3  0  0  0  0  0  0
  185.8550  178.8240  141.6400 C   0  0  0  0  0  0  0  0  0  0  0  0
  186.0260  180.0730  141.7070 O   0  0  0  0  0  0  0  0  0  0  0  0
  186.2860  178.3380  139.2680 C   0  0  0  0  0  1  0  0  0  0  0  0
  185.4870  178.2200  140.4380 O   0  0  0  0  0  0  0  0  0  0  0  0
  187.5570  176.1120  143.1180 O   0  0  0  0  0  1  0  0  0  0  0  0
  187.5120  177.5090  143.0620 C   0  0  1  0  0  3  0  0  0  0  0  0
  191.0210  175.9170  144.2920 C   0  0  0  0  0  2  0  0  0  0  0  0
  190.0160  178.4270  144.5530 C   0  0  1  0  0  3  0  0  0  0  0  0
  189.2100  179.1480  142.3320 O   0  0  0  0  0  0  0  0  0  0  0  0
  190.3490  178.7550  143.0790 C   0  0  2  0  0  3  0  0  0  0  0  0
  190.2240  175.6050  143.0340 C   0  0  0  0  0  2  0  0  0  0  0  0
  190.3490  177.0330  145.0850 C   0  0  2  0  0  0  0  0  0  0  0  0
  189.2270  176.9540  141.1670 C   0  0  0  0  0  2  0  0  0  0  0  0
  191.2860  178.1870  145.3580 C   0  0  0  0  0  2  0  0  0  0  0  0
  188.4270  178.0290  141.9360 C   0  0  1  0  0  3  0  0  0  0  0  0
  190.5180  176.5680  141.8810 C   0  0  1  0  0  3  0  0  0  0  0  0
  191.2730  177.8280  142.2900 C   0  0  0  0  0  2  0  0  0  0  0  0
  189.6620  176.6560  146.2360 O   0  0  0  0  0  1  0  0  0  0  0  0
  183.3840  179.3910  144.0090 C   0  0  0  0  0  2  0  0  0  0  0  0
  182.0120  178.9970  143.5130 C   0  0  0  0  0  2  0  0  0  0  0  0
  182.1150  178.6260  141.7410 S   0  0  0  0  0  0  0  0  0  0  0  0
  180.3420  178.3810  141.5940 C   0  0  0  0  0  0  0  0  0  0  0  0
  179.5680  178.6370  142.6410 C   0  0  0  0  0  2  0  0  0  0  0  0
  179.6960  177.8490  140.3430 C   0  0  0  0  0  2  0  0  0  0  0  0
  179.0940  175.5060  139.4030 C   0  0  2  0  0  3  0  0  0  0  0  0
  178.9590  176.5260  140.5470 C   0  0  1  0  0  3  0  0  0  0  0  0
  179.9850  175.4160  140.6350 C   0  0  0  0  0  2  0  0  0  0  0  0
  182.0650  176.8030  138.1190 N   0  0  0  0  0  0  0  0  0  0  0  0
  183.6400  173.1300  137.1050 C   0  0  0  0  0  3  0  0  0  0  0  0
  179.8010  176.0390  138.2290 N   0  0  0  0  0  0  0  0  0  0  0  0
  183.0790  174.3570  137.4470 C   0  0  0  0  0  0  0  0  0  0  0  0
  183.3980  176.6410  137.9440 C   0  0  0  0  0  3  0  0  0  0  0  0
  180.8520  173.3550  137.3200 C   0  0  0  0  0  0  0  0  0  0  0  0
  181.1880  175.7730  137.9730 C   0  0  0  0  0  0  0  0  0  0  0  0
  179.3630  173.3810  137.3150 C   0  0  0  0  0  1  0  0  0  0  0  0
  181.6700  174.4920  137.5920 C   0  0  0  0  0  0  0  0  0  0  0  0
  182.8290  172.0180  136.8880 C   0  0  0  0  0  0  0  0  0  0  0  0
  183.8960  175.4260  137.6210 N   0  0  0  0  0  0  0  0  0  0  0  0
  181.4450  172.1350  136.9820 C   0  0  0  0  0  3  0  0  0  0  0  0
  183.4380  170.7130  136.5260 C   0  0  0  0  0  1  0  0  0  0  0  0
  179.1080  176.9770  137.3560 C   0  0  0  0  0  2  0  0  0  0  0  0
  179.4850  176.7590  136.0310 O   0  0  0  0  0  1  0  0  0  0  0  0
  2  1  1  1  0  0  0
  3  6  1  1  0  0  0
  4  2  1  6  0  0  0
  4  6  1  0  0  0  0
  4  5  1  0  0  0  0
  4  3  1  0  0  0  0
  5  3  1  0  0  0  0
  7  8  1  6  0  0  0
  7 13  1  0  0  0  0
  7  2  1  0  0  0  0
  8  9  2  0  0  0  0
 10 11  1  0  0  0  0
 11  8  1  0  0  0  0
 13 12  1  6  0  0  0
 14 19  1  0  0  0  0
 15 19  1  0  0  0  0
 15 21  1  1  0  0  0
 16 17  1  0  0  0  0
 17 24  1  6  0  0  0
 17 15  1  0  0  0  0
 18 14  1  0  0  0  0
 19 21  1  0  0  0  0
 19 25  1  1  0  0  0
 20 22  1  0  0  0  0
 22 16  1  0  0  0  0
 22 13  1  1  0  0  0
 23 20  1  1  0  0  0
 23 24  1  0  0  0  0
 23 18  1  0  0  0  0
 26  1  1  0  0  0  0
 27 26  1  0  0  0  0
 28 27  1  0  0  0  0
 29 28  1  0  0  0  0
 29 30  2  0  0  0  0
 31 29  1  0  0  0  0
 32 37  1  6  0  0  0
 32 33  1  0  0  0  0
 32 34  1  0  0  0  0
 33 31  1  6  0  0  0
 33 34  1  0  0  0  0
 36 38  1  0  0  0  0
 38 43  1  0  0  0  0
 38 45  2  0  0  0  0
 39 35  2  0  0  0  0
 40 43  1  0  0  0  0
 41 35  1  0  0  0  0
 41 37  1  0  0  0  0
 42 40  1  0  0  0  0
 43 41  2  0  0  0  0
 44 46  1  0  0  0  0
 44 36  2  0  0  0  0
 45 39  1  0  0  0  0
 46 40  2  0  0  0  0
 47 44  1  0  0  0  0
 48 37  1  0  0  0  0
 49 48  1  0  0  0  0
M  END
>  <MODEL>
5

>  <REMARK>
 VINA RESULT:      -7.0      3.743     10.038
  Name = 
  15 active torsions:
  status: ('A' for Active; 'I' for Inactive)
    1  A    between atoms: C_5  and  N_12
    2  A    between atoms: C_6  and  O_25
    3  A    between atoms: C_6  and  C_29
    4  A    between atoms: C_6  and  C_46
    5  A    between atoms: C_11  and  C_31
    6  A    between atoms: N_12  and  C_38
    7  A    between atoms: C_14  and  C_46
    8  A    between atoms: C_14  and  O_47
    9  A    between atoms: C_15  and  C_31
   10  A    between atoms: C_15  and  S_45
   11  A    between atoms: C_17  and  O_25
   12  A    between atoms: C_17  and  C_48
   13  A    between atoms: C_36  and  C_39
   14  A    between atoms: C_39  and  C_46
   15  A    between atoms: S_45  and  C_48
                            x       y       z     vdW  Elec       q    Type
                         _______ _______ _______ _____ _____    ______ ____

>  <TORSDO>
F 15

$$$$
=
 OpenBabel11062410583D

 49 56  0  0  1  0  0  0  0  0999 V2000
  189.3690  176.5050  137.4390 O   0  0  0  0  0  0  0  0  0  0  0  0
  190.4150  176.6020  138.3720 C   0  0  1  0  0  3  0  0  0  0  0  0
  192.5350  175.4680  137.9590 C   0  0  2  0  0  3  0  0  0  0  0  0
  191.7720  176.7480  137.6790 C   0  0  2  0  0  0  0  0  0  0  0  0
  192.9300  176.7540  138.6570 C   0  0  0  0  0  2  0  0  0  0  0  0
  192.0370  175.7550  136.5600 C   0  0  0  0  0  2  0  0  0  0  0  0
  190.1970  177.7800  139.3440 C   0  0  1  0  0  3  0  0  0  0  0  0
  189.0030  178.6140  138.9590 C   0  0  0  0  0  0  0  0  0  0  0  0
  187.9720  178.6250  139.6880 O   0  0  0  0  0  0  0  0  0  0  0  0
  188.0070  179.3550  136.8360 C   0  0  0  0  0  1  0  0  0  0  0  0
  189.0580  179.3770  137.7940 O   0  0  0  0  0  0  0  0  0  0  0  0
  190.1780  175.9230  140.8580 O   0  0  0  0  0  1  0  0  0  0  0  0
  190.1850  177.3220  140.8110 C   0  0  1  0  0  3  0  0  0  0  0  0
  189.3410  175.8420  144.4800 C   0  0  0  0  0  2  0  0  0  0  0  0
  188.9560  178.3150  143.4260 C   0  0  1  0  0  3  0  0  0  0  0  0
  191.0750  179.0200  142.3680 O   0  0  0  0  0  0  0  0  0  0  0  0
  190.4540  178.6620  143.5910 C   0  0  2  0  0  3  0  0  0  0  0  0
  190.5120  175.5090  143.5660 C   0  0  0  0  0  2  0  0  0  0  0  0
  188.4730  176.9310  143.8580 C   0  0  2  0  0  0  0  0  0  0  0  0
  192.2520  176.8340  142.3350 C   0  0  0  0  0  2  0  0  0  0  0  0
  188.2900  178.1150  144.7800 C   0  0  0  0  0  2  0  0  0  0  0  0
  191.3960  177.8770  141.5850 C   0  0  1  0  0  3  0  0  0  0  0  0
  191.6810  176.4880  143.7050 C   0  0  1  0  0  3  0  0  0  0  0  0
  191.3430  177.7700  144.4580 C   0  0  0  0  0  2  0  0  0  0  0  0
  187.2600  176.5260  143.3090 O   0  0  0  0  0  1  0  0  0  0  0  0
  188.7740  175.2630  137.6720 C   0  0  0  0  0  2  0  0  0  0  0  0
  187.3490  175.2680  137.1670 C   0  0  0  0  0  2  0  0  0  0  0  0
  186.8640  173.5660  136.7700 S   0  0  0  0  0  0  0  0  0  0  0  0
  185.1460  173.8560  137.2040 C   0  0  0  0  0  0  0  0  0  0  0  0
  184.3710  172.8190  137.4950 C   0  0  0  0  0  2  0  0  0  0  0  0
  184.5290  175.2290  137.2040 C   0  0  0  0  0  2  0  0  0  0  0  0
  182.2350  176.2530  136.5520 C   0  0  2  0  0  3  0  0  0  0  0  0
  183.4590  175.4220  136.1300 C   0  0  1  0  0  3  0  0  0  0  0  0
  183.3840  176.8940  135.7870 C   0  0  0  0  0  2  0  0  0  0  0  0
  183.9260  177.7950  139.1820 N   0  0  0  0  0  0  0  0  0  0  0  0
  182.3030  181.5240  138.5030 C   0  0  0  0  0  3  0  0  0  0  0  0
  182.2350  176.6050  137.9790 N   0  0  0  0  0  0  0  0  0  0  0  0
  182.8260  180.2510  138.7160 C   0  0  0  0  0  0  0  0  0  0  0  0
  184.5310  178.9130  139.6490 C   0  0  0  0  0  3  0  0  0  0  0  0
  180.8880  179.2820  137.5830 C   0  0  0  0  0  0  0  0  0  0  0  0
  182.7670  177.8450  138.4710 C   0  0  0  0  0  0  0  0  0  0  0  0
  180.0100  178.1650  137.1370 C   0  0  0  0  0  1  0  0  0  0  0  0
  182.1440  179.0990  138.2340 C   0  0  0  0  0  0  0  0  0  0  0  0
  181.0960  181.6860  137.8250 C   0  0  0  0  0  0  0  0  0  0  0  0
  183.9860  180.1280  139.4070 N   0  0  0  0  0  0  0  0  0  0  0  0
  180.3890  180.5730  137.3810 C   0  0  0  0  0  3  0  0  0  0  0  0
  180.5480  183.0480  137.6000 C   0  0  0  0  0  1  0  0  0  0  0  0
  181.7960  175.6120  138.9500 C   0  0  0  0  0  2  0  0  0  0  0  0
  181.0470  176.2270  139.9530 O   0  0  0  0  0  1  0  0  0  0  0  0
  1 26  1  0  0  0  0
  2  1  1  6  0  0  0
  2  7  1  0  0  0  0
  3  6  1  6  0  0  0
  3  5  1  0  0  0  0
  4  3  1  0  0  0  0
  4  2  1  1  0  0  0
  4  5  1  0  0  0  0
  6  4  1  0  0  0  0
  7  8  1  6  0  0  0
  7 13  1  0  0  0  0
  8  9  2  0  0  0  0
 10 11  1  0  0  0  0
 11  8  1  0  0  0  0
 13 12  1  6  0  0  0
 15 17  1  0  0  0  0
 15 19  1  0  0  0  0
 15 21  1  1  0  0  0
 16 17  1  0  0  0  0
 17 24  1  6  0  0  0
 18 23  1  0  0  0  0
 18 14  1  0  0  0  0
 19 25  1  6  0  0  0
 19 14  1  0  0  0  0
 19 21  1  0  0  0  0
 22 13  1  1  0  0  0
 22 20  1  0  0  0  0
 22 16  1  0  0  0  0
 23 20  1  6  0  0  0
 23 24  1  0  0  0  0
 27 26  1  0  0  0  0
 28 27  1  0  0  0  0
 28 29  1  0  0  0  0
 29 30  2  0  0  0  0
 31 29  1  0  0  0  0
 32 37  1  1  0  0  0
 33 32  1  0  0  0  0
 33 31  1  1  0  0  0
 34 33  1  0  0  0  0
 34 32  1  0  0  0  0
 35 39  1  0  0  0  0
 36 38  1  0  0  0  0
 37 41  1  0  0  0  0
 37 48  1  0  0  0  0
 38 45  1  0  0  0  0
 40 43  1  0  0  0  0
 41 35  2  0  0  0  0
 42 40  1  0  0  0  0
 43 41  1  0  0  0  0
 43 38  2  0  0  0  0
 44 36  2  0  0  0  0
 45 39  2  0  0  0  0
 46 40  2  0  0  0  0
 46 44  1  0  0  0  0
 47 44  1  0  0  0  0
 48 49  1  0  0  0  0
M  END
>  <MODEL>
6

>  <REMARK>
 VINA RESULT:      -6.8      3.170      8.339
  Name = 
  15 active torsions:
  status: ('A' for Active; 'I' for Inactive)
    1  A    between atoms: C_5  and  N_12
    2  A    between atoms: C_6  and  O_25
    3  A    between atoms: C_6  and  C_29
    4  A    between atoms: C_6  and  C_46
    5  A    between atoms: C_11  and  C_31
    6  A    between atoms: N_12  and  C_38
    7  A    between atoms: C_14  and  C_46
    8  A    between atoms: C_14  and  O_47
    9  A    between atoms: C_15  and  C_31
   10  A    between atoms: C_15  and  S_45
   11  A    between atoms: C_17  and  O_25
   12  A    between atoms: C_17  and  C_48
   13  A    between atoms: C_36  and  C_39
   14  A    between atoms: C_39  and  C_46
   15  A    between atoms: S_45  and  C_48
                            x       y       z     vdW  Elec       q    Type
                         _______ _______ _______ _____ _____    ______ ____

>  <TORSDO>
F 15

$$$$
=
 OpenBabel11062410583D

 49 56  0  0  1  0  0  0  0  0999 V2000
  185.2610  178.7890  139.4040 O   0  0  0  0  0  0  0  0  0  0  0  0
  184.3670  178.1890  140.3060 C   0  0  1  0  0  3  0  0  0  0  0  0
  184.3840  178.2530  142.7450 C   0  0  2  0  0  3  0  0  0  0  0  0
  184.0990  179.0910  141.5130 C   0  0  2  0  0  0  0  0  0  0  0  0
  182.9540  178.5920  142.3740 C   0  0  0  0  0  2  0  0  0  0  0  0
  185.3110  179.3910  142.3780 C   0  0  0  0  0  2  0  0  0  0  0  0
  183.0330  177.8250  139.6210 C   0  0  1  0  0  3  0  0  0  0  0  0
  182.2260  179.0490  139.2760 C   0  0  0  0  0  0  0  0  0  0  0  0
  180.9940  179.0970  139.5480 O   0  0  0  0  0  0  0  0  0  0  0  0
  182.3120  181.4380  138.7000 C   0  0  0  0  0  1  0  0  0  0  0  0
  182.8610  180.1280  138.6610 O   0  0  0  0  0  0  0  0  0  0  0  0
  183.1090  175.5450  138.8910 O   0  0  0  0  0  1  0  0  0  0  0  0
  183.2360  176.8640  138.4400 C   0  0  1  0  0  3  0  0  0  0  0  0
  184.4510  174.0600  135.7890 C   0  0  0  0  0  2  0  0  0  0  0  0
  184.9520  176.7270  135.9150 C   0  0  1  0  0  3  0  0  0  0  0  0
  182.7910  177.8830  136.2340 O   0  0  0  0  0  0  0  0  0  0  0  0
  183.5450  177.0560  135.3630 C   0  0  2  0  0  3  0  0  0  0  0  0
  183.1250  174.1570  136.5300 C   0  0  0  0  0  2  0  0  0  0  0  0
  185.3330  175.2600  136.1160 C   0  0  2  0  0  0  0  0  0  0  0  0
  181.3810  175.9330  136.8490 C   0  0  0  0  0  2  0  0  0  0  0  0
  185.7870  175.9930  134.8750 C   0  0  0  0  0  2  0  0  0  0  0  0
  182.2270  177.1410  137.3080 C   0  0  1  0  0  3  0  0  0  0  0  0
  182.1100  175.0640  135.8300 C   0  0  1  0  0  3  0  0  0  0  0  0
  182.7010  175.9460  134.7360 C   0  0  0  0  0  2  0  0  0  0  0  0
  186.3950  175.0370  136.9880 O   0  0  0  0  0  1  0  0  0  0  0  0
  186.5160  178.2580  139.7120 C   0  0  0  0  0  2  0  0  0  0  0  0
  187.3240  178.0710  138.4490 C   0  0  0  0  0  2  0  0  0  0  0  0
  189.0210  178.6340  138.7520 S   0  0  0  0  0  0  0  0  0  0  0  0
  189.5130  177.0630  139.4670 C   0  0  0  0  0  0  0  0  0  0  0  0
  189.3500  175.9530  138.7580 C   0  0  0  0  0  2  0  0  0  0  0  0
  190.0630  176.9420  140.8630 C   0  0  0  0  0  2  0  0  0  0  0  0
  191.1650  178.1870  142.8560 C   0  0  2  0  0  3  0  0  0  0  0  0
  190.6380  178.2470  141.4120 C   0  0  1  0  0  3  0  0  0  0  0  0
  192.1150  178.0480  141.6740 C   0  0  0  0  0  2  0  0  0  0  0  0
  191.4720  176.2740  145.7550 N   0  0  0  0  0  0  0  0  0  0  0  0
  187.9540  177.6170  147.4340 C   0  0  0  0  0  3  0  0  0  0  0  0
  190.8940  176.9040  143.5210 N   0  0  0  0  0  0  0  0  0  0  0  0
  189.1310  177.1730  146.8380 C   0  0  0  0  0  0  0  0  0  0  0  0
  191.2580  176.1830  147.0890 C   0  0  0  0  0  3  0  0  0  0  0  0
  188.2210  177.7550  144.6440 C   0  0  0  0  0  0  0  0  0  0  0  0
  190.5480  176.8090  144.9110 C   0  0  0  0  0  0  0  0  0  0  0  0
  188.2160  177.7890  143.1560 C   0  0  0  0  0  1  0  0  0  0  0  0
  189.3040  177.2580  145.4280 C   0  0  0  0  0  0  0  0  0  0  0  0
  186.9230  178.1420  146.6560 C   0  0  0  0  0  0  0  0  0  0  0  0
  190.1010  176.6380  147.6210 N   0  0  0  0  0  0  0  0  0  0  0  0
  187.0520  178.1970  145.2720 C   0  0  0  0  0  3  0  0  0  0  0  0
  185.6730  178.6160  147.3030 C   0  0  0  0  0  1  0  0  0  0  0  0
  191.1060  175.6690  142.7800 C   0  0  0  0  0  2  0  0  0  0  0  0
  190.2120  174.6910  143.2180 O   0  0  0  0  0  1  0  0  0  0  0  0
  1 26  1  0  0  0  0
  2  1  1  6  0  0  0
  3  5  1  1  0  0  0
  4  2  1  6  0  0  0
  4  5  1  0  0  0  0
  4  6  1  0  0  0  0
  4  3  1  0  0  0  0
  6  3  1  0  0  0  0
  7  8  1  6  0  0  0
  7  2  1  0  0  0  0
  8  9  2  0  0  0  0
 11 10  1  0  0  0  0
 11  8  1  0  0  0  0
 13 12  1  1  0  0  0
 13  7  1  0  0  0  0
 14 19  1  0  0  0  0
 14 18  1  0  0  0  0
 15 21  1  6  0  0  0
 15 19  1  0  0  0  0
 16 22  1  0  0  0  0
 17 24  1  1  0  0  0
 17 15  1  0  0  0  0
 17 16  1  0  0  0  0
 19 25  1  1  0  0  0
 20 22  1  0  0  0  0
 21 19  1  0  0  0  0
 22 13  1  1  0  0  0
 23 24  1  6  0  0  0
 23 18  1  0  0  0  0
 23 20  1  0  0  0  0
 27 28  1  0  0  0  0
 27 26  1  0  0  0  0
 28 29  1  0  0  0  0
 29 31  1  0  0  0  0
 30 29  2  0  0  0  0
 32 37  1  1  0  0  0
 33 31  1  1  0  0  0
 33 34  1  0  0  0  0
 33 32  1  0  0  0  0
 34 32  1  0  0  0  0
 35 39  1  0  0  0  0
 37 41  1  0  0  0  0
 38 36  1  0  0  0  0
 38 45  1  0  0  0  0
 39 45  2  0  0  0  0
 40 46  2  0  0  0  0
 40 43  1  0  0  0  0
 41 43  1  0  0  0  0
 41 35  2  0  0  0  0
 42 40  1  0  0  0  0
 43 38  2  0  0  0  0
 44 47  1  0  0  0  0
 44 36  2  0  0  0  0
 46 44  1  0  0  0  0
 48 49  1  0  0  0  0
 48 37  1  0  0  0  0
M  END
>  <MODEL>
7

>  <REMARK>
 VINA RESULT:      -6.6      1.618      4.538
  Name = 
  15 active torsions:
  status: ('A' for Active; 'I' for Inactive)
    1  A    between atoms: C_5  and  N_12
    2  A    between atoms: C_6  and  O_25
    3  A    between atoms: C_6  and  C_29
    4  A    between atoms: C_6  and  C_46
    5  A    between atoms: C_11  and  C_31
    6  A    between atoms: N_12  and  C_38
    7  A    between atoms: C_14  and  C_46
    8  A    between atoms: C_14  and  O_47
    9  A    between atoms: C_15  and  C_31
   10  A    between atoms: C_15  and  S_45
   11  A    between atoms: C_17  and  O_25
   12  A    between atoms: C_17  and  C_48
   13  A    between atoms: C_36  and  C_39
   14  A    between atoms: C_39  and  C_46
   15  A    between atoms: S_45  and  C_48
                            x       y       z     vdW  Elec       q    Type
                         _______ _______ _______ _____ _____    ______ ____

>  <TORSDO>
F 15

$$$$
=
 OpenBabel11062410583D

 49 56  0  0  1  0  0  0  0  0999 V2000
  185.0980  179.3260  140.1070 O   0  0  0  0  0  0  0  0  0  0  0  0
  184.0190  178.7120  140.7650 C   0  0  1  0  0  3  0  0  0  0  0  0
  183.6940  178.2610  143.1400 C   0  0  2  0  0  3  0  0  0  0  0  0
  183.7340  179.3760  142.1140 C   0  0  2  0  0  0  0  0  0  0  0  0
  182.4100  178.9400  142.7110 C   0  0  0  0  0  2  0  0  0  0  0  0
  184.8400  179.2480  143.1450 C   0  0  0  0  0  2  0  0  0  0  0  0
  182.7450  178.7280  139.8950 C   0  0  1  0  0  3  0  0  0  0  0  0
  182.9060  179.6000  138.6780 C   0  0  0  0  0  0  0  0  0  0  0  0
  183.5080  179.1640  137.6570 O   0  0  0  0  0  0  0  0  0  0  0  0
  181.0420  181.1400  139.1250 C   0  0  0  0  0  1  0  0  0  0  0  0
  182.3720  180.8880  138.6920 O   0  0  0  0  0  0  0  0  0  0  0  0
  183.0840  176.3760  140.1980 O   0  0  0  0  0  1  0  0  0  0  0  0
  182.2450  177.3100  139.5790 C   0  0  1  0  0  3  0  0  0  0  0  0
  180.9850  174.7940  136.6730 C   0  0  0  0  0  2  0  0  0  0  0  0
  180.6500  177.4720  136.9780 C   0  0  1  0  0  3  0  0  0  0  0  0
  179.8580  177.8730  139.2840 O   0  0  0  0  0  0  0  0  0  0  0  0
  179.5530  177.2520  138.0460 C   0  0  2  0  0  3  0  0  0  0  0  0
  181.1340  174.5260  138.1640 C   0  0  0  0  0  2  0  0  0  0  0  0
  181.3210  176.2470  136.3570 C   0  0  2  0  0  0  0  0  0  0  0  0
  180.3500  175.6460  140.2690 C   0  0  0  0  0  2  0  0  0  0  0  0
  180.2020  176.9480  135.6210 C   0  0  0  0  0  2  0  0  0  0  0  0
  180.7890  177.1090  140.0410 C   0  0  1  0  0  3  0  0  0  0  0  0
  179.9130  174.9620  138.9780 C   0  0  1  0  0  3  0  0  0  0  0  0
  178.9410  175.8630  138.2240 C   0  0  0  0  0  2  0  0  0  0  0  0
  182.5520  176.4870  135.7510 O   0  0  0  0  0  1  0  0  0  0  0  0
  186.2270  178.5890  140.4720 C   0  0  0  0  0  2  0  0  0  0  0  0
  186.9040  178.0330  139.2400 C   0  0  0  0  0  2  0  0  0  0  0  0
  188.6110  178.6400  139.1860 S   0  0  0  0  0  0  0  0  0  0  0  0
  189.2820  177.0830  139.7790 C   0  0  0  0  0  0  0  0  0  0  0  0
  189.1400  175.9950  139.0330 C   0  0  0  0  0  2  0  0  0  0  0  0
  189.9600  176.9470  141.1160 C   0  0  0  0  0  2  0  0  0  0  0  0
  191.1710  178.1940  143.0430 C   0  0  2  0  0  3  0  0  0  0  0  0
  190.5910  178.2450  141.6190 C   0  0  1  0  0  3  0  0  0  0  0  0
  192.0710  178.0080  141.8300 C   0  0  0  0  0  2  0  0  0  0  0  0
  191.2980  176.4190  146.0410 N   0  0  0  0  0  0  0  0  0  0  0  0
  187.6080  177.6970  147.3620 C   0  0  0  0  0  3  0  0  0  0  0  0
  190.8900  176.9310  143.7410 N   0  0  0  0  0  0  0  0  0  0  0  0
  188.8450  177.2730  146.8850 C   0  0  0  0  0  0  0  0  0  0  0  0
  190.9770  176.3770  147.3560 C   0  0  0  0  0  3  0  0  0  0  0  0
  188.1030  177.7270  144.6000 C   0  0  0  0  0  0  0  0  0  0  0  0
  190.4310  176.8820  145.1010 C   0  0  0  0  0  0  0  0  0  0  0  0
  188.2220  177.6970  143.1170 C   0  0  0  0  0  1  0  0  0  0  0  0
  189.1330  177.3050  145.4930 C   0  0  0  0  0  0  0  0  0  0  0  0
  186.6280  178.1480  146.4790 C   0  0  0  0  0  0  0  0  0  0  0  0
  189.7630  176.8100  147.7700 N   0  0  0  0  0  0  0  0  0  0  0  0
  186.8710  178.1500  145.1090 C   0  0  0  0  0  3  0  0  0  0  0  0
  185.3120  178.6020  146.9980 C   0  0  0  0  0  1  0  0  0  0  0  0
  191.2060  175.6750  143.0770 C   0  0  0  0  0  2  0  0  0  0  0  0
  191.9200  174.8460  143.9420 O   0  0  0  0  0  1  0  0  0  0  0  0
  1 26  1  0  0  0  0
  2  1  1  6  0  0  0
  3  5  1  1  0  0  0
  3  6  1  0  0  0  0
  4  2  1  6  0  0  0
  4  5  1  0  0  0  0
  4  3  1  0  0  0  0
  4  6  1  0  0  0  0
  7  8  1  6  0  0  0
  7  2  1  0  0  0  0
  8 11  1  0  0  0  0
  9  8  2  0  0  0  0
 11 10  1  0  0  0  0
 13  7  1  0  0  0  0
 13 12  1  1  0  0  0
 14 18  1  0  0  0  0
 15 21  1  6  0  0  0
 15 17  1  0  0  0  0
 16 22  1  0  0  0  0
 17 24  1  1  0  0  0
 17 16  1  0  0  0  0
 19 25  1  6  0  0  0
 19 14  1  0  0  0  0
 19 15  1  0  0  0  0
 21 19  1  0  0  0  0
 22 13  1  6  0  0  0
 22 20  1  0  0  0  0
 23 18  1  6  0  0  0
 23 20  1  0  0  0  0
 24 23  1  0  0  0  0
 27 26  1  0  0  0  0
 28 27  1  0  0  0  0
 28 29  1  0  0  0  0
 29 31  1  0  0  0  0
 30 29  2  0  0  0  0
 32 37  1  1  0  0  0
 33 31  1  1  0  0  0
 33 34  1  0  0  0  0
 33 32  1  0  0  0  0
 34 32  1  0  0  0  0
 35 39  1  0  0  0  0
 37 41  1  0  0  0  0
 38 36  1  0  0  0  0
 38 45  1  0  0  0  0
 39 45  2  0  0  0  0
 40 46  2  0  0  0  0
 40 43  1  0  0  0  0
 41 43  1  0  0  0  0
 41 35  2  0  0  0  0
 42 40  1  0  0  0  0
 43 38  2  0  0  0  0
 44 47  1  0  0  0  0
 44 36  2  0  0  0  0
 46 44  1  0  0  0  0
 48 37  1  0  0  0  0
 48 49  1  0  0  0  0
M  END
>  <MODEL>
8

>  <REMARK>
 VINA RESULT:      -6.4      2.336      4.665
  Name = 
  15 active torsions:
  status: ('A' for Active; 'I' for Inactive)
    1  A    between atoms: C_5  and  N_12
    2  A    between atoms: C_6  and  O_25
    3  A    between atoms: C_6  and  C_29
    4  A    between atoms: C_6  and  C_46
    5  A    between atoms: C_11  and  C_31
    6  A    between atoms: N_12  and  C_38
    7  A    between atoms: C_14  and  C_46
    8  A    between atoms: C_14  and  O_47
    9  A    between atoms: C_15  and  C_31
   10  A    between atoms: C_15  and  S_45
   11  A    between atoms: C_17  and  O_25
   12  A    between atoms: C_17  and  C_48
   13  A    between atoms: C_36  and  C_39
   14  A    between atoms: C_39  and  C_46
   15  A    between atoms: S_45  and  C_48
                            x       y       z     vdW  Elec       q    Type
                         _______ _______ _______ _____ _____    ______ ____

>  <TORSDO>
F 15

$$$$
=
 OpenBabel11062410583D

 49 56  0  0  1  0  0  0  0  0999 V2000
  185.6010  177.0820  138.0810 O   0  0  0  0  0  0  0  0  0  0  0  0
  184.8210  177.2650  136.9260 C   0  0  1  0  0  3  0  0  0  0  0  0
  186.8320  176.7820  135.6310 C   0  0  2  0  0  3  0  0  0  0  0  0
  185.3580  176.4440  135.7510 C   0  0  2  0  0  0  0  0  0  0  0  0
  185.8470  177.3110  134.6070 C   0  0  0  0  0  2  0  0  0  0  0  0
  186.4100  175.4110  136.1110 C   0  0  0  0  0  2  0  0  0  0  0  0
  183.3430  176.9060  137.1800 C   0  0  1  0  0  3  0  0  0  0  0  0
  183.2010  175.6410  137.9840 C   0  0  0  0  0  0  0  0  0  0  0  0
  183.1690  175.6870  139.2450 O   0  0  0  0  0  0  0  0  0  0  0  0
  182.3680  174.2990  136.0990 C   0  0  0  0  0  1  0  0  0  0  0  0
  183.0950  174.4220  137.3140 O   0  0  0  0  0  0  0  0  0  0  0  0
  183.3620  179.2350  137.7460 O   0  0  0  0  0  1  0  0  0  0  0  0
  182.5510  178.0940  137.7510 C   0  0  1  0  0  3  0  0  0  0  0  0
  180.4240  180.0810  140.5600 C   0  0  0  0  0  2  0  0  0  0  0  0
  180.3330  177.4860  139.7630 C   0  0  1  0  0  3  0  0  0  0  0  0
  180.2070  177.4620  137.2950 O   0  0  0  0  0  0  0  0  0  0  0  0
  179.5500  177.8660  138.4840 C   0  0  2  0  0  3  0  0  0  0  0  0
  180.9500  180.5920  139.2270 C   0  0  0  0  0  2  0  0  0  0  0  0
  180.7440  178.6000  140.7260 C   0  0  2  0  0  0  0  0  0  0  0  0
  180.8180  179.8270  136.8400 C   0  0  0  0  0  2  0  0  0  0  0  0
  179.5110  177.7740  141.0110 C   0  0  0  0  0  2  0  0  0  0  0  0
  181.2620  178.3510  136.9480 C   0  0  1  0  0  3  0  0  0  0  0  0
  180.0160  180.2830  138.0530 C   0  0  1  0  0  3  0  0  0  0  0  0
  178.9310  179.2590  138.3650 C   0  0  0  0  0  2  0  0  0  0  0  0
  181.7810  178.2770  141.5980 O   0  0  0  0  0  1  0  0  0  0  0  0
  186.3850  178.2320  138.1890 C   0  0  0  0  0  2  0  0  0  0  0  0
  187.4020  178.0630  139.2950 C   0  0  0  0  0  2  0  0  0  0  0  0
  189.0520  178.4170  138.6310 S   0  0  0  0  0  0  0  0  0  0  0  0
  189.8000  177.0370  139.5030 C   0  0  0  0  0  0  0  0  0  0  0  0
  190.1820  175.9700  138.8130 C   0  0  0  0  0  2  0  0  0  0  0  0
  189.9730  177.0190  140.9980 C   0  0  0  0  0  2  0  0  0  0  0  0
  190.4490  178.4290  143.1240 C   0  0  2  0  0  3  0  0  0  0  0  0
  190.3540  178.3750  141.5890 C   0  0  1  0  0  3  0  0  0  0  0  0
  191.6980  178.2390  142.2730 C   0  0  0  0  0  2  0  0  0  0  0  0
  189.8590  176.7550  146.1250 N   0  0  0  0  0  0  0  0  0  0  0  0
  185.9540  178.0330  146.4760 C   0  0  0  0  0  3  0  0  0  0  0  0
  190.0130  177.1860  143.7780 N   0  0  0  0  0  0  0  0  0  0  0  0
  187.2710  177.6080  146.3250 C   0  0  0  0  0  0  0  0  0  0  0  0
  189.2310  176.7530  147.3240 C   0  0  0  0  0  3  0  0  0  0  0  0
  187.0990  177.9770  143.9140 C   0  0  0  0  0  0  0  0  0  0  0  0
  189.2420  177.1770  144.9880 C   0  0  0  0  0  0  0  0  0  0  0  0
  187.5710  177.9000  142.5040 C   0  0  0  0  0  1  0  0  0  0  0  0
  187.8860  177.5980  145.0420 C   0  0  0  0  0  0  0  0  0  0  0  0
  185.2140  178.4430  145.3680 C   0  0  0  0  0  0  0  0  0  0  0  0
  187.9520  177.1850  147.4200 N   0  0  0  0  0  0  0  0  0  0  0  0
  185.7790  178.4020  144.0970 C   0  0  0  0  0  3  0  0  0  0  0  0
  183.8110  178.8980  145.5400 C   0  0  0  0  0  1  0  0  0  0  0  0
  190.4840  175.9120  143.2530 C   0  0  0  0  0  2  0  0  0  0  0  0
  191.6660  175.5410  143.8940 O   0  0  0  0  0  1  0  0  0  0  0  0
  1 26  1  0  0  0  0
  2  7  1  0  0  0  0
  2  1  1  1  0  0  0
  3  5  1  6  0  0  0
  3  4  1  0  0  0  0
  3  6  1  0  0  0  0
  4  6  1  0  0  0  0
  4  2  1  1  0  0  0
  5  4  1  0  0  0  0
  7 13  1  0  0  0  0
  7  8  1  1  0  0  0
  8  9  2  0  0  0  0
 10 11  1  0  0  0  0
 11  8  1  0  0  0  0
 13 12  1  6  0  0  0
 14 19  1  0  0  0  0
 15 19  1  0  0  0  0
 15 21  1  1  0  0  0
 16 17  1  0  0  0  0
 17 24  1  6  0  0  0
 17 15  1  0  0  0  0
 18 14  1  0  0  0  0
 19 21  1  0  0  0  0
 19 25  1  1  0  0  0
 20 22  1  0  0  0  0
 22 16  1  0  0  0  0
 22 13  1  1  0  0  0
 23 20  1  6  0  0  0
 23 24  1  0  0  0  0
 23 18  1  0  0  0  0
 26 27  1  0  0  0  0
 28 27  1  0  0  0  0
 28 29  1  0  0  0  0
 29 31  1  0  0  0  0
 30 29  2  0  0  0  0
 32 37  1  1  0  0  0
 33 31  1  1  0  0  0
 33 34  1  0  0  0  0
 33 32  1  0  0  0  0
 34 32  1  0  0  0  0
 35 39  1  0  0  0  0
 37 41  1  0  0  0  0
 38 36  1  0  0  0  0
 38 45  1  0  0  0  0
 39 45  2  0  0  0  0
 40 46  2  0  0  0  0
 40 43  1  0  0  0  0
 41 43  1  0  0  0  0
 41 35  2  0  0  0  0
 42 40  1  0  0  0  0
 43 38  2  0  0  0  0
 44 47  1  0  0  0  0
 44 36  2  0  0  0  0
 46 44  1  0  0  0  0
 48 37  1  0  0  0  0
 48 49  1  0  0  0  0
M  END
>  <MODEL>
9

>  <REMARK>
 VINA RESULT:      -6.2      1.599      2.349
  Name = 
  15 active torsions:
  status: ('A' for Active; 'I' for Inactive)
    1  A    between atoms: C_5  and  N_12
    2  A    between atoms: C_6  and  O_25
    3  A    between atoms: C_6  and  C_29
    4  A    between atoms: C_6  and  C_46
    5  A    between atoms: C_11  and  C_31
    6  A    between atoms: N_12  and  C_38
    7  A    between atoms: C_14  and  C_46
    8  A    between atoms: C_14  and  O_47
    9  A    between atoms: C_15  and  C_31
   10  A    between atoms: C_15  and  S_45
   11  A    between atoms: C_17  and  O_25
   12  A    between atoms: C_17  and  C_48
   13  A    between atoms: C_36  and  C_39
   14  A    between atoms: C_39  and  C_46
   15  A    between atoms: S_45  and  C_48
                            x       y       z     vdW  Elec       q    Type
                         _______ _______ _______ _____ _____    ______ ____

>  <TORSDO>
F 15

$$$$
