=
 OpenBabel11062416403D

 57 61  0  0  1  0  0  0  0  0999 V2000
  188.4550  177.5380  134.5940 C   0  0  0  0  0  3  0  0  0  0  0  0
  184.2250  179.8880  139.0980 C   0  0  0  0  0  1  0  0  0  0  0  0
  182.3900  175.7760  137.1280 C   0  0  0  0  0  2  0  0  0  0  0  0
  184.1870  174.1430  137.0760 C   0  0  0  0  0  0  0  0  0  0  0  0
  187.1420  176.1540  136.0600 C   0  0  2  0  0  0  0  0  0  0  0  0
  181.2420  176.4730  137.8760 C   0  0  1  0  0  0  0  0  0  0  0  0
  182.6410  179.0370  141.1640 O   0  0  0  0  0  0  0  0  0  0  0  0
  181.8020  177.0570  139.0390 O   0  0  0  0  0  0  0  0  0  0  0  0
  188.3130  176.1180  135.1260 C   0  0  0  0  0  3  0  0  0  0  0  0
  180.9870  178.1100  139.5310 C   0  0  2  0  0  3  0  0  0  0  0  0
  183.0690  174.6600  137.9190 C   0  0  0  0  0  2  0  0  0  0  0  0
  185.0160  177.6270  135.6870 C   0  0  0  0  0  1  0  0  0  0  0  0
  180.1810  177.1170  135.8200 O   0  0  0  0  0  0  0  0  0  0  0  0
  184.7170  178.7100  139.9390 C   0  0  1  0  0  3  0  0  0  0  0  0
  186.5420  177.5140  135.8210 C   0  0  1  0  0  0  0  0  0  0  0  0
  187.2120  177.2180  137.1770 C   0  0  1  0  0  3  0  0  0  0  0  0
  183.9640  173.2330  136.2220 O   0  0  0  0  0  0  0  0  0  0  0  0
  183.6040  178.0660  140.7970 C   0  0  1  0  0  3  0  0  0  0  0  0
  180.6810  177.4950  136.9110 C   0  0  0  0  0  0  0  0  0  0  0  0
  187.3130  178.3000  134.9320 O   0  0  0  0  0  0  0  0  0  0  0  0
  185.4440  177.7930  139.0500 C   0  0  0  0  0  0  0  0  0  0  0  0
  181.0320  179.3200  138.6030 C   0  0  0  0  0  2  0  0  0  0  0  0
  186.2000  174.9400  135.9990 C   0  0  0  0  0  2  0  0  0  0  0  0
  186.1970  177.3380  138.2300 C   0  0  0  0  0  0  0  0  0  0  0  0
  185.4500  174.7210  137.1770 O   0  0  0  0  0  0  0  0  0  0  0  0
  181.3490  178.4820  140.9840 C   0  0  0  0  0  2  0  0  0  0  0  0
  180.1320  175.4930  138.2780 C   0  0  0  0  0  1  0  0  0  0  0  0
  180.6340  179.9100  136.1990 C   0  0  0  0  0  1  0  0  0  0  0  0
  180.7770  178.8980  137.2330 N   0  0  0  0  0  0  0  0  0  0  0  0
  184.1850  177.3880  142.0460 C   0  0  0  0  0  2  0  0  0  0  0  0
  184.8740  178.4380  142.9400 C   0  0  1  0  0  3  0  0  0  0  0  0
  186.3320  178.6430  142.6400 C   0  0  0  0  0  0  0  0  0  0  0  0
  186.7230  179.7510  141.9960 C   0  0  0  0  0  2  0  0  0  0  0  0
  186.9400  176.4780  143.4220 O   0  0  0  0  0  0  0  0  0  0  0  0
  187.3280  177.6180  143.0460 C   0  0  0  0  0  0  0  0  0  0  0  0
  188.7940  177.9430  143.0810 C   0  0  2  0  0  3  0  0  0  0  0  0
  189.5520  177.5290  141.8530 C   0  0  0  0  0  0  0  0  0  0  0  0
  191.6160  177.3680  140.5630 C   0  0  0  0  0  3  0  0  0  0  0  0
  190.9030  176.9190  139.4330 C   0  0  0  0  0  0  0  0  0  0  0  0
  189.5070  176.8490  139.5170 C   0  0  0  0  0  3  0  0  0  0  0  0
  188.8470  177.1540  140.7090 C   0  0  0  0  0  3  0  0  0  0  0  0
  190.9500  177.6560  141.7660 C   0  0  0  0  0  3  0  0  0  0  0  0
  191.6070  176.5000  138.2000 C   0  0  0  0  0  0  0  0  0  0  0  0
  191.0320  176.6410  137.0870 O   0  0  0  0  0  0  0  0  0  0  0  0
  193.0070  175.9730  138.2260 C   0  0  0  0  0  2  0  0  0  0  0  0
  193.8600  176.8570  137.4440 N   0  0  0  0  0  1  0  0  0  0  0  0
  189.5160  177.6630  144.4270 C   0  0  0  0  0  0  0  0  0  0  0  0
  190.3820  178.7220  144.7140 O   0  0  0  0  0  1  0  0  0  0  0  0
  190.2750  176.4930  144.3140 O   0  0  0  0  0  1  0  0  0  0  0  0
  188.4940  177.5460  145.5570 C   0  0  0  0  0  2  0  0  0  0  0  0
  189.1170  177.4720  146.9070 C   0  0  0  0  0  0  0  0  0  0  0  0
  189.9460  176.4000  147.2260 O   0  0  0  0  0  0  0  0  0  0  0  0
  188.9160  178.3960  147.7410 O   0  0  0  0  0  1  0  0  0  0  0  0
  184.2080  179.6830  143.1650 O   0  0  0  0  0  0  0  0  0  0  0  0
  183.6910  179.7630  144.4900 C   0  0  0  0  0  2  0  0  0  0  0  0
  185.2190  178.9760  146.2430 C   0  0  0  0  0  2  0  0  0  0  0  0
  184.2830  178.6910  145.3480 C   0  0  0  0  0  3  0  0  0  0  0  0
  1 20  1  0  0  0  0
  1  9  2  0  0  0  0
  3  6  1  0  0  0  0
  3 11  1  0  0  0  0
  4 25  1  0  0  0  0
  4 11  1  0  0  0  0
  5  9  1  6  0  0  0
  5 16  1  0  0  0  0
  6 27  1  1  0  0  0
  6  8  1  0  0  0  0
  8 10  1  0  0  0  0
 10 22  1  6  0  0  0
 10 26  1  0  0  0  0
 13 19  2  0  0  0  0
 14  2  1  6  0  0  0
 14 18  1  0  0  0  0
 15 12  1  6  0  0  0
 15  5  1  0  0  0  0
 15 16  1  0  0  0  0
 16 24  1  1  0  0  0
 17  4  2  0  0  0  0
 18  7  1  0  0  0  0
 18 30  1  1  0  0  0
 19 29  1  0  0  0  0
 19  6  1  0  0  0  0
 20 15  1  0  0  0  0
 21 14  1  0  0  0  0
 23  5  1  0  0  0  0
 23 25  1  0  0  0  0
 24 21  3  0  0  0  0
 26  7  1  0  0  0  0
 28 29  1  0  0  0  0
 29 22  1  0  0  0  0
 31 30  1  6  0  0  0
 31 54  1  0  0  0  0
 32 31  1  0  0  0  0
 32 35  1  0  0  0  0
 33 32  2  0  0  0  0
 35 34  2  0  0  0  0
 36 35  1  1  0  0  0
 36 47  1  0  0  0  0
 37 36  1  0  0  0  0
 38 42  2  0  0  0  0
 39 40  2  0  0  0  0
 39 38  1  0  0  0  0
 40 41  1  0  0  0  0
 41 37  2  0  0  0  0
 42 37  1  0  0  0  0
 43 45  1  0  0  0  0
 43 39  1  0  0  0  0
 44 43  2  0  0  0  0
 46 45  1  0  0  0  0
 47 48  1  0  0  0  0
 47 50  1  0  0  0  0
 49 47  1  0  0  0  0
 50 51  1  0  0  0  0
 51 52  2  0  0  0  0
 51 53  1  0  0  0  0
 54 55  1  0  0  0  0
 55 57  1  0  0  0  0
 57 56  2  0  0  0  0
M  END
>  <MODEL>
1

>  <REMARK>
 VINA RESULT:      -6.5      0.000      0.000
  Name = 
  14 active torsions:
  status: ('A' for Active; 'I' for Inactive)
    1  A    between atoms: C_7  and  C_9
    2  A    between atoms: C_7  and  C_22
    3  A    between atoms: C_9  and  C_57
    4  A    between atoms: C_12  and  C_57
    5  A    between atoms: C_17  and  C_36
    6  A    between atoms: C_17  and  C_51
    7  A    between atoms: C_21  and  C_31
    8  A    between atoms: C_23  and  C_25
    9  A    between atoms: C_25  and  C_27
   10  A    between atoms: C_31  and  O_54
   11  A    between atoms: C_33  and  C_45
   12  A    between atoms: C_36  and  C_45
   13  A    between atoms: C_36  and  O_54
   14  A    between atoms: C_51  and  C_57
                            x       y       z     vdW  Elec       q    Type
                         _______ _______ _______ _____ _____    ______ ____

>  <TORSDO>
F 14

$$$$
=
 OpenBabel11062416403D

 57 61  0  0  1  0  0  0  0  0999 V2000
  188.8070  177.7390  134.5940 C   0  0  0  0  0  3  0  0  0  0  0  0
  183.6350  179.4760  138.3280 C   0  0  0  0  0  1  0  0  0  0  0  0
  183.0370  174.8560  136.7630 C   0  0  0  0  0  2  0  0  0  0  0  0
  185.1500  173.7070  137.0980 C   0  0  0  0  0  0  0  0  0  0  0  0
  187.6730  176.2470  136.1030 C   0  0  2  0  0  0  0  0  0  0  0  0
  181.6780  175.3330  137.3000 C   0  0  1  0  0  0  0  0  0  0  0  0
  182.0450  178.4980  140.3330 O   0  0  0  0  0  0  0  0  0  0  0  0
  181.9440  176.1570  138.4220 O   0  0  0  0  0  0  0  0  0  0  0  0
  188.9270  176.3930  135.2960 C   0  0  0  0  0  3  0  0  0  0  0  0
  180.8570  177.0290  138.6910 C   0  0  2  0  0  3  0  0  0  0  0  0
  183.8500  174.0280  137.7560 C   0  0  0  0  0  2  0  0  0  0  0  0
  185.3300  177.1170  135.3400 C   0  0  0  0  0  1  0  0  0  0  0  0
  180.7580  175.4770  135.0870 O   0  0  0  0  0  0  0  0  0  0  0  0
  184.2750  178.5490  139.3610 C   0  0  1  0  0  3  0  0  0  0  0  0
  186.8140  177.3890  135.6290 C   0  0  1  0  0  0  0  0  0  0  0  0
  187.3620  177.4110  137.0700 C   0  0  1  0  0  3  0  0  0  0  0  0
  185.2460  172.6830  136.3560 O   0  0  0  0  0  0  0  0  0  0  0  0
  183.2410  177.7530  140.1900 C   0  0  1  0  0  3  0  0  0  0  0  0
  181.0220  176.0800  136.1590 C   0  0  0  0  0  0  0  0  0  0  0  0
  187.4890  178.2370  134.7190 O   0  0  0  0  0  0  0  0  0  0  0  0
  185.2940  177.7430  138.6750 C   0  0  0  0  0  0  0  0  0  0  0  0
  180.7400  178.1080  137.6170 C   0  0  0  0  0  2  0  0  0  0  0  0
  187.0460  174.8430  136.1170 C   0  0  0  0  0  2  0  0  0  0  0  0
  186.2260  177.3970  137.9980 C   0  0  0  0  0  0  0  0  0  0  0  0
  186.2270  174.5790  137.2390 O   0  0  0  0  0  0  0  0  0  0  0  0
  180.9450  177.6330  140.1080 C   0  0  0  0  0  2  0  0  0  0  0  0
  180.7790  174.1640  137.7240 C   0  0  0  0  0  1  0  0  0  0  0  0
  180.5150  178.3210  135.1300 C   0  0  0  0  0  1  0  0  0  0  0  0
  180.7570  177.4910  136.2990 N   0  0  0  0  0  0  0  0  0  0  0  0
  183.8040  177.3730  141.5670 C   0  0  0  0  0  2  0  0  0  0  0  0
  183.3500  178.4030  142.6210 C   0  0  1  0  0  3  0  0  0  0  0  0
  184.4780  179.0570  143.3690 C   0  0  0  0  0  0  0  0  0  0  0  0
  185.3410  179.8400  142.7070 C   0  0  0  0  0  2  0  0  0  0  0  0
  183.6210  178.6350  145.5500 O   0  0  0  0  0  0  0  0  0  0  0  0
  184.6370  178.8270  144.8280 C   0  0  0  0  0  0  0  0  0  0  0  0
  185.9940  178.8890  145.4720 C   0  0  2  0  0  3  0  0  0  0  0  0
  187.0710  178.1590  144.7230 C   0  0  0  0  0  0  0  0  0  0  0  0
  189.3360  178.0130  143.8310 C   0  0  0  0  0  3  0  0  0  0  0  0
  189.0090  176.8370  143.1260 C   0  0  0  0  0  0  0  0  0  0  0  0
  187.6860  176.3790  143.1810 C   0  0  0  0  0  3  0  0  0  0  0  0
  186.7360  177.0360  143.9660 C   0  0  0  0  0  3  0  0  0  0  0  0
  188.3810  178.6600  144.6340 C   0  0  0  0  0  3  0  0  0  0  0  0
  190.0380  176.0840  142.3740 C   0  0  0  0  0  0  0  0  0  0  0  0
  190.4000  174.9530  142.7950 O   0  0  0  0  0  0  0  0  0  0  0  0
  190.6150  176.5950  141.0920 C   0  0  0  0  0  2  0  0  0  0  0  0
  189.5280  176.9330  140.1840 N   0  0  0  0  0  1  0  0  0  0  0  0
  186.0190  178.7010  147.0130 C   0  0  0  0  0  0  0  0  0  0  0  0
  184.7830  178.2090  147.4380 O   0  0  0  0  0  1  0  0  0  0  0  0
  186.2350  179.9390  147.6290 O   0  0  0  0  0  1  0  0  0  0  0  0
  187.1060  177.6990  147.4020 C   0  0  0  0  0  2  0  0  0  0  0  0
  188.0130  178.2040  148.4690 C   0  0  0  0  0  0  0  0  0  0  0  0
  187.5850  178.2070  149.7930 O   0  0  0  0  0  1  0  0  0  0  0  0
  189.1740  178.5950  148.1720 O   0  0  0  0  0  0  0  0  0  0  0  0
  182.3460  179.3530  142.2570 O   0  0  0  0  0  0  0  0  0  0  0  0
  181.5680  179.7440  143.3850 C   0  0  0  0  0  2  0  0  0  0  0  0
  179.3200  178.8710  143.8460 C   0  0  0  0  0  2  0  0  0  0  0  0
  180.1100  179.6160  143.0830 C   0  0  0  0  0  3  0  0  0  0  0  0
  1 20  1  0  0  0  0
  1  9  2  0  0  0  0
  3  6  1  0  0  0  0
  3 11  1  0  0  0  0
  4 25  1  0  0  0  0
  4 11  1  0  0  0  0
  5  9  1  6  0  0  0
  5 23  1  0  0  0  0
  5 16  1  0  0  0  0
  6 27  1  1  0  0  0
  6  8  1  0  0  0  0
  8 10  1  0  0  0  0
 10 22  1  6  0  0  0
 10 26  1  0  0  0  0
 13 19  2  0  0  0  0
 14  2  1  6  0  0  0
 14 18  1  0  0  0  0
 15 12  1  6  0  0  0
 15  5  1  0  0  0  0
 15 16  1  0  0  0  0
 16 24  1  1  0  0  0
 17  4  2  0  0  0  0
 18  7  1  0  0  0  0
 18 30  1  1  0  0  0
 19 29  1  0  0  0  0
 19  6  1  0  0  0  0
 20 15  1  0  0  0  0
 21 14  1  0  0  0  0
 23 25  1  0  0  0  0
 24 21  3  0  0  0  0
 26  7  1  0  0  0  0
 28 29  1  0  0  0  0
 29 22  1  0  0  0  0
 31 30  1  6  0  0  0
 31 32  1  0  0  0  0
 32 35  1  0  0  0  0
 33 32  2  0  0  0  0
 35 34  2  0  0  0  0
 36 35  1  6  0  0  0
 36 47  1  0  0  0  0
 37 36  1  0  0  0  0
 38 42  2  0  0  0  0
 39 40  2  0  0  0  0
 39 38  1  0  0  0  0
 40 41  1  0  0  0  0
 41 37  2  0  0  0  0
 42 37  1  0  0  0  0
 43 44  2  0  0  0  0
 43 39  1  0  0  0  0
 45 43  1  0  0  0  0
 46 45  1  0  0  0  0
 47 50  1  0  0  0  0
 47 48  1  0  0  0  0
 47 49  1  0  0  0  0
 50 51  1  0  0  0  0
 51 52  1  0  0  0  0
 53 51  2  0  0  0  0
 54 31  1  0  0  0  0
 54 55  1  0  0  0  0
 57 55  1  0  0  0  0
 57 56  2  0  0  0  0
M  END
>  <MODEL>
2

>  <REMARK>
 VINA RESULT:      -5.3      1.783      2.911
  Name = 
  14 active torsions:
  status: ('A' for Active; 'I' for Inactive)
    1  A    between atoms: C_7  and  C_9
    2  A    between atoms: C_7  and  C_22
    3  A    between atoms: C_9  and  C_57
    4  A    between atoms: C_12  and  C_57
    5  A    between atoms: C_17  and  C_36
    6  A    between atoms: C_17  and  C_51
    7  A    between atoms: C_21  and  C_31
    8  A    between atoms: C_23  and  C_25
    9  A    between atoms: C_25  and  C_27
   10  A    between atoms: C_31  and  O_54
   11  A    between atoms: C_33  and  C_45
   12  A    between atoms: C_36  and  C_45
   13  A    between atoms: C_36  and  O_54
   14  A    between atoms: C_51  and  C_57
                            x       y       z     vdW  Elec       q    Type
                         _______ _______ _______ _____ _____    ______ ____

>  <TORSDO>
F 14

$$$$
