=
 OpenBabel11062414503D

 33 37  0  0  1  0  0  0  0  0999 V2000
  191.8590  177.1460  139.8520 N   0  0  0  0  0  0  0  0  0  0  0  0
  190.1390  176.8820  141.4090 C   0  0  0  0  0  0  0  0  0  0  0  0
  190.6140  176.4000  140.0830 C   0  0  1  0  0  3  0  0  0  0  0  0
  188.9490  176.4120  142.0570 N   0  0  0  0  0  2  0  0  0  0  0  0
  191.9810  177.9340  141.0090 N   0  0  0  0  0  0  0  0  0  0  0  0
  190.9380  177.7480  141.9120 N   0  0  0  0  0  0  0  0  0  0  0  0
  187.1440  177.3810  143.3770 C   0  0  0  0  0  3  0  0  0  0  0  0
  188.4340  176.8430  143.3240 C   0  0  0  0  0  0  0  0  0  0  0  0
  186.6060  177.8140  144.5900 C   0  0  0  0  0  0  0  0  0  0  0  0
  189.4160  177.0630  146.8500 F   0  0  0  0  0  0  0  0  0  0  0  0
  187.3690  177.7100  145.7780 C   0  0  0  0  0  0  0  0  0  0  0  0
  188.6630  177.1720  145.7250 C   0  0  0  0  0  0  0  0  0  0  0  0
  186.8200  178.1440  146.9910 C   0  0  0  0  0  3  0  0  0  0  0  0
  185.5270  178.6770  147.0260 C   0  0  0  0  0  3  0  0  0  0  0  0
  185.3160  178.3490  144.6340 C   0  0  0  0  0  3  0  0  0  0  0  0
  184.7770  178.7790  145.8500 C   0  0  0  0  0  3  0  0  0  0  0  0
  189.1880  176.7440  144.5040 C   0  0  0  0  0  3  0  0  0  0  0  0
  188.5650  177.5900  139.2700 C   0  0  0  0  0  3  0  0  0  0  0  0
  187.5790  177.8610  138.3210 C   0  0  0  0  0  0  0  0  0  0  0  0
  188.6430  176.3010  136.8040 C   0  0  0  0  0  3  0  0  0  0  0  0
  187.6230  177.2110  137.0830 C   0  0  0  0  0  3  0  0  0  0  0  0
  189.6040  176.6820  139.0020 C   0  0  0  0  0  0  0  0  0  0  0  0
  189.6430  176.0190  137.7470 C   0  0  0  0  0  0  0  0  0  0  0  0
  190.6890  175.0320  137.3710 C   0  0  0  0  0  0  0  0  0  0  0  0
  191.9400  175.4930  136.8450 N   0  0  0  0  0  2  0  0  0  0  0  0
  190.4940  173.7940  137.5130 O   0  0  0  0  0  0  0  0  0  0  0  0
  195.3460  174.3920  137.0880 C   0  0  0  0  0  2  0  0  0  0  0  0
  193.8550  175.2140  135.3740 C   0  0  0  0  0  2  0  0  0  0  0  0
  193.9490  174.3810  137.6610 C   0  0  0  0  0  2  0  0  0  0  0  0
  193.0210  174.5900  136.4790 C   0  0  0  0  0  3  0  0  0  0  0  0
  195.2740  175.3210  135.8980 C   0  0  0  0  0  2  0  0  0  0  0  0
  186.5710  178.7760  138.6350 O   0  0  0  0  0  0  0  0  0  0  0  0
  185.1890  178.4770  138.4870 C   0  0  0  0  0  1  0  0  0  0  0  0
  1  3  1  0  0  0  0
  1  5  2  0  0  0  0
  2  6  2  0  0  0  0
  2  4  1  0  0  0  0
  3 22  1  6  0  0  0
  3  2  1  0  0  0  0
  4  8  1  0  0  0  0
  5  6  1  0  0  0  0
  7  9  1  0  0  0  0
  8  7  2  0  0  0  0
  8 17  1  0  0  0  0
  9 15  2  0  0  0  0
  9 11  1  0  0  0  0
 11 13  2  0  0  0  0
 12 11  1  0  0  0  0
 12 10  1  0  0  0  0
 13 14  1  0  0  0  0
 15 16  1  0  0  0  0
 16 14  2  0  0  0  0
 17 12  2  0  0  0  0
 19 32  1  0  0  0  0
 19 18  2  0  0  0  0
 20 21  2  0  0  0  0
 20 23  1  0  0  0  0
 21 19  1  0  0  0  0
 22 18  1  0  0  0  0
 23 22  2  0  0  0  0
 24 26  2  0  0  0  0
 24 23  1  0  0  0  0
 25 24  1  0  0  0  0
 27 29  1  0  0  0  0
 28 31  1  0  0  0  0
 28 30  1  0  0  0  0
 30 25  1  0  0  0  0
 30 29  1  0  0  0  0
 31 27  1  0  0  0  0
 33 32  1  0  0  0  0
M  END
>  <MODEL>
1

>  <REMARK>
 VINA RESULT:      -9.6      0.000      0.000
  Name = 
  5 active torsions:
  status: ('A' for Active; 'I' for Inactive)
    1  A    between atoms: C_1  and  C_23
    2  A    between atoms: N_2  and  C_31
    3  A    between atoms: C_5  and  O_12
    4  A    between atoms: C_8  and  N_20
    5  A    between atoms: C_16  and  C_19
                            x       y       z     vdW  Elec       q    Type
                         _______ _______ _______ _____ _____    ______ ____

>  <TORSDO>
F 5

$$$$
=
 OpenBabel11062414503D

 33 37  0  0  1  0  0  0  0  0999 V2000
  191.7750  177.1640  139.9660 N   0  0  0  0  0  0  0  0  0  0  0  0
  190.0350  176.9260  141.5050 C   0  0  0  0  0  0  0  0  0  0  0  0
  190.5180  176.4350  140.1860 C   0  0  1  0  0  3  0  0  0  0  0  0
  188.8330  176.4730  142.1420 N   0  0  0  0  0  2  0  0  0  0  0  0
  191.8940  177.9540  141.1220 N   0  0  0  0  0  0  0  0  0  0  0  0
  190.8390  177.7840  142.0140 N   0  0  0  0  0  0  0  0  0  0  0  0
  189.1570  176.9300  144.5140 C   0  0  0  0  0  3  0  0  0  0  0  0
  188.3090  176.9140  143.4020 C   0  0  0  0  0  0  0  0  0  0  0  0
  188.6860  177.3500  145.7590 C   0  0  0  0  0  0  0  0  0  0  0  0
  185.1920  178.1330  144.8980 F   0  0  0  0  0  0  0  0  0  0  0  0
  187.3400  177.7630  145.9010 C   0  0  0  0  0  0  0  0  0  0  0  0
  186.4880  177.7450  144.7880 C   0  0  0  0  0  0  0  0  0  0  0  0
  186.8760  178.1850  147.1540 C   0  0  0  0  0  3  0  0  0  0  0  0
  187.7390  178.1990  148.2540 C   0  0  0  0  0  3  0  0  0  0  0  0
  189.5410  177.3650  146.8630 C   0  0  0  0  0  3  0  0  0  0  0  0
  189.0680  177.7890  148.1090 C   0  0  0  0  0  3  0  0  0  0  0  0
  186.9740  177.3210  143.5480 C   0  0  0  0  0  3  0  0  0  0  0  0
  188.4730  177.6220  139.3590 C   0  0  0  0  0  3  0  0  0  0  0  0
  187.5010  177.9010  138.3980 C   0  0  0  0  0  0  0  0  0  0  0  0
  188.6000  176.3730  136.8740 C   0  0  0  0  0  3  0  0  0  0  0  0
  187.5690  177.2710  137.1510 C   0  0  0  0  0  3  0  0  0  0  0  0
  189.5230  176.7260  139.0940 C   0  0  0  0  0  0  0  0  0  0  0  0
  189.5880  176.0830  137.8290 C   0  0  0  0  0  0  0  0  0  0  0  0
  190.6460  175.1100  137.4540 C   0  0  0  0  0  0  0  0  0  0  0  0
  191.8720  175.5840  136.8830 N   0  0  0  0  0  2  0  0  0  0  0  0
  190.4850  173.8730  137.6360 O   0  0  0  0  0  0  0  0  0  0  0  0
  195.3160  174.5900  137.0410 C   0  0  0  0  0  2  0  0  0  0  0  0
  193.7380  175.2920  135.3520 C   0  0  0  0  0  2  0  0  0  0  0  0
  193.9430  174.5660  137.6690 C   0  0  0  0  0  2  0  0  0  0  0  0
  192.9650  174.6960  136.5150 C   0  0  0  0  0  3  0  0  0  0  0  0
  195.1720  175.4610  135.8160 C   0  0  0  0  0  2  0  0  0  0  0  0
  186.4800  178.8040  138.7100 O   0  0  0  0  0  0  0  0  0  0  0  0
  185.1110  178.4270  138.7620 C   0  0  0  0  0  1  0  0  0  0  0  0
  1  3  1  0  0  0  0
  1  5  2  0  0  0  0
  2  6  2  0  0  0  0
  2  4  1  0  0  0  0
  3 22  1  6  0  0  0
  3  2  1  0  0  0  0
  4  8  1  0  0  0  0
  5  6  1  0  0  0  0
  7  9  1  0  0  0  0
  8 17  1  0  0  0  0
  8  7  2  0  0  0  0
  9 11  2  0  0  0  0
  9 15  1  0  0  0  0
 11 13  1  0  0  0  0
 12 10  1  0  0  0  0
 12 11  1  0  0  0  0
 13 14  2  0  0  0  0
 15 16  2  0  0  0  0
 16 14  1  0  0  0  0
 17 12  2  0  0  0  0
 19 32  1  0  0  0  0
 19 18  2  0  0  0  0
 20 21  2  0  0  0  0
 20 23  1  0  0  0  0
 21 19  1  0  0  0  0
 22 18  1  0  0  0  0
 23 22  2  0  0  0  0
 24 26  2  0  0  0  0
 24 23  1  0  0  0  0
 25 24  1  0  0  0  0
 27 29  1  0  0  0  0
 28 31  1  0  0  0  0
 28 30  1  0  0  0  0
 30 25  1  0  0  0  0
 30 29  1  0  0  0  0
 31 27  1  0  0  0  0
 32 33  1  0  0  0  0
M  END
>  <MODEL>
2

>  <REMARK>
 VINA RESULT:      -9.5      1.020      1.757
  Name = 
  5 active torsions:
  status: ('A' for Active; 'I' for Inactive)
    1  A    between atoms: C_1  and  C_23
    2  A    between atoms: N_2  and  C_31
    3  A    between atoms: C_5  and  O_12
    4  A    between atoms: C_8  and  N_20
    5  A    between atoms: C_16  and  C_19
                            x       y       z     vdW  Elec       q    Type
                         _______ _______ _______ _____ _____    ______ ____

>  <TORSDO>
F 5

$$$$
=
 OpenBabel11062414503D

 33 37  0  0  1  0  0  0  0  0999 V2000
  189.1970  178.4920  136.8390 N   0  0  0  0  0  0  0  0  0  0  0  0
  189.6630  177.7150  138.9920 C   0  0  0  0  0  0  0  0  0  0  0  0
  189.8570  177.3900  137.5520 C   0  0  1  0  0  3  0  0  0  0  0  0
  190.1610  176.9150  140.0720 N   0  0  0  0  0  2  0  0  0  0  0  0
  188.7210  179.3080  137.8800 N   0  0  0  0  0  0  0  0  0  0  0  0
  189.0190  178.8120  139.1460 N   0  0  0  0  0  0  0  0  0  0  0  0
  188.7280  177.0220  142.0410 C   0  0  0  0  0  3  0  0  0  0  0  0
  189.9990  177.1680  141.4740 C   0  0  0  0  0  0  0  0  0  0  0  0
  188.5270  177.2610  143.4010 C   0  0  0  0  0  0  0  0  0  0  0  0
  191.9480  178.1810  144.4100 F   0  0  0  0  0  0  0  0  0  0  0  0
  189.6150  177.6530  144.2170 C   0  0  0  0  0  0  0  0  0  0  0  0
  190.8880  177.8020  143.6500 C   0  0  0  0  0  0  0  0  0  0  0  0
  189.4040  177.8880  145.5820 C   0  0  0  0  0  3  0  0  0  0  0  0
  188.1280  177.7330  146.1320 C   0  0  0  0  0  3  0  0  0  0  0  0
  187.2550  177.1100  143.9590 C   0  0  0  0  0  3  0  0  0  0  0  0
  187.0560  177.3460  145.3230 C   0  0  0  0  0  3  0  0  0  0  0  0
  191.0740  177.5610  142.2860 C   0  0  0  0  0  3  0  0  0  0  0  0
  187.8580  175.8870  137.4230 C   0  0  0  0  0  3  0  0  0  0  0  0
  187.2330  174.6690  137.1510 C   0  0  0  0  0  0  0  0  0  0  0  0
  189.3620  173.7620  136.4360 C   0  0  0  0  0  3  0  0  0  0  0  0
  187.9940  173.6050  136.6550 C   0  0  0  0  0  3  0  0  0  0  0  0
  189.2340  176.0650  137.2000 C   0  0  0  0  0  0  0  0  0  0  0  0
  190.0050  174.9820  136.7020 C   0  0  0  0  0  0  0  0  0  0  0  0
  191.4670  175.0620  136.4470 C   0  0  0  0  0  0  0  0  0  0  0  0
  192.3720  174.3330  137.2850 N   0  0  0  0  0  2  0  0  0  0  0  0
  191.9230  175.7590  135.5000 O   0  0  0  0  0  0  0  0  0  0  0  0
  195.6090  172.8170  137.6020 C   0  0  0  0  0  2  0  0  0  0  0  0
  194.5030  174.8340  138.3410 C   0  0  0  0  0  2  0  0  0  0  0  0
  194.3130  172.9290  136.8350 C   0  0  0  0  0  2  0  0  0  0  0  0
  193.8130  174.3410  137.0820 C   0  0  0  0  0  3  0  0  0  0  0  0
  195.4380  173.7290  138.7950 C   0  0  0  0  0  2  0  0  0  0  0  0
  185.8600  174.5450  137.3850 O   0  0  0  0  0  0  0  0  0  0  0  0
  185.2380  173.2970  137.6570 C   0  0  0  0  0  1  0  0  0  0  0  0
  1  3  1  0  0  0  0
  1  5  2  0  0  0  0
  2  6  2  0  0  0  0
  2  4  1  0  0  0  0
  3 22  1  1  0  0  0
  3  2  1  0  0  0  0
  4  8  1  0  0  0  0
  5  6  1  0  0  0  0
  7  9  1  0  0  0  0
  8  7  2  0  0  0  0
  8 17  1  0  0  0  0
  9 15  2  0  0  0  0
  9 11  1  0  0  0  0
 11 13  2  0  0  0  0
 12 11  1  0  0  0  0
 12 10  1  0  0  0  0
 13 14  1  0  0  0  0
 15 16  1  0  0  0  0
 16 14  2  0  0  0  0
 17 12  2  0  0  0  0
 19 32  1  0  0  0  0
 19 18  2  0  0  0  0
 20 21  2  0  0  0  0
 20 23  1  0  0  0  0
 21 19  1  0  0  0  0
 22 18  1  0  0  0  0
 23 22  2  0  0  0  0
 24 23  1  0  0  0  0
 24 25  1  0  0  0  0
 26 24  2  0  0  0  0
 27 31  1  0  0  0  0
 28 31  1  0  0  0  0
 29 30  1  0  0  0  0
 29 27  1  0  0  0  0
 30 25  1  0  0  0  0
 30 28  1  0  0  0  0
 32 33  1  0  0  0  0
M  END
>  <MODEL>
3

>  <REMARK>
 VINA RESULT:      -9.5      2.220      2.975
  Name = 
  5 active torsions:
  status: ('A' for Active; 'I' for Inactive)
    1  A    between atoms: C_1  and  C_23
    2  A    between atoms: N_2  and  C_31
    3  A    between atoms: C_5  and  O_12
    4  A    between atoms: C_8  and  N_20
    5  A    between atoms: C_16  and  C_19
                            x       y       z     vdW  Elec       q    Type
                         _______ _______ _______ _____ _____    ______ ____

>  <TORSDO>
F 5

$$$$
=
 OpenBabel11062414503D

 33 37  0  0  1  0  0  0  0  0999 V2000
  181.0610  179.3780  141.2490 N   0  0  0  0  0  0  0  0  0  0  0  0
  183.1470  178.8280  142.1430 C   0  0  0  0  0  0  0  0  0  0  0  0
  182.4280  179.0130  140.8530 C   0  0  1  0  0  3  0  0  0  0  0  0
  184.5330  178.4770  142.2490 N   0  0  0  0  0  2  0  0  0  0  0  0
  181.1230  179.3790  142.6530 N   0  0  0  0  0  0  0  0  0  0  0  0
  182.3810  179.0480  143.1470 N   0  0  0  0  0  0  0  0  0  0  0  0
  186.6160  177.8770  143.3640 C   0  0  0  0  0  3  0  0  0  0  0  0
  185.2780  178.2750  143.4580 C   0  0  0  0  0  0  0  0  0  0  0  0
  187.3750  177.6670  144.5170 C   0  0  0  0  0  0  0  0  0  0  0  0
  184.8630  178.4390  147.0970 F   0  0  0  0  0  0  0  0  0  0  0  0
  186.7900  177.8560  145.7910 C   0  0  0  0  0  0  0  0  0  0  0  0
  185.4490  178.2530  145.8860 C   0  0  0  0  0  0  0  0  0  0  0  0
  187.5600  177.6460  146.9420 C   0  0  0  0  0  3  0  0  0  0  0  0
  188.8980  177.2520  146.8300 C   0  0  0  0  0  3  0  0  0  0  0  0
  188.7110  177.2720  144.4130 C   0  0  0  0  0  3  0  0  0  0  0  0
  189.4710  177.0650  145.5680 C   0  0  0  0  0  3  0  0  0  0  0  0
  184.7010  178.4580  144.7240 C   0  0  0  0  0  3  0  0  0  0  0  0
  181.4000  176.8180  140.2180 C   0  0  0  0  0  3  0  0  0  0  0  0
  181.3760  175.6130  139.5160 C   0  0  0  0  0  0  0  0  0  0  0  0
  183.4500  176.2320  138.4290 C   0  0  0  0  0  3  0  0  0  0  0  0
  182.4090  175.3240  138.6170 C   0  0  0  0  0  3  0  0  0  0  0  0
  182.4370  177.7490  140.0340 C   0  0  0  0  0  0  0  0  0  0  0  0
  183.4870  177.4500  139.1260 C   0  0  0  0  0  0  0  0  0  0  0  0
  184.6360  178.3580  138.8710 C   0  0  0  0  0  0  0  0  0  0  0  0
  185.8970  177.8080  138.4720 N   0  0  0  0  0  2  0  0  0  0  0  0
  184.5160  179.6070  138.9950 O   0  0  0  0  0  0  0  0  0  0  0  0
  189.0480  178.3500  136.8440 C   0  0  0  0  0  2  0  0  0  0  0  0
  188.2010  178.2530  139.1050 C   0  0  0  0  0  2  0  0  0  0  0  0
  187.5410  178.3720  136.7630 C   0  0  0  0  0  2  0  0  0  0  0  0
  187.0590  178.6330  138.1790 C   0  0  0  0  0  3  0  0  0  0  0  0
  189.3590  177.8200  138.2250 C   0  0  0  0  0  2  0  0  0  0  0  0
  180.3190  174.7240  139.7310 O   0  0  0  0  0  0  0  0  0  0  0  0
  179.0930  175.1210  140.3310 C   0  0  0  0  0  1  0  0  0  0  0  0
  1  5  2  0  0  0  0
  2  4  1  0  0  0  0
  2  6  2  0  0  0  0
  3 22  1  1  0  0  0
  3  1  1  0  0  0  0
  3  2  1  0  0  0  0
  4  8  1  0  0  0  0
  5  6  1  0  0  0  0
  7  8  2  0  0  0  0
  7  9  1  0  0  0  0
  8 17  1  0  0  0  0
  9 11  1  0  0  0  0
 11 12  1  0  0  0  0
 11 13  2  0  0  0  0
 12 10  1  0  0  0  0
 14 13  1  0  0  0  0
 15  9  2  0  0  0  0
 15 16  1  0  0  0  0
 16 14  2  0  0  0  0
 17 12  2  0  0  0  0
 19 32  1  0  0  0  0
 19 18  2  0  0  0  0
 20 21  2  0  0  0  0
 20 23  1  0  0  0  0
 21 19  1  0  0  0  0
 22 18  1  0  0  0  0
 23 22  2  0  0  0  0
 24 26  2  0  0  0  0
 24 23  1  0  0  0  0
 25 24  1  0  0  0  0
 27 31  1  0  0  0  0
 29 27  1  0  0  0  0
 29 30  1  0  0  0  0
 30 25  1  0  0  0  0
 30 28  1  0  0  0  0
 31 28  1  0  0  0  0
 32 33  1  0  0  0  0
M  END
>  <MODEL>
4

>  <REMARK>
 VINA RESULT:      -8.8      3.993      6.507
  Name = 
  5 active torsions:
  status: ('A' for Active; 'I' for Inactive)
    1  A    between atoms: C_1  and  C_23
    2  A    between atoms: N_2  and  C_31
    3  A    between atoms: C_5  and  O_12
    4  A    between atoms: C_8  and  N_20
    5  A    between atoms: C_16  and  C_19
                            x       y       z     vdW  Elec       q    Type
                         _______ _______ _______ _____ _____    ______ ____

>  <TORSDO>
F 5

$$$$
=
 OpenBabel11062414503D

 33 37  0  0  1  0  0  0  0  0999 V2000
  189.3960  178.4270  137.1410 N   0  0  0  0  0  0  0  0  0  0  0  0
  189.5230  177.6700  139.3470 C   0  0  0  0  0  0  0  0  0  0  0  0
  190.0940  177.4520  137.9890 C   0  0  1  0  0  3  0  0  0  0  0  0
  189.9240  176.9430  140.5160 N   0  0  0  0  0  2  0  0  0  0  0  0
  188.5440  179.0860  138.0440 N   0  0  0  0  0  0  0  0  0  0  0  0
  188.6500  178.6080  139.3470 N   0  0  0  0  0  0  0  0  0  0  0  0
  190.2870  176.9900  142.9250 C   0  0  0  0  0  3  0  0  0  0  0  0
  189.4070  177.0980  141.8440 C   0  0  0  0  0  0  0  0  0  0  0  0
  189.8230  177.1330  144.2340 C   0  0  0  0  0  0  0  0  0  0  0  0
  186.2470  177.7370  143.5910 F   0  0  0  0  0  0  0  0  0  0  0  0
  188.4520  177.3890  144.4730 C   0  0  0  0  0  0  0  0  0  0  0  0
  187.5680  177.4950  143.3900 C   0  0  0  0  0  0  0  0  0  0  0  0
  187.9960  177.5330  145.7890 C   0  0  0  0  0  3  0  0  0  0  0  0
  188.8910  177.4260  146.8580 C   0  0  0  0  0  3  0  0  0  0  0  0
  190.7110  177.0260  145.3070 C   0  0  0  0  0  3  0  0  0  0  0  0
  190.2450  177.1720  146.6180 C   0  0  0  0  0  3  0  0  0  0  0  0
  188.0470  177.3480  142.0850 C   0  0  0  0  0  3  0  0  0  0  0  0
  188.5340  175.6500  137.2190 C   0  0  0  0  0  3  0  0  0  0  0  0
  188.2430  174.3480  136.8100 C   0  0  0  0  0  0  0  0  0  0  0  0
  190.5920  173.7890  136.9920 C   0  0  0  0  0  3  0  0  0  0  0  0
  189.2810  173.4170  136.6970 C   0  0  0  0  0  3  0  0  0  0  0  0
  189.8500  176.0440  137.5120 C   0  0  0  0  0  0  0  0  0  0  0  0
  190.9020  175.0960  137.4030 C   0  0  0  0  0  0  0  0  0  0  0  0
  192.3230  175.4070  137.7040 C   0  0  0  0  0  0  0  0  0  0  0  0
  193.2970  174.3560  137.6850 N   0  0  0  0  0  2  0  0  0  0  0  0
  192.6880  176.5840  137.9710 O   0  0  0  0  0  0  0  0  0  0  0  0
  196.7460  174.2010  136.7090 C   0  0  0  0  0  2  0  0  0  0  0  0
  195.3480  173.3110  138.4670 C   0  0  0  0  0  2  0  0  0  0  0  0
  195.4270  174.9340  136.6520 C   0  0  0  0  0  2  0  0  0  0  0  0
  194.7100  174.5860  137.9440 C   0  0  0  0  0  3  0  0  0  0  0  0
  196.4640  172.9490  137.5060 C   0  0  0  0  0  2  0  0  0  0  0  0
  186.9170  174.0080  136.5240 O   0  0  0  0  0  0  0  0  0  0  0  0
  185.8130  174.5730  137.2180 C   0  0  0  0  0  1  0  0  0  0  0  0
  1  3  1  0  0  0  0
  1  5  2  0  0  0  0
  2  6  2  0  0  0  0
  2  4  1  0  0  0  0
  3 22  1  6  0  0  0
  3  2  1  0  0  0  0
  4  8  1  0  0  0  0
  5  6  1  0  0  0  0
  7  9  1  0  0  0  0
  8 17  1  0  0  0  0
  8  7  2  0  0  0  0
  9 11  2  0  0  0  0
  9 15  1  0  0  0  0
 11 13  1  0  0  0  0
 12 10  1  0  0  0  0
 12 11  1  0  0  0  0
 13 14  2  0  0  0  0
 15 16  2  0  0  0  0
 16 14  1  0  0  0  0
 17 12  2  0  0  0  0
 18 22  1  0  0  0  0
 19 18  2  0  0  0  0
 20 23  1  0  0  0  0
 21 19  1  0  0  0  0
 21 20  2  0  0  0  0
 23 22  2  0  0  0  0
 23 24  1  0  0  0  0
 24 26  2  0  0  0  0
 25 24  1  0  0  0  0
 25 30  1  0  0  0  0
 27 31  1  0  0  0  0
 29 27  1  0  0  0  0
 29 30  1  0  0  0  0
 30 28  1  0  0  0  0
 31 28  1  0  0  0  0
 32 19  1  0  0  0  0
 32 33  1  0  0  0  0
M  END
>  <MODEL>
5

>  <REMARK>
 VINA RESULT:      -8.8      2.201      3.316
  Name = 
  5 active torsions:
  status: ('A' for Active; 'I' for Inactive)
    1  A    between atoms: C_1  and  C_23
    2  A    between atoms: N_2  and  C_31
    3  A    between atoms: C_5  and  O_12
    4  A    between atoms: C_8  and  N_20
    5  A    between atoms: C_16  and  C_19
                            x       y       z     vdW  Elec       q    Type
                         _______ _______ _______ _____ _____    ______ ____

>  <TORSDO>
F 5

$$$$
=
 OpenBabel11062414503D

 33 37  0  0  1  0  0  0  0  0999 V2000
  191.9550  177.1490  139.4500 N   0  0  0  0  0  0  0  0  0  0  0  0
  190.7140  176.8570  141.4070 C   0  0  0  0  0  0  0  0  0  0  0  0
  190.7800  176.4430  139.9780 C   0  0  1  0  0  3  0  0  0  0  0  0
  189.7220  176.3950  142.3340 N   0  0  0  0  0  2  0  0  0  0  0  0
  192.4340  177.8550  140.5680 N   0  0  0  0  0  0  0  0  0  0  0  0
  191.6690  177.6540  141.7130 N   0  0  0  0  0  0  0  0  0  0  0  0
  188.3440  177.1490  144.1970 C   0  0  0  0  0  3  0  0  0  0  0  0
  189.5980  176.7630  143.7140 C   0  0  0  0  0  0  0  0  0  0  0  0
  188.1820  177.5170  145.5340 C   0  0  0  0  0  0  0  0  0  0  0  0
  191.6350  177.0950  146.7450 F   0  0  0  0  0  0  0  0  0  0  0  0
  189.2930  177.5010  146.4100 C   0  0  0  0  0  0  0  0  0  0  0  0
  190.5520  177.1160  145.9260 C   0  0  0  0  0  0  0  0  0  0  0  0
  189.1210  177.8690  147.7510 C   0  0  0  0  0  3  0  0  0  0  0  0
  187.8590  178.2480  148.2180 C   0  0  0  0  0  3  0  0  0  0  0  0
  186.9250  177.8990  146.0080 C   0  0  0  0  0  3  0  0  0  0  0  0
  186.7630  178.2640  147.3490 C   0  0  0  0  0  3  0  0  0  0  0  0
  190.6990  176.7520  144.5850 C   0  0  0  0  0  3  0  0  0  0  0  0
  188.6360  177.7330  139.8460 C   0  0  0  0  0  3  0  0  0  0  0  0
  187.4450  178.1050  139.2210 C   0  0  0  0  0  0  0  0  0  0  0  0
  188.0050  176.6720  137.3500 C   0  0  0  0  0  3  0  0  0  0  0  0
  187.1330  177.5690  137.9670 C   0  0  0  0  0  3  0  0  0  0  0  0
  189.5300  176.8380  139.2350 C   0  0  0  0  0  0  0  0  0  0  0  0
  189.2090  176.2900  137.9650 C   0  0  0  0  0  0  0  0  0  0  0  0
  190.0770  175.3250  137.2420 C   0  0  0  0  0  0  0  0  0  0  0  0
  190.8610  175.7740  136.1300 N   0  0  0  0  0  2  0  0  0  0  0  0
  190.1390  174.1160  137.5950 O   0  0  0  0  0  0  0  0  0  0  0  0
  192.0840  172.5090  135.2820 C   0  0  0  0  0  2  0  0  0  0  0  0
  192.9550  174.5440  136.2500 C   0  0  0  0  0  2  0  0  0  0  0  0
  191.0520  173.5900  135.0660 C   0  0  0  0  0  2  0  0  0  0  0  0
  191.7540  174.8960  135.3890 C   0  0  0  0  0  3  0  0  0  0  0  0
  192.9750  173.0330  136.3840 C   0  0  0  0  0  2  0  0  0  0  0  0
  186.5930  179.0040  139.8690 O   0  0  0  0  0  0  0  0  0  0  0  0
  185.2940  178.6420  140.3180 C   0  0  0  0  0  1  0  0  0  0  0  0
  1  3  1  0  0  0  0
  1  5  2  0  0  0  0
  2  6  2  0  0  0  0
  2  4  1  0  0  0  0
  3 22  1  6  0  0  0
  3  2  1  0  0  0  0
  4  8  1  0  0  0  0
  5  6  1  0  0  0  0
  7  9  1  0  0  0  0
  8  7  2  0  0  0  0
  8 17  1  0  0  0  0
  9 15  2  0  0  0  0
  9 11  1  0  0  0  0
 11 13  2  0  0  0  0
 12 11  1  0  0  0  0
 12 10  1  0  0  0  0
 13 14  1  0  0  0  0
 15 16  1  0  0  0  0
 16 14  2  0  0  0  0
 17 12  2  0  0  0  0
 19 18  2  0  0  0  0
 19 32  1  0  0  0  0
 20 23  1  0  0  0  0
 20 21  2  0  0  0  0
 21 19  1  0  0  0  0
 22 18  1  0  0  0  0
 23 22  2  0  0  0  0
 24 26  2  0  0  0  0
 24 23  1  0  0  0  0
 25 24  1  0  0  0  0
 27 31  1  0  0  0  0
 28 31  1  0  0  0  0
 29 27  1  0  0  0  0
 29 30  1  0  0  0  0
 30 25  1  0  0  0  0
 30 28  1  0  0  0  0
 32 33  1  0  0  0  0
M  END
>  <MODEL>
6

>  <REMARK>
 VINA RESULT:      -8.7      1.272      1.812
  Name = 
  5 active torsions:
  status: ('A' for Active; 'I' for Inactive)
    1  A    between atoms: C_1  and  C_23
    2  A    between atoms: N_2  and  C_31
    3  A    between atoms: C_5  and  O_12
    4  A    between atoms: C_8  and  N_20
    5  A    between atoms: C_16  and  C_19
                            x       y       z     vdW  Elec       q    Type
                         _______ _______ _______ _____ _____    ______ ____

>  <TORSDO>
F 5

$$$$
=
 OpenBabel11062414503D

 33 37  0  0  1  0  0  0  0  0999 V2000
  185.2850  179.3730  140.6020 N   0  0  0  0  0  0  0  0  0  0  0  0
  186.4580  178.1170  142.1830 C   0  0  0  0  0  0  0  0  0  0  0  0
  185.1240  178.2490  141.5350 C   0  0  1  0  0  3  0  0  0  0  0  0
  186.7790  177.1250  143.1680 N   0  0  0  0  0  2  0  0  0  0  0  0
  186.6260  179.7520  140.7840 N   0  0  0  0  0  0  0  0  0  0  0  0
  187.2900  178.9800  141.7330 N   0  0  0  0  0  0  0  0  0  0  0  0
  188.1120  177.2190  145.2060 C   0  0  0  0  0  3  0  0  0  0  0  0
  188.0370  176.9530  143.8350 C   0  0  0  0  0  0  0  0  0  0  0  0
  189.3180  177.0660  145.8920 C   0  0  0  0  0  0  0  0  0  0  0  0
  191.4980  175.9670  143.1350 F   0  0  0  0  0  0  0  0  0  0  0  0
  190.4750  176.6390  145.1990 C   0  0  0  0  0  0  0  0  0  0  0  0
  190.4020  176.3750  143.8240 C   0  0  0  0  0  0  0  0  0  0  0  0
  191.6810  176.4860  145.8960 C   0  0  0  0  0  3  0  0  0  0  0  0
  191.7370  176.7520  147.2680 C   0  0  0  0  0  3  0  0  0  0  0  0
  189.3830  177.3320  147.2620 C   0  0  0  0  0  3  0  0  0  0  0  0
  190.5910  177.1750  147.9490 C   0  0  0  0  0  3  0  0  0  0  0  0
  189.1880  176.5330  143.1510 C   0  0  0  0  0  3  0  0  0  0  0  0
  184.4090  178.6570  143.9000 C   0  0  0  0  0  3  0  0  0  0  0  0
  183.4500  178.8830  144.8880 C   0  0  0  0  0  0  0  0  0  0  0  0
  181.7250  178.8560  143.1880 C   0  0  0  0  0  3  0  0  0  0  0  0
  182.1020  178.9830  144.5240 C   0  0  0  0  0  3  0  0  0  0  0  0
  184.0480  178.5350  142.5480 C   0  0  0  0  0  0  0  0  0  0  0  0
  182.6790  178.6300  142.1820 C   0  0  0  0  0  0  0  0  0  0  0  0
  182.1910  178.5010  140.7840 C   0  0  0  0  0  0  0  0  0  0  0  0
  181.3690  179.5320  140.2230 N   0  0  0  0  0  2  0  0  0  0  0  0
  182.4930  177.4980  140.0810 O   0  0  0  0  0  0  0  0  0  0  0  0
  180.7970  181.0620  137.0290 C   0  0  0  0  0  2  0  0  0  0  0  0
  179.4780  180.0800  138.7990 C   0  0  0  0  0  2  0  0  0  0  0  0
  181.7480  180.3470  137.9580 C   0  0  0  0  0  2  0  0  0  0  0  0
  180.8750  179.4890  138.8550 C   0  0  0  0  0  3  0  0  0  0  0  0
  179.5310  181.2480  137.8320 C   0  0  0  0  0  2  0  0  0  0  0  0
  183.8630  179.0030  146.2180 O   0  0  0  0  0  0  0  0  0  0  0  0
  185.1140  178.5150  146.6800 C   0  0  0  0  0  1  0  0  0  0  0  0
  1  5  2  0  0  0  0
  1  3  1  0  0  0  0
  2  4  1  0  0  0  0
  3  2  1  0  0  0  0
  3 22  1  1  0  0  0
  4  8  1  0  0  0  0
  5  6  1  0  0  0  0
  6  2  2  0  0  0  0
  7  9  1  0  0  0  0
  8  7  2  0  0  0  0
  9 15  1  0  0  0  0
 10 12  1  0  0  0  0
 11  9  2  0  0  0  0
 11 13  1  0  0  0  0
 12 11  1  0  0  0  0
 13 14  2  0  0  0  0
 14 16  1  0  0  0  0
 15 16  2  0  0  0  0
 17 12  2  0  0  0  0
 17  8  1  0  0  0  0
 18 19  1  0  0  0  0
 19 32  1  0  0  0  0
 20 21  1  0  0  0  0
 21 19  2  0  0  0  0
 22 18  2  0  0  0  0
 23 22  1  0  0  0  0
 23 20  2  0  0  0  0
 24 23  1  0  0  0  0
 25 24  1  0  0  0  0
 26 24  2  0  0  0  0
 27 31  1  0  0  0  0
 27 29  1  0  0  0  0
 28 30  1  0  0  0  0
 29 30  1  0  0  0  0
 30 25  1  0  0  0  0
 31 28  1  0  0  0  0
 32 33  1  0  0  0  0
M  END
>  <MODEL>
7

>  <REMARK>
 VINA RESULT:      -8.7      5.029      8.435
  Name = 
  5 active torsions:
  status: ('A' for Active; 'I' for Inactive)
    1  A    between atoms: C_1  and  C_23
    2  A    between atoms: N_2  and  C_31
    3  A    between atoms: C_5  and  O_12
    4  A    between atoms: C_8  and  N_20
    5  A    between atoms: C_16  and  C_19
                            x       y       z     vdW  Elec       q    Type
                         _______ _______ _______ _____ _____    ______ ____

>  <TORSDO>
F 5

$$$$
=
 OpenBabel11062414503D

 33 37  0  0  1  0  0  0  0  0999 V2000
  185.3070  179.3750  140.5460 N   0  0  0  0  0  0  0  0  0  0  0  0
  186.4600  178.1160  142.1400 C   0  0  0  0  0  0  0  0  0  0  0  0
  185.1340  178.2510  141.4760 C   0  0  1  0  0  3  0  0  0  0  0  0
  186.7690  177.1240  143.1270 N   0  0  0  0  0  2  0  0  0  0  0  0
  186.6460  179.7530  140.7450 N   0  0  0  0  0  0  0  0  0  0  0  0
  187.2980  178.9800  141.7010 N   0  0  0  0  0  0  0  0  0  0  0  0
  188.0800  177.2270  145.1790 C   0  0  0  0  0  3  0  0  0  0  0  0
  188.0180  176.9500  143.8090 C   0  0  0  0  0  0  0  0  0  0  0  0
  189.2780  177.0720  145.8800 C   0  0  0  0  0  0  0  0  0  0  0  0
  191.4810  175.9390  143.1540 F   0  0  0  0  0  0  0  0  0  0  0  0
  190.4400  176.6340  145.2020 C   0  0  0  0  0  0  0  0  0  0  0  0
  190.3800  176.3590  143.8290 C   0  0  0  0  0  0  0  0  0  0  0  0
  191.6370  176.4790  145.9140 C   0  0  0  0  0  3  0  0  0  0  0  0
  191.6800  176.7560  147.2840 C   0  0  0  0  0  3  0  0  0  0  0  0
  189.3300  177.3490  147.2480 C   0  0  0  0  0  3  0  0  0  0  0  0
  190.5300  177.1910  147.9490 C   0  0  0  0  0  3  0  0  0  0  0  0
  189.1740  176.5190  143.1410 C   0  0  0  0  0  3  0  0  0  0  0  0
  184.3920  178.6580  143.8330 C   0  0  0  0  0  3  0  0  0  0  0  0
  183.4210  178.8840  144.8090 C   0  0  0  0  0  0  0  0  0  0  0  0
  181.7160  178.8550  143.0890 C   0  0  0  0  0  3  0  0  0  0  0  0
  182.0770  178.9830  144.4300 C   0  0  0  0  0  3  0  0  0  0  0  0
  184.0460  178.5360  142.4770 C   0  0  0  0  0  0  0  0  0  0  0  0
  182.6810  178.6300  142.0940 C   0  0  0  0  0  0  0  0  0  0  0  0
  182.2100  178.5000  140.6910 C   0  0  0  0  0  0  0  0  0  0  0  0
  182.1110  177.2000  140.0960 N   0  0  0  0  0  2  0  0  0  0  0  0
  181.8900  179.5160  140.0170 O   0  0  0  0  0  0  0  0  0  0  0  0
  181.2160  175.0500  137.3660 C   0  0  0  0  0  2  0  0  0  0  0  0
  182.8160  176.8070  137.8030 C   0  0  0  0  0  2  0  0  0  0  0  0
  180.8170  175.7130  138.6630 C   0  0  0  0  0  2  0  0  0  0  0  0
  181.6330  176.9900  138.7370 C   0  0  0  0  0  3  0  0  0  0  0  0
  182.6580  175.4460  137.1520 C   0  0  0  0  0  2  0  0  0  0  0  0
  183.8180  179.0050  146.1440 O   0  0  0  0  0  0  0  0  0  0  0  0
  185.1080  178.6200  146.5990 C   0  0  0  0  0  1  0  0  0  0  0  0
  1  5  2  0  0  0  0
  1  3  1  0  0  0  0
  2  4  1  0  0  0  0
  3  2  1  0  0  0  0
  3 22  1  1  0  0  0
  4  8  1  0  0  0  0
  5  6  1  0  0  0  0
  6  2  2  0  0  0  0
  7  9  1  0  0  0  0
  8  7  2  0  0  0  0
  9 15  1  0  0  0  0
 10 12  1  0  0  0  0
 11  9  2  0  0  0  0
 11 13  1  0  0  0  0
 12 11  1  0  0  0  0
 13 14  2  0  0  0  0
 14 16  1  0  0  0  0
 15 16  2  0  0  0  0
 17  8  1  0  0  0  0
 17 12  2  0  0  0  0
 18 19  1  0  0  0  0
 19 32  1  0  0  0  0
 20 21  1  0  0  0  0
 21 19  2  0  0  0  0
 22 18  2  0  0  0  0
 23 22  1  0  0  0  0
 23 20  2  0  0  0  0
 24 23  1  0  0  0  0
 25 24  1  0  0  0  0
 26 24  2  0  0  0  0
 27 29  1  0  0  0  0
 28 30  1  0  0  0  0
 29 30  1  0  0  0  0
 30 25  1  0  0  0  0
 31 27  1  0  0  0  0
 31 28  1  0  0  0  0
 32 33  1  0  0  0  0
M  END
>  <MODEL>
8

>  <REMARK>
 VINA RESULT:      -8.7      5.106      7.776
  Name = 
  5 active torsions:
  status: ('A' for Active; 'I' for Inactive)
    1  A    between atoms: C_1  and  C_23
    2  A    between atoms: N_2  and  C_31
    3  A    between atoms: C_5  and  O_12
    4  A    between atoms: C_8  and  N_20
    5  A    between atoms: C_16  and  C_19
                            x       y       z     vdW  Elec       q    Type
                         _______ _______ _______ _____ _____    ______ ____

>  <TORSDO>
F 5

$$$$
=
 OpenBabel11062414503D

 33 37  0  0  1  0  0  0  0  0999 V2000
  184.7300  179.1220  139.6470 N   0  0  0  0  0  0  0  0  0  0  0  0
  185.0870  178.3520  141.8230 C   0  0  0  0  0  0  0  0  0  0  0  0
  184.3300  178.0560  140.5760 C   0  0  1  0  0  3  0  0  0  0  0  0
  185.0220  177.5550  143.0130 N   0  0  0  0  0  2  0  0  0  0  0  0
  185.6380  179.8830  140.4040 N   0  0  0  0  0  0  0  0  0  0  0  0
  185.8240  179.3920  141.6930 N   0  0  0  0  0  0  0  0  0  0  0  0
  187.0160  177.2980  144.3910 C   0  0  0  0  0  3  0  0  0  0  0  0
  185.7160  177.7920  144.2450 C   0  0  0  0  0  0  0  0  0  0  0  0
  187.7240  177.5060  145.5760 C   0  0  0  0  0  0  0  0  0  0  0  0
  185.2220  179.4010  147.5030 F   0  0  0  0  0  0  0  0  0  0  0  0
  187.1250  178.2210  146.6400 C   0  0  0  0  0  0  0  0  0  0  0  0
  185.8210  178.7150  146.4960 C   0  0  0  0  0  0  0  0  0  0  0  0
  187.8440  178.4270  147.8250 C   0  0  0  0  0  3  0  0  0  0  0  0
  189.1450  177.9300  147.9520 C   0  0  0  0  0  3  0  0  0  0  0  0
  189.0240  177.0110  145.7120 C   0  0  0  0  0  3  0  0  0  0  0  0
  189.7330  177.2230  146.8980 C   0  0  0  0  0  3  0  0  0  0  0  0
  185.1240  178.4980  145.3050 C   0  0  0  0  0  3  0  0  0  0  0  0
  182.3610  178.6670  141.9980 C   0  0  0  0  0  3  0  0  0  0  0  0
  180.9970  178.6810  142.2940 C   0  0  0  0  0  0  0  0  0  0  0  0
  180.5600  177.4890  140.2310 C   0  0  0  0  0  3  0  0  0  0  0  0
  180.0960  178.0880  141.4020 C   0  0  0  0  0  3  0  0  0  0  0  0
  182.8440  178.0760  140.8180 C   0  0  0  0  0  0  0  0  0  0  0  0
  181.9290  177.4690  139.9180 C   0  0  0  0  0  0  0  0  0  0  0  0
  182.3380  176.8050  138.6530 C   0  0  0  0  0  0  0  0  0  0  0  0
  182.6660  175.4100  138.6600 N   0  0  0  0  0  2  0  0  0  0  0  0
  182.3960  177.4490  137.5700 O   0  0  0  0  0  0  0  0  0  0  0  0
  182.9620  172.3750  136.7700 C   0  0  0  0  0  2  0  0  0  0  0  0
  184.4310  174.0810  137.6460 C   0  0  0  0  0  2  0  0  0  0  0  0
  182.0970  173.5280  137.2210 C   0  0  0  0  0  2  0  0  0  0  0  0
  183.0500  174.6850  137.4590 C   0  0  0  0  0  3  0  0  0  0  0  0
  184.2860  172.5820  137.4680 C   0  0  0  0  0  2  0  0  0  0  0  0
  180.5670  179.2870  143.4780 O   0  0  0  0  0  0  0  0  0  0  0  0
  179.5900  178.7030  144.3280 C   0  0  0  0  0  1  0  0  0  0  0  0
  1  5  2  0  0  0  0
  1  3  1  0  0  0  0
  2  4  1  0  0  0  0
  3 22  1  1  0  0  0
  3  2  1  0  0  0  0
  4  8  1  0  0  0  0
  5  6  1  0  0  0  0
  6  2  2  0  0  0  0
  7  9  1  0  0  0  0
  8  7  2  0  0  0  0
  8 17  1  0  0  0  0
  9 15  2  0  0  0  0
  9 11  1  0  0  0  0
 11 13  2  0  0  0  0
 12 11  1  0  0  0  0
 12 10  1  0  0  0  0
 13 14  1  0  0  0  0
 15 16  1  0  0  0  0
 16 14  2  0  0  0  0
 17 12  2  0  0  0  0
 18 19  1  0  0  0  0
 19 32  1  0  0  0  0
 20 21  1  0  0  0  0
 21 19  2  0  0  0  0
 22 18  2  0  0  0  0
 23 20  2  0  0  0  0
 23 22  1  0  0  0  0
 24 25  1  0  0  0  0
 24 23  1  0  0  0  0
 26 24  2  0  0  0  0
 27 29  1  0  0  0  0
 27 31  1  0  0  0  0
 29 30  1  0  0  0  0
 30 28  1  0  0  0  0
 30 25  1  0  0  0  0
 31 28  1  0  0  0  0
 32 33  1  0  0  0  0
M  END
>  <MODEL>
9

>  <REMARK>
 VINA RESULT:      -8.6      5.707      7.214
  Name = 
  5 active torsions:
  status: ('A' for Active; 'I' for Inactive)
    1  A    between atoms: C_1  and  C_23
    2  A    between atoms: N_2  and  C_31
    3  A    between atoms: C_5  and  O_12
    4  A    between atoms: C_8  and  N_20
    5  A    between atoms: C_16  and  C_19
                            x       y       z     vdW  Elec       q    Type
                         _______ _______ _______ _____ _____    ______ ____

>  <TORSDO>
F 5

$$$$
